
     RDKit          3D

165180  0  0  0  0  0  0  0  0999 V2000
    0.9853   -9.5657    2.7411 C   0  0  0  0  0  0  0  0  0  0  0  0
    0.7472   -8.8111    3.8369 C   0  0  0  0  0  0  0  0  0  0  0  0
    0.4757   -7.3658    3.8067 C   0  0  0  0  0  0  0  0  0  0  0  0
    0.2498   -6.6581    2.7887 O   0  0  0  0  0  0  0  0  0  0  0  0
    0.5468   -6.8537    5.1523 C   0  0  0  0  0  0  0  0  0  0  0  0
    0.4763   -5.5198    5.5543 C   0  0  0  0  0  0  0  0  0  0  0  0
    0.6462   -5.2214    6.9125 C   0  0  0  0  0  0  0  0  0  0  0  0
    0.5576   -3.5444    7.4300 Cl  0  0  0  0  0  0  0  0  0  0  0  0
    0.8969   -6.2585    7.8394 C   0  0  0  0  0  0  0  0  0  0  0  0
    1.1142   -5.9183    9.5550 Cl  0  0  0  0  0  0  0  0  0  0  0  0
    0.9662   -7.5935    7.4032 C   0  0  0  0  0  0  0  0  0  0  0  0
    0.8064   -7.8894    6.0358 C   0  0  0  0  0  0  0  0  0  0  0  0
    0.9123   -9.1820    5.2825 C   0  0  0  0  0  0  0  0  0  0  0  0
    1.0057  -10.4309    5.8133 C   0  0  0  0  0  0  0  0  0  0  0  0
    1.0646  -11.6228    5.0114 C   0  0  0  0  0  0  0  0  0  0  0  0
    1.1579  -12.5815    4.3770 N   0  0  0  0  0  0  0  0  0  0  0  0
    1.1682  -10.6700    7.2240 C   0  0  0  0  0  0  0  0  0  0  0  0
    1.3367  -10.8945    8.3532 N   0  0  0  0  0  0  0  0  0  0  0  0
    0.8363   -9.0263    1.3771 C   0  0  0  0  0  0  0  0  0  0  0  0
    1.9771   -8.6068    0.6823 C   0  0  0  0  0  0  0  0  0  0  0  0
    1.8601   -7.8111   -0.4711 C   0  0  0  0  0  0  0  0  0  0  0  0
    2.9924   -7.2844   -1.1245 O   0  0  0  0  0  0  0  0  0  0  0  0
    4.3457   -7.4336   -0.6928 C   0  0  0  0  0  0  0  0  0  0  0  0
    4.6451   -6.5062    0.4827 C   0  0  0  0  0  0  0  0  0  0  0  0
    0.5752   -7.4903   -0.9553 C   0  0  0  0  0  0  0  0  0  0  0  0
   -0.5615   -8.0089   -0.3119 C   0  0  0  0  0  0  0  0  0  0  0  0
   -0.4433   -8.7850    0.8501 C   0  0  0  0  0  0  0  0  0  0  0  0
   -1.5593   -9.2833    1.5448 O   0  0  0  0  0  0  0  0  0  0  0  0
   -2.9139   -9.2403    1.0899 C   0  0  0  0  0  0  0  0  0  0  0  0
   -3.1367  -10.2458   -0.0337 C   0  0  0  0  0  0  0  0  0  0  0  0
    0.3890   -6.4279   -1.9678 C   0  0  0  0  0  0  0  0  0  0  0  0
    1.0454   -6.2836   -3.2131 C   0  0  0  0  0  0  0  0  0  0  0  0
    1.8995   -7.3138   -3.8469 C   0  0  0  0  0  0  0  0  0  0  0  0
    3.1290   -6.9680   -4.4307 C   0  0  0  0  0  0  0  0  0  0  0  0
    3.9322   -7.9507   -5.0166 C   0  0  0  0  0  0  0  0  0  0  0  0
    3.5228   -9.2840   -5.0222 C   0  0  0  0  0  0  0  0  0  0  0  0
    2.3064   -9.6499   -4.4243 C   0  0  0  0  0  0  0  0  0  0  0  0
    1.8536  -11.0867   -4.4237 C   0  0  0  0  0  0  0  0  0  0  0  0
    0.7372  -11.3057   -5.4396 C   0  0  0  0  0  0  0  0  0  0  0  0
    1.4972   -8.6600   -3.8423 C   0  0  0  0  0  0  0  0  0  0  0  0
    0.7723   -5.0248   -3.7675 C   0  0  0  0  0  0  0  0  0  0  0  0
    1.3313   -4.1713   -5.1447 S   0  0  0  0  0  0  0  0  0  0  0  0
    0.5069   -2.7671   -4.6538 C   0  0  0  0  0  0  0  0  0  0  0  0
    0.3429   -1.4554   -5.0064 C   0  0  0  0  0  0  0  0  0  0  0  0
    0.7314   -0.7304   -6.1372 C   0  0  0  0  0  0  0  0  0  0  0  0
    0.3433    0.6427   -6.2312 C   0  0  0  0  0  0  0  0  0  0  0  0
    0.7576    1.3201   -7.3290 N   0  0  0  0  0  0  0  0  0  0  0  0
    1.5782    0.1082   -8.1118 S   0  0  0  0  0  0  0  0  0  0  0  0
    1.4614   -1.2404   -7.1562 N   0  0  0  0  0  0  0  0  0  0  0  0
   -0.3719    1.2219   -5.1722 C   0  0  0  0  0  0  0  0  0  0  0  0
   -0.5960    2.5397   -4.8660 C   0  0  0  0  0  0  0  0  0  0  0  0
   -0.0941    4.0502   -5.4758 S   0  0  0  0  0  0  0  0  0  0  0  0
   -0.3284    4.7832   -3.9559 C   0  0  0  0  0  0  0  0  0  0  0  0
    0.0016    6.0398   -3.4371 C   0  0  0  0  0  0  0  0  0  0  0  0
    0.4676    7.1602   -4.2581 C   0  0  0  0  0  0  0  0  0  0  0  0
   -0.4558    7.9146   -4.9964 C   0  0  0  0  0  0  0  0  0  0  0  0
   -0.0189    8.9625   -5.8084 C   0  0  0  0  0  0  0  0  0  0  0  0
    1.3481    9.2477   -5.9113 C   0  0  0  0  0  0  0  0  0  0  0  0
    2.2832    8.4936   -5.1838 C   0  0  0  0  0  0  0  0  0  0  0  0
    3.7559    8.7547   -5.3521 C   0  0  0  0  0  0  0  0  0  0  0  0
    4.2942    8.0423   -6.5869 C   0  0  0  0  0  0  0  0  0  0  0  0
    1.8400    7.4429   -4.3601 C   0  0  0  0  0  0  0  0  0  0  0  0
   -0.1050    6.0432   -2.0340 C   0  0  0  0  0  0  0  0  0  0  0  0
   -0.6148    4.5184   -1.4927 S   0  0  0  0  0  0  0  0  0  0  0  0
   -0.7189    3.8606   -3.0201 C   0  0  0  0  0  0  0  0  0  0  0  0
   -0.9057    2.5868   -3.5413 C   0  0  0  0  0  0  0  0  0  0  0  0
   -0.9394    1.3626   -2.9586 N   0  0  0  0  0  0  0  0  0  0  0  0
   -0.6757    0.5074   -3.9968 C   0  0  0  0  0  0  0  0  0  0  0  0
   -0.4133   -0.8843   -3.9657 C   0  0  0  0  0  0  0  0  0  0  0  0
   -0.8159   -1.8394   -3.0627 N   0  0  0  0  0  0  0  0  0  0  0  0
   -0.1842   -2.9515   -3.5043 C   0  0  0  0  0  0  0  0  0  0  0  0
   -0.0500   -4.2342   -3.0059 C   0  0  0  0  0  0  0  0  0  0  0  0
   -0.4882   -5.0165   -1.6018 S   0  0  0  0  0  0  0  0  0  0  0  0
   -2.0271   -1.8716   -2.2234 C   0  0  0  0  0  0  0  0  0  0  0  0
   -3.2518   -1.3492   -2.9731 C   0  0  0  0  0  0  0  0  0  0  0  0
   -0.7091    1.1285   -1.5271 C   0  0  0  0  0  0  0  0  0  0  0  0
   -1.9797    1.3891   -0.7122 C   0  0  0  0  0  0  0  0  0  0  0  0
    0.1427    7.1490   -1.0952 C   0  0  0  0  0  0  0  0  0  0  0  0
    1.0022    6.9080   -0.0145 C   0  0  0  0  0  0  0  0  0  0  0  0
    0.9631    7.7187    1.1307 C   0  0  0  0  0  0  0  0  0  0  0  0
    1.7563    7.4590    2.2618 O   0  0  0  0  0  0  0  0  0  0  0  0
    2.5589    6.2942    2.4414 C   0  0  0  0  0  0  0  0  0  0  0  0
    3.2823    6.3783    3.7727 C   0  0  0  0  0  0  0  0  0  0  0  0
    0.0541    8.7821    1.1757 C   0  0  0  0  0  0  0  0  0  0  0  0
   -0.7089    9.1088    0.0484 C   0  0  0  0  0  0  0  0  0  0  0  0
   -0.7017    8.2745   -1.0860 C   0  0  0  0  0  0  0  0  0  0  0  0
   -1.5626    8.4880   -2.1772 O   0  0  0  0  0  0  0  0  0  0  0  0
   -2.5984    9.4696   -2.2447 C   0  0  0  0  0  0  0  0  0  0  0  0
   -3.7876    9.0545   -1.3866 C   0  0  0  0  0  0  0  0  0  0  0  0
   -0.3083    9.3509    2.4897 C   0  0  0  0  0  0  0  0  0  0  0  0
   -1.3103    8.8172    3.2232 C   0  0  0  0  0  0  0  0  0  0  0  0
   -2.1191    7.6536    2.8247 C   0  0  0  0  0  0  0  0  0  0  0  0
   -2.2371    7.1745    1.6652 O   0  0  0  0  0  0  0  0  0  0  0  0
   -2.7465    7.1039    4.0038 C   0  0  0  0  0  0  0  0  0  0  0  0
   -3.4694    5.9164    4.1065 C   0  0  0  0  0  0  0  0  0  0  0  0
   -3.8923    5.4990    5.3733 C   0  0  0  0  0  0  0  0  0  0  0  0
   -4.7786    3.9909    5.5147 Cl  0  0  0  0  0  0  0  0  0  0  0  0
   -3.5714    6.2706    6.5124 C   0  0  0  0  0  0  0  0  0  0  0  0
   -4.0684    5.7567    8.1198 Cl  0  0  0  0  0  0  0  0  0  0  0  0
   -2.8244    7.4583    6.3793 C   0  0  0  0  0  0  0  0  0  0  0  0
   -2.4297    7.8837    5.1019 C   0  0  0  0  0  0  0  0  0  0  0  0
   -1.6085    9.0557    4.6700 C   0  0  0  0  0  0  0  0  0  0  0  0
   -1.3459   10.1794    5.3830 C   0  0  0  0  0  0  0  0  0  0  0  0
   -0.7081   11.3306    4.8026 C   0  0  0  0  0  0  0  0  0  0  0  0
   -0.1936   12.2632    4.3458 N   0  0  0  0  0  0  0  0  0  0  0  0
   -1.7901   10.3531    6.7395 C   0  0  0  0  0  0  0  0  0  0  0  0
   -2.1490   10.5048    7.8322 N   0  0  0  0  0  0  0  0  0  0  0  0
    1.4061  -10.5547    2.8175 H   0  0  0  0  0  0  0  0  0  0  0  0
    0.3000   -4.7317    4.8365 H   0  0  0  0  0  0  0  0  0  0  0  0
    1.1810   -8.3521    8.1324 H   0  0  0  0  0  0  0  0  0  0  0  0
    2.9453   -8.8244    1.1128 H   0  0  0  0  0  0  0  0  0  0  0  0
    5.0168   -7.1672   -1.5356 H   0  0  0  0  0  0  0  0  0  0  0  0
    4.5563   -8.4928   -0.4346 H   0  0  0  0  0  0  0  0  0  0  0  0
    4.7925   -5.4660    0.1216 H   0  0  0  0  0  0  0  0  0  0  0  0
    5.5577   -6.8530    1.0089 H   0  0  0  0  0  0  0  0  0  0  0  0
    3.8068   -6.5031    1.2109 H   0  0  0  0  0  0  0  0  0  0  0  0
   -1.5359   -7.7502   -0.7013 H   0  0  0  0  0  0  0  0  0  0  0  0
   -3.1935   -8.2152    0.7676 H   0  0  0  0  0  0  0  0  0  0  0  0
   -3.5737   -9.5105    1.9448 H   0  0  0  0  0  0  0  0  0  0  0  0
   -2.8502  -11.2660    0.3054 H   0  0  0  0  0  0  0  0  0  0  0  0
   -2.5237   -9.9810   -0.9203 H   0  0  0  0  0  0  0  0  0  0  0  0
   -4.2027  -10.2498   -0.3335 H   0  0  0  0  0  0  0  0  0  0  0  0
    3.4838   -5.9434   -4.4115 H   0  0  0  0  0  0  0  0  0  0  0  0
    4.8810   -7.6717   -5.4642 H   0  0  0  0  0  0  0  0  0  0  0  0
    4.1588  -10.0285   -5.4795 H   0  0  0  0  0  0  0  0  0  0  0  0
    2.7032  -11.7637   -4.6645 H   0  0  0  0  0  0  0  0  0  0  0  0
    1.4827  -11.3601   -3.4103 H   0  0  0  0  0  0  0  0  0  0  0  0
   -0.1697  -10.7315   -5.1471 H   0  0  0  0  0  0  0  0  0  0  0  0
    0.4712  -12.3862   -5.4763 H   0  0  0  0  0  0  0  0  0  0  0  0
    1.0669  -10.9849   -6.4515 H   0  0  0  0  0  0  0  0  0  0  0  0
    0.5463   -8.9372   -3.4001 H   0  0  0  0  0  0  0  0  0  0  0  0
   -1.5154    7.6948   -4.9352 H   0  0  0  0  0  0  0  0  0  0  0  0
   -0.7304    9.5428   -6.3778 H   0  0  0  0  0  0  0  0  0  0  0  0
    1.6777   10.0472   -6.5670 H   0  0  0  0  0  0  0  0  0  0  0  0
    4.3121    8.4094   -4.4549 H   0  0  0  0  0  0  0  0  0  0  0  0
    3.9354    9.8483   -5.4551 H   0  0  0  0  0  0  0  0  0  0  0  0
    5.3848    8.2366   -6.6932 H   0  0  0  0  0  0  0  0  0  0  0  0
    3.7867    8.4170   -7.5037 H   0  0  0  0  0  0  0  0  0  0  0  0
    4.1319    6.9447   -6.5002 H   0  0  0  0  0  0  0  0  0  0  0  0
    2.5569    6.8358   -3.8152 H   0  0  0  0  0  0  0  0  0  0  0  0
   -1.8724   -1.3400   -1.2721 H   0  0  0  0  0  0  0  0  0  0  0  0
   -2.2595   -2.9152   -1.9344 H   0  0  0  0  0  0  0  0  0  0  0  0
   -3.1608   -0.2669   -3.1949 H   0  0  0  0  0  0  0  0  0  0  0  0
   -4.1623   -1.4998   -2.3545 H   0  0  0  0  0  0  0  0  0  0  0  0
   -3.3732   -1.9039   -3.9259 H   0  0  0  0  0  0  0  0  0  0  0  0
   -0.3129    0.1171   -1.3437 H   0  0  0  0  0  0  0  0  0  0  0  0
    0.0952    1.8023   -1.1662 H   0  0  0  0  0  0  0  0  0  0  0  0
   -2.7929    0.6939   -0.9921 H   0  0  0  0  0  0  0  0  0  0  0  0
   -2.3569    2.4150   -0.8871 H   0  0  0  0  0  0  0  0  0  0  0  0
   -1.7582    1.2648    0.3674 H   0  0  0  0  0  0  0  0  0  0  0  0
    1.6361    6.0304   -0.0404 H   0  0  0  0  0  0  0  0  0  0  0  0
    1.9128    5.3879    2.4292 H   0  0  0  0  0  0  0  0  0  0  0  0
    3.3082    6.2189    1.6267 H   0  0  0  0  0  0  0  0  0  0  0  0
    4.0286    7.1982    3.7439 H   0  0  0  0  0  0  0  0  0  0  0  0
    2.5662    6.5782    4.5943 H   0  0  0  0  0  0  0  0  0  0  0  0
    3.8098    5.4230    3.9785 H   0  0  0  0  0  0  0  0  0  0  0  0
   -1.3923    9.9437    0.1169 H   0  0  0  0  0  0  0  0  0  0  0  0
   -2.9411    9.5380   -3.2959 H   0  0  0  0  0  0  0  0  0  0  0  0
   -2.2174   10.4696   -1.9471 H   0  0  0  0  0  0  0  0  0  0  0  0
   -3.4967    8.9459   -0.3229 H   0  0  0  0  0  0  0  0  0  0  0  0
   -4.5852    9.8257   -1.4598 H   0  0  0  0  0  0  0  0  0  0  0  0
   -4.1933    8.0855   -1.7470 H   0  0  0  0  0  0  0  0  0  0  0  0
    0.3874   10.0493    2.9295 H   0  0  0  0  0  0  0  0  0  0  0  0
   -3.6796    5.3197    3.2234 H   0  0  0  0  0  0  0  0  0  0  0  0
   -2.5515    7.9956    7.2747 H   0  0  0  0  0  0  0  0  0  0  0  0
  1  2  2  3
  2  3  1  0
  3  4  2  0
  3  5  1  0
  5  6  2  0
  6  7  1  0
  7  8  1  0
  7  9  2  0
  9 10  1  0
  9 11  1  0
 11 12  2  0
 12 13  1  0
 13 14  2  3
 14 15  1  0
 15 16  3  0
 14 17  1  0
 17 18  3  0
  1 19  1  0
 19 20  2  0
 20 21  1  0
 21 22  1  0
 22 23  1  0
 23 24  1  0
 21 25  2  0
 25 26  1  0
 26 27  2  0
 27 28  1  0
 28 29  1  0
 29 30  1  0
 25 31  1  0
 31 32  2  0
 32 33  1  0
 33 34  2  0
 34 35  1  0
 35 36  2  0
 36 37  1  0
 37 38  1  0
 38 39  1  0
 37 40  2  0
 32 41  1  0
 41 42  1  0
 42 43  1  0
 43 44  1  0
 44 45  1  0
 45 46  1  0
 46 47  2  0
 47 48  1  0
 48 49  1  0
 46 50  1  0
 50 51  1  0
 51 52  1  0
 52 53  1  0
 53 54  1  0
 54 55  1  0
 55 56  2  0
 56 57  1  0
 57 58  2  0
 58 59  1  0
 59 60  1  0
 60 61  1  0
 59 62  2  0
 54 63  2  0
 63 64  1  0
 64 65  1  0
 65 66  1  0
 66 67  1  0
 67 68  1  0
 68 69  1  0
 69 70  1  0
 70 71  1  0
 71 72  1  0
 72 73  1  0
 70 74  1  0
 74 75  1  0
 67 76  1  0
 76 77  1  0
 63 78  1  0
 78 79  2  0
 79 80  1  0
 80 81  1  0
 81 82  1  0
 82 83  1  0
 80 84  2  0
 84 85  1  0
 85 86  2  0
 86 87  1  0
 87 88  1  0
 88 89  1  0
 84 90  1  0
 90 91  2  3
 91 92  1  0
 92 93  2  0
 92 94  1  0
 94 95  2  0
 95 96  1  0
 96 97  1  0
 96 98  2  0
 98 99  1  0
 98100  1  0
100101  2  0
101102  1  0
102103  2  3
103104  1  0
104105  3  0
103106  1  0
106107  3  0
 13  2  1  0
 27 19  1  0
 73 31  1  0
 86 78  1  0
102 91  1  0
 12  5  1  0
 40 33  1  0
 72 41  2  0
101 94  1  0
 71 43  2  0
 69 44  2  0
 49 45  2  0
 68 50  2  0
 66 51  2  0
 65 53  2  0
 62 55  1  0
  1108  1  0
  6109  1  0
 11110  1  0
 20111  1  0
 23112  1  0
 23113  1  0
 24114  1  0
 24115  1  0
 24116  1  0
 26117  1  0
 29118  1  0
 29119  1  0
 30120  1  0
 30121  1  0
 30122  1  0
 34123  1  0
 35124  1  0
 36125  1  0
 38126  1  0
 38127  1  0
 39128  1  0
 39129  1  0
 39130  1  0
 40131  1  0
 56132  1  0
 57133  1  0
 58134  1  0
 60135  1  0
 60136  1  0
 61137  1  0
 61138  1  0
 61139  1  0
 62140  1  0
 74141  1  0
 74142  1  0
 75143  1  0
 75144  1  0
 75145  1  0
 76146  1  0
 76147  1  0
 77148  1  0
 77149  1  0
 77150  1  0
 79151  1  0
 82152  1  0
 82153  1  0
 83154  1  0
 83155  1  0
 83156  1  0
 85157  1  0
 88158  1  0
 88159  1  0
 89160  1  0
 89161  1  0
 89162  1  0
 90163  1  0
 95164  1  0
100165  1  0
M  END

