
     RDKit          3D

197217  0  0  0  0  0  0  0  0999 V2000
    6.3914   -2.6808   -2.1760 C   0  0  0  0  0  0  0  0  0  0  0  0
    5.6031   -1.9431   -2.9893 C   0  0  0  0  0  0  0  0  0  0  0  0
    4.2858   -1.3921   -2.6305 C   0  0  0  0  0  0  0  0  0  0  0  0
    3.8146   -1.2558   -1.4691 O   0  0  0  0  0  0  0  0  0  0  0  0
    3.5698   -1.0914   -3.8490 C   0  0  0  0  0  0  0  0  0  0  0  0
    2.2235   -0.7494   -3.9916 C   0  0  0  0  0  0  0  0  0  0  0  0
    1.6842   -0.6677   -5.2845 C   0  0  0  0  0  0  0  0  0  0  0  0
   -0.0149   -0.2457   -5.4674 Cl  0  0  0  0  0  0  0  0  0  0  0  0
    2.4938   -0.9560   -6.4056 C   0  0  0  0  0  0  0  0  0  0  0  0
    1.8266   -0.9275   -8.0329 Cl  0  0  0  0  0  0  0  0  0  0  0  0
    3.8470   -1.3091   -6.2330 C   0  0  0  0  0  0  0  0  0  0  0  0
    4.3865   -1.3451   -4.9373 C   0  0  0  0  0  0  0  0  0  0  0  0
    5.7361   -1.7755   -4.4661 C   0  0  0  0  0  0  0  0  0  0  0  0
    6.8834   -1.8055   -5.1961 C   0  0  0  0  0  0  0  0  0  0  0  0
    8.1719   -2.0665   -4.6084 C   0  0  0  0  0  0  0  0  0  0  0  0
    9.2141   -2.2717   -4.1481 N   0  0  0  0  0  0  0  0  0  0  0  0
    6.9228   -1.4214   -6.5861 C   0  0  0  0  0  0  0  0  0  0  0  0
    6.9757   -1.0979   -7.6938 N   0  0  0  0  0  0  0  0  0  0  0  0
    6.0444   -2.9211   -0.7682 C   0  0  0  0  0  0  0  0  0  0  0  0
    5.0255   -3.7826   -0.2905 C   0  0  0  0  0  0  0  0  0  0  0  0
    4.4053   -4.8750   -1.0114 N   0  0  0  0  0  0  0  0  0  0  0  0
    4.4386   -4.9638   -2.4411 C   0  0  0  0  0  0  0  0  0  0  0  0
    5.5424   -5.5394   -3.0840 C   0  0  0  0  0  0  0  0  0  0  0  0
    5.6027   -5.5730   -4.4790 C   0  0  0  0  0  0  0  0  0  0  0  0
    4.5466   -5.0503   -5.2436 C   0  0  0  0  0  0  0  0  0  0  0  0
    4.6197   -5.0841   -6.7407 C   0  0  0  0  0  0  0  0  0  0  0  0
    3.4146   -4.5336   -4.5957 C   0  0  0  0  0  0  0  0  0  0  0  0
    3.3655   -4.4823   -3.2003 C   0  0  0  0  0  0  0  0  0  0  0  0
    3.8713   -5.9917   -0.2775 C   0  0  0  0  0  0  0  0  0  0  0  0
    4.6740   -6.6703    0.6530 C   0  0  0  0  0  0  0  0  0  0  0  0
    4.1459   -7.7176    1.4130 C   0  0  0  0  0  0  0  0  0  0  0  0
    2.8060   -8.1025    1.2496 C   0  0  0  0  0  0  0  0  0  0  0  0
    2.2193   -9.1704    2.1223 C   0  0  0  0  0  0  0  0  0  0  0  0
    1.9999   -7.4170    0.3270 C   0  0  0  0  0  0  0  0  0  0  0  0
    2.5308   -6.3730   -0.4364 C   0  0  0  0  0  0  0  0  0  0  0  0
    4.6193   -3.3911    0.9873 C   0  0  0  0  0  0  0  0  0  0  0  0
    3.1794   -3.6108    1.8202 S   0  0  0  0  0  0  0  0  0  0  0  0
    3.4260   -2.3306    2.9107 C   0  0  0  0  0  0  0  0  0  0  0  0
    4.6483   -1.7178    2.5989 C   0  0  0  0  0  0  0  0  0  0  0  0
    5.1619   -0.5584    3.2737 N   0  0  0  0  0  0  0  0  0  0  0  0
    5.0678    0.7754    2.7078 C   0  0  0  0  0  0  0  0  0  0  0  0
    5.4543    1.9060    3.4560 C   0  0  0  0  0  0  0  0  0  0  0  0
    5.3057    3.1963    2.9359 C   0  0  0  0  0  0  0  0  0  0  0  0
    4.7791    3.3888    1.6521 C   0  0  0  0  0  0  0  0  0  0  0  0
    4.5998    4.7719    1.0981 C   0  0  0  0  0  0  0  0  0  0  0  0
    4.3702    2.2772    0.9068 C   0  0  0  0  0  0  0  0  0  0  0  0
    4.5148    0.9854    1.4267 C   0  0  0  0  0  0  0  0  0  0  0  0
    5.8495   -0.8045    4.5092 C   0  0  0  0  0  0  0  0  0  0  0  0
    5.1286   -0.9855    5.6973 C   0  0  0  0  0  0  0  0  0  0  0  0
    5.7958   -1.2977    6.8845 C   0  0  0  0  0  0  0  0  0  0  0  0
    7.1915   -1.4491    6.8889 C   0  0  0  0  0  0  0  0  0  0  0  0
    7.9022   -1.7686    8.1697 C   0  0  0  0  0  0  0  0  0  0  0  0
    7.9134   -1.2424    5.7032 C   0  0  0  0  0  0  0  0  0  0  0  0
    7.2441   -0.9302    4.5171 C   0  0  0  0  0  0  0  0  0  0  0  0
    5.2823   -2.3318    1.5208 C   0  0  0  0  0  0  0  0  0  0  0  0
    6.4196   -1.7694    0.4300 S   0  0  0  0  0  0  0  0  0  0  0  0
    2.3186   -1.6546    3.6014 C   0  0  0  0  0  0  0  0  0  0  0  0
    1.3525   -2.2306    4.4513 C   0  0  0  0  0  0  0  0  0  0  0  0
    1.3444   -3.6349    4.8808 C   0  0  0  0  0  0  0  0  0  0  0  0
    0.8983   -4.6402    4.0140 C   0  0  0  0  0  0  0  0  0  0  0  0
    0.9399   -5.9773    4.4103 C   0  0  0  0  0  0  0  0  0  0  0  0
    1.4021   -6.3170    5.6872 C   0  0  0  0  0  0  0  0  0  0  0  0
    1.8205   -5.3117    6.5747 C   0  0  0  0  0  0  0  0  0  0  0  0
    2.3395   -5.6703    7.9429 C   0  0  0  0  0  0  0  0  0  0  0  0
    3.8519   -5.8664    7.9140 C   0  0  0  0  0  0  0  0  0  0  0  0
    1.7992   -3.9697    6.1618 C   0  0  0  0  0  0  0  0  0  0  0  0
    0.3800   -1.2908    4.8182 C   0  0  0  0  0  0  0  0  0  0  0  0
   -1.0627   -1.3688    5.7251 S   0  0  0  0  0  0  0  0  0  0  0  0
   -1.4051    0.2635    5.3761 C   0  0  0  0  0  0  0  0  0  0  0  0
   -2.4805    1.1044    5.4117 C   0  0  0  0  0  0  0  0  0  0  0  0
   -3.7798    0.8677    5.8634 C   0  0  0  0  0  0  0  0  0  0  0  0
   -4.8073    1.7867    5.5131 C   0  0  0  0  0  0  0  0  0  0  0  0
   -6.0631    1.4951    5.9232 N   0  0  0  0  0  0  0  0  0  0  0  0
   -5.7766    0.0639    6.7055 S   0  0  0  0  0  0  0  0  0  0  0  0
   -4.1537   -0.2301    6.5660 N   0  0  0  0  0  0  0  0  0  0  0  0
   -4.4673    2.9264    4.7811 C   0  0  0  0  0  0  0  0  0  0  0  0
   -5.2699    3.8795    4.2132 C   0  0  0  0  0  0  0  0  0  0  0  0
   -6.8064    3.7556    3.5036 S   0  0  0  0  0  0  0  0  0  0  0  0
   -6.3839    4.8198    2.2454 C   0  0  0  0  0  0  0  0  0  0  0  0
   -6.9056    4.9429    0.9506 C   0  0  0  0  0  0  0  0  0  0  0  0
   -8.2791    4.5584    0.5705 C   0  0  0  0  0  0  0  0  0  0  0  0
   -9.1201    5.5194   -0.0071 C   0  0  0  0  0  0  0  0  0  0  0  0
  -10.4204    5.1863   -0.3774 C   0  0  0  0  0  0  0  0  0  0  0  0
  -10.8886    3.8841   -0.1909 C   0  0  0  0  0  0  0  0  0  0  0  0
  -10.0521    2.9024    0.3658 C   0  0  0  0  0  0  0  0  0  0  0  0
  -10.5319    1.4779    0.4744 C   0  0  0  0  0  0  0  0  0  0  0  0
  -10.4270    0.7781   -0.8781 C   0  0  0  0  0  0  0  0  0  0  0  0
   -8.7427    3.2454    0.7466 C   0  0  0  0  0  0  0  0  0  0  0  0
   -5.9389    5.4311    0.0478 C   0  0  0  0  0  0  0  0  0  0  0  0
   -4.4873    5.6974    0.8892 S   0  0  0  0  0  0  0  0  0  0  0  0
   -5.0815    5.2319    2.3808 C   0  0  0  0  0  0  0  0  0  0  0  0
   -4.4444    4.6939    3.4942 C   0  0  0  0  0  0  0  0  0  0  0  0
   -3.1403    4.3582    3.6199 N   0  0  0  0  0  0  0  0  0  0  0  0
   -3.1521    3.2005    4.3602 C   0  0  0  0  0  0  0  0  0  0  0  0
   -2.1385    2.2178    4.6106 C   0  0  0  0  0  0  0  0  0  0  0  0
   -0.9079    2.0071    4.0218 N   0  0  0  0  0  0  0  0  0  0  0  0
   -0.4903    0.8275    4.5590 C   0  0  0  0  0  0  0  0  0  0  0  0
    0.5371   -0.0525    4.2501 C   0  0  0  0  0  0  0  0  0  0  0  0
    1.9018   -0.0386    3.2916 S   0  0  0  0  0  0  0  0  0  0  0  0
   -0.3215    2.6067    2.8135 C   0  0  0  0  0  0  0  0  0  0  0  0
   -1.2045    2.3741    1.5885 C   0  0  0  0  0  0  0  0  0  0  0  0
   -2.0618    5.3159    3.3296 C   0  0  0  0  0  0  0  0  0  0  0  0
   -1.1576    5.5393    4.5404 C   0  0  0  0  0  0  0  0  0  0  0  0
   -5.9544    5.2311   -1.4133 C   0  0  0  0  0  0  0  0  0  0  0  0
   -5.0462    5.8090   -2.2920 C   0  0  0  0  0  0  0  0  0  0  0  0
   -4.9432    5.1309   -3.5164 C   0  0  0  0  0  0  0  0  0  0  0  0
   -3.8341    5.6737   -4.8257 S   0  0  0  0  0  0  0  0  0  0  0  0
   -2.3441    4.8564   -4.1603 C   0  0  0  0  0  0  0  0  0  0  0  0
   -2.1868    3.4518   -4.7217 C   0  0  0  0  0  0  0  0  0  0  0  0
   -5.7476    4.0001   -3.5946 C   0  0  0  0  0  0  0  0  0  0  0  0
   -6.6324    3.8851   -2.1666 S   0  0  0  0  0  0  0  0  0  0  0  0
   -5.7583    3.0228   -4.6955 C   0  0  0  0  0  0  0  0  0  0  0  0
   -5.4470    1.7188   -4.5428 C   0  0  0  0  0  0  0  0  0  0  0  0
   -4.8665    1.1017   -3.3380 C   0  0  0  0  0  0  0  0  0  0  0  0
   -4.8060    1.6028   -2.1860 O   0  0  0  0  0  0  0  0  0  0  0  0
   -4.2338   -0.1416   -3.7152 C   0  0  0  0  0  0  0  0  0  0  0  0
   -3.4748   -0.9949   -2.9135 C   0  0  0  0  0  0  0  0  0  0  0  0
   -2.8725   -2.1165   -3.5039 C   0  0  0  0  0  0  0  0  0  0  0  0
   -1.9163   -3.1924   -2.4948 Cl  0  0  0  0  0  0  0  0  0  0  0  0
   -3.0164   -2.3449   -4.8914 C   0  0  0  0  0  0  0  0  0  0  0  0
   -2.2377   -3.7192   -5.6697 Cl  0  0  0  0  0  0  0  0  0  0  0  0
   -3.7781   -1.4617   -5.6793 C   0  0  0  0  0  0  0  0  0  0  0  0
   -4.4110   -0.3630   -5.0678 C   0  0  0  0  0  0  0  0  0  0  0  0
   -5.2668    0.7178   -5.6424 C   0  0  0  0  0  0  0  0  0  0  0  0
   -5.9302    0.6922   -6.8312 C   0  0  0  0  0  0  0  0  0  0  0  0
   -5.8072   -0.4029   -7.7544 C   0  0  0  0  0  0  0  0  0  0  0  0
   -5.7307   -1.2922   -8.4959 N   0  0  0  0  0  0  0  0  0  0  0  0
   -6.9396    1.6643   -7.1684 C   0  0  0  0  0  0  0  0  0  0  0  0
   -7.7557    2.4341   -7.4396 N   0  0  0  0  0  0  0  0  0  0  0  0
    7.2664   -3.1895   -2.5527 H   0  0  0  0  0  0  0  0  0  0  0  0
    1.6026   -0.5814   -3.1216 H   0  0  0  0  0  0  0  0  0  0  0  0
    4.4252   -1.5950   -7.0981 H   0  0  0  0  0  0  0  0  0  0  0  0
    6.3703   -5.9240   -2.4979 H   0  0  0  0  0  0  0  0  0  0  0  0
    6.4768   -5.9919   -4.9629 H   0  0  0  0  0  0  0  0  0  0  0  0
    4.4539   -6.1209   -7.0969 H   0  0  0  0  0  0  0  0  0  0  0  0
    3.8563   -4.4203   -7.1977 H   0  0  0  0  0  0  0  0  0  0  0  0
    5.6198   -4.7413   -7.0817 H   0  0  0  0  0  0  0  0  0  0  0  0
    2.5842   -4.1370   -5.1683 H   0  0  0  0  0  0  0  0  0  0  0  0
    2.5034   -4.0473   -2.7105 H   0  0  0  0  0  0  0  0  0  0  0  0
    5.7007   -6.3700    0.8040 H   0  0  0  0  0  0  0  0  0  0  0  0
    4.7770   -8.2152    2.1388 H   0  0  0  0  0  0  0  0  0  0  0  0
    2.9792   -9.9559    2.3371 H   0  0  0  0  0  0  0  0  0  0  0  0
    1.8878   -8.7255    3.0815 H   0  0  0  0  0  0  0  0  0  0  0  0
    1.3520   -9.6581    1.6280 H   0  0  0  0  0  0  0  0  0  0  0  0
    0.9553   -7.6775    0.2108 H   0  0  0  0  0  0  0  0  0  0  0  0
    1.8840   -5.8212   -1.1070 H   0  0  0  0  0  0  0  0  0  0  0  0
    5.8527    1.8017    4.4554 H   0  0  0  0  0  0  0  0  0  0  0  0
    5.6046    4.0479    3.5402 H   0  0  0  0  0  0  0  0  0  0  0  0
    3.5410    5.0868    1.2247 H   0  0  0  0  0  0  0  0  0  0  0  0
    5.2519    5.4954    1.6273 H   0  0  0  0  0  0  0  0  0  0  0  0
    4.8612    4.7849    0.0199 H   0  0  0  0  0  0  0  0  0  0  0  0
    3.9365    2.4061   -0.0766 H   0  0  0  0  0  0  0  0  0  0  0  0
    4.1670    0.1568    0.8240 H   0  0  0  0  0  0  0  0  0  0  0  0
    4.0515   -0.8904    5.7011 H   0  0  0  0  0  0  0  0  0  0  0  0
    5.2255   -1.4337    7.7982 H   0  0  0  0  0  0  0  0  0  0  0  0
    8.8573   -2.3071    7.9731 H   0  0  0  0  0  0  0  0  0  0  0  0
    8.1239   -0.8289    8.7144 H   0  0  0  0  0  0  0  0  0  0  0  0
    7.2765   -2.4199    8.8134 H   0  0  0  0  0  0  0  0  0  0  0  0
    8.9937   -1.3356    5.6942 H   0  0  0  0  0  0  0  0  0  0  0  0
    7.8062   -0.8005    3.6004 H   0  0  0  0  0  0  0  0  0  0  0  0
    0.5364   -4.3891    3.0245 H   0  0  0  0  0  0  0  0  0  0  0  0
    0.6117   -6.7505    3.7281 H   0  0  0  0  0  0  0  0  0  0  0  0
    1.4290   -7.3582    5.9814 H   0  0  0  0  0  0  0  0  0  0  0  0
    2.0955   -4.8609    8.6649 H   0  0  0  0  0  0  0  0  0  0  0  0
    1.8525   -6.6009    8.3081 H   0  0  0  0  0  0  0  0  0  0  0  0
    4.1211   -6.7074    7.2373 H   0  0  0  0  0  0  0  0  0  0  0  0
    4.3583   -4.9404    7.5609 H   0  0  0  0  0  0  0  0  0  0  0  0
    4.2146   -6.1011    8.9380 H   0  0  0  0  0  0  0  0  0  0  0  0
    2.1472   -3.1903    6.8300 H   0  0  0  0  0  0  0  0  0  0  0  0
   -8.7669    6.5326   -0.1579 H   0  0  0  0  0  0  0  0  0  0  0  0
  -11.0630    5.9360   -0.8194 H   0  0  0  0  0  0  0  0  0  0  0  0
  -11.8931    3.6294   -0.5039 H   0  0  0  0  0  0  0  0  0  0  0  0
   -9.9280    0.9186    1.2262 H   0  0  0  0  0  0  0  0  0  0  0  0
  -11.5892    1.4613    0.8184 H   0  0  0  0  0  0  0  0  0  0  0  0
   -9.3874    0.8321   -1.2660 H   0  0  0  0  0  0  0  0  0  0  0  0
  -10.7105   -0.2886   -0.7656 H   0  0  0  0  0  0  0  0  0  0  0  0
  -11.1175    1.2519   -1.6090 H   0  0  0  0  0  0  0  0  0  0  0  0
   -8.0812    2.4845    1.1429 H   0  0  0  0  0  0  0  0  0  0  0  0
    0.6665    2.1673    2.5938 H   0  0  0  0  0  0  0  0  0  0  0  0
   -0.0658    3.6584    2.9790 H   0  0  0  0  0  0  0  0  0  0  0  0
   -2.2292    2.7662    1.7404 H   0  0  0  0  0  0  0  0  0  0  0  0
   -1.2713    1.2856    1.3703 H   0  0  0  0  0  0  0  0  0  0  0  0
   -0.7628    2.8901    0.7081 H   0  0  0  0  0  0  0  0  0  0  0  0
   -2.5028    6.3105    3.0867 H   0  0  0  0  0  0  0  0  0  0  0  0
   -1.5269    5.0364    2.4098 H   0  0  0  0  0  0  0  0  0  0  0  0
   -1.7345    6.0259    5.3575 H   0  0  0  0  0  0  0  0  0  0  0  0
   -0.3161    6.2036    4.2567 H   0  0  0  0  0  0  0  0  0  0  0  0
   -0.7354    4.5927    4.9272 H   0  0  0  0  0  0  0  0  0  0  0  0
   -4.4133    6.6485   -2.0309 H   0  0  0  0  0  0  0  0  0  0  0  0
   -2.3571    4.8308   -3.0496 H   0  0  0  0  0  0  0  0  0  0  0  0
   -1.4636    5.4569   -4.4747 H   0  0  0  0  0  0  0  0  0  0  0  0
   -2.9522    2.7855   -4.2835 H   0  0  0  0  0  0  0  0  0  0  0  0
   -1.1851    3.0520   -4.4585 H   0  0  0  0  0  0  0  0  0  0  0  0
   -2.2915    3.4643   -5.8273 H   0  0  0  0  0  0  0  0  0  0  0  0
   -5.8790    3.4319   -5.6870 H   0  0  0  0  0  0  0  0  0  0  0  0
   -3.3494   -0.7934   -1.8565 H   0  0  0  0  0  0  0  0  0  0  0  0
   -3.8233   -1.6263   -6.7417 H   0  0  0  0  0  0  0  0  0  0  0  0
  1  2  2  3
  2  3  1  0
  3  4  2  0
  3  5  1  0
  5  6  2  0
  6  7  1  0
  7  8  1  0
  7  9  2  0
  9 10  1  0
  9 11  1  0
 11 12  2  0
 12 13  1  0
 13 14  2  3
 14 15  1  0
 15 16  3  0
 14 17  1  0
 17 18  3  0
  1 19  1  0
 19 20  2  0
 20 21  1  0
 21 22  1  0
 22 23  2  0
 23 24  1  0
 24 25  2  0
 25 26  1  0
 25 27  1  0
 27 28  2  0
 21 29  1  0
 29 30  2  0
 30 31  1  0
 31 32  2  0
 32 33  1  0
 32 34  1  0
 34 35  2  0
 20 36  1  0
 36 37  1  0
 37 38  1  0
 38 39  2  0
 39 40  1  0
 40 41  1  0
 41 42  2  0
 42 43  1  0
 43 44  2  0
 44 45  1  0
 44 46  1  0
 46 47  2  0
 40 48  1  0
 48 49  2  0
 49 50  1  0
 50 51  2  0
 51 52  1  0
 51 53  1  0
 53 54  2  0
 39 55  1  0
 55 56  1  0
 38 57  1  0
 57 58  2  0
 58 59  1  0
 59 60  2  0
 60 61  1  0
 61 62  2  0
 62 63  1  0
 63 64  1  0
 64 65  1  0
 63 66  2  0
 58 67  1  0
 67 68  1  0
 68 69  1  0
 69 70  1  0
 70 71  1  0
 71 72  1  0
 72 73  2  0
 73 74  1  0
 74 75  1  0
 72 76  1  0
 76 77  1  0
 77 78  1  0
 78 79  1  0
 79 80  1  0
 80 81  1  0
 81 82  2  0
 82 83  1  0
 83 84  2  0
 84 85  1  0
 85 86  1  0
 86 87  1  0
 85 88  2  0
 80 89  2  0
 89 90  1  0
 90 91  1  0
 91 92  1  0
 92 93  1  0
 93 94  1  0
 94 95  1  0
 95 96  1  0
 96 97  1  0
 97 98  1  0
 98 99  1  0
 96100  1  0
100101  1  0
 93102  1  0
102103  1  0
 89104  1  0
104105  2  0
105106  1  0
106107  1  0
107108  1  0
108109  1  0
106110  2  0
110111  1  0
110112  1  0
112113  2  3
113114  1  0
114115  2  0
114116  1  0
116117  2  0
117118  1  0
118119  1  0
118120  2  0
120121  1  0
120122  1  0
122123  2  0
123124  1  0
124125  2  3
125126  1  0
126127  3  0
125128  1  0
128129  3  0
 13  2  1  0
 56 19  1  0
 99 57  1  0
111104  1  0
124113  1  0
 12  5  1  0
 28 22  1  0
 35 29  1  0
 55 36  2  0
 66 59  1  0
 98 67  2  0
123116  1  0
 47 41  1  0
 54 48  1  0
 97 69  2  0
 95 70  2  0
 75 71  2  0
 94 76  2  0
 92 77  2  0
 91 79  2  0
 88 81  1  0
  1130  1  0
  6131  1  0
 11132  1  0
 23133  1  0
 24134  1  0
 26135  1  0
 26136  1  0
 26137  1  0
 27138  1  0
 28139  1  0
 30140  1  0
 31141  1  0
 33142  1  0
 33143  1  0
 33144  1  0
 34145  1  0
 35146  1  0
 42147  1  0
 43148  1  0
 45149  1  0
 45150  1  0
 45151  1  0
 46152  1  0
 47153  1  0
 49154  1  0
 50155  1  0
 52156  1  0
 52157  1  0
 52158  1  0
 53159  1  0
 54160  1  0
 60161  1  0
 61162  1  0
 62163  1  0
 64164  1  0
 64165  1  0
 65166  1  0
 65167  1  0
 65168  1  0
 66169  1  0
 82170  1  0
 83171  1  0
 84172  1  0
 86173  1  0
 86174  1  0
 87175  1  0
 87176  1  0
 87177  1  0
 88178  1  0
100179  1  0
100180  1  0
101181  1  0
101182  1  0
101183  1  0
102184  1  0
102185  1  0
103186  1  0
103187  1  0
103188  1  0
105189  1  0
108190  1  0
108191  1  0
109192  1  0
109193  1  0
109194  1  0
112195  1  0
117196  1  0
122197  1  0
M  END

