
     RDKit          3D

151167  0  0  0  0  0  0  0  0999 V2000
    0.6525    7.0420    2.9523 C   0  0  0  0  0  0  0  0  0  0  0  0
    1.8661    7.3497    3.4451 C   0  0  0  0  0  0  0  0  0  0  0  0
    2.3010    7.2271    4.8525 C   0  0  0  0  0  0  0  0  0  0  0  0
    1.6266    6.7733    5.8107 O   0  0  0  0  0  0  0  0  0  0  0  0
    3.6916    7.6614    4.9480 C   0  0  0  0  0  0  0  0  0  0  0  0
    4.5403    7.6020    6.0579 C   0  0  0  0  0  0  0  0  0  0  0  0
    5.9055    7.8789    5.8688 C   0  0  0  0  0  0  0  0  0  0  0  0
    6.9951    7.7556    7.2476 Cl  0  0  0  0  0  0  0  0  0  0  0  0
    6.4032    8.1775    4.5716 C   0  0  0  0  0  0  0  0  0  0  0  0
    8.1168    8.4189    4.2902 Cl  0  0  0  0  0  0  0  0  0  0  0  0
    5.5263    8.2431    3.4784 C   0  0  0  0  0  0  0  0  0  0  0  0
    4.1395    8.0511    3.6983 C   0  0  0  0  0  0  0  0  0  0  0  0
    3.0396    7.9092    2.6897 C   0  0  0  0  0  0  0  0  0  0  0  0
    3.1609    8.1522    1.3509 C   0  0  0  0  0  0  0  0  0  0  0  0
    2.2718    7.6385    0.3492 C   0  0  0  0  0  0  0  0  0  0  0  0
    1.5639    7.2355   -0.4768 N   0  0  0  0  0  0  0  0  0  0  0  0
    4.1932    8.9956    0.8215 C   0  0  0  0  0  0  0  0  0  0  0  0
    5.0351    9.6735    0.3920 N   0  0  0  0  0  0  0  0  0  0  0  0
   -0.3343    6.1955    3.6570 C   0  0  0  0  0  0  0  0  0  0  0  0
   -1.1859    6.5771    4.6989 C   0  0  0  0  0  0  0  0  0  0  0  0
   -2.1513    5.5941    5.0070 C   0  0  0  0  0  0  0  0  0  0  0  0
   -3.2533    5.7132    6.4277 S   0  0  0  0  0  0  0  0  0  0  0  0
   -4.5821    6.6293    5.5722 C   0  0  0  0  0  0  0  0  0  0  0  0
   -4.4804    8.1204    5.8715 C   0  0  0  0  0  0  0  0  0  0  0  0
   -2.0660    4.4635    4.1785 C   0  0  0  0  0  0  0  0  0  0  0  0
   -0.7991    4.6889    3.0803 S   0  0  0  0  0  0  0  0  0  0  0  0
   -2.8097    3.1875    4.3097 C   0  0  0  0  0  0  0  0  0  0  0  0
   -4.1298    2.9502    3.8605 C   0  0  0  0  0  0  0  0  0  0  0  0
   -4.9612    3.9477    3.1518 C   0  0  0  0  0  0  0  0  0  0  0  0
   -6.3076    4.1487    3.5253 C   0  0  0  0  0  0  0  0  0  0  0  0
   -7.0888    5.0956    2.8374 C   0  0  0  0  0  0  0  0  0  0  0  0
   -6.5310    5.8437    1.7806 C   0  0  0  0  0  0  0  0  0  0  0  0
   -5.1903    5.6514    1.4165 C   0  0  0  0  0  0  0  0  0  0  0  0
   -4.5783    6.4158    0.2742 C   0  0  0  0  0  0  0  0  0  0  0  0
   -4.4788    5.5355   -0.9744 C   0  0  0  0  0  0  0  0  0  0  0  0
   -4.4168    4.6986    2.0953 C   0  0  0  0  0  0  0  0  0  0  0  0
   -4.4149    1.5823    3.8565 C   0  0  0  0  0  0  0  0  0  0  0  0
   -5.6655    0.6661    3.1213 S   0  0  0  0  0  0  0  0  0  0  0  0
   -4.7981   -0.7879    3.3670 C   0  0  0  0  0  0  0  0  0  0  0  0
   -4.7489   -2.0108    2.7415 C   0  0  0  0  0  0  0  0  0  0  0  0
   -5.6860   -2.6043    1.8802 C   0  0  0  0  0  0  0  0  0  0  0  0
   -5.3083   -3.7662    1.1498 C   0  0  0  0  0  0  0  0  0  0  0  0
   -6.2350   -4.2919    0.2939 N   0  0  0  0  0  0  0  0  0  0  0  0
   -7.4677   -3.2196    0.5520 S   0  0  0  0  0  0  0  0  0  0  0  0
   -6.9279   -2.1001    1.6642 N   0  0  0  0  0  0  0  0  0  0  0  0
   -4.0104   -4.2693    1.2960 C   0  0  0  0  0  0  0  0  0  0  0  0
   -3.3474   -5.2146    0.5499 C   0  0  0  0  0  0  0  0  0  0  0  0
   -3.5815   -6.1057   -0.8849 S   0  0  0  0  0  0  0  0  0  0  0  0
   -1.8862   -6.3513   -1.0388 C   0  0  0  0  0  0  0  0  0  0  0  0
   -1.0781   -6.7454   -2.1269 C   0  0  0  0  0  0  0  0  0  0  0  0
   -1.5564   -7.6870   -3.1754 C   0  0  0  0  0  0  0  0  0  0  0  0
   -0.7877   -8.8259   -3.4972 C   0  0  0  0  0  0  0  0  0  0  0  0
   -1.2584   -9.7514   -4.4390 C   0  0  0  0  0  0  0  0  0  0  0  0
   -2.5217   -9.5775   -5.0266 C   0  0  0  0  0  0  0  0  0  0  0  0
   -3.3164   -8.4693   -4.6681 C   0  0  0  0  0  0  0  0  0  0  0  0
   -4.7207   -8.3260   -5.2140 C   0  0  0  0  0  0  0  0  0  0  0  0
   -5.7328   -8.9223   -4.2486 C   0  0  0  0  0  0  0  0  0  0  0  0
   -2.8217   -7.5222   -3.7628 C   0  0  0  0  0  0  0  0  0  0  0  0
    0.2553   -6.2469   -1.9719 C   0  0  0  0  0  0  0  0  0  0  0  0
    0.3888   -5.4708   -0.4556 S   0  0  0  0  0  0  0  0  0  0  0  0
   -1.2038   -5.7326   -0.0191 C   0  0  0  0  0  0  0  0  0  0  0  0
   -2.0466   -5.1260    0.8891 C   0  0  0  0  0  0  0  0  0  0  0  0
   -1.8085   -4.2496    1.8927 N   0  0  0  0  0  0  0  0  0  0  0  0
   -3.0440   -3.6572    2.1323 C   0  0  0  0  0  0  0  0  0  0  0  0
   -3.4268   -2.4962    2.8809 C   0  0  0  0  0  0  0  0  0  0  0  0
   -2.6941   -1.5633    3.6024 N   0  0  0  0  0  0  0  0  0  0  0  0
   -3.5622   -0.5700    3.8973 C   0  0  0  0  0  0  0  0  0  0  0  0
   -3.3596    0.7759    4.2211 C   0  0  0  0  0  0  0  0  0  0  0  0
   -2.0171    1.7067    4.5743 S   0  0  0  0  0  0  0  0  0  0  0  0
   -1.2632   -1.4846    3.9309 C   0  0  0  0  0  0  0  0  0  0  0  0
   -0.4603   -0.9506    2.7363 C   0  0  0  0  0  0  0  0  0  0  0  0
   -0.6249   -4.4145    2.7471 C   0  0  0  0  0  0  0  0  0  0  0  0
   -1.0011   -5.0177    4.1062 C   0  0  0  0  0  0  0  0  0  0  0  0
    1.2963   -6.0609   -3.0204 C   0  0  0  0  0  0  0  0  0  0  0  0
    1.2757   -6.5014   -4.3436 C   0  0  0  0  0  0  0  0  0  0  0  0
    2.3730   -6.0684   -5.1196 C   0  0  0  0  0  0  0  0  0  0  0  0
    2.4610   -6.5826   -6.8385 S   0  0  0  0  0  0  0  0  0  0  0  0
    1.1350   -5.4379   -7.4209 C   0  0  0  0  0  0  0  0  0  0  0  0
   -0.2482   -6.0905   -7.3759 C   0  0  0  0  0  0  0  0  0  0  0  0
    3.3108   -5.2811   -4.4074 C   0  0  0  0  0  0  0  0  0  0  0  0
    2.7091   -5.1338   -2.8574 S   0  0  0  0  0  0  0  0  0  0  0  0
    4.7213   -5.0506   -4.7538 C   0  0  0  0  0  0  0  0  0  0  0  0
    5.3876   -3.9587   -4.3173 C   0  0  0  0  0  0  0  0  0  0  0  0
    6.5688   -3.9834   -3.4446 C   0  0  0  0  0  0  0  0  0  0  0  0
    7.1490   -5.0089   -3.0195 O   0  0  0  0  0  0  0  0  0  0  0  0
    7.1794   -2.6424   -3.4285 C   0  0  0  0  0  0  0  0  0  0  0  0
    8.3023   -2.1936   -2.7143 C   0  0  0  0  0  0  0  0  0  0  0  0
    8.8137   -0.9020   -3.0124 C   0  0  0  0  0  0  0  0  0  0  0  0
    9.8739   -0.3771   -2.2754 C   0  0  0  0  0  0  0  0  0  0  0  0
   10.4140    0.8796   -2.6192 C   0  0  0  0  0  0  0  0  0  0  0  0
    9.8790    1.6176   -3.6789 C   0  0  0  0  0  0  0  0  0  0  0  0
   10.4309    2.8194   -4.0200 F   0  0  0  0  0  0  0  0  0  0  0  0
    8.7856    1.1284   -4.3942 C   0  0  0  0  0  0  0  0  0  0  0  0
    8.2256   -0.1202   -4.0528 C   0  0  0  0  0  0  0  0  0  0  0  0
    7.1051   -0.6124   -4.7617 C   0  0  0  0  0  0  0  0  0  0  0  0
    6.5754   -1.8588   -4.3904 C   0  0  0  0  0  0  0  0  0  0  0  0
    5.5467   -2.6521   -5.0768 C   0  0  0  0  0  0  0  0  0  0  0  0
    4.7701   -2.1837   -6.0704 C   0  0  0  0  0  0  0  0  0  0  0  0
    4.1879   -3.1171   -6.9849 C   0  0  0  0  0  0  0  0  0  0  0  0
    3.6900   -3.9374   -7.6273 N   0  0  0  0  0  0  0  0  0  0  0  0
    4.0191   -0.9684   -5.8208 C   0  0  0  0  0  0  0  0  0  0  0  0
    3.3640   -0.0394   -5.5626 N   0  0  0  0  0  0  0  0  0  0  0  0
    0.4308    7.1686    1.9063 H   0  0  0  0  0  0  0  0  0  0  0  0
    4.1661    7.3011    7.0383 H   0  0  0  0  0  0  0  0  0  0  0  0
    5.9427    8.4108    2.5039 H   0  0  0  0  0  0  0  0  0  0  0  0
   -1.0980    7.5204    5.2309 H   0  0  0  0  0  0  0  0  0  0  0  0
   -5.5561    6.2652    5.9682 H   0  0  0  0  0  0  0  0  0  0  0  0
   -4.5765    6.4632    4.4662 H   0  0  0  0  0  0  0  0  0  0  0  0
   -5.3141    8.6665    5.3674 H   0  0  0  0  0  0  0  0  0  0  0  0
   -4.5874    8.2948    6.9599 H   0  0  0  0  0  0  0  0  0  0  0  0
   -3.5118    8.5264    5.5208 H   0  0  0  0  0  0  0  0  0  0  0  0
   -6.7442    3.5802    4.3394 H   0  0  0  0  0  0  0  0  0  0  0  0
   -8.1211    5.2386    3.1171 H   0  0  0  0  0  0  0  0  0  0  0  0
   -7.1640    6.5480    1.2612 H   0  0  0  0  0  0  0  0  0  0  0  0
   -3.5532    6.7474    0.5678 H   0  0  0  0  0  0  0  0  0  0  0  0
   -5.1767    7.3186    0.0433 H   0  0  0  0  0  0  0  0  0  0  0  0
   -3.9230    4.5985   -0.7405 H   0  0  0  0  0  0  0  0  0  0  0  0
   -5.4860    5.2834   -1.3527 H   0  0  0  0  0  0  0  0  0  0  0  0
   -3.9212    6.0913   -1.7653 H   0  0  0  0  0  0  0  0  0  0  0  0
   -3.3943    4.5091    1.7794 H   0  0  0  0  0  0  0  0  0  0  0  0
    0.1815   -8.9954   -3.0364 H   0  0  0  0  0  0  0  0  0  0  0  0
   -0.6482  -10.5978   -4.7158 H   0  0  0  0  0  0  0  0  0  0  0  0
   -2.8869  -10.3148   -5.7303 H   0  0  0  0  0  0  0  0  0  0  0  0
   -4.9482   -7.2399   -5.3618 H   0  0  0  0  0  0  0  0  0  0  0  0
   -4.7985   -8.8134   -6.2012 H   0  0  0  0  0  0  0  0  0  0  0  0
   -5.7344   -8.3388   -3.2968 H   0  0  0  0  0  0  0  0  0  0  0  0
   -6.7450   -8.8772   -4.7059 H   0  0  0  0  0  0  0  0  0  0  0  0
   -5.4780   -9.9813   -4.0240 H   0  0  0  0  0  0  0  0  0  0  0  0
   -3.4370   -6.6803   -3.4965 H   0  0  0  0  0  0  0  0  0  0  0  0
   -1.1082   -0.7919    4.7876 H   0  0  0  0  0  0  0  0  0  0  0  0
   -0.8978   -2.4201    4.3529 H   0  0  0  0  0  0  0  0  0  0  0  0
   -0.7192    0.1121    2.5458 H   0  0  0  0  0  0  0  0  0  0  0  0
   -0.6892   -1.5271    1.8151 H   0  0  0  0  0  0  0  0  0  0  0  0
    0.6221   -1.0262    2.9543 H   0  0  0  0  0  0  0  0  0  0  0  0
    0.0835   -5.1344    2.2714 H   0  0  0  0  0  0  0  0  0  0  0  0
   -0.0241   -3.4988    2.7944 H   0  0  0  0  0  0  0  0  0  0  0  0
   -0.1360   -4.9306    4.7953 H   0  0  0  0  0  0  0  0  0  0  0  0
   -1.2537   -6.0916    3.9705 H   0  0  0  0  0  0  0  0  0  0  0  0
   -1.8782   -4.5018    4.5519 H   0  0  0  0  0  0  0  0  0  0  0  0
    0.4879   -7.1191   -4.7681 H   0  0  0  0  0  0  0  0  0  0  0  0
    1.3576   -5.1600   -8.4681 H   0  0  0  0  0  0  0  0  0  0  0  0
    1.1244   -4.4867   -6.8244 H   0  0  0  0  0  0  0  0  0  0  0  0
   -0.9422   -5.5466   -8.0595 H   0  0  0  0  0  0  0  0  0  0  0  0
   -0.1922   -7.1472   -7.7095 H   0  0  0  0  0  0  0  0  0  0  0  0
   -0.6776   -6.0272   -6.3537 H   0  0  0  0  0  0  0  0  0  0  0  0
    5.2627   -5.8261   -5.3233 H   0  0  0  0  0  0  0  0  0  0  0  0
    8.7559   -2.8316   -1.9713 H   0  0  0  0  0  0  0  0  0  0  0  0
   10.3107   -0.9359   -1.4491 H   0  0  0  0  0  0  0  0  0  0  0  0
   11.2516    1.2780   -2.0655 H   0  0  0  0  0  0  0  0  0  0  0  0
    8.3828    1.7121   -5.2132 H   0  0  0  0  0  0  0  0  0  0  0  0
    6.6602   -0.0210   -5.5742 H   0  0  0  0  0  0  0  0  0  0  0  0
  1  2  2  3
  2  3  1  0
  3  4  2  0
  3  5  1  0
  5  6  2  0
  6  7  1  0
  7  8  1  0
  7  9  2  0
  9 10  1  0
  9 11  1  0
 11 12  2  0
 12 13  1  0
 13 14  2  3
 14 15  1  0
 15 16  3  0
 14 17  1  0
 17 18  3  0
  1 19  1  0
 19 20  2  0
 20 21  1  0
 21 22  1  0
 22 23  1  0
 23 24  1  0
 21 25  2  0
 25 26  1  0
 25 27  1  0
 27 28  2  0
 28 29  1  0
 29 30  2  0
 30 31  1  0
 31 32  2  0
 32 33  1  0
 33 34  1  0
 34 35  1  0
 33 36  2  0
 28 37  1  0
 37 38  1  0
 38 39  1  0
 39 40  1  0
 40 41  1  0
 41 42  1  0
 42 43  2  0
 43 44  1  0
 44 45  1  0
 42 46  1  0
 46 47  1  0
 47 48  1  0
 48 49  1  0
 49 50  1  0
 50 51  1  0
 51 52  2  0
 52 53  1  0
 53 54  2  0
 54 55  1  0
 55 56  1  0
 56 57  1  0
 55 58  2  0
 50 59  2  0
 59 60  1  0
 60 61  1  0
 61 62  1  0
 62 63  1  0
 63 64  1  0
 64 65  1  0
 65 66  1  0
 66 67  1  0
 67 68  1  0
 68 69  1  0
 66 70  1  0
 70 71  1  0
 63 72  1  0
 72 73  1  0
 59 74  1  0
 74 75  2  0
 75 76  1  0
 76 77  1  0
 77 78  1  0
 78 79  1  0
 76 80  2  0
 80 81  1  0
 80 82  1  0
 82 83  2  3
 83 84  1  0
 84 85  2  0
 84 86  1  0
 86 87  2  0
 87 88  1  0
 88 89  2  0
 89 90  1  0
 90 91  2  0
 91 92  1  0
 91 93  1  0
 93 94  2  0
 94 95  1  0
 95 96  2  0
 96 97  1  0
 97 98  2  3
 98 99  1  0
 99100  3  0
 98101  1  0
101102  3  0
 13  2  1  0
 26 19  1  0
 69 27  1  0
 81 74  1  0
 97 83  1  0
 12  5  1  0
 36 29  1  0
 68 37  2  0
 96 86  1  0
 67 39  2  0
 94 88  1  0
 65 40  2  0
 45 41  2  0
 64 46  2  0
 62 47  2  0
 61 49  2  0
 58 51  1  0
  1103  1  0
  6104  1  0
 11105  1  0
 20106  1  0
 23107  1  0
 23108  1  0
 24109  1  0
 24110  1  0
 24111  1  0
 30112  1  0
 31113  1  0
 32114  1  0
 34115  1  0
 34116  1  0
 35117  1  0
 35118  1  0
 35119  1  0
 36120  1  0
 52121  1  0
 53122  1  0
 54123  1  0
 56124  1  0
 56125  1  0
 57126  1  0
 57127  1  0
 57128  1  0
 58129  1  0
 70130  1  0
 70131  1  0
 71132  1  0
 71133  1  0
 71134  1  0
 72135  1  0
 72136  1  0
 73137  1  0
 73138  1  0
 73139  1  0
 75140  1  0
 78141  1  0
 78142  1  0
 79143  1  0
 79144  1  0
 79145  1  0
 82146  1  0
 87147  1  0
 89148  1  0
 90149  1  0
 93150  1  0
 95151  1  0
M  END

