
     RDKit          3D

249274  0  0  0  0  0  0  0  0999 V2000
   -4.8000    8.1329   -1.9279 C   0  0  0  0  0  0  0  0  0  0  0  0
   -4.2154    7.9177   -3.1310 C   0  0  0  0  0  0  0  0  0  0  0  0
   -2.9865    7.1431   -3.3471 C   0  0  0  0  0  0  0  0  0  0  0  0
   -2.4554    6.3565   -2.5199 O   0  0  0  0  0  0  0  0  0  0  0  0
   -2.5221    7.3662   -4.7009 C   0  0  0  0  0  0  0  0  0  0  0  0
   -1.3744    6.8546   -5.3246 C   0  0  0  0  0  0  0  0  0  0  0  0
   -0.2483    5.7956   -4.4899 Cl  0  0  0  0  0  0  0  0  0  0  0  0
   -1.1226    7.2145   -6.6564 C   0  0  0  0  0  0  0  0  0  0  0  0
   -2.0118    8.0559   -7.3361 C   0  0  0  0  0  0  0  0  0  0  0  0
   -3.1637    8.5449   -6.7031 C   0  0  0  0  0  0  0  0  0  0  0  0
   -3.4141    8.1963   -5.3617 C   0  0  0  0  0  0  0  0  0  0  0  0
   -4.5581    8.5412   -4.4559 C   0  0  0  0  0  0  0  0  0  0  0  0
   -5.6725    9.2482   -4.7824 C   0  0  0  0  0  0  0  0  0  0  0  0
   -6.8414    9.2800   -3.9494 C   0  0  0  0  0  0  0  0  0  0  0  0
   -7.8020    9.3055   -3.2978 N   0  0  0  0  0  0  0  0  0  0  0  0
   -5.8211    9.9558   -6.0276 C   0  0  0  0  0  0  0  0  0  0  0  0
   -5.9480   10.5470   -7.0159 N   0  0  0  0  0  0  0  0  0  0  0  0
   -4.1685    7.7453   -0.6606 C   0  0  0  0  0  0  0  0  0  0  0  0
   -4.7188    6.9284    0.3524 C   0  0  0  0  0  0  0  0  0  0  0  0
   -5.9778    6.2370    0.2596 N   0  0  0  0  0  0  0  0  0  0  0  0
   -6.3530    5.6285   -0.9920 C   0  0  0  0  0  0  0  0  0  0  0  0
   -7.6451    5.8092   -1.5132 C   0  0  0  0  0  0  0  0  0  0  0  0
   -7.9740    5.3088   -2.7760 C   0  0  0  0  0  0  0  0  0  0  0  0
   -7.0201    4.6106   -3.5290 C   0  0  0  0  0  0  0  0  0  0  0  0
   -7.3414    4.1499   -4.9188 C   0  0  0  0  0  0  0  0  0  0  0  0
   -5.7318    4.4162   -3.0037 C   0  0  0  0  0  0  0  0  0  0  0  0
   -5.4073    4.9077   -1.7392 C   0  0  0  0  0  0  0  0  0  0  0  0
   -6.8251    6.1129    1.4230 C   0  0  0  0  0  0  0  0  0  0  0  0
   -6.9311    7.1717    2.3425 C   0  0  0  0  0  0  0  0  0  0  0  0
   -7.7383    7.0478    3.4773 C   0  0  0  0  0  0  0  0  0  0  0  0
   -8.4548    5.8634    3.7108 C   0  0  0  0  0  0  0  0  0  0  0  0
   -9.2729    5.7207    4.9574 C   0  0  0  0  0  0  0  0  0  0  0  0
   -8.3417    4.7990    2.8005 C   0  0  0  0  0  0  0  0  0  0  0  0
   -7.5376    4.9263    1.6629 C   0  0  0  0  0  0  0  0  0  0  0  0
   -3.8118    6.7743    1.4087 C   0  0  0  0  0  0  0  0  0  0  0  0
   -3.6917    5.7667    2.7509 S   0  0  0  0  0  0  0  0  0  0  0  0
   -2.0871    6.2143    3.1495 C   0  0  0  0  0  0  0  0  0  0  0  0
   -1.6462    7.1450    2.1790 C   0  0  0  0  0  0  0  0  0  0  0  0
   -0.3236    7.6756    2.0243 N   0  0  0  0  0  0  0  0  0  0  0  0
   -0.0942    9.0730    2.3639 C   0  0  0  0  0  0  0  0  0  0  0  0
   -1.0801    9.8272    3.0384 C   0  0  0  0  0  0  0  0  0  0  0  0
   -0.8301   11.1453    3.4288 C   0  0  0  0  0  0  0  0  0  0  0  0
    0.4106   11.7401    3.1593 C   0  0  0  0  0  0  0  0  0  0  0  0
    0.7146   13.1331    3.6265 C   0  0  0  0  0  0  0  0  0  0  0  0
    1.3779   11.0166    2.4570 C   0  0  0  0  0  0  0  0  0  0  0  0
    1.1414    9.6925    2.0856 C   0  0  0  0  0  0  0  0  0  0  0  0
    0.5235    6.9911    1.0708 C   0  0  0  0  0  0  0  0  0  0  0  0
    0.7863    7.5585   -0.1896 C   0  0  0  0  0  0  0  0  0  0  0  0
    1.5488    6.8670   -1.1349 C   0  0  0  0  0  0  0  0  0  0  0  0
    2.0344    5.5837   -0.8505 C   0  0  0  0  0  0  0  0  0  0  0  0
    2.8707    4.8460   -1.8572 C   0  0  0  0  0  0  0  0  0  0  0  0
    1.7793    5.0170    0.4050 C   0  0  0  0  0  0  0  0  0  0  0  0
    1.0226    5.7097    1.3521 C   0  0  0  0  0  0  0  0  0  0  0  0
   -2.6393    7.4311    1.2524 C   0  0  0  0  0  0  0  0  0  0  0  0
   -2.6201    8.2696   -0.1920 S   0  0  0  0  0  0  0  0  0  0  0  0
   -1.2630    5.4513    4.1180 C   0  0  0  0  0  0  0  0  0  0  0  0
   -0.0544    5.8550    4.7285 C   0  0  0  0  0  0  0  0  0  0  0  0
    0.3783    7.2412    4.9978 C   0  0  0  0  0  0  0  0  0  0  0  0
   -0.4366    8.0816    5.7714 C   0  0  0  0  0  0  0  0  0  0  0  0
    0.0366    9.3278    6.1920 C   0  0  0  0  0  0  0  0  0  0  0  0
    1.3206    9.7514    5.8336 C   0  0  0  0  0  0  0  0  0  0  0  0
    2.1371    8.9279    5.0429 C   0  0  0  0  0  0  0  0  0  0  0  0
    3.5115    9.3829    4.6371 C   0  0  0  0  0  0  0  0  0  0  0  0
    4.5632    8.8629    5.6086 C   0  0  0  0  0  0  0  0  0  0  0  0
    1.6645    7.6732    4.6380 C   0  0  0  0  0  0  0  0  0  0  0  0
    0.6776    4.7485    5.1807 C   0  0  0  0  0  0  0  0  0  0  0  0
    2.3652    4.5297    5.2652 S   0  0  0  0  0  0  0  0  0  0  0  0
    2.2116    2.8505    5.1911 C   0  0  0  0  0  0  0  0  0  0  0  0
    2.9449    1.8860    4.5558 C   0  0  0  0  0  0  0  0  0  0  0  0
    4.2717    1.9047    4.1199 C   0  0  0  0  0  0  0  0  0  0  0  0
    4.7309    0.8600    3.2735 C   0  0  0  0  0  0  0  0  0  0  0  0
    6.0155    0.9354    2.8449 N   0  0  0  0  0  0  0  0  0  0  0  0
    6.4822    2.3335    3.5950 S   0  0  0  0  0  0  0  0  0  0  0  0
    5.1615    2.8802    4.4321 N   0  0  0  0  0  0  0  0  0  0  0  0
    3.8264   -0.1304    2.8797 C   0  0  0  0  0  0  0  0  0  0  0  0
    3.9385   -1.0897    1.9191 C   0  0  0  0  0  0  0  0  0  0  0  0
    5.0242   -1.5288    0.6862 S   0  0  0  0  0  0  0  0  0  0  0  0
    3.8533   -2.5560   -0.0099 C   0  0  0  0  0  0  0  0  0  0  0  0
    3.8564   -3.4167   -1.1085 C   0  0  0  0  0  0  0  0  0  0  0  0
    4.8057   -3.2786   -2.2182 C   0  0  0  0  0  0  0  0  0  0  0  0
    4.5141   -2.3525   -3.2274 C   0  0  0  0  0  0  0  0  0  0  0  0
    5.4084   -2.1527   -4.2777 C   0  0  0  0  0  0  0  0  0  0  0  0
    6.6039   -2.8720   -4.3232 C   0  0  0  0  0  0  0  0  0  0  0  0
    6.9065   -3.8114   -3.3248 C   0  0  0  0  0  0  0  0  0  0  0  0
    8.1656   -4.6256   -3.4249 C   0  0  0  0  0  0  0  0  0  0  0  0
    8.0493   -5.6536   -4.5469 C   0  0  0  0  0  0  0  0  0  0  0  0
    5.9989   -4.0137   -2.2659 C   0  0  0  0  0  0  0  0  0  0  0  0
    2.6256   -4.1011   -1.2165 C   0  0  0  0  0  0  0  0  0  0  0  0
    1.5825   -3.5829    0.0280 S   0  0  0  0  0  0  0  0  0  0  0  0
    2.6714   -2.4982    0.6732 C   0  0  0  0  0  0  0  0  0  0  0  0
    2.7115   -1.6351    1.7561 C   0  0  0  0  0  0  0  0  0  0  0  0
    1.7525   -1.0316    2.5037 N   0  0  0  0  0  0  0  0  0  0  0  0
    2.4689   -0.1266    3.2648 C   0  0  0  0  0  0  0  0  0  0  0  0
    2.0317    0.8920    4.1644 C   0  0  0  0  0  0  0  0  0  0  0  0
    0.7725    1.2162    4.5877 N   0  0  0  0  0  0  0  0  0  0  0  0
    0.9128    2.4539    5.1176 C   0  0  0  0  0  0  0  0  0  0  0  0
    0.0461    3.5354    5.0483 C   0  0  0  0  0  0  0  0  0  0  0  0
   -1.3986    3.7551    4.2391 S   0  0  0  0  0  0  0  0  0  0  0  0
   -0.2997    0.2874    4.9685 C   0  0  0  0  0  0  0  0  0  0  0  0
   -0.7749    0.4889    6.4096 C   0  0  0  0  0  0  0  0  0  0  0  0
    0.3326   -1.0105    2.1086 C   0  0  0  0  0  0  0  0  0  0  0  0
   -0.0353    0.2987    1.4081 C   0  0  0  0  0  0  0  0  0  0  0  0
    2.4254   -5.3663   -1.9424 C   0  0  0  0  0  0  0  0  0  0  0  0
    1.1834   -5.9636   -2.2302 C   0  0  0  0  0  0  0  0  0  0  0  0
   -0.0209   -5.2321   -2.5130 N   0  0  0  0  0  0  0  0  0  0  0  0
   -0.9492   -4.8771   -1.4642 C   0  0  0  0  0  0  0  0  0  0  0  0
   -1.1208   -5.7022   -0.3369 C   0  0  0  0  0  0  0  0  0  0  0  0
   -2.0292   -5.3495    0.6656 C   0  0  0  0  0  0  0  0  0  0  0  0
   -2.7818   -4.1726    0.5601 C   0  0  0  0  0  0  0  0  0  0  0  0
   -3.7577   -3.8133    1.6424 C   0  0  0  0  0  0  0  0  0  0  0  0
   -2.5907   -3.3280   -0.5453 C   0  0  0  0  0  0  0  0  0  0  0  0
   -1.6865   -3.6804   -1.5487 C   0  0  0  0  0  0  0  0  0  0  0  0
   -0.3523   -4.9978   -3.8977 C   0  0  0  0  0  0  0  0  0  0  0  0
   -1.6455   -5.2698   -4.3799 C   0  0  0  0  0  0  0  0  0  0  0  0
   -1.9519   -5.0844   -5.7313 C   0  0  0  0  0  0  0  0  0  0  0  0
   -0.9780   -4.6057   -6.6161 C   0  0  0  0  0  0  0  0  0  0  0  0
   -1.3116   -4.4271   -8.0672 C   0  0  0  0  0  0  0  0  0  0  0  0
    0.3191   -4.3452   -6.1440 C   0  0  0  0  0  0  0  0  0  0  0  0
    0.6268   -4.5325   -4.7946 C   0  0  0  0  0  0  0  0  0  0  0  0
    1.3146   -7.3268   -2.4781 C   0  0  0  0  0  0  0  0  0  0  0  0
    0.2096   -8.5796   -2.5524 S   0  0  0  0  0  0  0  0  0  0  0  0
    1.3969   -9.8036   -2.4525 C   0  0  0  0  0  0  0  0  0  0  0  0
    2.6876   -9.2197   -2.4468 C   0  0  0  0  0  0  0  0  0  0  0  0
    3.9407   -9.9544   -2.4379 N   0  0  0  0  0  0  0  0  0  0  0  0
    5.1647   -9.3440   -1.9873 C   0  0  0  0  0  0  0  0  0  0  0  0
    5.3398   -9.0115   -0.6357 C   0  0  0  0  0  0  0  0  0  0  0  0
    6.5249   -8.4046   -0.2076 C   0  0  0  0  0  0  0  0  0  0  0  0
    7.5527   -8.1309   -1.1228 C   0  0  0  0  0  0  0  0  0  0  0  0
    8.8287   -7.4968   -0.6511 C   0  0  0  0  0  0  0  0  0  0  0  0
    7.3932   -8.5025   -2.4648 C   0  0  0  0  0  0  0  0  0  0  0  0
    6.2063   -9.1024   -2.8963 C   0  0  0  0  0  0  0  0  0  0  0  0
    4.0594  -11.2093   -3.1282 C   0  0  0  0  0  0  0  0  0  0  0  0
    4.5462  -12.3384   -2.4532 C   0  0  0  0  0  0  0  0  0  0  0  0
    4.6885  -13.5554   -3.1259 C   0  0  0  0  0  0  0  0  0  0  0  0
    4.3763  -13.6526   -4.4912 C   0  0  0  0  0  0  0  0  0  0  0  0
    4.5325  -14.9649   -5.2034 C   0  0  0  0  0  0  0  0  0  0  0  0
    3.8745  -12.5291   -5.1630 C   0  0  0  0  0  0  0  0  0  0  0  0
    3.7218  -11.3119   -4.4902 C   0  0  0  0  0  0  0  0  0  0  0  0
    2.5802   -7.8210   -2.4058 C   0  0  0  0  0  0  0  0  0  0  0  0
    3.6278   -6.5648   -2.0258 S   0  0  0  0  0  0  0  0  0  0  0  0
    1.0943  -11.2291   -2.2102 C   0  0  0  0  0  0  0  0  0  0  0  0
    0.2045  -11.7061   -1.3154 C   0  0  0  0  0  0  0  0  0  0  0  0
   -0.2393  -13.1016   -1.3353 C   0  0  0  0  0  0  0  0  0  0  0  0
    0.3292  -14.0523   -1.9331 O   0  0  0  0  0  0  0  0  0  0  0  0
   -1.4712  -13.1992   -0.5869 C   0  0  0  0  0  0  0  0  0  0  0  0
   -2.2847  -14.3158   -0.3969 C   0  0  0  0  0  0  0  0  0  0  0  0
   -3.4699  -14.1630    0.3378 C   0  0  0  0  0  0  0  0  0  0  0  0
   -3.8285  -12.8996    0.8454 C   0  0  0  0  0  0  0  0  0  0  0  0
   -5.3284  -12.7148    1.7358 Cl  0  0  0  0  0  0  0  0  0  0  0  0
   -2.9955  -11.7873    0.6352 C   0  0  0  0  0  0  0  0  0  0  0  0
   -1.7928  -11.9569   -0.0649 C   0  0  0  0  0  0  0  0  0  0  0  0
   -0.6929  -10.9929   -0.3512 C   0  0  0  0  0  0  0  0  0  0  0  0
   -0.3543   -9.9496    0.4464 C   0  0  0  0  0  0  0  0  0  0  0  0
   -1.2596   -9.3818    1.4128 C   0  0  0  0  0  0  0  0  0  0  0  0
   -1.9715   -8.9064    2.1942 N   0  0  0  0  0  0  0  0  0  0  0  0
    0.9934   -9.4612    0.5361 C   0  0  0  0  0  0  0  0  0  0  0  0
    2.0730   -9.0592    0.6346 N   0  0  0  0  0  0  0  0  0  0  0  0
   -5.7230    8.6852   -1.8327 H   0  0  0  0  0  0  0  0  0  0  0  0
   -0.2428    6.8471   -7.1679 H   0  0  0  0  0  0  0  0  0  0  0  0
   -1.8088    8.3251   -8.3643 H   0  0  0  0  0  0  0  0  0  0  0  0
   -3.8132    9.1713   -7.2761 H   0  0  0  0  0  0  0  0  0  0  0  0
   -8.3878    6.3682   -0.9546 H   0  0  0  0  0  0  0  0  0  0  0  0
   -8.9634    5.4908   -3.1734 H   0  0  0  0  0  0  0  0  0  0  0  0
   -8.4363    4.0312   -5.0497 H   0  0  0  0  0  0  0  0  0  0  0  0
   -6.8603    3.1709   -5.1240 H   0  0  0  0  0  0  0  0  0  0  0  0
   -6.9732    4.8991   -5.6476 H   0  0  0  0  0  0  0  0  0  0  0  0
   -4.9776    3.8948   -3.5768 H   0  0  0  0  0  0  0  0  0  0  0  0
   -4.4118    4.7579   -1.3472 H   0  0  0  0  0  0  0  0  0  0  0  0
   -6.3802    8.0876    2.1847 H   0  0  0  0  0  0  0  0  0  0  0  0
   -7.7929    7.8686    4.1784 H   0  0  0  0  0  0  0  0  0  0  0  0
  -10.0092    4.8924    4.8648 H   0  0  0  0  0  0  0  0  0  0  0  0
   -9.8320    6.6588    5.1590 H   0  0  0  0  0  0  0  0  0  0  0  0
   -8.5998    5.5107    5.8165 H   0  0  0  0  0  0  0  0  0  0  0  0
   -8.8696    3.8697    2.9778 H   0  0  0  0  0  0  0  0  0  0  0  0
   -7.4585    4.0923    0.9803 H   0  0  0  0  0  0  0  0  0  0  0  0
   -2.0311    9.3935    3.3108 H   0  0  0  0  0  0  0  0  0  0  0  0
   -1.5931   11.6871    3.9701 H   0  0  0  0  0  0  0  0  0  0  0  0
    0.7818   13.8108    2.7522 H   0  0  0  0  0  0  0  0  0  0  0  0
   -0.0664   13.5093    4.3212 H   0  0  0  0  0  0  0  0  0  0  0  0
    1.6858   13.1384    4.1660 H   0  0  0  0  0  0  0  0  0  0  0  0
    2.3406   11.4607    2.2360 H   0  0  0  0  0  0  0  0  0  0  0  0
    1.9451    9.1442    1.6173 H   0  0  0  0  0  0  0  0  0  0  0  0
    0.3993    8.5389   -0.4390 H   0  0  0  0  0  0  0  0  0  0  0  0
    1.7536    7.3337   -2.0906 H   0  0  0  0  0  0  0  0  0  0  0  0
    3.9426    4.9463   -1.5925 H   0  0  0  0  0  0  0  0  0  0  0  0
    2.7142    5.2490   -2.8803 H   0  0  0  0  0  0  0  0  0  0  0  0
    2.5970    3.7708   -1.8690 H   0  0  0  0  0  0  0  0  0  0  0  0
    2.1610    4.0357    0.6500 H   0  0  0  0  0  0  0  0  0  0  0  0
    0.8188    5.2391    2.3004 H   0  0  0  0  0  0  0  0  0  0  0  0
   -1.4215    7.7570    6.0853 H   0  0  0  0  0  0  0  0  0  0  0  0
   -0.5889    9.9701    6.8016 H   0  0  0  0  0  0  0  0  0  0  0  0
    1.6747   10.7215    6.1602 H   0  0  0  0  0  0  0  0  0  0  0  0
    3.7414    9.0141    3.6126 H   0  0  0  0  0  0  0  0  0  0  0  0
    3.5574   10.4917    4.6065 H   0  0  0  0  0  0  0  0  0  0  0  0
    5.5708    9.1993    5.2802 H   0  0  0  0  0  0  0  0  0  0  0  0
    4.3684    9.2625    6.6296 H   0  0  0  0  0  0  0  0  0  0  0  0
    4.5540    7.7530    5.6370 H   0  0  0  0  0  0  0  0  0  0  0  0
    2.2889    7.0435    4.0176 H   0  0  0  0  0  0  0  0  0  0  0  0
    3.5967   -1.7779   -3.1953 H   0  0  0  0  0  0  0  0  0  0  0  0
    5.1771   -1.4341   -5.0551 H   0  0  0  0  0  0  0  0  0  0  0  0
    7.2893   -2.7049   -5.1440 H   0  0  0  0  0  0  0  0  0  0  0  0
    8.3681   -5.1479   -2.4672 H   0  0  0  0  0  0  0  0  0  0  0  0
    9.0294   -3.9551   -3.6274 H   0  0  0  0  0  0  0  0  0  0  0  0
    8.9379   -6.3217   -4.5368 H   0  0  0  0  0  0  0  0  0  0  0  0
    8.0017   -5.1458   -5.5333 H   0  0  0  0  0  0  0  0  0  0  0  0
    7.1320   -6.2704   -4.4152 H   0  0  0  0  0  0  0  0  0  0  0  0
    6.2173   -4.7372   -1.4891 H   0  0  0  0  0  0  0  0  0  0  0  0
    0.0885   -0.7500    4.9420 H   0  0  0  0  0  0  0  0  0  0  0  0
   -1.1651    0.4180    4.2829 H   0  0  0  0  0  0  0  0  0  0  0  0
    0.0739    0.3501    7.1185 H   0  0  0  0  0  0  0  0  0  0  0  0
   -1.2184    1.4990    6.5492 H   0  0  0  0  0  0  0  0  0  0  0  0
   -1.5559   -0.2660    6.6451 H   0  0  0  0  0  0  0  0  0  0  0  0
   -0.3357   -1.2379    2.9452 H   0  0  0  0  0  0  0  0  0  0  0  0
    0.1116   -1.8282    1.4042 H   0  0  0  0  0  0  0  0  0  0  0  0
    0.0862    1.1689    2.0828 H   0  0  0  0  0  0  0  0  0  0  0  0
    0.6118    0.4473    0.5175 H   0  0  0  0  0  0  0  0  0  0  0  0
   -1.0934    0.2623    1.0721 H   0  0  0  0  0  0  0  0  0  0  0  0
   -0.5581   -6.6209   -0.2355 H   0  0  0  0  0  0  0  0  0  0  0  0
   -2.1501   -5.9989    1.5244 H   0  0  0  0  0  0  0  0  0  0  0  0
   -4.3757   -2.9343    1.3589 H   0  0  0  0  0  0  0  0  0  0  0  0
   -3.2087   -3.5778    2.5793 H   0  0  0  0  0  0  0  0  0  0  0  0
   -4.4399   -4.6722    1.8276 H   0  0  0  0  0  0  0  0  0  0  0  0
   -3.1489   -2.4065   -0.6382 H   0  0  0  0  0  0  0  0  0  0  0  0
   -1.5506   -3.0159   -2.3930 H   0  0  0  0  0  0  0  0  0  0  0  0
   -2.4072   -5.6571   -3.7138 H   0  0  0  0  0  0  0  0  0  0  0  0
   -2.9453   -5.3258   -6.0858 H   0  0  0  0  0  0  0  0  0  0  0  0
   -0.5008   -3.8900   -8.6056 H   0  0  0  0  0  0  0  0  0  0  0  0
   -1.4582   -5.4217   -8.5437 H   0  0  0  0  0  0  0  0  0  0  0  0
   -2.2473   -3.8363   -8.1678 H   0  0  0  0  0  0  0  0  0  0  0  0
    1.0902   -3.9903   -6.8166 H   0  0  0  0  0  0  0  0  0  0  0  0
    1.6278   -4.3122   -4.4473 H   0  0  0  0  0  0  0  0  0  0  0  0
    4.5651   -9.2279    0.0815 H   0  0  0  0  0  0  0  0  0  0  0  0
    6.6398   -8.1450    0.8384 H   0  0  0  0  0  0  0  0  0  0  0  0
    9.4383   -8.2501   -0.1104 H   0  0  0  0  0  0  0  0  0  0  0  0
    8.6006   -6.6502    0.0311 H   0  0  0  0  0  0  0  0  0  0  0  0
    9.4221   -7.1070   -1.5045 H   0  0  0  0  0  0  0  0  0  0  0  0
    8.1855   -8.3313   -3.1806 H   0  0  0  0  0  0  0  0  0  0  0  0
    6.0934   -9.3654   -3.9384 H   0  0  0  0  0  0  0  0  0  0  0  0
    4.7987  -12.2766   -1.4028 H   0  0  0  0  0  0  0  0  0  0  0  0
    5.0528  -14.4198   -2.5868 H   0  0  0  0  0  0  0  0  0  0  0  0
    3.6518  -15.6094   -4.9926 H   0  0  0  0  0  0  0  0  0  0  0  0
    5.4516  -15.4847   -4.8552 H   0  0  0  0  0  0  0  0  0  0  0  0
    4.6168  -14.8159   -6.3025 H   0  0  0  0  0  0  0  0  0  0  0  0
    3.6091  -12.5894   -6.2120 H   0  0  0  0  0  0  0  0  0  0  0  0
    3.3487  -10.4481   -5.0236 H   0  0  0  0  0  0  0  0  0  0  0  0
    1.5918  -11.9479   -2.8447 H   0  0  0  0  0  0  0  0  0  0  0  0
   -2.0091  -15.2810   -0.8057 H   0  0  0  0  0  0  0  0  0  0  0  0
   -4.1153  -15.0188    0.4939 H   0  0  0  0  0  0  0  0  0  0  0  0
   -3.3119  -10.8229    1.0001 H   0  0  0  0  0  0  0  0  0  0  0  0
  1  2  2  3
  2  3  1  0
  3  4  2  0
  3  5  1  0
  5  6  2  0
  6  7  1  0
  6  8  1  0
  8  9  2  0
  9 10  1  0
 10 11  2  0
 11 12  1  0
 12 13  2  3
 13 14  1  0
 14 15  3  0
 13 16  1  0
 16 17  3  0
  1 18  1  0
 18 19  2  0
 19 20  1  0
 20 21  1  0
 21 22  2  0
 22 23  1  0
 23 24  2  0
 24 25  1  0
 24 26  1  0
 26 27  2  0
 20 28  1  0
 28 29  2  0
 29 30  1  0
 30 31  2  0
 31 32  1  0
 31 33  1  0
 33 34  2  0
 19 35  1  0
 35 36  1  0
 36 37  1  0
 37 38  2  0
 38 39  1  0
 39 40  1  0
 40 41  2  0
 41 42  1  0
 42 43  2  0
 43 44  1  0
 43 45  1  0
 45 46  2  0
 39 47  1  0
 47 48  2  0
 48 49  1  0
 49 50  2  0
 50 51  1  0
 50 52  1  0
 52 53  2  0
 38 54  1  0
 54 55  1  0
 37 56  1  0
 56 57  2  0
 57 58  1  0
 58 59  2  0
 59 60  1  0
 60 61  2  0
 61 62  1  0
 62 63  1  0
 63 64  1  0
 62 65  2  0
 57 66  1  0
 66 67  1  0
 67 68  1  0
 68 69  1  0
 69 70  1  0
 70 71  1  0
 71 72  2  0
 72 73  1  0
 73 74  1  0
 71 75  1  0
 75 76  1  0
 76 77  1  0
 77 78  1  0
 78 79  1  0
 79 80  1  0
 80 81  2  0
 81 82  1  0
 82 83  2  0
 83 84  1  0
 84 85  1  0
 85 86  1  0
 84 87  2  0
 79 88  2  0
 88 89  1  0
 89 90  1  0
 90 91  1  0
 91 92  1  0
 92 93  1  0
 93 94  1  0
 94 95  1  0
 95 96  1  0
 96 97  1  0
 97 98  1  0
 95 99  1  0
 99100  1  0
 92101  1  0
101102  1  0
 88103  1  0
103104  2  0
104105  1  0
105106  1  0
106107  2  0
107108  1  0
108109  2  0
109110  1  0
109111  1  0
111112  2  0
105113  1  0
113114  2  0
114115  1  0
115116  2  0
116117  1  0
116118  1  0
118119  2  0
104120  1  0
120121  1  0
121122  1  0
122123  2  0
123124  1  0
124125  1  0
125126  2  0
126127  1  0
127128  2  0
128129  1  0
128130  1  0
130131  2  0
124132  1  0
132133  2  0
133134  1  0
134135  2  0
135136  1  0
135137  1  0
137138  2  0
123139  1  0
139140  1  0
122141  1  0
141142  2  3
142143  1  0
143144  2  0
143145  1  0
145146  2  0
146147  1  0
147148  2  0
148149  1  0
148150  1  0
150151  2  0
151152  1  0
152153  2  3
153154  1  0
154155  3  0
153156  1  0
156157  3  0
 12  2  1  0
 55 18  1  0
 98 56  1  0
140103  1  0
152142  1  0
 11  5  1  0
 27 21  1  0
 34 28  1  0
 54 35  2  0
 65 58  1  0
 97 66  2  0
112106  1  0
119113  1  0
139120  2  0
151145  1  0
 46 40  1  0
 53 47  1  0
 96 68  2  0
131125  1  0
138132  1  0
 94 69  2  0
 74 70  2  0
 93 75  2  0
 91 76  2  0
 90 78  2  0
 87 80  1  0
  1158  1  0
  8159  1  0
  9160  1  0
 10161  1  0
 22162  1  0
 23163  1  0
 25164  1  0
 25165  1  0
 25166  1  0
 26167  1  0
 27168  1  0
 29169  1  0
 30170  1  0
 32171  1  0
 32172  1  0
 32173  1  0
 33174  1  0
 34175  1  0
 41176  1  0
 42177  1  0
 44178  1  0
 44179  1  0
 44180  1  0
 45181  1  0
 46182  1  0
 48183  1  0
 49184  1  0
 51185  1  0
 51186  1  0
 51187  1  0
 52188  1  0
 53189  1  0
 59190  1  0
 60191  1  0
 61192  1  0
 63193  1  0
 63194  1  0
 64195  1  0
 64196  1  0
 64197  1  0
 65198  1  0
 81199  1  0
 82200  1  0
 83201  1  0
 85202  1  0
 85203  1  0
 86204  1  0
 86205  1  0
 86206  1  0
 87207  1  0
 99208  1  0
 99209  1  0
100210  1  0
100211  1  0
100212  1  0
101213  1  0
101214  1  0
102215  1  0
102216  1  0
102217  1  0
107218  1  0
108219  1  0
110220  1  0
110221  1  0
110222  1  0
111223  1  0
112224  1  0
114225  1  0
115226  1  0
117227  1  0
117228  1  0
117229  1  0
118230  1  0
119231  1  0
126232  1  0
127233  1  0
129234  1  0
129235  1  0
129236  1  0
130237  1  0
131238  1  0
133239  1  0
134240  1  0
136241  1  0
136242  1  0
136243  1  0
137244  1  0
138245  1  0
141246  1  0
146247  1  0
147248  1  0
150249  1  0
M  END

