
     RDKit          3D

160176  0  0  0  0  0  0  0  0999 V2000
    5.9482   -5.8076    4.8950 C   0  0  0  0  0  0  0  0  0  0  0  0
    6.9758   -4.9342    4.6356 C   0  0  0  0  0  0  0  0  0  0  0  0
    6.8244   -3.6538    3.9202 C   0  0  0  0  0  0  0  0  0  0  0  0
    5.7386   -3.1508    3.5147 O   0  0  0  0  0  0  0  0  0  0  0  0
    8.1110   -2.9997    3.8564 C   0  0  0  0  0  0  0  0  0  0  0  0
    8.4857   -1.8176    3.1835 C   0  0  0  0  0  0  0  0  0  0  0  0
    7.3593   -0.9346    2.1448 Cl  0  0  0  0  0  0  0  0  0  0  0  0
    9.8255   -1.3738    3.2788 C   0  0  0  0  0  0  0  0  0  0  0  0
   10.7432   -2.0960    4.0214 C   0  0  0  0  0  0  0  0  0  0  0  0
   10.3570   -3.2690    4.6837 C   0  0  0  0  0  0  0  0  0  0  0  0
    9.0335   -3.7378    4.5944 C   0  0  0  0  0  0  0  0  0  0  0  0
    8.4030   -4.9827    5.1356 C   0  0  0  0  0  0  0  0  0  0  0  0
    8.9988   -5.9146    5.9612 C   0  0  0  0  0  0  0  0  0  0  0  0
    8.2997   -7.0411    6.5953 C   0  0  0  0  0  0  0  0  0  0  0  0
    7.7723   -7.9321    7.0971 N   0  0  0  0  0  0  0  0  0  0  0  0
   10.3807   -5.8148    6.3337 C   0  0  0  0  0  0  0  0  0  0  0  0
   11.4898   -5.7530    6.6724 N   0  0  0  0  0  0  0  0  0  0  0  0
    4.5972   -5.6523    4.3169 C   0  0  0  0  0  0  0  0  0  0  0  0
    4.3283   -5.4727    2.9830 C   0  0  0  0  0  0  0  0  0  0  0  0
    3.0397   -5.0145    2.7017 C   0  0  0  0  0  0  0  0  0  0  0  0
    2.6434   -4.6878    1.3038 C   0  0  0  0  0  0  0  0  0  0  0  0
    3.0434   -5.4290    0.3578 O   0  0  0  0  0  0  0  0  0  0  0  0
    1.9531   -3.5123    1.0070 O   0  0  0  0  0  0  0  0  0  0  0  0
    2.2525   -4.8634    3.8614 C   0  0  0  0  0  0  0  0  0  0  0  0
    3.2112   -5.3122    5.1768 S   0  0  0  0  0  0  0  0  0  0  0  0
    1.0694   -3.9940    4.0067 C   0  0  0  0  0  0  0  0  0  0  0  0
    1.1843   -2.6208    4.3023 C   0  0  0  0  0  0  0  0  0  0  0  0
    0.0394   -1.9447    3.8930 C   0  0  0  0  0  0  0  0  0  0  0  0
   -0.1793   -0.3402    3.3678 S   0  0  0  0  0  0  0  0  0  0  0  0
   -1.6505   -0.6972    2.6003 C   0  0  0  0  0  0  0  0  0  0  0  0
   -2.2026   -0.2615    1.3404 C   0  0  0  0  0  0  0  0  0  0  0  0
   -2.2512    1.0021    0.7451 C   0  0  0  0  0  0  0  0  0  0  0  0
   -2.7206    1.0268   -0.5898 C   0  0  0  0  0  0  0  0  0  0  0  0
   -3.0769    2.2290   -1.4635 C   0  0  0  0  0  0  0  0  0  0  0  0
   -2.1405    3.3954   -1.1766 C   0  0  0  0  0  0  0  0  0  0  0  0
   -0.7471    3.1616   -1.0992 C   0  0  0  0  0  0  0  0  0  0  0  0
    0.1041    4.1004   -0.5085 C   0  0  0  0  0  0  0  0  0  0  0  0
   -0.4231    5.2832    0.0188 C   0  0  0  0  0  0  0  0  0  0  0  0
    0.6227    6.4004    0.9565 S   0  0  0  0  0  0  0  0  0  0  0  0
    0.5862    5.4084    2.4964 C   0  0  0  0  0  0  0  0  0  0  0  0
   -0.7986    5.3308    3.1270 C   0  0  0  0  0  0  0  0  0  0  0  0
   -1.7770    5.5850   -0.1767 C   0  0  0  0  0  0  0  0  0  0  0  0
   -2.6379    4.6444   -0.7369 C   0  0  0  0  0  0  0  0  0  0  0  0
   -4.5942    2.5428   -1.3660 C   0  0  0  0  0  0  0  0  0  0  0  0
   -5.2169    3.2470   -2.4180 C   0  0  0  0  0  0  0  0  0  0  0  0
   -6.5889    3.1232   -2.6438 C   0  0  0  0  0  0  0  0  0  0  0  0
   -7.3606    2.3154   -1.8029 C   0  0  0  0  0  0  0  0  0  0  0  0
   -9.0482    1.8832   -2.2527 S   0  0  0  0  0  0  0  0  0  0  0  0
   -8.6093    0.2733   -3.0122 C   0  0  0  0  0  0  0  0  0  0  0  0
   -8.3848    0.4236   -4.5173 C   0  0  0  0  0  0  0  0  0  0  0  0
   -6.7863    1.7620   -0.6477 C   0  0  0  0  0  0  0  0  0  0  0  0
   -5.4222    1.9028   -0.4152 C   0  0  0  0  0  0  0  0  0  0  0  0
   -2.8957    1.5317   -2.7969 C   0  0  0  0  0  0  0  0  0  0  0  0
   -3.0638    0.1804   -2.6955 C   0  0  0  0  0  0  0  0  0  0  0  0
   -2.9535   -0.1596   -1.2942 C   0  0  0  0  0  0  0  0  0  0  0  0
   -3.1547   -1.3636   -0.6114 C   0  0  0  0  0  0  0  0  0  0  0  0
   -2.8439   -1.3580    0.7605 C   0  0  0  0  0  0  0  0  0  0  0  0
   -3.1646   -2.3618    1.8475 C   0  0  0  0  0  0  0  0  0  0  0  0
   -3.3093   -3.8074    1.3622 C   0  0  0  0  0  0  0  0  0  0  0  0
   -4.5381   -4.5011    1.4986 C   0  0  0  0  0  0  0  0  0  0  0  0
   -4.6495   -5.8186    1.1051 C   0  0  0  0  0  0  0  0  0  0  0  0
   -3.5353   -6.5270    0.6640 C   0  0  0  0  0  0  0  0  0  0  0  0
   -3.6628   -8.3037    0.4045 S   0  0  0  0  0  0  0  0  0  0  0  0
   -4.0143   -8.6980    2.1548 C   0  0  0  0  0  0  0  0  0  0  0  0
   -5.4599   -9.1787    2.3097 C   0  0  0  0  0  0  0  0  0  0  0  0
   -2.3225   -5.8455    0.4465 C   0  0  0  0  0  0  0  0  0  0  0  0
   -2.2316   -4.4797    0.7600 C   0  0  0  0  0  0  0  0  0  0  0  0
   -4.4234   -1.8337    2.5939 C   0  0  0  0  0  0  0  0  0  0  0  0
   -5.5135   -1.2700    1.8927 C   0  0  0  0  0  0  0  0  0  0  0  0
   -6.5015   -0.5324    2.5731 C   0  0  0  0  0  0  0  0  0  0  0  0
   -6.4089   -0.3460    3.9566 C   0  0  0  0  0  0  0  0  0  0  0  0
   -7.4820    0.8039    4.7876 S   0  0  0  0  0  0  0  0  0  0  0  0
   -8.7201   -0.4295    5.3326 C   0  0  0  0  0  0  0  0  0  0  0  0
   -8.4907   -0.7603    6.8084 C   0  0  0  0  0  0  0  0  0  0  0  0
   -5.4141   -1.0287    4.6704 C   0  0  0  0  0  0  0  0  0  0  0  0
   -4.4590   -1.7893    4.0074 C   0  0  0  0  0  0  0  0  0  0  0  0
   -1.9664   -2.0291    2.7184 C   0  0  0  0  0  0  0  0  0  0  0  0
   -0.9742   -2.7425    3.4091 C   0  0  0  0  0  0  0  0  0  0  0  0
   -0.4725   -4.3369    3.3579 S   0  0  0  0  0  0  0  0  0  0  0  0
   -2.5429   -0.6181   -4.1033 S   0  0  0  0  0  0  0  0  0  0  0  0
   -2.1513    0.8643   -4.8858 C   0  0  0  0  0  0  0  0  0  0  0  0
   -1.3746    1.1598   -6.0112 C   0  0  0  0  0  0  0  0  0  0  0  0
   -0.9728    2.5184   -5.9929 C   0  0  0  0  0  0  0  0  0  0  0  0
   -1.5845    3.2637   -4.5851 S   0  0  0  0  0  0  0  0  0  0  0  0
   -2.3840    1.9056   -4.0416 C   0  0  0  0  0  0  0  0  0  0  0  0
    0.0939    3.1312   -6.8182 C   0  0  0  0  0  0  0  0  0  0  0  0
    0.7537    2.5800   -7.9250 C   0  0  0  0  0  0  0  0  0  0  0  0
    0.2032    1.5326   -8.7397 C   0  0  0  0  0  0  0  0  0  0  0  0
   -0.2547    0.7054   -9.4105 N   0  0  0  0  0  0  0  0  0  0  0  0
    2.0058    3.1891   -8.2042 C   0  0  0  0  0  0  0  0  0  0  0  0
    2.3671    4.2183   -7.3475 C   0  0  0  0  0  0  0  0  0  0  0  0
    1.0953    4.3809   -6.2551 S   0  0  0  0  0  0  0  0  0  0  0  0
    3.7446    4.5867   -6.9054 C   0  0  0  0  0  0  0  0  0  0  0  0
    4.9542    4.1345   -7.3358 C   0  0  0  0  0  0  0  0  0  0  0  0
    5.1713    2.7412   -7.8008 C   0  0  0  0  0  0  0  0  0  0  0  0
    4.9273    2.3515   -8.9736 O   0  0  0  0  0  0  0  0  0  0  0  0
    6.2076    2.1666   -6.9300 C   0  0  0  0  0  0  0  0  0  0  0  0
    6.5665    0.8202   -6.7931 C   0  0  0  0  0  0  0  0  0  0  0  0
    5.7332   -0.4594   -7.6499 Cl  0  0  0  0  0  0  0  0  0  0  0  0
    7.6725    0.5007   -5.9973 C   0  0  0  0  0  0  0  0  0  0  0  0
    8.4152    1.5267   -5.3763 C   0  0  0  0  0  0  0  0  0  0  0  0
    8.0186    2.8636   -5.4796 C   0  0  0  0  0  0  0  0  0  0  0  0
    6.8500    3.1650   -6.2275 C   0  0  0  0  0  0  0  0  0  0  0  0
    6.2055    4.4638   -6.5730 C   0  0  0  0  0  0  0  0  0  0  0  0
    6.7495    5.6994   -6.4393 C   0  0  0  0  0  0  0  0  0  0  0  0
    8.0407    5.9290   -5.7962 C   0  0  0  0  0  0  0  0  0  0  0  0
    9.0482    6.1426   -5.2890 N   0  0  0  0  0  0  0  0  0  0  0  0
    6.1539    6.8649   -7.0548 C   0  0  0  0  0  0  0  0  0  0  0  0
    5.6910    7.8072   -7.5404 N   0  0  0  0  0  0  0  0  0  0  0  0
    6.1051   -6.6621    5.5160 H   0  0  0  0  0  0  0  0  0  0  0  0
   10.1357   -0.4737    2.7634 H   0  0  0  0  0  0  0  0  0  0  0  0
   11.7424   -1.7256    4.1465 H   0  0  0  0  0  0  0  0  0  0  0  0
   11.1323   -3.7492    5.2703 H   0  0  0  0  0  0  0  0  0  0  0  0
    5.0684   -5.6685    2.2001 H   0  0  0  0  0  0  0  0  0  0  0  0
    1.7552   -2.8589    1.7610 H   0  0  0  0  0  0  0  0  0  0  0  0
    2.1064   -2.1265    4.5601 H   0  0  0  0  0  0  0  0  0  0  0  0
   -1.9922    1.9029    1.2716 H   0  0  0  0  0  0  0  0  0  0  0  0
   -0.3473    2.2013   -1.3849 H   0  0  0  0  0  0  0  0  0  0  0  0
    1.1514    3.8558   -0.3931 H   0  0  0  0  0  0  0  0  0  0  0  0
    0.9730    4.3779    2.2961 H   0  0  0  0  0  0  0  0  0  0  0  0
    1.2737    5.8767    3.2196 H   0  0  0  0  0  0  0  0  0  0  0  0
   -0.7487    4.9046    4.1502 H   0  0  0  0  0  0  0  0  0  0  0  0
   -1.4733    4.6824    2.5267 H   0  0  0  0  0  0  0  0  0  0  0  0
   -1.2470    6.3481    3.2160 H   0  0  0  0  0  0  0  0  0  0  0  0
   -2.1801    6.5202    0.1911 H   0  0  0  0  0  0  0  0  0  0  0  0
   -3.6898    4.8811   -0.7394 H   0  0  0  0  0  0  0  0  0  0  0  0
   -4.6182    3.7962   -3.1292 H   0  0  0  0  0  0  0  0  0  0  0  0
   -7.0374    3.6154   -3.4956 H   0  0  0  0  0  0  0  0  0  0  0  0
   -9.4569   -0.4252   -2.8471 H   0  0  0  0  0  0  0  0  0  0  0  0
   -7.7018   -0.1650   -2.5513 H   0  0  0  0  0  0  0  0  0  0  0  0
   -7.6816    1.2574   -4.7316 H   0  0  0  0  0  0  0  0  0  0  0  0
   -7.9688   -0.5180   -4.9378 H   0  0  0  0  0  0  0  0  0  0  0  0
   -9.3505    0.6284   -5.0239 H   0  0  0  0  0  0  0  0  0  0  0  0
   -7.3823    1.1489    0.0123 H   0  0  0  0  0  0  0  0  0  0  0  0
   -5.0300    1.3879    0.4478 H   0  0  0  0  0  0  0  0  0  0  0  0
   -3.5659   -2.2319   -1.0964 H   0  0  0  0  0  0  0  0  0  0  0  0
   -5.4246   -4.0532    1.9179 H   0  0  0  0  0  0  0  0  0  0  0  0
   -5.6067   -6.3188    1.2105 H   0  0  0  0  0  0  0  0  0  0  0  0
   -3.3228   -9.5039    2.4659 H   0  0  0  0  0  0  0  0  0  0  0  0
   -3.8463   -7.8372    2.8338 H   0  0  0  0  0  0  0  0  0  0  0  0
   -5.6307  -10.0877    1.7026 H   0  0  0  0  0  0  0  0  0  0  0  0
   -5.6621   -9.4087    3.3734 H   0  0  0  0  0  0  0  0  0  0  0  0
   -6.1535   -8.3661    1.9917 H   0  0  0  0  0  0  0  0  0  0  0  0
   -1.4576   -6.3674    0.0498 H   0  0  0  0  0  0  0  0  0  0  0  0
   -1.2939   -3.9569    0.5818 H   0  0  0  0  0  0  0  0  0  0  0  0
   -5.5569   -1.3294    0.8213 H   0  0  0  0  0  0  0  0  0  0  0  0
   -7.2797   -0.0433    1.9975 H   0  0  0  0  0  0  0  0  0  0  0  0
   -9.7230    0.0294    5.2114 H   0  0  0  0  0  0  0  0  0  0  0  0
   -8.7013   -1.3497    4.7070 H   0  0  0  0  0  0  0  0  0  0  0  0
   -8.6968    0.1289    7.4479 H   0  0  0  0  0  0  0  0  0  0  0  0
   -7.4424   -1.0912    6.9972 H   0  0  0  0  0  0  0  0  0  0  0  0
   -9.1467   -1.5859    7.1437 H   0  0  0  0  0  0  0  0  0  0  0  0
   -5.3411   -0.8856    5.7392 H   0  0  0  0  0  0  0  0  0  0  0  0
   -3.7030   -2.2794    4.6041 H   0  0  0  0  0  0  0  0  0  0  0  0
   -1.0482    0.3669   -6.6782 H   0  0  0  0  0  0  0  0  0  0  0  0
    2.6026    2.9036   -9.0517 H   0  0  0  0  0  0  0  0  0  0  0  0
    3.7356    5.1706   -5.9970 H   0  0  0  0  0  0  0  0  0  0  0  0
    7.9536   -0.5513   -5.8597 H   0  0  0  0  0  0  0  0  0  0  0  0
    9.2906    1.2786   -4.7792 H   0  0  0  0  0  0  0  0  0  0  0  0
    8.5878    3.6051   -4.9359 H   0  0  0  0  0  0  0  0  0  0  0  0
  1  2  2  3
  2  3  1  0
  3  4  2  0
  3  5  1  0
  5  6  2  0
  6  7  1  0
  6  8  1  0
  8  9  2  0
  9 10  1  0
 10 11  2  0
 11 12  1  0
 12 13  2  3
 13 14  1  0
 14 15  3  0
 13 16  1  0
 16 17  3  0
  1 18  1  0
 18 19  2  0
 19 20  1  0
 20 21  1  0
 21 22  2  0
 21 23  1  0
 20 24  2  0
 24 25  1  0
 24 26  1  0
 26 27  2  0
 27 28  1  0
 28 29  1  0
 29 30  1  0
 30 31  1  0
 31 32  2  0
 32 33  1  0
 33 34  1  0
 34 35  1  0
 35 36  2  0
 36 37  1  0
 37 38  2  0
 38 39  1  0
 39 40  1  0
 40 41  1  0
 38 42  1  0
 42 43  2  0
 34 44  1  0
 44 45  2  0
 45 46  1  0
 46 47  2  0
 47 48  1  0
 48 49  1  0
 49 50  1  0
 47 51  1  0
 51 52  2  0
 34 53  1  0
 53 54  2  0
 54 55  1  0
 55 56  1  0
 56 57  2  0
 57 58  1  0
 58 59  1  0
 59 60  2  0
 60 61  1  0
 61 62  2  0
 62 63  1  0
 63 64  1  0
 64 65  1  0
 62 66  1  0
 66 67  2  0
 58 68  1  0
 68 69  2  0
 69 70  1  0
 70 71  2  0
 71 72  1  0
 72 73  1  0
 73 74  1  0
 71 75  1  0
 75 76  2  0
 58 77  1  0
 77 78  1  0
 78 79  1  0
 54 80  1  0
 80 81  1  0
 81 82  1  0
 82 83  2  0
 83 84  1  0
 84 85  1  0
 83 86  1  0
 86 87  2  0
 87 88  1  0
 88 89  3  0
 87 90  1  0
 90 91  2  0
 91 92  1  0
 91 93  1  0
 93 94  2  3
 94 95  1  0
 95 96  2  0
 95 97  1  0
 97 98  2  0
 98 99  1  0
 98100  1  0
100101  2  0
101102  1  0
102103  2  0
103104  1  0
104105  2  3
105106  1  0
106107  3  0
105108  1  0
108109  3  0
 12  2  1  0
 25 18  1  0
 79 26  1  0
 85 81  2  0
 92 86  1  0
104 94  1  0
 11  5  1  0
 78 28  2  0
103 97  1  0
 77 30  2  0
 57 31  1  0
 67 59  1  0
 76 68  1  0
 55 33  2  0
 43 35  1  0
 52 44  1  0
 85 53  1  0
  1110  1  0
  8111  1  0
  9112  1  0
 10113  1  0
 19114  1  0
 23115  1  0
 27116  1  0
 32117  1  0
 36118  1  0
 37119  1  0
 40120  1  0
 40121  1  0
 41122  1  0
 41123  1  0
 41124  1  0
 42125  1  0
 43126  1  0
 45127  1  0
 46128  1  0
 49129  1  0
 49130  1  0
 50131  1  0
 50132  1  0
 50133  1  0
 51134  1  0
 52135  1  0
 56136  1  0
 60137  1  0
 61138  1  0
 64139  1  0
 64140  1  0
 65141  1  0
 65142  1  0
 65143  1  0
 66144  1  0
 67145  1  0
 69146  1  0
 70147  1  0
 73148  1  0
 73149  1  0
 74150  1  0
 74151  1  0
 74152  1  0
 75153  1  0
 76154  1  0
 82155  1  0
 90156  1  0
 93157  1  0
100158  1  0
101159  1  0
102160  1  0
M  END

