
     RDKit          3D

173190  0  0  0  0  0  0  0  0999 V2000
   -6.5446    0.5591   -6.2464 C   0  0  0  0  0  0  0  0  0  0  0  0
   -5.5690    1.0765   -7.0141 C   0  0  0  0  0  0  0  0  0  0  0  0
   -5.8262    1.8203   -8.2480 C   0  0  0  0  0  0  0  0  0  0  0  0
   -6.9446    1.9794   -8.8040 O   0  0  0  0  0  0  0  0  0  0  0  0
   -4.5809    2.4174   -8.6690 C   0  0  0  0  0  0  0  0  0  0  0  0
   -4.3326    3.2977   -9.7189 C   0  0  0  0  0  0  0  0  0  0  0  0
   -3.0329    3.8038   -9.8634 C   0  0  0  0  0  0  0  0  0  0  0  0
   -2.0093    3.4403   -8.9611 C   0  0  0  0  0  0  0  0  0  0  0  0
   -0.7376    4.0105   -9.1235 O   0  0  0  0  0  0  0  0  0  0  0  0
    0.3561    3.7911   -8.2310 C   0  0  0  0  0  0  0  0  0  0  0  0
   -2.2929    2.5326   -7.9209 C   0  0  0  0  0  0  0  0  0  0  0  0
   -3.5923    2.0370   -7.7903 C   0  0  0  0  0  0  0  0  0  0  0  0
   -4.1049    1.1438   -6.7299 C   0  0  0  0  0  0  0  0  0  0  0  0
   -3.4221    0.0475   -6.3559 C   0  0  0  0  0  0  0  0  0  0  0  0
   -2.9511   -0.0469   -5.0009 C   0  0  0  0  0  0  0  0  0  0  0  0
   -2.5485   -0.1253   -3.9210 N   0  0  0  0  0  0  0  0  0  0  0  0
   -2.6815   -0.7042   -7.3342 C   0  0  0  0  0  0  0  0  0  0  0  0
   -2.0841   -1.3029   -8.1253 N   0  0  0  0  0  0  0  0  0  0  0  0
   -6.3528    0.0943   -4.8523 C   0  0  0  0  0  0  0  0  0  0  0  0
   -6.9273   -1.1233   -4.4522 C   0  0  0  0  0  0  0  0  0  0  0  0
   -7.6183   -1.8746   -5.3443 F   0  0  0  0  0  0  0  0  0  0  0  0
   -6.7653   -1.5879   -3.1448 C   0  0  0  0  0  0  0  0  0  0  0  0
   -7.3546   -2.7593   -2.7929 F   0  0  0  0  0  0  0  0  0  0  0  0
   -6.0145   -0.8542   -2.2023 C   0  0  0  0  0  0  0  0  0  0  0  0
   -5.5975    0.4500   -2.5564 C   0  0  0  0  0  0  0  0  0  0  0  0
   -5.0575    1.2894   -1.6394 N   0  0  0  0  0  0  0  0  0  0  0  0
   -4.6316    2.5432   -1.9542 C   0  0  0  0  0  0  0  0  0  0  0  0
   -4.2057    3.4055   -0.9513 O   0  0  0  0  0  0  0  0  0  0  0  0
   -4.8777    3.4593    0.3063 C   0  0  0  0  0  0  0  0  0  0  0  0
   -4.1088    4.3283    1.2789 C   0  0  0  0  0  0  0  0  0  0  0  0
   -4.6855    2.9622   -3.2941 C   0  0  0  0  0  0  0  0  0  0  0  0
   -5.2691    2.1451   -4.2116 N   0  0  0  0  0  0  0  0  0  0  0  0
   -5.7389    0.9096   -3.8855 C   0  0  0  0  0  0  0  0  0  0  0  0
   -4.1630    4.2913   -3.7444 C   0  0  0  0  0  0  0  0  0  0  0  0
   -5.6279   -1.4697   -0.8928 C   0  0  0  0  0  0  0  0  0  0  0  0
   -5.1797   -2.8008   -0.7005 C   0  0  0  0  0  0  0  0  0  0  0  0
   -4.9196   -3.7704   -1.7858 C   0  0  0  0  0  0  0  0  0  0  0  0
   -4.1524   -3.3934   -2.9040 C   0  0  0  0  0  0  0  0  0  0  0  0
   -3.9395   -4.2972   -3.9477 C   0  0  0  0  0  0  0  0  0  0  0  0
   -4.4829   -5.5827   -3.8848 C   0  0  0  0  0  0  0  0  0  0  0  0
   -5.2356   -5.9788   -2.7694 C   0  0  0  0  0  0  0  0  0  0  0  0
   -5.7821   -7.3768   -2.6834 C   0  0  0  0  0  0  0  0  0  0  0  0
   -4.7856   -8.3020   -1.9945 C   0  0  0  0  0  0  0  0  0  0  0  0
   -5.4344   -5.0735   -1.7096 C   0  0  0  0  0  0  0  0  0  0  0  0
   -4.7430   -3.0151    0.6145 C   0  0  0  0  0  0  0  0  0  0  0  0
   -3.8493   -4.2865    1.3220 S   0  0  0  0  0  0  0  0  0  0  0  0
   -3.5273   -3.3354    2.6855 C   0  0  0  0  0  0  0  0  0  0  0  0
   -2.6358   -3.3320    3.7198 C   0  0  0  0  0  0  0  0  0  0  0  0
   -1.8555   -4.3389    4.2917 C   0  0  0  0  0  0  0  0  0  0  0  0
   -0.9968   -4.0041    5.3853 C   0  0  0  0  0  0  0  0  0  0  0  0
   -0.2468   -5.0083    5.9065 N   0  0  0  0  0  0  0  0  0  0  0  0
   -0.7622   -6.2625    4.9474 S   0  0  0  0  0  0  0  0  0  0  0  0
   -1.8697   -5.6356    3.8877 N   0  0  0  0  0  0  0  0  0  0  0  0
   -0.9179   -2.6621    5.8000 C   0  0  0  0  0  0  0  0  0  0  0  0
    0.0640   -2.0311    6.5234 C   0  0  0  0  0  0  0  0  0  0  0  0
    1.6087   -2.4957    7.0593 S   0  0  0  0  0  0  0  0  0  0  0  0
    2.2087   -0.9143    6.8870 C   0  0  0  0  0  0  0  0  0  0  0  0
    3.5168   -0.4222    6.8091 C   0  0  0  0  0  0  0  0  0  0  0  0
    4.6860   -1.0988    7.4005 C   0  0  0  0  0  0  0  0  0  0  0  0
    5.1189   -2.3479    6.9370 C   0  0  0  0  0  0  0  0  0  0  0  0
    6.1760   -3.0020    7.5732 C   0  0  0  0  0  0  0  0  0  0  0  0
    6.7733   -2.4425    8.7111 C   0  0  0  0  0  0  0  0  0  0  0  0
    6.3249   -1.2075    9.2068 C   0  0  0  0  0  0  0  0  0  0  0  0
    6.8899   -0.6439   10.4860 C   0  0  0  0  0  0  0  0  0  0  0  0
    7.8066    0.5450   10.2193 C   0  0  0  0  0  0  0  0  0  0  0  0
    5.2949   -0.5295    8.5324 C   0  0  0  0  0  0  0  0  0  0  0  0
    3.5623    0.8274    6.1533 C   0  0  0  0  0  0  0  0  0  0  0  0
    1.9745    1.2824    5.7584 S   0  0  0  0  0  0  0  0  0  0  0  0
    1.2398   -0.0843    6.3836 C   0  0  0  0  0  0  0  0  0  0  0  0
    0.0135   -0.7116    6.1781 C   0  0  0  0  0  0  0  0  0  0  0  0
   -0.9986   -0.4372    5.3081 N   0  0  0  0  0  0  0  0  0  0  0  0
   -1.6287   -1.6431    5.1404 C   0  0  0  0  0  0  0  0  0  0  0  0
   -2.5925   -2.0044    4.1628 C   0  0  0  0  0  0  0  0  0  0  0  0
   -3.5173   -1.2221    3.5136 N   0  0  0  0  0  0  0  0  0  0  0  0
   -4.0496   -2.0829    2.5993 C   0  0  0  0  0  0  0  0  0  0  0  0
   -4.7723   -1.9070    1.4277 C   0  0  0  0  0  0  0  0  0  0  0  0
   -5.3808   -0.6089    0.5652 S   0  0  0  0  0  0  0  0  0  0  0  0
   -4.2850   -0.1466    4.1638 C   0  0  0  0  0  0  0  0  0  0  0  0
   -4.4863    1.0594    3.2484 C   0  0  0  0  0  0  0  0  0  0  0  0
   -0.9859    0.6933    4.3692 C   0  0  0  0  0  0  0  0  0  0  0  0
   -0.1587    0.3658    3.1302 C   0  0  0  0  0  0  0  0  0  0  0  0
    4.6525    1.2613    5.2545 C   0  0  0  0  0  0  0  0  0  0  0  0
    5.0426    2.6120    5.2354 C   0  0  0  0  0  0  0  0  0  0  0  0
    4.6695    3.4355    6.2465 F   0  0  0  0  0  0  0  0  0  0  0  0
    5.7109    3.1488    4.1249 C   0  0  0  0  0  0  0  0  0  0  0  0
    5.9760    4.4786    4.0846 F   0  0  0  0  0  0  0  0  0  0  0  0
    5.9851    2.3406    3.0113 C   0  0  0  0  0  0  0  0  0  0  0  0
    5.6855    0.9694    3.0592 C   0  0  0  0  0  0  0  0  0  0  0  0
    5.9241    0.1761    1.9822 N   0  0  0  0  0  0  0  0  0  0  0  0
    5.5250   -1.1223    1.9391 C   0  0  0  0  0  0  0  0  0  0  0  0
    5.7739   -1.9059    0.8038 O   0  0  0  0  0  0  0  0  0  0  0  0
    6.4009   -1.4112   -0.3761 C   0  0  0  0  0  0  0  0  0  0  0  0
    7.9093   -1.3411   -0.1880 C   0  0  0  0  0  0  0  0  0  0  0  0
    4.8345   -1.6578    3.0343 C   0  0  0  0  0  0  0  0  0  0  0  0
    4.5870   -0.8618    4.1099 N   0  0  0  0  0  0  0  0  0  0  0  0
    5.0049    0.4326    4.1694 C   0  0  0  0  0  0  0  0  0  0  0  0
    4.3491   -3.0685    3.0294 C   0  0  0  0  0  0  0  0  0  0  0  0
    6.3784    2.9465    1.7224 C   0  0  0  0  0  0  0  0  0  0  0  0
    5.5005    3.0122    0.6954 C   0  0  0  0  0  0  0  0  0  0  0  0
    4.0801    2.6442    0.7874 C   0  0  0  0  0  0  0  0  0  0  0  0
    3.3898    2.5733    1.8403 O   0  0  0  0  0  0  0  0  0  0  0  0
    3.5837    2.3889   -0.5418 C   0  0  0  0  0  0  0  0  0  0  0  0
    2.3376    1.8777   -0.9059 C   0  0  0  0  0  0  0  0  0  0  0  0
    2.1053    1.5818   -2.2535 C   0  0  0  0  0  0  0  0  0  0  0  0
    3.1231    1.7750   -3.2172 C   0  0  0  0  0  0  0  0  0  0  0  0
    2.9386    1.4518   -4.5739 O   0  0  0  0  0  0  0  0  0  0  0  0
    1.7605    0.8451   -5.0979 C   0  0  0  0  0  0  0  0  0  0  0  0
    4.3696    2.2993   -2.8180 C   0  0  0  0  0  0  0  0  0  0  0  0
    4.5815    2.6312   -1.4655 C   0  0  0  0  0  0  0  0  0  0  0  0
    5.8021    3.1407   -0.7658 C   0  0  0  0  0  0  0  0  0  0  0  0
    6.8697    3.7539   -1.3330 C   0  0  0  0  0  0  0  0  0  0  0  0
    7.9112    4.3698   -0.5509 C   0  0  0  0  0  0  0  0  0  0  0  0
    8.7597    4.8709    0.0622 N   0  0  0  0  0  0  0  0  0  0  0  0
    6.9874    3.9525   -2.7524 C   0  0  0  0  0  0  0  0  0  0  0  0
    7.0966    4.1218   -3.8926 N   0  0  0  0  0  0  0  0  0  0  0  0
   -7.5560    0.5313   -6.6317 H   0  0  0  0  0  0  0  0  0  0  0  0
   -5.1230    3.5927  -10.4015 H   0  0  0  0  0  0  0  0  0  0  0  0
   -2.8171    4.5002  -10.6622 H   0  0  0  0  0  0  0  0  0  0  0  0
    0.6370    2.7169   -8.2196 H   0  0  0  0  0  0  0  0  0  0  0  0
    1.2305    4.3831   -8.5649 H   0  0  0  0  0  0  0  0  0  0  0  0
    0.0780    4.1203   -7.2067 H   0  0  0  0  0  0  0  0  0  0  0  0
   -1.5423    2.2369   -7.2005 H   0  0  0  0  0  0  0  0  0  0  0  0
   -4.9865    2.4383    0.7449 H   0  0  0  0  0  0  0  0  0  0  0  0
   -5.8923    3.8873    0.1456 H   0  0  0  0  0  0  0  0  0  0  0  0
   -4.7196    4.4792    2.1943 H   0  0  0  0  0  0  0  0  0  0  0  0
   -3.8767    5.3175    0.8204 H   0  0  0  0  0  0  0  0  0  0  0  0
   -3.1547    3.8227    1.5572 H   0  0  0  0  0  0  0  0  0  0  0  0
   -3.3605    4.1268   -4.4982 H   0  0  0  0  0  0  0  0  0  0  0  0
   -3.7387    4.8800   -2.9025 H   0  0  0  0  0  0  0  0  0  0  0  0
   -4.9859    4.8713   -4.2079 H   0  0  0  0  0  0  0  0  0  0  0  0
   -3.7246   -2.4010   -2.9639 H   0  0  0  0  0  0  0  0  0  0  0  0
   -3.3560   -3.9991   -4.8083 H   0  0  0  0  0  0  0  0  0  0  0  0
   -4.3105   -6.2703   -4.7059 H   0  0  0  0  0  0  0  0  0  0  0  0
   -5.9991   -7.7641   -3.7020 H   0  0  0  0  0  0  0  0  0  0  0  0
   -6.7399   -7.3805   -2.1209 H   0  0  0  0  0  0  0  0  0  0  0  0
   -3.8170   -8.3086   -2.5440 H   0  0  0  0  0  0  0  0  0  0  0  0
   -5.1903   -9.3321   -1.9713 H   0  0  0  0  0  0  0  0  0  0  0  0
   -4.6090   -7.9635   -0.9498 H   0  0  0  0  0  0  0  0  0  0  0  0
   -6.0040   -5.3793   -0.8407 H   0  0  0  0  0  0  0  0  0  0  0  0
    4.6410   -2.8152    6.0850 H   0  0  0  0  0  0  0  0  0  0  0  0
    6.5155   -3.9618    7.2075 H   0  0  0  0  0  0  0  0  0  0  0  0
    7.5620   -2.9852    9.2158 H   0  0  0  0  0  0  0  0  0  0  0  0
    6.0522   -0.3230   11.1449 H   0  0  0  0  0  0  0  0  0  0  0  0
    7.4604   -1.4238   11.0382 H   0  0  0  0  0  0  0  0  0  0  0  0
    7.2545    1.3516    9.6941 H   0  0  0  0  0  0  0  0  0  0  0  0
    8.1807    0.9429   11.1864 H   0  0  0  0  0  0  0  0  0  0  0  0
    8.6732    0.2297    9.6039 H   0  0  0  0  0  0  0  0  0  0  0  0
    4.9355    0.4235    8.9144 H   0  0  0  0  0  0  0  0  0  0  0  0
   -3.7841    0.1738    5.1069 H   0  0  0  0  0  0  0  0  0  0  0  0
   -5.2728   -0.5416    4.4818 H   0  0  0  0  0  0  0  0  0  0  0  0
   -5.5079    1.0427    2.8211 H   0  0  0  0  0  0  0  0  0  0  0  0
   -3.7305    1.0658    2.4283 H   0  0  0  0  0  0  0  0  0  0  0  0
   -4.3736    1.9962    3.8378 H   0  0  0  0  0  0  0  0  0  0  0  0
   -1.9927    0.9782    4.0594 H   0  0  0  0  0  0  0  0  0  0  0  0
   -0.5784    1.5938    4.8638 H   0  0  0  0  0  0  0  0  0  0  0  0
   -0.0162    1.2797    2.5199 H   0  0  0  0  0  0  0  0  0  0  0  0
    0.8302   -0.0435    3.4089 H   0  0  0  0  0  0  0  0  0  0  0  0
   -0.6879   -0.3961    2.5135 H   0  0  0  0  0  0  0  0  0  0  0  0
    5.9978   -0.4074   -0.6392 H   0  0  0  0  0  0  0  0  0  0  0  0
    6.1755   -2.1063   -1.2103 H   0  0  0  0  0  0  0  0  0  0  0  0
    8.3090   -2.3531    0.0172 H   0  0  0  0  0  0  0  0  0  0  0  0
    8.1676   -0.6657    0.6497 H   0  0  0  0  0  0  0  0  0  0  0  0
    8.3824   -0.9511   -1.1164 H   0  0  0  0  0  0  0  0  0  0  0  0
    5.2124   -3.7600    3.1015 H   0  0  0  0  0  0  0  0  0  0  0  0
    3.6680   -3.2519    3.8899 H   0  0  0  0  0  0  0  0  0  0  0  0
    3.7829   -3.2794    2.0942 H   0  0  0  0  0  0  0  0  0  0  0  0
    7.4321    3.1128    1.5740 H   0  0  0  0  0  0  0  0  0  0  0  0
    1.5732    1.6874   -0.1630 H   0  0  0  0  0  0  0  0  0  0  0  0
    1.1408    1.1818   -2.5378 H   0  0  0  0  0  0  0  0  0  0  0  0
    1.8931    0.6816   -6.1887 H   0  0  0  0  0  0  0  0  0  0  0  0
    1.5852   -0.1382   -4.6106 H   0  0  0  0  0  0  0  0  0  0  0  0
    0.8827    1.5065   -4.9378 H   0  0  0  0  0  0  0  0  0  0  0  0
    5.1431    2.3981   -3.5596 H   0  0  0  0  0  0  0  0  0  0  0  0
  1  2  2  3
  2  3  1  0
  3  4  2  0
  3  5  1  0
  5  6  2  0
  6  7  1  0
  7  8  2  0
  8  9  1  0
  9 10  1  0
  8 11  1  0
 11 12  2  0
 12 13  1  0
 13 14  2  3
 14 15  1  0
 15 16  3  0
 14 17  1  0
 17 18  3  0
  1 19  1  0
 19 20  2  0
 20 21  1  0
 20 22  1  0
 22 23  1  0
 22 24  2  0
 24 25  1  0
 25 26  2  0
 26 27  1  0
 27 28  1  0
 28 29  1  0
 29 30  1  0
 27 31  2  0
 31 32  1  0
 32 33  2  0
 31 34  1  0
 24 35  1  0
 35 36  2  0
 36 37  1  0
 37 38  2  0
 38 39  1  0
 39 40  2  0
 40 41  1  0
 41 42  1  0
 42 43  1  0
 41 44  2  0
 36 45  1  0
 45 46  1  0
 46 47  1  0
 47 48  1  0
 48 49  1  0
 49 50  1  0
 50 51  2  0
 51 52  1  0
 52 53  1  0
 50 54  1  0
 54 55  1  0
 55 56  1  0
 56 57  1  0
 57 58  1  0
 58 59  1  0
 59 60  2  0
 60 61  1  0
 61 62  2  0
 62 63  1  0
 63 64  1  0
 64 65  1  0
 63 66  2  0
 58 67  2  0
 67 68  1  0
 68 69  1  0
 69 70  1  0
 70 71  1  0
 71 72  1  0
 72 73  1  0
 73 74  1  0
 74 75  1  0
 75 76  1  0
 76 77  1  0
 74 78  1  0
 78 79  1  0
 71 80  1  0
 80 81  1  0
 67 82  1  0
 82 83  2  0
 83 84  1  0
 83 85  1  0
 85 86  1  0
 85 87  2  0
 87 88  1  0
 88 89  2  0
 89 90  1  0
 90 91  1  0
 91 92  1  0
 92 93  1  0
 90 94  2  0
 94 95  1  0
 95 96  2  0
 94 97  1  0
 87 98  1  0
 98 99  2  3
 99100  1  0
100101  2  0
100102  1  0
102103  2  0
103104  1  0
104105  2  0
105106  1  0
106107  1  0
105108  1  0
108109  2  0
109110  1  0
110111  2  3
111112  1  0
112113  3  0
111114  1  0
114115  3  0
 13  2  1  0
 33 19  1  0
 77 35  1  0
 96 82  1  0
110 99  1  0
 12  5  1  0
 33 25  1  0
 44 37  1  0
 76 45  2  0
 96 88  1  0
109102  1  0
 75 47  2  0
 73 48  2  0
 53 49  2  0
 72 54  2  0
 70 55  2  0
 69 57  2  0
 66 59  1  0
  1116  1  0
  6117  1  0
  7118  1  0
 10119  1  0
 10120  1  0
 10121  1  0
 11122  1  0
 29123  1  0
 29124  1  0
 30125  1  0
 30126  1  0
 30127  1  0
 34128  1  0
 34129  1  0
 34130  1  0
 38131  1  0
 39132  1  0
 40133  1  0
 42134  1  0
 42135  1  0
 43136  1  0
 43137  1  0
 43138  1  0
 44139  1  0
 60140  1  0
 61141  1  0
 62142  1  0
 64143  1  0
 64144  1  0
 65145  1  0
 65146  1  0
 65147  1  0
 66148  1  0
 78149  1  0
 78150  1  0
 79151  1  0
 79152  1  0
 79153  1  0
 80154  1  0
 80155  1  0
 81156  1  0
 81157  1  0
 81158  1  0
 92159  1  0
 92160  1  0
 93161  1  0
 93162  1  0
 93163  1  0
 97164  1  0
 97165  1  0
 97166  1  0
 98167  1  0
103168  1  0
104169  1  0
107170  1  0
107171  1  0
107172  1  0
108173  1  0
M  END

