
     RDKit          3D

157172  0  0  0  0  0  0  0  0999 V2000
    0.1199    6.8167   -4.2973 C   0  0  0  0  0  0  0  0  0  0  0  0
    1.4054    6.9617   -4.6681 C   0  0  0  0  0  0  0  0  0  0  0  0
    2.0225    8.2779   -4.8715 C   0  0  0  0  0  0  0  0  0  0  0  0
    1.4754    9.3951   -4.6651 O   0  0  0  0  0  0  0  0  0  0  0  0
    3.3746    8.0825   -5.3411 C   0  0  0  0  0  0  0  0  0  0  0  0
    4.3576    9.0302   -5.6153 C   0  0  0  0  0  0  0  0  0  0  0  0
    5.6278    8.5812   -6.0071 C   0  0  0  0  0  0  0  0  0  0  0  0
    5.8997    7.1916   -6.1040 C   0  0  0  0  0  0  0  0  0  0  0  0
    7.1604    6.6951   -6.4627 O   0  0  0  0  0  0  0  0  0  0  0  0
    8.3053    7.5053   -6.7011 C   0  0  0  0  0  0  0  0  0  0  0  0
    4.8808    6.2646   -5.8221 C   0  0  0  0  0  0  0  0  0  0  0  0
    3.6132    6.7314   -5.4575 C   0  0  0  0  0  0  0  0  0  0  0  0
    2.4294    5.9373   -5.0517 C   0  0  0  0  0  0  0  0  0  0  0  0
    2.1328    4.7423   -5.5939 C   0  0  0  0  0  0  0  0  0  0  0  0
    1.9455    3.6226   -4.7151 C   0  0  0  0  0  0  0  0  0  0  0  0
    1.8224    2.7100   -4.0162 N   0  0  0  0  0  0  0  0  0  0  0  0
    2.6045    4.4010   -6.9146 C   0  0  0  0  0  0  0  0  0  0  0  0
    2.9775    4.1258   -7.9764 N   0  0  0  0  0  0  0  0  0  0  0  0
   -0.5336    5.5463   -3.9385 C   0  0  0  0  0  0  0  0  0  0  0  0
   -0.0928    4.8295   -2.8193 C   0  0  0  0  0  0  0  0  0  0  0  0
    0.9916    5.2516   -2.1195 F   0  0  0  0  0  0  0  0  0  0  0  0
   -0.7411    3.6542   -2.4289 C   0  0  0  0  0  0  0  0  0  0  0  0
   -0.2170    2.9415   -1.4003 F   0  0  0  0  0  0  0  0  0  0  0  0
   -1.8790    3.1943   -3.1222 C   0  0  0  0  0  0  0  0  0  0  0  0
   -2.3881    3.9693   -4.1834 C   0  0  0  0  0  0  0  0  0  0  0  0
   -3.5569    3.6375   -4.7957 N   0  0  0  0  0  0  0  0  0  0  0  0
   -4.0837    4.3966   -5.7963 C   0  0  0  0  0  0  0  0  0  0  0  0
   -5.3102    4.0626   -6.3806 O   0  0  0  0  0  0  0  0  0  0  0  0
   -6.0979    2.9530   -5.9599 C   0  0  0  0  0  0  0  0  0  0  0  0
   -7.4295    2.9701   -6.6911 C   0  0  0  0  0  0  0  0  0  0  0  0
   -3.3907    5.5387   -6.2244 C   0  0  0  0  0  0  0  0  0  0  0  0
   -2.2273    5.8809   -5.6099 N   0  0  0  0  0  0  0  0  0  0  0  0
   -1.7104    5.1401   -4.5926 C   0  0  0  0  0  0  0  0  0  0  0  0
   -3.9277    6.4018   -7.3218 C   0  0  0  0  0  0  0  0  0  0  0  0
   -2.4996    1.9061   -2.7336 C   0  0  0  0  0  0  0  0  0  0  0  0
   -2.7125    0.7888   -3.5736 C   0  0  0  0  0  0  0  0  0  0  0  0
   -2.4513    0.7313   -5.0270 C   0  0  0  0  0  0  0  0  0  0  0  0
   -3.4369    0.2131   -5.8809 C   0  0  0  0  0  0  0  0  0  0  0  0
   -3.2021    0.1205   -7.2540 C   0  0  0  0  0  0  0  0  0  0  0  0
   -1.9722    0.5151   -7.7823 C   0  0  0  0  0  0  0  0  0  0  0  0
   -0.9689    1.0135   -6.9385 C   0  0  0  0  0  0  0  0  0  0  0  0
    0.3920    1.3307   -7.4962 C   0  0  0  0  0  0  0  0  0  0  0  0
    1.2823    0.0917   -7.4750 C   0  0  0  0  0  0  0  0  0  0  0  0
   -1.2128    1.1209   -5.5583 C   0  0  0  0  0  0  0  0  0  0  0  0
   -3.0255   -0.3535   -2.8285 C   0  0  0  0  0  0  0  0  0  0  0  0
   -2.6838   -1.9846   -3.1761 S   0  0  0  0  0  0  0  0  0  0  0  0
   -2.6983   -2.4012   -1.5324 C   0  0  0  0  0  0  0  0  0  0  0  0
   -1.9403   -3.2727   -0.7996 C   0  0  0  0  0  0  0  0  0  0  0  0
   -1.3165   -4.4592   -1.1904 C   0  0  0  0  0  0  0  0  0  0  0  0
   -0.4446   -5.1061   -0.2765 C   0  0  0  0  0  0  0  0  0  0  0  0
    0.1648   -6.2404   -0.7012 N   0  0  0  0  0  0  0  0  0  0  0  0
   -0.4784   -6.3488   -2.2215 S   0  0  0  0  0  0  0  0  0  0  0  0
   -1.4783   -5.0415   -2.4041 N   0  0  0  0  0  0  0  0  0  0  0  0
   -0.2061   -4.5072    0.9604 C   0  0  0  0  0  0  0  0  0  0  0  0
    0.7398   -4.7989    1.8961 C   0  0  0  0  0  0  0  0  0  0  0  0
    1.9979   -5.9180    2.1411 S   0  0  0  0  0  0  0  0  0  0  0  0
    2.5439   -5.0320    3.4944 C   0  0  0  0  0  0  0  0  0  0  0  0
    3.5199   -5.2674    4.4685 C   0  0  0  0  0  0  0  0  0  0  0  0
    4.4125   -6.4392    4.4760 C   0  0  0  0  0  0  0  0  0  0  0  0
    4.4047   -7.3368    5.5539 C   0  0  0  0  0  0  0  0  0  0  0  0
    5.2676   -8.4342    5.5589 C   0  0  0  0  0  0  0  0  0  0  0  0
    6.1518   -8.6373    4.4964 C   0  0  0  0  0  0  0  0  0  0  0  0
    6.1667   -7.7499    3.4087 C   0  0  0  0  0  0  0  0  0  0  0  0
    7.1694   -7.9272    2.3014 C   0  0  0  0  0  0  0  0  0  0  0  0
    8.5072   -7.2934    2.6802 C   0  0  0  0  0  0  0  0  0  0  0  0
    5.2934   -6.6504    3.4038 C   0  0  0  0  0  0  0  0  0  0  0  0
    3.4780   -4.2761    5.4651 C   0  0  0  0  0  0  0  0  0  0  0  0
    2.2675   -3.1324    5.0956 S   0  0  0  0  0  0  0  0  0  0  0  0
    1.7827   -3.9069    3.6963 C   0  0  0  0  0  0  0  0  0  0  0  0
    0.7513   -3.7810    2.7802 C   0  0  0  0  0  0  0  0  0  0  0  0
   -0.1522   -2.8113    2.4903 N   0  0  0  0  0  0  0  0  0  0  0  0
   -0.7847   -3.2777    1.3534 C   0  0  0  0  0  0  0  0  0  0  0  0
   -1.7296   -2.6675    0.4577 C   0  0  0  0  0  0  0  0  0  0  0  0
   -2.4068   -1.4713    0.5039 N   0  0  0  0  0  0  0  0  0  0  0  0
   -2.9257   -1.3257   -0.7372 C   0  0  0  0  0  0  0  0  0  0  0  0
   -3.1043   -0.1592   -1.4694 C   0  0  0  0  0  0  0  0  0  0  0  0
   -2.7188    1.4272   -1.1136 S   0  0  0  0  0  0  0  0  0  0  0  0
   -2.9306   -0.6963    1.6383 C   0  0  0  0  0  0  0  0  0  0  0  0
   -3.6413   -1.5976    2.6510 C   0  0  0  0  0  0  0  0  0  0  0  0
   -0.1109   -1.4731    3.0870 C   0  0  0  0  0  0  0  0  0  0  0  0
    0.5402   -0.4672    2.1406 C   0  0  0  0  0  0  0  0  0  0  0  0
    4.1786   -4.3182    6.7598 C   0  0  0  0  0  0  0  0  0  0  0  0
    3.5070   -4.4715    7.9099 C   0  0  0  0  0  0  0  0  0  0  0  0
    2.0660   -4.7704    7.9106 C   0  0  0  0  0  0  0  0  0  0  0  0
    1.1639   -3.8431    8.2411 C   0  0  0  0  0  0  0  0  0  0  0  0
   -0.2514   -4.0366    7.8650 C   0  0  0  0  0  0  0  0  0  0  0  0
   -1.1629   -3.0490    7.7333 C   0  0  0  0  0  0  0  0  0  0  0  0
   -0.8926   -1.6062    7.8441 C   0  0  0  0  0  0  0  0  0  0  0  0
    0.1394   -1.0618    8.3216 O   0  0  0  0  0  0  0  0  0  0  0  0
   -2.0172   -0.8813    7.3037 C   0  0  0  0  0  0  0  0  0  0  0  0
   -2.1532    0.4991    7.1758 C   0  0  0  0  0  0  0  0  0  0  0  0
   -3.3347    1.0053    6.6260 C   0  0  0  0  0  0  0  0  0  0  0  0
   -4.3678    0.1397    6.2259 C   0  0  0  0  0  0  0  0  0  0  0  0
   -5.5302    0.7111    5.6868 O   0  0  0  0  0  0  0  0  0  0  0  0
   -6.6768   -0.0255    5.2747 C   0  0  0  0  0  0  0  0  0  0  0  0
   -4.2058   -1.2579    6.3726 C   0  0  0  0  0  0  0  0  0  0  0  0
   -3.0022   -1.7645    6.8993 C   0  0  0  0  0  0  0  0  0  0  0  0
   -2.5567   -3.1682    7.1700 C   0  0  0  0  0  0  0  0  0  0  0  0
   -3.2913   -4.3026    6.9993 C   0  0  0  0  0  0  0  0  0  0  0  0
   -4.5184   -4.3338    6.2477 C   0  0  0  0  0  0  0  0  0  0  0  0
   -5.4936   -4.4060    5.6223 N   0  0  0  0  0  0  0  0  0  0  0  0
   -2.8619   -5.5960    7.4590 C   0  0  0  0  0  0  0  0  0  0  0  0
   -2.5114   -6.6424    7.8025 N   0  0  0  0  0  0  0  0  0  0  0  0
   -0.4918    7.7055   -4.2029 H   0  0  0  0  0  0  0  0  0  0  0  0
    4.1527   10.0884   -5.5133 H   0  0  0  0  0  0  0  0  0  0  0  0
    6.3920    9.3142   -6.2202 H   0  0  0  0  0  0  0  0  0  0  0  0
    8.1168    8.1930   -7.5529 H   0  0  0  0  0  0  0  0  0  0  0  0
    8.5581    8.0868   -5.7884 H   0  0  0  0  0  0  0  0  0  0  0  0
    9.1643    6.8510   -6.9530 H   0  0  0  0  0  0  0  0  0  0  0  0
    5.0858    5.2019   -5.8595 H   0  0  0  0  0  0  0  0  0  0  0  0
   -5.5647    2.0066   -6.1920 H   0  0  0  0  0  0  0  0  0  0  0  0
   -6.2824    3.0102   -4.8631 H   0  0  0  0  0  0  0  0  0  0  0  0
   -8.0519    2.1163   -6.3513 H   0  0  0  0  0  0  0  0  0  0  0  0
   -7.2641    2.8869   -7.7859 H   0  0  0  0  0  0  0  0  0  0  0  0
   -7.9674    3.9165   -6.4742 H   0  0  0  0  0  0  0  0  0  0  0  0
   -4.0276    5.8033   -8.2526 H   0  0  0  0  0  0  0  0  0  0  0  0
   -4.9218    6.8031   -7.0305 H   0  0  0  0  0  0  0  0  0  0  0  0
   -3.2441    7.2567   -7.5150 H   0  0  0  0  0  0  0  0  0  0  0  0
   -4.3872   -0.1188   -5.4824 H   0  0  0  0  0  0  0  0  0  0  0  0
   -3.9706   -0.2706   -7.9071 H   0  0  0  0  0  0  0  0  0  0  0  0
   -1.7963    0.4157   -8.8453 H   0  0  0  0  0  0  0  0  0  0  0  0
    0.3008    1.7000   -8.5406 H   0  0  0  0  0  0  0  0  0  0  0  0
    0.8683    2.1347   -6.9002 H   0  0  0  0  0  0  0  0  0  0  0  0
    1.4439   -0.2480   -6.4295 H   0  0  0  0  0  0  0  0  0  0  0  0
    2.2680    0.3336   -7.9284 H   0  0  0  0  0  0  0  0  0  0  0  0
    0.8141   -0.7305   -8.0567 H   0  0  0  0  0  0  0  0  0  0  0  0
   -0.4298    1.4691   -4.8980 H   0  0  0  0  0  0  0  0  0  0  0  0
    3.7278   -7.1917    6.3848 H   0  0  0  0  0  0  0  0  0  0  0  0
    5.2596   -9.1268    6.3922 H   0  0  0  0  0  0  0  0  0  0  0  0
    6.8309   -9.4808    4.5231 H   0  0  0  0  0  0  0  0  0  0  0  0
    6.7977   -7.4587    1.3622 H   0  0  0  0  0  0  0  0  0  0  0  0
    7.3234   -9.0101    2.0948 H   0  0  0  0  0  0  0  0  0  0  0  0
    8.3737   -6.2159    2.9167 H   0  0  0  0  0  0  0  0  0  0  0  0
    9.2185   -7.3832    1.8311 H   0  0  0  0  0  0  0  0  0  0  0  0
    8.9418   -7.8123    3.5609 H   0  0  0  0  0  0  0  0  0  0  0  0
    5.3162   -5.9463    2.5768 H   0  0  0  0  0  0  0  0  0  0  0  0
   -3.7032    0.0190    1.2774 H   0  0  0  0  0  0  0  0  0  0  0  0
   -2.1623   -0.0395    2.0712 H   0  0  0  0  0  0  0  0  0  0  0  0
   -4.5147   -2.0849    2.1695 H   0  0  0  0  0  0  0  0  0  0  0  0
   -2.9679   -2.3898    3.0391 H   0  0  0  0  0  0  0  0  0  0  0  0
   -4.0002   -0.9813    3.4996 H   0  0  0  0  0  0  0  0  0  0  0  0
   -1.1017   -1.1696    3.4510 H   0  0  0  0  0  0  0  0  0  0  0  0
    0.4827   -1.4795    4.0202 H   0  0  0  0  0  0  0  0  0  0  0  0
    1.6022   -0.7490    1.9693 H   0  0  0  0  0  0  0  0  0  0  0  0
    0.0216   -0.4445    1.1614 H   0  0  0  0  0  0  0  0  0  0  0  0
    0.5070    0.5477    2.5911 H   0  0  0  0  0  0  0  0  0  0  0  0
    5.2552   -4.2156    6.7754 H   0  0  0  0  0  0  0  0  0  0  0  0
    4.0369   -4.4315    8.8493 H   0  0  0  0  0  0  0  0  0  0  0  0
    1.7458   -5.6802    7.4108 H   0  0  0  0  0  0  0  0  0  0  0  0
    1.5124   -2.9260    8.6870 H   0  0  0  0  0  0  0  0  0  0  0  0
   -0.5018   -5.0308    7.5553 H   0  0  0  0  0  0  0  0  0  0  0  0
   -1.3644    1.1662    7.4899 H   0  0  0  0  0  0  0  0  0  0  0  0
   -3.4545    2.0768    6.5155 H   0  0  0  0  0  0  0  0  0  0  0  0
   -7.4517    0.6829    4.9087 H   0  0  0  0  0  0  0  0  0  0  0  0
   -7.0927   -0.5965    6.1322 H   0  0  0  0  0  0  0  0  0  0  0  0
   -6.4107   -0.7160    4.4472 H   0  0  0  0  0  0  0  0  0  0  0  0
   -5.0045   -1.9080    6.0794 H   0  0  0  0  0  0  0  0  0  0  0  0
  1  2  2  3
  2  3  1  0
  3  4  2  0
  3  5  1  0
  5  6  2  0
  6  7  1  0
  7  8  2  0
  8  9  1  0
  9 10  1  0
  8 11  1  0
 11 12  2  0
 12 13  1  0
 13 14  2  3
 14 15  1  0
 15 16  3  0
 14 17  1  0
 17 18  3  0
  1 19  1  0
 19 20  2  0
 20 21  1  0
 20 22  1  0
 22 23  1  0
 22 24  2  0
 24 25  1  0
 25 26  2  0
 26 27  1  0
 27 28  1  0
 28 29  1  0
 29 30  1  0
 27 31  2  0
 31 32  1  0
 32 33  2  0
 31 34  1  0
 24 35  1  0
 35 36  2  0
 36 37  1  0
 37 38  2  0
 38 39  1  0
 39 40  2  0
 40 41  1  0
 41 42  1  0
 42 43  1  0
 41 44  2  0
 36 45  1  0
 45 46  1  0
 46 47  1  0
 47 48  1  0
 48 49  1  0
 49 50  1  0
 50 51  2  0
 51 52  1  0
 52 53  1  0
 50 54  1  0
 54 55  1  0
 55 56  1  0
 56 57  1  0
 57 58  1  0
 58 59  1  0
 59 60  2  0
 60 61  1  0
 61 62  2  0
 62 63  1  0
 63 64  1  0
 64 65  1  0
 63 66  2  0
 58 67  2  0
 67 68  1  0
 68 69  1  0
 69 70  1  0
 70 71  1  0
 71 72  1  0
 72 73  1  0
 73 74  1  0
 74 75  1  0
 75 76  1  0
 76 77  1  0
 74 78  1  0
 78 79  1  0
 71 80  1  0
 80 81  1  0
 67 82  1  0
 82 83  2  3
 83 84  1  0
 84 85  2  3
 85 86  1  0
 86 87  2  3
 87 88  1  0
 88 89  2  0
 88 90  1  0
 90 91  2  0
 91 92  1  0
 92 93  2  0
 93 94  1  0
 94 95  1  0
 93 96  1  0
 96 97  2  0
 97 98  1  0
 98 99  2  3
 99100  1  0
100101  3  0
 99102  1  0
102103  3  0
 13  2  1  0
 33 19  1  0
 77 35  1  0
 98 87  1  0
 12  5  1  0
 33 25  1  0
 44 37  1  0
 76 45  2  0
 97 90  1  0
 75 47  2  0
 73 48  2  0
 53 49  2  0
 72 54  2  0
 70 55  2  0
 69 57  2  0
 66 59  1  0
  1104  1  0
  6105  1  0
  7106  1  0
 10107  1  0
 10108  1  0
 10109  1  0
 11110  1  0
 29111  1  0
 29112  1  0
 30113  1  0
 30114  1  0
 30115  1  0
 34116  1  0
 34117  1  0
 34118  1  0
 38119  1  0
 39120  1  0
 40121  1  0
 42122  1  0
 42123  1  0
 43124  1  0
 43125  1  0
 43126  1  0
 44127  1  0
 60128  1  0
 61129  1  0
 62130  1  0
 64131  1  0
 64132  1  0
 65133  1  0
 65134  1  0
 65135  1  0
 66136  1  0
 78137  1  0
 78138  1  0
 79139  1  0
 79140  1  0
 79141  1  0
 80142  1  0
 80143  1  0
 81144  1  0
 81145  1  0
 81146  1  0
 82147  1  0
 83148  1  0
 84149  1  0
 85150  1  0
 86151  1  0
 91152  1  0
 92153  1  0
 95154  1  0
 95155  1  0
 95156  1  0
 96157  1  0
M  END

