
     RDKit          3D

211233  0  0  0  0  0  0  0  0999 V2000
    4.4271   -5.6904   -6.9014 C   0  0  0  0  0  0  0  0  0  0  0  0
    5.2653   -6.2494   -6.0061 C   0  0  0  0  0  0  0  0  0  0  0  0
    4.8647   -6.8966   -4.7437 C   0  0  0  0  0  0  0  0  0  0  0  0
    3.7183   -6.8871   -4.2207 O   0  0  0  0  0  0  0  0  0  0  0  0
    5.9817   -7.6869   -4.2688 C   0  0  0  0  0  0  0  0  0  0  0  0
    6.0046   -8.5731   -3.1924 C   0  0  0  0  0  0  0  0  0  0  0  0
    7.1517   -9.3491   -2.9859 C   0  0  0  0  0  0  0  0  0  0  0  0
    8.2445   -9.2614   -3.8838 C   0  0  0  0  0  0  0  0  0  0  0  0
    9.3892  -10.0604   -3.7499 O   0  0  0  0  0  0  0  0  0  0  0  0
    9.5579  -11.0501   -2.7417 C   0  0  0  0  0  0  0  0  0  0  0  0
    8.1868   -8.3620   -4.9613 C   0  0  0  0  0  0  0  0  0  0  0  0
    7.0518   -7.5479   -5.1325 C   0  0  0  0  0  0  0  0  0  0  0  0
    6.7128   -6.5726   -6.2060 C   0  0  0  0  0  0  0  0  0  0  0  0
    7.5903   -5.9404   -7.0274 C   0  0  0  0  0  0  0  0  0  0  0  0
    7.1888   -4.8742   -7.9134 C   0  0  0  0  0  0  0  0  0  0  0  0
    6.8688   -4.0220   -8.6270 N   0  0  0  0  0  0  0  0  0  0  0  0
    9.0100   -6.1729   -6.9679 C   0  0  0  0  0  0  0  0  0  0  0  0
   10.1530   -6.3356   -6.9181 N   0  0  0  0  0  0  0  0  0  0  0  0
    3.0071   -5.4136   -6.6156 C   0  0  0  0  0  0  0  0  0  0  0  0
    2.6438   -4.5811   -5.5327 C   0  0  0  0  0  0  0  0  0  0  0  0
    1.2898   -4.4036   -5.2665 C   0  0  0  0  0  0  0  0  0  0  0  0
    0.6358   -3.7248   -4.1513 C   0  0  0  0  0  0  0  0  0  0  0  0
    1.1920   -3.0637   -3.2357 O   0  0  0  0  0  0  0  0  0  0  0  0
   -0.7911   -3.9977   -4.2845 C   0  0  0  0  0  0  0  0  0  0  0  0
   -0.9868   -4.7646   -5.4160 C   0  0  0  0  0  0  0  0  0  0  0  0
    0.3149   -5.0158   -6.0345 C   0  0  0  0  0  0  0  0  0  0  0  0
    0.6453   -5.7922   -7.1437 C   0  0  0  0  0  0  0  0  0  0  0  0
    2.0050   -5.9786   -7.4411 C   0  0  0  0  0  0  0  0  0  0  0  0
   -2.2478   -5.2502   -5.7503 C   0  0  0  0  0  0  0  0  0  0  0  0
   -3.3263   -4.9429   -4.9056 C   0  0  0  0  0  0  0  0  0  0  0  0
   -3.1465   -4.1387   -3.7447 C   0  0  0  0  0  0  0  0  0  0  0  0
   -1.8434   -3.6720   -3.4333 C   0  0  0  0  0  0  0  0  0  0  0  0
   -4.2814   -3.7603   -2.8514 C   0  0  0  0  0  0  0  0  0  0  0  0
   -5.6040   -3.4123   -3.2295 C   0  0  0  0  0  0  0  0  0  0  0  0
   -6.2893   -3.7450   -4.4852 C   0  0  0  0  0  0  0  0  0  0  0  0
   -6.7652   -5.0528   -4.6758 C   0  0  0  0  0  0  0  0  0  0  0  0
   -7.5437   -5.3592   -5.7919 C   0  0  0  0  0  0  0  0  0  0  0  0
   -7.8994   -4.3585   -6.6953 C   0  0  0  0  0  0  0  0  0  0  0  0
   -7.4615   -3.0416   -6.4960 C   0  0  0  0  0  0  0  0  0  0  0  0
   -7.9704   -1.9427   -7.3879 C   0  0  0  0  0  0  0  0  0  0  0  0
   -9.3351   -1.4585   -6.9122 C   0  0  0  0  0  0  0  0  0  0  0  0
   -6.6517   -2.7385   -5.3910 C   0  0  0  0  0  0  0  0  0  0  0  0
   -6.2656   -2.7441   -2.1957 C   0  0  0  0  0  0  0  0  0  0  0  0
   -7.5851   -1.6693   -2.2257 S   0  0  0  0  0  0  0  0  0  0  0  0
   -7.2727   -1.1547   -0.6372 C   0  0  0  0  0  0  0  0  0  0  0  0
   -7.4277    0.0350    0.0287 C   0  0  0  0  0  0  0  0  0  0  0  0
   -7.9516    1.2535   -0.4350 C   0  0  0  0  0  0  0  0  0  0  0  0
   -7.5877    2.4619    0.2397 C   0  0  0  0  0  0  0  0  0  0  0  0
   -8.0338    3.6253   -0.2959 N   0  0  0  0  0  0  0  0  0  0  0  0
   -8.8506    3.0311   -1.6100 S   0  0  0  0  0  0  0  0  0  0  0  0
   -8.6914    1.3815   -1.5676 N   0  0  0  0  0  0  0  0  0  0  0  0
   -6.8023    2.3803    1.3960 C   0  0  0  0  0  0  0  0  0  0  0  0
   -6.2346    3.3449    2.1983 C   0  0  0  0  0  0  0  0  0  0  0  0
   -5.4956    4.8181    1.7926 S   0  0  0  0  0  0  0  0  0  0  0  0
   -4.2145    4.5789    2.8897 C   0  0  0  0  0  0  0  0  0  0  0  0
   -2.8836    5.0434    2.8602 C   0  0  0  0  0  0  0  0  0  0  0  0
   -2.4397    6.3058    2.2400 C   0  0  0  0  0  0  0  0  0  0  0  0
   -2.8001    6.6466    0.9254 C   0  0  0  0  0  0  0  0  0  0  0  0
   -2.3711    7.8557    0.3735 C   0  0  0  0  0  0  0  0  0  0  0  0
   -1.5945    8.7364    1.1280 C   0  0  0  0  0  0  0  0  0  0  0  0
   -1.2488    8.4217    2.4484 C   0  0  0  0  0  0  0  0  0  0  0  0
   -0.4468    9.3830    3.2811 C   0  0  0  0  0  0  0  0  0  0  0  0
    1.0426    9.0630    3.2228 C   0  0  0  0  0  0  0  0  0  0  0  0
   -1.6541    7.1928    2.9906 C   0  0  0  0  0  0  0  0  0  0  0  0
   -2.0130    4.1239    3.4877 C   0  0  0  0  0  0  0  0  0  0  0  0
   -2.9053    2.8005    4.0496 S   0  0  0  0  0  0  0  0  0  0  0  0
   -4.3827    3.3761    3.5425 C   0  0  0  0  0  0  0  0  0  0  0  0
   -5.4999    2.6680    3.1382 C   0  0  0  0  0  0  0  0  0  0  0  0
   -5.5827    1.3247    2.9914 N   0  0  0  0  0  0  0  0  0  0  0  0
   -6.3231    1.1562    1.8684 C   0  0  0  0  0  0  0  0  0  0  0  0
   -6.5062   -0.0126    1.0897 C   0  0  0  0  0  0  0  0  0  0  0  0
   -5.6704   -1.0956    0.9602 N   0  0  0  0  0  0  0  0  0  0  0  0
   -6.1760   -1.7723   -0.1020 C   0  0  0  0  0  0  0  0  0  0  0  0
   -5.5815   -2.6410   -1.0152 C   0  0  0  0  0  0  0  0  0  0  0  0
   -4.0514   -3.2772   -1.2280 S   0  0  0  0  0  0  0  0  0  0  0  0
   -4.2918   -1.2433    1.4560 C   0  0  0  0  0  0  0  0  0  0  0  0
   -4.1076   -2.5659    2.2066 C   0  0  0  0  0  0  0  0  0  0  0  0
   -5.5147    0.3948    4.1275 C   0  0  0  0  0  0  0  0  0  0  0  0
   -6.7287    0.5568    5.0417 C   0  0  0  0  0  0  0  0  0  0  0  0
   -0.5676    3.9639    3.2735 C   0  0  0  0  0  0  0  0  0  0  0  0
    0.0019    3.6478    2.0159 C   0  0  0  0  0  0  0  0  0  0  0  0
   -0.4830    4.0871    0.7366 N   0  0  0  0  0  0  0  0  0  0  0  0
    0.0942    5.2838    0.1412 C   0  0  0  0  0  0  0  0  0  0  0  0
   -0.3110    5.7290   -1.1335 C   0  0  0  0  0  0  0  0  0  0  0  0
    0.2383    6.8893   -1.6988 C   0  0  0  0  0  0  0  0  0  0  0  0
    1.1793    7.6440   -0.9918 C   0  0  0  0  0  0  0  0  0  0  0  0
    1.7611    8.8930   -1.5765 C   0  0  0  0  0  0  0  0  0  0  0  0
    1.6151    7.1936    0.2596 C   0  0  0  0  0  0  0  0  0  0  0  0
    1.0776    6.0363    0.8255 C   0  0  0  0  0  0  0  0  0  0  0  0
   -1.1231    3.0947   -0.0897 C   0  0  0  0  0  0  0  0  0  0  0  0
   -2.4516    2.7168    0.1462 C   0  0  0  0  0  0  0  0  0  0  0  0
   -3.0738    1.7586   -0.6545 C   0  0  0  0  0  0  0  0  0  0  0  0
   -2.3621    1.1339   -1.6880 C   0  0  0  0  0  0  0  0  0  0  0  0
   -3.0272    0.1219   -2.5668 C   0  0  0  0  0  0  0  0  0  0  0  0
   -1.0328    1.5096   -1.9318 C   0  0  0  0  0  0  0  0  0  0  0  0
   -0.4194    2.4844   -1.1402 C   0  0  0  0  0  0  0  0  0  0  0  0
    1.1390    2.8588    2.1483 C   0  0  0  0  0  0  0  0  0  0  0  0
    2.1358    2.0562    1.0707 S   0  0  0  0  0  0  0  0  0  0  0  0
    2.9579    1.1876    2.2757 C   0  0  0  0  0  0  0  0  0  0  0  0
    2.5178    1.6157    3.5432 C   0  0  0  0  0  0  0  0  0  0  0  0
    3.2756    1.4609    4.7508 N   0  0  0  0  0  0  0  0  0  0  0  0
    3.3385    0.1792    5.4001 C   0  0  0  0  0  0  0  0  0  0  0  0
    4.5749   -0.3600    5.7862 C   0  0  0  0  0  0  0  0  0  0  0  0
    4.6417   -1.6219    6.3783 C   0  0  0  0  0  0  0  0  0  0  0  0
    3.4690   -2.3557    6.6215 C   0  0  0  0  0  0  0  0  0  0  0  0
    3.5558   -3.7129    7.2465 C   0  0  0  0  0  0  0  0  0  0  0  0
    2.2309   -1.8177    6.2351 C   0  0  0  0  0  0  0  0  0  0  0  0
    2.1670   -0.5597    5.6282 C   0  0  0  0  0  0  0  0  0  0  0  0
    3.9814    2.6060    5.2785 C   0  0  0  0  0  0  0  0  0  0  0  0
    4.6106    3.5113    4.4036 C   0  0  0  0  0  0  0  0  0  0  0  0
    5.2246    4.6641    4.8969 C   0  0  0  0  0  0  0  0  0  0  0  0
    5.2326    4.9273    6.2755 C   0  0  0  0  0  0  0  0  0  0  0  0
    5.8440    6.1948    6.7879 C   0  0  0  0  0  0  0  0  0  0  0  0
    4.6074    4.0276    7.1537 C   0  0  0  0  0  0  0  0  0  0  0  0
    3.9906    2.8698    6.6584 C   0  0  0  0  0  0  0  0  0  0  0  0
    1.4834    2.5400    3.4169 C   0  0  0  0  0  0  0  0  0  0  0  0
    0.4061    3.2419    4.4824 S   0  0  0  0  0  0  0  0  0  0  0  0
    4.0733    0.2783    1.9947 C   0  0  0  0  0  0  0  0  0  0  0  0
    4.0587   -1.0484    2.2146 C   0  0  0  0  0  0  0  0  0  0  0  0
    5.2905   -1.8332    2.2845 C   0  0  0  0  0  0  0  0  0  0  0  0
    6.4304   -1.4589    1.8997 O   0  0  0  0  0  0  0  0  0  0  0  0
    4.9956   -3.0974    2.9160 C   0  0  0  0  0  0  0  0  0  0  0  0
    5.8711   -4.1510    3.1711 C   0  0  0  0  0  0  0  0  0  0  0  0
    5.3573   -5.3267    3.7288 C   0  0  0  0  0  0  0  0  0  0  0  0
    3.9931   -5.4343    4.0412 C   0  0  0  0  0  0  0  0  0  0  0  0
    3.5368   -6.6396    4.5978 O   0  0  0  0  0  0  0  0  0  0  0  0
    2.1759   -6.9321    4.9044 C   0  0  0  0  0  0  0  0  0  0  0  0
    3.1269   -4.3451    3.7841 C   0  0  0  0  0  0  0  0  0  0  0  0
    3.6461   -3.1695    3.2100 C   0  0  0  0  0  0  0  0  0  0  0  0
    2.9613   -1.9362    2.7145 C   0  0  0  0  0  0  0  0  0  0  0  0
    1.6398   -1.8410    2.4311 C   0  0  0  0  0  0  0  0  0  0  0  0
    1.1534   -1.1105    1.2923 C   0  0  0  0  0  0  0  0  0  0  0  0
    0.7389   -0.5614    0.3622 N   0  0  0  0  0  0  0  0  0  0  0  0
    0.6429   -2.6349    3.0977 C   0  0  0  0  0  0  0  0  0  0  0  0
   -0.1733   -3.2614    3.6328 N   0  0  0  0  0  0  0  0  0  0  0  0
    4.7552   -5.5169   -7.9133 H   0  0  0  0  0  0  0  0  0  0  0  0
    5.1443   -8.6816   -2.5441 H   0  0  0  0  0  0  0  0  0  0  0  0
    7.1672  -10.0353   -2.1455 H   0  0  0  0  0  0  0  0  0  0  0  0
   10.5419  -11.5447   -2.8791 H   0  0  0  0  0  0  0  0  0  0  0  0
    8.7604  -11.8160   -2.8210 H   0  0  0  0  0  0  0  0  0  0  0  0
    9.5341  -10.5822   -1.7355 H   0  0  0  0  0  0  0  0  0  0  0  0
    8.9976   -8.3525   -5.6719 H   0  0  0  0  0  0  0  0  0  0  0  0
    3.3959   -4.1211   -4.9023 H   0  0  0  0  0  0  0  0  0  0  0  0
   -0.1241   -6.2644   -7.7407 H   0  0  0  0  0  0  0  0  0  0  0  0
    2.2780   -6.6011   -8.2847 H   0  0  0  0  0  0  0  0  0  0  0  0
   -2.3865   -5.8826   -6.6177 H   0  0  0  0  0  0  0  0  0  0  0  0
   -4.2829   -5.3677   -5.1491 H   0  0  0  0  0  0  0  0  0  0  0  0
   -1.6402   -3.0791   -2.5498 H   0  0  0  0  0  0  0  0  0  0  0  0
   -6.5355   -5.8311   -3.9603 H   0  0  0  0  0  0  0  0  0  0  0  0
   -7.9029   -6.3697   -5.9358 H   0  0  0  0  0  0  0  0  0  0  0  0
   -8.5401   -4.6054   -7.5324 H   0  0  0  0  0  0  0  0  0  0  0  0
   -7.2644   -1.0866   -7.3963 H   0  0  0  0  0  0  0  0  0  0  0  0
   -8.0587   -2.3083   -8.4347 H   0  0  0  0  0  0  0  0  0  0  0  0
   -9.7048   -0.6582   -7.5827 H   0  0  0  0  0  0  0  0  0  0  0  0
   -9.2643   -1.0555   -5.8814 H   0  0  0  0  0  0  0  0  0  0  0  0
  -10.0700   -2.2908   -6.9214 H   0  0  0  0  0  0  0  0  0  0  0  0
   -6.3410   -1.7179   -5.2104 H   0  0  0  0  0  0  0  0  0  0  0  0
   -3.3811    5.9683    0.3182 H   0  0  0  0  0  0  0  0  0  0  0  0
   -2.6334    8.1058   -0.6441 H   0  0  0  0  0  0  0  0  0  0  0  0
   -1.2736    9.6732    0.6848 H   0  0  0  0  0  0  0  0  0  0  0  0
   -0.6054   10.4254    2.9276 H   0  0  0  0  0  0  0  0  0  0  0  0
   -0.7850    9.3417    4.3415 H   0  0  0  0  0  0  0  0  0  0  0  0
    1.4366    9.3059    2.2149 H   0  0  0  0  0  0  0  0  0  0  0  0
    1.2312    7.9941    3.4594 H   0  0  0  0  0  0  0  0  0  0  0  0
    1.5866    9.6860    3.9617 H   0  0  0  0  0  0  0  0  0  0  0  0
   -1.3804    6.9393    4.0090 H   0  0  0  0  0  0  0  0  0  0  0  0
   -3.5903   -1.2097    0.5959 H   0  0  0  0  0  0  0  0  0  0  0  0
   -3.9901   -0.4019    2.1031 H   0  0  0  0  0  0  0  0  0  0  0  0
   -4.3749   -3.4254    1.5656 H   0  0  0  0  0  0  0  0  0  0  0  0
   -4.7453   -2.6142    3.1092 H   0  0  0  0  0  0  0  0  0  0  0  0
   -3.0499   -2.6768    2.5149 H   0  0  0  0  0  0  0  0  0  0  0  0
   -5.5076   -0.6505    3.7808 H   0  0  0  0  0  0  0  0  0  0  0  0
   -4.5885    0.5813    4.7133 H   0  0  0  0  0  0  0  0  0  0  0  0
   -6.9299    1.6340    5.2473 H   0  0  0  0  0  0  0  0  0  0  0  0
   -6.5496    0.0398    6.0079 H   0  0  0  0  0  0  0  0  0  0  0  0
   -7.6254    0.1185    4.5515 H   0  0  0  0  0  0  0  0  0  0  0  0
   -1.0653    5.1928   -1.6931 H   0  0  0  0  0  0  0  0  0  0  0  0
   -0.0930    7.2033   -2.6822 H   0  0  0  0  0  0  0  0  0  0  0  0
    1.2058    9.2076   -2.4867 H   0  0  0  0  0  0  0  0  0  0  0  0
    1.7113    9.7184   -0.8381 H   0  0  0  0  0  0  0  0  0  0  0  0
    2.8200    8.7165   -1.8487 H   0  0  0  0  0  0  0  0  0  0  0  0
    2.3798    7.7367    0.7961 H   0  0  0  0  0  0  0  0  0  0  0  0
    1.4407    5.7361    1.7981 H   0  0  0  0  0  0  0  0  0  0  0  0
   -3.0146    3.1834    0.9279 H   0  0  0  0  0  0  0  0  0  0  0  0
   -4.1099    1.5058   -0.4679 H   0  0  0  0  0  0  0  0  0  0  0  0
   -3.9653   -0.2604   -2.1126 H   0  0  0  0  0  0  0  0  0  0  0  0
   -3.2659    0.5810   -3.5477 H   0  0  0  0  0  0  0  0  0  0  0  0
   -2.3453   -0.7381   -2.7397 H   0  0  0  0  0  0  0  0  0  0  0  0
   -0.4744    1.0496   -2.7358 H   0  0  0  0  0  0  0  0  0  0  0  0
    0.6026    2.7676   -1.3513 H   0  0  0  0  0  0  0  0  0  0  0  0
    5.4901    0.1898    5.5977 H   0  0  0  0  0  0  0  0  0  0  0  0
    5.6087   -2.0363    6.6385 H   0  0  0  0  0  0  0  0  0  0  0  0
    3.9357   -4.4418    6.5064 H   0  0  0  0  0  0  0  0  0  0  0  0
    2.5616   -4.0557    7.6109 H   0  0  0  0  0  0  0  0  0  0  0  0
    4.2568   -3.6975    8.1093 H   0  0  0  0  0  0  0  0  0  0  0  0
    1.3196   -2.3822    6.3882 H   0  0  0  0  0  0  0  0  0  0  0  0
    1.2013   -0.1624    5.3382 H   0  0  0  0  0  0  0  0  0  0  0  0
    4.6135    3.3317    3.3367 H   0  0  0  0  0  0  0  0  0  0  0  0
    5.6864    5.3550    4.2017 H   0  0  0  0  0  0  0  0  0  0  0  0
    6.8274    6.3720    6.2945 H   0  0  0  0  0  0  0  0  0  0  0  0
    6.0159    6.1490    7.8847 H   0  0  0  0  0  0  0  0  0  0  0  0
    5.1683    7.0483    6.5660 H   0  0  0  0  0  0  0  0  0  0  0  0
    4.5810    4.2330    8.2153 H   0  0  0  0  0  0  0  0  0  0  0  0
    3.4932    2.2027    7.3512 H   0  0  0  0  0  0  0  0  0  0  0  0
    4.9932    0.7458    1.6610 H   0  0  0  0  0  0  0  0  0  0  0  0
    6.9187   -4.0739    2.9278 H   0  0  0  0  0  0  0  0  0  0  0  0
    6.0219   -6.1604    3.9229 H   0  0  0  0  0  0  0  0  0  0  0  0
    1.5462   -6.8342    3.9925 H   0  0  0  0  0  0  0  0  0  0  0  0
    1.8154   -6.2470    5.7005 H   0  0  0  0  0  0  0  0  0  0  0  0
    2.1050   -7.9783    5.2723 H   0  0  0  0  0  0  0  0  0  0  0  0
    2.0937   -4.4266    4.0516 H   0  0  0  0  0  0  0  0  0  0  0  0
  1  2  2  3
  2  3  1  0
  3  4  2  0
  3  5  1  0
  5  6  2  0
  6  7  1  0
  7  8  2  0
  8  9  1  0
  9 10  1  0
  8 11  1  0
 11 12  2  0
 12 13  1  0
 13 14  2  3
 14 15  1  0
 15 16  3  0
 14 17  1  0
 17 18  3  0
  1 19  1  0
 19 20  2  0
 20 21  1  0
 21 22  1  0
 22 23  2  0
 22 24  1  0
 24 25  2  0
 25 26  1  0
 26 27  1  0
 27 28  2  0
 25 29  1  0
 29 30  2  0
 30 31  1  0
 31 32  2  0
 31 33  1  0
 33 34  2  0
 34 35  1  0
 35 36  2  0
 36 37  1  0
 37 38  2  0
 38 39  1  0
 39 40  1  0
 40 41  1  0
 39 42  2  0
 34 43  1  0
 43 44  1  0
 44 45  1  0
 45 46  1  0
 46 47  1  0
 47 48  1  0
 48 49  2  0
 49 50  1  0
 50 51  1  0
 48 52  1  0
 52 53  1  0
 53 54  1  0
 54 55  1  0
 55 56  1  0
 56 57  1  0
 57 58  2  0
 58 59  1  0
 59 60  2  0
 60 61  1  0
 61 62  1  0
 62 63  1  0
 61 64  2  0
 56 65  2  0
 65 66  1  0
 66 67  1  0
 67 68  1  0
 68 69  1  0
 69 70  1  0
 70 71  1  0
 71 72  1  0
 72 73  1  0
 73 74  1  0
 74 75  1  0
 72 76  1  0
 76 77  1  0
 69 78  1  0
 78 79  1  0
 65 80  1  0
 80 81  2  0
 81 82  1  0
 82 83  1  0
 83 84  2  0
 84 85  1  0
 85 86  2  0
 86 87  1  0
 86 88  1  0
 88 89  2  0
 82 90  1  0
 90 91  2  0
 91 92  1  0
 92 93  2  0
 93 94  1  0
 93 95  1  0
 95 96  2  0
 81 97  1  0
 97 98  1  0
 98 99  1  0
 99100  2  0
100101  1  0
101102  1  0
102103  2  0
103104  1  0
104105  2  0
105106  1  0
105107  1  0
107108  2  0
101109  1  0
109110  2  0
110111  1  0
111112  2  0
112113  1  0
112114  1  0
114115  2  0
100116  1  0
116117  1  0
 99118  1  0
118119  2  3
119120  1  0
120121  2  0
120122  1  0
122123  2  0
123124  1  0
124125  2  0
125126  1  0
126127  1  0
125128  1  0
128129  2  0
129130  1  0
130131  2  3
131132  1  0
132133  3  0
131134  1  0
134135  3  0
 13  2  1  0
 28 19  1  0
 75 33  1  0
117 80  1  0
130119  1  0
 12  5  1  0
 26 21  2  0
 42 35  1  0
 74 43  2  0
 89 83  1  0
 96 90  1  0
116 97  2  0
129122  1  0
 32 24  1  0
 73 45  2  0
108102  1  0
115109  1  0
 71 46  2  0
 51 47  2  0
 70 52  2  0
 68 53  2  0
 67 55  2  0
 64 57  1  0
  1136  1  0
  6137  1  0
  7138  1  0
 10139  1  0
 10140  1  0
 10141  1  0
 11142  1  0
 20143  1  0
 27144  1  0
 28145  1  0
 29146  1  0
 30147  1  0
 32148  1  0
 36149  1  0
 37150  1  0
 38151  1  0
 40152  1  0
 40153  1  0
 41154  1  0
 41155  1  0
 41156  1  0
 42157  1  0
 58158  1  0
 59159  1  0
 60160  1  0
 62161  1  0
 62162  1  0
 63163  1  0
 63164  1  0
 63165  1  0
 64166  1  0
 76167  1  0
 76168  1  0
 77169  1  0
 77170  1  0
 77171  1  0
 78172  1  0
 78173  1  0
 79174  1  0
 79175  1  0
 79176  1  0
 84177  1  0
 85178  1  0
 87179  1  0
 87180  1  0
 87181  1  0
 88182  1  0
 89183  1  0
 91184  1  0
 92185  1  0
 94186  1  0
 94187  1  0
 94188  1  0
 95189  1  0
 96190  1  0
103191  1  0
104192  1  0
106193  1  0
106194  1  0
106195  1  0
107196  1  0
108197  1  0
110198  1  0
111199  1  0
113200  1  0
113201  1  0
113202  1  0
114203  1  0
115204  1  0
118205  1  0
123206  1  0
124207  1  0
127208  1  0
127209  1  0
127210  1  0
128211  1  0
M  END

