
     RDKit          3D

151166  0  0  0  0  0  0  0  0999 V2000
   -8.1540   -5.1931   -1.4824 C   0  0  0  0  0  0  0  0  0  0  0  0
   -8.2639   -3.9635   -2.0345 C   0  0  0  0  0  0  0  0  0  0  0  0
   -7.4509   -2.7924   -1.6717 C   0  0  0  0  0  0  0  0  0  0  0  0
   -6.7823   -2.6339   -0.6166 O   0  0  0  0  0  0  0  0  0  0  0  0
   -7.5243   -1.8358   -2.7503 C   0  0  0  0  0  0  0  0  0  0  0  0
   -6.7607   -0.6837   -2.9191 C   0  0  0  0  0  0  0  0  0  0  0  0
   -6.8630    0.0104   -4.1277 C   0  0  0  0  0  0  0  0  0  0  0  0
   -7.7083   -0.4649   -5.1604 C   0  0  0  0  0  0  0  0  0  0  0  0
   -7.7922    0.1747   -6.4065 O   0  0  0  0  0  0  0  0  0  0  0  0
   -6.9660    1.2662   -6.8029 C   0  0  0  0  0  0  0  0  0  0  0  0
   -8.4812   -1.6258   -4.9520 C   0  0  0  0  0  0  0  0  0  0  0  0
   -8.3958   -2.2990   -3.7213 C   0  0  0  0  0  0  0  0  0  0  0  0
   -9.0009   -3.5862   -3.2792 C   0  0  0  0  0  0  0  0  0  0  0  0
  -10.1225   -4.1663   -3.7769 C   0  0  0  0  0  0  0  0  0  0  0  0
  -10.7229   -5.3288   -3.1789 C   0  0  0  0  0  0  0  0  0  0  0  0
  -11.2136   -6.2630   -2.7052 N   0  0  0  0  0  0  0  0  0  0  0  0
  -10.8725   -3.5853   -4.8623 C   0  0  0  0  0  0  0  0  0  0  0  0
  -11.4859   -3.1259   -5.7282 N   0  0  0  0  0  0  0  0  0  0  0  0
   -7.1706   -5.4733   -0.4258 C   0  0  0  0  0  0  0  0  0  0  0  0
   -7.3514   -5.1760    0.9180 C   0  0  0  0  0  0  0  0  0  0  0  0
   -6.1455   -5.0597    1.6337 C   0  0  0  0  0  0  0  0  0  0  0  0
   -6.1277   -4.5080    3.0027 C   0  0  0  0  0  0  0  0  0  0  0  0
   -7.0831   -4.7460    3.7873 O   0  0  0  0  0  0  0  0  0  0  0  0
   -5.0613   -3.7021    3.4174 O   0  0  0  0  0  0  0  0  0  0  0  0
   -5.0208   -3.0654    4.6875 C   0  0  0  0  0  0  0  0  0  0  0  0
   -5.0141   -5.3116    0.8427 C   0  0  0  0  0  0  0  0  0  0  0  0
   -5.5283   -5.6134   -0.7261 S   0  0  0  0  0  0  0  0  0  0  0  0
   -3.5942   -5.0874    1.1899 C   0  0  0  0  0  0  0  0  0  0  0  0
   -2.9411   -5.4486    2.3897 C   0  0  0  0  0  0  0  0  0  0  0  0
   -3.5016   -6.3705    3.4114 C   0  0  0  0  0  0  0  0  0  0  0  0
   -4.2038   -7.5206    3.0120 C   0  0  0  0  0  0  0  0  0  0  0  0
   -4.7537   -8.3804    3.9642 C   0  0  0  0  0  0  0  0  0  0  0  0
   -4.6044   -8.1122    5.3256 C   0  0  0  0  0  0  0  0  0  0  0  0
   -3.9167   -6.9633    5.7436 C   0  0  0  0  0  0  0  0  0  0  0  0
   -3.7565   -6.6623    7.2101 C   0  0  0  0  0  0  0  0  0  0  0  0
   -2.3757   -7.0964    7.6991 C   0  0  0  0  0  0  0  0  0  0  0  0
   -3.3618   -6.0999    4.7844 C   0  0  0  0  0  0  0  0  0  0  0  0
   -1.6762   -4.8445    2.4588 C   0  0  0  0  0  0  0  0  0  0  0  0
   -0.5052   -4.6637    3.6924 S   0  0  0  0  0  0  0  0  0  0  0  0
    0.4072   -3.6088    2.7147 C   0  0  0  0  0  0  0  0  0  0  0  0
    1.4945   -2.7861    2.7840 C   0  0  0  0  0  0  0  0  0  0  0  0
    2.3867   -2.5546    3.8324 C   0  0  0  0  0  0  0  0  0  0  0  0
    3.3934   -1.5680    3.6679 C   0  0  0  0  0  0  0  0  0  0  0  0
    4.2227   -1.3490    4.7184 N   0  0  0  0  0  0  0  0  0  0  0  0
    3.6148   -2.4568    5.7896 S   0  0  0  0  0  0  0  0  0  0  0  0
    2.3446   -3.1968    5.0255 N   0  0  0  0  0  0  0  0  0  0  0  0
    3.4522   -0.8617    2.4648 C   0  0  0  0  0  0  0  0  0  0  0  0
    4.1496    0.2749    2.1620 C   0  0  0  0  0  0  0  0  0  0  0  0
    5.0406    1.4576    3.0043 S   0  0  0  0  0  0  0  0  0  0  0  0
    4.8239    2.5878    1.7415 C   0  0  0  0  0  0  0  0  0  0  0  0
    5.1032    3.9547    1.5968 C   0  0  0  0  0  0  0  0  0  0  0  0
    5.8434    4.7726    2.5869 C   0  0  0  0  0  0  0  0  0  0  0  0
    5.3844    6.0557    2.9341 C   0  0  0  0  0  0  0  0  0  0  0  0
    6.0838    6.8282    3.8632 C   0  0  0  0  0  0  0  0  0  0  0  0
    7.2449    6.3297    4.4581 C   0  0  0  0  0  0  0  0  0  0  0  0
    7.7222    5.0549    4.1189 C   0  0  0  0  0  0  0  0  0  0  0  0
    8.9570    4.5104    4.7796 C   0  0  0  0  0  0  0  0  0  0  0  0
    8.6021    3.8138    6.0887 C   0  0  0  0  0  0  0  0  0  0  0  0
    7.0122    4.2751    3.1911 C   0  0  0  0  0  0  0  0  0  0  0  0
    4.4776    4.4547    0.4369 C   0  0  0  0  0  0  0  0  0  0  0  0
    3.6155    3.2240   -0.3509 S   0  0  0  0  0  0  0  0  0  0  0  0
    4.0408    2.0462    0.7499 C   0  0  0  0  0  0  0  0  0  0  0  0
    3.6670    0.7302    0.9873 C   0  0  0  0  0  0  0  0  0  0  0  0
    2.6992   -0.0608    0.4659 N   0  0  0  0  0  0  0  0  0  0  0  0
    2.5523   -1.0762    1.3916 C   0  0  0  0  0  0  0  0  0  0  0  0
    1.5567   -2.1048    1.5455 C   0  0  0  0  0  0  0  0  0  0  0  0
    0.5554   -2.5659    0.7149 N   0  0  0  0  0  0  0  0  0  0  0  0
   -0.1346   -3.4298    1.4970 C   0  0  0  0  0  0  0  0  0  0  0  0
   -1.3261   -4.1200    1.3469 C   0  0  0  0  0  0  0  0  0  0  0  0
   -2.5793   -4.0994    0.2428 S   0  0  0  0  0  0  0  0  0  0  0  0
    0.4833   -2.6270   -0.7511 C   0  0  0  0  0  0  0  0  0  0  0  0
    1.7659   -3.2022   -1.3521 C   0  0  0  0  0  0  0  0  0  0  0  0
    1.9034    0.3042   -0.7068 C   0  0  0  0  0  0  0  0  0  0  0  0
    0.5478    0.8744   -0.3002 C   0  0  0  0  0  0  0  0  0  0  0  0
    4.6181    5.7862   -0.1617 C   0  0  0  0  0  0  0  0  0  0  0  0
    5.8232    6.3310   -0.5911 C   0  0  0  0  0  0  0  0  0  0  0  0
    5.6849    7.2560   -1.6456 C   0  0  0  0  0  0  0  0  0  0  0  0
    6.8522    7.8145   -2.3541 C   0  0  0  0  0  0  0  0  0  0  0  0
    6.6886    8.5901   -3.3361 O   0  0  0  0  0  0  0  0  0  0  0  0
    8.1402    7.4627   -1.9327 O   0  0  0  0  0  0  0  0  0  0  0  0
    9.3142    7.8785   -2.6196 C   0  0  0  0  0  0  0  0  0  0  0  0
    4.3482    7.4527   -2.0277 C   0  0  0  0  0  0  0  0  0  0  0  0
    3.3900    6.4772   -1.0638 S   0  0  0  0  0  0  0  0  0  0  0  0
    3.8502    7.8672   -3.3516 C   0  0  0  0  0  0  0  0  0  0  0  0
    3.7241    6.9582   -4.3413 C   0  0  0  0  0  0  0  0  0  0  0  0
    4.2667    5.5911   -4.2821 C   0  0  0  0  0  0  0  0  0  0  0  0
    5.3501    5.2406   -3.7412 O   0  0  0  0  0  0  0  0  0  0  0  0
    3.3430    4.6929   -4.9273 C   0  0  0  0  0  0  0  0  0  0  0  0
    3.3057    3.3058   -4.8304 C   0  0  0  0  0  0  0  0  0  0  0  0
    2.1618    2.6359   -5.2820 C   0  0  0  0  0  0  0  0  0  0  0  0
    1.0589    3.3645   -5.7965 C   0  0  0  0  0  0  0  0  0  0  0  0
   -0.1424    2.7328   -6.1644 O   0  0  0  0  0  0  0  0  0  0  0  0
   -0.4493    1.3711   -5.8854 C   0  0  0  0  0  0  0  0  0  0  0  0
    1.1411    4.7640   -5.9064 C   0  0  0  0  0  0  0  0  0  0  0  0
    2.3054    5.4251   -5.4789 C   0  0  0  0  0  0  0  0  0  0  0  0
    2.5680    6.8817   -5.2865 C   0  0  0  0  0  0  0  0  0  0  0  0
    1.9623    7.9147   -5.9219 C   0  0  0  0  0  0  0  0  0  0  0  0
    0.9203    7.7158   -6.8946 C   0  0  0  0  0  0  0  0  0  0  0  0
    0.0775    7.5664   -7.6741 N   0  0  0  0  0  0  0  0  0  0  0  0
    2.3660    9.2789   -5.7001 C   0  0  0  0  0  0  0  0  0  0  0  0
    2.6876   10.3719   -5.5039 N   0  0  0  0  0  0  0  0  0  0  0  0
   -8.6635   -6.0464   -1.9023 H   0  0  0  0  0  0  0  0  0  0  0  0
   -6.0738   -0.3506   -2.1508 H   0  0  0  0  0  0  0  0  0  0  0  0
   -6.2632    0.8984   -4.2626 H   0  0  0  0  0  0  0  0  0  0  0  0
   -7.2287    1.5676   -7.8381 H   0  0  0  0  0  0  0  0  0  0  0  0
   -7.1289    2.1339   -6.1276 H   0  0  0  0  0  0  0  0  0  0  0  0
   -5.8970    0.9637   -6.7787 H   0  0  0  0  0  0  0  0  0  0  0  0
   -9.0722   -2.0097   -5.7686 H   0  0  0  0  0  0  0  0  0  0  0  0
   -8.3157   -4.9172    1.3329 H   0  0  0  0  0  0  0  0  0  0  0  0
   -5.8534   -2.3375    4.7681 H   0  0  0  0  0  0  0  0  0  0  0  0
   -4.0556   -2.5229    4.7942 H   0  0  0  0  0  0  0  0  0  0  0  0
   -5.0977   -3.8199    5.5006 H   0  0  0  0  0  0  0  0  0  0  0  0
   -4.3232   -7.7550    1.9582 H   0  0  0  0  0  0  0  0  0  0  0  0
   -5.2932   -9.2625    3.6409 H   0  0  0  0  0  0  0  0  0  0  0  0
   -5.0304   -8.7931    6.0510 H   0  0  0  0  0  0  0  0  0  0  0  0
   -4.5340   -7.1896    7.8029 H   0  0  0  0  0  0  0  0  0  0  0  0
   -3.8852   -5.5748    7.3849 H   0  0  0  0  0  0  0  0  0  0  0  0
   -2.2774   -6.8701    8.7802 H   0  0  0  0  0  0  0  0  0  0  0  0
   -2.2382   -8.1857    7.5458 H   0  0  0  0  0  0  0  0  0  0  0  0
   -1.5844   -6.5428    7.1500 H   0  0  0  0  0  0  0  0  0  0  0  0
   -2.8508   -5.2043    5.1140 H   0  0  0  0  0  0  0  0  0  0  0  0
    4.4758    6.4560    2.4989 H   0  0  0  0  0  0  0  0  0  0  0  0
    5.7165    7.8093    4.1351 H   0  0  0  0  0  0  0  0  0  0  0  0
    7.7675    6.9343    5.1869 H   0  0  0  0  0  0  0  0  0  0  0  0
    9.6769    5.3331    4.9892 H   0  0  0  0  0  0  0  0  0  0  0  0
    9.4673    3.7888    4.1076 H   0  0  0  0  0  0  0  0  0  0  0  0
    9.5242    3.4275    6.5668 H   0  0  0  0  0  0  0  0  0  0  0  0
    7.9139    2.9624    5.8932 H   0  0  0  0  0  0  0  0  0  0  0  0
    8.1067    4.5281    6.7859 H   0  0  0  0  0  0  0  0  0  0  0  0
    7.3791    3.2885    2.9333 H   0  0  0  0  0  0  0  0  0  0  0  0
    0.1653   -1.6657   -1.1834 H   0  0  0  0  0  0  0  0  0  0  0  0
   -0.3260   -3.3128   -1.0679 H   0  0  0  0  0  0  0  0  0  0  0  0
    1.6823   -3.2133   -2.4605 H   0  0  0  0  0  0  0  0  0  0  0  0
    1.8938   -4.2559   -0.9877 H   0  0  0  0  0  0  0  0  0  0  0  0
    2.6690   -2.6240   -1.0555 H   0  0  0  0  0  0  0  0  0  0  0  0
    2.4268    1.0661   -1.3104 H   0  0  0  0  0  0  0  0  0  0  0  0
    1.8601   -0.5205   -1.4230 H   0  0  0  0  0  0  0  0  0  0  0  0
   -0.0424    1.1055   -1.2094 H   0  0  0  0  0  0  0  0  0  0  0  0
   -0.0145    0.1619    0.3394 H   0  0  0  0  0  0  0  0  0  0  0  0
    0.7021    1.8214    0.2625 H   0  0  0  0  0  0  0  0  0  0  0  0
    6.7793    5.9554   -0.2550 H   0  0  0  0  0  0  0  0  0  0  0  0
   10.2043    7.4905   -2.0883 H   0  0  0  0  0  0  0  0  0  0  0  0
    9.3082    7.4861   -3.6587 H   0  0  0  0  0  0  0  0  0  0  0  0
    9.3680    8.9872   -2.6408 H   0  0  0  0  0  0  0  0  0  0  0  0
    3.2357    8.7506   -3.3510 H   0  0  0  0  0  0  0  0  0  0  0  0
    4.1042    2.7575   -4.3531 H   0  0  0  0  0  0  0  0  0  0  0  0
    2.1204    1.5584   -5.1772 H   0  0  0  0  0  0  0  0  0  0  0  0
   -0.3615    1.1747   -4.7924 H   0  0  0  0  0  0  0  0  0  0  0  0
   -1.4929    1.1552   -6.1996 H   0  0  0  0  0  0  0  0  0  0  0  0
    0.2367    0.7026   -6.4441 H   0  0  0  0  0  0  0  0  0  0  0  0
    0.2700    5.3062   -6.2426 H   0  0  0  0  0  0  0  0  0  0  0  0
  1  2  2  3
  2  3  1  0
  3  4  2  0
  3  5  1  0
  5  6  2  0
  6  7  1  0
  7  8  2  0
  8  9  1  0
  9 10  1  0
  8 11  1  0
 11 12  2  0
 12 13  1  0
 13 14  2  3
 14 15  1  0
 15 16  3  0
 14 17  1  0
 17 18  3  0
  1 19  1  0
 19 20  2  0
 20 21  1  0
 21 22  1  0
 22 23  2  0
 22 24  1  0
 24 25  1  0
 21 26  2  0
 26 27  1  0
 26 28  1  0
 28 29  2  0
 29 30  1  0
 30 31  2  0
 31 32  1  0
 32 33  2  0
 33 34  1  0
 34 35  1  0
 35 36  1  0
 34 37  2  0
 29 38  1  0
 38 39  1  0
 39 40  1  0
 40 41  1  0
 41 42  1  0
 42 43  1  0
 43 44  2  0
 44 45  1  0
 45 46  1  0
 43 47  1  0
 47 48  1  0
 48 49  1  0
 49 50  1  0
 50 51  1  0
 51 52  1  0
 52 53  2  0
 53 54  1  0
 54 55  2  0
 55 56  1  0
 56 57  1  0
 57 58  1  0
 56 59  2  0
 51 60  2  0
 60 61  1  0
 61 62  1  0
 62 63  1  0
 63 64  1  0
 64 65  1  0
 65 66  1  0
 66 67  1  0
 67 68  1  0
 68 69  1  0
 69 70  1  0
 67 71  1  0
 71 72  1  0
 64 73  1  0
 73 74  1  0
 60 75  1  0
 75 76  2  0
 76 77  1  0
 77 78  1  0
 78 79  2  0
 78 80  1  0
 80 81  1  0
 77 82  2  0
 82 83  1  0
 82 84  1  0
 84 85  2  3
 85 86  1  0
 86 87  2  0
 86 88  1  0
 88 89  2  0
 89 90  1  0
 90 91  2  0
 91 92  1  0
 92 93  1  0
 91 94  1  0
 94 95  2  0
 95 96  1  0
 96 97  2  3
 97 98  1  0
 98 99  3  0
 97100  1  0
100101  3  0
 13  2  1  0
 27 19  1  0
 70 28  1  0
 83 75  1  0
 96 85  1  0
 12  5  1  0
 37 30  1  0
 69 38  2  0
 95 88  1  0
 68 40  2  0
 66 41  2  0
 46 42  2  0
 65 47  2  0
 63 48  2  0
 62 50  2  0
 59 52  1  0
  1102  1  0
  6103  1  0
  7104  1  0
 10105  1  0
 10106  1  0
 10107  1  0
 11108  1  0
 20109  1  0
 25110  1  0
 25111  1  0
 25112  1  0
 31113  1  0
 32114  1  0
 33115  1  0
 35116  1  0
 35117  1  0
 36118  1  0
 36119  1  0
 36120  1  0
 37121  1  0
 53122  1  0
 54123  1  0
 55124  1  0
 57125  1  0
 57126  1  0
 58127  1  0
 58128  1  0
 58129  1  0
 59130  1  0
 71131  1  0
 71132  1  0
 72133  1  0
 72134  1  0
 72135  1  0
 73136  1  0
 73137  1  0
 74138  1  0
 74139  1  0
 74140  1  0
 76141  1  0
 81142  1  0
 81143  1  0
 81144  1  0
 84145  1  0
 89146  1  0
 90147  1  0
 93148  1  0
 93149  1  0
 93150  1  0
 94151  1  0
M  END

