
     RDKit          3D

145160  0  0  0  0  0  0  0  0999 V2000
   -0.1788    0.7447   10.8527 C   0  0  0  0  0  0  0  0  0  0  0  0
   -0.9214    1.8012   11.2464 C   0  0  0  0  0  0  0  0  0  0  0  0
   -0.3350    3.0407   11.7594 C   0  0  0  0  0  0  0  0  0  0  0  0
    0.8058    3.1646   12.2715 O   0  0  0  0  0  0  0  0  0  0  0  0
   -1.2549    4.1255   11.4624 C   0  0  0  0  0  0  0  0  0  0  0  0
   -1.0325    5.4989   11.5547 C   0  0  0  0  0  0  0  0  0  0  0  0
   -2.0018    6.3693   11.0393 C   0  0  0  0  0  0  0  0  0  0  0  0
   -3.1709    5.8585   10.4188 C   0  0  0  0  0  0  0  0  0  0  0  0
   -4.1479    6.6875    9.8560 O   0  0  0  0  0  0  0  0  0  0  0  0
   -4.0531    8.1063    9.7835 C   0  0  0  0  0  0  0  0  0  0  0  0
   -3.3663    4.4678   10.3366 C   0  0  0  0  0  0  0  0  0  0  0  0
   -2.3977    3.6101   10.8762 C   0  0  0  0  0  0  0  0  0  0  0  0
   -2.3213    2.1301   10.8413 C   0  0  0  0  0  0  0  0  0  0  0  0
   -3.3600    1.2626   10.7781 C   0  0  0  0  0  0  0  0  0  0  0  0
   -3.1874   -0.1408   11.0701 C   0  0  0  0  0  0  0  0  0  0  0  0
   -3.0509   -1.2654   11.3085 N   0  0  0  0  0  0  0  0  0  0  0  0
   -4.7225    1.7016   10.6127 C   0  0  0  0  0  0  0  0  0  0  0  0
   -5.8203    2.0427   10.4911 N   0  0  0  0  0  0  0  0  0  0  0  0
   -0.4997   -0.0010    9.6254 C   0  0  0  0  0  0  0  0  0  0  0  0
   -0.2150   -1.3364    9.3695 C   0  0  0  0  0  0  0  0  0  0  0  0
   -0.4929   -1.7117    8.0436 C   0  0  0  0  0  0  0  0  0  0  0  0
   -0.2356   -3.3815    7.4369 S   0  0  0  0  0  0  0  0  0  0  0  0
   -1.9910   -3.8741    7.5405 C   0  0  0  0  0  0  0  0  0  0  0  0
   -2.3796   -4.2385    8.9690 C   0  0  0  0  0  0  0  0  0  0  0  0
   -0.9807   -0.6635    7.2599 C   0  0  0  0  0  0  0  0  0  0  0  0
   -1.0557    0.7120    8.2050 S   0  0  0  0  0  0  0  0  0  0  0  0
   -1.2869   -0.6927    5.8260 C   0  0  0  0  0  0  0  0  0  0  0  0
   -2.4451   -0.1771    5.2078 C   0  0  0  0  0  0  0  0  0  0  0  0
   -3.5839    0.4381    5.9047 C   0  0  0  0  0  0  0  0  0  0  0  0
   -3.5102    1.7673    6.3466 C   0  0  0  0  0  0  0  0  0  0  0  0
   -4.6044    2.3545    6.9841 C   0  0  0  0  0  0  0  0  0  0  0  0
   -5.7843    1.6301    7.1625 C   0  0  0  0  0  0  0  0  0  0  0  0
   -5.8788    0.3068    6.7026 C   0  0  0  0  0  0  0  0  0  0  0  0
   -7.1423   -0.4807    6.9102 C   0  0  0  0  0  0  0  0  0  0  0  0
   -7.1283   -1.1781    8.2673 C   0  0  0  0  0  0  0  0  0  0  0  0
   -4.7691   -0.2903    6.0827 C   0  0  0  0  0  0  0  0  0  0  0  0
   -2.3875   -0.3451    3.8295 C   0  0  0  0  0  0  0  0  0  0  0  0
   -3.4112    0.1359    2.5545 S   0  0  0  0  0  0  0  0  0  0  0  0
   -2.3043   -0.4652    1.4145 C   0  0  0  0  0  0  0  0  0  0  0  0
   -2.0291   -0.2601    0.0947 C   0  0  0  0  0  0  0  0  0  0  0  0
   -2.7294    0.4603   -0.8838 C   0  0  0  0  0  0  0  0  0  0  0  0
   -2.0890    0.7167   -2.1318 C   0  0  0  0  0  0  0  0  0  0  0  0
   -2.8059    1.4002   -3.0612 N   0  0  0  0  0  0  0  0  0  0  0  0
   -4.2039    1.6434   -2.2076 S   0  0  0  0  0  0  0  0  0  0  0  0
   -3.9862    0.9379   -0.7253 N   0  0  0  0  0  0  0  0  0  0  0  0
   -0.7868    0.2404   -2.3332 C   0  0  0  0  0  0  0  0  0  0  0  0
   -0.0343    0.1671   -3.4658 C   0  0  0  0  0  0  0  0  0  0  0  0
   -0.3300    0.3857   -5.1208 S   0  0  0  0  0  0  0  0  0  0  0  0
    0.9862   -0.6216   -5.5071 C   0  0  0  0  0  0  0  0  0  0  0  0
    1.4192   -1.1746   -6.7088 C   0  0  0  0  0  0  0  0  0  0  0  0
    0.7032   -0.9515   -7.9707 C   0  0  0  0  0  0  0  0  0  0  0  0
    1.1347    0.0271   -8.8768 C   0  0  0  0  0  0  0  0  0  0  0  0
    0.4277    0.2320  -10.0685 C   0  0  0  0  0  0  0  0  0  0  0  0
   -0.7108   -0.5307  -10.3516 C   0  0  0  0  0  0  0  0  0  0  0  0
   -1.1418   -1.5204   -9.4501 C   0  0  0  0  0  0  0  0  0  0  0  0
   -2.3746   -2.3358   -9.7326 C   0  0  0  0  0  0  0  0  0  0  0  0
   -3.5772   -1.7781   -8.9799 C   0  0  0  0  0  0  0  0  0  0  0  0
   -0.4342   -1.7215   -8.2581 C   0  0  0  0  0  0  0  0  0  0  0  0
    2.4041   -2.1634   -6.4945 C   0  0  0  0  0  0  0  0  0  0  0  0
    2.6786   -2.3266   -4.8229 S   0  0  0  0  0  0  0  0  0  0  0  0
    1.5811   -1.1376   -4.3854 C   0  0  0  0  0  0  0  0  0  0  0  0
    0.9981   -0.6831   -3.2105 C   0  0  0  0  0  0  0  0  0  0  0  0
    0.9642   -1.1793   -1.9453 N   0  0  0  0  0  0  0  0  0  0  0  0
   -0.1134   -0.5375   -1.3759 C   0  0  0  0  0  0  0  0  0  0  0  0
   -0.7164   -0.7262   -0.1017 C   0  0  0  0  0  0  0  0  0  0  0  0
   -0.1559   -1.1018    1.0970 N   0  0  0  0  0  0  0  0  0  0  0  0
   -1.1793   -0.9689    1.9801 C   0  0  0  0  0  0  0  0  0  0  0  0
   -1.2293   -0.9075    3.3641 C   0  0  0  0  0  0  0  0  0  0  0  0
   -0.2079   -1.2767    4.6396 S   0  0  0  0  0  0  0  0  0  0  0  0
    1.2572   -1.0031    1.4890 C   0  0  0  0  0  0  0  0  0  0  0  0
    1.7296    0.4491    1.4755 C   0  0  0  0  0  0  0  0  0  0  0  0
    1.5247   -2.4816   -1.5630 C   0  0  0  0  0  0  0  0  0  0  0  0
    3.0339   -2.3813   -1.3164 C   0  0  0  0  0  0  0  0  0  0  0  0
    3.0719   -2.9926   -7.5176 C   0  0  0  0  0  0  0  0  0  0  0  0
    3.9402   -4.0567   -7.2682 C   0  0  0  0  0  0  0  0  0  0  0  0
    4.4913   -4.6146   -8.4308 C   0  0  0  0  0  0  0  0  0  0  0  0
    5.6599   -5.9788   -8.3921 S   0  0  0  0  0  0  0  0  0  0  0  0
    7.1471   -4.9193   -8.4319 C   0  0  0  0  0  0  0  0  0  0  0  0
    7.4663   -4.3567   -7.0534 C   0  0  0  0  0  0  0  0  0  0  0  0
    4.0752   -3.9848   -9.6016 C   0  0  0  0  0  0  0  0  0  0  0  0
    2.9879   -2.7694   -9.1833 S   0  0  0  0  0  0  0  0  0  0  0  0
    4.4558   -4.3469  -10.9724 C   0  0  0  0  0  0  0  0  0  0  0  0
    4.8664   -3.4482  -11.8798 C   0  0  0  0  0  0  0  0  0  0  0  0
    5.1231   -3.7180  -13.3016 C   0  0  0  0  0  0  0  0  0  0  0  0
    4.9748   -4.8284  -13.8850 O   0  0  0  0  0  0  0  0  0  0  0  0
    5.5455   -2.4725  -13.9348 C   0  0  0  0  0  0  0  0  0  0  0  0
    5.8686   -2.2175  -15.2670 C   0  0  0  0  0  0  0  0  0  0  0  0
    6.2317   -0.9091  -15.6292 C   0  0  0  0  0  0  0  0  0  0  0  0
    6.6242   -0.5743  -17.3116 Cl  0  0  0  0  0  0  0  0  0  0  0  0
    6.2722    0.1162  -14.6516 C   0  0  0  0  0  0  0  0  0  0  0  0
    6.7164    1.7605  -15.0793 Cl  0  0  0  0  0  0  0  0  0  0  0  0
    5.9465   -0.1697  -13.3115 C   0  0  0  0  0  0  0  0  0  0  0  0
    5.5837   -1.4722  -12.9828 C   0  0  0  0  0  0  0  0  0  0  0  0
    5.1946   -2.0208  -11.6903 C   0  0  0  0  0  0  0  0  0  0  0  0
    5.2324   -1.3954  -10.5988 O   0  0  0  0  0  0  0  0  0  0  0  0
    0.8418    0.6632   11.2057 H   0  0  0  0  0  0  0  0  0  0  0  0
   -0.1202    5.8888   11.9870 H   0  0  0  0  0  0  0  0  0  0  0  0
   -1.8320    7.4338   11.1080 H   0  0  0  0  0  0  0  0  0  0  0  0
   -4.0352    8.5407   10.8061 H   0  0  0  0  0  0  0  0  0  0  0  0
   -3.1361    8.3981    9.2274 H   0  0  0  0  0  0  0  0  0  0  0  0
   -4.9328    8.5014    9.2391 H   0  0  0  0  0  0  0  0  0  0  0  0
   -4.2146    4.0868    9.7926 H   0  0  0  0  0  0  0  0  0  0  0  0
    0.1943   -2.0113   10.1098 H   0  0  0  0  0  0  0  0  0  0  0  0
   -2.1384   -4.7650    6.8978 H   0  0  0  0  0  0  0  0  0  0  0  0
   -2.6554   -3.0685    7.1636 H   0  0  0  0  0  0  0  0  0  0  0  0
   -2.3547   -3.3392    9.6172 H   0  0  0  0  0  0  0  0  0  0  0  0
   -3.4073   -4.6564    8.9783 H   0  0  0  0  0  0  0  0  0  0  0  0
   -1.6826   -5.0044    9.3749 H   0  0  0  0  0  0  0  0  0  0  0  0
   -2.6037    2.3441    6.2010 H   0  0  0  0  0  0  0  0  0  0  0  0
   -4.5371    3.3772    7.3345 H   0  0  0  0  0  0  0  0  0  0  0  0
   -6.6283    2.1020    7.6538 H   0  0  0  0  0  0  0  0  0  0  0  0
   -7.2548   -1.2422    6.1094 H   0  0  0  0  0  0  0  0  0  0  0  0
   -8.0248    0.1931    6.8531 H   0  0  0  0  0  0  0  0  0  0  0  0
   -7.1086   -0.4279    9.0875 H   0  0  0  0  0  0  0  0  0  0  0  0
   -6.2383   -1.8401    8.3537 H   0  0  0  0  0  0  0  0  0  0  0  0
   -8.0465   -1.7949    8.3722 H   0  0  0  0  0  0  0  0  0  0  0  0
   -4.8267   -1.3143    5.7294 H   0  0  0  0  0  0  0  0  0  0  0  0
    2.0155    0.6215   -8.6659 H   0  0  0  0  0  0  0  0  0  0  0  0
    0.7570    0.9896  -10.7673 H   0  0  0  0  0  0  0  0  0  0  0  0
   -1.2507   -0.3549  -11.2722 H   0  0  0  0  0  0  0  0  0  0  0  0
   -2.5932   -2.3504  -10.8224 H   0  0  0  0  0  0  0  0  0  0  0  0
   -2.2033   -3.3903   -9.4173 H   0  0  0  0  0  0  0  0  0  0  0  0
   -3.7919   -0.7406   -9.3169 H   0  0  0  0  0  0  0  0  0  0  0  0
   -3.3813   -1.7700   -7.8860 H   0  0  0  0  0  0  0  0  0  0  0  0
   -4.4676   -2.4132   -9.1780 H   0  0  0  0  0  0  0  0  0  0  0  0
   -0.7701   -2.4674   -7.5455 H   0  0  0  0  0  0  0  0  0  0  0  0
    1.8974   -1.6042    0.8473 H   0  0  0  0  0  0  0  0  0  0  0  0
    1.4108   -1.4337    2.4939 H   0  0  0  0  0  0  0  0  0  0  0  0
    1.0521    1.0775    2.0961 H   0  0  0  0  0  0  0  0  0  0  0  0
    2.7583    0.5107    1.8942 H   0  0  0  0  0  0  0  0  0  0  0  0
    1.7419    0.8385    0.4352 H   0  0  0  0  0  0  0  0  0  0  0  0
    1.0041   -2.8883   -0.6708 H   0  0  0  0  0  0  0  0  0  0  0  0
    1.3353   -3.2291   -2.3680 H   0  0  0  0  0  0  0  0  0  0  0  0
    3.3458   -3.1583   -0.5853 H   0  0  0  0  0  0  0  0  0  0  0  0
    3.3081   -1.3756   -0.9179 H   0  0  0  0  0  0  0  0  0  0  0  0
    3.5997   -2.5503   -2.2494 H   0  0  0  0  0  0  0  0  0  0  0  0
    4.1762   -4.4169   -6.2747 H   0  0  0  0  0  0  0  0  0  0  0  0
    7.0200   -4.0920   -9.1614 H   0  0  0  0  0  0  0  0  0  0  0  0
    8.0026   -5.5434   -8.7688 H   0  0  0  0  0  0  0  0  0  0  0  0
    6.6559   -3.6835   -6.7069 H   0  0  0  0  0  0  0  0  0  0  0  0
    8.4088   -3.7699   -7.1045 H   0  0  0  0  0  0  0  0  0  0  0  0
    7.6005   -5.1832   -6.3214 H   0  0  0  0  0  0  0  0  0  0  0  0
    4.3881   -5.3890  -11.2573 H   0  0  0  0  0  0  0  0  0  0  0  0
    5.8297   -3.0132  -16.0028 H   0  0  0  0  0  0  0  0  0  0  0  0
    5.9674    0.6064  -12.5533 H   0  0  0  0  0  0  0  0  0  0  0  0
  1  2  2  3
  2  3  1  0
  3  4  2  0
  3  5  1  0
  5  6  2  0
  6  7  1  0
  7  8  2  0
  8  9  1  0
  9 10  1  0
  8 11  1  0
 11 12  2  0
 12 13  1  0
 13 14  2  3
 14 15  1  0
 15 16  3  0
 14 17  1  0
 17 18  3  0
  1 19  1  0
 19 20  2  0
 20 21  1  0
 21 22  1  0
 22 23  1  0
 23 24  1  0
 21 25  2  0
 25 26  1  0
 25 27  1  0
 27 28  2  0
 28 29  1  0
 29 30  2  0
 30 31  1  0
 31 32  2  0
 32 33  1  0
 33 34  1  0
 34 35  1  0
 33 36  2  0
 28 37  1  0
 37 38  1  0
 38 39  1  0
 39 40  1  0
 40 41  1  0
 41 42  1  0
 42 43  2  0
 43 44  1  0
 44 45  1  0
 42 46  1  0
 46 47  1  0
 47 48  1  0
 48 49  1  0
 49 50  1  0
 50 51  1  0
 51 52  2  0
 52 53  1  0
 53 54  2  0
 54 55  1  0
 55 56  1  0
 56 57  1  0
 55 58  2  0
 50 59  2  0
 59 60  1  0
 60 61  1  0
 61 62  1  0
 62 63  1  0
 63 64  1  0
 64 65  1  0
 65 66  1  0
 66 67  1  0
 67 68  1  0
 68 69  1  0
 66 70  1  0
 70 71  1  0
 63 72  1  0
 72 73  1  0
 59 74  1  0
 74 75  2  0
 75 76  1  0
 76 77  1  0
 77 78  1  0
 78 79  1  0
 76 80  2  0
 80 81  1  0
 80 82  1  0
 82 83  2  3
 83 84  1  0
 84 85  2  0
 84 86  1  0
 86 87  2  0
 87 88  1  0
 88 89  1  0
 88 90  2  0
 90 91  1  0
 90 92  1  0
 92 93  2  0
 93 94  1  0
 94 95  2  0
 13  2  1  0
 26 19  1  0
 69 27  1  0
 81 74  1  0
 94 83  1  0
 12  5  1  0
 36 29  1  0
 68 37  2  0
 93 86  1  0
 67 39  2  0
 65 40  2  0
 45 41  2  0
 64 46  2  0
 62 47  2  0
 61 49  2  0
 58 51  1  0
  1 96  1  0
  6 97  1  0
  7 98  1  0
 10 99  1  0
 10100  1  0
 10101  1  0
 11102  1  0
 20103  1  0
 23104  1  0
 23105  1  0
 24106  1  0
 24107  1  0
 24108  1  0
 30109  1  0
 31110  1  0
 32111  1  0
 34112  1  0
 34113  1  0
 35114  1  0
 35115  1  0
 35116  1  0
 36117  1  0
 52118  1  0
 53119  1  0
 54120  1  0
 56121  1  0
 56122  1  0
 57123  1  0
 57124  1  0
 57125  1  0
 58126  1  0
 70127  1  0
 70128  1  0
 71129  1  0
 71130  1  0
 71131  1  0
 72132  1  0
 72133  1  0
 73134  1  0
 73135  1  0
 73136  1  0
 75137  1  0
 78138  1  0
 78139  1  0
 79140  1  0
 79141  1  0
 79142  1  0
 82143  1  0
 87144  1  0
 92145  1  0
M  END

