
     RDKit          3D

205226  0  0  0  0  0  0  0  0999 V2000
    7.3653    6.3648    4.7322 C   0  0  0  0  0  0  0  0  0  0  0  0
    6.6282    7.4733    4.8934 C   0  0  0  0  0  0  0  0  0  0  0  0
    5.7328    7.6476    6.0448 C   0  0  0  0  0  0  0  0  0  0  0  0
    5.8638    7.1069    7.1737 O   0  0  0  0  0  0  0  0  0  0  0  0
    4.6200    8.4886    5.6415 C   0  0  0  0  0  0  0  0  0  0  0  0
    3.4842    8.8450    6.3645 C   0  0  0  0  0  0  0  0  0  0  0  0
    2.4595    9.5444    5.7016 C   0  0  0  0  0  0  0  0  0  0  0  0
    2.5679    9.8348    4.3170 C   0  0  0  0  0  0  0  0  0  0  0  0
    1.5341   10.4444    3.5936 O   0  0  0  0  0  0  0  0  0  0  0  0
    0.2187   10.6463    4.0927 C   0  0  0  0  0  0  0  0  0  0  0  0
    3.7411    9.4875    3.6260 C   0  0  0  0  0  0  0  0  0  0  0  0
    4.7737    8.8404    4.3163 C   0  0  0  0  0  0  0  0  0  0  0  0
    6.0659    8.3193    3.8118 C   0  0  0  0  0  0  0  0  0  0  0  0
    6.7864    8.8356    2.7914 C   0  0  0  0  0  0  0  0  0  0  0  0
    6.3431   10.0015    2.0757 C   0  0  0  0  0  0  0  0  0  0  0  0
    5.9816   10.9462    1.5170 N   0  0  0  0  0  0  0  0  0  0  0  0
    8.1108    8.3467    2.4877 C   0  0  0  0  0  0  0  0  0  0  0  0
    9.1689    7.9546    2.2460 N   0  0  0  0  0  0  0  0  0  0  0  0
    6.7203    5.0917    4.3151 C   0  0  0  0  0  0  0  0  0  0  0  0
    6.6999    4.0190    5.2263 C   0  0  0  0  0  0  0  0  0  0  0  0
    7.2669    4.1336    6.4574 F   0  0  0  0  0  0  0  0  0  0  0  0
    6.0332    2.8330    4.9157 C   0  0  0  0  0  0  0  0  0  0  0  0
    5.9596    1.8581    5.8588 F   0  0  0  0  0  0  0  0  0  0  0  0
    5.4012    2.6698    3.6735 C   0  0  0  0  0  0  0  0  0  0  0  0
    5.5205    3.6778    2.7067 C   0  0  0  0  0  0  0  0  0  0  0  0
    5.0313    3.5055    1.4492 N   0  0  0  0  0  0  0  0  0  0  0  0
    5.0738    4.4943    0.5143 C   0  0  0  0  0  0  0  0  0  0  0  0
    4.6888    4.1642   -0.8729 C   0  0  0  0  0  0  0  0  0  0  0  0
    3.8780    5.1488   -1.9747 S   0  0  0  0  0  0  0  0  0  0  0  0
    4.0133    4.1152   -3.2958 C   0  0  0  0  0  0  0  0  0  0  0  0
    3.6189    4.4666   -4.7007 C   0  0  0  0  0  0  0  0  0  0  0  0
    2.7423    3.3888   -5.3399 C   0  0  0  0  0  0  0  0  0  0  0  0
    4.7170    2.9852   -2.8860 C   0  0  0  0  0  0  0  0  0  0  0  0
    5.0835    3.0009   -1.5346 C   0  0  0  0  0  0  0  0  0  0  0  0
    5.1001    1.9921   -3.7277 F   0  0  0  0  0  0  0  0  0  0  0  0
    5.6046    5.7500    0.8827 C   0  0  0  0  0  0  0  0  0  0  0  0
    6.1372    5.9034    2.1222 N   0  0  0  0  0  0  0  0  0  0  0  0
    6.1377    4.9066    3.0399 C   0  0  0  0  0  0  0  0  0  0  0  0
    5.5962    6.9145   -0.0031 C   0  0  0  0  0  0  0  0  0  0  0  0
    4.5996    7.8815   -0.0265 C   0  0  0  0  0  0  0  0  0  0  0  0
    4.8927    8.9428   -0.8878 C   0  0  0  0  0  0  0  0  0  0  0  0
    4.0740   10.0116   -1.0452 F   0  0  0  0  0  0  0  0  0  0  0  0
    6.1203    8.8151   -1.5323 C   0  0  0  0  0  0  0  0  0  0  0  0
    6.7507    9.8360   -2.4270 C   0  0  0  0  0  0  0  0  0  0  0  0
    7.6501   10.7846   -1.6381 C   0  0  0  0  0  0  0  0  0  0  0  0
    6.8559    7.3903   -1.0101 S   0  0  0  0  0  0  0  0  0  0  0  0
    4.3862    1.6063    3.5471 C   0  0  0  0  0  0  0  0  0  0  0  0
    3.2606    1.5347    4.3777 C   0  0  0  0  0  0  0  0  0  0  0  0
    2.8177    2.6258    5.2591 C   0  0  0  0  0  0  0  0  0  0  0  0
    2.8488    2.4738    6.6539 C   0  0  0  0  0  0  0  0  0  0  0  0
    2.4711    3.5331    7.4809 C   0  0  0  0  0  0  0  0  0  0  0  0
    2.0425    4.7395    6.9225 C   0  0  0  0  0  0  0  0  0  0  0  0
    2.0037    4.9018    5.5260 C   0  0  0  0  0  0  0  0  0  0  0  0
    1.4873    6.1730    4.9179 C   0  0  0  0  0  0  0  0  0  0  0  0
    0.0447    6.0002    4.4508 C   0  0  0  0  0  0  0  0  0  0  0  0
    2.4024    3.8427    4.7002 C   0  0  0  0  0  0  0  0  0  0  0  0
    2.5591    0.3559    4.1777 C   0  0  0  0  0  0  0  0  0  0  0  0
    1.1772   -0.2915    4.9260 S   0  0  0  0  0  0  0  0  0  0  0  0
    1.2742   -1.6518    3.9255 C   0  0  0  0  0  0  0  0  0  0  0  0
    0.6673   -2.8589    3.7931 C   0  0  0  0  0  0  0  0  0  0  0  0
   -0.3285   -3.4607    4.5606 C   0  0  0  0  0  0  0  0  0  0  0  0
   -0.7199   -4.7874    4.2410 C   0  0  0  0  0  0  0  0  0  0  0  0
   -1.7120   -5.3282    4.9933 N   0  0  0  0  0  0  0  0  0  0  0  0
   -1.9981   -4.0744    6.0366 S   0  0  0  0  0  0  0  0  0  0  0  0
   -0.9579   -2.8592    5.6041 N   0  0  0  0  0  0  0  0  0  0  0  0
   -0.1288   -5.4269    3.1430 C   0  0  0  0  0  0  0  0  0  0  0  0
   -0.6289   -6.4715    2.4152 C   0  0  0  0  0  0  0  0  0  0  0  0
   -2.1598   -7.1845    2.3808 S   0  0  0  0  0  0  0  0  0  0  0  0
   -2.1350   -7.4299    0.6977 C   0  0  0  0  0  0  0  0  0  0  0  0
   -3.1436   -7.6851   -0.2703 C   0  0  0  0  0  0  0  0  0  0  0  0
   -4.5162   -8.2614   -0.0124 C   0  0  0  0  0  0  0  0  0  0  0  0
   -5.2602   -8.8370   -1.0683 C   0  0  0  0  0  0  0  0  0  0  0  0
   -6.5424   -9.3464   -0.8559 C   0  0  0  0  0  0  0  0  0  0  0  0
   -7.0883   -9.3641    0.4259 C   0  0  0  0  0  0  0  0  0  0  0  0
   -6.3495   -8.8701    1.5099 C   0  0  0  0  0  0  0  0  0  0  0  0
   -6.8702   -9.0054    2.9198 C   0  0  0  0  0  0  0  0  0  0  0  0
   -7.1310   -7.6479    3.5594 C   0  0  0  0  0  0  0  0  0  0  0  0
   -5.0882   -8.3014    1.2790 C   0  0  0  0  0  0  0  0  0  0  0  0
   -2.6635   -7.3074   -1.5546 C   0  0  0  0  0  0  0  0  0  0  0  0
   -1.0759   -6.7243   -1.4358 S   0  0  0  0  0  0  0  0  0  0  0  0
   -0.9438   -6.9279    0.2045 C   0  0  0  0  0  0  0  0  0  0  0  0
   -0.0922   -6.3736    1.1713 C   0  0  0  0  0  0  0  0  0  0  0  0
    0.8253   -5.3684    1.0821 N   0  0  0  0  0  0  0  0  0  0  0  0
    0.8302   -4.7893    2.3305 C   0  0  0  0  0  0  0  0  0  0  0  0
    1.3318   -3.5150    2.7434 C   0  0  0  0  0  0  0  0  0  0  0  0
    2.4224   -2.7691    2.3319 N   0  0  0  0  0  0  0  0  0  0  0  0
    2.3107   -1.6220    3.0581 C   0  0  0  0  0  0  0  0  0  0  0  0
    3.0779   -0.4691    3.2099 C   0  0  0  0  0  0  0  0  0  0  0  0
    4.4745    0.2183    2.5521 S   0  0  0  0  0  0  0  0  0  0  0  0
    3.6659   -3.1800    1.6603 C   0  0  0  0  0  0  0  0  0  0  0  0
    4.1409   -4.5689    2.1008 C   0  0  0  0  0  0  0  0  0  0  0  0
    1.3178   -4.8172   -0.1866 C   0  0  0  0  0  0  0  0  0  0  0  0
    0.5073   -3.5970   -0.6185 C   0  0  0  0  0  0  0  0  0  0  0  0
   -3.4384   -6.9433   -2.7570 C   0  0  0  0  0  0  0  0  0  0  0  0
   -2.9493   -7.3487   -4.0084 C   0  0  0  0  0  0  0  0  0  0  0  0
   -2.0256   -8.3400   -4.0880 F   0  0  0  0  0  0  0  0  0  0  0  0
   -3.3000   -6.6532   -5.1670 C   0  0  0  0  0  0  0  0  0  0  0  0
   -2.6961   -6.9715   -6.3425 F   0  0  0  0  0  0  0  0  0  0  0  0
   -4.1293   -5.5227   -5.0810 C   0  0  0  0  0  0  0  0  0  0  0  0
   -4.7539   -5.2133   -3.8619 C   0  0  0  0  0  0  0  0  0  0  0  0
   -5.6125   -4.1645   -3.7687 N   0  0  0  0  0  0  0  0  0  0  0  0
   -6.2057   -3.8160   -2.5949 C   0  0  0  0  0  0  0  0  0  0  0  0
   -7.0799   -2.6248   -2.5990 C   0  0  0  0  0  0  0  0  0  0  0  0
   -7.9018   -2.0657   -3.9602 S   0  0  0  0  0  0  0  0  0  0  0  0
   -8.5072   -0.6701   -3.2473 C   0  0  0  0  0  0  0  0  0  0  0  0
   -9.2861    0.3902   -3.9636 C   0  0  0  0  0  0  0  0  0  0  0  0
   -8.3593    1.4849   -4.4806 C   0  0  0  0  0  0  0  0  0  0  0  0
   -8.0336   -0.6025   -1.9398 C   0  0  0  0  0  0  0  0  0  0  0  0
   -7.2320   -1.6899   -1.5761 C   0  0  0  0  0  0  0  0  0  0  0  0
   -8.2851    0.4373   -1.1069 F   0  0  0  0  0  0  0  0  0  0  0  0
   -5.9147   -4.5781   -1.4361 C   0  0  0  0  0  0  0  0  0  0  0  0
   -4.9973   -5.5809   -1.5196 N   0  0  0  0  0  0  0  0  0  0  0  0
   -4.4119   -5.9273   -2.6967 C   0  0  0  0  0  0  0  0  0  0  0  0
   -6.6641   -4.4385   -0.1783 C   0  0  0  0  0  0  0  0  0  0  0  0
   -6.1171   -4.4701    1.1014 C   0  0  0  0  0  0  0  0  0  0  0  0
   -7.0898   -4.4435    2.1102 C   0  0  0  0  0  0  0  0  0  0  0  0
   -6.7817   -4.4332    3.4307 F   0  0  0  0  0  0  0  0  0  0  0  0
   -8.3962   -4.4501    1.6307 C   0  0  0  0  0  0  0  0  0  0  0  0
   -9.6466   -4.4395    2.4603 C   0  0  0  0  0  0  0  0  0  0  0  0
  -10.5755   -5.5931    2.0901 C   0  0  0  0  0  0  0  0  0  0  0  0
   -8.3437   -4.4409   -0.0500 S   0  0  0  0  0  0  0  0  0  0  0  0
   -4.0745   -4.5216   -6.1631 C   0  0  0  0  0  0  0  0  0  0  0  0
   -3.0358   -3.6629   -6.2475 C   0  0  0  0  0  0  0  0  0  0  0  0
   -1.8857   -3.6300   -5.3294 C   0  0  0  0  0  0  0  0  0  0  0  0
   -1.8448   -4.0850   -4.1552 O   0  0  0  0  0  0  0  0  0  0  0  0
   -0.7806   -3.0045   -6.0115 C   0  0  0  0  0  0  0  0  0  0  0  0
    0.5495   -2.9477   -5.6057 C   0  0  0  0  0  0  0  0  0  0  0  0
    1.4996   -2.4551   -6.5059 C   0  0  0  0  0  0  0  0  0  0  0  0
    1.1134   -2.0470   -7.8084 C   0  0  0  0  0  0  0  0  0  0  0  0
    2.0486   -1.6057   -8.7574 O   0  0  0  0  0  0  0  0  0  0  0  0
    3.4559   -1.5716   -8.5397 C   0  0  0  0  0  0  0  0  0  0  0  0
   -0.2426   -2.1062   -8.1837 C   0  0  0  0  0  0  0  0  0  0  0  0
   -1.1919   -2.5695   -7.2572 C   0  0  0  0  0  0  0  0  0  0  0  0
   -2.6512   -2.8265   -7.4218 C   0  0  0  0  0  0  0  0  0  0  0  0
   -3.4885   -2.2259   -8.3033 C   0  0  0  0  0  0  0  0  0  0  0  0
   -4.9206   -2.3726   -8.2163 C   0  0  0  0  0  0  0  0  0  0  0  0
   -6.0706   -2.4799   -8.1524 N   0  0  0  0  0  0  0  0  0  0  0  0
   -3.0232   -1.2604   -9.2644 C   0  0  0  0  0  0  0  0  0  0  0  0
   -2.6575   -0.4794  -10.0344 N   0  0  0  0  0  0  0  0  0  0  0  0
    8.0590    6.2151    5.5538 H   0  0  0  0  0  0  0  0  0  0  0  0
    3.3738    8.5569    7.3989 H   0  0  0  0  0  0  0  0  0  0  0  0
    1.5740    9.8161    6.2540 H   0  0  0  0  0  0  0  0  0  0  0  0
   -0.2281    9.6738    4.3934 H   0  0  0  0  0  0  0  0  0  0  0  0
    0.2409   11.3445    4.9573 H   0  0  0  0  0  0  0  0  0  0  0  0
   -0.4094   11.0932    3.2909 H   0  0  0  0  0  0  0  0  0  0  0  0
    3.8042    9.6683    2.5623 H   0  0  0  0  0  0  0  0  0  0  0  0
    4.5318    4.6149   -5.3149 H   0  0  0  0  0  0  0  0  0  0  0  0
    3.0567    5.4228   -4.6948 H   0  0  0  0  0  0  0  0  0  0  0  0
    2.4278    3.7162   -6.3541 H   0  0  0  0  0  0  0  0  0  0  0  0
    3.3059    2.4392   -5.4406 H   0  0  0  0  0  0  0  0  0  0  0  0
    1.8320    3.2103   -4.7273 H   0  0  0  0  0  0  0  0  0  0  0  0
    5.6670    2.2146   -1.0759 H   0  0  0  0  0  0  0  0  0  0  0  0
    3.7003    7.8244    0.5682 H   0  0  0  0  0  0  0  0  0  0  0  0
    5.9547   10.4233   -2.9386 H   0  0  0  0  0  0  0  0  0  0  0  0
    7.3507    9.3171   -3.2083 H   0  0  0  0  0  0  0  0  0  0  0  0
    7.0913   11.2274   -0.7957 H   0  0  0  0  0  0  0  0  0  0  0  0
    7.9873   11.6096   -2.2926 H   0  0  0  0  0  0  0  0  0  0  0  0
    8.5352   10.2451   -1.2414 H   0  0  0  0  0  0  0  0  0  0  0  0
    3.1861    1.5427    7.0958 H   0  0  0  0  0  0  0  0  0  0  0  0
    2.5114    3.4226    8.5596 H   0  0  0  0  0  0  0  0  0  0  0  0
    1.7460    5.5503    7.5786 H   0  0  0  0  0  0  0  0  0  0  0  0
    2.1283    6.4611    4.0566 H   0  0  0  0  0  0  0  0  0  0  0  0
    1.5151    6.9984    5.6577 H   0  0  0  0  0  0  0  0  0  0  0  0
   -0.6029    5.7144    5.3097 H   0  0  0  0  0  0  0  0  0  0  0  0
   -0.3269    6.9593    4.0289 H   0  0  0  0  0  0  0  0  0  0  0  0
   -0.0232    5.2166    3.6646 H   0  0  0  0  0  0  0  0  0  0  0  0
    2.3750    3.9567    3.6217 H   0  0  0  0  0  0  0  0  0  0  0  0
   -4.8591   -8.9219   -2.0664 H   0  0  0  0  0  0  0  0  0  0  0  0
   -7.1099   -9.7553   -1.6833 H   0  0  0  0  0  0  0  0  0  0  0  0
   -8.0710   -9.7942    0.5780 H   0  0  0  0  0  0  0  0  0  0  0  0
   -6.1239   -9.5588    3.5327 H   0  0  0  0  0  0  0  0  0  0  0  0
   -7.8161   -9.5882    2.9378 H   0  0  0  0  0  0  0  0  0  0  0  0
   -6.1987   -7.0473    3.6053 H   0  0  0  0  0  0  0  0  0  0  0  0
   -7.5019   -7.7868    4.5959 H   0  0  0  0  0  0  0  0  0  0  0  0
   -7.9022   -7.0966    2.9827 H   0  0  0  0  0  0  0  0  0  0  0  0
   -4.5760   -7.9069    2.1307 H   0  0  0  0  0  0  0  0  0  0  0  0
    3.5810   -3.0628    0.5653 H   0  0  0  0  0  0  0  0  0  0  0  0
    4.4857   -2.4862    1.9346 H   0  0  0  0  0  0  0  0  0  0  0  0
    5.1416   -4.7730    1.6610 H   0  0  0  0  0  0  0  0  0  0  0  0
    4.2143   -4.6020    3.2076 H   0  0  0  0  0  0  0  0  0  0  0  0
    3.4450   -5.3636    1.7767 H   0  0  0  0  0  0  0  0  0  0  0  0
    2.3835   -4.5968   -0.1353 H   0  0  0  0  0  0  0  0  0  0  0  0
    1.2770   -5.5841   -0.9810 H   0  0  0  0  0  0  0  0  0  0  0  0
    0.8480   -3.2643   -1.6215 H   0  0  0  0  0  0  0  0  0  0  0  0
    0.6457   -2.7613    0.1009 H   0  0  0  0  0  0  0  0  0  0  0  0
   -0.5723   -3.8493   -0.6716 H   0  0  0  0  0  0  0  0  0  0  0  0
  -10.0391    0.8318   -3.2740 H   0  0  0  0  0  0  0  0  0  0  0  0
   -9.8253   -0.0724   -4.8212 H   0  0  0  0  0  0  0  0  0  0  0  0
   -7.9264    2.0577   -3.6355 H   0  0  0  0  0  0  0  0  0  0  0  0
   -8.9284    2.1790   -5.1317 H   0  0  0  0  0  0  0  0  0  0  0  0
   -7.5316    1.0432   -5.0772 H   0  0  0  0  0  0  0  0  0  0  0  0
   -6.7517   -1.7649   -0.6105 H   0  0  0  0  0  0  0  0  0  0  0  0
   -5.0524   -4.5019    1.3001 H   0  0  0  0  0  0  0  0  0  0  0  0
  -10.1733   -3.4750    2.3016 H   0  0  0  0  0  0  0  0  0  0  0  0
   -9.3919   -4.5197    3.5387 H   0  0  0  0  0  0  0  0  0  0  0  0
  -10.9127   -5.4986    1.0362 H   0  0  0  0  0  0  0  0  0  0  0  0
  -10.0610   -6.5693    2.2187 H   0  0  0  0  0  0  0  0  0  0  0  0
  -11.4695   -5.5794    2.7462 H   0  0  0  0  0  0  0  0  0  0  0  0
   -4.7986   -4.6102   -6.9585 H   0  0  0  0  0  0  0  0  0  0  0  0
    0.8499   -3.3109   -4.6292 H   0  0  0  0  0  0  0  0  0  0  0  0
    2.5360   -2.4301   -6.1996 H   0  0  0  0  0  0  0  0  0  0  0  0
    3.8347   -2.5920   -8.3162 H   0  0  0  0  0  0  0  0  0  0  0  0
    3.9565   -1.2055   -9.4576 H   0  0  0  0  0  0  0  0  0  0  0  0
    3.6991   -0.8835   -7.7024 H   0  0  0  0  0  0  0  0  0  0  0  0
   -0.5164   -1.8543   -9.1961 H   0  0  0  0  0  0  0  0  0  0  0  0
  1  2  2  3
  2  3  1  0
  3  4  2  0
  3  5  1  0
  5  6  2  0
  6  7  1  0
  7  8  2  0
  8  9  1  0
  9 10  1  0
  8 11  1  0
 11 12  2  0
 12 13  1  0
 13 14  2  3
 14 15  1  0
 15 16  3  0
 14 17  1  0
 17 18  3  0
  1 19  1  0
 19 20  2  0
 20 21  1  0
 20 22  1  0
 22 23  1  0
 22 24  2  0
 24 25  1  0
 25 26  2  0
 26 27  1  0
 27 28  1  0
 28 29  1  0
 29 30  1  0
 30 31  1  0
 31 32  1  0
 30 33  2  0
 33 34  1  0
 33 35  1  0
 27 36  2  0
 36 37  1  0
 37 38  2  0
 36 39  1  0
 39 40  2  0
 40 41  1  0
 41 42  1  0
 41 43  2  0
 43 44  1  0
 44 45  1  0
 43 46  1  0
 24 47  1  0
 47 48  2  0
 48 49  1  0
 49 50  2  0
 50 51  1  0
 51 52  2  0
 52 53  1  0
 53 54  1  0
 54 55  1  0
 53 56  2  0
 48 57  1  0
 57 58  1  0
 58 59  1  0
 59 60  1  0
 60 61  1  0
 61 62  1  0
 62 63  2  0
 63 64  1  0
 64 65  1  0
 62 66  1  0
 66 67  1  0
 67 68  1  0
 68 69  1  0
 69 70  1  0
 70 71  1  0
 71 72  2  0
 72 73  1  0
 73 74  2  0
 74 75  1  0
 75 76  1  0
 76 77  1  0
 75 78  2  0
 70 79  2  0
 79 80  1  0
 80 81  1  0
 81 82  1  0
 82 83  1  0
 83 84  1  0
 84 85  1  0
 85 86  1  0
 86 87  1  0
 87 88  1  0
 88 89  1  0
 86 90  1  0
 90 91  1  0
 83 92  1  0
 92 93  1  0
 79 94  1  0
 94 95  2  0
 95 96  1  0
 95 97  1  0
 97 98  1  0
 97 99  2  0
 99100  1  0
100101  2  0
101102  1  0
102103  1  0
103104  1  0
104105  1  0
105106  1  0
106107  1  0
105108  2  0
108109  1  0
108110  1  0
102111  2  0
111112  1  0
112113  2  0
111114  1  0
114115  2  0
115116  1  0
116117  1  0
116118  2  0
118119  1  0
119120  1  0
118121  1  0
 99122  1  0
122123  2  3
123124  1  0
124125  2  0
124126  1  0
126127  2  0
127128  1  0
128129  2  0
129130  1  0
130131  1  0
129132  1  0
132133  2  0
133134  1  0
134135  2  3
135136  1  0
136137  3  0
135138  1  0
138139  3  0
 13  2  1  0
 38 19  1  0
 46 39  1  0
 89 47  1  0
113 94  1  0
121114  1  0
134123  1  0
 12  5  1  0
 38 25  1  0
 56 49  1  0
 88 57  2  0
113100  1  0
133126  1  0
 34 28  2  0
 87 59  2  0
109103  2  0
 85 60  2  0
 65 61  2  0
 84 66  2  0
 82 67  2  0
 81 69  2  0
 78 71  1  0
  1140  1  0
  6141  1  0
  7142  1  0
 10143  1  0
 10144  1  0
 10145  1  0
 11146  1  0
 31147  1  0
 31148  1  0
 32149  1  0
 32150  1  0
 32151  1  0
 34152  1  0
 40153  1  0
 44154  1  0
 44155  1  0
 45156  1  0
 45157  1  0
 45158  1  0
 50159  1  0
 51160  1  0
 52161  1  0
 54162  1  0
 54163  1  0
 55164  1  0
 55165  1  0
 55166  1  0
 56167  1  0
 72168  1  0
 73169  1  0
 74170  1  0
 76171  1  0
 76172  1  0
 77173  1  0
 77174  1  0
 77175  1  0
 78176  1  0
 90177  1  0
 90178  1  0
 91179  1  0
 91180  1  0
 91181  1  0
 92182  1  0
 92183  1  0
 93184  1  0
 93185  1  0
 93186  1  0
106187  1  0
106188  1  0
107189  1  0
107190  1  0
107191  1  0
109192  1  0
115193  1  0
119194  1  0
119195  1  0
120196  1  0
120197  1  0
120198  1  0
122199  1  0
127200  1  0
128201  1  0
131202  1  0
131203  1  0
131204  1  0
132205  1  0
M  END

