
     RDKit          3D

217242  0  0  0  0  0  0  0  0999 V2000
    2.2223    3.0031   -6.4147 C   0  0  0  0  0  0  0  0  0  0  0  0
    2.4790    3.6220   -5.2407 C   0  0  0  0  0  0  0  0  0  0  0  0
    2.1254    3.1300   -3.8963 C   0  0  0  0  0  0  0  0  0  0  0  0
    1.6486    2.0011   -3.6059 O   0  0  0  0  0  0  0  0  0  0  0  0
    2.2567    4.2250   -2.9591 C   0  0  0  0  0  0  0  0  0  0  0  0
    1.9543    4.2314   -1.5991 C   0  0  0  0  0  0  0  0  0  0  0  0
    2.0355    5.4445   -0.9033 C   0  0  0  0  0  0  0  0  0  0  0  0
    2.3659    6.6377   -1.5739 C   0  0  0  0  0  0  0  0  0  0  0  0
    2.3653    7.8296   -0.8359 O   0  0  0  0  0  0  0  0  0  0  0  0
    2.6526    9.1143   -1.3785 C   0  0  0  0  0  0  0  0  0  0  0  0
    2.6745    6.6012   -2.9554 C   0  0  0  0  0  0  0  0  0  0  0  0
    2.6537    5.3657   -3.6289 C   0  0  0  0  0  0  0  0  0  0  0  0
    2.9290    5.0363   -5.0566 C   0  0  0  0  0  0  0  0  0  0  0  0
    3.6929    5.7599   -5.9167 C   0  0  0  0  0  0  0  0  0  0  0  0
    4.2859    7.0179   -5.5442 C   0  0  0  0  0  0  0  0  0  0  0  0
    4.7749    8.0256   -5.2551 N   0  0  0  0  0  0  0  0  0  0  0  0
    4.1134    5.2446   -7.1969 C   0  0  0  0  0  0  0  0  0  0  0  0
    4.4581    4.8299   -8.2197 N   0  0  0  0  0  0  0  0  0  0  0  0
    1.8308    1.5899   -6.5315 C   0  0  0  0  0  0  0  0  0  0  0  0
    2.4156    0.5259   -5.8566 C   0  0  0  0  0  0  0  0  0  0  0  0
    1.7481   -0.6891   -6.0718 C   0  0  0  0  0  0  0  0  0  0  0  0
    1.9516   -1.8665   -5.3297 C   0  0  0  0  0  0  0  0  0  0  0  0
    2.7809   -1.8195   -4.1146 C   0  0  0  0  0  0  0  0  0  0  0  0
    4.1683   -2.0057   -4.1898 C   0  0  0  0  0  0  0  0  0  0  0  0
    4.9871   -1.6194   -3.1240 C   0  0  0  0  0  0  0  0  0  0  0  0
    4.4268   -1.0026   -1.9917 C   0  0  0  0  0  0  0  0  0  0  0  0
    5.2432   -0.4816   -0.9754 C   0  0  0  0  0  0  0  0  0  0  0  0
    4.6692    0.2201    0.0943 C   0  0  0  0  0  0  0  0  0  0  0  0
    5.7116    0.9604    1.3520 S   0  0  0  0  0  0  0  0  0  0  0  0
    5.7445    2.5889    0.5330 C   0  0  0  0  0  0  0  0  0  0  0  0
    6.4810    3.5915    1.4098 C   0  0  0  0  0  0  0  0  0  0  0  0
    3.2781    0.3505    0.1808 C   0  0  0  0  0  0  0  0  0  0  0  0
    2.4566   -0.1964   -0.8016 C   0  0  0  0  0  0  0  0  0  0  0  0
    3.0214   -0.8565   -1.9013 C   0  0  0  0  0  0  0  0  0  0  0  0
    2.2094   -1.2924   -2.9499 C   0  0  0  0  0  0  0  0  0  0  0  0
    1.0920   -2.9434   -5.5971 C   0  0  0  0  0  0  0  0  0  0  0  0
    0.0511   -2.8585   -6.5278 C   0  0  0  0  0  0  0  0  0  0  0  0
   -0.1929   -1.6554   -7.2312 C   0  0  0  0  0  0  0  0  0  0  0  0
   -1.4475   -1.4202   -7.9828 C   0  0  0  0  0  0  0  0  0  0  0  0
   -1.4144   -0.9645   -9.3111 C   0  0  0  0  0  0  0  0  0  0  0  0
   -2.6032   -0.6055   -9.9670 C   0  0  0  0  0  0  0  0  0  0  0  0
   -2.5785   -0.1000  -11.2769 C   0  0  0  0  0  0  0  0  0  0  0  0
   -3.7643    0.3088  -11.8953 C   0  0  0  0  0  0  0  0  0  0  0  0
   -4.9835    0.2095  -11.2159 C   0  0  0  0  0  0  0  0  0  0  0  0
   -6.4927    0.7943  -11.9954 S   0  0  0  0  0  0  0  0  0  0  0  0
   -6.3022    2.5270  -11.4414 C   0  0  0  0  0  0  0  0  0  0  0  0
   -6.8546    2.7160  -10.0339 C   0  0  0  0  0  0  0  0  0  0  0  0
   -5.0267   -0.3314   -9.9264 C   0  0  0  0  0  0  0  0  0  0  0  0
   -3.8422   -0.7257   -9.2894 C   0  0  0  0  0  0  0  0  0  0  0  0
   -3.8703   -1.2103   -7.9755 C   0  0  0  0  0  0  0  0  0  0  0  0
   -2.6827   -1.5430   -7.3250 C   0  0  0  0  0  0  0  0  0  0  0  0
    0.6965   -0.5908   -6.9871 C   0  0  0  0  0  0  0  0  0  0  0  0
    0.5563    1.0188   -7.4751 S   0  0  0  0  0  0  0  0  0  0  0  0
   -0.7560   -4.0062   -6.5520 C   0  0  0  0  0  0  0  0  0  0  0  0
   -0.3927   -4.9540   -5.5963 C   0  0  0  0  0  0  0  0  0  0  0  0
    0.9593   -4.3887   -4.7537 S   0  0  0  0  0  0  0  0  0  0  0  0
   -1.2568   -6.0526   -5.1371 C   0  0  0  0  0  0  0  0  0  0  0  0
   -2.4591   -6.4287   -5.7523 C   0  0  0  0  0  0  0  0  0  0  0  0
   -3.2911   -7.1145   -4.8713 C   0  0  0  0  0  0  0  0  0  0  0  0
   -4.9779   -7.2107   -4.8777 S   0  0  0  0  0  0  0  0  0  0  0  0
   -5.0380   -7.5518   -3.2167 C   0  0  0  0  0  0  0  0  0  0  0  0
   -5.9131   -7.1285   -2.2477 C   0  0  0  0  0  0  0  0  0  0  0  0
   -7.0853   -6.3797   -2.4337 C   0  0  0  0  0  0  0  0  0  0  0  0
   -7.5520   -5.5405   -1.3781 C   0  0  0  0  0  0  0  0  0  0  0  0
   -8.6246   -4.7525   -1.6358 N   0  0  0  0  0  0  0  0  0  0  0  0
   -8.9045   -5.1753   -3.2128 S   0  0  0  0  0  0  0  0  0  0  0  0
   -7.7535   -6.2970   -3.6149 N   0  0  0  0  0  0  0  0  0  0  0  0
   -6.8813   -5.5739   -0.1549 C   0  0  0  0  0  0  0  0  0  0  0  0
   -7.0406   -4.8265    0.9829 C   0  0  0  0  0  0  0  0  0  0  0  0
   -6.0933   -5.2653    1.8596 C   0  0  0  0  0  0  0  0  0  0  0  0
   -5.3199   -6.2546    1.3539 N   0  0  0  0  0  0  0  0  0  0  0  0
   -4.5888   -7.1970    2.2218 C   0  0  0  0  0  0  0  0  0  0  0  0
   -4.7075   -8.6522    1.7627 C   0  0  0  0  0  0  0  0  0  0  0  0
   -5.7651   -6.3923    0.0638 C   0  0  0  0  0  0  0  0  0  0  0  0
   -5.1746   -7.0465   -1.0530 C   0  0  0  0  0  0  0  0  0  0  0  0
   -3.8363   -7.2416   -1.3199 N   0  0  0  0  0  0  0  0  0  0  0  0
   -3.7945   -7.5508   -2.6478 C   0  0  0  0  0  0  0  0  0  0  0  0
   -2.7965   -7.3008   -3.6025 C   0  0  0  0  0  0  0  0  0  0  0  0
   -1.2722   -6.5927   -3.5261 S   0  0  0  0  0  0  0  0  0  0  0  0
   -2.6940   -6.7094   -0.5667 C   0  0  0  0  0  0  0  0  0  0  0  0
   -2.6564   -5.1810   -0.6121 C   0  0  0  0  0  0  0  0  0  0  0  0
   -5.7465   -4.2958    2.7828 C   0  0  0  0  0  0  0  0  0  0  0  0
   -4.3871   -4.0853    3.7155 S   0  0  0  0  0  0  0  0  0  0  0  0
   -4.6241   -2.4117    3.9285 C   0  0  0  0  0  0  0  0  0  0  0  0
   -5.7647   -2.0005    3.2167 C   0  0  0  0  0  0  0  0  0  0  0  0
   -6.3719   -3.0917    2.5840 C   0  0  0  0  0  0  0  0  0  0  0  0
   -7.4157   -3.1835    1.2400 S   0  0  0  0  0  0  0  0  0  0  0  0
   -3.6062   -1.5578    4.5564 C   0  0  0  0  0  0  0  0  0  0  0  0
   -3.6616   -0.1870    4.8309 C   0  0  0  0  0  0  0  0  0  0  0  0
   -2.4515    0.3085    5.3741 C   0  0  0  0  0  0  0  0  0  0  0  0
   -2.1425    1.6519    5.6828 C   0  0  0  0  0  0  0  0  0  0  0  0
   -3.0684    2.7613    5.3614 C   0  0  0  0  0  0  0  0  0  0  0  0
   -2.7144    3.6897    4.3690 C   0  0  0  0  0  0  0  0  0  0  0  0
   -3.5559    4.7616    4.0663 C   0  0  0  0  0  0  0  0  0  0  0  0
   -4.7636    4.9244    4.7559 C   0  0  0  0  0  0  0  0  0  0  0  0
   -5.5967    6.0208    4.4788 C   0  0  0  0  0  0  0  0  0  0  0  0
   -6.7966    6.1852    5.1767 C   0  0  0  0  0  0  0  0  0  0  0  0
   -7.8249    7.6302    4.8798 S   0  0  0  0  0  0  0  0  0  0  0  0
   -8.8024    6.8836    3.5264 C   0  0  0  0  0  0  0  0  0  0  0  0
   -8.2046    7.2533    2.1741 C   0  0  0  0  0  0  0  0  0  0  0  0
   -7.1753    5.2502    6.1478 C   0  0  0  0  0  0  0  0  0  0  0  0
   -6.3516    4.1543    6.4339 C   0  0  0  0  0  0  0  0  0  0  0  0
   -5.1382    3.9869    5.7476 C   0  0  0  0  0  0  0  0  0  0  0  0
   -4.2863    2.9068    6.0447 C   0  0  0  0  0  0  0  0  0  0  0  0
   -0.8340    1.9151    6.1440 C   0  0  0  0  0  0  0  0  0  0  0  0
    0.1568    0.9291    6.2109 C   0  0  0  0  0  0  0  0  0  0  0  0
   -0.1290   -0.4006    5.8460 C   0  0  0  0  0  0  0  0  0  0  0  0
    0.9341   -1.3933    5.5534 C   0  0  0  0  0  0  0  0  0  0  0  0
    1.8874   -1.0829    4.5701 C   0  0  0  0  0  0  0  0  0  0  0  0
    2.6508   -2.0955    3.9809 C   0  0  0  0  0  0  0  0  0  0  0  0
    3.5294   -1.7970    2.9318 C   0  0  0  0  0  0  0  0  0  0  0  0
    4.1411   -2.8234    2.2102 C   0  0  0  0  0  0  0  0  0  0  0  0
    3.8926   -4.1584    2.5448 C   0  0  0  0  0  0  0  0  0  0  0  0
    4.5599   -5.4652    1.5100 S   0  0  0  0  0  0  0  0  0  0  0  0
    3.1888   -5.3710    0.3032 C   0  0  0  0  0  0  0  0  0  0  0  0
    3.4200   -6.3497   -0.8394 C   0  0  0  0  0  0  0  0  0  0  0  0
    3.0894   -4.4676    3.6513 C   0  0  0  0  0  0  0  0  0  0  0  0
    2.4673   -3.4399    4.3792 C   0  0  0  0  0  0  0  0  0  0  0  0
    1.6102   -3.7286    5.4528 C   0  0  0  0  0  0  0  0  0  0  0  0
    0.8549   -2.7071    6.0428 C   0  0  0  0  0  0  0  0  0  0  0  0
   -1.4618   -0.6785    5.4904 C   0  0  0  0  0  0  0  0  0  0  0  0
   -2.0759   -2.1336    4.9448 S   0  0  0  0  0  0  0  0  0  0  0  0
    1.4146    1.4277    6.5830 C   0  0  0  0  0  0  0  0  0  0  0  0
    1.4049    2.7950    6.8539 C   0  0  0  0  0  0  0  0  0  0  0  0
   -0.1456    3.3948    6.5585 S   0  0  0  0  0  0  0  0  0  0  0  0
    2.5947    3.6488    7.0216 C   0  0  0  0  0  0  0  0  0  0  0  0
    3.7791    3.2264    7.5054 C   0  0  0  0  0  0  0  0  0  0  0  0
    3.9730    2.1256    8.4606 C   0  0  0  0  0  0  0  0  0  0  0  0
    3.0762    1.3828    8.9446 O   0  0  0  0  0  0  0  0  0  0  0  0
    5.3438    2.1621    8.9205 C   0  0  0  0  0  0  0  0  0  0  0  0
    5.9504    1.3519    9.8777 C   0  0  0  0  0  0  0  0  0  0  0  0
    7.2716    1.6257   10.2516 C   0  0  0  0  0  0  0  0  0  0  0  0
    7.9640    2.7220    9.6800 C   0  0  0  0  0  0  0  0  0  0  0  0
    9.2741    3.0533   10.0501 O   0  0  0  0  0  0  0  0  0  0  0  0
   10.0285    2.3666   11.0461 C   0  0  0  0  0  0  0  0  0  0  0  0
    7.3201    3.5234    8.7194 C   0  0  0  0  0  0  0  0  0  0  0  0
    6.0089    3.2165    8.3257 C   0  0  0  0  0  0  0  0  0  0  0  0
    5.1058    3.9008    7.3569 C   0  0  0  0  0  0  0  0  0  0  0  0
    5.4837    4.7278    6.3443 C   0  0  0  0  0  0  0  0  0  0  0  0
    4.5716    5.1630    5.3145 C   0  0  0  0  0  0  0  0  0  0  0  0
    3.8416    5.5249    4.4929 N   0  0  0  0  0  0  0  0  0  0  0  0
    6.8486    5.1367    6.1411 C   0  0  0  0  0  0  0  0  0  0  0  0
    7.9415    5.4729    5.9592 N   0  0  0  0  0  0  0  0  0  0  0  0
    2.2254    3.5663   -7.3354 H   0  0  0  0  0  0  0  0  0  0  0  0
    1.6480    3.3254   -1.0916 H   0  0  0  0  0  0  0  0  0  0  0  0
    1.8069    5.4669    0.1541 H   0  0  0  0  0  0  0  0  0  0  0  0
    3.6859    9.1347   -1.7827 H   0  0  0  0  0  0  0  0  0  0  0  0
    1.9229    9.3668   -2.1810 H   0  0  0  0  0  0  0  0  0  0  0  0
    2.5708    9.8747   -0.5730 H   0  0  0  0  0  0  0  0  0  0  0  0
    2.8854    7.5131   -3.4816 H   0  0  0  0  0  0  0  0  0  0  0  0
    3.2560    0.6435   -5.1815 H   0  0  0  0  0  0  0  0  0  0  0  0
    4.6178   -2.3831   -5.1009 H   0  0  0  0  0  0  0  0  0  0  0  0
    6.0620   -1.7357   -3.2158 H   0  0  0  0  0  0  0  0  0  0  0  0
    6.3217   -0.5803   -1.0319 H   0  0  0  0  0  0  0  0  0  0  0  0
    6.2609    2.5009   -0.4474 H   0  0  0  0  0  0  0  0  0  0  0  0
    4.7071    2.9528    0.3660 H   0  0  0  0  0  0  0  0  0  0  0  0
    7.5100    3.2287    1.6242 H   0  0  0  0  0  0  0  0  0  0  0  0
    6.5474    4.5689    0.8836 H   0  0  0  0  0  0  0  0  0  0  0  0
    5.9320    3.7377    2.3663 H   0  0  0  0  0  0  0  0  0  0  0  0
    2.8325    0.8867    1.0091 H   0  0  0  0  0  0  0  0  0  0  0  0
    1.3850   -0.0669   -0.7244 H   0  0  0  0  0  0  0  0  0  0  0  0
    1.1378   -1.1231   -2.9150 H   0  0  0  0  0  0  0  0  0  0  0  0
   -0.4612   -0.8564   -9.8183 H   0  0  0  0  0  0  0  0  0  0  0  0
   -1.6414   -0.0044  -11.8125 H   0  0  0  0  0  0  0  0  0  0  0  0
   -3.7311    0.7158  -12.8972 H   0  0  0  0  0  0  0  0  0  0  0  0
   -5.2374    2.8424  -11.4772 H   0  0  0  0  0  0  0  0  0  0  0  0
   -6.8692    3.1746  -12.1402 H   0  0  0  0  0  0  0  0  0  0  0  0
   -6.2865    2.1059   -9.3046 H   0  0  0  0  0  0  0  0  0  0  0  0
   -7.9250    2.4240  -10.0046 H   0  0  0  0  0  0  0  0  0  0  0  0
   -6.7670    3.7834   -9.7423 H   0  0  0  0  0  0  0  0  0  0  0  0
   -5.9793   -0.4154   -9.4139 H   0  0  0  0  0  0  0  0  0  0  0  0
   -4.8098   -1.3048   -7.4429 H   0  0  0  0  0  0  0  0  0  0  0  0
   -2.7233   -1.8685   -6.2912 H   0  0  0  0  0  0  0  0  0  0  0  0
   -1.6341   -4.0972   -7.1778 H   0  0  0  0  0  0  0  0  0  0  0  0
   -2.7900   -6.0668   -6.7175 H   0  0  0  0  0  0  0  0  0  0  0  0
   -3.5366   -6.8797    2.3643 H   0  0  0  0  0  0  0  0  0  0  0  0
   -5.0308   -7.1558    3.2435 H   0  0  0  0  0  0  0  0  0  0  0  0
   -4.1336   -8.8367    0.8331 H   0  0  0  0  0  0  0  0  0  0  0  0
   -5.7764   -8.9128    1.5971 H   0  0  0  0  0  0  0  0  0  0  0  0
   -4.2975   -9.3206    2.5495 H   0  0  0  0  0  0  0  0  0  0  0  0
   -2.6952   -7.0649    0.4654 H   0  0  0  0  0  0  0  0  0  0  0  0
   -1.7483   -7.1206   -0.9707 H   0  0  0  0  0  0  0  0  0  0  0  0
   -1.6571   -4.8186   -0.2990 H   0  0  0  0  0  0  0  0  0  0  0  0
   -3.4207   -4.7450    0.0673 H   0  0  0  0  0  0  0  0  0  0  0  0
   -2.8545   -4.8198   -1.6433 H   0  0  0  0  0  0  0  0  0  0  0  0
   -6.0538   -0.9689    3.0616 H   0  0  0  0  0  0  0  0  0  0  0  0
   -4.5288    0.4249    4.6284 H   0  0  0  0  0  0  0  0  0  0  0  0
   -1.7813    3.5823    3.8323 H   0  0  0  0  0  0  0  0  0  0  0  0
   -3.2576    5.4645    3.2993 H   0  0  0  0  0  0  0  0  0  0  0  0
   -5.3098    6.7501    3.7311 H   0  0  0  0  0  0  0  0  0  0  0  0
   -8.8609    5.7781    3.6262 H   0  0  0  0  0  0  0  0  0  0  0  0
   -9.8348    7.2896    3.5813 H   0  0  0  0  0  0  0  0  0  0  0  0
   -7.1801    6.8394    2.0792 H   0  0  0  0  0  0  0  0  0  0  0  0
   -8.1700    8.3578    2.0619 H   0  0  0  0  0  0  0  0  0  0  0  0
   -8.8330    6.8327    1.3605 H   0  0  0  0  0  0  0  0  0  0  0  0
   -8.0999    5.3797    6.6957 H   0  0  0  0  0  0  0  0  0  0  0  0
   -6.6566    3.4481    7.1980 H   0  0  0  0  0  0  0  0  0  0  0  0
   -4.5606    2.1905    6.8123 H   0  0  0  0  0  0  0  0  0  0  0  0
    1.9512   -0.0732    4.1829 H   0  0  0  0  0  0  0  0  0  0  0  0
    3.7081   -0.7689    2.6528 H   0  0  0  0  0  0  0  0  0  0  0  0
    4.7766   -2.5775    1.3684 H   0  0  0  0  0  0  0  0  0  0  0  0
    3.1170   -4.3400   -0.1124 H   0  0  0  0  0  0  0  0  0  0  0  0
    2.2325   -5.6235    0.8128 H   0  0  0  0  0  0  0  0  0  0  0  0
    2.5679   -6.2967   -1.5505 H   0  0  0  0  0  0  0  0  0  0  0  0
    4.3562   -6.0921   -1.3845 H   0  0  0  0  0  0  0  0  0  0  0  0
    3.4918   -7.3877   -0.4460 H   0  0  0  0  0  0  0  0  0  0  0  0
    2.9123   -5.5056    3.9067 H   0  0  0  0  0  0  0  0  0  0  0  0
    1.4780   -4.7501    5.7914 H   0  0  0  0  0  0  0  0  0  0  0  0
    0.1368   -2.9609    6.8111 H   0  0  0  0  0  0  0  0  0  0  0  0
    2.3083    0.8203    6.5917 H   0  0  0  0  0  0  0  0  0  0  0  0
    2.5014    4.6559    6.6456 H   0  0  0  0  0  0  0  0  0  0  0  0
    5.4109    0.5324   10.3326 H   0  0  0  0  0  0  0  0  0  0  0  0
    7.7462    0.9895   10.9894 H   0  0  0  0  0  0  0  0  0  0  0  0
   10.1681    1.3053   10.7628 H   0  0  0  0  0  0  0  0  0  0  0  0
   11.0305    2.8431   11.1320 H   0  0  0  0  0  0  0  0  0  0  0  0
    9.5142    2.4446   12.0319 H   0  0  0  0  0  0  0  0  0  0  0  0
    7.8486    4.3779    8.3337 H   0  0  0  0  0  0  0  0  0  0  0  0
  1  2  2  3
  2  3  1  0
  3  4  2  0
  3  5  1  0
  5  6  2  0
  6  7  1  0
  7  8  2  0
  8  9  1  0
  9 10  1  0
  8 11  1  0
 11 12  2  0
 12 13  1  0
 13 14  2  3
 14 15  1  0
 15 16  3  0
 14 17  1  0
 17 18  3  0
  1 19  1  0
 19 20  2  0
 20 21  1  0
 21 22  2  0
 22 23  1  0
 23 24  2  0
 24 25  1  0
 25 26  2  0
 26 27  1  0
 27 28  2  0
 28 29  1  0
 29 30  1  0
 30 31  1  0
 28 32  1  0
 32 33  2  0
 33 34  1  0
 34 35  2  0
 22 36  1  0
 36 37  2  0
 37 38  1  0
 38 39  1  0
 39 40  2  0
 40 41  1  0
 41 42  2  0
 42 43  1  0
 43 44  2  0
 44 45  1  0
 45 46  1  0
 46 47  1  0
 44 48  1  0
 48 49  2  0
 49 50  1  0
 50 51  2  0
 38 52  2  0
 52 53  1  0
 37 54  1  0
 54 55  2  0
 55 56  1  0
 55 57  1  0
 57 58  2  0
 58 59  1  0
 59 60  1  0
 60 61  1  0
 61 62  1  0
 62 63  1  0
 63 64  1  0
 64 65  2  0
 65 66  1  0
 66 67  1  0
 64 68  1  0
 68 69  1  0
 69 70  2  0
 70 71  1  0
 71 72  1  0
 72 73  1  0
 71 74  1  0
 74 75  1  0
 75 76  1  0
 76 77  1  0
 77 78  1  0
 78 79  1  0
 76 80  1  0
 80 81  1  0
 70 82  1  0
 82 83  1  0
 83 84  1  0
 84 85  2  0
 85 86  1  0
 86 87  1  0
 84 88  1  0
 88 89  2  0
 89 90  1  0
 90 91  2  0
 91 92  1  0
 92 93  2  0
 93 94  1  0
 94 95  2  0
 95 96  1  0
 96 97  2  0
 97 98  1  0
 98 99  1  0
 99100  1  0
 97101  1  0
101102  2  0
102103  1  0
103104  2  0
 91105  1  0
105106  2  0
106107  1  0
107108  1  0
108109  2  0
109110  1  0
110111  2  0
111112  1  0
112113  2  0
113114  1  0
114115  1  0
115116  1  0
113117  1  0
117118  2  0
118119  1  0
119120  2  0
107121  2  0
121122  1  0
106123  1  0
123124  2  0
124125  1  0
124126  1  0
126127  2  3
127128  1  0
128129  2  0
128130  1  0
130131  2  0
131132  1  0
132133  2  0
133134  1  0
134135  1  0
133136  1  0
136137  2  0
137138  1  0
138139  2  3
139140  1  0
140141  3  0
139142  1  0
142143  3  0
 13  2  1  0
 53 19  1  0
 79 57  1  0
 86 82  2  0
122 88  1  0
138127  1  0
 12  5  1  0
 52 21  1  0
 78 59  2  0
121 90  1  0
137130  1  0
 35 23  1  0
 56 36  1  0
 77 61  2  0
104 92  1  0
125105  1  0
 34 26  1  0
 51 39  1  0
 75 62  2  0
103 95  1  0
120108  1  0
 49 41  1  0
 67 63  2  0
 74 68  2  0
118110  1  0
 87 69  1  0
  1144  1  0
  6145  1  0
  7146  1  0
 10147  1  0
 10148  1  0
 10149  1  0
 11150  1  0
 20151  1  0
 24152  1  0
 25153  1  0
 27154  1  0
 30155  1  0
 30156  1  0
 31157  1  0
 31158  1  0
 31159  1  0
 32160  1  0
 33161  1  0
 35162  1  0
 40163  1  0
 42164  1  0
 43165  1  0
 46166  1  0
 46167  1  0
 47168  1  0
 47169  1  0
 47170  1  0
 48171  1  0
 50172  1  0
 51173  1  0
 54174  1  0
 58175  1  0
 72176  1  0
 72177  1  0
 73178  1  0
 73179  1  0
 73180  1  0
 80181  1  0
 80182  1  0
 81183  1  0
 81184  1  0
 81185  1  0
 85186  1  0
 89187  1  0
 93188  1  0
 94189  1  0
 96190  1  0
 99191  1  0
 99192  1  0
100193  1  0
100194  1  0
100195  1  0
101196  1  0
102197  1  0
104198  1  0
109199  1  0
111200  1  0
112201  1  0
115202  1  0
115203  1  0
116204  1  0
116205  1  0
116206  1  0
117207  1  0
119208  1  0
120209  1  0
123210  1  0
126211  1  0
131212  1  0
132213  1  0
135214  1  0
135215  1  0
135216  1  0
136217  1  0
M  END

