
     RDKit          3D

211233  0  0  0  0  0  0  0  0999 V2000
   -5.0776    0.4103   -8.4006 C   0  0  0  0  0  0  0  0  0  0  0  0
   -4.9334   -0.5944   -7.5066 C   0  0  0  0  0  0  0  0  0  0  0  0
   -3.8587   -0.6886   -6.5092 C   0  0  0  0  0  0  0  0  0  0  0  0
   -2.8286    0.0337   -6.4440 O   0  0  0  0  0  0  0  0  0  0  0  0
   -4.1530   -1.7860   -5.6156 C   0  0  0  0  0  0  0  0  0  0  0  0
   -3.4805   -2.1229   -4.4439 C   0  0  0  0  0  0  0  0  0  0  0  0
   -4.0318   -3.1076   -3.6208 C   0  0  0  0  0  0  0  0  0  0  0  0
   -5.2732   -3.6815   -3.9431 C   0  0  0  0  0  0  0  0  0  0  0  0
   -5.9663   -3.3001   -5.1221 C   0  0  0  0  0  0  0  0  0  0  0  0
   -7.2831   -3.7133   -5.3650 O   0  0  0  0  0  0  0  0  0  0  0  0
   -8.0219   -4.5913   -4.5210 C   0  0  0  0  0  0  0  0  0  0  0  0
   -5.3249   -2.4069   -6.0092 C   0  0  0  0  0  0  0  0  0  0  0  0
   -5.8011   -1.7988   -7.2897 C   0  0  0  0  0  0  0  0  0  0  0  0
   -6.6337   -2.3829   -8.1898 C   0  0  0  0  0  0  0  0  0  0  0  0
   -7.1201   -1.7134   -9.3673 C   0  0  0  0  0  0  0  0  0  0  0  0
   -7.5313   -1.1833  -10.3123 N   0  0  0  0  0  0  0  0  0  0  0  0
   -6.9957   -3.7739   -8.0950 C   0  0  0  0  0  0  0  0  0  0  0  0
   -7.2836   -4.8948   -8.0388 N   0  0  0  0  0  0  0  0  0  0  0  0
   -4.2827    1.6446   -8.3198 C   0  0  0  0  0  0  0  0  0  0  0  0
   -4.3923    2.4560   -7.1770 C   0  0  0  0  0  0  0  0  0  0  0  0
   -3.5027    3.5168   -7.0270 C   0  0  0  0  0  0  0  0  0  0  0  0
   -3.2374    4.3167   -5.8439 C   0  0  0  0  0  0  0  0  0  0  0  0
   -3.8937    4.3097   -4.7680 O   0  0  0  0  0  0  0  0  0  0  0  0
   -2.0111    5.0554   -6.1132 C   0  0  0  0  0  0  0  0  0  0  0  0
   -1.5925    4.7592   -7.3990 C   0  0  0  0  0  0  0  0  0  0  0  0
   -2.5269    3.7847   -7.9711 C   0  0  0  0  0  0  0  0  0  0  0  0
   -2.4378    3.0338   -9.1450 C   0  0  0  0  0  0  0  0  0  0  0  0
   -3.3379    1.9618   -9.3232 C   0  0  0  0  0  0  0  0  0  0  0  0
   -0.3463    5.1864   -7.8637 C   0  0  0  0  0  0  0  0  0  0  0  0
    0.4882    5.9002   -6.9814 C   0  0  0  0  0  0  0  0  0  0  0  0
    0.0761    6.1663   -5.6577 C   0  0  0  0  0  0  0  0  0  0  0  0
   -1.1965    5.7386   -5.2200 C   0  0  0  0  0  0  0  0  0  0  0  0
    1.0634    6.5923   -4.6556 C   0  0  0  0  0  0  0  0  0  0  0  0
    1.0423    7.7616   -3.8732 C   0  0  0  0  0  0  0  0  0  0  0  0
    0.2423    8.9701   -4.1564 C   0  0  0  0  0  0  0  0  0  0  0  0
   -1.1577    8.9582   -4.0861 C   0  0  0  0  0  0  0  0  0  0  0  0
   -1.8840   10.1251   -4.3540 C   0  0  0  0  0  0  0  0  0  0  0  0
   -1.2173   11.3028   -4.6979 C   0  0  0  0  0  0  0  0  0  0  0  0
    0.1843   11.3272   -4.7684 C   0  0  0  0  0  0  0  0  0  0  0  0
    0.9131   12.6033   -5.0949 C   0  0  0  0  0  0  0  0  0  0  0  0
    1.1668   13.4222   -3.8322 C   0  0  0  0  0  0  0  0  0  0  0  0
    0.9092   10.1647   -4.4655 C   0  0  0  0  0  0  0  0  0  0  0  0
    1.9665    7.6792   -2.8249 C   0  0  0  0  0  0  0  0  0  0  0  0
    2.0273    8.4916   -1.3423 S   0  0  0  0  0  0  0  0  0  0  0  0
    3.0593    7.3275   -0.6574 C   0  0  0  0  0  0  0  0  0  0  0  0
    3.0879    6.7830    0.6010 C   0  0  0  0  0  0  0  0  0  0  0  0
    2.4171    7.2417    1.7431 C   0  0  0  0  0  0  0  0  0  0  0  0
    2.1168    6.3185    2.7776 C   0  0  0  0  0  0  0  0  0  0  0  0
    1.3795    6.7758    3.8186 N   0  0  0  0  0  0  0  0  0  0  0  0
    1.1494    8.3377    3.3402 S   0  0  0  0  0  0  0  0  0  0  0  0
    1.9236    8.4955    1.8867 N   0  0  0  0  0  0  0  0  0  0  0  0
    2.5755    5.0071    2.6619 C   0  0  0  0  0  0  0  0  0  0  0  0
    2.3512    3.9089    3.4388 C   0  0  0  0  0  0  0  0  0  0  0  0
    1.2574    3.3778    4.6346 S   0  0  0  0  0  0  0  0  0  0  0  0
    1.7174    1.7480    4.3677 C   0  0  0  0  0  0  0  0  0  0  0  0
    1.1737    0.5149    4.7415 C   0  0  0  0  0  0  0  0  0  0  0  0
    0.1918    0.3207    5.8145 C   0  0  0  0  0  0  0  0  0  0  0  0
    0.5590   -0.4358    6.9392 C   0  0  0  0  0  0  0  0  0  0  0  0
   -0.3560   -0.6554    7.9681 C   0  0  0  0  0  0  0  0  0  0  0  0
   -1.6471   -0.1218    7.8838 C   0  0  0  0  0  0  0  0  0  0  0  0
   -2.0277    0.6281    6.7570 C   0  0  0  0  0  0  0  0  0  0  0  0
   -3.4305    1.1815    6.6650 C   0  0  0  0  0  0  0  0  0  0  0  0
   -4.4549    0.0730    6.4443 C   0  0  0  0  0  0  0  0  0  0  0  0
   -1.1005    0.8573    5.7258 C   0  0  0  0  0  0  0  0  0  0  0  0
    1.7069   -0.5251    3.9595 C   0  0  0  0  0  0  0  0  0  0  0  0
    2.8689    0.1008    2.8747 S   0  0  0  0  0  0  0  0  0  0  0  0
    2.6779    1.6679    3.3895 C   0  0  0  0  0  0  0  0  0  0  0  0
    3.0163    2.8897    2.8544 C   0  0  0  0  0  0  0  0  0  0  0  0
    3.6755    3.2368    1.7299 N   0  0  0  0  0  0  0  0  0  0  0  0
    3.3411    4.5592    1.5662 C   0  0  0  0  0  0  0  0  0  0  0  0
    3.4993    5.4389    0.4518 C   0  0  0  0  0  0  0  0  0  0  0  0
    3.6360    5.1495   -0.8915 N   0  0  0  0  0  0  0  0  0  0  0  0
    3.3259    6.3119   -1.5277 C   0  0  0  0  0  0  0  0  0  0  0  0
    2.6912    6.5151   -2.7605 C   0  0  0  0  0  0  0  0  0  0  0  0
    2.1940    5.5066   -4.0046 S   0  0  0  0  0  0  0  0  0  0  0  0
    3.7276    3.8570   -1.5802 C   0  0  0  0  0  0  0  0  0  0  0  0
    2.4197    3.0705   -1.4635 C   0  0  0  0  0  0  0  0  0  0  0  0
    4.8252    2.4695    1.2304 C   0  0  0  0  0  0  0  0  0  0  0  0
    6.0855    3.3251    1.1282 C   0  0  0  0  0  0  0  0  0  0  0  0
    1.0986   -1.8436    3.7407 C   0  0  0  0  0  0  0  0  0  0  0  0
    0.8673   -2.3548    2.4554 C   0  0  0  0  0  0  0  0  0  0  0  0
    0.5636   -1.5334    1.3110 N   0  0  0  0  0  0  0  0  0  0  0  0
   -0.3260   -0.4088    1.4808 C   0  0  0  0  0  0  0  0  0  0  0  0
   -1.5211   -0.5479    2.2076 C   0  0  0  0  0  0  0  0  0  0  0  0
   -2.3543    0.5556    2.4214 C   0  0  0  0  0  0  0  0  0  0  0  0
   -1.9908    1.8187    1.9335 C   0  0  0  0  0  0  0  0  0  0  0  0
   -2.8482    3.0203    2.2077 C   0  0  0  0  0  0  0  0  0  0  0  0
   -0.8006    1.9624    1.2073 C   0  0  0  0  0  0  0  0  0  0  0  0
    0.0186    0.8543    0.9744 C   0  0  0  0  0  0  0  0  0  0  0  0
    1.2228   -1.7396    0.0452 C   0  0  0  0  0  0  0  0  0  0  0  0
    0.5246   -1.5305   -1.1600 C   0  0  0  0  0  0  0  0  0  0  0  0
    1.1930   -1.5709   -2.3814 C   0  0  0  0  0  0  0  0  0  0  0  0
    2.5726   -1.8156   -2.4280 C   0  0  0  0  0  0  0  0  0  0  0  0
    3.3018   -1.8132   -3.7419 C   0  0  0  0  0  0  0  0  0  0  0  0
    3.2612   -2.0828   -1.2360 C   0  0  0  0  0  0  0  0  0  0  0  0
    2.5931   -2.0390   -0.0074 C   0  0  0  0  0  0  0  0  0  0  0  0
    0.8253   -3.7443    2.4681 C   0  0  0  0  0  0  0  0  0  0  0  0
    1.1583   -4.8817    1.2927 S   0  0  0  0  0  0  0  0  0  0  0  0
    1.3593   -6.1620    2.3961 C   0  0  0  0  0  0  0  0  0  0  0  0
    1.0760   -5.7120    3.7127 C   0  0  0  0  0  0  0  0  0  0  0  0
    1.0083   -6.5277    4.9152 N   0  0  0  0  0  0  0  0  0  0  0  0
    1.2301   -7.9456    4.8553 C   0  0  0  0  0  0  0  0  0  0  0  0
    0.1672   -8.8072    4.5419 C   0  0  0  0  0  0  0  0  0  0  0  0
    0.3752  -10.1880    4.4735 C   0  0  0  0  0  0  0  0  0  0  0  0
    1.6460  -10.7232    4.7331 C   0  0  0  0  0  0  0  0  0  0  0  0
    1.8641  -12.2025    4.6162 C   0  0  0  0  0  0  0  0  0  0  0  0
    2.7067   -9.8618    5.0636 C   0  0  0  0  0  0  0  0  0  0  0  0
    2.4948   -8.4794    5.1285 C   0  0  0  0  0  0  0  0  0  0  0  0
    0.3290   -6.0350    6.0847 C   0  0  0  0  0  0  0  0  0  0  0  0
    0.9736   -6.0503    7.3306 C   0  0  0  0  0  0  0  0  0  0  0  0
    0.3272   -5.5483    8.4635 C   0  0  0  0  0  0  0  0  0  0  0  0
   -0.9792   -5.0472    8.3681 C   0  0  0  0  0  0  0  0  0  0  0  0
   -1.6691   -4.4758    9.5687 C   0  0  0  0  0  0  0  0  0  0  0  0
   -1.6352   -5.0485    7.1271 C   0  0  0  0  0  0  0  0  0  0  0  0
   -0.9843   -5.5369    5.9907 C   0  0  0  0  0  0  0  0  0  0  0  0
    0.8865   -4.3212    3.7004 C   0  0  0  0  0  0  0  0  0  0  0  0
    1.1383   -3.1229    4.8590 S   0  0  0  0  0  0  0  0  0  0  0  0
    1.9341   -7.4634    2.0102 C   0  0  0  0  0  0  0  0  0  0  0  0
    3.1164   -7.5859    1.3786 C   0  0  0  0  0  0  0  0  0  0  0  0
    3.4576   -8.7470    0.5571 C   0  0  0  0  0  0  0  0  0  0  0  0
    2.9392   -9.8886    0.6363 O   0  0  0  0  0  0  0  0  0  0  0  0
    4.4506   -8.3290   -0.4137 C   0  0  0  0  0  0  0  0  0  0  0  0
    4.9268   -9.0356   -1.5155 C   0  0  0  0  0  0  0  0  0  0  0  0
    5.7676   -8.3801   -2.4174 C   0  0  0  0  0  0  0  0  0  0  0  0
    6.0951   -7.0258   -2.2333 C   0  0  0  0  0  0  0  0  0  0  0  0
    5.5829   -6.3050   -1.1292 C   0  0  0  0  0  0  0  0  0  0  0  0
    5.8064   -4.9214   -0.9813 O   0  0  0  0  0  0  0  0  0  0  0  0
    6.6262   -4.1374   -1.8459 C   0  0  0  0  0  0  0  0  0  0  0  0
    4.8051   -7.0110   -0.1840 C   0  0  0  0  0  0  0  0  0  0  0  0
    4.1476   -6.5419    1.0686 C   0  0  0  0  0  0  0  0  0  0  0  0
    4.7255   -5.7187    1.9801 C   0  0  0  0  0  0  0  0  0  0  0  0
    5.9899   -5.0661    1.7501 C   0  0  0  0  0  0  0  0  0  0  0  0
    7.0072   -4.5346    1.5921 N   0  0  0  0  0  0  0  0  0  0  0  0
    4.2543   -5.5835    3.3336 C   0  0  0  0  0  0  0  0  0  0  0  0
    3.9167   -5.4287    4.4274 N   0  0  0  0  0  0  0  0  0  0  0  0
   -5.8303    0.3860   -9.1706 H   0  0  0  0  0  0  0  0  0  0  0  0
   -2.5655   -1.6199   -4.1597 H   0  0  0  0  0  0  0  0  0  0  0  0
   -3.5272   -3.3993   -2.7089 H   0  0  0  0  0  0  0  0  0  0  0  0
   -5.7074   -4.3913   -3.2500 H   0  0  0  0  0  0  0  0  0  0  0  0
   -7.4972   -5.5686   -4.4409 H   0  0  0  0  0  0  0  0  0  0  0  0
   -9.0260   -4.7621   -4.9629 H   0  0  0  0  0  0  0  0  0  0  0  0
   -8.1392   -4.1386   -3.5113 H   0  0  0  0  0  0  0  0  0  0  0  0
   -5.0865    2.2137   -6.3812 H   0  0  0  0  0  0  0  0  0  0  0  0
   -1.6705    3.2297   -9.8775 H   0  0  0  0  0  0  0  0  0  0  0  0
   -3.2547    1.3362  -10.2057 H   0  0  0  0  0  0  0  0  0  0  0  0
    0.0079    4.9129   -8.8494 H   0  0  0  0  0  0  0  0  0  0  0  0
    1.4865    6.1730   -7.3023 H   0  0  0  0  0  0  0  0  0  0  0  0
   -1.4905    5.8191   -4.1825 H   0  0  0  0  0  0  0  0  0  0  0  0
   -1.6893    8.0679   -3.7875 H   0  0  0  0  0  0  0  0  0  0  0  0
   -2.9680   10.1183   -4.2905 H   0  0  0  0  0  0  0  0  0  0  0  0
   -1.7893   12.2037   -4.8965 H   0  0  0  0  0  0  0  0  0  0  0  0
    0.3189   13.2086   -5.8130 H   0  0  0  0  0  0  0  0  0  0  0  0
    1.8845   12.3758   -5.5863 H   0  0  0  0  0  0  0  0  0  0  0  0
    0.2056   13.7760   -3.4031 H   0  0  0  0  0  0  0  0  0  0  0  0
    1.6968   12.8103   -3.0736 H   0  0  0  0  0  0  0  0  0  0  0  0
    1.7955   14.3036   -4.0856 H   0  0  0  0  0  0  0  0  0  0  0  0
    1.9927   10.1873   -4.4969 H   0  0  0  0  0  0  0  0  0  0  0  0
    1.5536   -0.8531    7.0197 H   0  0  0  0  0  0  0  0  0  0  0  0
   -0.0652   -1.2415    8.8326 H   0  0  0  0  0  0  0  0  0  0  0  0
   -2.3457   -0.3131    8.6887 H   0  0  0  0  0  0  0  0  0  0  0  0
   -3.5160    1.9234    5.8351 H   0  0  0  0  0  0  0  0  0  0  0  0
   -3.6757    1.7243    7.6104 H   0  0  0  0  0  0  0  0  0  0  0  0
   -4.4273   -0.6478    7.2894 H   0  0  0  0  0  0  0  0  0  0  0  0
   -4.2283   -0.4658    5.4984 H   0  0  0  0  0  0  0  0  0  0  0  0
   -5.4770    0.5096    6.3853 H   0  0  0  0  0  0  0  0  0  0  0  0
   -1.3742    1.4427    4.8672 H   0  0  0  0  0  0  0  0  0  0  0  0
    4.6012    3.2913   -1.2508 H   0  0  0  0  0  0  0  0  0  0  0  0
    3.9594    4.0125   -2.6535 H   0  0  0  0  0  0  0  0  0  0  0  0
    1.5498    3.7298   -1.6724 H   0  0  0  0  0  0  0  0  0  0  0  0
    2.4087    2.2499   -2.2045 H   0  0  0  0  0  0  0  0  0  0  0  0
    2.3028    2.6492   -0.4471 H   0  0  0  0  0  0  0  0  0  0  0  0
    5.0711    1.6548    1.9457 H   0  0  0  0  0  0  0  0  0  0  0  0
    4.5877    1.9314    0.2945 H   0  0  0  0  0  0  0  0  0  0  0  0
    6.2777    3.8312    2.0999 H   0  0  0  0  0  0  0  0  0  0  0  0
    6.9477    2.6717    0.9018 H   0  0  0  0  0  0  0  0  0  0  0  0
    6.0038    4.0940    0.3332 H   0  0  0  0  0  0  0  0  0  0  0  0
   -1.8040   -1.5088    2.6124 H   0  0  0  0  0  0  0  0  0  0  0  0
   -3.2635    0.4253    2.9960 H   0  0  0  0  0  0  0  0  0  0  0  0
   -2.3018    3.7364    2.8588 H   0  0  0  0  0  0  0  0  0  0  0  0
   -3.7923    2.7298    2.7184 H   0  0  0  0  0  0  0  0  0  0  0  0
   -3.1122    3.5201    1.2526 H   0  0  0  0  0  0  0  0  0  0  0  0
   -0.4968    2.9342    0.8378 H   0  0  0  0  0  0  0  0  0  0  0  0
    0.9399    0.9858    0.4231 H   0  0  0  0  0  0  0  0  0  0  0  0
   -0.5367   -1.3050   -1.1476 H   0  0  0  0  0  0  0  0  0  0  0  0
    0.6429   -1.3761   -3.2962 H   0  0  0  0  0  0  0  0  0  0  0  0
    2.8689   -1.0456   -4.4219 H   0  0  0  0  0  0  0  0  0  0  0  0
    3.2180   -2.8080   -4.2290 H   0  0  0  0  0  0  0  0  0  0  0  0
    4.3781   -1.5710   -3.6000 H   0  0  0  0  0  0  0  0  0  0  0  0
    4.3258   -2.2817   -1.2497 H   0  0  0  0  0  0  0  0  0  0  0  0
    3.1589   -2.1941    0.9018 H   0  0  0  0  0  0  0  0  0  0  0  0
   -0.8125   -8.4003    4.3347 H   0  0  0  0  0  0  0  0  0  0  0  0
   -0.4494  -10.8343    4.2084 H   0  0  0  0  0  0  0  0  0  0  0  0
    2.9107  -12.4793    4.8660 H   0  0  0  0  0  0  0  0  0  0  0  0
    1.1827  -12.7386    5.3117 H   0  0  0  0  0  0  0  0  0  0  0  0
    1.6496  -12.5195    3.5709 H   0  0  0  0  0  0  0  0  0  0  0  0
    3.6927  -10.2608    5.2748 H   0  0  0  0  0  0  0  0  0  0  0  0
    3.3141   -7.8325    5.4084 H   0  0  0  0  0  0  0  0  0  0  0  0
    1.9800   -6.4440    7.4170 H   0  0  0  0  0  0  0  0  0  0  0  0
    0.8427   -5.5602    9.4133 H   0  0  0  0  0  0  0  0  0  0  0  0
   -1.6208   -3.3663    9.5242 H   0  0  0  0  0  0  0  0  0  0  0  0
   -1.1955   -4.8239   10.5117 H   0  0  0  0  0  0  0  0  0  0  0  0
   -2.7364   -4.7827    9.5864 H   0  0  0  0  0  0  0  0  0  0  0  0
   -2.6410   -4.6687    7.0399 H   0  0  0  0  0  0  0  0  0  0  0  0
   -1.5013   -5.5357    5.0393 H   0  0  0  0  0  0  0  0  0  0  0  0
    1.2888   -8.3299    2.0763 H   0  0  0  0  0  0  0  0  0  0  0  0
    4.6318  -10.0638   -1.6862 H   0  0  0  0  0  0  0  0  0  0  0  0
    6.1504   -8.9090   -3.2818 H   0  0  0  0  0  0  0  0  0  0  0  0
    6.7185   -6.5464   -2.9732 H   0  0  0  0  0  0  0  0  0  0  0  0
    6.1691   -4.0908   -2.8539 H   0  0  0  0  0  0  0  0  0  0  0  0
    6.6983   -3.1104   -1.4372 H   0  0  0  0  0  0  0  0  0  0  0  0
    7.6435   -4.5679   -1.9035 H   0  0  0  0  0  0  0  0  0  0  0  0
  1  2  2  3
  2  3  1  0
  3  4  2  0
  3  5  1  0
  5  6  2  0
  6  7  1  0
  7  8  2  0
  8  9  1  0
  9 10  1  0
 10 11  1  0
  9 12  2  0
 12 13  1  0
 13 14  2  3
 14 15  1  0
 15 16  3  0
 14 17  1  0
 17 18  3  0
  1 19  1  0
 19 20  2  0
 20 21  1  0
 21 22  1  0
 22 23  2  0
 22 24  1  0
 24 25  2  0
 25 26  1  0
 26 27  1  0
 27 28  2  0
 25 29  1  0
 29 30  2  0
 30 31  1  0
 31 32  2  0
 31 33  1  0
 33 34  2  0
 34 35  1  0
 35 36  2  0
 36 37  1  0
 37 38  2  0
 38 39  1  0
 39 40  1  0
 40 41  1  0
 39 42  2  0
 34 43  1  0
 43 44  1  0
 44 45  1  0
 45 46  1  0
 46 47  1  0
 47 48  1  0
 48 49  2  0
 49 50  1  0
 50 51  1  0
 48 52  1  0
 52 53  1  0
 53 54  1  0
 54 55  1  0
 55 56  1  0
 56 57  1  0
 57 58  2  0
 58 59  1  0
 59 60  2  0
 60 61  1  0
 61 62  1  0
 62 63  1  0
 61 64  2  0
 56 65  2  0
 65 66  1  0
 66 67  1  0
 67 68  1  0
 68 69  1  0
 69 70  1  0
 70 71  1  0
 71 72  1  0
 72 73  1  0
 73 74  1  0
 74 75  1  0
 72 76  1  0
 76 77  1  0
 69 78  1  0
 78 79  1  0
 65 80  1  0
 80 81  2  0
 81 82  1  0
 82 83  1  0
 83 84  2  0
 84 85  1  0
 85 86  2  0
 86 87  1  0
 86 88  1  0
 88 89  2  0
 82 90  1  0
 90 91  2  0
 91 92  1  0
 92 93  2  0
 93 94  1  0
 93 95  1  0
 95 96  2  0
 81 97  1  0
 97 98  1  0
 98 99  1  0
 99100  2  0
100101  1  0
101102  1  0
102103  2  0
103104  1  0
104105  2  0
105106  1  0
105107  1  0
107108  2  0
101109  1  0
109110  2  0
110111  1  0
111112  2  0
112113  1  0
112114  1  0
114115  2  0
100116  1  0
116117  1  0
 99118  1  0
118119  2  3
119120  1  0
120121  2  0
120122  1  0
122123  2  0
123124  1  0
124125  2  0
125126  1  0
126127  1  0
127128  1  0
126129  2  0
129130  1  0
130131  2  3
131132  1  0
132133  3  0
131134  1  0
134135  3  0
 13  2  1  0
 28 19  1  0
 75 33  1  0
117 80  1  0
130119  1  0
 12  5  1  0
 26 21  2  0
 42 35  1  0
 74 43  2  0
 89 83  1  0
 96 90  1  0
116 97  2  0
129122  1  0
 32 24  1  0
 73 45  2  0
108102  1  0
115109  1  0
 71 46  2  0
 51 47  2  0
 70 52  2  0
 68 53  2  0
 67 55  2  0
 64 57  1  0
  1136  1  0
  6137  1  0
  7138  1  0
  8139  1  0
 11140  1  0
 11141  1  0
 11142  1  0
 20143  1  0
 27144  1  0
 28145  1  0
 29146  1  0
 30147  1  0
 32148  1  0
 36149  1  0
 37150  1  0
 38151  1  0
 40152  1  0
 40153  1  0
 41154  1  0
 41155  1  0
 41156  1  0
 42157  1  0
 58158  1  0
 59159  1  0
 60160  1  0
 62161  1  0
 62162  1  0
 63163  1  0
 63164  1  0
 63165  1  0
 64166  1  0
 76167  1  0
 76168  1  0
 77169  1  0
 77170  1  0
 77171  1  0
 78172  1  0
 78173  1  0
 79174  1  0
 79175  1  0
 79176  1  0
 84177  1  0
 85178  1  0
 87179  1  0
 87180  1  0
 87181  1  0
 88182  1  0
 89183  1  0
 91184  1  0
 92185  1  0
 94186  1  0
 94187  1  0
 94188  1  0
 95189  1  0
 96190  1  0
103191  1  0
104192  1  0
106193  1  0
106194  1  0
106195  1  0
107196  1  0
108197  1  0
110198  1  0
111199  1  0
113200  1  0
113201  1  0
113202  1  0
114203  1  0
115204  1  0
118205  1  0
123206  1  0
124207  1  0
125208  1  0
128209  1  0
128210  1  0
128211  1  0
M  END

