
     RDKit          3D

145160  0  0  0  0  0  0  0  0999 V2000
    6.8109   -3.5046   -0.9374 C   0  0  0  0  0  0  0  0  0  0  0  0
    7.4027   -4.3848   -1.7673 C   0  0  0  0  0  0  0  0  0  0  0  0
    8.1034   -4.0530   -3.0045 C   0  0  0  0  0  0  0  0  0  0  0  0
    8.0695   -2.9482   -3.6069 O   0  0  0  0  0  0  0  0  0  0  0  0
    8.8385   -5.2279   -3.4364 C   0  0  0  0  0  0  0  0  0  0  0  0
    9.5914   -5.3709   -4.6007 C   0  0  0  0  0  0  0  0  0  0  0  0
   10.1079   -6.6314   -4.9118 C   0  0  0  0  0  0  0  0  0  0  0  0
    9.8179   -7.7351   -4.0940 C   0  0  0  0  0  0  0  0  0  0  0  0
    9.0294   -7.5875   -2.9287 C   0  0  0  0  0  0  0  0  0  0  0  0
    8.6288   -8.6961   -2.1741 O   0  0  0  0  0  0  0  0  0  0  0  0
    8.9951  -10.0451   -2.4505 C   0  0  0  0  0  0  0  0  0  0  0  0
    8.6070   -6.2876   -2.5681 C   0  0  0  0  0  0  0  0  0  0  0  0
    7.6933   -5.8220   -1.4815 C   0  0  0  0  0  0  0  0  0  0  0  0
    7.1734   -6.5546   -0.4663 C   0  0  0  0  0  0  0  0  0  0  0  0
    5.8885   -6.2348    0.1079 C   0  0  0  0  0  0  0  0  0  0  0  0
    4.8443   -5.9544    0.5329 N   0  0  0  0  0  0  0  0  0  0  0  0
    7.9044   -7.6077    0.1814 C   0  0  0  0  0  0  0  0  0  0  0  0
    8.4591   -8.4419    0.7648 N   0  0  0  0  0  0  0  0  0  0  0  0
    6.5927   -2.0816   -1.2382 C   0  0  0  0  0  0  0  0  0  0  0  0
    5.2787   -1.6180   -1.3776 C   0  0  0  0  0  0  0  0  0  0  0  0
    4.2512   -2.4988   -1.5113 F   0  0  0  0  0  0  0  0  0  0  0  0
    5.0036   -0.2542   -1.2932 C   0  0  0  0  0  0  0  0  0  0  0  0
    6.0338    0.6637   -1.0387 C   0  0  0  0  0  0  0  0  0  0  0  0
    7.3660    0.2103   -1.0267 C   0  0  0  0  0  0  0  0  0  0  0  0
    8.3890    1.0813   -0.8120 F   0  0  0  0  0  0  0  0  0  0  0  0
    7.6412   -1.1603   -1.1095 C   0  0  0  0  0  0  0  0  0  0  0  0
    5.6740    2.0025   -0.5243 C   0  0  0  0  0  0  0  0  0  0  0  0
    5.9927    2.4715    0.7722 C   0  0  0  0  0  0  0  0  0  0  0  0
    6.8598    1.7585    1.7349 C   0  0  0  0  0  0  0  0  0  0  0  0
    7.9304    2.4274    2.3463 C   0  0  0  0  0  0  0  0  0  0  0  0
    8.7647    1.7429    3.2350 C   0  0  0  0  0  0  0  0  0  0  0  0
    8.5418    0.3884    3.5106 C   0  0  0  0  0  0  0  0  0  0  0  0
    7.4651   -0.2864    2.9167 C   0  0  0  0  0  0  0  0  0  0  0  0
    7.2386   -1.7504    3.1844 C   0  0  0  0  0  0  0  0  0  0  0  0
    8.3101   -2.6172    2.5187 C   0  0  0  0  0  0  0  0  0  0  0  0
    6.6187    0.4084    2.0425 C   0  0  0  0  0  0  0  0  0  0  0  0
    5.1374    3.5130    1.1631 C   0  0  0  0  0  0  0  0  0  0  0  0
    4.7001    4.0362    2.7170 S   0  0  0  0  0  0  0  0  0  0  0  0
    3.2750    4.7643    2.1592 C   0  0  0  0  0  0  0  0  0  0  0  0
    2.0305    4.8680    2.7249 C   0  0  0  0  0  0  0  0  0  0  0  0
    1.6435    4.5509    4.0381 C   0  0  0  0  0  0  0  0  0  0  0  0
    0.2837    4.2000    4.2952 C   0  0  0  0  0  0  0  0  0  0  0  0
   -0.0310    3.8242    5.5578 N   0  0  0  0  0  0  0  0  0  0  0  0
    1.4582    3.9544    6.2661 S   0  0  0  0  0  0  0  0  0  0  0  0
    2.5032    4.4533    5.0825 N   0  0  0  0  0  0  0  0  0  0  0  0
   -0.6319    4.2675    3.2477 C   0  0  0  0  0  0  0  0  0  0  0  0
   -1.9535    3.9293    3.1621 C   0  0  0  0  0  0  0  0  0  0  0  0
   -3.1331    3.0587    4.0220 S   0  0  0  0  0  0  0  0  0  0  0  0
   -4.1806    3.0765    2.6663 C   0  0  0  0  0  0  0  0  0  0  0  0
   -5.3847    2.4286    2.3469 C   0  0  0  0  0  0  0  0  0  0  0  0
   -6.1915    1.6221    3.2873 C   0  0  0  0  0  0  0  0  0  0  0  0
   -5.5876    0.6988    4.1593 C   0  0  0  0  0  0  0  0  0  0  0  0
   -6.3719   -0.0350    5.0536 C   0  0  0  0  0  0  0  0  0  0  0  0
   -7.7596    0.1348    5.0793 C   0  0  0  0  0  0  0  0  0  0  0  0
   -8.3763    1.0321    4.1966 C   0  0  0  0  0  0  0  0  0  0  0  0
   -9.8650    1.2291    4.2273 C   0  0  0  0  0  0  0  0  0  0  0  0
  -10.2437    2.3882    5.1445 C   0  0  0  0  0  0  0  0  0  0  0  0
   -7.5872    1.7791    3.3101 C   0  0  0  0  0  0  0  0  0  0  0  0
   -5.7168    2.6547    0.9896 C   0  0  0  0  0  0  0  0  0  0  0  0
   -4.5281    3.6160    0.2394 S   0  0  0  0  0  0  0  0  0  0  0  0
   -3.6145    3.7621    1.6237 C   0  0  0  0  0  0  0  0  0  0  0  0
   -2.3462    4.2165    1.9041 C   0  0  0  0  0  0  0  0  0  0  0  0
   -1.3671    4.7344    1.1300 N   0  0  0  0  0  0  0  0  0  0  0  0
   -0.2679    4.6836    1.9543 C   0  0  0  0  0  0  0  0  0  0  0  0
    1.1148    4.8389    1.6576 C   0  0  0  0  0  0  0  0  0  0  0  0
    1.7699    4.5633    0.4797 N   0  0  0  0  0  0  0  0  0  0  0  0
    3.0877    4.5502    0.8211 C   0  0  0  0  0  0  0  0  0  0  0  0
    4.1635    3.8527    0.2541 C   0  0  0  0  0  0  0  0  0  0  0  0
    4.3327    2.8771   -1.0998 S   0  0  0  0  0  0  0  0  0  0  0  0
    1.2195    3.8558   -0.6837 C   0  0  0  0  0  0  0  0  0  0  0  0
    0.8912    2.4047   -0.3426 C   0  0  0  0  0  0  0  0  0  0  0  0
   -1.6596    5.6122   -0.0215 C   0  0  0  0  0  0  0  0  0  0  0  0
   -0.7674    6.8530   -0.0747 C   0  0  0  0  0  0  0  0  0  0  0  0
   -6.7358    1.9603    0.1875 C   0  0  0  0  0  0  0  0  0  0  0  0
   -6.7349    0.5584    0.0868 C   0  0  0  0  0  0  0  0  0  0  0  0
   -5.9534   -0.1947    0.9024 F   0  0  0  0  0  0  0  0  0  0  0  0
   -7.4166   -0.0706   -0.9625 C   0  0  0  0  0  0  0  0  0  0  0  0
   -8.0980    0.6939   -1.9195 C   0  0  0  0  0  0  0  0  0  0  0  0
   -8.1972    2.0825   -1.7538 C   0  0  0  0  0  0  0  0  0  0  0  0
   -8.8428    2.8397   -2.6773 F   0  0  0  0  0  0  0  0  0  0  0  0
   -7.5160    2.7100   -0.7063 C   0  0  0  0  0  0  0  0  0  0  0  0
   -8.4657    0.0856   -3.2085 C   0  0  0  0  0  0  0  0  0  0  0  0
   -7.5631   -0.0186   -4.2068 C   0  0  0  0  0  0  0  0  0  0  0  0
   -6.1432    0.3493   -4.1285 C   0  0  0  0  0  0  0  0  0  0  0  0
   -5.6000    1.0635   -3.2459 O   0  0  0  0  0  0  0  0  0  0  0  0
   -5.4507   -0.2678   -5.2352 C   0  0  0  0  0  0  0  0  0  0  0  0
   -4.0758   -0.3405   -5.4474 C   0  0  0  0  0  0  0  0  0  0  0  0
   -3.6051   -1.1592   -6.4816 C   0  0  0  0  0  0  0  0  0  0  0  0
   -4.5028   -1.9264   -7.2409 C   0  0  0  0  0  0  0  0  0  0  0  0
   -5.8945   -1.8625   -6.9977 C   0  0  0  0  0  0  0  0  0  0  0  0
   -6.7958   -2.7204   -7.6442 O   0  0  0  0  0  0  0  0  0  0  0  0
   -6.4169   -3.8300   -8.4430 C   0  0  0  0  0  0  0  0  0  0  0  0
   -6.3566   -0.9463   -6.0266 C   0  0  0  0  0  0  0  0  0  0  0  0
   -7.7384   -0.6840   -5.5322 C   0  0  0  0  0  0  0  0  0  0  0  0
   -8.8587   -0.6424   -6.2948 C   0  0  0  0  0  0  0  0  0  0  0  0
   -8.8159   -0.8210   -7.7278 C   0  0  0  0  0  0  0  0  0  0  0  0
   -8.7814   -0.9263   -8.8745 N   0  0  0  0  0  0  0  0  0  0  0  0
  -10.1206   -0.1608   -5.7838 C   0  0  0  0  0  0  0  0  0  0  0  0
  -11.1332    0.2223   -5.3766 N   0  0  0  0  0  0  0  0  0  0  0  0
    6.4481   -3.8186    0.0320 H   0  0  0  0  0  0  0  0  0  0  0  0
    9.7536   -4.5351   -5.2683 H   0  0  0  0  0  0  0  0  0  0  0  0
   10.6960   -6.7621   -5.8096 H   0  0  0  0  0  0  0  0  0  0  0  0
   10.1836   -8.7087   -4.4005 H   0  0  0  0  0  0  0  0  0  0  0  0
    8.5593  -10.7001   -1.6630 H   0  0  0  0  0  0  0  0  0  0  0  0
   10.1012  -10.1543   -2.4283 H   0  0  0  0  0  0  0  0  0  0  0  0
    8.5979  -10.3547   -3.4413 H   0  0  0  0  0  0  0  0  0  0  0  0
    3.9734    0.0685   -1.3055 H   0  0  0  0  0  0  0  0  0  0  0  0
    8.6631   -1.5063   -0.9824 H   0  0  0  0  0  0  0  0  0  0  0  0
    8.1242    3.4691    2.1212 H   0  0  0  0  0  0  0  0  0  0  0  0
    9.5946    2.2586    3.6980 H   0  0  0  0  0  0  0  0  0  0  0  0
    9.2094   -0.1318    4.1860 H   0  0  0  0  0  0  0  0  0  0  0  0
    6.2416   -2.0635    2.8015 H   0  0  0  0  0  0  0  0  0  0  0  0
    7.2373   -1.9340    4.2822 H   0  0  0  0  0  0  0  0  0  0  0  0
    8.5276   -2.2563    1.4932 H   0  0  0  0  0  0  0  0  0  0  0  0
    7.9545   -3.6658    2.4588 H   0  0  0  0  0  0  0  0  0  0  0  0
    9.2427   -2.5948    3.1190 H   0  0  0  0  0  0  0  0  0  0  0  0
    5.7712   -0.0991    1.5945 H   0  0  0  0  0  0  0  0  0  0  0  0
   -4.5165    0.5327    4.1356 H   0  0  0  0  0  0  0  0  0  0  0  0
   -5.9016   -0.7396    5.7296 H   0  0  0  0  0  0  0  0  0  0  0  0
   -8.3490   -0.4392    5.7833 H   0  0  0  0  0  0  0  0  0  0  0  0
  -10.3755    0.3028    4.5683 H   0  0  0  0  0  0  0  0  0  0  0  0
  -10.2316    1.4406    3.1989 H   0  0  0  0  0  0  0  0  0  0  0  0
   -9.5950    3.2668    4.9488 H   0  0  0  0  0  0  0  0  0  0  0  0
  -10.1374    2.0826    6.2057 H   0  0  0  0  0  0  0  0  0  0  0  0
  -11.2964    2.6786    4.9548 H   0  0  0  0  0  0  0  0  0  0  0  0
   -8.0598    2.4983    2.6519 H   0  0  0  0  0  0  0  0  0  0  0  0
    0.3285    4.3551   -1.0610 H   0  0  0  0  0  0  0  0  0  0  0  0
    1.9215    3.9011   -1.5339 H   0  0  0  0  0  0  0  0  0  0  0  0
    0.0777    2.3455    0.4154 H   0  0  0  0  0  0  0  0  0  0  0  0
    0.5452    1.8700   -1.2551 H   0  0  0  0  0  0  0  0  0  0  0  0
    1.7848    1.8824    0.0601 H   0  0  0  0  0  0  0  0  0  0  0  0
   -2.6981    5.9947    0.0703 H   0  0  0  0  0  0  0  0  0  0  0  0
   -1.6520    5.0459   -0.9724 H   0  0  0  0  0  0  0  0  0  0  0  0
   -1.1167    7.5311   -0.8830 H   0  0  0  0  0  0  0  0  0  0  0  0
    0.2857    6.5926   -0.2890 H   0  0  0  0  0  0  0  0  0  0  0  0
   -0.8209    7.4006    0.8918 H   0  0  0  0  0  0  0  0  0  0  0  0
   -7.3264   -1.1440   -1.0868 H   0  0  0  0  0  0  0  0  0  0  0  0
   -7.5150    3.7917   -0.6521 H   0  0  0  0  0  0  0  0  0  0  0  0
   -9.4594   -0.3318   -3.3030 H   0  0  0  0  0  0  0  0  0  0  0  0
   -3.3811    0.1987   -4.8189 H   0  0  0  0  0  0  0  0  0  0  0  0
   -2.5405   -1.2409   -6.6568 H   0  0  0  0  0  0  0  0  0  0  0  0
   -4.0972   -2.5937   -7.9915 H   0  0  0  0  0  0  0  0  0  0  0  0
   -5.7698   -4.5171   -7.8599 H   0  0  0  0  0  0  0  0  0  0  0  0
   -7.3331   -4.3817   -8.7522 H   0  0  0  0  0  0  0  0  0  0  0  0
   -5.8857   -3.4866   -9.3543 H   0  0  0  0  0  0  0  0  0  0  0  0
  1  2  2  3
  2  3  1  0
  3  4  2  0
  3  5  1  0
  5  6  2  0
  6  7  1  0
  7  8  2  0
  8  9  1  0
  9 10  1  0
 10 11  1  0
  9 12  2  0
 12 13  1  0
 13 14  2  3
 14 15  1  0
 15 16  3  0
 14 17  1  0
 17 18  3  0
  1 19  1  0
 19 20  2  0
 20 21  1  0
 20 22  1  0
 22 23  2  0
 23 24  1  0
 24 25  1  0
 24 26  2  0
 23 27  1  0
 27 28  2  0
 28 29  1  0
 29 30  2  0
 30 31  1  0
 31 32  2  0
 32 33  1  0
 33 34  1  0
 34 35  1  0
 33 36  2  0
 28 37  1  0
 37 38  1  0
 38 39  1  0
 39 40  1  0
 40 41  1  0
 41 42  1  0
 42 43  2  0
 43 44  1  0
 44 45  1  0
 42 46  1  0
 46 47  1  0
 47 48  1  0
 48 49  1  0
 49 50  1  0
 50 51  1  0
 51 52  2  0
 52 53  1  0
 53 54  2  0
 54 55  1  0
 55 56  1  0
 56 57  1  0
 55 58  2  0
 50 59  2  0
 59 60  1  0
 60 61  1  0
 61 62  1  0
 62 63  1  0
 63 64  1  0
 64 65  1  0
 65 66  1  0
 66 67  1  0
 67 68  1  0
 68 69  1  0
 66 70  1  0
 70 71  1  0
 63 72  1  0
 72 73  1  0
 59 74  1  0
 74 75  2  0
 75 76  1  0
 75 77  1  0
 77 78  2  0
 78 79  1  0
 79 80  1  0
 79 81  2  0
 78 82  1  0
 82 83  2  3
 83 84  1  0
 84 85  2  0
 84 86  1  0
 86 87  2  0
 87 88  1  0
 88 89  2  0
 89 90  1  0
 90 91  1  0
 91 92  1  0
 90 93  2  0
 93 94  1  0
 94 95  2  3
 95 96  1  0
 96 97  3  0
 95 98  1  0
 98 99  3  0
 13  2  1  0
 26 19  1  0
 69 27  1  0
 81 74  1  0
 94 83  1  0
 12  5  1  0
 36 29  1  0
 68 37  2  0
 93 86  1  0
 67 39  2  0
 65 40  2  0
 45 41  2  0
 64 46  2  0
 62 47  2  0
 61 49  2  0
 58 51  1  0
  1100  1  0
  6101  1  0
  7102  1  0
  8103  1  0
 11104  1  0
 11105  1  0
 11106  1  0
 22107  1  0
 26108  1  0
 30109  1  0
 31110  1  0
 32111  1  0
 34112  1  0
 34113  1  0
 35114  1  0
 35115  1  0
 35116  1  0
 36117  1  0
 52118  1  0
 53119  1  0
 54120  1  0
 56121  1  0
 56122  1  0
 57123  1  0
 57124  1  0
 57125  1  0
 58126  1  0
 70127  1  0
 70128  1  0
 71129  1  0
 71130  1  0
 71131  1  0
 72132  1  0
 72133  1  0
 73134  1  0
 73135  1  0
 73136  1  0
 77137  1  0
 81138  1  0
 82139  1  0
 87140  1  0
 88141  1  0
 89142  1  0
 92143  1  0
 92144  1  0
 92145  1  0
M  END

