
     RDKit          3D

165182  0  0  0  0  0  0  0  0999 V2000
    8.8929    1.5515   -3.6768 C   0  0  0  0  0  0  0  0  0  0  0  0
    7.8655    2.2134   -4.2967 C   0  0  0  0  0  0  0  0  0  0  0  0
    7.1257    3.4262   -3.8158 C   0  0  0  0  0  0  0  0  0  0  0  0
    7.1116    3.9454   -2.6509 O   0  0  0  0  0  0  0  0  0  0  0  0
    6.1090    3.7658   -4.7611 C   0  0  0  0  0  0  0  0  0  0  0  0
    5.1568    4.7453   -4.5399 C   0  0  0  0  0  0  0  0  0  0  0  0
    3.9306    4.5757   -5.1559 C   0  0  0  0  0  0  0  0  0  0  0  0
    3.6397    3.3864   -5.8319 C   0  0  0  0  0  0  0  0  0  0  0  0
    4.6530    2.4224   -6.0735 C   0  0  0  0  0  0  0  0  0  0  0  0
    4.3705    1.1672   -6.6262 O   0  0  0  0  0  0  0  0  0  0  0  0
    3.3159    0.9112   -7.5494 C   0  0  0  0  0  0  0  0  0  0  0  0
    5.9470    2.7218   -5.6466 C   0  0  0  0  0  0  0  0  0  0  0  0
    7.1450    1.8252   -5.5546 C   0  0  0  0  0  0  0  0  0  0  0  0
    7.5890    1.0451   -6.5988 C   0  0  0  0  0  0  0  0  0  0  0  0
    8.8068    0.3063   -6.5720 C   0  0  0  0  0  0  0  0  0  0  0  0
    9.8268   -0.2637   -6.5570 N   0  0  0  0  0  0  0  0  0  0  0  0
    6.9384    1.0738   -7.9099 C   0  0  0  0  0  0  0  0  0  0  0  0
    6.4394    1.1326   -8.9451 N   0  0  0  0  0  0  0  0  0  0  0  0
    9.3800    1.8594   -2.3189 C   0  0  0  0  0  0  0  0  0  0  0  0
    8.6505    1.1064   -0.9915 S   0  0  0  0  0  0  0  0  0  0  0  0
    8.6519    2.3570    0.1558 C   0  0  0  0  0  0  0  0  0  0  0  0
    9.3429    3.3852   -0.5172 C   0  0  0  0  0  0  0  0  0  0  0  0
    9.5577    5.0161   -0.2760 S   0  0  0  0  0  0  0  0  0  0  0  0
   10.2269    5.3978   -1.8120 C   0  0  0  0  0  0  0  0  0  0  0  0
   10.6751    6.7168   -2.3250 C   0  0  0  0  0  0  0  0  0  0  0  0
   11.3371    6.7358   -3.4151 O   0  0  0  0  0  0  0  0  0  0  0  0
   10.2279    7.9189   -1.7528 O   0  0  0  0  0  0  0  0  0  0  0  0
   10.9029    8.5864   -0.6617 C   0  0  0  0  0  0  0  0  0  0  0  0
   10.6840    7.7659    0.6149 C   0  0  0  0  0  0  0  0  0  0  0  0
   10.1823    4.2251   -2.5918 C   0  0  0  0  0  0  0  0  0  0  0  0
    9.7495    3.1043   -1.8635 C   0  0  0  0  0  0  0  0  0  0  0  0
   10.3907    4.2152   -3.9727 F   0  0  0  0  0  0  0  0  0  0  0  0
    7.5963    2.4021    1.2343 C   0  0  0  0  0  0  0  0  0  0  0  0
    7.6944    2.7268    2.6330 C   0  0  0  0  0  0  0  0  0  0  0  0
    8.9625    3.1204    3.3275 C   0  0  0  0  0  0  0  0  0  0  0  0
    9.8371    1.8841    3.6048 C   0  0  0  0  0  0  0  0  0  0  0  0
    6.5172    2.3605    3.3347 C   0  0  0  0  0  0  0  0  0  0  0  0
    5.9229    2.5095    4.9488 S   0  0  0  0  0  0  0  0  0  0  0  0
    4.4486    1.7169    4.5269 C   0  0  0  0  0  0  0  0  0  0  0  0
    3.1352    1.4472    4.9589 C   0  0  0  0  0  0  0  0  0  0  0  0
    2.4653    1.8248    6.1554 C   0  0  0  0  0  0  0  0  0  0  0  0
    1.0214    1.6801    6.2074 C   0  0  0  0  0  0  0  0  0  0  0  0
    0.4009    2.1161    7.3440 N   0  0  0  0  0  0  0  0  0  0  0  0
    1.7218    2.6441    8.1842 S   0  0  0  0  0  0  0  0  0  0  0  0
    3.0571    2.3818    7.2326 N   0  0  0  0  0  0  0  0  0  0  0  0
    0.3621    1.1469    5.1020 C   0  0  0  0  0  0  0  0  0  0  0  0
   -0.9960    1.0106    4.7990 C   0  0  0  0  0  0  0  0  0  0  0  0
   -2.5618    1.4235    5.3803 S   0  0  0  0  0  0  0  0  0  0  0  0
   -3.2904    0.7949    3.9283 C   0  0  0  0  0  0  0  0  0  0  0  0
   -4.5710    0.7690    3.2971 C   0  0  0  0  0  0  0  0  0  0  0  0
   -5.7598    1.2233    3.8825 O   0  0  0  0  0  0  0  0  0  0  0  0
   -5.8840    2.5421    4.3995 C   0  0  0  0  0  0  0  0  0  0  0  0
   -7.2626    2.7450    5.0230 C   0  0  0  0  0  0  0  0  0  0  0  0
   -4.5166    0.2594    1.9631 C   0  0  0  0  0  0  0  0  0  0  0  0
   -2.8713    0.0168    1.5624 S   0  0  0  0  0  0  0  0  0  0  0  0
   -2.2963    0.3227    3.0811 C   0  0  0  0  0  0  0  0  0  0  0  0
   -1.0347    0.4304    3.5807 C   0  0  0  0  0  0  0  0  0  0  0  0
    0.1692    0.1209    3.0428 N   0  0  0  0  0  0  0  0  0  0  0  0
    1.0514    0.6684    3.9672 C   0  0  0  0  0  0  0  0  0  0  0  0
    2.4543    0.8968    3.8605 C   0  0  0  0  0  0  0  0  0  0  0  0
    3.2882    0.8663    2.7711 N   0  0  0  0  0  0  0  0  0  0  0  0
    4.4565    1.3555    3.2306 C   0  0  0  0  0  0  0  0  0  0  0  0
    5.5857    1.7316    2.5464 C   0  0  0  0  0  0  0  0  0  0  0  0
    6.0932    1.6245    0.9592 S   0  0  0  0  0  0  0  0  0  0  0  0
    3.0179    0.5980    1.3601 C   0  0  0  0  0  0  0  0  0  0  0  0
    3.5144   -0.8046    0.9628 C   0  0  0  0  0  0  0  0  0  0  0  0
    0.3583   -1.1091    2.2438 C   0  0  0  0  0  0  0  0  0  0  0  0
    0.9224   -2.2638    3.0775 C   0  0  0  0  0  0  0  0  0  0  0  0
   -5.6598   -0.0280    0.9878 C   0  0  0  0  0  0  0  0  0  0  0  0
   -6.7130    0.8843    0.7623 C   0  0  0  0  0  0  0  0  0  0  0  0
   -6.9374    1.9411    1.5899 F   0  0  0  0  0  0  0  0  0  0  0  0
   -7.5310    0.7899   -0.3934 C   0  0  0  0  0  0  0  0  0  0  0  0
   -8.6902    1.5173   -0.3403 F   0  0  0  0  0  0  0  0  0  0  0  0
   -7.4218   -0.3497   -1.2789 C   0  0  0  0  0  0  0  0  0  0  0  0
   -6.3040   -1.2292   -1.0917 C   0  0  0  0  0  0  0  0  0  0  0  0
   -5.9804   -2.3044   -1.9190 N   0  0  0  0  0  0  0  0  0  0  0  0
   -4.9673   -3.1913   -1.6607 C   0  0  0  0  0  0  0  0  0  0  0  0
   -4.7265   -4.3310   -2.5418 C   0  0  0  0  0  0  0  0  0  0  0  0
   -4.7007   -4.2520   -4.2343 S   0  0  0  0  0  0  0  0  0  0  0  0
   -4.2499   -5.8830   -4.4255 C   0  0  0  0  0  0  0  0  0  0  0  0
   -3.9758   -6.5576   -5.7270 C   0  0  0  0  0  0  0  0  0  0  0  0
   -2.4752   -6.7461   -5.9594 C   0  0  0  0  0  0  0  0  0  0  0  0
   -4.1638   -6.4865   -3.1730 C   0  0  0  0  0  0  0  0  0  0  0  0
   -4.4535   -5.6351   -2.1275 C   0  0  0  0  0  0  0  0  0  0  0  0
   -3.8234   -7.7892   -2.9585 F   0  0  0  0  0  0  0  0  0  0  0  0
   -4.2209   -3.0184   -0.4383 C   0  0  0  0  0  0  0  0  0  0  0  0
   -4.5680   -2.0310    0.3566 N   0  0  0  0  0  0  0  0  0  0  0  0
   -5.5152   -1.0981    0.0960 C   0  0  0  0  0  0  0  0  0  0  0  0
   -3.1667   -3.8846    0.1209 C   0  0  0  0  0  0  0  0  0  0  0  0
   -2.0868   -4.4924   -0.5360 C   0  0  0  0  0  0  0  0  0  0  0  0
   -1.2439   -5.1670    0.3393 C   0  0  0  0  0  0  0  0  0  0  0  0
   -0.1688   -5.9062   -0.0787 F   0  0  0  0  0  0  0  0  0  0  0  0
   -1.6198   -5.0581    1.6789 C   0  0  0  0  0  0  0  0  0  0  0  0
   -0.9736   -5.7413    2.8356 C   0  0  0  0  0  0  0  0  0  0  0  0
   -1.6991   -7.0430    3.1598 C   0  0  0  0  0  0  0  0  0  0  0  0
   -3.0160   -4.1248    1.7870 S   0  0  0  0  0  0  0  0  0  0  0  0
   -8.7444   -0.8116   -1.9332 C   0  0  0  0  0  0  0  0  0  0  0  0
   -9.8019   -1.5309   -1.2234 C   0  0  0  0  0  0  0  0  0  0  0  0
  -11.2303   -1.1796   -1.1871 C   0  0  0  0  0  0  0  0  0  0  0  0
  -11.8784   -0.4743   -2.0180 O   0  0  0  0  0  0  0  0  0  0  0  0
  -11.6450   -1.3008    0.2453 C   0  0  0  0  0  0  0  0  0  0  0  0
  -12.8725   -1.0139    0.8995 C   0  0  0  0  0  0  0  0  0  0  0  0
  -12.9299   -1.1365    2.3047 C   0  0  0  0  0  0  0  0  0  0  0  0
  -11.7403   -1.3837    3.0368 C   0  0  0  0  0  0  0  0  0  0  0  0
  -10.4977   -1.4677    2.3670 C   0  0  0  0  0  0  0  0  0  0  0  0
   -9.4011   -0.7690    2.8074 O   0  0  0  0  0  0  0  0  0  0  0  0
   -8.9218   -0.8052    4.1554 C   0  0  0  0  0  0  0  0  0  0  0  0
  -10.5806   -1.7067    0.9826 C   0  0  0  0  0  0  0  0  0  0  0  0
   -9.5917   -2.2834    0.0492 C   0  0  0  0  0  0  0  0  0  0  0  0
   -8.7448   -3.2908    0.4027 C   0  0  0  0  0  0  0  0  0  0  0  0
   -8.1227   -3.9681   -0.6691 C   0  0  0  0  0  0  0  0  0  0  0  0
   -7.7139   -4.5161   -1.6138 N   0  0  0  0  0  0  0  0  0  0  0  0
   -8.8159   -3.9965    1.6482 C   0  0  0  0  0  0  0  0  0  0  0  0
   -8.9092   -4.6005    2.6268 N   0  0  0  0  0  0  0  0  0  0  0  0
    9.2093    0.5970   -4.0241 H   0  0  0  0  0  0  0  0  0  0  0  0
    5.3332    5.5442   -3.8036 H   0  0  0  0  0  0  0  0  0  0  0  0
    3.1590    5.3124   -5.1155 H   0  0  0  0  0  0  0  0  0  0  0  0
    2.5964    3.2315   -6.0387 H   0  0  0  0  0  0  0  0  0  0  0  0
    3.4685    1.5091   -8.4788 H   0  0  0  0  0  0  0  0  0  0  0  0
    2.3144    1.0905   -7.1078 H   0  0  0  0  0  0  0  0  0  0  0  0
    3.3067   -0.1841   -7.7734 H   0  0  0  0  0  0  0  0  0  0  0  0
   10.4707    9.6272   -0.5601 H   0  0  0  0  0  0  0  0  0  0  0  0
   11.9997    8.6570   -0.8615 H   0  0  0  0  0  0  0  0  0  0  0  0
   11.3679    6.8766    0.5457 H   0  0  0  0  0  0  0  0  0  0  0  0
    9.6130    7.4430    0.6382 H   0  0  0  0  0  0  0  0  0  0  0  0
   10.9316    8.3606    1.5129 H   0  0  0  0  0  0  0  0  0  0  0  0
    8.7438    3.6188    4.3220 H   0  0  0  0  0  0  0  0  0  0  0  0
    9.5495    3.8369    2.6991 H   0  0  0  0  0  0  0  0  0  0  0  0
    9.3877    1.2738    4.4221 H   0  0  0  0  0  0  0  0  0  0  0  0
    9.9412    1.2436    2.7016 H   0  0  0  0  0  0  0  0  0  0  0  0
   10.8660    2.1861    3.9085 H   0  0  0  0  0  0  0  0  0  0  0  0
   -5.7572    3.2398    3.5541 H   0  0  0  0  0  0  0  0  0  0  0  0
   -5.0911    2.7316    5.1641 H   0  0  0  0  0  0  0  0  0  0  0  0
   -7.4497    3.8531    5.0972 H   0  0  0  0  0  0  0  0  0  0  0  0
   -7.2822    2.2782    6.0394 H   0  0  0  0  0  0  0  0  0  0  0  0
   -8.0551    2.2776    4.3898 H   0  0  0  0  0  0  0  0  0  0  0  0
    3.5421    1.3464    0.7231 H   0  0  0  0  0  0  0  0  0  0  0  0
    1.9782    0.8404    1.0985 H   0  0  0  0  0  0  0  0  0  0  0  0
    2.9223   -1.1944    0.1032 H   0  0  0  0  0  0  0  0  0  0  0  0
    3.4241   -1.5083    1.8123 H   0  0  0  0  0  0  0  0  0  0  0  0
    4.5869   -0.7801    0.6611 H   0  0  0  0  0  0  0  0  0  0  0  0
    0.9228   -0.9446    1.3310 H   0  0  0  0  0  0  0  0  0  0  0  0
   -0.6271   -1.4702    1.7949 H   0  0  0  0  0  0  0  0  0  0  0  0
    0.1962   -2.4941    3.9065 H   0  0  0  0  0  0  0  0  0  0  0  0
    1.9119   -2.0070    3.5378 H   0  0  0  0  0  0  0  0  0  0  0  0
    1.0374   -3.1474    2.4104 H   0  0  0  0  0  0  0  0  0  0  0  0
   -4.4801   -7.5404   -5.7570 H   0  0  0  0  0  0  0  0  0  0  0  0
   -4.3975   -5.9703   -6.5710 H   0  0  0  0  0  0  0  0  0  0  0  0
   -2.0255   -5.7579   -6.2450 H   0  0  0  0  0  0  0  0  0  0  0  0
   -1.9655   -7.1640   -5.0698 H   0  0  0  0  0  0  0  0  0  0  0  0
   -2.3153   -7.4246   -6.8148 H   0  0  0  0  0  0  0  0  0  0  0  0
   -4.4382   -5.9269   -1.1017 H   0  0  0  0  0  0  0  0  0  0  0  0
   -1.9864   -4.4512   -1.5982 H   0  0  0  0  0  0  0  0  0  0  0  0
   -0.9570   -5.0855    3.7387 H   0  0  0  0  0  0  0  0  0  0  0  0
    0.0677   -5.9703    2.5837 H   0  0  0  0  0  0  0  0  0  0  0  0
   -1.6084   -7.7586    2.3157 H   0  0  0  0  0  0  0  0  0  0  0  0
   -1.2511   -7.5085    4.0628 H   0  0  0  0  0  0  0  0  0  0  0  0
   -2.7798   -6.8584    3.3688 H   0  0  0  0  0  0  0  0  0  0  0  0
   -9.1805    0.0299   -2.4290 H   0  0  0  0  0  0  0  0  0  0  0  0
  -13.7638   -0.7326    0.3394 H   0  0  0  0  0  0  0  0  0  0  0  0
  -13.8344   -0.9630    2.8665 H   0  0  0  0  0  0  0  0  0  0  0  0
  -11.8015   -1.3467    4.1251 H   0  0  0  0  0  0  0  0  0  0  0  0
   -8.4820   -1.7831    4.3386 H   0  0  0  0  0  0  0  0  0  0  0  0
   -9.6829   -0.4502    4.9212 H   0  0  0  0  0  0  0  0  0  0  0  0
   -8.0520   -0.0844    4.2522 H   0  0  0  0  0  0  0  0  0  0  0  0
  1  2  2  3
  2  3  1  0
  3  4  2  0
  3  5  1  0
  5  6  2  0
  6  7  1  0
  7  8  2  0
  8  9  1  0
  9 10  1  0
 10 11  1  0
  9 12  2  0
 12 13  1  0
 13 14  2  3
 14 15  1  0
 15 16  3  0
 14 17  1  0
 17 18  3  0
  1 19  1  0
 19 20  1  0
 20 21  1  0
 21 22  2  0
 22 23  1  0
 23 24  1  0
 24 25  1  0
 25 26  2  0
 25 27  1  0
 27 28  1  0
 28 29  1  0
 24 30  2  0
 30 31  1  0
 30 32  1  0
 21 33  1  0
 33 34  2  0
 34 35  1  0
 35 36  1  0
 34 37  1  0
 37 38  1  0
 38 39  1  0
 39 40  1  0
 40 41  1  0
 41 42  1  0
 42 43  2  0
 43 44  1  0
 44 45  1  0
 42 46  1  0
 46 47  1  0
 47 48  1  0
 48 49  1  0
 49 50  1  0
 50 51  1  0
 51 52  1  0
 52 53  1  0
 50 54  2  0
 54 55  1  0
 55 56  1  0
 56 57  1  0
 57 58  1  0
 58 59  1  0
 59 60  1  0
 60 61  1  0
 61 62  1  0
 62 63  1  0
 63 64  1  0
 61 65  1  0
 65 66  1  0
 58 67  1  0
 67 68  1  0
 54 69  1  0
 69 70  2  0
 70 71  1  0
 70 72  1  0
 72 73  1  0
 72 74  2  0
 74 75  1  0
 75 76  2  0
 76 77  1  0
 77 78  1  0
 78 79  1  0
 79 80  1  0
 80 81  1  0
 81 82  1  0
 80 83  2  0
 83 84  1  0
 83 85  1  0
 77 86  2  0
 86 87  1  0
 87 88  2  0
 86 89  1  0
 89 90  2  0
 90 91  1  0
 91 92  1  0
 91 93  2  0
 93 94  1  0
 94 95  1  0
 93 96  1  0
 74 97  1  0
 97 98  2  3
 98 99  1  0
 99100  2  0
 99101  1  0
101102  2  0
102103  1  0
103104  2  0
104105  1  0
105106  1  0
106107  1  0
105108  2  0
108109  1  0
109110  2  3
110111  1  0
111112  3  0
110113  1  0
113114  3  0
 13  2  1  0
 31 19  2  0
 64 33  1  0
 88 69  1  0
 96 89  1  0
109 98  1  0
 12  5  1  0
 31 22  1  0
 63 37  2  0
 88 75  1  0
108101  1  0
 62 39  2  0
 84 78  2  0
 60 40  2  0
 45 41  2  0
 59 46  2  0
 57 47  2  0
 56 49  2  0
  1115  1  0
  6116  1  0
  7117  1  0
  8118  1  0
 11119  1  0
 11120  1  0
 11121  1  0
 28122  1  0
 28123  1  0
 29124  1  0
 29125  1  0
 29126  1  0
 35127  1  0
 35128  1  0
 36129  1  0
 36130  1  0
 36131  1  0
 52132  1  0
 52133  1  0
 53134  1  0
 53135  1  0
 53136  1  0
 65137  1  0
 65138  1  0
 66139  1  0
 66140  1  0
 66141  1  0
 67142  1  0
 67143  1  0
 68144  1  0
 68145  1  0
 68146  1  0
 81147  1  0
 81148  1  0
 82149  1  0
 82150  1  0
 82151  1  0
 84152  1  0
 90153  1  0
 94154  1  0
 94155  1  0
 95156  1  0
 95157  1  0
 95158  1  0
 97159  1  0
102160  1  0
103161  1  0
104162  1  0
107163  1  0
107164  1  0
107165  1  0
M  END

