
     RDKit          3D

156170  0  0  0  0  0  0  0  0999 V2000
   -1.4479    1.8331    5.4690 C   0  0  0  0  0  0  0  0  0  0  0  0
   -2.5543    1.2999    4.9041 C   0  0  0  0  0  0  0  0  0  0  0  0
   -2.5827    0.3938    3.7494 C   0  0  0  0  0  0  0  0  0  0  0  0
   -1.6084   -0.2535    3.2861 O   0  0  0  0  0  0  0  0  0  0  0  0
   -3.9591    0.1612    3.3762 C   0  0  0  0  0  0  0  0  0  0  0  0
   -4.4240   -0.6726    2.3615 C   0  0  0  0  0  0  0  0  0  0  0  0
   -5.7941   -0.9263    2.2829 C   0  0  0  0  0  0  0  0  0  0  0  0
   -6.6629   -0.4205    3.2598 C   0  0  0  0  0  0  0  0  0  0  0  0
   -6.1727    0.3846    4.3165 C   0  0  0  0  0  0  0  0  0  0  0  0
   -6.9885    0.7334    5.4017 O   0  0  0  0  0  0  0  0  0  0  0  0
   -8.3624    0.3818    5.5318 C   0  0  0  0  0  0  0  0  0  0  0  0
   -4.8081    0.7670    4.2884 C   0  0  0  0  0  0  0  0  0  0  0  0
   -3.9929    1.5542    5.2663 C   0  0  0  0  0  0  0  0  0  0  0  0
   -4.4659    2.4311    6.1960 C   0  0  0  0  0  0  0  0  0  0  0  0
   -3.7025    2.8549    7.3397 C   0  0  0  0  0  0  0  0  0  0  0  0
   -3.0972    3.1954    8.2694 N   0  0  0  0  0  0  0  0  0  0  0  0
   -5.7672    3.0338    6.0917 C   0  0  0  0  0  0  0  0  0  0  0  0
   -6.8124    3.5312    6.0233 N   0  0  0  0  0  0  0  0  0  0  0  0
   -0.0591    1.6524    4.9926 C   0  0  0  0  0  0  0  0  0  0  0  0
    1.0663    1.5701    5.8146 C   0  0  0  0  0  0  0  0  0  0  0  0
    1.0054    1.5036    7.2929 C   0  0  0  0  0  0  0  0  0  0  0  0
    0.7346    0.2691    7.9392 C   0  0  0  0  0  0  0  0  0  0  0  0
    0.6335    0.2329    9.3381 C   0  0  0  0  0  0  0  0  0  0  0  0
    0.8018    1.3893   10.1061 C   0  0  0  0  0  0  0  0  0  0  0  0
    0.7257    1.3121   11.6101 C   0  0  0  0  0  0  0  0  0  0  0  0
    2.0598    0.8702   12.2020 C   0  0  0  0  0  0  0  0  0  0  0  0
    1.1139    2.5962    9.4723 C   0  0  0  0  0  0  0  0  0  0  0  0
    1.2255    2.6707    8.0742 C   0  0  0  0  0  0  0  0  0  0  0  0
    1.5582    4.0164    7.4583 C   0  0  0  0  0  0  0  0  0  0  0  0
    0.3170    4.8985    7.3452 C   0  0  0  0  0  0  0  0  0  0  0  0
    0.5659   -1.0320    7.1796 C   0  0  0  0  0  0  0  0  0  0  0  0
   -0.8996   -1.4560    7.1121 C   0  0  0  0  0  0  0  0  0  0  0  0
    2.2804    1.5039    5.1103 C   0  0  0  0  0  0  0  0  0  0  0  0
    2.1229    1.5623    3.7292 C   0  0  0  0  0  0  0  0  0  0  0  0
    0.4817    1.7416    3.3984 S   0  0  0  0  0  0  0  0  0  0  0  0
    3.1709    1.4532    2.6979 C   0  0  0  0  0  0  0  0  0  0  0  0
    4.2927    0.5899    2.6915 C   0  0  0  0  0  0  0  0  0  0  0  0
    4.6526   -0.4090    3.7616 C   0  0  0  0  0  0  0  0  0  0  0  0
    3.6815   -1.5842    3.7711 C   0  0  0  0  0  0  0  0  0  0  0  0
    4.9313    0.6237    1.4450 C   0  0  0  0  0  0  0  0  0  0  0  0
    4.3791    1.4651    0.5149 C   0  0  0  0  0  0  0  0  0  0  0  0
    3.0204    2.1892    1.1694 S   0  0  0  0  0  0  0  0  0  0  0  0
    4.9402    1.3363   -0.7573 C   0  0  0  0  0  0  0  0  0  0  0  0
    5.9011    0.3732   -0.7827 C   0  0  0  0  0  0  0  0  0  0  0  0
    6.0917   -0.3896    0.7241 S   0  0  0  0  0  0  0  0  0  0  0  0
    6.0492   -0.0174   -2.0858 C   0  0  0  0  0  0  0  0  0  0  0  0
    6.5234   -1.2396   -2.6005 C   0  0  0  0  0  0  0  0  0  0  0  0
    7.1527   -2.1539   -1.8176 N   0  0  0  0  0  0  0  0  0  0  0  0
    7.5219   -3.3725   -2.3045 C   0  0  0  0  0  0  0  0  0  0  0  0
    8.1846   -4.3518   -1.3788 C   0  0  0  0  0  0  0  0  0  0  0  0
    7.2083   -3.7045   -3.6451 C   0  0  0  0  0  0  0  0  0  0  0  0
    7.5438   -5.0431   -4.2310 C   0  0  0  0  0  0  0  0  0  0  0  0
    6.5834   -2.7850   -4.4294 N   0  0  0  0  0  0  0  0  0  0  0  0
    6.2357   -1.5649   -3.9451 C   0  0  0  0  0  0  0  0  0  0  0  0
    5.5583   -0.6230   -4.7301 C   0  0  0  0  0  0  0  0  0  0  0  0
    5.0841   -0.6982   -6.0156 C   0  0  0  0  0  0  0  0  0  0  0  0
    4.5121   -1.9891   -6.9554 S   0  0  0  0  0  0  0  0  0  0  0  0
    3.3385   -1.0025   -7.6998 C   0  0  0  0  0  0  0  0  0  0  0  0
    2.1281   -1.3481   -8.3181 C   0  0  0  0  0  0  0  0  0  0  0  0
    1.8346   -2.7518   -8.7825 C   0  0  0  0  0  0  0  0  0  0  0  0
    1.3461   -3.6282   -7.6287 C   0  0  0  0  0  0  0  0  0  0  0  0
    1.2002   -0.2749   -8.2603 C   0  0  0  0  0  0  0  0  0  0  0  0
    1.9334    1.0314   -7.4426 S   0  0  0  0  0  0  0  0  0  0  0  0
    3.3992    0.2760   -7.2032 C   0  0  0  0  0  0  0  0  0  0  0  0
    4.3848    0.4489   -6.2434 C   0  0  0  0  0  0  0  0  0  0  0  0
    4.4094    1.2883   -5.1791 N   0  0  0  0  0  0  0  0  0  0  0  0
    4.1254    2.7302   -5.2100 C   0  0  0  0  0  0  0  0  0  0  0  0
    4.6347    3.3934   -6.4853 C   0  0  0  0  0  0  0  0  0  0  0  0
    5.0810    0.5876   -4.2165 C   0  0  0  0  0  0  0  0  0  0  0  0
    5.2287    0.8454   -2.8316 C   0  0  0  0  0  0  0  0  0  0  0  0
    4.4643    1.6286   -1.9970 N   0  0  0  0  0  0  0  0  0  0  0  0
    3.0857    2.0894   -2.2309 C   0  0  0  0  0  0  0  0  0  0  0  0
    2.9523    3.5960   -2.0028 C   0  0  0  0  0  0  0  0  0  0  0  0
   -0.2713   -0.3391   -8.4653 C   0  0  0  0  0  0  0  0  0  0  0  0
   -1.0639    0.8033   -8.2639 C   0  0  0  0  0  0  0  0  0  0  0  0
   -2.4005    0.6642   -8.0804 N   0  0  0  0  0  0  0  0  0  0  0  0
   -3.0066   -0.5489   -8.1694 C   0  0  0  0  0  0  0  0  0  0  0  0
   -2.2465   -1.6643   -8.5289 C   0  0  0  0  0  0  0  0  0  0  0  0
   -0.8976   -1.5363   -8.6288 N   0  0  0  0  0  0  0  0  0  0  0  0
   -4.3853   -0.7127   -7.6864 C   0  0  0  0  0  0  0  0  0  0  0  0
   -4.7175   -0.3719   -6.4303 C   0  0  0  0  0  0  0  0  0  0  0  0
   -3.6811    0.2767   -5.2722 S   0  0  0  0  0  0  0  0  0  0  0  0
   -4.8233    0.2958   -4.0275 C   0  0  0  0  0  0  0  0  0  0  0  0
   -4.5501    0.7454   -2.7779 C   0  0  0  0  0  0  0  0  0  0  0  0
   -5.5243    0.8134   -1.7178 C   0  0  0  0  0  0  0  0  0  0  0  0
   -6.2942    0.8736   -0.8533 N   0  0  0  0  0  0  0  0  0  0  0  0
   -3.2232    1.2061   -2.4398 C   0  0  0  0  0  0  0  0  0  0  0  0
   -2.1577    1.5744   -2.1736 N   0  0  0  0  0  0  0  0  0  0  0  0
   -6.0123   -0.2065   -4.4919 N   0  0  0  0  0  0  0  0  0  0  0  0
   -7.2017   -0.4252   -3.7147 C   0  0  0  0  0  0  0  0  0  0  0  0
   -7.2994   -1.5492   -2.8815 C   0  0  0  0  0  0  0  0  0  0  0  0
   -8.4667   -1.7747   -2.1469 C   0  0  0  0  0  0  0  0  0  0  0  0
   -9.5430   -0.8902   -2.2538 C   0  0  0  0  0  0  0  0  0  0  0  0
   -9.4525    0.2248   -3.0932 C   0  0  0  0  0  0  0  0  0  0  0  0
   -8.2851    0.4569   -3.8247 C   0  0  0  0  0  0  0  0  0  0  0  0
   -5.9492   -0.5686   -5.8118 C   0  0  0  0  0  0  0  0  0  0  0  0
   -6.9377   -1.0666   -6.4186 O   0  0  0  0  0  0  0  0  0  0  0  0
   -1.5256    2.4200    6.3585 H   0  0  0  0  0  0  0  0  0  0  0  0
   -3.7413   -1.1371    1.6618 H   0  0  0  0  0  0  0  0  0  0  0  0
   -6.1788   -1.5658    1.4974 H   0  0  0  0  0  0  0  0  0  0  0  0
   -7.7054   -0.7075    3.2179 H   0  0  0  0  0  0  0  0  0  0  0  0
   -8.4732   -0.7237    5.5518 H   0  0  0  0  0  0  0  0  0  0  0  0
   -8.7557    0.7967    6.4807 H   0  0  0  0  0  0  0  0  0  0  0  0
   -8.9475    0.8115    4.6891 H   0  0  0  0  0  0  0  0  0  0  0  0
    0.4310   -0.7091    9.8357 H   0  0  0  0  0  0  0  0  0  0  0  0
    0.4465    2.3029   12.0338 H   0  0  0  0  0  0  0  0  0  0  0  0
   -0.0674    0.5923   11.9129 H   0  0  0  0  0  0  0  0  0  0  0  0
    1.9806    0.8413   13.3105 H   0  0  0  0  0  0  0  0  0  0  0  0
    2.3229   -0.1479   11.8395 H   0  0  0  0  0  0  0  0  0  0  0  0
    2.8627    1.5828   11.9170 H   0  0  0  0  0  0  0  0  0  0  0  0
    1.2701    3.4849   10.0707 H   0  0  0  0  0  0  0  0  0  0  0  0
    2.3072    4.5365    8.0934 H   0  0  0  0  0  0  0  0  0  0  0  0
    2.0231    3.9088    6.4565 H   0  0  0  0  0  0  0  0  0  0  0  0
   -0.1572    5.0345    8.3406 H   0  0  0  0  0  0  0  0  0  0  0  0
   -0.4168    4.4525    6.6444 H   0  0  0  0  0  0  0  0  0  0  0  0
    0.6094    5.8958    6.9550 H   0  0  0  0  0  0  0  0  0  0  0  0
    0.9759   -0.9702    6.1503 H   0  0  0  0  0  0  0  0  0  0  0  0
    1.1436   -1.8274    7.6991 H   0  0  0  0  0  0  0  0  0  0  0  0
   -1.3247   -1.5518    8.1346 H   0  0  0  0  0  0  0  0  0  0  0  0
   -0.9766   -2.4396    6.6046 H   0  0  0  0  0  0  0  0  0  0  0  0
   -1.4937   -0.7151    6.5419 H   0  0  0  0  0  0  0  0  0  0  0  0
    3.2372    1.4621    5.6106 H   0  0  0  0  0  0  0  0  0  0  0  0
    5.6763   -0.7977    3.5870 H   0  0  0  0  0  0  0  0  0  0  0  0
    4.6755    0.0714    4.7543 H   0  0  0  0  0  0  0  0  0  0  0  0
    3.9900   -2.3172    4.5458 H   0  0  0  0  0  0  0  0  0  0  0  0
    2.6497   -1.2413    4.0015 H   0  0  0  0  0  0  0  0  0  0  0  0
    3.6838   -2.0911    2.7813 H   0  0  0  0  0  0  0  0  0  0  0  0
    7.4718   -5.1625   -1.1174 H   0  0  0  0  0  0  0  0  0  0  0  0
    8.5067   -3.8442   -0.4450 H   0  0  0  0  0  0  0  0  0  0  0  0
    9.0825   -4.7912   -1.8616 H   0  0  0  0  0  0  0  0  0  0  0  0
    8.6466   -5.1657   -4.2932 H   0  0  0  0  0  0  0  0  0  0  0  0
    7.1152   -5.1409   -5.2530 H   0  0  0  0  0  0  0  0  0  0  0  0
    7.1172   -5.8510   -3.5980 H   0  0  0  0  0  0  0  0  0  0  0  0
    2.7596   -3.2001   -9.2055 H   0  0  0  0  0  0  0  0  0  0  0  0
    1.0882   -2.7411   -9.6027 H   0  0  0  0  0  0  0  0  0  0  0  0
    2.1581   -3.7802   -6.8867 H   0  0  0  0  0  0  0  0  0  0  0  0
    1.0392   -4.6209   -8.0243 H   0  0  0  0  0  0  0  0  0  0  0  0
    0.4775   -3.1658   -7.1170 H   0  0  0  0  0  0  0  0  0  0  0  0
    3.0376    2.9083   -5.1198 H   0  0  0  0  0  0  0  0  0  0  0  0
    4.6574    3.2180   -4.3720 H   0  0  0  0  0  0  0  0  0  0  0  0
    4.0747    3.0262   -7.3669 H   0  0  0  0  0  0  0  0  0  0  0  0
    5.7129    3.1827   -6.6309 H   0  0  0  0  0  0  0  0  0  0  0  0
    4.4878    4.4921   -6.4219 H   0  0  0  0  0  0  0  0  0  0  0  0
    2.7241    1.8090   -3.2342 H   0  0  0  0  0  0  0  0  0  0  0  0
    2.3986    1.5563   -1.5446 H   0  0  0  0  0  0  0  0  0  0  0  0
    1.8792    3.8860   -2.0320 H   0  0  0  0  0  0  0  0  0  0  0  0
    3.3782    3.8881   -1.0212 H   0  0  0  0  0  0  0  0  0  0  0  0
    3.4826    4.1789   -2.7777 H   0  0  0  0  0  0  0  0  0  0  0  0
   -0.6241    1.7853   -8.1534 H   0  0  0  0  0  0  0  0  0  0  0  0
   -2.6987   -2.6445   -8.6096 H   0  0  0  0  0  0  0  0  0  0  0  0
   -5.1009   -1.2334   -8.3139 H   0  0  0  0  0  0  0  0  0  0  0  0
   -6.4687   -2.2405   -2.8058 H   0  0  0  0  0  0  0  0  0  0  0  0
   -8.5371   -2.6400   -1.5007 H   0  0  0  0  0  0  0  0  0  0  0  0
  -10.4453   -1.0675   -1.6842 H   0  0  0  0  0  0  0  0  0  0  0  0
  -10.2883    0.9094   -3.1722 H   0  0  0  0  0  0  0  0  0  0  0  0
   -8.2201    1.3234   -4.4726 H   0  0  0  0  0  0  0  0  0  0  0  0
  1  2  2  3
  2  3  1  0
  3  4  2  0
  3  5  1  0
  5  6  2  0
  6  7  1  0
  7  8  2  0
  8  9  1  0
  9 10  1  0
 10 11  1  0
  9 12  2  0
 12 13  1  0
 13 14  2  3
 14 15  1  0
 15 16  3  0
 14 17  1  0
 17 18  3  0
  1 19  1  0
 19 20  2  0
 20 21  1  0
 21 22  2  0
 22 23  1  0
 23 24  2  0
 24 25  1  0
 25 26  1  0
 24 27  1  0
 27 28  2  0
 28 29  1  0
 29 30  1  0
 22 31  1  0
 31 32  1  0
 20 33  1  0
 33 34  2  0
 34 35  1  0
 34 36  1  0
 36 37  2  0
 37 38  1  0
 38 39  1  0
 37 40  1  0
 40 41  2  0
 41 42  1  0
 41 43  1  0
 43 44  2  0
 44 45  1  0
 44 46  1  0
 46 47  2  0
 47 48  1  0
 48 49  2  0
 49 50  1  0
 49 51  1  0
 51 52  1  0
 51 53  2  0
 53 54  1  0
 54 55  2  0
 55 56  1  0
 56 57  1  0
 57 58  1  0
 58 59  1  0
 59 60  1  0
 60 61  1  0
 59 62  2  0
 62 63  1  0
 63 64  1  0
 64 65  1  0
 65 66  1  0
 66 67  1  0
 67 68  1  0
 66 69  1  0
 69 70  2  0
 70 71  1  0
 71 72  1  0
 72 73  1  0
 62 74  1  0
 74 75  2  0
 75 76  1  0
 76 77  2  0
 77 78  1  0
 78 79  2  0
 77 80  1  0
 80 81  2  3
 81 82  1  0
 82 83  1  0
 83 84  2  3
 84 85  1  0
 85 86  3  0
 84 87  1  0
 87 88  3  0
 83 89  1  0
 89 90  1  0
 90 91  2  0
 91 92  1  0
 92 93  2  0
 93 94  1  0
 94 95  2  0
 89 96  1  0
 96 97  2  0
 13  2  1  0
 35 19  1  0
 42 36  1  0
 71 43  1  0
 79 74  1  0
 96 81  1  0
 12  5  1  0
 28 21  1  0
 45 40  1  0
 70 46  1  0
 95 90  1  0
 54 47  1  0
 69 55  1  0
 65 56  2  0
 64 58  2  0
  1 98  1  0
  6 99  1  0
  7100  1  0
  8101  1  0
 11102  1  0
 11103  1  0
 11104  1  0
 23105  1  0
 25106  1  0
 25107  1  0
 26108  1  0
 26109  1  0
 26110  1  0
 27111  1  0
 29112  1  0
 29113  1  0
 30114  1  0
 30115  1  0
 30116  1  0
 31117  1  0
 31118  1  0
 32119  1  0
 32120  1  0
 32121  1  0
 33122  1  0
 38123  1  0
 38124  1  0
 39125  1  0
 39126  1  0
 39127  1  0
 50128  1  0
 50129  1  0
 50130  1  0
 52131  1  0
 52132  1  0
 52133  1  0
 60134  1  0
 60135  1  0
 61136  1  0
 61137  1  0
 61138  1  0
 67139  1  0
 67140  1  0
 68141  1  0
 68142  1  0
 68143  1  0
 72144  1  0
 72145  1  0
 73146  1  0
 73147  1  0
 73148  1  0
 75149  1  0
 78150  1  0
 80151  1  0
 91152  1  0
 92153  1  0
 93154  1  0
 94155  1  0
 95156  1  0
M  END

