
     RDKit          3D

201221  0  0  0  0  0  0  0  0999 V2000
   -4.1859    7.8927   -0.9224 C   0  0  0  0  0  0  0  0  0  0  0  0
   -4.2511    8.1685   -2.2331 C   0  0  0  0  0  0  0  0  0  0  0  0
   -5.3755    8.8782   -2.8440 C   0  0  0  0  0  0  0  0  0  0  0  0
   -6.2087    9.6095   -2.2437 O   0  0  0  0  0  0  0  0  0  0  0  0
   -5.4328    8.5020   -4.2417 C   0  0  0  0  0  0  0  0  0  0  0  0
   -6.4390    8.7669   -5.1676 C   0  0  0  0  0  0  0  0  0  0  0  0
   -6.3967    8.1139   -6.4058 C   0  0  0  0  0  0  0  0  0  0  0  0
   -5.3984    7.1606   -6.6679 C   0  0  0  0  0  0  0  0  0  0  0  0
   -4.4036    6.8785   -5.7057 C   0  0  0  0  0  0  0  0  0  0  0  0
   -3.4895    5.8310   -5.8584 O   0  0  0  0  0  0  0  0  0  0  0  0
   -3.4920    4.9025   -6.9360 C   0  0  0  0  0  0  0  0  0  0  0  0
   -4.3877    7.6443   -4.5289 C   0  0  0  0  0  0  0  0  0  0  0  0
   -3.4821    7.5621   -3.3528 C   0  0  0  0  0  0  0  0  0  0  0  0
   -2.1280    7.5391   -3.4353 C   0  0  0  0  0  0  0  0  0  0  0  0
   -1.4404    7.3539   -4.6876 C   0  0  0  0  0  0  0  0  0  0  0  0
   -0.8921    7.2262   -5.6952 N   0  0  0  0  0  0  0  0  0  0  0  0
   -1.2969    7.9903   -2.3509 C   0  0  0  0  0  0  0  0  0  0  0  0
   -0.6200    8.3605   -1.4916 N   0  0  0  0  0  0  0  0  0  0  0  0
   -3.3525    6.8315   -0.3398 C   0  0  0  0  0  0  0  0  0  0  0  0
   -3.2146    5.4920   -0.7765 C   0  0  0  0  0  0  0  0  0  0  0  0
   -4.1038    4.8119   -1.7008 N   0  0  0  0  0  0  0  0  0  0  0  0
   -3.6535    3.6306   -2.3877 C   0  0  0  0  0  0  0  0  0  0  0  0
   -4.1427    2.3729   -2.0149 C   0  0  0  0  0  0  0  0  0  0  0  0
   -3.7106    1.2239   -2.6786 C   0  0  0  0  0  0  0  0  0  0  0  0
   -2.7977    1.3216   -3.7431 C   0  0  0  0  0  0  0  0  0  0  0  0
   -2.3654    0.0844   -4.4655 C   0  0  0  0  0  0  0  0  0  0  0  0
   -2.2948    2.5821   -4.1038 C   0  0  0  0  0  0  0  0  0  0  0  0
   -2.7083    3.7295   -3.4200 C   0  0  0  0  0  0  0  0  0  0  0  0
   -5.4875    5.1941   -1.8567 C   0  0  0  0  0  0  0  0  0  0  0  0
   -6.2497    5.6210   -0.7528 C   0  0  0  0  0  0  0  0  0  0  0  0
   -7.5509    6.1014   -0.9316 C   0  0  0  0  0  0  0  0  0  0  0  0
   -8.1203    6.1376   -2.2151 C   0  0  0  0  0  0  0  0  0  0  0  0
   -9.5072    6.6698   -2.4201 C   0  0  0  0  0  0  0  0  0  0  0  0
   -7.3947    5.6289   -3.3060 C   0  0  0  0  0  0  0  0  0  0  0  0
   -6.0920    5.1585   -3.1272 C   0  0  0  0  0  0  0  0  0  0  0  0
   -2.1470    4.8742   -0.1017 C   0  0  0  0  0  0  0  0  0  0  0  0
   -1.3334    3.4146   -0.2553 S   0  0  0  0  0  0  0  0  0  0  0  0
   -0.1560    3.7659    0.9218 C   0  0  0  0  0  0  0  0  0  0  0  0
   -0.4015    5.0512    1.4554 C   0  0  0  0  0  0  0  0  0  0  0  0
    0.3872    5.6804    2.4920 N   0  0  0  0  0  0  0  0  0  0  0  0
    0.5048    7.1172    2.5749 C   0  0  0  0  0  0  0  0  0  0  0  0
    0.8708    7.8734    1.4543 C   0  0  0  0  0  0  0  0  0  0  0  0
    0.8974    9.2687    1.5165 C   0  0  0  0  0  0  0  0  0  0  0  0
    0.5567    9.9303    2.7027 C   0  0  0  0  0  0  0  0  0  0  0  0
    0.5614   11.4286    2.7518 C   0  0  0  0  0  0  0  0  0  0  0  0
    0.2427    9.1786    3.8444 C   0  0  0  0  0  0  0  0  0  0  0  0
    0.2113    7.7826    3.7809 C   0  0  0  0  0  0  0  0  0  0  0  0
    0.8499    4.8845    3.5978 C   0  0  0  0  0  0  0  0  0  0  0  0
    2.1848    4.9767    4.0266 C   0  0  0  0  0  0  0  0  0  0  0  0
    2.6344    4.2081    5.1077 C   0  0  0  0  0  0  0  0  0  0  0  0
    1.7501    3.3454    5.7739 C   0  0  0  0  0  0  0  0  0  0  0  0
    2.2129    2.5416    6.9538 C   0  0  0  0  0  0  0  0  0  0  0  0
    0.4080    3.2791    5.3684 C   0  0  0  0  0  0  0  0  0  0  0  0
   -0.0410    4.0460    4.2882 C   0  0  0  0  0  0  0  0  0  0  0  0
   -1.5287    5.6304    0.8501 C   0  0  0  0  0  0  0  0  0  0  0  0
   -2.2704    7.1323    0.9320 S   0  0  0  0  0  0  0  0  0  0  0  0
    1.0960    3.0033    1.0281 C   0  0  0  0  0  0  0  0  0  0  0  0
    2.0723    2.8996    0.0132 C   0  0  0  0  0  0  0  0  0  0  0  0
    1.9609    3.5227   -1.3292 C   0  0  0  0  0  0  0  0  0  0  0  0
    1.6201    4.8741   -1.4653 C   0  0  0  0  0  0  0  0  0  0  0  0
    1.3647    5.4196   -2.7258 C   0  0  0  0  0  0  0  0  0  0  0  0
    1.4487    4.6221   -3.8655 C   0  0  0  0  0  0  0  0  0  0  0  0
    1.8152    3.2717   -3.7625 C   0  0  0  0  0  0  0  0  0  0  0  0
    1.9496    2.4304   -5.0081 C   0  0  0  0  0  0  0  0  0  0  0  0
    1.2975    1.0561   -4.8645 C   0  0  0  0  0  0  0  0  0  0  0  0
    2.0897    2.7345   -2.4898 C   0  0  0  0  0  0  0  0  0  0  0  0
    3.0528    1.9674    0.3661 C   0  0  0  0  0  0  0  0  0  0  0  0
    4.4163    1.3381   -0.4505 S   0  0  0  0  0  0  0  0  0  0  0  0
    4.6752    0.2374    0.8135 C   0  0  0  0  0  0  0  0  0  0  0  0
    5.4684   -0.8266    1.0898 C   0  0  0  0  0  0  0  0  0  0  0  0
    6.5270   -1.3584    0.3644 C   0  0  0  0  0  0  0  0  0  0  0  0
    7.0761   -2.5923    0.7831 C   0  0  0  0  0  0  0  0  0  0  0  0
    8.0838   -3.1023    0.0312 N   0  0  0  0  0  0  0  0  0  0  0  0
    8.2028   -1.9152   -1.1129 S   0  0  0  0  0  0  0  0  0  0  0  0
    7.0535   -0.7846   -0.7450 N   0  0  0  0  0  0  0  0  0  0  0  0
    6.5050   -3.2539    1.8754 C   0  0  0  0  0  0  0  0  0  0  0  0
    6.5223   -4.6026    2.1016 C   0  0  0  0  0  0  0  0  0  0  0  0
    6.7419   -5.8414    0.9622 S   0  0  0  0  0  0  0  0  0  0  0  0
    5.5271   -6.8000    1.6453 C   0  0  0  0  0  0  0  0  0  0  0  0
    4.7469   -7.8069    1.0629 C   0  0  0  0  0  0  0  0  0  0  0  0
    4.9025   -8.1338   -0.3657 C   0  0  0  0  0  0  0  0  0  0  0  0
    3.9250   -7.7236   -1.2880 C   0  0  0  0  0  0  0  0  0  0  0  0
    4.0794   -7.9993   -2.6471 C   0  0  0  0  0  0  0  0  0  0  0  0
    5.2207   -8.6695   -3.0958 C   0  0  0  0  0  0  0  0  0  0  0  0
    6.2239   -9.0531   -2.1895 C   0  0  0  0  0  0  0  0  0  0  0  0
    7.4387   -9.8061   -2.6653 C   0  0  0  0  0  0  0  0  0  0  0  0
    7.2680  -11.2993   -2.4277 C   0  0  0  0  0  0  0  0  0  0  0  0
    6.0590   -8.7778   -0.8232 C   0  0  0  0  0  0  0  0  0  0  0  0
    3.5767   -8.0582    1.8198 C   0  0  0  0  0  0  0  0  0  0  0  0
    3.5143   -6.9141    3.0822 S   0  0  0  0  0  0  0  0  0  0  0  0
    4.9700   -6.1679    2.7297 C   0  0  0  0  0  0  0  0  0  0  0  0
    5.4880   -4.8784    2.9535 C   0  0  0  0  0  0  0  0  0  0  0  0
    4.8245   -3.7456    3.3233 N   0  0  0  0  0  0  0  0  0  0  0  0
    5.4389   -2.7165    2.6338 C   0  0  0  0  0  0  0  0  0  0  0  0
    4.9576   -1.4066    2.2697 C   0  0  0  0  0  0  0  0  0  0  0  0
    3.9265   -0.6200    2.7678 N   0  0  0  0  0  0  0  0  0  0  0  0
    3.7707    0.3236    1.8018 C   0  0  0  0  0  0  0  0  0  0  0  0
    2.8462    1.3336    1.5667 C   0  0  0  0  0  0  0  0  0  0  0  0
    1.4227    1.8734    2.2650 S   0  0  0  0  0  0  0  0  0  0  0  0
    3.6414   -0.2958    4.1692 C   0  0  0  0  0  0  0  0  0  0  0  0
    4.8659    0.3153    4.8410 C   0  0  0  0  0  0  0  0  0  0  0  0
    3.6036   -3.7691    4.1303 C   0  0  0  0  0  0  0  0  0  0  0  0
    2.3530   -3.5502    3.2821 C   0  0  0  0  0  0  0  0  0  0  0  0
    2.4502   -8.9819    1.4890 C   0  0  0  0  0  0  0  0  0  0  0  0
    2.5696  -10.0050    0.5236 C   0  0  0  0  0  0  0  0  0  0  0  0
    1.4456  -10.7288    0.1054 C   0  0  0  0  0  0  0  0  0  0  0  0
    0.1924  -10.4878    0.6856 C   0  0  0  0  0  0  0  0  0  0  0  0
    0.1116   -9.5979    1.7704 C   0  0  0  0  0  0  0  0  0  0  0  0
    1.2138   -8.8294    2.1419 C   0  0  0  0  0  0  0  0  0  0  0  0
   -1.0008  -11.2037    0.1832 C   0  0  0  0  0  0  0  0  0  0  0  0
   -2.2274  -10.6625    0.1081 C   0  0  0  0  0  0  0  0  0  0  0  0
   -3.4534  -11.4460    0.0125 C   0  0  0  0  0  0  0  0  0  0  0  0
   -3.5407  -12.6603   -0.3208 O   0  0  0  0  0  0  0  0  0  0  0  0
   -4.5516  -10.6028    0.4334 C   0  0  0  0  0  0  0  0  0  0  0  0
   -5.8994  -10.9438    0.5351 C   0  0  0  0  0  0  0  0  0  0  0  0
   -6.8050   -9.9767    0.9841 C   0  0  0  0  0  0  0  0  0  0  0  0
   -6.3515   -8.6956    1.3379 C   0  0  0  0  0  0  0  0  0  0  0  0
   -4.9817   -8.3571    1.2479 C   0  0  0  0  0  0  0  0  0  0  0  0
   -4.5067   -7.1053    1.6574 O   0  0  0  0  0  0  0  0  0  0  0  0
   -5.3209   -6.0303    2.1260 C   0  0  0  0  0  0  0  0  0  0  0  0
   -4.0853   -9.3339    0.7581 C   0  0  0  0  0  0  0  0  0  0  0  0
   -2.6266   -9.2686    0.4460 C   0  0  0  0  0  0  0  0  0  0  0  0
   -1.9880   -8.1774   -0.0236 C   0  0  0  0  0  0  0  0  0  0  0  0
   -1.1556   -8.2400   -1.2012 C   0  0  0  0  0  0  0  0  0  0  0  0
   -0.5362   -8.2429   -2.1871 N   0  0  0  0  0  0  0  0  0  0  0  0
   -1.9987   -6.9213    0.6716 C   0  0  0  0  0  0  0  0  0  0  0  0
   -1.9657   -5.9159    1.2534 N   0  0  0  0  0  0  0  0  0  0  0  0
   -4.8285    8.4285   -0.2397 H   0  0  0  0  0  0  0  0  0  0  0  0
   -7.2530    9.4414   -4.9293 H   0  0  0  0  0  0  0  0  0  0  0  0
   -7.1612    8.3121   -7.1506 H   0  0  0  0  0  0  0  0  0  0  0  0
   -5.4322    6.6232   -7.6023 H   0  0  0  0  0  0  0  0  0  0  0  0
   -3.2881    5.4289   -7.8914 H   0  0  0  0  0  0  0  0  0  0  0  0
   -2.6897    4.1508   -6.7676 H   0  0  0  0  0  0  0  0  0  0  0  0
   -4.4666    4.3734   -6.9900 H   0  0  0  0  0  0  0  0  0  0  0  0
   -4.8485    2.2901   -1.1948 H   0  0  0  0  0  0  0  0  0  0  0  0
   -4.0845    0.2564   -2.3706 H   0  0  0  0  0  0  0  0  0  0  0  0
   -1.7865   -0.5749   -3.7803 H   0  0  0  0  0  0  0  0  0  0  0  0
   -3.2601   -0.4699   -4.8246 H   0  0  0  0  0  0  0  0  0  0  0  0
   -1.7355    0.3250   -5.3512 H   0  0  0  0  0  0  0  0  0  0  0  0
   -1.5775    2.6830   -4.9099 H   0  0  0  0  0  0  0  0  0  0  0  0
   -2.3179    4.6940   -3.7042 H   0  0  0  0  0  0  0  0  0  0  0  0
   -5.8240    5.6153    0.2430 H   0  0  0  0  0  0  0  0  0  0  0  0
   -8.1095    6.4547   -0.0706 H   0  0  0  0  0  0  0  0  0  0  0  0
   -9.8471    7.2497   -1.5355 H   0  0  0  0  0  0  0  0  0  0  0  0
  -10.2089    5.8269   -2.5902 H   0  0  0  0  0  0  0  0  0  0  0  0
   -9.5240    7.3464   -3.3006 H   0  0  0  0  0  0  0  0  0  0  0  0
   -7.8349    5.6204   -4.2948 H   0  0  0  0  0  0  0  0  0  0  0  0
   -5.5422    4.8007   -3.9876 H   0  0  0  0  0  0  0  0  0  0  0  0
    1.1055    7.3876    0.5199 H   0  0  0  0  0  0  0  0  0  0  0  0
    1.1552    9.8364    0.6315 H   0  0  0  0  0  0  0  0  0  0  0  0
    1.6079   11.7967    2.6817 H   0  0  0  0  0  0  0  0  0  0  0  0
   -0.0268   11.8375    1.9001 H   0  0  0  0  0  0  0  0  0  0  0  0
    0.1107   11.8089    3.6957 H   0  0  0  0  0  0  0  0  0  0  0  0
    0.0225    9.6697    4.7831 H   0  0  0  0  0  0  0  0  0  0  0  0
   -0.0821    7.2216    4.6600 H   0  0  0  0  0  0  0  0  0  0  0  0
    2.8753    5.6350    3.5146 H   0  0  0  0  0  0  0  0  0  0  0  0
    3.6688    4.2943    5.4258 H   0  0  0  0  0  0  0  0  0  0  0  0
    3.3139    2.4050    6.9363 H   0  0  0  0  0  0  0  0  0  0  0  0
    1.7407    1.5357    6.9492 H   0  0  0  0  0  0  0  0  0  0  0  0
    1.9329    3.0619    7.8942 H   0  0  0  0  0  0  0  0  0  0  0  0
   -0.2906    2.6339    5.8866 H   0  0  0  0  0  0  0  0  0  0  0  0
   -1.0834    3.9886    3.9877 H   0  0  0  0  0  0  0  0  0  0  0  0
    1.5476    5.5011   -0.5923 H   0  0  0  0  0  0  0  0  0  0  0  0
    1.1023    6.4610   -2.8153 H   0  0  0  0  0  0  0  0  0  0  0  0
    1.2383    5.0638   -4.8309 H   0  0  0  0  0  0  0  0  0  0  0  0
    1.4715    2.9458   -5.8672 H   0  0  0  0  0  0  0  0  0  0  0  0
    3.0253    2.2954   -5.2482 H   0  0  0  0  0  0  0  0  0  0  0  0
    1.0918    0.6254   -5.8651 H   0  0  0  0  0  0  0  0  0  0  0  0
    1.9721    0.3628   -4.3210 H   0  0  0  0  0  0  0  0  0  0  0  0
    0.3407    1.1327   -4.3077 H   0  0  0  0  0  0  0  0  0  0  0  0
    2.3559    1.6904   -2.3924 H   0  0  0  0  0  0  0  0  0  0  0  0
    3.0379   -7.1982   -0.9509 H   0  0  0  0  0  0  0  0  0  0  0  0
    3.3155   -7.6941   -3.3499 H   0  0  0  0  0  0  0  0  0  0  0  0
    5.3230   -8.8877   -4.1519 H   0  0  0  0  0  0  0  0  0  0  0  0
    7.6140   -9.6164   -3.7500 H   0  0  0  0  0  0  0  0  0  0  0  0
    8.3390   -9.4479   -2.1150 H   0  0  0  0  0  0  0  0  0  0  0  0
    7.0871  -11.5040   -1.3475 H   0  0  0  0  0  0  0  0  0  0  0  0
    6.4110  -11.6857   -3.0247 H   0  0  0  0  0  0  0  0  0  0  0  0
    8.1914  -11.8301   -2.7424 H   0  0  0  0  0  0  0  0  0  0  0  0
    6.8241   -9.0746   -0.1151 H   0  0  0  0  0  0  0  0  0  0  0  0
    3.2835   -1.1499    4.7390 H   0  0  0  0  0  0  0  0  0  0  0  0
    2.8084    0.4392    4.2319 H   0  0  0  0  0  0  0  0  0  0  0  0
    4.6298    0.5366    5.9018 H   0  0  0  0  0  0  0  0  0  0  0  0
    5.1391    1.2643    4.3311 H   0  0  0  0  0  0  0  0  0  0  0  0
    5.7288   -0.3877    4.8073 H   0  0  0  0  0  0  0  0  0  0  0  0
    3.6993   -3.0925    4.9864 H   0  0  0  0  0  0  0  0  0  0  0  0
    3.5026   -4.7462    4.6384 H   0  0  0  0  0  0  0  0  0  0  0  0
    2.2981   -4.3187    2.4828 H   0  0  0  0  0  0  0  0  0  0  0  0
    1.4576   -3.6430    3.9297 H   0  0  0  0  0  0  0  0  0  0  0  0
    2.3422   -2.5537    2.8087 H   0  0  0  0  0  0  0  0  0  0  0  0
    3.5204  -10.2363    0.0728 H   0  0  0  0  0  0  0  0  0  0  0  0
    1.5556  -11.4766   -0.6773 H   0  0  0  0  0  0  0  0  0  0  0  0
   -0.8105   -9.4802    2.3261 H   0  0  0  0  0  0  0  0  0  0  0  0
    1.0785   -8.1034    2.9305 H   0  0  0  0  0  0  0  0  0  0  0  0
   -0.8747  -12.2436   -0.0898 H   0  0  0  0  0  0  0  0  0  0  0  0
   -6.2473  -11.9282    0.2674 H   0  0  0  0  0  0  0  0  0  0  0  0
   -7.8650  -10.2086    1.0436 H   0  0  0  0  0  0  0  0  0  0  0  0
   -7.0746   -7.9775    1.6936 H   0  0  0  0  0  0  0  0  0  0  0  0
   -6.0355   -5.7272    1.3324 H   0  0  0  0  0  0  0  0  0  0  0  0
   -4.6674   -5.1684    2.3669 H   0  0  0  0  0  0  0  0  0  0  0  0
   -5.8680   -6.3298    3.0470 H   0  0  0  0  0  0  0  0  0  0  0  0
  1  2  2  3
  2  3  1  0
  3  4  2  0
  3  5  1  0
  5  6  2  0
  6  7  1  0
  7  8  2  0
  8  9  1  0
  9 10  1  0
 10 11  1  0
  9 12  2  0
 12 13  1  0
 13 14  2  3
 14 15  1  0
 15 16  3  0
 14 17  1  0
 17 18  3  0
  1 19  1  0
 19 20  2  0
 20 21  1  0
 21 22  1  0
 22 23  2  0
 23 24  1  0
 24 25  2  0
 25 26  1  0
 25 27  1  0
 27 28  2  0
 21 29  1  0
 29 30  2  0
 30 31  1  0
 31 32  2  0
 32 33  1  0
 32 34  1  0
 34 35  2  0
 20 36  1  0
 36 37  1  0
 37 38  1  0
 38 39  2  0
 39 40  1  0
 40 41  1  0
 41 42  2  0
 42 43  1  0
 43 44  2  0
 44 45  1  0
 44 46  1  0
 46 47  2  0
 40 48  1  0
 48 49  2  0
 49 50  1  0
 50 51  2  0
 51 52  1  0
 51 53  1  0
 53 54  2  0
 39 55  1  0
 55 56  1  0
 38 57  1  0
 57 58  2  0
 58 59  1  0
 59 60  2  0
 60 61  1  0
 61 62  2  0
 62 63  1  0
 63 64  1  0
 64 65  1  0
 63 66  2  0
 58 67  1  0
 67 68  1  0
 68 69  1  0
 69 70  1  0
 70 71  1  0
 71 72  1  0
 72 73  2  0
 73 74  1  0
 74 75  1  0
 72 76  1  0
 76 77  1  0
 77 78  1  0
 78 79  1  0
 79 80  1  0
 80 81  1  0
 81 82  2  0
 82 83  1  0
 83 84  2  0
 84 85  1  0
 85 86  1  0
 86 87  1  0
 85 88  2  0
 80 89  2  0
 89 90  1  0
 90 91  1  0
 91 92  1  0
 92 93  1  0
 93 94  1  0
 94 95  1  0
 95 96  1  0
 96 97  1  0
 97 98  1  0
 98 99  1  0
 96100  1  0
100101  1  0
 93102  1  0
102103  1  0
 89104  1  0
104105  2  0
105106  1  0
106107  2  0
107108  1  0
108109  2  0
107110  1  0
110111  2  3
111112  1  0
112113  2  0
112114  1  0
114115  2  0
115116  1  0
116117  2  0
117118  1  0
118119  1  0
119120  1  0
118121  2  0
121122  1  0
122123  2  3
123124  1  0
124125  3  0
123126  1  0
126127  3  0
 13  2  1  0
 56 19  1  0
 99 57  1  0
109104  1  0
122111  1  0
 12  5  1  0
 28 22  1  0
 35 29  1  0
 55 36  2  0
 66 59  1  0
 98 67  2  0
121114  1  0
 47 41  1  0
 54 48  1  0
 97 69  2  0
 95 70  2  0
 75 71  2  0
 94 76  2  0
 92 77  2  0
 91 79  2  0
 88 81  1  0
  1128  1  0
  6129  1  0
  7130  1  0
  8131  1  0
 11132  1  0
 11133  1  0
 11134  1  0
 23135  1  0
 24136  1  0
 26137  1  0
 26138  1  0
 26139  1  0
 27140  1  0
 28141  1  0
 30142  1  0
 31143  1  0
 33144  1  0
 33145  1  0
 33146  1  0
 34147  1  0
 35148  1  0
 42149  1  0
 43150  1  0
 45151  1  0
 45152  1  0
 45153  1  0
 46154  1  0
 47155  1  0
 49156  1  0
 50157  1  0
 52158  1  0
 52159  1  0
 52160  1  0
 53161  1  0
 54162  1  0
 60163  1  0
 61164  1  0
 62165  1  0
 64166  1  0
 64167  1  0
 65168  1  0
 65169  1  0
 65170  1  0
 66171  1  0
 82172  1  0
 83173  1  0
 84174  1  0
 86175  1  0
 86176  1  0
 87177  1  0
 87178  1  0
 87179  1  0
 88180  1  0
100181  1  0
100182  1  0
101183  1  0
101184  1  0
101185  1  0
102186  1  0
102187  1  0
103188  1  0
103189  1  0
103190  1  0
105191  1  0
106192  1  0
108193  1  0
109194  1  0
110195  1  0
115196  1  0
116197  1  0
117198  1  0
120199  1  0
120200  1  0
120201  1  0
M  END

