
     RDKit          3D

195212  0  0  0  0  0  0  0  0999 V2000
   -0.0321  -10.0874    1.2683 C   0  0  0  0  0  0  0  0  0  0  0  0
   -1.0293  -10.9863    1.1842 C   0  0  0  0  0  0  0  0  0  0  0  0
   -2.3713  -10.8058    1.7384 C   0  0  0  0  0  0  0  0  0  0  0  0
   -2.8292   -9.7604    2.2715 O   0  0  0  0  0  0  0  0  0  0  0  0
   -3.0573  -12.0752    1.6860 C   0  0  0  0  0  0  0  0  0  0  0  0
   -4.3681  -12.3372    2.0773 C   0  0  0  0  0  0  0  0  0  0  0  0
   -4.8999  -13.6024    1.8253 C   0  0  0  0  0  0  0  0  0  0  0  0
   -4.1417  -14.5626    1.1373 C   0  0  0  0  0  0  0  0  0  0  0  0
   -2.8165  -14.2804    0.7244 C   0  0  0  0  0  0  0  0  0  0  0  0
   -2.1076  -15.1696   -0.0915 O   0  0  0  0  0  0  0  0  0  0  0  0
   -2.5961  -16.4254   -0.5477 C   0  0  0  0  0  0  0  0  0  0  0  0
   -2.2449  -13.0405    1.0998 C   0  0  0  0  0  0  0  0  0  0  0  0
   -0.9132  -12.4265    0.7970 C   0  0  0  0  0  0  0  0  0  0  0  0
    0.1721  -13.0086    0.2213 C   0  0  0  0  0  0  0  0  0  0  0  0
    0.4340  -14.4220    0.2943 C   0  0  0  0  0  0  0  0  0  0  0  0
    0.6601  -15.5565    0.3498 N   0  0  0  0  0  0  0  0  0  0  0  0
    1.1715  -12.2375   -0.4764 C   0  0  0  0  0  0  0  0  0  0  0  0
    1.9665  -11.6136   -1.0421 N   0  0  0  0  0  0  0  0  0  0  0  0
   -0.2439   -8.6329    1.3733 C   0  0  0  0  0  0  0  0  0  0  0  0
    0.6539   -7.7157    1.9225 C   0  0  0  0  0  0  0  0  0  0  0  0
    1.8924   -8.1225    2.6223 C   0  0  0  0  0  0  0  0  0  0  0  0
    1.9008   -8.2546    4.0341 C   0  0  0  0  0  0  0  0  0  0  0  0
    3.0328   -8.7906    4.6676 C   0  0  0  0  0  0  0  0  0  0  0  0
    4.1537   -9.1825    3.9262 C   0  0  0  0  0  0  0  0  0  0  0  0
    5.3376   -9.8048    4.6173 C   0  0  0  0  0  0  0  0  0  0  0  0
    6.2622   -8.7390    5.1943 C   0  0  0  0  0  0  0  0  0  0  0  0
    4.1735   -8.9763    2.5423 C   0  0  0  0  0  0  0  0  0  0  0  0
    3.0509   -8.4616    1.8757 C   0  0  0  0  0  0  0  0  0  0  0  0
    3.1228   -8.2589    0.3759 C   0  0  0  0  0  0  0  0  0  0  0  0
    3.5431   -6.8312    0.0382 C   0  0  0  0  0  0  0  0  0  0  0  0
    0.7051   -7.8968    4.8899 C   0  0  0  0  0  0  0  0  0  0  0  0
   -0.1138   -9.1388    5.2257 C   0  0  0  0  0  0  0  0  0  0  0  0
    0.3059   -6.3768    1.6880 C   0  0  0  0  0  0  0  0  0  0  0  0
   -0.8565   -6.2341    0.9374 C   0  0  0  0  0  0  0  0  0  0  0  0
   -1.4159   -7.7687    0.5300 S   0  0  0  0  0  0  0  0  0  0  0  0
   -1.4022   -4.9646    0.4287 C   0  0  0  0  0  0  0  0  0  0  0  0
   -2.7212   -4.7268   -0.0184 C   0  0  0  0  0  0  0  0  0  0  0  0
   -3.8402   -5.6801    0.0792 C   0  0  0  0  0  0  0  0  0  0  0  0
   -4.1766   -6.2565    1.3154 C   0  0  0  0  0  0  0  0  0  0  0  0
   -5.1874   -7.2142    1.3936 C   0  0  0  0  0  0  0  0  0  0  0  0
   -5.8810   -7.5942    0.2422 C   0  0  0  0  0  0  0  0  0  0  0  0
   -5.5622   -7.0189   -0.9976 C   0  0  0  0  0  0  0  0  0  0  0  0
   -6.3190   -7.4087   -2.2388 C   0  0  0  0  0  0  0  0  0  0  0  0
   -7.4346   -6.4094   -2.5228 C   0  0  0  0  0  0  0  0  0  0  0  0
   -4.5491   -6.0496   -1.0719 C   0  0  0  0  0  0  0  0  0  0  0  0
   -2.8425   -3.4359   -0.5347 C   0  0  0  0  0  0  0  0  0  0  0  0
   -4.1564   -2.5094   -1.1255 S   0  0  0  0  0  0  0  0  0  0  0  0
   -3.1441   -1.1571   -1.3161 C   0  0  0  0  0  0  0  0  0  0  0  0
   -3.1891    0.1381   -1.7549 C   0  0  0  0  0  0  0  0  0  0  0  0
   -4.2209    0.8914   -2.3277 C   0  0  0  0  0  0  0  0  0  0  0  0
   -3.9501    2.2329   -2.7234 C   0  0  0  0  0  0  0  0  0  0  0  0
   -4.9791    2.9362   -3.2567 N   0  0  0  0  0  0  0  0  0  0  0  0
   -6.1661    1.7803   -3.1967 S   0  0  0  0  0  0  0  0  0  0  0  0
   -5.4799    0.4287   -2.5306 N   0  0  0  0  0  0  0  0  0  0  0  0
   -2.6757    2.7625   -2.4847 C   0  0  0  0  0  0  0  0  0  0  0  0
   -2.2371    4.0569   -2.5145 C   0  0  0  0  0  0  0  0  0  0  0  0
   -2.8660    5.6062   -2.8142 S   0  0  0  0  0  0  0  0  0  0  0  0
   -1.5153    6.3412   -2.0652 C   0  0  0  0  0  0  0  0  0  0  0  0
   -1.1904    7.6666   -1.7305 C   0  0  0  0  0  0  0  0  0  0  0  0
   -1.8932    8.8597   -2.2789 C   0  0  0  0  0  0  0  0  0  0  0  0
   -2.0804   10.0205   -1.5094 C   0  0  0  0  0  0  0  0  0  0  0  0
   -2.7347   11.1322   -2.0450 C   0  0  0  0  0  0  0  0  0  0  0  0
   -3.2188   11.1010   -3.3527 C   0  0  0  0  0  0  0  0  0  0  0  0
   -3.0287    9.9621   -4.1447 C   0  0  0  0  0  0  0  0  0  0  0  0
   -3.5736    9.9106   -5.5470 C   0  0  0  0  0  0  0  0  0  0  0  0
   -5.0190    9.4236   -5.5441 C   0  0  0  0  0  0  0  0  0  0  0  0
   -2.3684    8.8479   -3.6038 C   0  0  0  0  0  0  0  0  0  0  0  0
   -0.0838    7.6779   -0.8451 C   0  0  0  0  0  0  0  0  0  0  0  0
    0.4759    6.0977   -0.5844 S   0  0  0  0  0  0  0  0  0  0  0  0
   -0.6733    5.3867   -1.5539 C   0  0  0  0  0  0  0  0  0  0  0  0
   -1.0633    4.0889   -1.8443 C   0  0  0  0  0  0  0  0  0  0  0  0
   -0.6595    2.8668   -1.4149 N   0  0  0  0  0  0  0  0  0  0  0  0
   -1.6507    2.0205   -1.8584 C   0  0  0  0  0  0  0  0  0  0  0  0
   -1.8832    0.6407   -1.5857 C   0  0  0  0  0  0  0  0  0  0  0  0
   -1.0321   -0.3620   -1.1738 N   0  0  0  0  0  0  0  0  0  0  0  0
   -1.8648   -1.4085   -0.9621 C   0  0  0  0  0  0  0  0  0  0  0  0
   -1.6860   -2.7012   -0.5085 C   0  0  0  0  0  0  0  0  0  0  0  0
   -0.4409   -3.5812    0.1722 S   0  0  0  0  0  0  0  0  0  0  0  0
    0.4105   -0.5328   -1.4101 C   0  0  0  0  0  0  0  0  0  0  0  0
    0.8323   -0.0319   -2.7948 C   0  0  0  0  0  0  0  0  0  0  0  0
    0.4281    2.6392   -0.4555 C   0  0  0  0  0  0  0  0  0  0  0  0
   -0.1070    2.2569    0.9225 C   0  0  0  0  0  0  0  0  0  0  0  0
    0.6114    8.8372   -0.2702 C   0  0  0  0  0  0  0  0  0  0  0  0
    0.9733    9.0103    1.0713 C   0  0  0  0  0  0  0  0  0  0  0  0
    0.5380    8.1299    2.1845 C   0  0  0  0  0  0  0  0  0  0  0  0
    1.3577    7.0478    2.6064 C   0  0  0  0  0  0  0  0  0  0  0  0
    0.9496    6.2542    3.6890 C   0  0  0  0  0  0  0  0  0  0  0  0
   -0.2499    6.5077    4.3568 C   0  0  0  0  0  0  0  0  0  0  0  0
   -0.6697    5.6502    5.5233 C   0  0  0  0  0  0  0  0  0  0  0  0
   -0.2281    6.2673    6.8468 C   0  0  0  0  0  0  0  0  0  0  0  0
   -1.0506    7.5783    3.9519 C   0  0  0  0  0  0  0  0  0  0  0  0
   -0.6779    8.3920    2.8705 C   0  0  0  0  0  0  0  0  0  0  0  0
   -1.6324    9.4898    2.4532 C   0  0  0  0  0  0  0  0  0  0  0  0
   -2.8577    8.9053    1.7560 C   0  0  0  0  0  0  0  0  0  0  0  0
    2.6842    6.7235    1.9571 C   0  0  0  0  0  0  0  0  0  0  0  0
    3.8472    7.1689    2.8391 C   0  0  0  0  0  0  0  0  0  0  0  0
    1.7693   10.1459    1.2830 C   0  0  0  0  0  0  0  0  0  0  0  0
    2.0770   10.8272    0.1102 C   0  0  0  0  0  0  0  0  0  0  0  0
    1.3166   10.0609   -1.1820 S   0  0  0  0  0  0  0  0  0  0  0  0
    2.8714   12.0626    0.0279 C   0  0  0  0  0  0  0  0  0  0  0  0
    3.6883   12.3532   -0.9985 C   0  0  0  0  0  0  0  0  0  0  0  0
    4.0741   13.7186   -1.3578 C   0  0  0  0  0  0  0  0  0  0  0  0
    4.0042   14.7372   -0.6178 O   0  0  0  0  0  0  0  0  0  0  0  0
    4.4682   13.7140   -2.7543 C   0  0  0  0  0  0  0  0  0  0  0  0
    4.7421   14.7997   -3.5818 C   0  0  0  0  0  0  0  0  0  0  0  0
    4.9421   14.5645   -4.9484 C   0  0  0  0  0  0  0  0  0  0  0  0
    4.8005   13.2677   -5.4741 C   0  0  0  0  0  0  0  0  0  0  0  0
    4.4842   12.1769   -4.6291 C   0  0  0  0  0  0  0  0  0  0  0  0
    4.1980   10.8987   -5.1310 O   0  0  0  0  0  0  0  0  0  0  0  0
    4.2074   10.5549   -6.5126 C   0  0  0  0  0  0  0  0  0  0  0  0
    4.4076   12.4194   -3.2453 C   0  0  0  0  0  0  0  0  0  0  0  0
    4.1184   11.4844   -2.1303 C   0  0  0  0  0  0  0  0  0  0  0  0
    4.6822   10.2594   -1.9814 C   0  0  0  0  0  0  0  0  0  0  0  0
    5.5027    9.6615   -3.0044 C   0  0  0  0  0  0  0  0  0  0  0  0
    6.1846    9.1904   -3.8086 N   0  0  0  0  0  0  0  0  0  0  0  0
    4.7314    9.6013   -0.7030 C   0  0  0  0  0  0  0  0  0  0  0  0
    4.7863    9.0703    0.3219 N   0  0  0  0  0  0  0  0  0  0  0  0
    0.9909  -10.4136    1.2095 H   0  0  0  0  0  0  0  0  0  0  0  0
   -4.9737  -11.5746    2.5508 H   0  0  0  0  0  0  0  0  0  0  0  0
   -5.9146  -13.8275    2.1309 H   0  0  0  0  0  0  0  0  0  0  0  0
   -4.6083  -15.5119    0.9043 H   0  0  0  0  0  0  0  0  0  0  0  0
   -2.8171  -17.0918    0.3141 H   0  0  0  0  0  0  0  0  0  0  0  0
   -1.8205  -16.9056   -1.1794 H   0  0  0  0  0  0  0  0  0  0  0  0
   -3.5095  -16.2819   -1.1618 H   0  0  0  0  0  0  0  0  0  0  0  0
    3.0375   -8.9229    5.7444 H   0  0  0  0  0  0  0  0  0  0  0  0
    4.9885  -10.4640    5.4425 H   0  0  0  0  0  0  0  0  0  0  0  0
    5.9102  -10.4441    3.9076 H   0  0  0  0  0  0  0  0  0  0  0  0
    5.7284   -8.1394    5.9602 H   0  0  0  0  0  0  0  0  0  0  0  0
    7.1366   -9.2317    5.6731 H   0  0  0  0  0  0  0  0  0  0  0  0
    6.6298   -8.0663    4.3929 H   0  0  0  0  0  0  0  0  0  0  0  0
    5.0584   -9.2496    1.9758 H   0  0  0  0  0  0  0  0  0  0  0  0
    2.1480   -8.4839   -0.1019 H   0  0  0  0  0  0  0  0  0  0  0  0
    3.8531   -8.9603   -0.0736 H   0  0  0  0  0  0  0  0  0  0  0  0
    2.8593   -6.0937    0.5099 H   0  0  0  0  0  0  0  0  0  0  0  0
    3.5074   -6.6893   -1.0605 H   0  0  0  0  0  0  0  0  0  0  0  0
    4.5786   -6.6443    0.3936 H   0  0  0  0  0  0  0  0  0  0  0  0
    0.0541   -7.1478    4.3959 H   0  0  0  0  0  0  0  0  0  0  0  0
    1.0539   -7.4303    5.8360 H   0  0  0  0  0  0  0  0  0  0  0  0
    0.4988   -9.8560    5.8117 H   0  0  0  0  0  0  0  0  0  0  0  0
   -0.9930   -8.8430    5.8379 H   0  0  0  0  0  0  0  0  0  0  0  0
   -0.4708   -9.6337    4.3010 H   0  0  0  0  0  0  0  0  0  0  0  0
    0.8987   -5.5468    2.0399 H   0  0  0  0  0  0  0  0  0  0  0  0
   -3.6375   -5.9747    2.2123 H   0  0  0  0  0  0  0  0  0  0  0  0
   -5.4322   -7.6652    2.3478 H   0  0  0  0  0  0  0  0  0  0  0  0
   -6.6637   -8.3349    0.3177 H   0  0  0  0  0  0  0  0  0  0  0  0
   -5.6274   -7.4437   -3.1074 H   0  0  0  0  0  0  0  0  0  0  0  0
   -6.7575   -8.4245   -2.1260 H   0  0  0  0  0  0  0  0  0  0  0  0
   -7.0131   -5.3908   -2.6610 H   0  0  0  0  0  0  0  0  0  0  0  0
   -7.9660   -6.7000   -3.4532 H   0  0  0  0  0  0  0  0  0  0  0  0
   -8.1567   -6.3955   -1.6798 H   0  0  0  0  0  0  0  0  0  0  0  0
   -4.2898   -5.6091   -2.0256 H   0  0  0  0  0  0  0  0  0  0  0  0
   -1.7275   10.0763   -0.4939 H   0  0  0  0  0  0  0  0  0  0  0  0
   -2.8703   12.0164   -1.4400 H   0  0  0  0  0  0  0  0  0  0  0  0
   -3.7360   11.9666   -3.7498 H   0  0  0  0  0  0  0  0  0  0  0  0
   -3.5221   10.9179   -6.0140 H   0  0  0  0  0  0  0  0  0  0  0  0
   -2.9625    9.2268   -6.1739 H   0  0  0  0  0  0  0  0  0  0  0  0
   -5.3925    9.3516   -6.5874 H   0  0  0  0  0  0  0  0  0  0  0  0
   -5.0845    8.4190   -5.0744 H   0  0  0  0  0  0  0  0  0  0  0  0
   -5.6660   10.1332   -4.9836 H   0  0  0  0  0  0  0  0  0  0  0  0
   -2.2097    7.9786   -4.2291 H   0  0  0  0  0  0  0  0  0  0  0  0
    0.6677   -1.6101   -1.4018 H   0  0  0  0  0  0  0  0  0  0  0  0
    1.0032   -0.1169   -0.5788 H   0  0  0  0  0  0  0  0  0  0  0  0
    1.9184   -0.2185   -2.9453 H   0  0  0  0  0  0  0  0  0  0  0  0
    0.2680   -0.5776   -3.5830 H   0  0  0  0  0  0  0  0  0  0  0  0
    0.6483    1.0515   -2.9262 H   0  0  0  0  0  0  0  0  0  0  0  0
    1.1558    1.9259   -0.8491 H   0  0  0  0  0  0  0  0  0  0  0  0
    1.0400    3.5490   -0.3384 H   0  0  0  0  0  0  0  0  0  0  0  0
    0.7382    2.1742    1.6383 H   0  0  0  0  0  0  0  0  0  0  0  0
   -0.8077    3.0418    1.2808 H   0  0  0  0  0  0  0  0  0  0  0  0
   -0.6368    1.2852    0.8829 H   0  0  0  0  0  0  0  0  0  0  0  0
    1.5766    5.4319    4.0138 H   0  0  0  0  0  0  0  0  0  0  0  0
   -1.7751    5.5299    5.5276 H   0  0  0  0  0  0  0  0  0  0  0  0
   -0.2371    4.6311    5.4315 H   0  0  0  0  0  0  0  0  0  0  0  0
    0.8778    6.3239    6.8985 H   0  0  0  0  0  0  0  0  0  0  0  0
   -0.5942    5.6417    7.6882 H   0  0  0  0  0  0  0  0  0  0  0  0
   -0.6551    7.2857    6.9572 H   0  0  0  0  0  0  0  0  0  0  0  0
   -1.9757    7.7814    4.4775 H   0  0  0  0  0  0  0  0  0  0  0  0
   -1.1466   10.2302    1.7880 H   0  0  0  0  0  0  0  0  0  0  0  0
   -1.9632   10.0580    3.3522 H   0  0  0  0  0  0  0  0  0  0  0  0
   -3.4583    8.3029    2.4706 H   0  0  0  0  0  0  0  0  0  0  0  0
   -3.4945    9.7234    1.3648 H   0  0  0  0  0  0  0  0  0  0  0  0
   -2.5464    8.2558    0.9114 H   0  0  0  0  0  0  0  0  0  0  0  0
    2.7859    7.1930    0.9591 H   0  0  0  0  0  0  0  0  0  0  0  0
    2.7558    5.6256    1.7960 H   0  0  0  0  0  0  0  0  0  0  0  0
    3.8297    6.6251    3.8088 H   0  0  0  0  0  0  0  0  0  0  0  0
    4.8083    6.9444    2.3276 H   0  0  0  0  0  0  0  0  0  0  0  0
    3.7847    8.2642    3.0337 H   0  0  0  0  0  0  0  0  0  0  0  0
    2.1320   10.4464    2.2599 H   0  0  0  0  0  0  0  0  0  0  0  0
    2.6922   12.8166    0.7843 H   0  0  0  0  0  0  0  0  0  0  0  0
    4.7834   15.8045   -3.1862 H   0  0  0  0  0  0  0  0  0  0  0  0
    5.1670   15.3898   -5.6107 H   0  0  0  0  0  0  0  0  0  0  0  0
    4.9005   13.1292   -6.5431 H   0  0  0  0  0  0  0  0  0  0  0  0
    3.4488   11.1527   -7.0630 H   0  0  0  0  0  0  0  0  0  0  0  0
    3.9624    9.4801   -6.6200 H   0  0  0  0  0  0  0  0  0  0  0  0
    5.2166   10.7296   -6.9443 H   0  0  0  0  0  0  0  0  0  0  0  0
  1  2  2  3
  2  3  1  0
  3  4  2  0
  3  5  1  0
  5  6  2  0
  6  7  1  0
  7  8  2  0
  8  9  1  0
  9 10  1  0
 10 11  1  0
  9 12  2  0
 12 13  1  0
 13 14  2  3
 14 15  1  0
 15 16  3  0
 14 17  1  0
 17 18  3  0
  1 19  1  0
 19 20  2  0
 20 21  1  0
 21 22  2  0
 22 23  1  0
 23 24  2  0
 24 25  1  0
 25 26  1  0
 24 27  1  0
 27 28  2  0
 28 29  1  0
 29 30  1  0
 22 31  1  0
 31 32  1  0
 20 33  1  0
 33 34  2  0
 34 35  1  0
 34 36  1  0
 36 37  2  0
 37 38  1  0
 38 39  2  0
 39 40  1  0
 40 41  2  0
 41 42  1  0
 42 43  1  0
 43 44  1  0
 42 45  2  0
 37 46  1  0
 46 47  1  0
 47 48  1  0
 48 49  1  0
 49 50  1  0
 50 51  1  0
 51 52  2  0
 52 53  1  0
 53 54  1  0
 51 55  1  0
 55 56  1  0
 56 57  1  0
 57 58  1  0
 58 59  1  0
 59 60  1  0
 60 61  2  0
 61 62  1  0
 62 63  2  0
 63 64  1  0
 64 65  1  0
 65 66  1  0
 64 67  2  0
 59 68  2  0
 68 69  1  0
 69 70  1  0
 70 71  1  0
 71 72  1  0
 72 73  1  0
 73 74  1  0
 74 75  1  0
 75 76  1  0
 76 77  1  0
 77 78  1  0
 75 79  1  0
 79 80  1  0
 72 81  1  0
 81 82  1  0
 68 83  1  0
 83 84  2  0
 84 85  1  0
 85 86  2  0
 86 87  1  0
 87 88  2  0
 88 89  1  0
 89 90  1  0
 88 91  1  0
 91 92  2  0
 92 93  1  0
 93 94  1  0
 86 95  1  0
 95 96  1  0
 84 97  1  0
 97 98  2  0
 98 99  1  0
 98100  1  0
100101  2  3
101102  1  0
102103  2  0
102104  1  0
104105  2  0
105106  1  0
106107  2  0
107108  1  0
108109  1  0
109110  1  0
108111  2  0
111112  1  0
112113  2  3
113114  1  0
114115  3  0
113116  1  0
116117  3  0
 13  2  1  0
 35 19  1  0
 78 36  1  0
 99 83  1  0
112101  1  0
 12  5  1  0
 28 21  1  0
 45 38  1  0
 77 46  2  0
 92 85  1  0
111104  1  0
 76 48  2  0
 74 49  2  0
 54 50  2  0
 73 55  2  0
 71 56  2  0
 70 58  2  0
 67 60  1  0
  1118  1  0
  6119  1  0
  7120  1  0
  8121  1  0
 11122  1  0
 11123  1  0
 11124  1  0
 23125  1  0
 25126  1  0
 25127  1  0
 26128  1  0
 26129  1  0
 26130  1  0
 27131  1  0
 29132  1  0
 29133  1  0
 30134  1  0
 30135  1  0
 30136  1  0
 31137  1  0
 31138  1  0
 32139  1  0
 32140  1  0
 32141  1  0
 33142  1  0
 39143  1  0
 40144  1  0
 41145  1  0
 43146  1  0
 43147  1  0
 44148  1  0
 44149  1  0
 44150  1  0
 45151  1  0
 61152  1  0
 62153  1  0
 63154  1  0
 65155  1  0
 65156  1  0
 66157  1  0
 66158  1  0
 66159  1  0
 67160  1  0
 79161  1  0
 79162  1  0
 80163  1  0
 80164  1  0
 80165  1  0
 81166  1  0
 81167  1  0
 82168  1  0
 82169  1  0
 82170  1  0
 87171  1  0
 89172  1  0
 89173  1  0
 90174  1  0
 90175  1  0
 90176  1  0
 91177  1  0
 93178  1  0
 93179  1  0
 94180  1  0
 94181  1  0
 94182  1  0
 95183  1  0
 95184  1  0
 96185  1  0
 96186  1  0
 96187  1  0
 97188  1  0
100189  1  0
105190  1  0
106191  1  0
107192  1  0
110193  1  0
110194  1  0
110195  1  0
M  END

