
     RDKit          3D

211233  0  0  0  0  0  0  0  0999 V2000
   -2.7676   -9.0688   -0.5453 C   0  0  0  0  0  0  0  0  0  0  0  0
   -3.8521   -8.7388   -1.2823 C   0  0  0  0  0  0  0  0  0  0  0  0
   -4.3002   -7.3646   -1.5320 C   0  0  0  0  0  0  0  0  0  0  0  0
   -3.6145   -6.3154   -1.4055 O   0  0  0  0  0  0  0  0  0  0  0  0
   -5.6706   -7.3961   -1.9758 C   0  0  0  0  0  0  0  0  0  0  0  0
   -6.4796   -6.2988   -2.2663 C   0  0  0  0  0  0  0  0  0  0  0  0
   -7.7706   -6.5292   -2.7387 C   0  0  0  0  0  0  0  0  0  0  0  0
   -8.2122   -7.8394   -2.9728 C   0  0  0  0  0  0  0  0  0  0  0  0
   -7.3682   -8.9488   -2.7120 C   0  0  0  0  0  0  0  0  0  0  0  0
   -7.7596  -10.2423   -3.0782 O   0  0  0  0  0  0  0  0  0  0  0  0
   -8.9535  -10.5636   -3.7828 C   0  0  0  0  0  0  0  0  0  0  0  0
   -6.1029   -8.7123   -2.1166 C   0  0  0  0  0  0  0  0  0  0  0  0
   -4.9746   -9.6331   -1.7198 C   0  0  0  0  0  0  0  0  0  0  0  0
   -4.9453  -10.9932   -1.7286 C   0  0  0  0  0  0  0  0  0  0  0  0
   -3.7038  -11.7294   -1.7128 C   0  0  0  0  0  0  0  0  0  0  0  0
   -2.7088  -12.3201   -1.6965 N   0  0  0  0  0  0  0  0  0  0  0  0
   -6.1185  -11.8220   -1.6907 C   0  0  0  0  0  0  0  0  0  0  0  0
   -7.0431  -12.5150   -1.6479 N   0  0  0  0  0  0  0  0  0  0  0  0
   -1.8633   -8.0529    0.0108 C   0  0  0  0  0  0  0  0  0  0  0  0
   -2.1739   -7.2004    1.0818 C   0  0  0  0  0  0  0  0  0  0  0  0
   -3.2439   -7.4319    2.0079 N   0  0  0  0  0  0  0  0  0  0  0  0
   -2.9655   -8.2482    3.1524 C   0  0  0  0  0  0  0  0  0  0  0  0
   -3.0070   -9.6460    3.0506 C   0  0  0  0  0  0  0  0  0  0  0  0
   -2.6172  -10.4413    4.1317 C   0  0  0  0  0  0  0  0  0  0  0  0
   -2.1560   -9.8466    5.3174 C   0  0  0  0  0  0  0  0  0  0  0  0
   -1.7195  -10.6956    6.4768 C   0  0  0  0  0  0  0  0  0  0  0  0
   -2.1299   -8.4476    5.4219 C   0  0  0  0  0  0  0  0  0  0  0  0
   -2.5292   -7.6519    4.3429 C   0  0  0  0  0  0  0  0  0  0  0  0
   -4.5841   -6.9906    1.7223 C   0  0  0  0  0  0  0  0  0  0  0  0
   -4.8485   -5.6361    1.4494 C   0  0  0  0  0  0  0  0  0  0  0  0
   -6.1468   -5.2113    1.1537 C   0  0  0  0  0  0  0  0  0  0  0  0
   -7.1996   -6.1391    1.1008 C   0  0  0  0  0  0  0  0  0  0  0  0
   -8.5963   -5.6938    0.7729 C   0  0  0  0  0  0  0  0  0  0  0  0
   -6.9399   -7.4927    1.3714 C   0  0  0  0  0  0  0  0  0  0  0  0
   -5.6431   -7.9132    1.6854 C   0  0  0  0  0  0  0  0  0  0  0  0
   -1.2919   -6.1247    1.1416 C   0  0  0  0  0  0  0  0  0  0  0  0
   -1.3284   -4.6597    1.9542 S   0  0  0  0  0  0  0  0  0  0  0  0
   -0.0776   -3.9796    1.0338 C   0  0  0  0  0  0  0  0  0  0  0  0
    0.4016   -4.9155    0.1003 C   0  0  0  0  0  0  0  0  0  0  0  0
    1.5396   -4.6641   -0.7572 N   0  0  0  0  0  0  0  0  0  0  0  0
    2.6151   -3.8535   -0.2235 C   0  0  0  0  0  0  0  0  0  0  0  0
    3.1385   -4.1237    1.0558 C   0  0  0  0  0  0  0  0  0  0  0  0
    4.0678   -3.2557    1.6396 C   0  0  0  0  0  0  0  0  0  0  0  0
    4.4857   -2.1029    0.9559 C   0  0  0  0  0  0  0  0  0  0  0  0
    5.4659   -1.1637    1.5915 C   0  0  0  0  0  0  0  0  0  0  0  0
    4.0072   -1.8594   -0.3422 C   0  0  0  0  0  0  0  0  0  0  0  0
    3.0750   -2.7263   -0.9252 C   0  0  0  0  0  0  0  0  0  0  0  0
    1.6193   -5.1661   -2.1083 C   0  0  0  0  0  0  0  0  0  0  0  0
    2.8587   -5.5591   -2.6484 C   0  0  0  0  0  0  0  0  0  0  0  0
    2.9510   -5.9825   -3.9767 C   0  0  0  0  0  0  0  0  0  0  0  0
    1.8070   -6.0122   -4.7897 C   0  0  0  0  0  0  0  0  0  0  0  0
    1.8916   -6.4662   -6.2166 C   0  0  0  0  0  0  0  0  0  0  0  0
    0.5631   -5.6648   -4.2428 C   0  0  0  0  0  0  0  0  0  0  0  0
    0.4734   -5.2434   -2.9146 C   0  0  0  0  0  0  0  0  0  0  0  0
   -0.3252   -6.1097    0.1823 C   0  0  0  0  0  0  0  0  0  0  0  0
   -0.4940   -7.4595   -0.8081 S   0  0  0  0  0  0  0  0  0  0  0  0
    0.0625   -2.5275    0.8836 C   0  0  0  0  0  0  0  0  0  0  0  0
   -0.4462   -1.7843   -0.1996 C   0  0  0  0  0  0  0  0  0  0  0  0
   -1.0883   -2.3259   -1.4072 C   0  0  0  0  0  0  0  0  0  0  0  0
   -2.3167   -2.9989   -1.3225 C   0  0  0  0  0  0  0  0  0  0  0  0
   -2.9722   -3.4019   -2.4905 C   0  0  0  0  0  0  0  0  0  0  0  0
   -2.3934   -3.1689   -3.7412 C   0  0  0  0  0  0  0  0  0  0  0  0
   -1.1540   -2.5165   -3.8378 C   0  0  0  0  0  0  0  0  0  0  0  0
   -0.5168   -2.2885   -5.1859 C   0  0  0  0  0  0  0  0  0  0  0  0
   -0.7245   -0.8497   -5.6568 C   0  0  0  0  0  0  0  0  0  0  0  0
   -0.5214   -2.0698   -2.6664 C   0  0  0  0  0  0  0  0  0  0  0  0
   -0.3814   -0.4232    0.0574 C   0  0  0  0  0  0  0  0  0  0  0  0
   -1.2617    0.8710   -0.6152 S   0  0  0  0  0  0  0  0  0  0  0  0
   -0.7541    1.8848    0.6391 C   0  0  0  0  0  0  0  0  0  0  0  0
   -1.2216    3.0242    1.2239 C   0  0  0  0  0  0  0  0  0  0  0  0
   -2.3224    3.8235    0.9167 C   0  0  0  0  0  0  0  0  0  0  0  0
   -2.7053    4.8360    1.8437 C   0  0  0  0  0  0  0  0  0  0  0  0
   -3.7653    5.6086    1.4984 N   0  0  0  0  0  0  0  0  0  0  0  0
   -4.1547    4.9195    0.0440 S   0  0  0  0  0  0  0  0  0  0  0  0
   -3.0635    3.6984   -0.2115 N   0  0  0  0  0  0  0  0  0  0  0  0
   -1.9282    5.0384    2.9995 C   0  0  0  0  0  0  0  0  0  0  0  0
   -1.7627    6.2187    3.6823 C   0  0  0  0  0  0  0  0  0  0  0  0
   -2.2749    7.7759    3.2702 S   0  0  0  0  0  0  0  0  0  0  0  0
   -0.7932    8.4748    3.6981 C   0  0  0  0  0  0  0  0  0  0  0  0
   -0.2050    9.6041    3.1188 C   0  0  0  0  0  0  0  0  0  0  0  0
   -1.0016   10.6856    2.5134 C   0  0  0  0  0  0  0  0  0  0  0  0
   -1.4319   10.6126    1.1813 C   0  0  0  0  0  0  0  0  0  0  0  0
   -2.2315   11.6262    0.6442 C   0  0  0  0  0  0  0  0  0  0  0  0
   -2.6454   12.6941    1.4473 C   0  0  0  0  0  0  0  0  0  0  0  0
   -2.2701   12.7482    2.7996 C   0  0  0  0  0  0  0  0  0  0  0  0
   -2.7548   13.8692    3.6830 C   0  0  0  0  0  0  0  0  0  0  0  0
   -1.6671   14.9199    3.8896 C   0  0  0  0  0  0  0  0  0  0  0  0
   -1.4301   11.7520    3.3210 C   0  0  0  0  0  0  0  0  0  0  0  0
    1.1943    9.5026    3.0466 C   0  0  0  0  0  0  0  0  0  0  0  0
    1.6335    8.0343    3.7713 S   0  0  0  0  0  0  0  0  0  0  0  0
    0.0838    7.5065    4.1421 C   0  0  0  0  0  0  0  0  0  0  0  0
   -0.4717    6.2145    4.1485 C   0  0  0  0  0  0  0  0  0  0  0  0
    0.1391    5.0150    3.9411 N   0  0  0  0  0  0  0  0  0  0  0  0
   -0.7838    4.2610    3.2597 C   0  0  0  0  0  0  0  0  0  0  0  0
   -0.5346    3.1335    2.4357 C   0  0  0  0  0  0  0  0  0  0  0  0
    0.2049    2.0006    2.6799 N   0  0  0  0  0  0  0  0  0  0  0  0
    0.0465    1.2667    1.5484 C   0  0  0  0  0  0  0  0  0  0  0  0
    0.2061   -0.0818    1.2521 C   0  0  0  0  0  0  0  0  0  0  0  0
    0.5927   -1.4743    2.1117 S   0  0  0  0  0  0  0  0  0  0  0  0
    0.6587    1.4761    3.9722 C   0  0  0  0  0  0  0  0  0  0  0  0
    2.1680    1.2084    3.9570 C   0  0  0  0  0  0  0  0  0  0  0  0
    1.5830    4.7707    4.0988 C   0  0  0  0  0  0  0  0  0  0  0  0
    2.3191    4.7898    2.7555 C   0  0  0  0  0  0  0  0  0  0  0  0
    1.9735    9.9576    1.8868 C   0  0  0  0  0  0  0  0  0  0  0  0
    1.6847    9.3611    0.6400 C   0  0  0  0  0  0  0  0  0  0  0  0
    2.5871    9.5128   -0.4039 C   0  0  0  0  0  0  0  0  0  0  0  0
    2.6475    8.7682   -1.6514 C   0  0  0  0  0  0  0  0  0  0  0  0
    1.7705    7.9840   -2.1016 O   0  0  0  0  0  0  0  0  0  0  0  0
    3.9722    9.0017   -2.2085 C   0  0  0  0  0  0  0  0  0  0  0  0
    4.6518    9.8711   -1.3676 C   0  0  0  0  0  0  0  0  0  0  0  0
    3.7770   10.1974   -0.2327 C   0  0  0  0  0  0  0  0  0  0  0  0
    4.0810   10.8176    0.9819 C   0  0  0  0  0  0  0  0  0  0  0  0
    3.1642   10.6997    2.0473 C   0  0  0  0  0  0  0  0  0  0  0  0
    6.0152   10.1133   -1.5372 C   0  0  0  0  0  0  0  0  0  0  0  0
    6.6914    9.4303   -2.5639 C   0  0  0  0  0  0  0  0  0  0  0  0
    6.0078    8.5006   -3.3837 C   0  0  0  0  0  0  0  0  0  0  0  0
    4.6219    8.3081   -3.2261 C   0  0  0  0  0  0  0  0  0  0  0  0
    6.7502    7.6301   -4.3093 C   0  0  0  0  0  0  0  0  0  0  0  0
    7.5136    6.6058   -3.8779 C   0  0  0  0  0  0  0  0  0  0  0  0
    7.6227    6.1422   -2.4854 C   0  0  0  0  0  0  0  0  0  0  0  0
    7.2096    6.7418   -1.4570 O   0  0  0  0  0  0  0  0  0  0  0  0
    8.1948    4.8129   -2.4941 C   0  0  0  0  0  0  0  0  0  0  0  0
    8.3031    3.9293   -1.4194 C   0  0  0  0  0  0  0  0  0  0  0  0
    8.6851    2.6097   -1.6786 C   0  0  0  0  0  0  0  0  0  0  0  0
    8.8877    2.1766   -3.0010 C   0  0  0  0  0  0  0  0  0  0  0  0
    8.7393    3.0754   -4.0846 C   0  0  0  0  0  0  0  0  0  0  0  0
    8.7821    2.6357   -5.4157 O   0  0  0  0  0  0  0  0  0  0  0  0
    9.0034    1.2873   -5.8156 C   0  0  0  0  0  0  0  0  0  0  0  0
    8.4742    4.4323   -3.7960 C   0  0  0  0  0  0  0  0  0  0  0  0
    8.2105    5.5803   -4.7126 C   0  0  0  0  0  0  0  0  0  0  0  0
    8.8139    5.8065   -5.9083 C   0  0  0  0  0  0  0  0  0  0  0  0
    8.5495    6.9835   -6.6988 C   0  0  0  0  0  0  0  0  0  0  0  0
    8.3260    7.9111   -7.3605 N   0  0  0  0  0  0  0  0  0  0  0  0
    9.8548    4.9552   -6.4248 C   0  0  0  0  0  0  0  0  0  0  0  0
   10.7017    4.2879   -6.8459 N   0  0  0  0  0  0  0  0  0  0  0  0
   -2.5657  -10.0847   -0.2587 H   0  0  0  0  0  0  0  0  0  0  0  0
   -6.1204   -5.2865   -2.1216 H   0  0  0  0  0  0  0  0  0  0  0  0
   -8.4259   -5.6988   -2.9576 H   0  0  0  0  0  0  0  0  0  0  0  0
   -9.2106   -7.9753   -3.3693 H   0  0  0  0  0  0  0  0  0  0  0  0
   -9.8433  -10.2859   -3.1789 H   0  0  0  0  0  0  0  0  0  0  0  0
   -8.9736  -10.0409   -4.7631 H   0  0  0  0  0  0  0  0  0  0  0  0
   -8.9775  -11.6602   -3.9649 H   0  0  0  0  0  0  0  0  0  0  0  0
   -3.3321  -10.1160    2.1339 H   0  0  0  0  0  0  0  0  0  0  0  0
   -2.6576  -11.5207    4.0359 H   0  0  0  0  0  0  0  0  0  0  0  0
   -0.7518  -10.3245    6.8768 H   0  0  0  0  0  0  0  0  0  0  0  0
   -1.5817  -11.7552    6.1715 H   0  0  0  0  0  0  0  0  0  0  0  0
   -2.4852  -10.6492    7.2765 H   0  0  0  0  0  0  0  0  0  0  0  0
   -1.7826   -7.9748    6.3325 H   0  0  0  0  0  0  0  0  0  0  0  0
   -2.4707   -6.5732    4.4236 H   0  0  0  0  0  0  0  0  0  0  0  0
   -4.0555   -4.9057    1.4724 H   0  0  0  0  0  0  0  0  0  0  0  0
   -6.3266   -4.1584    0.9570 H   0  0  0  0  0  0  0  0  0  0  0  0
   -9.0008   -6.3131   -0.0529 H   0  0  0  0  0  0  0  0  0  0  0  0
   -8.6169   -4.6315    0.4511 H   0  0  0  0  0  0  0  0  0  0  0  0
   -9.2462   -5.8058    1.6659 H   0  0  0  0  0  0  0  0  0  0  0  0
   -7.7421   -8.2221    1.3239 H   0  0  0  0  0  0  0  0  0  0  0  0
   -5.4637   -8.9655    1.8692 H   0  0  0  0  0  0  0  0  0  0  0  0
    2.8075   -4.9955    1.6076 H   0  0  0  0  0  0  0  0  0  0  0  0
    4.4532   -3.4768    2.6282 H   0  0  0  0  0  0  0  0  0  0  0  0
    5.3715   -0.1428    1.1624 H   0  0  0  0  0  0  0  0  0  0  0  0
    6.4986   -1.5337    1.4220 H   0  0  0  0  0  0  0  0  0  0  0  0
    5.2801   -1.0908    2.6847 H   0  0  0  0  0  0  0  0  0  0  0  0
    4.3479   -0.9908   -0.8986 H   0  0  0  0  0  0  0  0  0  0  0  0
    2.6840   -2.4985   -1.9097 H   0  0  0  0  0  0  0  0  0  0  0  0
    3.7553   -5.5360   -2.0413 H   0  0  0  0  0  0  0  0  0  0  0  0
    3.9133   -6.2782   -4.3775 H   0  0  0  0  0  0  0  0  0  0  0  0
    1.5960   -7.5351   -6.2831 H   0  0  0  0  0  0  0  0  0  0  0  0
    1.2108   -5.8585   -6.8531 H   0  0  0  0  0  0  0  0  0  0  0  0
    2.9246   -6.3497   -6.6088 H   0  0  0  0  0  0  0  0  0  0  0  0
   -0.3383   -5.7029   -4.8487 H   0  0  0  0  0  0  0  0  0  0  0  0
   -0.4933   -4.9702   -2.5156 H   0  0  0  0  0  0  0  0  0  0  0  0
   -2.7870   -3.1742   -0.3607 H   0  0  0  0  0  0  0  0  0  0  0  0
   -3.9382   -3.8876   -2.4275 H   0  0  0  0  0  0  0  0  0  0  0  0
   -2.9100   -3.5069   -4.6348 H   0  0  0  0  0  0  0  0  0  0  0  0
   -0.9498   -2.9861   -5.9369 H   0  0  0  0  0  0  0  0  0  0  0  0
    0.5712   -2.5045   -5.1298 H   0  0  0  0  0  0  0  0  0  0  0  0
    0.0234   -0.1818   -5.1832 H   0  0  0  0  0  0  0  0  0  0  0  0
   -1.7419   -0.4910   -5.4060 H   0  0  0  0  0  0  0  0  0  0  0  0
   -0.6045   -0.7979   -6.7580 H   0  0  0  0  0  0  0  0  0  0  0  0
    0.4160   -1.5363   -2.7358 H   0  0  0  0  0  0  0  0  0  0  0  0
   -1.1644    9.7718    0.5541 H   0  0  0  0  0  0  0  0  0  0  0  0
   -2.5435   11.5805   -0.3920 H   0  0  0  0  0  0  0  0  0  0  0  0
   -3.2795   13.4649    1.0216 H   0  0  0  0  0  0  0  0  0  0  0  0
   -3.0644   13.4574    4.6697 H   0  0  0  0  0  0  0  0  0  0  0  0
   -3.6489   14.3561    3.2355 H   0  0  0  0  0  0  0  0  0  0  0  0
   -0.7869   14.4684    4.3944 H   0  0  0  0  0  0  0  0  0  0  0  0
   -2.0633   15.7365    4.5293 H   0  0  0  0  0  0  0  0  0  0  0  0
   -1.3560   15.3473    2.9129 H   0  0  0  0  0  0  0  0  0  0  0  0
   -1.1211   11.7939    4.3579 H   0  0  0  0  0  0  0  0  0  0  0  0
    0.3874    2.1728    4.7942 H   0  0  0  0  0  0  0  0  0  0  0  0
    0.1225    0.5302    4.1990 H   0  0  0  0  0  0  0  0  0  0  0  0
    2.5241    1.0475    4.9970 H   0  0  0  0  0  0  0  0  0  0  0  0
    2.7237    2.0607    3.5188 H   0  0  0  0  0  0  0  0  0  0  0  0
    2.4005    0.3056    3.3573 H   0  0  0  0  0  0  0  0  0  0  0  0
    1.7630    3.8242    4.6292 H   0  0  0  0  0  0  0  0  0  0  0  0
    2.0244    5.5307    4.7754 H   0  0  0  0  0  0  0  0  0  0  0  0
    2.1138    5.7337    2.2033 H   0  0  0  0  0  0  0  0  0  0  0  0
    3.4137    4.7069    2.9365 H   0  0  0  0  0  0  0  0  0  0  0  0
    2.0077    3.9392    2.1184 H   0  0  0  0  0  0  0  0  0  0  0  0
    0.8511    8.6806    0.5258 H   0  0  0  0  0  0  0  0  0  0  0  0
    5.0298   11.3152    1.1237 H   0  0  0  0  0  0  0  0  0  0  0  0
    3.4202   11.1152    3.0133 H   0  0  0  0  0  0  0  0  0  0  0  0
    6.5539   10.7562   -0.8546 H   0  0  0  0  0  0  0  0  0  0  0  0
    7.7581    9.5727   -2.6797 H   0  0  0  0  0  0  0  0  0  0  0  0
    4.0913    7.5631   -3.8075 H   0  0  0  0  0  0  0  0  0  0  0  0
    6.5377    7.7482   -5.3586 H   0  0  0  0  0  0  0  0  0  0  0  0
    8.0716    4.2506   -0.4118 H   0  0  0  0  0  0  0  0  0  0  0  0
    8.7773    1.9065   -0.8610 H   0  0  0  0  0  0  0  0  0  0  0  0
    9.1150    1.1326   -3.1667 H   0  0  0  0  0  0  0  0  0  0  0  0
    8.1901    0.6378   -5.4304 H   0  0  0  0  0  0  0  0  0  0  0  0
    9.9902    0.9366   -5.4473 H   0  0  0  0  0  0  0  0  0  0  0  0
    9.0023    1.2357   -6.9241 H   0  0  0  0  0  0  0  0  0  0  0  0
  1  2  2  3
  2  3  1  0
  3  4  2  0
  3  5  1  0
  5  6  2  0
  6  7  1  0
  7  8  2  0
  8  9  1  0
  9 10  1  0
 10 11  1  0
  9 12  2  0
 12 13  1  0
 13 14  2  3
 14 15  1  0
 15 16  3  0
 14 17  1  0
 17 18  3  0
  1 19  1  0
 19 20  2  0
 20 21  1  0
 21 22  1  0
 22 23  2  0
 23 24  1  0
 24 25  2  0
 25 26  1  0
 25 27  1  0
 27 28  2  0
 21 29  1  0
 29 30  2  0
 30 31  1  0
 31 32  2  0
 32 33  1  0
 32 34  1  0
 34 35  2  0
 20 36  1  0
 36 37  1  0
 37 38  1  0
 38 39  2  0
 39 40  1  0
 40 41  1  0
 41 42  2  0
 42 43  1  0
 43 44  2  0
 44 45  1  0
 44 46  1  0
 46 47  2  0
 40 48  1  0
 48 49  2  0
 49 50  1  0
 50 51  2  0
 51 52  1  0
 51 53  1  0
 53 54  2  0
 39 55  1  0
 55 56  1  0
 38 57  1  0
 57 58  2  0
 58 59  1  0
 59 60  2  0
 60 61  1  0
 61 62  2  0
 62 63  1  0
 63 64  1  0
 64 65  1  0
 63 66  2  0
 58 67  1  0
 67 68  1  0
 68 69  1  0
 69 70  1  0
 70 71  1  0
 71 72  1  0
 72 73  2  0
 73 74  1  0
 74 75  1  0
 72 76  1  0
 76 77  1  0
 77 78  1  0
 78 79  1  0
 79 80  1  0
 80 81  1  0
 81 82  2  0
 82 83  1  0
 83 84  2  0
 84 85  1  0
 85 86  1  0
 86 87  1  0
 85 88  2  0
 80 89  2  0
 89 90  1  0
 90 91  1  0
 91 92  1  0
 92 93  1  0
 93 94  1  0
 94 95  1  0
 95 96  1  0
 96 97  1  0
 97 98  1  0
 98 99  1  0
 96100  1  0
100101  1  0
 93102  1  0
102103  1  0
 89104  1  0
104105  2  0
105106  1  0
106107  1  0
107108  2  0
107109  1  0
109110  2  0
110111  1  0
111112  1  0
112113  2  0
110114  1  0
114115  2  0
115116  1  0
116117  2  0
116118  1  0
118119  2  3
119120  1  0
120121  2  0
120122  1  0
122123  2  0
123124  1  0
124125  2  0
125126  1  0
126127  1  0
127128  1  0
126129  2  0
129130  1  0
130131  2  3
131132  1  0
132133  3  0
131134  1  0
134135  3  0
 13  2  1  0
 56 19  1  0
 99 57  1  0
113104  1  0
130119  1  0
 12  5  1  0
 28 22  1  0
 35 29  1  0
 55 36  2  0
 66 59  1  0
 98 67  2  0
111106  2  0
129122  1  0
 47 41  1  0
 54 48  1  0
 97 69  2  0
117109  1  0
 95 70  2  0
 75 71  2  0
 94 76  2  0
 92 77  2  0
 91 79  2  0
 88 81  1  0
  1136  1  0
  6137  1  0
  7138  1  0
  8139  1  0
 11140  1  0
 11141  1  0
 11142  1  0
 23143  1  0
 24144  1  0
 26145  1  0
 26146  1  0
 26147  1  0
 27148  1  0
 28149  1  0
 30150  1  0
 31151  1  0
 33152  1  0
 33153  1  0
 33154  1  0
 34155  1  0
 35156  1  0
 42157  1  0
 43158  1  0
 45159  1  0
 45160  1  0
 45161  1  0
 46162  1  0
 47163  1  0
 49164  1  0
 50165  1  0
 52166  1  0
 52167  1  0
 52168  1  0
 53169  1  0
 54170  1  0
 60171  1  0
 61172  1  0
 62173  1  0
 64174  1  0
 64175  1  0
 65176  1  0
 65177  1  0
 65178  1  0
 66179  1  0
 82180  1  0
 83181  1  0
 84182  1  0
 86183  1  0
 86184  1  0
 87185  1  0
 87186  1  0
 87187  1  0
 88188  1  0
100189  1  0
100190  1  0
101191  1  0
101192  1  0
101193  1  0
102194  1  0
102195  1  0
103196  1  0
103197  1  0
103198  1  0
105199  1  0
112200  1  0
113201  1  0
114202  1  0
115203  1  0
117204  1  0
118205  1  0
123206  1  0
124207  1  0
125208  1  0
128209  1  0
128210  1  0
128211  1  0
M  END

