
     RDKit          3D

163179  0  0  0  0  0  0  0  0999 V2000
   -8.4906    3.0685    1.5818 C   0  0  0  0  0  0  0  0  0  0  0  0
   -7.9500    1.8435    1.7815 C   0  0  0  0  0  0  0  0  0  0  0  0
   -6.5118    1.5672    1.9261 C   0  0  0  0  0  0  0  0  0  0  0  0
   -5.5915    2.3966    2.1221 O   0  0  0  0  0  0  0  0  0  0  0  0
   -6.2928    0.1609    1.7367 C   0  0  0  0  0  0  0  0  0  0  0  0
   -5.0575   -0.4858    1.6688 C   0  0  0  0  0  0  0  0  0  0  0  0
   -5.0322   -1.8402    1.3347 C   0  0  0  0  0  0  0  0  0  0  0  0
   -6.2284   -2.5067    1.0073 C   0  0  0  0  0  0  0  0  0  0  0  0
   -7.4734   -1.8256    1.0438 C   0  0  0  0  0  0  0  0  0  0  0  0
   -8.6461   -2.4345    0.5755 O   0  0  0  0  0  0  0  0  0  0  0  0
   -8.7488   -3.8089    0.1810 C   0  0  0  0  0  0  0  0  0  0  0  0
   -7.4899   -0.4823    1.5112 C   0  0  0  0  0  0  0  0  0  0  0  0
   -8.6163    0.5053    1.6490 C   0  0  0  0  0  0  0  0  0  0  0  0
   -9.9286    0.2417    1.8868 C   0  0  0  0  0  0  0  0  0  0  0  0
  -10.4080   -1.0925    2.1532 C   0  0  0  0  0  0  0  0  0  0  0  0
  -10.8452   -2.1409    2.3493 N   0  0  0  0  0  0  0  0  0  0  0  0
  -10.9503    1.2613    2.0002 C   0  0  0  0  0  0  0  0  0  0  0  0
  -11.7675    2.0609    2.1153 N   0  0  0  0  0  0  0  0  0  0  0  0
   -7.6538    4.2734    1.4718 C   0  0  0  0  0  0  0  0  0  0  0  0
   -7.3098    4.7354    0.1970 C   0  0  0  0  0  0  0  0  0  0  0  0
   -7.9670    4.2757   -0.9034 F   0  0  0  0  0  0  0  0  0  0  0  0
   -6.1887    5.5457    0.0306 C   0  0  0  0  0  0  0  0  0  0  0  0
   -5.7800    5.8465   -1.2269 F   0  0  0  0  0  0  0  0  0  0  0  0
   -5.4037    5.9036    1.1372 C   0  0  0  0  0  0  0  0  0  0  0  0
   -5.8671    5.6066    2.4354 C   0  0  0  0  0  0  0  0  0  0  0  0
   -5.1134    5.8936    3.5277 F   0  0  0  0  0  0  0  0  0  0  0  0
   -7.0061    4.8108    2.6050 C   0  0  0  0  0  0  0  0  0  0  0  0
   -7.3502    4.3861    3.8431 F   0  0  0  0  0  0  0  0  0  0  0  0
   -3.9623    6.0703    0.9224 C   0  0  0  0  0  0  0  0  0  0  0  0
   -3.1129    7.0640    1.4514 C   0  0  0  0  0  0  0  0  0  0  0  0
   -3.5821    8.3737    1.9444 C   0  0  0  0  0  0  0  0  0  0  0  0
   -4.4121    9.1510    1.1286 C   0  0  0  0  0  0  0  0  0  0  0  0
   -4.8648   10.3866    1.5661 C   0  0  0  0  0  0  0  0  0  0  0  0
   -4.5144   10.8642    2.8213 C   0  0  0  0  0  0  0  0  0  0  0  0
   -3.6908   10.0886    3.6705 C   0  0  0  0  0  0  0  0  0  0  0  0
   -3.3747   10.5812    5.0589 C   0  0  0  0  0  0  0  0  0  0  0  0
   -4.5751   10.3808    5.9857 C   0  0  0  0  0  0  0  0  0  0  0  0
   -3.2218    8.8313    3.2263 C   0  0  0  0  0  0  0  0  0  0  0  0
   -1.7647    6.7131    1.2580 C   0  0  0  0  0  0  0  0  0  0  0  0
   -0.2463    7.4024    1.6817 S   0  0  0  0  0  0  0  0  0  0  0  0
    0.6002    6.1186    0.9307 C   0  0  0  0  0  0  0  0  0  0  0  0
    1.8485    5.5453    0.9269 C   0  0  0  0  0  0  0  0  0  0  0  0
    3.0152    5.7967    1.6656 C   0  0  0  0  0  0  0  0  0  0  0  0
    4.0691    4.8116    1.6644 C   0  0  0  0  0  0  0  0  0  0  0  0
    5.1547    5.0796    2.4239 N   0  0  0  0  0  0  0  0  0  0  0  0
    4.6995    6.5434    3.0621 S   0  0  0  0  0  0  0  0  0  0  0  0
    3.1924    6.8861    2.4497 N   0  0  0  0  0  0  0  0  0  0  0  0
    3.9236    3.6654    0.8773 C   0  0  0  0  0  0  0  0  0  0  0  0
    4.7239    2.5709    0.6138 C   0  0  0  0  0  0  0  0  0  0  0  0
    6.1428    1.7805    1.1202 S   0  0  0  0  0  0  0  0  0  0  0  0
    5.8400    0.4623    0.0590 C   0  0  0  0  0  0  0  0  0  0  0  0
    6.4309   -0.7947   -0.1672 C   0  0  0  0  0  0  0  0  0  0  0  0
    7.6533   -1.2783    0.4940 C   0  0  0  0  0  0  0  0  0  0  0  0
    8.8094   -1.5127   -0.2657 C   0  0  0  0  0  0  0  0  0  0  0  0
    9.9904   -1.9247    0.3522 C   0  0  0  0  0  0  0  0  0  0  0  0
   10.0297   -2.1093    1.7375 C   0  0  0  0  0  0  0  0  0  0  0  0
    8.8776   -1.8911    2.5090 C   0  0  0  0  0  0  0  0  0  0  0  0
    8.9177   -2.1542    4.0006 C   0  0  0  0  0  0  0  0  0  0  0  0
    8.6409   -3.6248    4.2924 C   0  0  0  0  0  0  0  0  0  0  0  0
    7.6845   -1.4780    1.8754 C   0  0  0  0  0  0  0  0  0  0  0  0
    5.6662   -1.5348   -1.1126 C   0  0  0  0  0  0  0  0  0  0  0  0
    4.3176   -0.6338   -1.6042 S   0  0  0  0  0  0  0  0  0  0  0  0
    4.6944    0.6768   -0.6545 C   0  0  0  0  0  0  0  0  0  0  0  0
    4.0645    1.8449   -0.3195 C   0  0  0  0  0  0  0  0  0  0  0  0
    2.8768    2.3607   -0.6849 N   0  0  0  0  0  0  0  0  0  0  0  0
    2.7677    3.4587    0.1106 C   0  0  0  0  0  0  0  0  0  0  0  0
    1.6729    4.3280    0.2472 C   0  0  0  0  0  0  0  0  0  0  0  0
    0.3519    4.0481    0.0141 N   0  0  0  0  0  0  0  0  0  0  0  0
   -0.2513    5.2043    0.3826 C   0  0  0  0  0  0  0  0  0  0  0  0
   -1.5811    5.5312    0.6008 C   0  0  0  0  0  0  0  0  0  0  0  0
   -3.0395    4.8126    0.2579 S   0  0  0  0  0  0  0  0  0  0  0  0
   -0.2889    2.7343    0.1940 C   0  0  0  0  0  0  0  0  0  0  0  0
   -1.2259    2.3767   -0.9602 C   0  0  0  0  0  0  0  0  0  0  0  0
    2.1322    2.0409   -1.9159 C   0  0  0  0  0  0  0  0  0  0  0  0
    2.9455    2.4157   -3.1516 C   0  0  0  0  0  0  0  0  0  0  0  0
    5.6956   -2.9716   -1.4003 C   0  0  0  0  0  0  0  0  0  0  0  0
    4.7073   -3.7351   -0.7860 C   0  0  0  0  0  0  0  0  0  0  0  0
    4.2722   -3.3781    0.4954 O   0  0  0  0  0  0  0  0  0  0  0  0
    4.6770   -4.1082    1.6371 C   0  0  0  0  0  0  0  0  0  0  0  0
    4.0634   -3.5061    2.8926 C   0  0  0  0  0  0  0  0  0  0  0  0
    4.0826   -4.7899   -1.4812 C   0  0  0  0  0  0  0  0  0  0  0  0
    2.8771   -5.3433   -1.0050 O   0  0  0  0  0  0  0  0  0  0  0  0
    1.7334   -4.5872   -0.5932 C   0  0  0  0  0  0  0  0  0  0  0  0
    1.2221   -3.6878   -1.7195 C   0  0  0  0  0  0  0  0  0  0  0  0
    4.6109   -5.2375   -2.7163 C   0  0  0  0  0  0  0  0  0  0  0  0
    5.7637   -4.5990   -3.2197 C   0  0  0  0  0  0  0  0  0  0  0  0
    6.2802   -3.4435   -2.5817 C   0  0  0  0  0  0  0  0  0  0  0  0
    7.3105   -2.7699   -3.1635 N   0  0  0  0  0  0  0  0  0  0  0  0
    7.8716   -3.2009   -4.3239 C   0  0  0  0  0  0  0  0  0  0  0  0
    7.3782   -4.3331   -4.9487 C   0  0  0  0  0  0  0  0  0  0  0  0
    6.3219   -4.9894   -4.3980 N   0  0  0  0  0  0  0  0  0  0  0  0
    3.7790   -6.0427   -3.6583 C   0  0  0  0  0  0  0  0  0  0  0  0
    2.9315   -7.0362   -3.3171 C   0  0  0  0  0  0  0  0  0  0  0  0
    3.0142   -7.8528   -2.0998 C   0  0  0  0  0  0  0  0  0  0  0  0
    3.9908   -7.9040   -1.3061 O   0  0  0  0  0  0  0  0  0  0  0  0
    1.8181   -8.6474   -1.9883 C   0  0  0  0  0  0  0  0  0  0  0  0
    1.4533   -9.5271   -0.9695 C   0  0  0  0  0  0  0  0  0  0  0  0
    0.2380  -10.2132   -1.0875 C   0  0  0  0  0  0  0  0  0  0  0  0
   -0.5517  -10.0700   -2.2456 C   0  0  0  0  0  0  0  0  0  0  0  0
   -0.1378   -9.2250   -3.3008 C   0  0  0  0  0  0  0  0  0  0  0  0
   -0.7993   -9.1964   -4.5348 O   0  0  0  0  0  0  0  0  0  0  0  0
   -2.0421   -9.8512   -4.8013 C   0  0  0  0  0  0  0  0  0  0  0  0
    1.0080   -8.4221   -3.0914 C   0  0  0  0  0  0  0  0  0  0  0  0
    1.6228   -7.3773   -3.9693 C   0  0  0  0  0  0  0  0  0  0  0  0
    0.9488   -6.5908   -4.8540 C   0  0  0  0  0  0  0  0  0  0  0  0
    1.5979   -5.6925   -5.7780 C   0  0  0  0  0  0  0  0  0  0  0  0
    2.0935   -4.9819   -6.5491 N   0  0  0  0  0  0  0  0  0  0  0  0
   -0.4881   -6.4943   -4.8133 C   0  0  0  0  0  0  0  0  0  0  0  0
   -1.6349   -6.3836   -4.7573 N   0  0  0  0  0  0  0  0  0  0  0  0
   -9.5108    3.1850    1.2603 H   0  0  0  0  0  0  0  0  0  0  0  0
   -4.1389    0.0480    1.8401 H   0  0  0  0  0  0  0  0  0  0  0  0
   -4.0859   -2.3655    1.2571 H   0  0  0  0  0  0  0  0  0  0  0  0
   -6.1515   -3.5326    0.6757 H   0  0  0  0  0  0  0  0  0  0  0  0
   -8.4286   -4.4747    1.0229 H   0  0  0  0  0  0  0  0  0  0  0  0
   -9.8006   -4.0342   -0.0685 H   0  0  0  0  0  0  0  0  0  0  0  0
   -8.1333   -3.9884   -0.7292 H   0  0  0  0  0  0  0  0  0  0  0  0
   -4.6850    8.8075    0.1365 H   0  0  0  0  0  0  0  0  0  0  0  0
   -5.5099   10.9859    0.9261 H   0  0  0  0  0  0  0  0  0  0  0  0
   -4.8834   11.8217    3.1624 H   0  0  0  0  0  0  0  0  0  0  0  0
   -3.1174   11.6637    5.0311 H   0  0  0  0  0  0  0  0  0  0  0  0
   -2.4978   10.0422    5.4797 H   0  0  0  0  0  0  0  0  0  0  0  0
   -5.4614   10.9296    5.5999 H   0  0  0  0  0  0  0  0  0  0  0  0
   -4.8244    9.3016    6.0612 H   0  0  0  0  0  0  0  0  0  0  0  0
   -4.3341   10.7809    6.9971 H   0  0  0  0  0  0  0  0  0  0  0  0
   -2.5987    8.2264    3.8611 H   0  0  0  0  0  0  0  0  0  0  0  0
    8.8042   -1.3397   -1.3331 H   0  0  0  0  0  0  0  0  0  0  0  0
   10.8818   -2.0856   -0.2404 H   0  0  0  0  0  0  0  0  0  0  0  0
   10.9546   -2.4401    2.2034 H   0  0  0  0  0  0  0  0  0  0  0  0
    9.9180   -1.8722    4.3977 H   0  0  0  0  0  0  0  0  0  0  0  0
    8.1647   -1.5260    4.5270 H   0  0  0  0  0  0  0  0  0  0  0  0
    9.2533   -4.2733    3.6355 H   0  0  0  0  0  0  0  0  0  0  0  0
    8.9157   -3.8495    5.3466 H   0  0  0  0  0  0  0  0  0  0  0  0
    7.5677   -3.8444    4.1460 H   0  0  0  0  0  0  0  0  0  0  0  0
    6.7979   -1.3051    2.4640 H   0  0  0  0  0  0  0  0  0  0  0  0
    0.4738    1.9345    0.3247 H   0  0  0  0  0  0  0  0  0  0  0  0
   -0.8683    2.7387    1.1463 H   0  0  0  0  0  0  0  0  0  0  0  0
   -0.7976    1.5556   -1.5674 H   0  0  0  0  0  0  0  0  0  0  0  0
   -1.4075    3.2425   -1.6319 H   0  0  0  0  0  0  0  0  0  0  0  0
   -2.1939    2.0188   -0.5704 H   0  0  0  0  0  0  0  0  0  0  0  0
    1.2055    2.6129   -1.9745 H   0  0  0  0  0  0  0  0  0  0  0  0
    1.8771    0.9671   -1.9367 H   0  0  0  0  0  0  0  0  0  0  0  0
    3.9517    1.9601   -3.1417 H   0  0  0  0  0  0  0  0  0  0  0  0
    2.3974    2.0878   -4.0662 H   0  0  0  0  0  0  0  0  0  0  0  0
    3.0506    3.5226   -3.2002 H   0  0  0  0  0  0  0  0  0  0  0  0
    5.7879   -4.0728    1.7315 H   0  0  0  0  0  0  0  0  0  0  0  0
    4.3526   -5.1731    1.5416 H   0  0  0  0  0  0  0  0  0  0  0  0
    2.9588   -3.4918    2.7933 H   0  0  0  0  0  0  0  0  0  0  0  0
    4.4385   -2.4760    3.0336 H   0  0  0  0  0  0  0  0  0  0  0  0
    4.3415   -4.1128    3.7694 H   0  0  0  0  0  0  0  0  0  0  0  0
    0.9318   -5.3131   -0.3192 H   0  0  0  0  0  0  0  0  0  0  0  0
    1.9462   -4.0028    0.3217 H   0  0  0  0  0  0  0  0  0  0  0  0
    1.9711   -2.9035   -1.9517 H   0  0  0  0  0  0  0  0  0  0  0  0
    1.0147   -4.2997   -2.6179 H   0  0  0  0  0  0  0  0  0  0  0  0
    0.2809   -3.2052   -1.3834 H   0  0  0  0  0  0  0  0  0  0  0  0
    8.7097   -2.6535   -4.7454 H   0  0  0  0  0  0  0  0  0  0  0  0
    7.8175   -4.6844   -5.8811 H   0  0  0  0  0  0  0  0  0  0  0  0
    3.7553   -5.6521   -4.6641 H   0  0  0  0  0  0  0  0  0  0  0  0
    2.0875   -9.6515   -0.1023 H   0  0  0  0  0  0  0  0  0  0  0  0
   -0.0952  -10.8542   -0.2783 H   0  0  0  0  0  0  0  0  0  0  0  0
   -1.4795  -10.6350   -2.3239 H   0  0  0  0  0  0  0  0  0  0  0  0
   -2.3482   -9.6722   -5.8499 H   0  0  0  0  0  0  0  0  0  0  0  0
   -2.8226   -9.4497   -4.1235 H   0  0  0  0  0  0  0  0  0  0  0  0
   -1.9292  -10.9476   -4.6383 H   0  0  0  0  0  0  0  0  0  0  0  0
  1  2  2  3
  2  3  1  0
  3  4  2  0
  3  5  1  0
  5  6  2  0
  6  7  1  0
  7  8  2  0
  8  9  1  0
  9 10  1  0
 10 11  1  0
  9 12  2  0
 12 13  1  0
 13 14  2  3
 14 15  1  0
 15 16  3  0
 14 17  1  0
 17 18  3  0
  1 19  1  0
 19 20  2  0
 20 21  1  0
 20 22  1  0
 22 23  1  0
 22 24  2  0
 24 25  1  0
 25 26  1  0
 25 27  2  0
 27 28  1  0
 24 29  1  0
 29 30  2  0
 30 31  1  0
 31 32  2  0
 32 33  1  0
 33 34  2  0
 34 35  1  0
 35 36  1  0
 36 37  1  0
 35 38  2  0
 30 39  1  0
 39 40  1  0
 40 41  1  0
 41 42  1  0
 42 43  1  0
 43 44  1  0
 44 45  2  0
 45 46  1  0
 46 47  1  0
 44 48  1  0
 48 49  1  0
 49 50  1  0
 50 51  1  0
 51 52  1  0
 52 53  1  0
 53 54  2  0
 54 55  1  0
 55 56  2  0
 56 57  1  0
 57 58  1  0
 58 59  1  0
 57 60  2  0
 52 61  2  0
 61 62  1  0
 62 63  1  0
 63 64  1  0
 64 65  1  0
 65 66  1  0
 66 67  1  0
 67 68  1  0
 68 69  1  0
 69 70  1  0
 70 71  1  0
 68 72  1  0
 72 73  1  0
 65 74  1  0
 74 75  1  0
 61 76  1  0
 76 77  2  0
 77 78  1  0
 78 79  1  0
 79 80  1  0
 77 81  1  0
 81 82  1  0
 82 83  1  0
 83 84  1  0
 81 85  2  0
 85 86  1  0
 86 87  2  0
 87 88  1  0
 88 89  2  0
 89 90  1  0
 90 91  2  0
 85 92  1  0
 92 93  2  3
 93 94  1  0
 94 95  2  0
 94 96  1  0
 96 97  2  0
 97 98  1  0
 98 99  2  0
 99100  1  0
100101  1  0
101102  1  0
100103  2  0
103104  1  0
104105  2  3
105106  1  0
106107  3  0
105108  1  0
108109  3  0
 13  2  1  0
 27 19  1  0
 71 29  1  0
 87 76  1  0
104 93  1  0
 12  5  1  0
 38 31  1  0
 70 39  2  0
 91 86  1  0
103 96  1  0
 69 41  2  0
 67 42  2  0
 47 43  2  0
 66 48  2  0
 64 49  2  0
 63 51  2  0
 60 53  1  0
  1110  1  0
  6111  1  0
  7112  1  0
  8113  1  0
 11114  1  0
 11115  1  0
 11116  1  0
 32117  1  0
 33118  1  0
 34119  1  0
 36120  1  0
 36121  1  0
 37122  1  0
 37123  1  0
 37124  1  0
 38125  1  0
 54126  1  0
 55127  1  0
 56128  1  0
 58129  1  0
 58130  1  0
 59131  1  0
 59132  1  0
 59133  1  0
 60134  1  0
 72135  1  0
 72136  1  0
 73137  1  0
 73138  1  0
 73139  1  0
 74140  1  0
 74141  1  0
 75142  1  0
 75143  1  0
 75144  1  0
 79145  1  0
 79146  1  0
 80147  1  0
 80148  1  0
 80149  1  0
 83150  1  0
 83151  1  0
 84152  1  0
 84153  1  0
 84154  1  0
 89155  1  0
 90156  1  0
 92157  1  0
 97158  1  0
 98159  1  0
 99160  1  0
102161  1  0
102162  1  0
102163  1  0
M  END

