
     RDKit          3D

174191  0  0  0  0  0  0  0  0999 V2000
  -10.2205    2.4487   -1.0573 C   0  0  0  0  0  0  0  0  0  0  0  0
   -9.4874    3.2859   -0.2939 C   0  0  0  0  0  0  0  0  0  0  0  0
   -8.0851    3.5956   -0.5482 C   0  0  0  0  0  0  0  0  0  0  0  0
   -7.5358    3.6554   -1.6817 O   0  0  0  0  0  0  0  0  0  0  0  0
   -7.4329    3.8527    0.7070 C   0  0  0  0  0  0  0  0  0  0  0  0
   -6.0771    4.1034    0.8912 C   0  0  0  0  0  0  0  0  0  0  0  0
   -5.6164    4.3264    2.1866 C   0  0  0  0  0  0  0  0  0  0  0  0
   -6.5101    4.3290    3.2675 C   0  0  0  0  0  0  0  0  0  0  0  0
   -7.8995    4.0959    3.0678 C   0  0  0  0  0  0  0  0  0  0  0  0
   -8.7917    4.1524    4.1427 O   0  0  0  0  0  0  0  0  0  0  0  0
   -8.4225    4.4298    5.4903 C   0  0  0  0  0  0  0  0  0  0  0  0
   -8.3567    3.8248    1.7513 C   0  0  0  0  0  0  0  0  0  0  0  0
   -9.7202    3.5587    1.1589 C   0  0  0  0  0  0  0  0  0  0  0  0
  -10.9434    3.5833    1.7486 C   0  0  0  0  0  0  0  0  0  0  0  0
  -12.1295    3.8285    0.9725 C   0  0  0  0  0  0  0  0  0  0  0  0
  -13.0958    4.0760    0.3751 N   0  0  0  0  0  0  0  0  0  0  0  0
  -11.1659    3.4091    3.1565 C   0  0  0  0  0  0  0  0  0  0  0  0
  -11.3814    3.2502    4.2844 N   0  0  0  0  0  0  0  0  0  0  0  0
   -9.5614    1.5949   -2.0607 C   0  0  0  0  0  0  0  0  0  0  0  0
   -9.4885    1.8384   -3.4226 C   0  0  0  0  0  0  0  0  0  0  0  0
   -8.4845    1.0902   -4.0687 C   0  0  0  0  0  0  0  0  0  0  0  0
   -8.2032    1.2769   -5.8353 S   0  0  0  0  0  0  0  0  0  0  0  0
   -9.4091    0.0003   -6.3383 C   0  0  0  0  0  0  0  0  0  0  0  0
   -8.8262   -1.3984   -6.1844 C   0  0  0  0  0  0  0  0  0  0  0  0
   -7.7314    0.2816   -3.1958 C   0  0  0  0  0  0  0  0  0  0  0  0
   -8.3735    0.4870   -1.6570 S   0  0  0  0  0  0  0  0  0  0  0  0
   -6.4443   -0.4256   -3.4069 C   0  0  0  0  0  0  0  0  0  0  0  0
   -5.6488   -0.4370   -4.5695 C   0  0  0  0  0  0  0  0  0  0  0  0
   -4.4215   -1.0533   -4.3325 C   0  0  0  0  0  0  0  0  0  0  0  0
   -3.0430   -1.2951   -5.2884 S   0  0  0  0  0  0  0  0  0  0  0  0
   -2.2213   -1.9824   -3.9719 C   0  0  0  0  0  0  0  0  0  0  0  0
   -0.9777   -2.6366   -3.7147 C   0  0  0  0  0  0  0  0  0  0  0  0
   -1.0213   -3.1379   -2.4392 C   0  0  0  0  0  0  0  0  0  0  0  0
   -2.2021   -2.5942   -1.6469 C   0  0  0  0  0  0  0  0  0  0  0  0
   -2.9844   -2.0546   -2.8336 C   0  0  0  0  0  0  0  0  0  0  0  0
   -4.2392   -1.5152   -3.0552 C   0  0  0  0  0  0  0  0  0  0  0  0
   -5.5858   -1.1871   -2.1278 S   0  0  0  0  0  0  0  0  0  0  0  0
   -2.9780   -3.6590   -0.8786 C   0  0  0  0  0  0  0  0  0  0  0  0
   -2.8776   -5.0293   -1.1998 C   0  0  0  0  0  0  0  0  0  0  0  0
   -3.4432   -5.9962   -0.3663 C   0  0  0  0  0  0  0  0  0  0  0  0
   -4.1480   -5.6157    0.7854 C   0  0  0  0  0  0  0  0  0  0  0  0
   -4.6967   -6.6580    1.7236 C   0  0  0  0  0  0  0  0  0  0  0  0
   -6.2055   -6.7899    1.5731 C   0  0  0  0  0  0  0  0  0  0  0  0
   -4.3460   -4.2548    1.0502 C   0  0  0  0  0  0  0  0  0  0  0  0
   -3.7897   -3.2842    0.2137 C   0  0  0  0  0  0  0  0  0  0  0  0
   -1.6626   -1.4661   -0.7434 C   0  0  0  0  0  0  0  0  0  0  0  0
   -1.0017   -1.7892    0.4611 C   0  0  0  0  0  0  0  0  0  0  0  0
   -0.3892   -0.7959    1.2385 C   0  0  0  0  0  0  0  0  0  0  0  0
   -0.4229    0.5444    0.8341 C   0  0  0  0  0  0  0  0  0  0  0  0
    0.2233    1.6129    1.6718 C   0  0  0  0  0  0  0  0  0  0  0  0
   -0.8021    2.2905    2.5776 C   0  0  0  0  0  0  0  0  0  0  0  0
   -1.0869    0.8859   -0.3536 C   0  0  0  0  0  0  0  0  0  0  0  0
   -1.6937   -0.1026   -1.1339 C   0  0  0  0  0  0  0  0  0  0  0  0
    0.1682   -3.7556   -2.1108 C   0  0  0  0  0  0  0  0  0  0  0  0
    0.7601   -4.5363   -0.7356 S   0  0  0  0  0  0  0  0  0  0  0  0
    2.3137   -4.6648   -1.4199 C   0  0  0  0  0  0  0  0  0  0  0  0
    3.5953   -4.6471   -0.7787 C   0  0  0  0  0  0  0  0  0  0  0  0
    4.4583   -3.8662   -1.5250 C   0  0  0  0  0  0  0  0  0  0  0  0
    3.7630   -3.2888   -2.7625 C   0  0  0  0  0  0  0  0  0  0  0  0
    3.6505   -1.7619   -2.5554 C   0  0  0  0  0  0  0  0  0  0  0  0
    4.5458   -0.8674   -3.1828 C   0  0  0  0  0  0  0  0  0  0  0  0
    4.6008    0.4763   -2.8020 C   0  0  0  0  0  0  0  0  0  0  0  0
    3.7800    0.9574   -1.7721 C   0  0  0  0  0  0  0  0  0  0  0  0
    3.9500    2.3597   -1.2560 C   0  0  0  0  0  0  0  0  0  0  0  0
    4.8414    2.3690   -0.0151 C   0  0  0  0  0  0  0  0  0  0  0  0
    2.8881    0.0860   -1.1447 C   0  0  0  0  0  0  0  0  0  0  0  0
    2.8224   -1.2515   -1.5278 C   0  0  0  0  0  0  0  0  0  0  0  0
    4.3774   -3.7318   -4.0968 C   0  0  0  0  0  0  0  0  0  0  0  0
    3.9687   -3.1160   -5.2995 C   0  0  0  0  0  0  0  0  0  0  0  0
    4.4066   -3.5920   -6.5369 C   0  0  0  0  0  0  0  0  0  0  0  0
    5.2498   -4.7074   -6.6115 C   0  0  0  0  0  0  0  0  0  0  0  0
    5.6034   -5.2996   -7.9486 C   0  0  0  0  0  0  0  0  0  0  0  0
    4.5879   -6.3631   -8.3510 C   0  0  0  0  0  0  0  0  0  0  0  0
    5.6565   -5.3345   -5.4251 C   0  0  0  0  0  0  0  0  0  0  0  0
    5.2210   -4.8578   -4.1821 C   0  0  0  0  0  0  0  0  0  0  0  0
    2.4074   -3.9796   -2.6161 C   0  0  0  0  0  0  0  0  0  0  0  0
    1.1517   -3.5721   -3.0538 C   0  0  0  0  0  0  0  0  0  0  0  0
    0.5791   -2.6996   -4.3985 S   0  0  0  0  0  0  0  0  0  0  0  0
    5.4579   -3.3329   -0.7026 C   0  0  0  0  0  0  0  0  0  0  0  0
    5.3230   -3.6605    0.6211 C   0  0  0  0  0  0  0  0  0  0  0  0
    3.9650   -4.6173    0.8746 S   0  0  0  0  0  0  0  0  0  0  0  0
    6.0479   -2.8774    1.5106 C   0  0  0  0  0  0  0  0  0  0  0  0
    6.7810   -1.8988    0.8368 C   0  0  0  0  0  0  0  0  0  0  0  0
    6.5044   -2.0243   -0.8401 S   0  0  0  0  0  0  0  0  0  0  0  0
    7.4610   -0.7673    1.4835 C   0  0  0  0  0  0  0  0  0  0  0  0
    8.3693    0.1008    0.8897 C   0  0  0  0  0  0  0  0  0  0  0  0
    8.7905    1.1237    1.7414 C   0  0  0  0  0  0  0  0  0  0  0  0
   10.0247    2.3351    1.2629 S   0  0  0  0  0  0  0  0  0  0  0  0
    8.8651    3.4148    0.3510 C   0  0  0  0  0  0  0  0  0  0  0  0
    8.0820    4.3145    1.2932 C   0  0  0  0  0  0  0  0  0  0  0  0
    8.1772    1.0956    2.9954 C   0  0  0  0  0  0  0  0  0  0  0  0
    7.1629   -0.2438    3.0543 S   0  0  0  0  0  0  0  0  0  0  0  0
    8.5088    1.9466    4.1544 C   0  0  0  0  0  0  0  0  0  0  0  0
    7.5820    2.5659    4.9114 C   0  0  0  0  0  0  0  0  0  0  0  0
    6.2012    2.8306    4.4849 C   0  0  0  0  0  0  0  0  0  0  0  0
    5.6329    2.3768    3.4568 O   0  0  0  0  0  0  0  0  0  0  0  0
    5.5975    3.7573    5.4188 C   0  0  0  0  0  0  0  0  0  0  0  0
    4.3049    4.2757    5.3760 C   0  0  0  0  0  0  0  0  0  0  0  0
    3.8716    5.0695    6.4395 C   0  0  0  0  0  0  0  0  0  0  0  0
    4.6917    5.2509    7.5661 C   0  0  0  0  0  0  0  0  0  0  0  0
    5.9857    4.6710    7.6145 C   0  0  0  0  0  0  0  0  0  0  0  0
    6.7290    4.6544    8.8062 O   0  0  0  0  0  0  0  0  0  0  0  0
    6.2340    5.0469   10.0777 C   0  0  0  0  0  0  0  0  0  0  0  0
    6.4787    4.0311    6.4500 C   0  0  0  0  0  0  0  0  0  0  0  0
    7.7910    3.3757    6.1619 C   0  0  0  0  0  0  0  0  0  0  0  0
    8.9678    3.5734    6.8156 C   0  0  0  0  0  0  0  0  0  0  0  0
   10.1015    2.7021    6.6735 C   0  0  0  0  0  0  0  0  0  0  0  0
   11.0291    2.0063    6.5905 N   0  0  0  0  0  0  0  0  0  0  0  0
    9.1784    4.6973    7.6914 C   0  0  0  0  0  0  0  0  0  0  0  0
    9.3510    5.5998    8.4020 N   0  0  0  0  0  0  0  0  0  0  0  0
  -11.2032    2.1337   -0.7346 H   0  0  0  0  0  0  0  0  0  0  0  0
   -5.3942    4.1206    0.0509 H   0  0  0  0  0  0  0  0  0  0  0  0
   -4.5672    4.5163    2.3568 H   0  0  0  0  0  0  0  0  0  0  0  0
   -6.1104    4.5278    4.2540 H   0  0  0  0  0  0  0  0  0  0  0  0
   -9.3287    4.4100    6.1324 H   0  0  0  0  0  0  0  0  0  0  0  0
   -7.9531    5.4347    5.5584 H   0  0  0  0  0  0  0  0  0  0  0  0
   -7.7152    3.6532    5.8567 H   0  0  0  0  0  0  0  0  0  0  0  0
  -10.0990    2.5762   -3.9299 H   0  0  0  0  0  0  0  0  0  0  0  0
  -10.3492    0.0946   -5.7488 H   0  0  0  0  0  0  0  0  0  0  0  0
   -9.6588    0.1636   -7.4092 H   0  0  0  0  0  0  0  0  0  0  0  0
   -7.8647   -1.4759   -6.7404 H   0  0  0  0  0  0  0  0  0  0  0  0
   -8.6581   -1.6371   -5.1128 H   0  0  0  0  0  0  0  0  0  0  0  0
   -9.5368   -2.1413   -6.6063 H   0  0  0  0  0  0  0  0  0  0  0  0
   -5.8960    0.0060   -5.5164 H   0  0  0  0  0  0  0  0  0  0  0  0
   -2.3161   -5.3577   -2.0610 H   0  0  0  0  0  0  0  0  0  0  0  0
   -3.3066   -7.0420   -0.6069 H   0  0  0  0  0  0  0  0  0  0  0  0
   -4.2196   -7.6442    1.5303 H   0  0  0  0  0  0  0  0  0  0  0  0
   -4.4507   -6.3738    2.7708 H   0  0  0  0  0  0  0  0  0  0  0  0
   -6.7089   -5.8456    1.8745 H   0  0  0  0  0  0  0  0  0  0  0  0
   -6.4653   -7.0241    0.5179 H   0  0  0  0  0  0  0  0  0  0  0  0
   -6.5741   -7.6115    2.2237 H   0  0  0  0  0  0  0  0  0  0  0  0
   -4.9123   -3.9410    1.9172 H   0  0  0  0  0  0  0  0  0  0  0  0
   -3.9356   -2.2410    0.4631 H   0  0  0  0  0  0  0  0  0  0  0  0
   -0.9339   -2.8132    0.7953 H   0  0  0  0  0  0  0  0  0  0  0  0
    0.1181   -1.0796    2.1526 H   0  0  0  0  0  0  0  0  0  0  0  0
    1.0300    1.1779    2.3005 H   0  0  0  0  0  0  0  0  0  0  0  0
    0.6920    2.3741    1.0095 H   0  0  0  0  0  0  0  0  0  0  0  0
   -1.2440    1.5510    3.2803 H   0  0  0  0  0  0  0  0  0  0  0  0
   -0.3049    3.0925    3.1625 H   0  0  0  0  0  0  0  0  0  0  0  0
   -1.6124    2.7477    1.9688 H   0  0  0  0  0  0  0  0  0  0  0  0
   -1.1297    1.9214   -0.6773 H   0  0  0  0  0  0  0  0  0  0  0  0
   -2.1521    0.2124   -2.0591 H   0  0  0  0  0  0  0  0  0  0  0  0
    5.2602   -1.2139   -3.9143 H   0  0  0  0  0  0  0  0  0  0  0  0
    5.3204    1.1306   -3.2755 H   0  0  0  0  0  0  0  0  0  0  0  0
    2.9544    2.7857   -0.9965 H   0  0  0  0  0  0  0  0  0  0  0  0
    4.3990    3.0112   -2.0400 H   0  0  0  0  0  0  0  0  0  0  0  0
    4.3024    1.9163    0.8449 H   0  0  0  0  0  0  0  0  0  0  0  0
    5.7758    1.7946   -0.2022 H   0  0  0  0  0  0  0  0  0  0  0  0
    5.1133    3.4127    0.2477 H   0  0  0  0  0  0  0  0  0  0  0  0
    2.2801    0.4265   -0.3168 H   0  0  0  0  0  0  0  0  0  0  0  0
    2.1694   -1.8969   -0.9625 H   0  0  0  0  0  0  0  0  0  0  0  0
    3.2947   -2.2705   -5.2862 H   0  0  0  0  0  0  0  0  0  0  0  0
    4.0603   -3.1082   -7.4412 H   0  0  0  0  0  0  0  0  0  0  0  0
    5.6367   -4.5085   -8.7273 H   0  0  0  0  0  0  0  0  0  0  0  0
    6.6134   -5.7595   -7.9032 H   0  0  0  0  0  0  0  0  0  0  0  0
    3.5657   -5.9267   -8.3889 H   0  0  0  0  0  0  0  0  0  0  0  0
    4.6059   -7.2127   -7.6313 H   0  0  0  0  0  0  0  0  0  0  0  0
    4.8385   -6.7536   -9.3623 H   0  0  0  0  0  0  0  0  0  0  0  0
    6.2778   -6.2194   -5.4629 H   0  0  0  0  0  0  0  0  0  0  0  0
    5.5214   -5.4016   -3.2973 H   0  0  0  0  0  0  0  0  0  0  0  0
    5.9520   -2.9438    2.5900 H   0  0  0  0  0  0  0  0  0  0  0  0
    8.7218   -0.0104   -0.1272 H   0  0  0  0  0  0  0  0  0  0  0  0
    9.4560    4.0505   -0.3400 H   0  0  0  0  0  0  0  0  0  0  0  0
    8.1663    2.8068   -0.2623 H   0  0  0  0  0  0  0  0  0  0  0  0
    7.4060    3.7103    1.9283 H   0  0  0  0  0  0  0  0  0  0  0  0
    7.4622    5.0252    0.7040 H   0  0  0  0  0  0  0  0  0  0  0  0
    8.7754    4.8978    1.9410 H   0  0  0  0  0  0  0  0  0  0  0  0
    9.5572    2.0566    4.3526 H   0  0  0  0  0  0  0  0  0  0  0  0
    3.6433    4.0701    4.5434 H   0  0  0  0  0  0  0  0  0  0  0  0
    2.8828    5.5065    6.4216 H   0  0  0  0  0  0  0  0  0  0  0  0
    4.2962    5.8067    8.4069 H   0  0  0  0  0  0  0  0  0  0  0  0
    7.0066    4.8409   10.8470 H   0  0  0  0  0  0  0  0  0  0  0  0
    6.0037    6.1334   10.0794 H   0  0  0  0  0  0  0  0  0  0  0  0
    5.3220    4.4589   10.3275 H   0  0  0  0  0  0  0  0  0  0  0  0
  1  2  2  3
  2  3  1  0
  3  4  2  0
  3  5  1  0
  5  6  2  0
  6  7  1  0
  7  8  2  0
  8  9  1  0
  9 10  1  0
 10 11  1  0
  9 12  2  0
 12 13  1  0
 13 14  2  3
 14 15  1  0
 15 16  3  0
 14 17  1  0
 17 18  3  0
  1 19  1  0
 19 20  2  0
 20 21  1  0
 21 22  1  0
 22 23  1  0
 23 24  1  0
 21 25  2  0
 25 26  1  0
 25 27  1  0
 27 28  2  0
 28 29  1  0
 29 30  1  0
 30 31  1  0
 31 32  1  0
 32 33  2  0
 33 34  1  0
 34 35  1  0
 35 36  1  0
 36 37  1  0
 34 38  1  0
 38 39  2  0
 39 40  1  0
 40 41  2  0
 41 42  1  0
 42 43  1  0
 41 44  1  0
 44 45  2  0
 34 46  1  0
 46 47  2  0
 47 48  1  0
 48 49  2  0
 49 50  1  0
 50 51  1  0
 49 52  1  0
 52 53  2  0
 33 54  1  0
 54 55  1  0
 55 56  1  0
 56 57  1  0
 57 58  2  0
 58 59  1  0
 59 60  1  0
 60 61  2  0
 61 62  1  0
 62 63  2  0
 63 64  1  0
 64 65  1  0
 63 66  1  0
 66 67  2  0
 59 68  1  0
 68 69  2  0
 69 70  1  0
 70 71  2  0
 71 72  1  0
 72 73  1  0
 71 74  1  0
 74 75  2  0
 59 76  1  0
 76 77  1  0
 77 78  1  0
 58 79  1  0
 79 80  2  0
 80 81  1  0
 80 82  1  0
 82 83  2  0
 83 84  1  0
 83 85  1  0
 85 86  2  0
 86 87  1  0
 87 88  1  0
 88 89  1  0
 89 90  1  0
 87 91  2  0
 91 92  1  0
 91 93  1  0
 93 94  2  3
 94 95  1  0
 95 96  2  0
 95 97  1  0
 97 98  2  0
 98 99  1  0
 99100  2  0
100101  1  0
101102  1  0
102103  1  0
101104  2  0
104105  1  0
105106  2  3
106107  1  0
107108  3  0
106109  1  0
109110  3  0
 13  2  1  0
 26 19  1  0
 37 27  1  0
 45 38  1  0
 53 46  1  0
 77 54  2  0
 84 79  1  0
 92 85  1  0
105 94  1  0
 12  5  1  0
 36 29  2  0
 76 56  2  0
104 97  1  0
 35 31  2  0
 81 57  1  0
 78 32  1  0
 67 60  1  0
 75 68  1  0
  1111  1  0
  6112  1  0
  7113  1  0
  8114  1  0
 11115  1  0
 11116  1  0
 11117  1  0
 20118  1  0
 23119  1  0
 23120  1  0
 24121  1  0
 24122  1  0
 24123  1  0
 28124  1  0
 39125  1  0
 40126  1  0
 42127  1  0
 42128  1  0
 43129  1  0
 43130  1  0
 43131  1  0
 44132  1  0
 45133  1  0
 47134  1  0
 48135  1  0
 50136  1  0
 50137  1  0
 51138  1  0
 51139  1  0
 51140  1  0
 52141  1  0
 53142  1  0
 61143  1  0
 62144  1  0
 64145  1  0
 64146  1  0
 65147  1  0
 65148  1  0
 65149  1  0
 66150  1  0
 67151  1  0
 69152  1  0
 70153  1  0
 72154  1  0
 72155  1  0
 73156  1  0
 73157  1  0
 73158  1  0
 74159  1  0
 75160  1  0
 82161  1  0
 86162  1  0
 89163  1  0
 89164  1  0
 90165  1  0
 90166  1  0
 90167  1  0
 93168  1  0
 98169  1  0
 99170  1  0
100171  1  0
103172  1  0
103173  1  0
103174  1  0
M  END

