
     RDKit          3D

181203  0  0  0  0  0  0  0  0999 V2000
    3.0465   -6.5564  -13.0956 C   0  0  0  0  0  0  0  0  0  0  0  0
    2.4793   -7.1939  -12.0548 C   0  0  0  0  0  0  0  0  0  0  0  0
    1.8289   -8.4975  -12.1694 C   0  0  0  0  0  0  0  0  0  0  0  0
    1.9671   -9.3156  -13.1160 O   0  0  0  0  0  0  0  0  0  0  0  0
    0.8977   -8.6297  -11.0633 C   0  0  0  0  0  0  0  0  0  0  0  0
   -0.0687   -9.6127  -10.8561 C   0  0  0  0  0  0  0  0  0  0  0  0
   -0.9758   -9.4434   -9.8044 C   0  0  0  0  0  0  0  0  0  0  0  0
   -0.9499   -8.2718   -9.0269 C   0  0  0  0  0  0  0  0  0  0  0  0
    0.0044   -7.2558   -9.2803 C   0  0  0  0  0  0  0  0  0  0  0  0
   -0.0410   -6.0124   -8.6323 O   0  0  0  0  0  0  0  0  0  0  0  0
   -0.9656   -5.6699   -7.6053 C   0  0  0  0  0  0  0  0  0  0  0  0
    0.9821   -7.5037  -10.2598 C   0  0  0  0  0  0  0  0  0  0  0  0
    2.1113   -6.6542  -10.7175 C   0  0  0  0  0  0  0  0  0  0  0  0
    2.9654   -5.9917   -9.8928 C   0  0  0  0  0  0  0  0  0  0  0  0
    2.7500   -5.9249   -8.4681 C   0  0  0  0  0  0  0  0  0  0  0  0
    2.5944   -5.8971   -7.3251 N   0  0  0  0  0  0  0  0  0  0  0  0
    4.2783   -5.5808  -10.3278 C   0  0  0  0  0  0  0  0  0  0  0  0
    5.3400   -5.2595  -10.6640 N   0  0  0  0  0  0  0  0  0  0  0  0
    3.2333   -5.0989  -13.1546 C   0  0  0  0  0  0  0  0  0  0  0  0
    2.1052   -3.9449  -12.5818 S   0  0  0  0  0  0  0  0  0  0  0  0
    3.0969   -2.6557  -12.9717 C   0  0  0  0  0  0  0  0  0  0  0  0
    3.3148   -1.4198  -12.4293 C   0  0  0  0  0  0  0  0  0  0  0  0
    4.6466   -1.1705  -12.5569 C   0  0  0  0  0  0  0  0  0  0  0  0
    5.2869   -2.1793  -13.2055 N   0  0  0  0  0  0  0  0  0  0  0  0
    6.7293   -2.3852  -13.3544 C   0  0  0  0  0  0  0  0  0  0  0  0
    7.1169   -2.3006  -14.8264 C   0  0  0  0  0  0  0  0  0  0  0  0
    4.3032   -3.0888  -13.4374 C   0  0  0  0  0  0  0  0  0  0  0  0
    4.4051   -4.4695  -13.5966 C   0  0  0  0  0  0  0  0  0  0  0  0
    5.1425   -0.2216  -11.6625 C   0  0  0  0  0  0  0  0  0  0  0  0
    4.1138    0.2727  -10.8471 C   0  0  0  0  0  0  0  0  0  0  0  0
    2.6478   -0.5352  -11.1771 S   0  0  0  0  0  0  0  0  0  0  0  0
    4.2990    1.1433   -9.6865 C   0  0  0  0  0  0  0  0  0  0  0  0
    3.1689    2.2955   -9.1698 S   0  0  0  0  0  0  0  0  0  0  0  0
    3.9472    2.6113   -7.7169 C   0  0  0  0  0  0  0  0  0  0  0  0
    3.5331    3.4150   -6.6446 C   0  0  0  0  0  0  0  0  0  0  0  0
    2.1681    4.4152   -6.5505 S   0  0  0  0  0  0  0  0  0  0  0  0
    2.4593    4.7808   -4.9317 C   0  0  0  0  0  0  0  0  0  0  0  0
    1.6436    5.1256   -3.8983 C   0  0  0  0  0  0  0  0  0  0  0  0
    0.2965    5.5186   -3.9051 C   0  0  0  0  0  0  0  0  0  0  0  0
   -0.4386    5.4807   -2.6856 C   0  0  0  0  0  0  0  0  0  0  0  0
   -1.7492    5.8185   -2.7402 N   0  0  0  0  0  0  0  0  0  0  0  0
   -1.8811    6.1407   -4.3601 S   0  0  0  0  0  0  0  0  0  0  0  0
   -0.3841    5.8802   -5.0200 N   0  0  0  0  0  0  0  0  0  0  0  0
    0.2226    5.0814   -1.5253 C   0  0  0  0  0  0  0  0  0  0  0  0
   -0.2009    4.9166   -0.2449 C   0  0  0  0  0  0  0  0  0  0  0  0
   -1.6476    4.9561    0.6076 S   0  0  0  0  0  0  0  0  0  0  0  0
   -0.8696    4.3916    2.0162 C   0  0  0  0  0  0  0  0  0  0  0  0
   -1.4775    3.9771    3.2072 C   0  0  0  0  0  0  0  0  0  0  0  0
   -0.7561    3.3057    4.1886 C   0  0  0  0  0  0  0  0  0  0  0  0
    0.6161    3.1192    3.9882 C   0  0  0  0  0  0  0  0  0  0  0  0
    1.5098    2.4698    4.7515 N   0  0  0  0  0  0  0  0  0  0  0  0
    2.6441    2.5235    4.0558 N   0  0  0  0  0  0  0  0  0  0  0  0
    3.8786    1.8849    4.4921 C   0  0  0  0  0  0  0  0  0  0  0  0
    3.9459    0.4585    3.9686 C   0  0  0  0  0  0  0  0  0  0  0  0
    2.5146    3.1417    2.8828 N   0  0  0  0  0  0  0  0  0  0  0  0
    1.2360    3.5403    2.8363 C   0  0  0  0  0  0  0  0  0  0  0  0
    0.5137    4.1764    1.8092 C   0  0  0  0  0  0  0  0  0  0  0  0
    0.8606    4.5122    0.4950 C   0  0  0  0  0  0  0  0  0  0  0  0
    2.0041    4.4453   -0.2408 N   0  0  0  0  0  0  0  0  0  0  0  0
    1.5728    4.7167   -1.5140 C   0  0  0  0  0  0  0  0  0  0  0  0
    2.2762    4.6475   -2.7438 C   0  0  0  0  0  0  0  0  0  0  0  0
    3.3790    3.8950   -3.0677 N   0  0  0  0  0  0  0  0  0  0  0  0
    3.5161    4.0845   -4.4165 C   0  0  0  0  0  0  0  0  0  0  0  0
    4.1980    3.3437   -5.4010 C   0  0  0  0  0  0  0  0  0  0  0  0
    5.3575    2.5491   -5.3283 C   0  0  0  0  0  0  0  0  0  0  0  0
    5.7825    1.8052   -6.4009 C   0  0  0  0  0  0  0  0  0  0  0  0
    5.0799    1.7993   -7.6092 C   0  0  0  0  0  0  0  0  0  0  0  0
    5.2997    0.9898   -8.7242 C   0  0  0  0  0  0  0  0  0  0  0  0
    6.8914    1.1334   -6.0510 N   0  0  0  0  0  0  0  0  0  0  0  0
    7.1155    1.4950   -4.7902 N   0  0  0  0  0  0  0  0  0  0  0  0
    8.2474    1.0184   -4.0054 C   0  0  0  0  0  0  0  0  0  0  0  0
    9.4731    1.8795   -4.2677 C   0  0  0  0  0  0  0  0  0  0  0  0
    6.2211    2.3632   -4.3209 N   0  0  0  0  0  0  0  0  0  0  0  0
    3.7706    2.6606   -2.3585 C   0  0  0  0  0  0  0  0  0  0  0  0
    3.0659    1.4291   -2.9362 C   0  0  0  0  0  0  0  0  0  0  0  0
    3.3733    4.6565    0.2644 C   0  0  0  0  0  0  0  0  0  0  0  0
    3.4705    5.9316    1.1049 C   0  0  0  0  0  0  0  0  0  0  0  0
   -1.5477    2.8086    5.2313 C   0  0  0  0  0  0  0  0  0  0  0  0
   -2.9220    3.1100    5.0855 C   0  0  0  0  0  0  0  0  0  0  0  0
   -3.0909    3.9842    3.6346 S   0  0  0  0  0  0  0  0  0  0  0  0
   -4.0726    2.6601    5.9511 C   0  0  0  0  0  0  0  0  0  0  0  0
   -5.4071    2.7916    5.4862 C   0  0  0  0  0  0  0  0  0  0  0  0
   -5.6956    3.3697    4.2955 F   0  0  0  0  0  0  0  0  0  0  0  0
   -6.4847    2.3252    6.2387 C   0  0  0  0  0  0  0  0  0  0  0  0
   -7.7408    2.5308    5.7682 F   0  0  0  0  0  0  0  0  0  0  0  0
   -6.2794    1.6773    7.4639 C   0  0  0  0  0  0  0  0  0  0  0  0
   -4.9802    1.6142    7.9891 C   0  0  0  0  0  0  0  0  0  0  0  0
   -4.7617    1.0698    9.2176 N   0  0  0  0  0  0  0  0  0  0  0  0
   -3.5156    0.9520    9.7442 C   0  0  0  0  0  0  0  0  0  0  0  0
   -3.3512    0.3060   11.0550 C   0  0  0  0  0  0  0  0  0  0  0  0
   -4.1620    0.7488   12.4620 S   0  0  0  0  0  0  0  0  0  0  0  0
   -3.4342   -0.4081   13.4506 C   0  0  0  0  0  0  0  0  0  0  0  0
   -3.7076   -0.5925   14.9107 C   0  0  0  0  0  0  0  0  0  0  0  0
   -5.0577   -1.2690   15.1318 C   0  0  0  0  0  0  0  0  0  0  0  0
   -2.5779   -1.1791   12.6705 C   0  0  0  0  0  0  0  0  0  0  0  0
   -2.5257   -0.7808   11.3316 C   0  0  0  0  0  0  0  0  0  0  0  0
   -1.8581   -2.2213   13.1543 F   0  0  0  0  0  0  0  0  0  0  0  0
   -2.4186    1.4242    9.0017 C   0  0  0  0  0  0  0  0  0  0  0  0
   -2.6381    1.9826    7.7851 N   0  0  0  0  0  0  0  0  0  0  0  0
   -3.8780    2.0862    7.2370 C   0  0  0  0  0  0  0  0  0  0  0  0
   -1.0493    1.3837    9.5245 C   0  0  0  0  0  0  0  0  0  0  0  0
   -0.5643    2.1474   10.5817 C   0  0  0  0  0  0  0  0  0  0  0  0
    0.7438    1.8102   10.9324 C   0  0  0  0  0  0  0  0  0  0  0  0
    1.4012    2.3912   11.9673 F   0  0  0  0  0  0  0  0  0  0  0  0
    1.2856    0.7832   10.1608 C   0  0  0  0  0  0  0  0  0  0  0  0
    2.5832    0.0840   10.4180 C   0  0  0  0  0  0  0  0  0  0  0  0
    2.4202   -0.9269   11.5492 C   0  0  0  0  0  0  0  0  0  0  0  0
    0.1368    0.2919    9.0327 S   0  0  0  0  0  0  0  0  0  0  0  0
   -7.4192    1.1169    8.2288 C   0  0  0  0  0  0  0  0  0  0  0  0
   -8.4142    0.3741    7.7055 C   0  0  0  0  0  0  0  0  0  0  0  0
   -9.6971    0.1784    8.3789 C   0  0  0  0  0  0  0  0  0  0  0  0
   -9.9297    0.3822    9.5992 O   0  0  0  0  0  0  0  0  0  0  0  0
  -10.6826   -0.1822    7.3784 C   0  0  0  0  0  0  0  0  0  0  0  0
  -12.0644   -0.2978    7.5314 C   0  0  0  0  0  0  0  0  0  0  0  0
  -12.8454   -0.4804    6.3837 C   0  0  0  0  0  0  0  0  0  0  0  0
  -12.2481   -0.4859    5.1113 C   0  0  0  0  0  0  0  0  0  0  0  0
  -10.8461   -0.3307    4.9676 C   0  0  0  0  0  0  0  0  0  0  0  0
  -10.2383   -0.1833    3.7122 O   0  0  0  0  0  0  0  0  0  0  0  0
  -10.9368   -0.1944    2.4686 C   0  0  0  0  0  0  0  0  0  0  0  0
  -10.0669   -0.2671    6.1403 C   0  0  0  0  0  0  0  0  0  0  0  0
   -8.5950   -0.1393    6.3156 C   0  0  0  0  0  0  0  0  0  0  0  0
   -7.6640   -0.8318    5.6110 C   0  0  0  0  0  0  0  0  0  0  0  0
   -8.0101   -1.6555    4.4843 C   0  0  0  0  0  0  0  0  0  0  0  0
   -8.2786   -2.3299    3.5825 N   0  0  0  0  0  0  0  0  0  0  0  0
   -6.3172   -1.0020    6.0915 C   0  0  0  0  0  0  0  0  0  0  0  0
   -5.2341   -1.1553    6.4699 N   0  0  0  0  0  0  0  0  0  0  0  0
    3.2852   -7.1172  -13.9912 H   0  0  0  0  0  0  0  0  0  0  0  0
   -0.1284  -10.4796  -11.5010 H   0  0  0  0  0  0  0  0  0  0  0  0
   -1.7286  -10.1989   -9.6151 H   0  0  0  0  0  0  0  0  0  0  0  0
   -1.7008   -8.1460   -8.2603 H   0  0  0  0  0  0  0  0  0  0  0  0
   -2.0078   -5.7668   -7.9758 H   0  0  0  0  0  0  0  0  0  0  0  0
   -0.7969   -4.6163   -7.3024 H   0  0  0  0  0  0  0  0  0  0  0  0
   -0.8077   -6.3275   -6.7231 H   0  0  0  0  0  0  0  0  0  0  0  0
    7.0095   -3.3809  -12.9458 H   0  0  0  0  0  0  0  0  0  0  0  0
    7.2956   -1.6180  -12.7869 H   0  0  0  0  0  0  0  0  0  0  0  0
    6.5359   -3.0396  -15.4217 H   0  0  0  0  0  0  0  0  0  0  0  0
    6.9055   -1.2772  -15.2100 H   0  0  0  0  0  0  0  0  0  0  0  0
    8.2009   -2.5156  -14.9433 H   0  0  0  0  0  0  0  0  0  0  0  0
    5.3109   -4.9926  -13.8711 H   0  0  0  0  0  0  0  0  0  0  0  0
    6.1887    0.0133  -11.5284 H   0  0  0  0  0  0  0  0  0  0  0  0
    4.7555    2.4597    4.1181 H   0  0  0  0  0  0  0  0  0  0  0  0
    3.9210    1.8752    5.6016 H   0  0  0  0  0  0  0  0  0  0  0  0
    3.0557   -0.1158    4.3073 H   0  0  0  0  0  0  0  0  0  0  0  0
    3.9848    0.4631    2.8590 H   0  0  0  0  0  0  0  0  0  0  0  0
    4.8619   -0.0401    4.3605 H   0  0  0  0  0  0  0  0  0  0  0  0
    6.0923    0.2547   -8.7880 H   0  0  0  0  0  0  0  0  0  0  0  0
    7.9945    1.0581   -2.9224 H   0  0  0  0  0  0  0  0  0  0  0  0
    8.4687   -0.0377   -4.2649 H   0  0  0  0  0  0  0  0  0  0  0  0
    9.7892    1.7744   -5.3268 H   0  0  0  0  0  0  0  0  0  0  0  0
   10.3082    1.5510   -3.6100 H   0  0  0  0  0  0  0  0  0  0  0  0
    9.2474    2.9449   -4.0557 H   0  0  0  0  0  0  0  0  0  0  0  0
    4.8657    2.5381   -2.3601 H   0  0  0  0  0  0  0  0  0  0  0  0
    3.4805    2.6930   -1.2978 H   0  0  0  0  0  0  0  0  0  0  0  0
    3.4648    1.1645   -3.9352 H   0  0  0  0  0  0  0  0  0  0  0  0
    1.9761    1.6223   -3.0219 H   0  0  0  0  0  0  0  0  0  0  0  0
    3.2254    0.5604   -2.2626 H   0  0  0  0  0  0  0  0  0  0  0  0
    3.7130    3.7778    0.8443 H   0  0  0  0  0  0  0  0  0  0  0  0
    4.0780    4.7803   -0.5838 H   0  0  0  0  0  0  0  0  0  0  0  0
    3.1366    6.8065    0.5064 H   0  0  0  0  0  0  0  0  0  0  0  0
    2.8450    5.8539    2.0190 H   0  0  0  0  0  0  0  0  0  0  0  0
    4.5265    6.0906    1.4111 H   0  0  0  0  0  0  0  0  0  0  0  0
   -1.1158    2.1907    6.0009 H   0  0  0  0  0  0  0  0  0  0  0  0
   -3.7062    0.4021   15.4100 H   0  0  0  0  0  0  0  0  0  0  0  0
   -2.9046   -1.2075   15.3755 H   0  0  0  0  0  0  0  0  0  0  0  0
   -5.0676   -2.2783   14.6656 H   0  0  0  0  0  0  0  0  0  0  0  0
   -5.8713   -0.6559   14.6899 H   0  0  0  0  0  0  0  0  0  0  0  0
   -5.2467   -1.3767   16.2223 H   0  0  0  0  0  0  0  0  0  0  0  0
   -1.9160   -1.2757   10.5868 H   0  0  0  0  0  0  0  0  0  0  0  0
   -1.1489    2.9034   11.0981 H   0  0  0  0  0  0  0  0  0  0  0  0
    2.9090   -0.4455    9.4941 H   0  0  0  0  0  0  0  0  0  0  0  0
    3.3647    0.8264   10.6885 H   0  0  0  0  0  0  0  0  0  0  0  0
    2.1533   -0.4058   12.4945 H   0  0  0  0  0  0  0  0  0  0  0  0
    1.6197   -1.6592   11.3031 H   0  0  0  0  0  0  0  0  0  0  0  0
    3.3739   -1.4763   11.6990 H   0  0  0  0  0  0  0  0  0  0  0  0
   -7.4704    1.3711    9.2853 H   0  0  0  0  0  0  0  0  0  0  0  0
  -12.5230   -0.2256    8.5112 H   0  0  0  0  0  0  0  0  0  0  0  0
  -13.9220   -0.5741    6.4741 H   0  0  0  0  0  0  0  0  0  0  0  0
  -12.8885   -0.5778    4.2460 H   0  0  0  0  0  0  0  0  0  0  0  0
  -11.4404   -1.1728    2.3228 H   0  0  0  0  0  0  0  0  0  0  0  0
  -10.2093   -0.0389    1.6450 H   0  0  0  0  0  0  0  0  0  0  0  0
  -11.6840    0.6265    2.4430 H   0  0  0  0  0  0  0  0  0  0  0  0
  1  2  2  3
  2  3  1  0
  3  4  2  0
  3  5  1  0
  5  6  2  0
  6  7  1  0
  7  8  2  0
  8  9  1  0
  9 10  1  0
 10 11  1  0
  9 12  2  0
 12 13  1  0
 13 14  2  3
 14 15  1  0
 15 16  3  0
 14 17  1  0
 17 18  3  0
  1 19  1  0
 19 20  1  0
 20 21  1  0
 21 22  1  0
 22 23  2  0
 23 24  1  0
 24 25  1  0
 25 26  1  0
 24 27  1  0
 27 28  1  0
 23 29  1  0
 29 30  2  0
 30 31  1  0
 30 32  1  0
 32 33  1  0
 33 34  1  0
 34 35  1  0
 35 36  1  0
 36 37  1  0
 37 38  1  0
 38 39  1  0
 39 40  1  0
 40 41  2  0
 41 42  1  0
 42 43  1  0
 40 44  1  0
 44 45  1  0
 45 46  1  0
 46 47  1  0
 47 48  1  0
 48 49  2  0
 49 50  1  0
 50 51  2  0
 51 52  1  0
 52 53  1  0
 53 54  1  0
 52 55  1  0
 55 56  2  0
 56 57  1  0
 57 58  1  0
 58 59  1  0
 59 60  1  0
 60 61  1  0
 61 62  1  0
 62 63  1  0
 63 64  1  0
 64 65  1  0
 65 66  1  0
 66 67  1  0
 67 68  1  0
 66 69  2  0
 69 70  1  0
 70 71  1  0
 71 72  1  0
 70 73  1  0
 62 74  1  0
 74 75  1  0
 59 76  1  0
 76 77  1  0
 49 78  1  0
 78 79  2  0
 79 80  1  0
 79 81  1  0
 81 82  2  0
 82 83  1  0
 82 84  1  0
 84 85  1  0
 84 86  2  0
 86 87  1  0
 87 88  2  0
 88 89  1  0
 89 90  1  0
 90 91  1  0
 91 92  1  0
 92 93  1  0
 93 94  1  0
 92 95  2  0
 95 96  1  0
 95 97  1  0
 89 98  2  0
 98 99  1  0
 99100  2  0
 98101  1  0
101102  2  0
102103  1  0
103104  1  0
103105  2  0
105106  1  0
106107  1  0
105108  1  0
 86109  1  0
109110  2  3
110111  1  0
111112  2  0
111113  1  0
113114  2  0
114115  1  0
115116  2  0
116117  1  0
117118  1  0
118119  1  0
117120  2  0
120121  1  0
121122  2  3
122123  1  0
123124  3  0
122125  1  0
125126  3  0
 13  2  1  0
 28 19  2  0
 68 32  2  0
100 81  1  0
108101  1  0
121110  1  0
 12  5  1  0
 27 21  2  0
 67 34  2  0
100 87  1  0
120113  1  0
 31 22  1  0
 64 35  2  0
 73 65  2  0
 96 90  2  0
 63 37  2  0
 61 38  2  0
 43 39  2  0
 60 44  2  0
 58 45  2  0
 57 47  2  0
 80 48  1  0
 56 50  1  0
  1127  1  0
  6128  1  0
  7129  1  0
  8130  1  0
 11131  1  0
 11132  1  0
 11133  1  0
 25134  1  0
 25135  1  0
 26136  1  0
 26137  1  0
 26138  1  0
 28139  1  0
 29140  1  0
 53141  1  0
 53142  1  0
 54143  1  0
 54144  1  0
 54145  1  0
 68146  1  0
 71147  1  0
 71148  1  0
 72149  1  0
 72150  1  0
 72151  1  0
 74152  1  0
 74153  1  0
 75154  1  0
 75155  1  0
 75156  1  0
 76157  1  0
 76158  1  0
 77159  1  0
 77160  1  0
 77161  1  0
 78162  1  0
 93163  1  0
 93164  1  0
 94165  1  0
 94166  1  0
 94167  1  0
 96168  1  0
102169  1  0
106170  1  0
106171  1  0
107172  1  0
107173  1  0
107174  1  0
109175  1  0
114176  1  0
115177  1  0
116178  1  0
119179  1  0
119180  1  0
119181  1  0
M  END

