
     RDKit          3D

165184  0  0  0  0  0  0  0  0999 V2000
   -7.5362   -1.3777   -3.9643 C   0  0  0  0  0  0  0  0  0  0  0  0
   -6.3041   -1.9079   -4.0723 C   0  0  0  0  0  0  0  0  0  0  0  0
   -5.2211   -1.7948   -3.0859 C   0  0  0  0  0  0  0  0  0  0  0  0
   -5.3343   -1.4290   -1.8856 O   0  0  0  0  0  0  0  0  0  0  0  0
   -3.9851   -2.2020   -3.7174 C   0  0  0  0  0  0  0  0  0  0  0  0
   -2.6914   -2.1188   -3.2076 C   0  0  0  0  0  0  0  0  0  0  0  0
   -1.6212   -2.4281   -4.0536 C   0  0  0  0  0  0  0  0  0  0  0  0
   -1.8547   -2.7484   -5.4021 C   0  0  0  0  0  0  0  0  0  0  0  0
   -3.1710   -2.7918   -5.9188 C   0  0  0  0  0  0  0  0  0  0  0  0
   -3.4218   -2.9370   -7.2905 O   0  0  0  0  0  0  0  0  0  0  0  0
   -2.4176   -3.1371   -8.2801 C   0  0  0  0  0  0  0  0  0  0  0  0
   -4.2413   -2.6043   -5.0183 C   0  0  0  0  0  0  0  0  0  0  0  0
   -5.7140   -2.6112   -5.2537 C   0  0  0  0  0  0  0  0  0  0  0  0
   -6.3790   -3.4239   -6.1164 C   0  0  0  0  0  0  0  0  0  0  0  0
   -7.8148   -3.4849   -6.1824 C   0  0  0  0  0  0  0  0  0  0  0  0
   -8.9674   -3.5455   -6.2545 N   0  0  0  0  0  0  0  0  0  0  0  0
   -5.7035   -4.4209   -6.9056 C   0  0  0  0  0  0  0  0  0  0  0  0
   -5.1751   -5.2319   -7.5426 N   0  0  0  0  0  0  0  0  0  0  0  0
   -7.9909   -0.6107   -2.7992 C   0  0  0  0  0  0  0  0  0  0  0  0
   -7.3365    0.8928   -2.3091 S   0  0  0  0  0  0  0  0  0  0  0  0
   -8.3694    0.9993   -0.9955 C   0  0  0  0  0  0  0  0  0  0  0  0
   -8.3395    1.5783    0.2411 C   0  0  0  0  0  0  0  0  0  0  0  0
   -9.0768    0.7761    1.0583 C   0  0  0  0  0  0  0  0  0  0  0  0
   -9.6076   -0.2795    0.3872 N   0  0  0  0  0  0  0  0  0  0  0  0
  -10.3131   -1.4392    0.9355 C   0  0  0  0  0  0  0  0  0  0  0  0
  -11.7955   -1.3527    0.5918 C   0  0  0  0  0  0  0  0  0  0  0  0
   -9.1428   -0.1149   -0.8790 C   0  0  0  0  0  0  0  0  0  0  0  0
   -8.9795   -1.0454   -1.9034 C   0  0  0  0  0  0  0  0  0  0  0  0
   -8.8005    0.9259    2.4188 C   0  0  0  0  0  0  0  0  0  0  0  0
   -7.8163    1.9087    2.6110 C   0  0  0  0  0  0  0  0  0  0  0  0
   -7.2482    2.4958    1.1089 S   0  0  0  0  0  0  0  0  0  0  0  0
   -7.0969    2.1381    3.8679 C   0  0  0  0  0  0  0  0  0  0  0  0
   -6.7681    3.4093    4.3752 C   0  0  0  0  0  0  0  0  0  0  0  0
   -7.3162    4.6715    3.8445 C   0  0  0  0  0  0  0  0  0  0  0  0
   -8.7017    4.8811    3.8377 C   0  0  0  0  0  0  0  0  0  0  0  0
   -9.2319    6.0558    3.3003 C   0  0  0  0  0  0  0  0  0  0  0  0
   -8.3826    7.0169    2.7440 C   0  0  0  0  0  0  0  0  0  0  0  0
   -6.9947    6.8084    2.7217 C   0  0  0  0  0  0  0  0  0  0  0  0
   -6.0761    7.8542    2.1491 C   0  0  0  0  0  0  0  0  0  0  0  0
   -5.5947    8.8028    3.2396 C   0  0  0  0  0  0  0  0  0  0  0  0
   -6.4651    5.6357    3.2815 C   0  0  0  0  0  0  0  0  0  0  0  0
   -5.7396    3.3217    5.3157 C   0  0  0  0  0  0  0  0  0  0  0  0
   -4.6844    4.4874    5.9787 S   0  0  0  0  0  0  0  0  0  0  0  0
   -3.6415    3.2724    6.5406 C   0  0  0  0  0  0  0  0  0  0  0  0
   -2.2974    3.1814    6.7835 C   0  0  0  0  0  0  0  0  0  0  0  0
   -1.3473    4.1422    7.1325 C   0  0  0  0  0  0  0  0  0  0  0  0
    0.0195    3.7456    7.2331 C   0  0  0  0  0  0  0  0  0  0  0  0
    0.9129    4.7101    7.5668 N   0  0  0  0  0  0  0  0  0  0  0  0
   -0.1147    5.9992    7.7354 S   0  0  0  0  0  0  0  0  0  0  0  0
   -1.6366    5.4395    7.3992 N   0  0  0  0  0  0  0  0  0  0  0  0
    0.3704    2.4275    6.9006 C   0  0  0  0  0  0  0  0  0  0  0  0
    1.5919    1.9312    6.5350 C   0  0  0  0  0  0  0  0  0  0  0  0
    3.0831    2.6650    6.1802 S   0  0  0  0  0  0  0  0  0  0  0  0
    3.4673    1.4536    5.0538 C   0  0  0  0  0  0  0  0  0  0  0  0
    4.4645    1.3661    4.0809 C   0  0  0  0  0  0  0  0  0  0  0  0
    5.5055    2.3898    3.9061 C   0  0  0  0  0  0  0  0  0  0  0  0
    5.1643    3.6507    3.3955 C   0  0  0  0  0  0  0  0  0  0  0  0
    6.1530    4.6127    3.1858 C   0  0  0  0  0  0  0  0  0  0  0  0
    7.4878    4.3229    3.4827 C   0  0  0  0  0  0  0  0  0  0  0  0
    7.8391    3.0709    4.0134 C   0  0  0  0  0  0  0  0  0  0  0  0
    9.2825    2.7306    4.2703 C   0  0  0  0  0  0  0  0  0  0  0  0
    9.8992    2.0416    3.0551 C   0  0  0  0  0  0  0  0  0  0  0  0
    6.8379    2.1106    4.2363 C   0  0  0  0  0  0  0  0  0  0  0  0
    4.1693    0.3523    3.1499 C   0  0  0  0  0  0  0  0  0  0  0  0
    2.6814   -0.3726    3.5502 S   0  0  0  0  0  0  0  0  0  0  0  0
    2.4367    0.5587    4.9232 C   0  0  0  0  0  0  0  0  0  0  0  0
    1.3617    0.8226    5.7756 C   0  0  0  0  0  0  0  0  0  0  0  0
    0.0354    0.5284    5.6741 N   0  0  0  0  0  0  0  0  0  0  0  0
   -0.5774    1.4980    6.4360 C   0  0  0  0  0  0  0  0  0  0  0  0
   -1.9523    1.8505    6.5061 C   0  0  0  0  0  0  0  0  0  0  0  0
   -3.0665    1.1153    6.2085 N   0  0  0  0  0  0  0  0  0  0  0  0
   -4.0649    2.0291    6.2003 C   0  0  0  0  0  0  0  0  0  0  0  0
   -5.2723    2.0484    5.5283 C   0  0  0  0  0  0  0  0  0  0  0  0
   -6.0730    0.9592    4.5446 S   0  0  0  0  0  0  0  0  0  0  0  0
   -3.2592   -0.3319    6.3645 C   0  0  0  0  0  0  0  0  0  0  0  0
   -4.2160   -0.6479    7.5147 C   0  0  0  0  0  0  0  0  0  0  0  0
   -0.5452   -0.2477    4.5681 C   0  0  0  0  0  0  0  0  0  0  0  0
   -0.3323   -1.7493    4.7746 C   0  0  0  0  0  0  0  0  0  0  0  0
    4.9175    0.0384    1.9215 C   0  0  0  0  0  0  0  0  0  0  0  0
    6.6315    0.0257    1.7914 S   0  0  0  0  0  0  0  0  0  0  0  0
    6.5794   -0.4794    0.2039 C   0  0  0  0  0  0  0  0  0  0  0  0
    7.3908   -0.8505   -0.8231 C   0  0  0  0  0  0  0  0  0  0  0  0
    6.5693   -1.2192   -1.8372 C   0  0  0  0  0  0  0  0  0  0  0  0
    5.2576   -1.1196   -1.5028 N   0  0  0  0  0  0  0  0  0  0  0  0
    4.0811   -1.3941   -2.3263 C   0  0  0  0  0  0  0  0  0  0  0  0
    3.5607   -0.1060   -2.9545 C   0  0  0  0  0  0  0  0  0  0  0  0
    5.3084   -0.6507   -0.2299 C   0  0  0  0  0  0  0  0  0  0  0  0
    4.3250   -0.3788    0.7139 C   0  0  0  0  0  0  0  0  0  0  0  0
    7.2182   -1.6864   -2.9729 C   0  0  0  0  0  0  0  0  0  0  0  0
    8.6107   -1.6827   -2.7595 C   0  0  0  0  0  0  0  0  0  0  0  0
    9.0033   -1.0623   -1.2072 S   0  0  0  0  0  0  0  0  0  0  0  0
    9.6237   -2.1194   -3.7273 C   0  0  0  0  0  0  0  0  0  0  0  0
    9.5888   -3.3064   -4.3589 C   0  0  0  0  0  0  0  0  0  0  0  0
    8.5688   -4.3526   -4.2088 C   0  0  0  0  0  0  0  0  0  0  0  0
    7.7793   -4.5001   -3.2367 O   0  0  0  0  0  0  0  0  0  0  0  0
    8.6587   -5.2344   -5.3529 C   0  0  0  0  0  0  0  0  0  0  0  0
    7.7814   -6.2497   -5.7261 C   0  0  0  0  0  0  0  0  0  0  0  0
    7.9592   -6.8548   -6.9751 C   0  0  0  0  0  0  0  0  0  0  0  0
    8.9552   -6.3907   -7.8518 C   0  0  0  0  0  0  0  0  0  0  0  0
    9.8174   -5.3367   -7.4704 C   0  0  0  0  0  0  0  0  0  0  0  0
   10.7120   -4.7462   -8.3726 O   0  0  0  0  0  0  0  0  0  0  0  0
   10.8456   -5.1205   -9.7411 C   0  0  0  0  0  0  0  0  0  0  0  0
    9.7102   -4.8350   -6.1601 C   0  0  0  0  0  0  0  0  0  0  0  0
   10.4628   -3.7416   -5.4823 C   0  0  0  0  0  0  0  0  0  0  0  0
   11.7993   -3.5284   -5.5753 C   0  0  0  0  0  0  0  0  0  0  0  0
   12.5027   -2.6411   -4.6839 C   0  0  0  0  0  0  0  0  0  0  0  0
   13.0799   -1.9348   -3.9706 N   0  0  0  0  0  0  0  0  0  0  0  0
   12.6424   -4.3463   -6.4074 C   0  0  0  0  0  0  0  0  0  0  0  0
   13.3289   -5.0087   -7.0631 N   0  0  0  0  0  0  0  0  0  0  0  0
   -8.2477   -1.4659   -4.7675 H   0  0  0  0  0  0  0  0  0  0  0  0
   -2.5123   -1.8005   -2.1882 H   0  0  0  0  0  0  0  0  0  0  0  0
   -0.6055   -2.3756   -3.6807 H   0  0  0  0  0  0  0  0  0  0  0  0
   -1.0008   -2.9219   -6.0423 H   0  0  0  0  0  0  0  0  0  0  0  0
   -1.8681   -4.0829   -8.0822 H   0  0  0  0  0  0  0  0  0  0  0  0
   -2.9012   -3.2084   -9.2766 H   0  0  0  0  0  0  0  0  0  0  0  0
   -1.7110   -2.2793   -8.2921 H   0  0  0  0  0  0  0  0  0  0  0  0
  -10.2019   -1.4748    2.0389 H   0  0  0  0  0  0  0  0  0  0  0  0
   -9.8815   -2.3751    0.5251 H   0  0  0  0  0  0  0  0  0  0  0  0
  -11.9364   -1.3677   -0.5100 H   0  0  0  0  0  0  0  0  0  0  0  0
  -12.3369   -2.2155    1.0341 H   0  0  0  0  0  0  0  0  0  0  0  0
  -12.2257   -0.4127    0.9998 H   0  0  0  0  0  0  0  0  0  0  0  0
   -9.4520   -2.0180   -1.9337 H   0  0  0  0  0  0  0  0  0  0  0  0
   -9.1885    0.2911    3.2055 H   0  0  0  0  0  0  0  0  0  0  0  0
   -9.3707    4.1446    4.2664 H   0  0  0  0  0  0  0  0  0  0  0  0
  -10.3014    6.2216    3.3144 H   0  0  0  0  0  0  0  0  0  0  0  0
   -8.8059    7.9232    2.3311 H   0  0  0  0  0  0  0  0  0  0  0  0
   -6.5970    8.4327    1.3576 H   0  0  0  0  0  0  0  0  0  0  0  0
   -5.1956    7.3692    1.6767 H   0  0  0  0  0  0  0  0  0  0  0  0
   -4.9996    8.2469    3.9980 H   0  0  0  0  0  0  0  0  0  0  0  0
   -4.9506    9.5907    2.7909 H   0  0  0  0  0  0  0  0  0  0  0  0
   -6.4599    9.2907    3.7398 H   0  0  0  0  0  0  0  0  0  0  0  0
   -5.3948    5.4619    3.2545 H   0  0  0  0  0  0  0  0  0  0  0  0
    4.1336    3.8794    3.1469 H   0  0  0  0  0  0  0  0  0  0  0  0
    5.8871    5.5807    2.7806 H   0  0  0  0  0  0  0  0  0  0  0  0
    8.2473    5.0694    3.2947 H   0  0  0  0  0  0  0  0  0  0  0  0
    9.8596    3.6528    4.5005 H   0  0  0  0  0  0  0  0  0  0  0  0
    9.3641    2.0568    5.1508 H   0  0  0  0  0  0  0  0  0  0  0  0
    9.3799    1.0824    2.8479 H   0  0  0  0  0  0  0  0  0  0  0  0
    9.8282    2.6946    2.1592 H   0  0  0  0  0  0  0  0  0  0  0  0
   10.9701    1.8262    3.2513 H   0  0  0  0  0  0  0  0  0  0  0  0
    7.1013    1.1357    4.6309 H   0  0  0  0  0  0  0  0  0  0  0  0
   -3.6588   -0.7637    5.4228 H   0  0  0  0  0  0  0  0  0  0  0  0
   -2.2983   -0.8123    6.6162 H   0  0  0  0  0  0  0  0  0  0  0  0
   -3.8458   -0.1907    8.4566 H   0  0  0  0  0  0  0  0  0  0  0  0
   -5.2338   -0.2641    7.2976 H   0  0  0  0  0  0  0  0  0  0  0  0
   -4.2820   -1.7485    7.6527 H   0  0  0  0  0  0  0  0  0  0  0  0
   -0.0823    0.0616    3.6088 H   0  0  0  0  0  0  0  0  0  0  0  0
   -1.6160   -0.0275    4.4329 H   0  0  0  0  0  0  0  0  0  0  0  0
   -0.8288   -2.3098    3.9552 H   0  0  0  0  0  0  0  0  0  0  0  0
    0.7459   -1.9990    4.7708 H   0  0  0  0  0  0  0  0  0  0  0  0
   -0.7473   -2.0871    5.7420 H   0  0  0  0  0  0  0  0  0  0  0  0
    3.2838   -1.8474   -1.7001 H   0  0  0  0  0  0  0  0  0  0  0  0
    4.3414   -2.1166   -3.1275 H   0  0  0  0  0  0  0  0  0  0  0  0
    3.2477    0.6053   -2.1633 H   0  0  0  0  0  0  0  0  0  0  0  0
    4.3457    0.3632   -3.5813 H   0  0  0  0  0  0  0  0  0  0  0  0
    2.6797   -0.3330   -3.5922 H   0  0  0  0  0  0  0  0  0  0  0  0
    3.2598   -0.4800    0.5413 H   0  0  0  0  0  0  0  0  0  0  0  0
    6.7237   -2.0174   -3.8770 H   0  0  0  0  0  0  0  0  0  0  0  0
   10.4047   -1.4089   -3.9433 H   0  0  0  0  0  0  0  0  0  0  0  0
    6.9670   -6.5489   -5.0797 H   0  0  0  0  0  0  0  0  0  0  0  0
    7.2977   -7.6555   -7.2872 H   0  0  0  0  0  0  0  0  0  0  0  0
    9.0246   -6.8370   -8.8342 H   0  0  0  0  0  0  0  0  0  0  0  0
   11.6039   -4.4658  -10.2203 H   0  0  0  0  0  0  0  0  0  0  0  0
    9.8776   -4.9922  -10.2701 H   0  0  0  0  0  0  0  0  0  0  0  0
   11.1857   -6.1732   -9.8160 H   0  0  0  0  0  0  0  0  0  0  0  0
  1  2  2  3
  2  3  1  0
  3  4  2  0
  3  5  1  0
  5  6  2  0
  6  7  1  0
  7  8  2  0
  8  9  1  0
  9 10  1  0
 10 11  1  0
  9 12  2  0
 12 13  1  0
 13 14  2  3
 14 15  1  0
 15 16  3  0
 14 17  1  0
 17 18  3  0
  1 19  1  0
 19 20  1  0
 20 21  1  0
 21 22  1  0
 22 23  2  0
 23 24  1  0
 24 25  1  0
 25 26  1  0
 24 27  1  0
 27 28  1  0
 23 29  1  0
 29 30  2  0
 30 31  1  0
 30 32  1  0
 32 33  2  0
 33 34  1  0
 34 35  2  0
 35 36  1  0
 36 37  2  0
 37 38  1  0
 38 39  1  0
 39 40  1  0
 38 41  2  0
 33 42  1  0
 42 43  1  0
 43 44  1  0
 44 45  1  0
 45 46  1  0
 46 47  1  0
 47 48  2  0
 48 49  1  0
 49 50  1  0
 47 51  1  0
 51 52  1  0
 52 53  1  0
 53 54  1  0
 54 55  1  0
 55 56  1  0
 56 57  2  0
 57 58  1  0
 58 59  2  0
 59 60  1  0
 60 61  1  0
 61 62  1  0
 60 63  2  0
 55 64  2  0
 64 65  1  0
 65 66  1  0
 66 67  1  0
 67 68  1  0
 68 69  1  0
 69 70  1  0
 70 71  1  0
 71 72  1  0
 72 73  1  0
 73 74  1  0
 71 75  1  0
 75 76  1  0
 68 77  1  0
 77 78  1  0
 64 79  1  0
 79 80  1  0
 80 81  1  0
 81 82  1  0
 82 83  2  0
 83 84  1  0
 84 85  1  0
 85 86  1  0
 84 87  1  0
 87 88  1  0
 83 89  1  0
 89 90  2  0
 90 91  1  0
 90 92  1  0
 92 93  2  3
 93 94  1  0
 94 95  2  0
 94 96  1  0
 96 97  2  0
 97 98  1  0
 98 99  2  0
 99100  1  0
100101  1  0
101102  1  0
100103  2  0
103104  1  0
104105  2  3
105106  1  0
106107  3  0
105108  1  0
108109  3  0
 13  2  1  0
 28 19  2  0
 74 32  1  0
 88 79  2  0
104 93  1  0
 12  5  1  0
 27 21  2  0
 41 34  1  0
 73 42  2  0
 87 81  2  0
103 96  1  0
 31 22  1  0
 72 44  2  0
 91 82  1  0
 70 45  2  0
 50 46  2  0
 69 51  2  0
 67 52  2  0
 66 54  2  0
 63 56  1  0
  1110  1  0
  6111  1  0
  7112  1  0
  8113  1  0
 11114  1  0
 11115  1  0
 11116  1  0
 25117  1  0
 25118  1  0
 26119  1  0
 26120  1  0
 26121  1  0
 28122  1  0
 29123  1  0
 35124  1  0
 36125  1  0
 37126  1  0
 39127  1  0
 39128  1  0
 40129  1  0
 40130  1  0
 40131  1  0
 41132  1  0
 57133  1  0
 58134  1  0
 59135  1  0
 61136  1  0
 61137  1  0
 62138  1  0
 62139  1  0
 62140  1  0
 63141  1  0
 75142  1  0
 75143  1  0
 76144  1  0
 76145  1  0
 76146  1  0
 77147  1  0
 77148  1  0
 78149  1  0
 78150  1  0
 78151  1  0
 85152  1  0
 85153  1  0
 86154  1  0
 86155  1  0
 86156  1  0
 88157  1  0
 89158  1  0
 92159  1  0
 97160  1  0
 98161  1  0
 99162  1  0
102163  1  0
102164  1  0
102165  1  0
M  END

