
     RDKit          3D

161180  0  0  0  0  0  0  0  0999 V2000
   -3.4679   -2.7245    9.1278 C   0  0  0  0  0  0  0  0  0  0  0  0
   -4.0989   -3.9018    8.8001 C   0  0  0  0  0  0  0  0  0  0  0  0
   -4.2064   -5.0298    9.7616 C   0  0  0  0  0  0  0  0  0  0  0  0
   -3.5110   -5.1749   10.8089 O   0  0  0  0  0  0  0  0  0  0  0  0
   -5.1825   -5.9734    9.2571 C   0  0  0  0  0  0  0  0  0  0  0  0
   -5.5167   -7.2372    9.7892 C   0  0  0  0  0  0  0  0  0  0  0  0
   -6.4585   -8.0021    9.1076 C   0  0  0  0  0  0  0  0  0  0  0  0
   -7.0917   -7.5290    7.9471 C   0  0  0  0  0  0  0  0  0  0  0  0
   -6.7315   -6.2387    7.4141 C   0  0  0  0  0  0  0  0  0  0  0  0
   -7.4132   -5.7067    6.3167 O   0  0  0  0  0  0  0  0  0  0  0  0
   -8.3770   -6.3868    5.5209 C   0  0  0  0  0  0  0  0  0  0  0  0
   -5.7153   -5.4806    8.0824 C   0  0  0  0  0  0  0  0  0  0  0  0
   -4.9847   -4.2485    7.6571 C   0  0  0  0  0  0  0  0  0  0  0  0
   -4.5957   -4.1253    6.3812 C   0  0  0  0  0  0  0  0  0  0  0  0
   -5.6053   -3.9731    5.3223 C   0  0  0  0  0  0  0  0  0  0  0  0
   -6.3500   -3.8675    4.4447 N   0  0  0  0  0  0  0  0  0  0  0  0
   -3.2328   -3.8023    5.9826 C   0  0  0  0  0  0  0  0  0  0  0  0
   -2.1402   -3.6103    5.7005 N   0  0  0  0  0  0  0  0  0  0  0  0
   -3.4483   -1.4512    8.3757 C   0  0  0  0  0  0  0  0  0  0  0  0
   -2.3727   -0.1192    8.6782 S   0  0  0  0  0  0  0  0  0  0  0  0
   -2.9192    0.8259    7.3734 C   0  0  0  0  0  0  0  0  0  0  0  0
   -2.7668    1.9867    6.5826 C   0  0  0  0  0  0  0  0  0  0  0  0
   -3.6617    1.8150    5.5784 C   0  0  0  0  0  0  0  0  0  0  0  0
   -4.2611    0.6264    5.5634 N   0  0  0  0  0  0  0  0  0  0  0  0
   -4.9286   -0.0283    4.4539 C   0  0  0  0  0  0  0  0  0  0  0  0
   -6.4221    0.2511    4.4913 C   0  0  0  0  0  0  0  0  0  0  0  0
   -3.8584    0.0791    6.7207 C   0  0  0  0  0  0  0  0  0  0  0  0
   -4.2140   -1.1085    7.2850 C   0  0  0  0  0  0  0  0  0  0  0  0
   -3.7393    2.8018    4.6180 C   0  0  0  0  0  0  0  0  0  0  0  0
   -2.7844    3.7995    4.8038 C   0  0  0  0  0  0  0  0  0  0  0  0
   -1.9084    3.4670    6.2247 S   0  0  0  0  0  0  0  0  0  0  0  0
   -2.3885    4.6306    3.6161 C   0  0  0  0  0  0  0  0  0  0  0  0
   -2.0202    6.0119    3.3913 C   0  0  0  0  0  0  0  0  0  0  0  0
   -1.6296    6.9912    4.4323 C   0  0  0  0  0  0  0  0  0  0  0  0
   -0.3900    7.6116    4.2862 C   0  0  0  0  0  0  0  0  0  0  0  0
   -0.0006    8.6288    5.1492 C   0  0  0  0  0  0  0  0  0  0  0  0
   -0.8674    9.0300    6.1536 C   0  0  0  0  0  0  0  0  0  0  0  0
   -2.1151    8.4353    6.3048 C   0  0  0  0  0  0  0  0  0  0  0  0
   -3.0047    8.9123    7.4353 C   0  0  0  0  0  0  0  0  0  0  0  0
   -2.7437    8.0946    8.6979 C   0  0  0  0  0  0  0  0  0  0  0  0
   -2.4978    7.4261    5.4344 C   0  0  0  0  0  0  0  0  0  0  0  0
   -1.9203    6.2597    1.9887 C   0  0  0  0  0  0  0  0  0  0  0  0
   -1.2924    7.5249    1.0188 S   0  0  0  0  0  0  0  0  0  0  0  0
   -1.4712    6.6446   -0.4235 C   0  0  0  0  0  0  0  0  0  0  0  0
   -0.9562    6.5633   -1.7209 C   0  0  0  0  0  0  0  0  0  0  0  0
   -0.2135    7.4532   -2.4763 C   0  0  0  0  0  0  0  0  0  0  0  0
    0.4562    6.9873   -3.6188 C   0  0  0  0  0  0  0  0  0  0  0  0
    1.1686    7.9119   -4.3340 N   0  0  0  0  0  0  0  0  0  0  0  0
    0.8617    9.2731   -3.4578 S   0  0  0  0  0  0  0  0  0  0  0  0
   -0.0836    8.7701   -2.2082 N   0  0  0  0  0  0  0  0  0  0  0  0
    0.4148    5.6103   -3.9234 C   0  0  0  0  0  0  0  0  0  0  0  0
    1.2001    4.8218   -4.7376 C   0  0  0  0  0  0  0  0  0  0  0  0
    2.7758    4.8584   -5.4696 S   0  0  0  0  0  0  0  0  0  0  0  0
    2.8719    3.1711   -5.5709 C   0  0  0  0  0  0  0  0  0  0  0  0
    3.8574    2.2290   -6.0070 C   0  0  0  0  0  0  0  0  0  0  0  0
    5.2222    2.5924   -6.5017 C   0  0  0  0  0  0  0  0  0  0  0  0
    6.3565    1.9585   -5.9850 C   0  0  0  0  0  0  0  0  0  0  0  0
    7.6062    2.3045   -6.4472 C   0  0  0  0  0  0  0  0  0  0  0  0
    7.7578    3.2754   -7.4562 C   0  0  0  0  0  0  0  0  0  0  0  0
    6.5931    3.9262   -7.9523 C   0  0  0  0  0  0  0  0  0  0  0  0
    6.7674    5.0768   -8.9210 C   0  0  0  0  0  0  0  0  0  0  0  0
    7.0416    6.4147   -8.2019 C   0  0  0  0  0  0  0  0  0  0  0  0
    5.3340    3.5976   -7.4564 C   0  0  0  0  0  0  0  0  0  0  0  0
    3.3737    0.8718   -5.7846 C   0  0  0  0  0  0  0  0  0  0  0  0
    1.8587    0.9613   -5.0834 S   0  0  0  0  0  0  0  0  0  0  0  0
    1.7453    2.6340   -5.0140 C   0  0  0  0  0  0  0  0  0  0  0  0
    0.8404    3.5347   -4.5188 C   0  0  0  0  0  0  0  0  0  0  0  0
   -0.1184    3.4253   -3.6015 N   0  0  0  0  0  0  0  0  0  0  0  0
   -0.4118    4.6657   -3.2272 C   0  0  0  0  0  0  0  0  0  0  0  0
   -1.1698    5.2162   -2.1271 C   0  0  0  0  0  0  0  0  0  0  0  0
   -1.8966    4.5470   -1.1751 N   0  0  0  0  0  0  0  0  0  0  0  0
   -1.9892    5.4297   -0.1450 C   0  0  0  0  0  0  0  0  0  0  0  0
   -2.2433    5.2420    1.1879 C   0  0  0  0  0  0  0  0  0  0  0  0
   -2.5232    3.8866    2.0630 S   0  0  0  0  0  0  0  0  0  0  0  0
   -2.8525    3.4248   -1.3438 C   0  0  0  0  0  0  0  0  0  0  0  0
   -4.3043    3.8462   -1.1694 C   0  0  0  0  0  0  0  0  0  0  0  0
   -0.3975    2.1673   -2.9354 C   0  0  0  0  0  0  0  0  0  0  0  0
   -1.4226    1.3562   -3.7325 C   0  0  0  0  0  0  0  0  0  0  0  0
    3.8659   -0.4394   -6.3252 C   0  0  0  0  0  0  0  0  0  0  0  0
    5.3528   -1.2179   -5.8756 S   0  0  0  0  0  0  0  0  0  0  0  0
    4.8632   -2.6886   -6.5577 C   0  0  0  0  0  0  0  0  0  0  0  0
    5.1945   -4.0114   -6.6722 C   0  0  0  0  0  0  0  0  0  0  0  0
    4.1233   -4.6706   -7.1953 C   0  0  0  0  0  0  0  0  0  0  0  0
    3.0909   -3.8221   -7.3918 N   0  0  0  0  0  0  0  0  0  0  0  0
    1.7086   -4.1259   -7.7548 C   0  0  0  0  0  0  0  0  0  0  0  0
    0.9641   -4.5423   -6.4898 C   0  0  0  0  0  0  0  0  0  0  0  0
    3.5959   -2.6134   -7.0222 C   0  0  0  0  0  0  0  0  0  0  0  0
    3.0199   -1.3646   -6.9003 C   0  0  0  0  0  0  0  0  0  0  0  0
    4.2716   -6.0474   -7.3022 C   0  0  0  0  0  0  0  0  0  0  0  0
    5.5473   -6.5000   -6.8398 C   0  0  0  0  0  0  0  0  0  0  0  0
    6.4236   -5.0892   -6.3053 S   0  0  0  0  0  0  0  0  0  0  0  0
    6.1820   -7.8374   -6.6852 C   0  0  0  0  0  0  0  0  0  0  0  0
    5.6525   -9.0766   -6.5505 C   0  0  0  0  0  0  0  0  0  0  0  0
    4.3619   -9.5417   -7.0314 C   0  0  0  0  0  0  0  0  0  0  0  0
    3.6495   -9.0570   -7.9299 O   0  0  0  0  0  0  0  0  0  0  0  0
    4.1780  -10.9342   -6.5922 C   0  0  0  0  0  0  0  0  0  0  0  0
    3.1199  -11.8104   -6.9073 C   0  0  0  0  0  0  0  0  0  0  0  0
    3.1883  -13.1462   -6.4586 C   0  0  0  0  0  0  0  0  0  0  0  0
    4.3367  -13.5730   -5.7705 C   0  0  0  0  0  0  0  0  0  0  0  0
    4.4522  -15.2633   -5.2955 Cl  0  0  0  0  0  0  0  0  0  0  0  0
    5.4241  -12.7005   -5.5444 C   0  0  0  0  0  0  0  0  0  0  0  0
    5.2930  -11.3413   -5.8967 C   0  0  0  0  0  0  0  0  0  0  0  0
    6.2589  -10.2517   -5.7723 C   0  0  0  0  0  0  0  0  0  0  0  0
    7.3921  -10.2291   -4.9858 C   0  0  0  0  0  0  0  0  0  0  0  0
    8.4890   -9.2876   -5.1726 C   0  0  0  0  0  0  0  0  0  0  0  0
    9.3745   -8.5895   -5.3636 N   0  0  0  0  0  0  0  0  0  0  0  0
    7.7760  -11.2917   -4.0278 C   0  0  0  0  0  0  0  0  0  0  0  0
    8.0548  -12.1080   -3.2475 N   0  0  0  0  0  0  0  0  0  0  0  0
   -2.9418   -2.7012   10.0878 H   0  0  0  0  0  0  0  0  0  0  0  0
   -5.0651   -7.5741   10.6806 H   0  0  0  0  0  0  0  0  0  0  0  0
   -6.7477   -8.9544    9.4888 H   0  0  0  0  0  0  0  0  0  0  0  0
   -7.8401   -8.1593    7.4420 H   0  0  0  0  0  0  0  0  0  0  0  0
   -7.9482   -7.2472    5.0171 H   0  0  0  0  0  0  0  0  0  0  0  0
   -8.7976   -5.6900    4.7760 H   0  0  0  0  0  0  0  0  0  0  0  0
   -9.2124   -6.7289    6.1728 H   0  0  0  0  0  0  0  0  0  0  0  0
   -4.4929    0.2841    3.4777 H   0  0  0  0  0  0  0  0  0  0  0  0
   -4.7755   -1.1438    4.4816 H   0  0  0  0  0  0  0  0  0  0  0  0
   -6.8951   -0.2894    5.3022 H   0  0  0  0  0  0  0  0  0  0  0  0
   -6.8681   -0.0478    3.5182 H   0  0  0  0  0  0  0  0  0  0  0  0
   -6.5771    1.3346    4.6473 H   0  0  0  0  0  0  0  0  0  0  0  0
   -5.0541   -1.6864    6.9470 H   0  0  0  0  0  0  0  0  0  0  0  0
   -4.3624    2.6913    3.7252 H   0  0  0  0  0  0  0  0  0  0  0  0
    0.2832    7.3271    3.5109 H   0  0  0  0  0  0  0  0  0  0  0  0
    0.9561    9.0906    5.0374 H   0  0  0  0  0  0  0  0  0  0  0  0
   -0.5362    9.8156    6.8312 H   0  0  0  0  0  0  0  0  0  0  0  0
   -2.8192    9.9963    7.6614 H   0  0  0  0  0  0  0  0  0  0  0  0
   -4.0801    8.8394    7.1584 H   0  0  0  0  0  0  0  0  0  0  0  0
   -3.1374    8.6554    9.5913 H   0  0  0  0  0  0  0  0  0  0  0  0
   -1.6645    7.9465    8.8531 H   0  0  0  0  0  0  0  0  0  0  0  0
   -3.2517    7.1175    8.6422 H   0  0  0  0  0  0  0  0  0  0  0  0
   -3.4688    6.9708    5.5379 H   0  0  0  0  0  0  0  0  0  0  0  0
    6.2691    1.2938   -5.1821 H   0  0  0  0  0  0  0  0  0  0  0  0
    8.4653    1.8594   -6.0684 H   0  0  0  0  0  0  0  0  0  0  0  0
    8.7423    3.5702   -7.8014 H   0  0  0  0  0  0  0  0  0  0  0  0
    5.8681    5.1721   -9.5585 H   0  0  0  0  0  0  0  0  0  0  0  0
    7.6139    4.8672   -9.6361 H   0  0  0  0  0  0  0  0  0  0  0  0
    8.0165    6.8415   -8.5521 H   0  0  0  0  0  0  0  0  0  0  0  0
    6.2408    7.1338   -8.4426 H   0  0  0  0  0  0  0  0  0  0  0  0
    7.0918    6.2795   -7.0900 H   0  0  0  0  0  0  0  0  0  0  0  0
    4.4841    4.0986   -7.8650 H   0  0  0  0  0  0  0  0  0  0  0  0
   -2.6058    2.6368   -0.6317 H   0  0  0  0  0  0  0  0  0  0  0  0
   -2.7816    3.0382   -2.3783 H   0  0  0  0  0  0  0  0  0  0  0  0
   -4.4649    4.3945   -0.2006 H   0  0  0  0  0  0  0  0  0  0  0  0
   -4.9439    2.9612   -1.1869 H   0  0  0  0  0  0  0  0  0  0  0  0
   -4.5970    4.5169   -2.0205 H   0  0  0  0  0  0  0  0  0  0  0  0
    0.5358    1.5492   -2.8053 H   0  0  0  0  0  0  0  0  0  0  0  0
   -0.6983    2.2982   -1.8709 H   0  0  0  0  0  0  0  0  0  0  0  0
   -2.0319    0.7092   -3.0533 H   0  0  0  0  0  0  0  0  0  0  0  0
   -2.0940    2.0033   -4.2915 H   0  0  0  0  0  0  0  0  0  0  0  0
   -0.9111    0.6593   -4.4404 H   0  0  0  0  0  0  0  0  0  0  0  0
    1.2338   -3.2454   -8.2225 H   0  0  0  0  0  0  0  0  0  0  0  0
    1.6863   -4.9792   -8.5266 H   0  0  0  0  0  0  0  0  0  0  0  0
   -0.0990   -4.2185   -6.5894 H   0  0  0  0  0  0  0  0  0  0  0  0
    1.3999   -4.1038   -5.5794 H   0  0  0  0  0  0  0  0  0  0  0  0
    0.9817   -5.6728   -6.3645 H   0  0  0  0  0  0  0  0  0  0  0  0
    1.9897   -1.1778   -7.1451 H   0  0  0  0  0  0  0  0  0  0  0  0
    3.4918   -6.6817   -7.6384 H   0  0  0  0  0  0  0  0  0  0  0  0
    7.2369   -7.6703   -6.5131 H   0  0  0  0  0  0  0  0  0  0  0  0
    2.2809  -11.4793   -7.4411 H   0  0  0  0  0  0  0  0  0  0  0  0
    2.3536  -13.8561   -6.6174 H   0  0  0  0  0  0  0  0  0  0  0  0
    6.3110  -13.1120   -5.1309 H   0  0  0  0  0  0  0  0  0  0  0  0
  1  2  2  3
  2  3  1  0
  3  4  2  0
  3  5  1  0
  5  6  2  0
  6  7  1  0
  7  8  2  0
  8  9  1  0
  9 10  1  0
 10 11  1  0
  9 12  2  0
 12 13  1  0
 13 14  2  3
 14 15  1  0
 15 16  3  0
 14 17  1  0
 17 18  3  0
  1 19  1  0
 19 20  1  0
 20 21  1  0
 21 22  1  0
 22 23  2  0
 23 24  1  0
 24 25  1  0
 25 26  1  0
 24 27  1  0
 27 28  1  0
 23 29  1  0
 29 30  2  0
 30 31  1  0
 30 32  1  0
 32 33  2  0
 33 34  1  0
 34 35  2  0
 35 36  1  0
 36 37  2  0
 37 38  1  0
 38 39  1  0
 39 40  1  0
 38 41  2  0
 33 42  1  0
 42 43  1  0
 43 44  1  0
 44 45  1  0
 45 46  1  0
 46 47  1  0
 47 48  2  0
 48 49  1  0
 49 50  1  0
 47 51  1  0
 51 52  1  0
 52 53  1  0
 53 54  1  0
 54 55  1  0
 55 56  1  0
 56 57  2  0
 57 58  1  0
 58 59  2  0
 59 60  1  0
 60 61  1  0
 61 62  1  0
 60 63  2  0
 55 64  2  0
 64 65  1  0
 65 66  1  0
 66 67  1  0
 67 68  1  0
 68 69  1  0
 69 70  1  0
 70 71  1  0
 71 72  1  0
 72 73  1  0
 73 74  1  0
 71 75  1  0
 75 76  1  0
 68 77  1  0
 77 78  1  0
 64 79  1  0
 79 80  1  0
 80 81  1  0
 81 82  1  0
 82 83  2  0
 83 84  1  0
 84 85  1  0
 85 86  1  0
 84 87  1  0
 87 88  1  0
 83 89  1  0
 89 90  2  0
 90 91  1  0
 90 92  1  0
 92 93  2  3
 93 94  1  0
 94 95  2  0
 94 96  1  0
 96 97  2  0
 97 98  1  0
 98 99  2  0
 99100  1  0
 99101  1  0
101102  2  0
102103  1  0
103104  2  3
104105  1  0
105106  3  0
104107  1  0
107108  3  0
 13  2  1  0
 28 19  2  0
 74 32  1  0
 88 79  2  0
103 93  1  0
 12  5  1  0
 27 21  2  0
 41 34  1  0
 73 42  2  0
 87 81  2  0
102 96  1  0
 31 22  1  0
 72 44  2  0
 91 82  1  0
 70 45  2  0
 50 46  2  0
 69 51  2  0
 67 52  2  0
 66 54  2  0
 63 56  1  0
  1109  1  0
  6110  1  0
  7111  1  0
  8112  1  0
 11113  1  0
 11114  1  0
 11115  1  0
 25116  1  0
 25117  1  0
 26118  1  0
 26119  1  0
 26120  1  0
 28121  1  0
 29122  1  0
 35123  1  0
 36124  1  0
 37125  1  0
 39126  1  0
 39127  1  0
 40128  1  0
 40129  1  0
 40130  1  0
 41131  1  0
 57132  1  0
 58133  1  0
 59134  1  0
 61135  1  0
 61136  1  0
 62137  1  0
 62138  1  0
 62139  1  0
 63140  1  0
 75141  1  0
 75142  1  0
 76143  1  0
 76144  1  0
 76145  1  0
 77146  1  0
 77147  1  0
 78148  1  0
 78149  1  0
 78150  1  0
 85151  1  0
 85152  1  0
 86153  1  0
 86154  1  0
 86155  1  0
 88156  1  0
 89157  1  0
 92158  1  0
 97159  1  0
 98160  1  0
101161  1  0
M  END

