
     RDKit          3D

185205  0  0  0  0  0  0  0  0999 V2000
   -7.7980    1.1070   -3.5618 C   0  0  0  0  0  0  0  0  0  0  0  0
   -8.1934    1.8136   -2.4889 C   0  0  0  0  0  0  0  0  0  0  0  0
   -9.5786    1.7805   -2.0292 C   0  0  0  0  0  0  0  0  0  0  0  0
  -10.4029    0.8530   -2.2200 O   0  0  0  0  0  0  0  0  0  0  0  0
   -9.8618    3.0408   -1.3968 C   0  0  0  0  0  0  0  0  0  0  0  0
  -11.0928    3.5020   -0.9303 C   0  0  0  0  0  0  0  0  0  0  0  0
  -11.1749    4.8179   -0.4676 C   0  0  0  0  0  0  0  0  0  0  0  0
  -10.0497    5.6531   -0.5037 C   0  0  0  0  0  0  0  0  0  0  0  0
   -8.8053    5.1837   -0.9898 C   0  0  0  0  0  0  0  0  0  0  0  0
   -7.6876    6.0257   -1.1089 O   0  0  0  0  0  0  0  0  0  0  0  0
   -7.6837    7.4206   -0.8112 C   0  0  0  0  0  0  0  0  0  0  0  0
   -8.7206    3.8338   -1.4032 C   0  0  0  0  0  0  0  0  0  0  0  0
   -7.5645    3.0276   -1.8967 C   0  0  0  0  0  0  0  0  0  0  0  0
   -6.3977    2.9642   -1.2263 C   0  0  0  0  0  0  0  0  0  0  0  0
   -5.6860    4.1617   -0.8151 C   0  0  0  0  0  0  0  0  0  0  0  0
   -5.0864    5.1106   -0.5153 N   0  0  0  0  0  0  0  0  0  0  0  0
   -5.7066    1.7144   -0.9973 C   0  0  0  0  0  0  0  0  0  0  0  0
   -5.1398    0.7154   -0.8112 N   0  0  0  0  0  0  0  0  0  0  0  0
   -6.6675    1.4401   -4.4585 C   0  0  0  0  0  0  0  0  0  0  0  0
   -5.1640    2.1404   -4.0606 S   0  0  0  0  0  0  0  0  0  0  0  0
   -4.5630    2.0176   -5.6084 C   0  0  0  0  0  0  0  0  0  0  0  0
   -3.3259    1.8421   -6.1677 C   0  0  0  0  0  0  0  0  0  0  0  0
   -3.5288    1.1039   -7.3017 C   0  0  0  0  0  0  0  0  0  0  0  0
   -4.8431    0.8232   -7.5143 N   0  0  0  0  0  0  0  0  0  0  0  0
   -5.3684   -0.2086   -8.3977 C   0  0  0  0  0  0  0  0  0  0  0  0
   -5.2047    0.2181   -9.8556 C   0  0  0  0  0  0  0  0  0  0  0  0
   -5.4510    1.3749   -6.4276 C   0  0  0  0  0  0  0  0  0  0  0  0
   -6.6467    1.0255   -5.8029 C   0  0  0  0  0  0  0  0  0  0  0  0
   -2.4169    0.3687   -7.7149 C   0  0  0  0  0  0  0  0  0  0  0  0
   -1.3346    0.5433   -6.8347 C   0  0  0  0  0  0  0  0  0  0  0  0
   -1.7997    1.5560   -5.5396 S   0  0  0  0  0  0  0  0  0  0  0  0
   -0.0869   -0.2299   -6.8554 C   0  0  0  0  0  0  0  0  0  0  0  0
    0.0320   -1.6205   -7.0733 C   0  0  0  0  0  0  0  0  0  0  0  0
   -1.1054   -2.5406   -7.2496 C   0  0  0  0  0  0  0  0  0  0  0  0
   -1.4953   -2.9273   -8.5427 C   0  0  0  0  0  0  0  0  0  0  0  0
   -2.5992   -3.7678   -8.7190 C   0  0  0  0  0  0  0  0  0  0  0  0
   -3.3184   -4.2266   -7.6048 C   0  0  0  0  0  0  0  0  0  0  0  0
   -2.9145   -3.8673   -6.3047 C   0  0  0  0  0  0  0  0  0  0  0  0
   -3.7101   -4.3341   -5.1146 C   0  0  0  0  0  0  0  0  0  0  0  0
   -4.7271   -3.2671   -4.6975 C   0  0  0  0  0  0  0  0  0  0  0  0
   -1.8150   -3.0133   -6.1356 C   0  0  0  0  0  0  0  0  0  0  0  0
    1.3387   -2.0714   -6.8466 C   0  0  0  0  0  0  0  0  0  0  0  0
    1.9478   -3.6108   -6.4420 S   0  0  0  0  0  0  0  0  0  0  0  0
    3.4171   -2.9377   -5.9125 C   0  0  0  0  0  0  0  0  0  0  0  0
    4.2671   -3.2569   -4.8978 C   0  0  0  0  0  0  0  0  0  0  0  0
    4.5428   -4.4734   -4.2631 C   0  0  0  0  0  0  0  0  0  0  0  0
    5.3939   -4.4712   -3.1198 C   0  0  0  0  0  0  0  0  0  0  0  0
    5.6102   -5.6680   -2.5159 N   0  0  0  0  0  0  0  0  0  0  0  0
    4.6991   -6.6457   -3.4989 S   0  0  0  0  0  0  0  0  0  0  0  0
    4.0301   -5.6692   -4.6469 N   0  0  0  0  0  0  0  0  0  0  0  0
    5.8838   -3.2483   -2.6404 C   0  0  0  0  0  0  0  0  0  0  0  0
    6.4075   -2.9380   -1.4192 C   0  0  0  0  0  0  0  0  0  0  0  0
    6.4429   -3.7577    0.0702 S   0  0  0  0  0  0  0  0  0  0  0  0
    6.3740   -2.2879    0.9336 C   0  0  0  0  0  0  0  0  0  0  0  0
    6.0508   -2.0221    2.2676 C   0  0  0  0  0  0  0  0  0  0  0  0
    5.9509   -3.0737    3.2820 C   0  0  0  0  0  0  0  0  0  0  0  0
    4.7127   -3.3990    3.8568 C   0  0  0  0  0  0  0  0  0  0  0  0
    4.6198   -4.4550    4.7652 C   0  0  0  0  0  0  0  0  0  0  0  0
    5.7544   -5.1918    5.1132 C   0  0  0  0  0  0  0  0  0  0  0  0
    7.0025   -4.8660    4.5512 C   0  0  0  0  0  0  0  0  0  0  0  0
    8.2504   -5.5760    5.0060 C   0  0  0  0  0  0  0  0  0  0  0  0
    8.8614   -4.8460    6.2061 C   0  0  0  0  0  0  0  0  0  0  0  0
    7.0951   -3.8042    3.6298 C   0  0  0  0  0  0  0  0  0  0  0  0
    5.6729   -0.6717    2.4386 C   0  0  0  0  0  0  0  0  0  0  0  0
    5.7400    0.1236    0.9357 S   0  0  0  0  0  0  0  0  0  0  0  0
    6.2674   -1.2144    0.0798 C   0  0  0  0  0  0  0  0  0  0  0  0
    6.2693   -1.5873   -1.2640 C   0  0  0  0  0  0  0  0  0  0  0  0
    5.7330   -0.9876   -2.3546 N   0  0  0  0  0  0  0  0  0  0  0  0
    5.5282   -2.0231   -3.2344 C   0  0  0  0  0  0  0  0  0  0  0  0
    4.7779   -2.0389   -4.4430 C   0  0  0  0  0  0  0  0  0  0  0  0
    4.3260   -0.9829   -5.1883 N   0  0  0  0  0  0  0  0  0  0  0  0
    3.4438   -1.5771   -6.0267 C   0  0  0  0  0  0  0  0  0  0  0  0
    2.2367   -1.0858   -6.5172 C   0  0  0  0  0  0  0  0  0  0  0  0
    1.4310    0.3811   -6.3926 S   0  0  0  0  0  0  0  0  0  0  0  0
    5.2411    0.0587   -5.6696 C   0  0  0  0  0  0  0  0  0  0  0  0
    4.5556    1.4076   -5.8435 C   0  0  0  0  0  0  0  0  0  0  0  0
    5.0861    0.3344   -2.3298 C   0  0  0  0  0  0  0  0  0  0  0  0
    6.1113    1.4653   -2.3020 C   0  0  0  0  0  0  0  0  0  0  0  0
    5.0926   -0.0655    3.6605 C   0  0  0  0  0  0  0  0  0  0  0  0
    5.8257   -0.0652    4.8647 C   0  0  0  0  0  0  0  0  0  0  0  0
    7.0657   -0.6202    4.9166 F   0  0  0  0  0  0  0  0  0  0  0  0
    5.2959    0.5411    6.0108 C   0  0  0  0  0  0  0  0  0  0  0  0
    6.0360    0.5789    7.1475 F   0  0  0  0  0  0  0  0  0  0  0  0
    3.9983    1.0907    5.9992 C   0  0  0  0  0  0  0  0  0  0  0  0
    3.2672    1.1016    4.7942 C   0  0  0  0  0  0  0  0  0  0  0  0
    2.0290    1.6596    4.7287 N   0  0  0  0  0  0  0  0  0  0  0  0
    1.3113    1.7474    3.5738 C   0  0  0  0  0  0  0  0  0  0  0  0
   -0.0265    2.3545    3.6562 C   0  0  0  0  0  0  0  0  0  0  0  0
   -0.9462    2.3626    5.0707 S   0  0  0  0  0  0  0  0  0  0  0  0
   -2.1982    3.3149    4.4946 C   0  0  0  0  0  0  0  0  0  0  0  0
   -3.3072    3.8737    5.3279 C   0  0  0  0  0  0  0  0  0  0  0  0
   -2.8764    5.1898    5.9744 C   0  0  0  0  0  0  0  0  0  0  0  0
   -1.8830    3.6876    3.1911 C   0  0  0  0  0  0  0  0  0  0  0  0
   -0.6795    3.1557    2.7156 C   0  0  0  0  0  0  0  0  0  0  0  0
   -2.6465    4.5348    2.4589 F   0  0  0  0  0  0  0  0  0  0  0  0
    1.8935    1.2322    2.3942 C   0  0  0  0  0  0  0  0  0  0  0  0
    3.1133    0.6382    2.4673 N   0  0  0  0  0  0  0  0  0  0  0  0
    3.8207    0.5485    3.6271 C   0  0  0  0  0  0  0  0  0  0  0  0
    1.2850    1.3077    1.0648 C   0  0  0  0  0  0  0  0  0  0  0  0
    0.0525    0.8087    0.6731 C   0  0  0  0  0  0  0  0  0  0  0  0
   -0.1421    0.8485   -0.7126 C   0  0  0  0  0  0  0  0  0  0  0  0
   -1.2532    0.3796   -1.3247 F   0  0  0  0  0  0  0  0  0  0  0  0
    0.9522    1.3635   -1.4172 C   0  0  0  0  0  0  0  0  0  0  0  0
    1.0823    1.4829   -2.8991 C   0  0  0  0  0  0  0  0  0  0  0  0
    0.8240    2.9146   -3.3631 C   0  0  0  0  0  0  0  0  0  0  0  0
    2.1433    1.7764   -0.3093 S   0  0  0  0  0  0  0  0  0  0  0  0
    3.5281    1.8672    7.1563 C   0  0  0  0  0  0  0  0  0  0  0  0
    2.3748    1.6800    7.8314 C   0  0  0  0  0  0  0  0  0  0  0  0
    1.7152    2.8016    8.5195 C   0  0  0  0  0  0  0  0  0  0  0  0
    2.1421    3.9908    8.5862 O   0  0  0  0  0  0  0  0  0  0  0  0
    0.4544    2.3545    9.0502 C   0  0  0  0  0  0  0  0  0  0  0  0
   -0.4324    3.0640    9.8639 C   0  0  0  0  0  0  0  0  0  0  0  0
   -1.4718    2.3628   10.4784 C   0  0  0  0  0  0  0  0  0  0  0  0
   -1.5255    0.9645   10.3979 C   0  0  0  0  0  0  0  0  0  0  0  0
   -0.5914    0.2551    9.6038 C   0  0  0  0  0  0  0  0  0  0  0  0
   -0.4656   -1.1441    9.6903 O   0  0  0  0  0  0  0  0  0  0  0  0
   -1.0843   -1.9442   10.6952 C   0  0  0  0  0  0  0  0  0  0  0  0
    0.3023    0.9994    8.7988 C   0  0  0  0  0  0  0  0  0  0  0  0
    1.4135    0.5223    7.9303 C   0  0  0  0  0  0  0  0  0  0  0  0
    1.4485   -0.6776    7.3157 C   0  0  0  0  0  0  0  0  0  0  0  0
    2.6797   -1.3358    6.9470 C   0  0  0  0  0  0  0  0  0  0  0  0
    3.6525   -1.8896    6.6651 N   0  0  0  0  0  0  0  0  0  0  0  0
    0.2554   -1.4430    7.0832 C   0  0  0  0  0  0  0  0  0  0  0  0
   -0.7087   -2.0712    6.9105 N   0  0  0  0  0  0  0  0  0  0  0  0
   -8.4818    0.3537   -3.9420 H   0  0  0  0  0  0  0  0  0  0  0  0
  -11.9611    2.8612   -0.9345 H   0  0  0  0  0  0  0  0  0  0  0  0
  -12.1161    5.2115   -0.1212 H   0  0  0  0  0  0  0  0  0  0  0  0
  -10.1673    6.6724   -0.1801 H   0  0  0  0  0  0  0  0  0  0  0  0
   -8.4211    7.9430   -1.4608 H   0  0  0  0  0  0  0  0  0  0  0  0
   -7.9237    7.5769    0.2607 H   0  0  0  0  0  0  0  0  0  0  0  0
   -6.6746    7.8311   -1.0258 H   0  0  0  0  0  0  0  0  0  0  0  0
   -4.8120   -1.1625   -8.2286 H   0  0  0  0  0  0  0  0  0  0  0  0
   -6.4391   -0.4000   -8.2030 H   0  0  0  0  0  0  0  0  0  0  0  0
   -5.5036   -0.6217  -10.5163 H   0  0  0  0  0  0  0  0  0  0  0  0
   -4.1499    0.4660  -10.0627 H   0  0  0  0  0  0  0  0  0  0  0  0
   -5.8369    1.0992  -10.0837 H   0  0  0  0  0  0  0  0  0  0  0  0
   -7.4306    0.4384   -6.2646 H   0  0  0  0  0  0  0  0  0  0  0  0
   -2.4358   -0.3507   -8.5147 H   0  0  0  0  0  0  0  0  0  0  0  0
   -0.9621   -2.5641   -9.4086 H   0  0  0  0  0  0  0  0  0  0  0  0
   -2.9033   -4.0568   -9.7156 H   0  0  0  0  0  0  0  0  0  0  0  0
   -4.1843   -4.8660   -7.7665 H   0  0  0  0  0  0  0  0  0  0  0  0
   -4.2535   -5.2794   -5.3511 H   0  0  0  0  0  0  0  0  0  0  0  0
   -3.0234   -4.5393   -4.2678 H   0  0  0  0  0  0  0  0  0  0  0  0
   -5.4935   -3.1234   -5.4881 H   0  0  0  0  0  0  0  0  0  0  0  0
   -5.2462   -3.5808   -3.7690 H   0  0  0  0  0  0  0  0  0  0  0  0
   -4.2191   -2.2985   -4.5031 H   0  0  0  0  0  0  0  0  0  0  0  0
   -1.5155   -2.7152   -5.1367 H   0  0  0  0  0  0  0  0  0  0  0  0
    3.8210   -2.8591    3.5811 H   0  0  0  0  0  0  0  0  0  0  0  0
    3.6698   -4.7004    5.2114 H   0  0  0  0  0  0  0  0  0  0  0  0
    5.6847   -6.0012    5.8257 H   0  0  0  0  0  0  0  0  0  0  0  0
    8.9941   -5.6007    4.1748 H   0  0  0  0  0  0  0  0  0  0  0  0
    8.0112   -6.6240    5.2893 H   0  0  0  0  0  0  0  0  0  0  0  0
    8.1548   -4.8805    7.0615 H   0  0  0  0  0  0  0  0  0  0  0  0
    9.8049   -5.3512    6.5048 H   0  0  0  0  0  0  0  0  0  0  0  0
    9.0823   -3.7896    5.9412 H   0  0  0  0  0  0  0  0  0  0  0  0
    8.0537   -3.5439    3.1907 H   0  0  0  0  0  0  0  0  0  0  0  0
    5.6985   -0.2556   -6.6338 H   0  0  0  0  0  0  0  0  0  0  0  0
    6.0884    0.1746   -4.9606 H   0  0  0  0  0  0  0  0  0  0  0  0
    4.0095    1.4438   -6.8091 H   0  0  0  0  0  0  0  0  0  0  0  0
    3.8422    1.6220   -5.0182 H   0  0  0  0  0  0  0  0  0  0  0  0
    5.3224    2.2128   -5.8560 H   0  0  0  0  0  0  0  0  0  0  0  0
    4.3880    0.4631   -3.1699 H   0  0  0  0  0  0  0  0  0  0  0  0
    4.4387    0.4083   -1.4343 H   0  0  0  0  0  0  0  0  0  0  0  0
    5.6187    2.4280   -2.0533 H   0  0  0  0  0  0  0  0  0  0  0  0
    6.8964    1.2644   -1.5504 H   0  0  0  0  0  0  0  0  0  0  0  0
    6.5905    1.5803   -3.2896 H   0  0  0  0  0  0  0  0  0  0  0  0
   -4.1966    4.0509    4.6990 H   0  0  0  0  0  0  0  0  0  0  0  0
   -3.5802    3.1477    6.1268 H   0  0  0  0  0  0  0  0  0  0  0  0
   -2.6749    5.9490    5.1889 H   0  0  0  0  0  0  0  0  0  0  0  0
   -1.9583    5.0420    6.5732 H   0  0  0  0  0  0  0  0  0  0  0  0
   -3.6815    5.5566    6.6329 H   0  0  0  0  0  0  0  0  0  0  0  0
   -0.2817    3.4001    1.7398 H   0  0  0  0  0  0  0  0  0  0  0  0
   -0.6727    0.4041    1.3620 H   0  0  0  0  0  0  0  0  0  0  0  0
    0.3739    0.7928   -3.4046 H   0  0  0  0  0  0  0  0  0  0  0  0
    2.1176    1.1923   -3.1985 H   0  0  0  0  0  0  0  0  0  0  0  0
   -0.1889    3.2520   -3.0502 H   0  0  0  0  0  0  0  0  0  0  0  0
    0.8779    2.9481   -4.4719 H   0  0  0  0  0  0  0  0  0  0  0  0
    1.5936    3.5959   -2.9438 H   0  0  0  0  0  0  0  0  0  0  0  0
    4.0742    2.7958    7.3081 H   0  0  0  0  0  0  0  0  0  0  0  0
   -0.3073    4.1257   10.0377 H   0  0  0  0  0  0  0  0  0  0  0  0
   -2.1849    2.8972   11.1014 H   0  0  0  0  0  0  0  0  0  0  0  0
   -2.2823    0.4406   10.9747 H   0  0  0  0  0  0  0  0  0  0  0  0
   -0.6751   -2.9755   10.6341 H   0  0  0  0  0  0  0  0  0  0  0  0
   -0.8665   -1.5307   11.7019 H   0  0  0  0  0  0  0  0  0  0  0  0
   -2.1791   -1.9865   10.5262 H   0  0  0  0  0  0  0  0  0  0  0  0
  1  2  2  3
  2  3  1  0
  3  4  2  0
  3  5  1  0
  5  6  2  0
  6  7  1  0
  7  8  2  0
  8  9  1  0
  9 10  1  0
 10 11  1  0
  9 12  2  0
 12 13  1  0
 13 14  2  3
 14 15  1  0
 15 16  3  0
 14 17  1  0
 17 18  3  0
  1 19  1  0
 19 20  1  0
 20 21  1  0
 21 22  1  0
 22 23  2  0
 23 24  1  0
 24 25  1  0
 25 26  1  0
 24 27  1  0
 27 28  1  0
 23 29  1  0
 29 30  2  0
 30 31  1  0
 30 32  1  0
 32 33  2  0
 33 34  1  0
 34 35  2  0
 35 36  1  0
 36 37  2  0
 37 38  1  0
 38 39  1  0
 39 40  1  0
 38 41  2  0
 33 42  1  0
 42 43  1  0
 43 44  1  0
 44 45  1  0
 45 46  1  0
 46 47  1  0
 47 48  2  0
 48 49  1  0
 49 50  1  0
 47 51  1  0
 51 52  1  0
 52 53  1  0
 53 54  1  0
 54 55  1  0
 55 56  1  0
 56 57  2  0
 57 58  1  0
 58 59  2  0
 59 60  1  0
 60 61  1  0
 61 62  1  0
 60 63  2  0
 55 64  2  0
 64 65  1  0
 65 66  1  0
 66 67  1  0
 67 68  1  0
 68 69  1  0
 69 70  1  0
 70 71  1  0
 71 72  1  0
 72 73  1  0
 73 74  1  0
 71 75  1  0
 75 76  1  0
 68 77  1  0
 77 78  1  0
 64 79  1  0
 79 80  2  0
 80 81  1  0
 80 82  1  0
 82 83  1  0
 82 84  2  0
 84 85  1  0
 85 86  2  0
 86 87  1  0
 87 88  1  0
 88 89  1  0
 89 90  1  0
 90 91  1  0
 91 92  1  0
 90 93  2  0
 93 94  1  0
 93 95  1  0
 87 96  2  0
 96 97  1  0
 97 98  2  0
 96 99  1  0
 99100  2  0
100101  1  0
101102  1  0
101103  2  0
103104  1  0
104105  1  0
103106  1  0
 84107  1  0
107108  2  3
108109  1  0
109110  2  0
109111  1  0
111112  2  0
112113  1  0
113114  2  0
114115  1  0
115116  1  0
116117  1  0
115118  2  0
118119  1  0
119120  2  3
120121  1  0
121122  3  0
120123  1  0
123124  3  0
 13  2  1  0
 28 19  2  0
 74 32  1  0
 98 79  1  0
106 99  1  0
119108  1  0
 12  5  1  0
 27 21  2  0
 41 34  1  0
 73 42  2  0
 98 85  1  0
118111  1  0
 31 22  1  0
 72 44  2  0
 94 88  2  0
 70 45  2  0
 50 46  2  0
 69 51  2  0
 67 52  2  0
 66 54  2  0
 63 56  1  0
  1125  1  0
  6126  1  0
  7127  1  0
  8128  1  0
 11129  1  0
 11130  1  0
 11131  1  0
 25132  1  0
 25133  1  0
 26134  1  0
 26135  1  0
 26136  1  0
 28137  1  0
 29138  1  0
 35139  1  0
 36140  1  0
 37141  1  0
 39142  1  0
 39143  1  0
 40144  1  0
 40145  1  0
 40146  1  0
 41147  1  0
 57148  1  0
 58149  1  0
 59150  1  0
 61151  1  0
 61152  1  0
 62153  1  0
 62154  1  0
 62155  1  0
 63156  1  0
 75157  1  0
 75158  1  0
 76159  1  0
 76160  1  0
 76161  1  0
 77162  1  0
 77163  1  0
 78164  1  0
 78165  1  0
 78166  1  0
 91167  1  0
 91168  1  0
 92169  1  0
 92170  1  0
 92171  1  0
 94172  1  0
100173  1  0
104174  1  0
104175  1  0
105176  1  0
105177  1  0
105178  1  0
107179  1  0
112180  1  0
113181  1  0
114182  1  0
117183  1  0
117184  1  0
117185  1  0
M  END

