
     RDKit          3D

146163  0  0  0  0  0  0  0  0999 V2000
    6.9827   -4.9772  -11.2819 C   0  0  0  0  0  0  0  0  0  0  0  0
    8.1991   -5.3390  -11.7265 C   0  0  0  0  0  0  0  0  0  0  0  0
    9.4686   -4.6288  -11.5013 C   0  0  0  0  0  0  0  0  0  0  0  0
    9.6529   -3.6376  -10.7497 O   0  0  0  0  0  0  0  0  0  0  0  0
   10.4392   -5.1236  -12.4553 C   0  0  0  0  0  0  0  0  0  0  0  0
   11.7292   -4.6512  -12.6870 C   0  0  0  0  0  0  0  0  0  0  0  0
   12.4341   -5.1492  -13.7900 C   0  0  0  0  0  0  0  0  0  0  0  0
   11.8172   -6.0496  -14.6763 C   0  0  0  0  0  0  0  0  0  0  0  0
   10.4906   -6.4867  -14.4524 C   0  0  0  0  0  0  0  0  0  0  0  0
    9.7880   -7.2433  -15.4018 O   0  0  0  0  0  0  0  0  0  0  0  0
   10.3315   -7.6948  -16.6353 C   0  0  0  0  0  0  0  0  0  0  0  0
    9.8500   -6.0792  -13.2655 C   0  0  0  0  0  0  0  0  0  0  0  0
    8.4837   -6.3818  -12.7551 C   0  0  0  0  0  0  0  0  0  0  0  0
    7.8449   -7.5784  -12.8518 C   0  0  0  0  0  0  0  0  0  0  0  0
    8.4470   -8.7171  -13.4977 C   0  0  0  0  0  0  0  0  0  0  0  0
    8.9296   -9.6415  -13.9982 N   0  0  0  0  0  0  0  0  0  0  0  0
    6.6454   -7.8684  -12.1105 C   0  0  0  0  0  0  0  0  0  0  0  0
    5.6819   -8.1075  -11.5163 N   0  0  0  0  0  0  0  0  0  0  0  0
    6.7382   -4.0691  -10.1496 C   0  0  0  0  0  0  0  0  0  0  0  0
    7.6324   -4.0661   -8.6809 S   0  0  0  0  0  0  0  0  0  0  0  0
    6.6221   -2.9380   -7.9883 C   0  0  0  0  0  0  0  0  0  0  0  0
    6.4486   -2.2226   -6.8440 C   0  0  0  0  0  0  0  0  0  0  0  0
    5.3311   -1.4805   -7.0238 C   0  0  0  0  0  0  0  0  0  0  0  0
    4.7732   -1.6788   -8.2468 N   0  0  0  0  0  0  0  0  0  0  0  0
    3.5417   -1.1042   -8.7854 C   0  0  0  0  0  0  0  0  0  0  0  0
    2.3280   -1.8689   -8.2694 C   0  0  0  0  0  0  0  0  0  0  0  0
    5.6049   -2.5917   -8.8134 C   0  0  0  0  0  0  0  0  0  0  0  0
    5.6159   -3.2256  -10.0518 C   0  0  0  0  0  0  0  0  0  0  0  0
    4.9930   -0.6651   -5.9502 C   0  0  0  0  0  0  0  0  0  0  0  0
    5.9400   -0.8030   -4.9114 C   0  0  0  0  0  0  0  0  0  0  0  0
    7.1385   -1.9528   -5.3528 S   0  0  0  0  0  0  0  0  0  0  0  0
    5.8540   -0.0919   -3.6157 C   0  0  0  0  0  0  0  0  0  0  0  0
    6.8715    0.1141   -2.6492 C   0  0  0  0  0  0  0  0  0  0  0  0
    8.3141   -0.3123   -2.7538 C   0  0  0  0  0  0  0  0  0  0  0  0
    9.0765    0.5622   -3.7454 C   0  0  0  0  0  0  0  0  0  0  0  0
    6.3680    0.8025   -1.5406 C   0  0  0  0  0  0  0  0  0  0  0  0
    7.0098    1.1314   -0.0010 S   0  0  0  0  0  0  0  0  0  0  0  0
    5.5201    1.7421    0.5360 C   0  0  0  0  0  0  0  0  0  0  0  0
    4.8974    1.7984    1.7484 C   0  0  0  0  0  0  0  0  0  0  0  0
    5.4089    1.5029    3.0188 C   0  0  0  0  0  0  0  0  0  0  0  0
    4.5001    1.2734    4.0882 C   0  0  0  0  0  0  0  0  0  0  0  0
    5.0318    0.9732    5.2989 N   0  0  0  0  0  0  0  0  0  0  0  0
    6.6417    0.9949    4.9081 S   0  0  0  0  0  0  0  0  0  0  0  0
    6.7301    1.3710    3.2986 N   0  0  0  0  0  0  0  0  0  0  0  0
    3.1328    1.3836    3.8361 C   0  0  0  0  0  0  0  0  0  0  0  0
    2.0707    1.3673    4.6881 C   0  0  0  0  0  0  0  0  0  0  0  0
    1.7861    1.2154    6.3542 S   0  0  0  0  0  0  0  0  0  0  0  0
    0.1723    1.7099    6.1257 C   0  0  0  0  0  0  0  0  0  0  0  0
   -0.8812    1.9157    7.0052 C   0  0  0  0  0  0  0  0  0  0  0  0
   -0.7876    1.6403    8.3740 O   0  0  0  0  0  0  0  0  0  0  0  0
   -1.1169    2.5926    9.3861 C   0  0  0  0  0  0  0  0  0  0  0  0
   -0.0658    3.6965    9.4283 C   0  0  0  0  0  0  0  0  0  0  0  0
   -2.0123    2.4213    6.3413 C   0  0  0  0  0  0  0  0  0  0  0  0
   -1.6625    2.6148    4.6815 S   0  0  0  0  0  0  0  0  0  0  0  0
   -0.0947    2.0301    4.8192 C   0  0  0  0  0  0  0  0  0  0  0  0
    0.9911    1.7886    3.9879 C   0  0  0  0  0  0  0  0  0  0  0  0
    1.2741    2.0498    2.6872 N   0  0  0  0  0  0  0  0  0  0  0  0
    2.6118    1.7372    2.5785 C   0  0  0  0  0  0  0  0  0  0  0  0
    3.5148    1.8497    1.4784 C   0  0  0  0  0  0  0  0  0  0  0  0
    3.2959    1.6988    0.1265 N   0  0  0  0  0  0  0  0  0  0  0  0
    4.5448    1.6587   -0.4083 C   0  0  0  0  0  0  0  0  0  0  0  0
    5.0364    1.1193   -1.5963 C   0  0  0  0  0  0  0  0  0  0  0  0
    4.3898    0.5639   -3.0355 S   0  0  0  0  0  0  0  0  0  0  0  0
    2.1180    1.1407   -0.5531 C   0  0  0  0  0  0  0  0  0  0  0  0
    1.9555   -0.3410   -0.2333 C   0  0  0  0  0  0  0  0  0  0  0  0
    0.4610    2.9155    1.8290 C   0  0  0  0  0  0  0  0  0  0  0  0
   -0.7465    2.1580    1.2652 C   0  0  0  0  0  0  0  0  0  0  0  0
   -3.3575    2.5307    6.9108 C   0  0  0  0  0  0  0  0  0  0  0  0
   -4.3894    3.8931    6.7428 S   0  0  0  0  0  0  0  0  0  0  0  0
   -5.5879    3.1744    7.6687 C   0  0  0  0  0  0  0  0  0  0  0  0
   -6.8278    3.4050    8.1988 C   0  0  0  0  0  0  0  0  0  0  0  0
   -7.1531    2.2844    8.8921 C   0  0  0  0  0  0  0  0  0  0  0  0
   -6.1722    1.3490    8.8579 N   0  0  0  0  0  0  0  0  0  0  0  0
   -6.1697    0.0168    9.4565 C   0  0  0  0  0  0  0  0  0  0  0  0
   -6.9714   -0.9496    8.5929 C   0  0  0  0  0  0  0  0  0  0  0  0
   -5.2240    1.9352    8.0865 C   0  0  0  0  0  0  0  0  0  0  0  0
   -3.9625    1.5250    7.6843 C   0  0  0  0  0  0  0  0  0  0  0  0
   -8.3670    2.3351    9.5586 C   0  0  0  0  0  0  0  0  0  0  0  0
   -8.9850    3.5791    9.3402 C   0  0  0  0  0  0  0  0  0  0  0  0
   -7.9991    4.5916    8.3666 S   0  0  0  0  0  0  0  0  0  0  0  0
  -10.2072    4.0221   10.0256 C   0  0  0  0  0  0  0  0  0  0  0  0
  -11.3447    3.2991   10.0408 C   0  0  0  0  0  0  0  0  0  0  0  0
  -11.6254    2.1532    9.1617 C   0  0  0  0  0  0  0  0  0  0  0  0
  -10.9123    1.7504    8.2031 O   0  0  0  0  0  0  0  0  0  0  0  0
  -12.8987    1.5852    9.5361 C   0  0  0  0  0  0  0  0  0  0  0  0
  -13.4924    0.4263    9.0390 C   0  0  0  0  0  0  0  0  0  0  0  0
  -14.6501   -0.0475    9.6629 C   0  0  0  0  0  0  0  0  0  0  0  0
  -15.1454    0.5917   10.8112 C   0  0  0  0  0  0  0  0  0  0  0  0
  -14.5058    1.7448   11.3298 C   0  0  0  0  0  0  0  0  0  0  0  0
  -14.8619    2.2835   12.5741 O   0  0  0  0  0  0  0  0  0  0  0  0
  -15.8639    1.7439   13.4303 C   0  0  0  0  0  0  0  0  0  0  0  0
  -13.4364    2.3009   10.5930 C   0  0  0  0  0  0  0  0  0  0  0  0
  -12.5763    3.4910   10.8760 C   0  0  0  0  0  0  0  0  0  0  0  0
  -12.9571    4.6090   11.5496 C   0  0  0  0  0  0  0  0  0  0  0  0
  -12.0562    5.6777   11.8879 C   0  0  0  0  0  0  0  0  0  0  0  0
  -11.3435    6.5436   12.1817 N   0  0  0  0  0  0  0  0  0  0  0  0
  -14.3352    4.8677   11.8759 C   0  0  0  0  0  0  0  0  0  0  0  0
  -15.4421    5.0896   12.1367 N   0  0  0  0  0  0  0  0  0  0  0  0
    6.1020   -5.3836  -11.7617 H   0  0  0  0  0  0  0  0  0  0  0  0
   12.1712   -3.8999  -12.0452 H   0  0  0  0  0  0  0  0  0  0  0  0
   13.4422   -4.8023  -13.9818 H   0  0  0  0  0  0  0  0  0  0  0  0
   12.3694   -6.3675  -15.5489 H   0  0  0  0  0  0  0  0  0  0  0  0
    9.5439   -8.2328  -17.2019 H   0  0  0  0  0  0  0  0  0  0  0  0
   10.6758   -6.8301  -17.2411 H   0  0  0  0  0  0  0  0  0  0  0  0
   11.1769   -8.3917  -16.4472 H   0  0  0  0  0  0  0  0  0  0  0  0
    3.5600   -1.1365   -9.8973 H   0  0  0  0  0  0  0  0  0  0  0  0
    3.4632   -0.0365   -8.4802 H   0  0  0  0  0  0  0  0  0  0  0  0
    1.4032   -1.4487   -8.7200 H   0  0  0  0  0  0  0  0  0  0  0  0
    2.2600   -1.7707   -7.1668 H   0  0  0  0  0  0  0  0  0  0  0  0
    2.4041   -2.9417   -8.5426 H   0  0  0  0  0  0  0  0  0  0  0  0
    4.8721   -3.0890  -10.8275 H   0  0  0  0  0  0  0  0  0  0  0  0
    4.1325   -0.0104   -5.9288 H   0  0  0  0  0  0  0  0  0  0  0  0
    8.3839   -1.3801   -3.0354 H   0  0  0  0  0  0  0  0  0  0  0  0
    8.8084   -0.2273   -1.7634 H   0  0  0  0  0  0  0  0  0  0  0  0
   10.1292    0.2169   -3.8068 H   0  0  0  0  0  0  0  0  0  0  0  0
    9.0653    1.6211   -3.4106 H   0  0  0  0  0  0  0  0  0  0  0  0
    8.6254    0.5000   -4.7577 H   0  0  0  0  0  0  0  0  0  0  0  0
   -2.1193    3.0364    9.2150 H   0  0  0  0  0  0  0  0  0  0  0  0
   -1.1320    2.0728   10.3665 H   0  0  0  0  0  0  0  0  0  0  0  0
    0.9393    3.2495    9.5938 H   0  0  0  0  0  0  0  0  0  0  0  0
   -0.2920    4.4010   10.2551 H   0  0  0  0  0  0  0  0  0  0  0  0
   -0.0625    4.2584    8.4709 H   0  0  0  0  0  0  0  0  0  0  0  0
    1.2113    1.6832   -0.3074 H   0  0  0  0  0  0  0  0  0  0  0  0
    2.2058    1.2722   -1.6484 H   0  0  0  0  0  0  0  0  0  0  0  0
    1.8034   -0.4875    0.8570 H   0  0  0  0  0  0  0  0  0  0  0  0
    2.8556   -0.9065   -0.5595 H   0  0  0  0  0  0  0  0  0  0  0  0
    1.0696   -0.7418   -0.7729 H   0  0  0  0  0  0  0  0  0  0  0  0
    1.0817    3.3541    1.0216 H   0  0  0  0  0  0  0  0  0  0  0  0
    0.0951    3.7867    2.4179 H   0  0  0  0  0  0  0  0  0  0  0  0
   -0.4906    1.0988    1.0467 H   0  0  0  0  0  0  0  0  0  0  0  0
   -1.0925    2.6491    0.3308 H   0  0  0  0  0  0  0  0  0  0  0  0
   -1.5903    2.1596    1.9829 H   0  0  0  0  0  0  0  0  0  0  0  0
   -6.6165    0.0646   10.4736 H   0  0  0  0  0  0  0  0  0  0  0  0
   -5.1276   -0.3542    9.5584 H   0  0  0  0  0  0  0  0  0  0  0  0
   -6.5259   -1.0138    7.5764 H   0  0  0  0  0  0  0  0  0  0  0  0
   -8.0244   -0.6053    8.5120 H   0  0  0  0  0  0  0  0  0  0  0  0
   -6.9593   -1.9609    9.0561 H   0  0  0  0  0  0  0  0  0  0  0  0
   -3.5066    0.5760    7.9356 H   0  0  0  0  0  0  0  0  0  0  0  0
   -8.7600    1.5491   10.1922 H   0  0  0  0  0  0  0  0  0  0  0  0
  -10.1057    4.9278   10.5892 H   0  0  0  0  0  0  0  0  0  0  0  0
  -13.0588   -0.1110    8.2045 H   0  0  0  0  0  0  0  0  0  0  0  0
  -15.1324   -0.9425    9.2922 H   0  0  0  0  0  0  0  0  0  0  0  0
  -15.9983    0.1536   11.3114 H   0  0  0  0  0  0  0  0  0  0  0  0
  -15.6068    0.6984   13.7061 H   0  0  0  0  0  0  0  0  0  0  0  0
  -16.8518    1.7753   12.9256 H   0  0  0  0  0  0  0  0  0  0  0  0
  -15.9160    2.3548   14.3547 H   0  0  0  0  0  0  0  0  0  0  0  0
  1  2  2  3
  2  3  1  0
  3  4  2  0
  3  5  1  0
  5  6  2  0
  6  7  1  0
  7  8  2  0
  8  9  1  0
  9 10  1  0
 10 11  1  0
  9 12  2  0
 12 13  1  0
 13 14  2  3
 14 15  1  0
 15 16  3  0
 14 17  1  0
 17 18  3  0
  1 19  1  0
 19 20  1  0
 20 21  1  0
 21 22  1  0
 22 23  2  0
 23 24  1  0
 24 25  1  0
 25 26  1  0
 24 27  1  0
 27 28  1  0
 23 29  1  0
 29 30  2  0
 30 31  1  0
 30 32  1  0
 32 33  2  0
 33 34  1  0
 34 35  1  0
 33 36  1  0
 36 37  1  0
 37 38  1  0
 38 39  1  0
 39 40  1  0
 40 41  1  0
 41 42  2  0
 42 43  1  0
 43 44  1  0
 41 45  1  0
 45 46  1  0
 46 47  1  0
 47 48  1  0
 48 49  1  0
 49 50  1  0
 50 51  1  0
 51 52  1  0
 49 53  2  0
 53 54  1  0
 54 55  1  0
 55 56  1  0
 56 57  1  0
 57 58  1  0
 58 59  1  0
 59 60  1  0
 60 61  1  0
 61 62  1  0
 62 63  1  0
 60 64  1  0
 64 65  1  0
 57 66  1  0
 66 67  1  0
 53 68  1  0
 68 69  1  0
 69 70  1  0
 70 71  1  0
 71 72  2  0
 72 73  1  0
 73 74  1  0
 74 75  1  0
 73 76  1  0
 76 77  1  0
 72 78  1  0
 78 79  2  0
 79 80  1  0
 79 81  1  0
 81 82  2  3
 82 83  1  0
 83 84  2  0
 83 85  1  0
 85 86  2  0
 86 87  1  0
 87 88  2  0
 88 89  1  0
 89 90  1  0
 90 91  1  0
 89 92  2  0
 92 93  1  0
 93 94  2  3
 94 95  1  0
 95 96  3  0
 94 97  1  0
 97 98  3  0
 13  2  1  0
 28 19  2  0
 63 32  1  0
 77 68  2  0
 93 82  1  0
 12  5  1  0
 27 21  2  0
 62 36  2  0
 76 70  2  0
 92 85  1  0
 31 22  1  0
 61 38  2  0
 80 71  1  0
 59 39  2  0
 44 40  2  0
 58 45  2  0
 56 46  2  0
 55 48  2  0
  1 99  1  0
  6100  1  0
  7101  1  0
  8102  1  0
 11103  1  0
 11104  1  0
 11105  1  0
 25106  1  0
 25107  1  0
 26108  1  0
 26109  1  0
 26110  1  0
 28111  1  0
 29112  1  0
 34113  1  0
 34114  1  0
 35115  1  0
 35116  1  0
 35117  1  0
 51118  1  0
 51119  1  0
 52120  1  0
 52121  1  0
 52122  1  0
 64123  1  0
 64124  1  0
 65125  1  0
 65126  1  0
 65127  1  0
 66128  1  0
 66129  1  0
 67130  1  0
 67131  1  0
 67132  1  0
 74133  1  0
 74134  1  0
 75135  1  0
 75136  1  0
 75137  1  0
 77138  1  0
 78139  1  0
 81140  1  0
 86141  1  0
 87142  1  0
 88143  1  0
 91144  1  0
 91145  1  0
 91146  1  0
M  END

