
     RDKit          3D

186205  0  0  0  0  0  0  0  0999 V2000
   -7.1645   -1.3691   -3.7312 C   0  0  0  0  0  0  0  0  0  0  0  0
   -6.5949   -1.6162   -4.9243 C   0  0  0  0  0  0  0  0  0  0  0  0
   -7.0353   -2.7203   -5.7858 C   0  0  0  0  0  0  0  0  0  0  0  0
   -7.7457   -3.6932   -5.4261 O   0  0  0  0  0  0  0  0  0  0  0  0
   -6.6098   -2.4518   -7.1418 C   0  0  0  0  0  0  0  0  0  0  0  0
   -6.6817   -3.3048   -8.2439 C   0  0  0  0  0  0  0  0  0  0  0  0
   -6.0323   -2.9281   -9.4217 C   0  0  0  0  0  0  0  0  0  0  0  0
   -5.2832   -1.7433   -9.4664 C   0  0  0  0  0  0  0  0  0  0  0  0
   -5.1911   -0.9035   -8.3301 C   0  0  0  0  0  0  0  0  0  0  0  0
   -4.3054    0.1797   -8.2898 O   0  0  0  0  0  0  0  0  0  0  0  0
   -3.3672    0.5064   -9.3071 C   0  0  0  0  0  0  0  0  0  0  0  0
   -5.9662   -1.2281   -7.1977 C   0  0  0  0  0  0  0  0  0  0  0  0
   -6.0391   -0.5869   -5.8541 C   0  0  0  0  0  0  0  0  0  0  0  0
   -5.7123    0.6896   -5.5233 C   0  0  0  0  0  0  0  0  0  0  0  0
   -5.5274    1.0948   -4.1507 C   0  0  0  0  0  0  0  0  0  0  0  0
   -5.3728    1.4210   -3.0490 N   0  0  0  0  0  0  0  0  0  0  0  0
   -5.6146    1.7433   -6.5028 C   0  0  0  0  0  0  0  0  0  0  0  0
   -5.5374    2.6055   -7.2760 N   0  0  0  0  0  0  0  0  0  0  0  0
   -6.8293   -2.1182   -2.4790 C   0  0  0  0  0  0  0  0  0  0  0  0
   -7.1360   -1.4840   -1.2516 C   0  0  0  0  0  0  0  0  0  0  0  0
   -7.8754   -0.3425   -1.2243 F   0  0  0  0  0  0  0  0  0  0  0  0
   -6.5946   -1.9438   -0.0466 C   0  0  0  0  0  0  0  0  0  0  0  0
   -6.7407   -1.1922    1.0703 F   0  0  0  0  0  0  0  0  0  0  0  0
   -5.7993   -3.0916   -0.0247 C   0  0  0  0  0  0  0  0  0  0  0  0
   -5.6128   -3.8176   -1.2035 C   0  0  0  0  0  0  0  0  0  0  0  0
   -4.8822   -4.9594   -1.1852 N   0  0  0  0  0  0  0  0  0  0  0  0
   -4.5621   -5.6490   -2.3060 C   0  0  0  0  0  0  0  0  0  0  0  0
   -3.6843   -6.8206   -2.1496 C   0  0  0  0  0  0  0  0  0  0  0  0
   -2.2313   -7.0781   -2.9697 S   0  0  0  0  0  0  0  0  0  0  0  0
   -1.7329   -8.3823   -2.0260 C   0  0  0  0  0  0  0  0  0  0  0  0
   -0.4016   -9.0645   -2.1268 C   0  0  0  0  0  0  0  0  0  0  0  0
    0.6833   -8.2289   -1.4507 C   0  0  0  0  0  0  0  0  0  0  0  0
   -2.6810   -8.5996   -1.0355 C   0  0  0  0  0  0  0  0  0  0  0  0
   -3.7697   -7.7239   -1.0993 C   0  0  0  0  0  0  0  0  0  0  0  0
   -2.5509   -9.5410   -0.0658 F   0  0  0  0  0  0  0  0  0  0  0  0
   -4.9895   -5.1395   -3.5508 C   0  0  0  0  0  0  0  0  0  0  0  0
   -5.7173   -3.9903   -3.5667 N   0  0  0  0  0  0  0  0  0  0  0  0
   -6.0748   -3.3206   -2.4368 C   0  0  0  0  0  0  0  0  0  0  0  0
   -4.6966   -5.8071   -4.8270 C   0  0  0  0  0  0  0  0  0  0  0  0
   -4.7956   -7.1690   -5.0958 C   0  0  0  0  0  0  0  0  0  0  0  0
   -4.4486   -7.4921   -6.4128 C   0  0  0  0  0  0  0  0  0  0  0  0
   -4.4204   -8.7673   -6.8762 F   0  0  0  0  0  0  0  0  0  0  0  0
   -4.0972   -6.3899   -7.1853 C   0  0  0  0  0  0  0  0  0  0  0  0
   -3.5525   -6.4321   -8.5834 C   0  0  0  0  0  0  0  0  0  0  0  0
   -2.0322   -6.5595   -8.5621 C   0  0  0  0  0  0  0  0  0  0  0  0
   -4.1950   -5.0118   -6.2247 S   0  0  0  0  0  0  0  0  0  0  0  0
   -4.8607   -3.3217    1.0898 C   0  0  0  0  0  0  0  0  0  0  0  0
   -5.1373   -3.7186    2.4144 C   0  0  0  0  0  0  0  0  0  0  0  0
   -6.5000   -3.9845    2.9884 C   0  0  0  0  0  0  0  0  0  0  0  0
   -6.9133   -2.8950    3.9715 C   0  0  0  0  0  0  0  0  0  0  0  0
   -3.9388   -3.9009    3.1220 C   0  0  0  0  0  0  0  0  0  0  0  0
   -3.5571   -4.2564    4.7468 S   0  0  0  0  0  0  0  0  0  0  0  0
   -1.8905   -4.1339    4.4231 C   0  0  0  0  0  0  0  0  0  0  0  0
   -0.7394   -3.8907    5.1244 C   0  0  0  0  0  0  0  0  0  0  0  0
   -0.5242   -3.6943    6.4924 C   0  0  0  0  0  0  0  0  0  0  0  0
    0.7236   -3.1412    6.9184 C   0  0  0  0  0  0  0  0  0  0  0  0
    0.8818   -2.9274    8.2477 N   0  0  0  0  0  0  0  0  0  0  0  0
   -0.5964   -3.4442    8.7855 S   0  0  0  0  0  0  0  0  0  0  0  0
   -1.4478   -3.9371    7.4545 N   0  0  0  0  0  0  0  0  0  0  0  0
    1.7055   -2.8773    5.9540 C   0  0  0  0  0  0  0  0  0  0  0  0
    2.9522   -2.3411    6.0527 C   0  0  0  0  0  0  0  0  0  0  0  0
    3.5191   -1.1000    7.0406 S   0  0  0  0  0  0  0  0  0  0  0  0
    4.5299   -0.4891    5.8222 C   0  0  0  0  0  0  0  0  0  0  0  0
    5.0278    0.8067    5.6463 C   0  0  0  0  0  0  0  0  0  0  0  0
    5.0638    1.7725    6.6571 O   0  0  0  0  0  0  0  0  0  0  0  0
    5.9323    1.6958    7.7869 C   0  0  0  0  0  0  0  0  0  0  0  0
    5.2741    0.9818    8.9640 C   0  0  0  0  0  0  0  0  0  0  0  0
    5.2942    1.0967    4.2922 C   0  0  0  0  0  0  0  0  0  0  0  0
    4.8424   -0.2623    3.3713 S   0  0  0  0  0  0  0  0  0  0  0  0
    4.3703   -1.2187    4.6621 C   0  0  0  0  0  0  0  0  0  0  0  0
    3.4643   -2.2793    4.7771 C   0  0  0  0  0  0  0  0  0  0  0  0
    2.5918   -2.7609    3.8482 N   0  0  0  0  0  0  0  0  0  0  0  0
    1.4860   -3.0688    4.5927 C   0  0  0  0  0  0  0  0  0  0  0  0
    0.2088   -3.4937    4.1617 C   0  0  0  0  0  0  0  0  0  0  0  0
   -0.3726   -3.3446    2.9289 N   0  0  0  0  0  0  0  0  0  0  0  0
   -1.6377   -3.7980    3.1314 C   0  0  0  0  0  0  0  0  0  0  0  0
   -2.8031   -3.6541    2.4025 C   0  0  0  0  0  0  0  0  0  0  0  0
   -3.1778   -3.1962    0.8474 S   0  0  0  0  0  0  0  0  0  0  0  0
   -0.0313   -2.3364    1.9151 C   0  0  0  0  0  0  0  0  0  0  0  0
   -0.6114   -0.9705    2.2871 C   0  0  0  0  0  0  0  0  0  0  0  0
    3.0277   -3.6182    2.7249 C   0  0  0  0  0  0  0  0  0  0  0  0
    3.8223   -2.8594    1.6712 C   0  0  0  0  0  0  0  0  0  0  0  0
    5.5192    2.4696    3.7429 C   0  0  0  0  0  0  0  0  0  0  0  0
    6.3413    3.3812    4.4349 C   0  0  0  0  0  0  0  0  0  0  0  0
    7.1671    2.9539    5.4219 F   0  0  0  0  0  0  0  0  0  0  0  0
    6.3158    4.7444    4.1226 C   0  0  0  0  0  0  0  0  0  0  0  0
    7.0350    5.6144    4.8747 F   0  0  0  0  0  0  0  0  0  0  0  0
    5.5039    5.2205    3.0808 C   0  0  0  0  0  0  0  0  0  0  0  0
    4.7818    4.3055    2.3002 C   0  0  0  0  0  0  0  0  0  0  0  0
    4.0502    4.7328    1.2339 N   0  0  0  0  0  0  0  0  0  0  0  0
    3.3818    3.8648    0.4338 C   0  0  0  0  0  0  0  0  0  0  0  0
    2.6584    4.3710   -0.7356 C   0  0  0  0  0  0  0  0  0  0  0  0
    1.0671    4.9133   -0.7179 S   0  0  0  0  0  0  0  0  0  0  0  0
    0.9253    5.0815   -2.3870 C   0  0  0  0  0  0  0  0  0  0  0  0
   -0.3426    5.4071   -3.1140 C   0  0  0  0  0  0  0  0  0  0  0  0
   -1.1315    4.1398   -3.4170 C   0  0  0  0  0  0  0  0  0  0  0  0
    2.1240    4.6847   -2.9747 C   0  0  0  0  0  0  0  0  0  0  0  0
    3.0959    4.2871   -2.0527 C   0  0  0  0  0  0  0  0  0  0  0  0
    2.3178    4.6394   -4.3174 F   0  0  0  0  0  0  0  0  0  0  0  0
    3.4450    2.4904    0.7135 C   0  0  0  0  0  0  0  0  0  0  0  0
    4.1469    2.0682    1.7935 N   0  0  0  0  0  0  0  0  0  0  0  0
    4.8131    2.9289    2.6081 C   0  0  0  0  0  0  0  0  0  0  0  0
    2.8442    1.4940   -0.1745 C   0  0  0  0  0  0  0  0  0  0  0  0
    1.4880    1.2141   -0.2963 C   0  0  0  0  0  0  0  0  0  0  0  0
    1.2214    0.2393   -1.2605 C   0  0  0  0  0  0  0  0  0  0  0  0
   -0.0333   -0.1937   -1.5413 F   0  0  0  0  0  0  0  0  0  0  0  0
    2.3647   -0.2273   -1.9129 C   0  0  0  0  0  0  0  0  0  0  0  0
    2.4017   -1.2207   -3.0336 C   0  0  0  0  0  0  0  0  0  0  0  0
    3.0712   -2.5200   -2.5926 C   0  0  0  0  0  0  0  0  0  0  0  0
    3.7092    0.5567   -1.2697 S   0  0  0  0  0  0  0  0  0  0  0  0
    5.2782    6.6675    2.9064 C   0  0  0  0  0  0  0  0  0  0  0  0
    6.2071    7.5393    2.4853 C   0  0  0  0  0  0  0  0  0  0  0  0
    7.6211    7.2625    2.2206 C   0  0  0  0  0  0  0  0  0  0  0  0
    8.1399    6.1306    2.0257 O   0  0  0  0  0  0  0  0  0  0  0  0
    8.3341    8.5283    2.2393 C   0  0  0  0  0  0  0  0  0  0  0  0
    9.7072    8.7472    2.1640 C   0  0  0  0  0  0  0  0  0  0  0  0
   10.1868   10.0468    2.3681 C   0  0  0  0  0  0  0  0  0  0  0  0
    9.3004   11.0833    2.7137 C   0  0  0  0  0  0  0  0  0  0  0  0
    7.9099   10.8369    2.8192 C   0  0  0  0  0  0  0  0  0  0  0  0
    7.0223   11.8011    3.3240 O   0  0  0  0  0  0  0  0  0  0  0  0
    7.4139   13.0819    3.8119 C   0  0  0  0  0  0  0  0  0  0  0  0
    7.4367    9.5572    2.4699 C   0  0  0  0  0  0  0  0  0  0  0  0
    6.0497    9.0176    2.4324 C   0  0  0  0  0  0  0  0  0  0  0  0
    4.9417    9.6669    1.9853 C   0  0  0  0  0  0  0  0  0  0  0  0
    4.9579   11.0659    1.6342 C   0  0  0  0  0  0  0  0  0  0  0  0
    4.9564   12.1855    1.3466 N   0  0  0  0  0  0  0  0  0  0  0  0
    3.7684    8.9471    1.5488 C   0  0  0  0  0  0  0  0  0  0  0  0
    2.8446    8.3763    1.1639 N   0  0  0  0  0  0  0  0  0  0  0  0
   -7.5354   -0.3644   -3.5803 H   0  0  0  0  0  0  0  0  0  0  0  0
   -7.1869   -4.2552   -8.1738 H   0  0  0  0  0  0  0  0  0  0  0  0
   -6.0792   -3.5732  -10.2909 H   0  0  0  0  0  0  0  0  0  0  0  0
   -4.7434   -1.5105  -10.3735 H   0  0  0  0  0  0  0  0  0  0  0  0
   -2.7861    1.3974   -8.9924 H   0  0  0  0  0  0  0  0  0  0  0  0
   -3.8916    0.7449  -10.2543 H   0  0  0  0  0  0  0  0  0  0  0  0
   -2.6598   -0.3370   -9.4646 H   0  0  0  0  0  0  0  0  0  0  0  0
   -0.4521  -10.0623   -1.6408 H   0  0  0  0  0  0  0  0  0  0  0  0
   -0.1485   -9.2132   -3.1978 H   0  0  0  0  0  0  0  0  0  0  0  0
    1.6413   -8.7917   -1.4609 H   0  0  0  0  0  0  0  0  0  0  0  0
    0.4118   -8.0169   -0.3953 H   0  0  0  0  0  0  0  0  0  0  0  0
    0.8301   -7.2746   -1.9973 H   0  0  0  0  0  0  0  0  0  0  0  0
   -4.5720   -7.7228   -0.3733 H   0  0  0  0  0  0  0  0  0  0  0  0
   -5.1019   -7.9089   -4.3661 H   0  0  0  0  0  0  0  0  0  0  0  0
   -3.8407   -5.5010   -9.1168 H   0  0  0  0  0  0  0  0  0  0  0  0
   -3.9874   -7.2949   -9.1330 H   0  0  0  0  0  0  0  0  0  0  0  0
   -1.6421   -6.5777   -9.6049 H   0  0  0  0  0  0  0  0  0  0  0  0
   -1.5817   -5.6956   -8.0238 H   0  0  0  0  0  0  0  0  0  0  0  0
   -1.7301   -7.5037   -8.0576 H   0  0  0  0  0  0  0  0  0  0  0  0
   -6.4838   -4.9596    3.5203 H   0  0  0  0  0  0  0  0  0  0  0  0
   -7.2558   -4.0483    2.1810 H   0  0  0  0  0  0  0  0  0  0  0  0
   -7.0393   -1.9282    3.4506 H   0  0  0  0  0  0  0  0  0  0  0  0
   -7.8783   -3.1670    4.4415 H   0  0  0  0  0  0  0  0  0  0  0  0
   -6.1580   -2.7775    4.7749 H   0  0  0  0  0  0  0  0  0  0  0  0
    6.8877    1.1925    7.5197 H   0  0  0  0  0  0  0  0  0  0  0  0
    6.1711    2.7326    8.1037 H   0  0  0  0  0  0  0  0  0  0  0  0
    4.2054    1.2786    9.0408 H   0  0  0  0  0  0  0  0  0  0  0  0
    5.3668   -0.1166    8.8419 H   0  0  0  0  0  0  0  0  0  0  0  0
    5.7870    1.2663    9.9078 H   0  0  0  0  0  0  0  0  0  0  0  0
   -0.4177   -2.6523    0.9219 H   0  0  0  0  0  0  0  0  0  0  0  0
    1.0544   -2.2113    1.8093 H   0  0  0  0  0  0  0  0  0  0  0  0
   -1.7162   -1.0164    2.4062 H   0  0  0  0  0  0  0  0  0  0  0  0
   -0.1571   -0.6056    3.2420 H   0  0  0  0  0  0  0  0  0  0  0  0
   -0.3728   -0.2460    1.4799 H   0  0  0  0  0  0  0  0  0  0  0  0
    3.6458   -4.4518    3.1129 H   0  0  0  0  0  0  0  0  0  0  0  0
    2.1539   -4.0898    2.2291 H   0  0  0  0  0  0  0  0  0  0  0  0
    4.8589   -2.7024    2.0241 H   0  0  0  0  0  0  0  0  0  0  0  0
    3.8688   -3.4610    0.7428 H   0  0  0  0  0  0  0  0  0  0  0  0
    3.3442   -1.8831    1.4338 H   0  0  0  0  0  0  0  0  0  0  0  0
   -0.1080    5.9339   -4.0664 H   0  0  0  0  0  0  0  0  0  0  0  0
   -0.9642    6.0846   -2.4871 H   0  0  0  0  0  0  0  0  0  0  0  0
   -1.3846    3.6067   -2.4724 H   0  0  0  0  0  0  0  0  0  0  0  0
   -0.5358    3.4610   -4.0695 H   0  0  0  0  0  0  0  0  0  0  0  0
   -2.0736    4.4019   -3.9456 H   0  0  0  0  0  0  0  0  0  0  0  0
    4.0704    3.9136   -2.3367 H   0  0  0  0  0  0  0  0  0  0  0  0
    0.7223    1.7048    0.2919 H   0  0  0  0  0  0  0  0  0  0  0  0
    2.9697   -0.7848   -3.8845 H   0  0  0  0  0  0  0  0  0  0  0  0
    1.3719   -1.4444   -3.3882 H   0  0  0  0  0  0  0  0  0  0  0  0
    2.4955   -2.9833   -1.7631 H   0  0  0  0  0  0  0  0  0  0  0  0
    4.1118   -2.3250   -2.2569 H   0  0  0  0  0  0  0  0  0  0  0  0
    3.1007   -3.2277   -3.4472 H   0  0  0  0  0  0  0  0  0  0  0  0
    4.2884    7.0218    3.1634 H   0  0  0  0  0  0  0  0  0  0  0  0
   10.3925    7.9329    1.9703 H   0  0  0  0  0  0  0  0  0  0  0  0
   11.2530   10.2405    2.3179 H   0  0  0  0  0  0  0  0  0  0  0  0
    9.7123   12.0597    2.9311 H   0  0  0  0  0  0  0  0  0  0  0  0
    6.5174   13.6079    4.1964 H   0  0  0  0  0  0  0  0  0  0  0  0
    7.8568   13.6841    2.9917 H   0  0  0  0  0  0  0  0  0  0  0  0
    8.1420   12.9640    4.6415 H   0  0  0  0  0  0  0  0  0  0  0  0
  1  2  2  3
  2  3  1  0
  3  4  2  0
  3  5  1  0
  5  6  2  0
  6  7  1  0
  7  8  2  0
  8  9  1  0
  9 10  1  0
 10 11  1  0
  9 12  2  0
 12 13  1  0
 13 14  2  3
 14 15  1  0
 15 16  3  0
 14 17  1  0
 17 18  3  0
  1 19  1  0
 19 20  2  0
 20 21  1  0
 20 22  1  0
 22 23  1  0
 22 24  2  0
 24 25  1  0
 25 26  2  0
 26 27  1  0
 27 28  1  0
 28 29  1  0
 29 30  1  0
 30 31  1  0
 31 32  1  0
 30 33  2  0
 33 34  1  0
 33 35  1  0
 27 36  2  0
 36 37  1  0
 37 38  2  0
 36 39  1  0
 39 40  2  0
 40 41  1  0
 41 42  1  0
 41 43  2  0
 43 44  1  0
 44 45  1  0
 43 46  1  0
 24 47  1  0
 47 48  2  0
 48 49  1  0
 49 50  1  0
 48 51  1  0
 51 52  1  0
 52 53  1  0
 53 54  1  0
 54 55  1  0
 55 56  1  0
 56 57  2  0
 57 58  1  0
 58 59  1  0
 56 60  1  0
 60 61  1  0
 61 62  1  0
 62 63  1  0
 63 64  1  0
 64 65  1  0
 65 66  1  0
 66 67  1  0
 64 68  2  0
 68 69  1  0
 69 70  1  0
 70 71  1  0
 71 72  1  0
 72 73  1  0
 73 74  1  0
 74 75  1  0
 75 76  1  0
 76 77  1  0
 77 78  1  0
 75 79  1  0
 79 80  1  0
 72 81  1  0
 81 82  1  0
 68 83  1  0
 83 84  2  0
 84 85  1  0
 84 86  1  0
 86 87  1  0
 86 88  2  0
 88 89  1  0
 89 90  2  0
 90 91  1  0
 91 92  1  0
 92 93  1  0
 93 94  1  0
 94 95  1  0
 95 96  1  0
 94 97  2  0
 97 98  1  0
 97 99  1  0
 91100  2  0
100101  1  0
101102  2  0
100103  1  0
103104  2  0
104105  1  0
105106  1  0
105107  2  0
107108  1  0
108109  1  0
107110  1  0
 88111  1  0
111112  2  3
112113  1  0
113114  2  0
113115  1  0
115116  2  0
116117  1  0
117118  2  0
118119  1  0
119120  1  0
120121  1  0
119122  2  0
122123  1  0
123124  2  3
124125  1  0
125126  3  0
124127  1  0
127128  3  0
 13  2  1  0
 38 19  1  0
 46 39  1  0
 78 47  1  0
102 83  1  0
110103  1  0
123112  1  0
 12  5  1  0
 38 25  1  0
 77 51  2  0
102 89  1  0
122115  1  0
 34 28  2  0
 76 53  2  0
 98 92  2  0
 74 54  2  0
 59 55  2  0
 73 60  2  0
 71 61  2  0
 70 63  2  0
  1129  1  0
  6130  1  0
  7131  1  0
  8132  1  0
 11133  1  0
 11134  1  0
 11135  1  0
 31136  1  0
 31137  1  0
 32138  1  0
 32139  1  0
 32140  1  0
 34141  1  0
 40142  1  0
 44143  1  0
 44144  1  0
 45145  1  0
 45146  1  0
 45147  1  0
 49148  1  0
 49149  1  0
 50150  1  0
 50151  1  0
 50152  1  0
 66153  1  0
 66154  1  0
 67155  1  0
 67156  1  0
 67157  1  0
 79158  1  0
 79159  1  0
 80160  1  0
 80161  1  0
 80162  1  0
 81163  1  0
 81164  1  0
 82165  1  0
 82166  1  0
 82167  1  0
 95168  1  0
 95169  1  0
 96170  1  0
 96171  1  0
 96172  1  0
 98173  1  0
104174  1  0
108175  1  0
108176  1  0
109177  1  0
109178  1  0
109179  1  0
111180  1  0
116181  1  0
117182  1  0
118183  1  0
121184  1  0
121185  1  0
121186  1  0
M  END

