
     RDKit          3D

257282  0  0  0  0  0  0  0  0999 V2000
   -2.7004   -3.6171    7.5100 C   0  0  0  0  0  0  0  0  0  0  0  0
   -1.4369   -4.0830    7.3897 C   0  0  0  0  0  0  0  0  0  0  0  0
   -0.5627   -4.1622    8.5665 C   0  0  0  0  0  0  0  0  0  0  0  0
   -0.8707   -3.8068    9.7371 O   0  0  0  0  0  0  0  0  0  0  0  0
    0.7175   -4.7022    8.1787 C   0  0  0  0  0  0  0  0  0  0  0  0
    1.8851   -4.7916    8.9422 C   0  0  0  0  0  0  0  0  0  0  0  0
    3.0715   -5.2169    8.3171 C   0  0  0  0  0  0  0  0  0  0  0  0
    4.2435   -5.2895    9.0858 O   0  0  0  0  0  0  0  0  0  0  0  0
    5.5291   -5.6036    8.5583 C   0  0  0  0  0  0  0  0  0  0  0  0
    3.0590   -5.5249    6.9364 C   0  0  0  0  0  0  0  0  0  0  0  0
    1.8793   -5.4005    6.1912 C   0  0  0  0  0  0  0  0  0  0  0  0
    0.6919   -5.0141    6.8381 C   0  0  0  0  0  0  0  0  0  0  0  0
   -0.6527   -4.7161    6.2564 C   0  0  0  0  0  0  0  0  0  0  0  0
   -1.0743   -5.2086    5.0587 C   0  0  0  0  0  0  0  0  0  0  0  0
   -2.1676   -4.6908    4.2896 C   0  0  0  0  0  0  0  0  0  0  0  0
   -3.0184   -4.3035    3.6079 N   0  0  0  0  0  0  0  0  0  0  0  0
   -0.3946   -6.3039    4.4119 C   0  0  0  0  0  0  0  0  0  0  0  0
    0.1390   -7.1945    3.8940 N   0  0  0  0  0  0  0  0  0  0  0  0
   -3.6362   -3.3136    6.4314 C   0  0  0  0  0  0  0  0  0  0  0  0
   -4.8294   -4.0043    6.1169 C   0  0  0  0  0  0  0  0  0  0  0  0
   -5.3689   -5.1287    6.8512 N   0  0  0  0  0  0  0  0  0  0  0  0
   -6.7890   -5.2305    7.0878 C   0  0  0  0  0  0  0  0  0  0  0  0
   -7.5457   -4.0844    7.3857 C   0  0  0  0  0  0  0  0  0  0  0  0
   -8.9281   -4.1739    7.5627 C   0  0  0  0  0  0  0  0  0  0  0  0
   -9.5730   -5.4136    7.4735 C   0  0  0  0  0  0  0  0  0  0  0  0
  -11.0728   -5.4935    7.5578 C   0  0  0  0  0  0  0  0  0  0  0  0
   -8.8204   -6.5670    7.2171 C   0  0  0  0  0  0  0  0  0  0  0  0
   -7.4315   -6.4774    7.0389 C   0  0  0  0  0  0  0  0  0  0  0  0
   -4.4887   -6.0097    7.5711 C   0  0  0  0  0  0  0  0  0  0  0  0
   -4.5190   -6.0333    8.9742 C   0  0  0  0  0  0  0  0  0  0  0  0
   -3.5627   -6.7620    9.6851 C   0  0  0  0  0  0  0  0  0  0  0  0
   -2.5636   -7.4730    9.0014 C   0  0  0  0  0  0  0  0  0  0  0  0
   -1.4870   -8.1930    9.7561 C   0  0  0  0  0  0  0  0  0  0  0  0
   -2.5793   -7.5054    7.5973 C   0  0  0  0  0  0  0  0  0  0  0  0
   -3.5362   -6.7759    6.8871 C   0  0  0  0  0  0  0  0  0  0  0  0
   -5.5167   -3.3400    5.0956 C   0  0  0  0  0  0  0  0  0  0  0  0
   -6.7952   -3.7373    4.0732 S   0  0  0  0  0  0  0  0  0  0  0  0
   -6.6947   -2.2949    3.1758 C   0  0  0  0  0  0  0  0  0  0  0  0
   -5.6395   -1.5080    3.6759 C   0  0  0  0  0  0  0  0  0  0  0  0
   -5.2832   -0.2018    3.1825 N   0  0  0  0  0  0  0  0  0  0  0  0
   -6.2030    0.8927    3.4246 C   0  0  0  0  0  0  0  0  0  0  0  0
   -6.4163    1.8794    2.4474 C   0  0  0  0  0  0  0  0  0  0  0  0
   -7.2238    2.9900    2.7234 C   0  0  0  0  0  0  0  0  0  0  0  0
   -7.8655    3.1050    3.9665 C   0  0  0  0  0  0  0  0  0  0  0  0
   -8.7401    4.2851    4.2777 C   0  0  0  0  0  0  0  0  0  0  0  0
   -7.7028    2.0952    4.9232 C   0  0  0  0  0  0  0  0  0  0  0  0
   -6.8724    0.9994    4.6579 C   0  0  0  0  0  0  0  0  0  0  0  0
   -3.9896    0.0216    2.5618 C   0  0  0  0  0  0  0  0  0  0  0  0
   -3.3010   -1.0354    1.9361 C   0  0  0  0  0  0  0  0  0  0  0  0
   -2.1095   -0.7983    1.2397 C   0  0  0  0  0  0  0  0  0  0  0  0
   -1.5866    0.4983    1.1455 C   0  0  0  0  0  0  0  0  0  0  0  0
   -0.3305    0.7480    0.3625 C   0  0  0  0  0  0  0  0  0  0  0  0
   -2.2215    1.5422    1.8326 C   0  0  0  0  0  0  0  0  0  0  0  0
   -3.3956    1.3036    2.5490 C   0  0  0  0  0  0  0  0  0  0  0  0
   -4.9896   -2.1466    4.7217 C   0  0  0  0  0  0  0  0  0  0  0  0
   -3.5793   -1.8372    5.5748 S   0  0  0  0  0  0  0  0  0  0  0  0
   -7.2616   -2.1090    1.8375 C   0  0  0  0  0  0  0  0  0  0  0  0
   -8.1889   -1.0990    1.5148 C   0  0  0  0  0  0  0  0  0  0  0  0
   -9.2268   -0.6255    2.4802 C   0  0  0  0  0  0  0  0  0  0  0  0
   -9.7048    0.6972    2.5019 C   0  0  0  0  0  0  0  0  0  0  0  0
  -10.6620    1.0935    3.4373 C   0  0  0  0  0  0  0  0  0  0  0  0
  -11.1653    0.1779    4.3616 C   0  0  0  0  0  0  0  0  0  0  0  0
  -10.7170   -1.1494    4.3462 C   0  0  0  0  0  0  0  0  0  0  0  0
  -11.2967   -2.1667    5.2896 C   0  0  0  0  0  0  0  0  0  0  0  0
  -12.3384   -3.0268    4.5830 C   0  0  0  0  0  0  0  0  0  0  0  0
   -9.7614   -1.5442    3.4018 C   0  0  0  0  0  0  0  0  0  0  0  0
   -7.9746   -0.6263    0.2042 C   0  0  0  0  0  0  0  0  0  0  0  0
   -8.2749    0.8862   -0.4904 S   0  0  0  0  0  0  0  0  0  0  0  0
   -7.1012    0.6850   -1.6911 C   0  0  0  0  0  0  0  0  0  0  0  0
   -6.1702    1.5704   -2.1634 C   0  0  0  0  0  0  0  0  0  0  0  0
   -6.0225    2.9288   -1.8047 C   0  0  0  0  0  0  0  0  0  0  0  0
   -4.7266    3.5291   -1.8603 C   0  0  0  0  0  0  0  0  0  0  0  0
   -4.6128    4.8061   -1.4184 N   0  0  0  0  0  0  0  0  0  0  0  0
   -6.1808    5.0825   -0.9675 S   0  0  0  0  0  0  0  0  0  0  0  0
   -7.0175    3.6906   -1.2876 N   0  0  0  0  0  0  0  0  0  0  0  0
   -3.6677    2.7770   -2.3645 C   0  0  0  0  0  0  0  0  0  0  0  0
   -2.3343    3.0360   -2.5286 C   0  0  0  0  0  0  0  0  0  0  0  0
   -1.1504    4.1431   -2.0246 S   0  0  0  0  0  0  0  0  0  0  0  0
    0.0854    3.1803   -2.7183 C   0  0  0  0  0  0  0  0  0  0  0  0
    1.4811    3.2331   -2.6995 C   0  0  0  0  0  0  0  0  0  0  0  0
    2.2364    4.1705   -1.8365 C   0  0  0  0  0  0  0  0  0  0  0  0
    3.1642    3.6696   -0.9049 C   0  0  0  0  0  0  0  0  0  0  0  0
    3.8826    4.5442   -0.0880 C   0  0  0  0  0  0  0  0  0  0  0  0
    3.6485    5.9205   -0.1557 C   0  0  0  0  0  0  0  0  0  0  0  0
    2.6866    6.4286   -1.0444 C   0  0  0  0  0  0  0  0  0  0  0  0
    2.4326    7.9090   -1.1165 C   0  0  0  0  0  0  0  0  0  0  0  0
    3.4580    8.5818   -2.0200 C   0  0  0  0  0  0  0  0  0  0  0  0
    1.9968    5.5516   -1.8989 C   0  0  0  0  0  0  0  0  0  0  0  0
    2.0368    2.1391   -3.4063 C   0  0  0  0  0  0  0  0  0  0  0  0
    0.7837    1.0990   -3.9236 S   0  0  0  0  0  0  0  0  0  0  0  0
   -0.4332    2.0602   -3.3105 C   0  0  0  0  0  0  0  0  0  0  0  0
   -1.7985    1.9642   -3.1575 C   0  0  0  0  0  0  0  0  0  0  0  0
   -2.6927    0.9764   -3.3773 N   0  0  0  0  0  0  0  0  0  0  0  0
   -3.8379    1.4621   -2.8121 C   0  0  0  0  0  0  0  0  0  0  0  0
   -5.0565    0.7972   -2.5329 C   0  0  0  0  0  0  0  0  0  0  0  0
   -5.2098   -0.4953   -2.1064 N   0  0  0  0  0  0  0  0  0  0  0  0
   -6.4702   -0.5269   -1.5844 C   0  0  0  0  0  0  0  0  0  0  0  0
   -6.9690   -1.2627   -0.4985 C   0  0  0  0  0  0  0  0  0  0  0  0
   -6.2820   -2.4181    0.4940 S   0  0  0  0  0  0  0  0  0  0  0  0
   -4.1250   -1.4122   -1.7111 C   0  0  0  0  0  0  0  0  0  0  0  0
   -4.3114   -2.8010   -2.3286 C   0  0  0  0  0  0  0  0  0  0  0  0
   -2.5425   -0.1498   -4.3060 C   0  0  0  0  0  0  0  0  0  0  0  0
   -2.3535    0.3324   -5.7393 C   0  0  0  0  0  0  0  0  0  0  0  0
    3.4560    1.9729   -3.7935 C   0  0  0  0  0  0  0  0  0  0  0  0
    4.0506    0.8484   -4.4057 C   0  0  0  0  0  0  0  0  0  0  0  0
    3.4132   -0.4200   -4.6084 N   0  0  0  0  0  0  0  0  0  0  0  0
    3.2533   -0.8829   -5.9653 C   0  0  0  0  0  0  0  0  0  0  0  0
    3.7108   -2.1562   -6.3392 C   0  0  0  0  0  0  0  0  0  0  0  0
    3.6270   -2.5735   -7.6719 C   0  0  0  0  0  0  0  0  0  0  0  0
    3.0751   -1.7256   -8.6445 C   0  0  0  0  0  0  0  0  0  0  0  0
    3.0540   -2.1414  -10.0848 C   0  0  0  0  0  0  0  0  0  0  0  0
    2.6247   -0.4505   -8.2730 C   0  0  0  0  0  0  0  0  0  0  0  0
    2.7167   -0.0302   -6.9427 C   0  0  0  0  0  0  0  0  0  0  0  0
    3.1292   -1.2791   -3.4822 C   0  0  0  0  0  0  0  0  0  0  0  0
    3.9320   -1.2389   -2.3263 C   0  0  0  0  0  0  0  0  0  0  0  0
    3.6576   -2.0734   -1.2404 C   0  0  0  0  0  0  0  0  0  0  0  0
    2.5635   -2.9523   -1.2796 C   0  0  0  0  0  0  0  0  0  0  0  0
    2.3103   -3.8923   -0.1380 C   0  0  0  0  0  0  0  0  0  0  0  0
    1.7642   -3.0020   -2.4307 C   0  0  0  0  0  0  0  0  0  0  0  0
    2.0405   -2.1698   -3.5201 C   0  0  0  0  0  0  0  0  0  0  0  0
    5.3911    1.0790   -4.7120 C   0  0  0  0  0  0  0  0  0  0  0  0
    6.6587    0.0936   -5.2031 S   0  0  0  0  0  0  0  0  0  0  0  0
    7.8453    1.3036   -5.0009 C   0  0  0  0  0  0  0  0  0  0  0  0
    7.2386    2.4792   -4.4936 C   0  0  0  0  0  0  0  0  0  0  0  0
    7.9372    3.6038   -3.9162 N   0  0  0  0  0  0  0  0  0  0  0  0
    7.4054    4.9400   -4.0639 C   0  0  0  0  0  0  0  0  0  0  0  0
    7.3863    5.8313   -2.9698 C   0  0  0  0  0  0  0  0  0  0  0  0
    6.8699    7.1200   -3.1129 C   0  0  0  0  0  0  0  0  0  0  0  0
    6.3553    7.5433   -4.3478 C   0  0  0  0  0  0  0  0  0  0  0  0
    5.8516    8.9440   -4.5335 C   0  0  0  0  0  0  0  0  0  0  0  0
    6.3589    6.6577   -5.4356 C   0  0  0  0  0  0  0  0  0  0  0  0
    6.8653    5.3655   -5.2918 C   0  0  0  0  0  0  0  0  0  0  0  0
    9.0537    3.3773   -3.0316 C   0  0  0  0  0  0  0  0  0  0  0  0
    9.0099    2.3466   -2.0761 C   0  0  0  0  0  0  0  0  0  0  0  0
   10.1095    2.1028   -1.2512 C   0  0  0  0  0  0  0  0  0  0  0  0
   11.2627    2.8963   -1.3537 C   0  0  0  0  0  0  0  0  0  0  0  0
   12.4607    2.6050   -0.5026 C   0  0  0  0  0  0  0  0  0  0  0  0
   11.3058    3.9302   -2.3018 C   0  0  0  0  0  0  0  0  0  0  0  0
   10.2056    4.1742   -3.1282 C   0  0  0  0  0  0  0  0  0  0  0  0
    5.8623    2.3034   -4.3796 C   0  0  0  0  0  0  0  0  0  0  0  0
    4.6349    3.1997   -3.6877 S   0  0  0  0  0  0  0  0  0  0  0  0
    9.2906    1.0249   -5.1004 C   0  0  0  0  0  0  0  0  0  0  0  0
   10.1756    1.9019   -5.6061 C   0  0  0  0  0  0  0  0  0  0  0  0
    9.8305    3.0300   -6.4714 C   0  0  0  0  0  0  0  0  0  0  0  0
    8.7096    3.2325   -7.0167 O   0  0  0  0  0  0  0  0  0  0  0  0
   11.0302    3.7644   -6.7774 C   0  0  0  0  0  0  0  0  0  0  0  0
   11.1497    4.9232   -7.5397 C   0  0  0  0  0  0  0  0  0  0  0  0
   12.4310    5.4743   -7.7423 C   0  0  0  0  0  0  0  0  0  0  0  0
   12.6350    6.6435   -8.4900 O   0  0  0  0  0  0  0  0  0  0  0  0
   11.5938    7.3724   -9.1355 C   0  0  0  0  0  0  0  0  0  0  0  0
   13.5523    4.8261   -7.1868 C   0  0  0  0  0  0  0  0  0  0  0  0
   13.4088    3.6563   -6.4264 C   0  0  0  0  0  0  0  0  0  0  0  0
   12.1227    3.1356   -6.2007 C   0  0  0  0  0  0  0  0  0  0  0  0
   11.6663    1.9498   -5.4096 C   0  0  0  0  0  0  0  0  0  0  0  0
   12.4087    1.2316   -4.5261 C   0  0  0  0  0  0  0  0  0  0  0  0
   11.8553    0.2073   -3.6770 C   0  0  0  0  0  0  0  0  0  0  0  0
   11.4324   -0.6155   -2.9812 N   0  0  0  0  0  0  0  0  0  0  0  0
   13.8012    1.4957   -4.2813 C   0  0  0  0  0  0  0  0  0  0  0  0
   14.9207    1.7003   -4.0612 N   0  0  0  0  0  0  0  0  0  0  0  0
   -3.0532   -3.3419    8.4953 H   0  0  0  0  0  0  0  0  0  0  0  0
    1.8834   -4.5224    9.9884 H   0  0  0  0  0  0  0  0  0  0  0  0
    5.8044   -4.8667    7.7748 H   0  0  0  0  0  0  0  0  0  0  0  0
    5.5354   -6.6377    8.1455 H   0  0  0  0  0  0  0  0  0  0  0  0
    6.2864   -5.5323    9.3662 H   0  0  0  0  0  0  0  0  0  0  0  0
    3.9580   -5.8453    6.4241 H   0  0  0  0  0  0  0  0  0  0  0  0
    1.9181   -5.5800    5.1254 H   0  0  0  0  0  0  0  0  0  0  0  0
   -7.0675   -3.1168    7.4658 H   0  0  0  0  0  0  0  0  0  0  0  0
   -9.4929   -3.2730    7.7643 H   0  0  0  0  0  0  0  0  0  0  0  0
  -11.4986   -5.4167    6.5374 H   0  0  0  0  0  0  0  0  0  0  0  0
  -11.3893   -6.4581    8.0055 H   0  0  0  0  0  0  0  0  0  0  0  0
  -11.4781   -4.6667    8.1814 H   0  0  0  0  0  0  0  0  0  0  0  0
   -9.3066   -7.5358    7.1442 H   0  0  0  0  0  0  0  0  0  0  0  0
   -6.8694   -7.3782    6.8295 H   0  0  0  0  0  0  0  0  0  0  0  0
   -5.2557   -5.4530    9.5133 H   0  0  0  0  0  0  0  0  0  0  0  0
   -3.5793   -6.7396   10.7687 H   0  0  0  0  0  0  0  0  0  0  0  0
   -1.6467   -9.2866    9.6816 H   0  0  0  0  0  0  0  0  0  0  0  0
   -1.4793   -7.8998   10.8260 H   0  0  0  0  0  0  0  0  0  0  0  0
   -0.4986   -7.9367    9.3222 H   0  0  0  0  0  0  0  0  0  0  0  0
   -1.8240   -8.0614    7.0572 H   0  0  0  0  0  0  0  0  0  0  0  0
   -3.5264   -6.7867    5.8051 H   0  0  0  0  0  0  0  0  0  0  0  0
   -5.9503    1.8023    1.4736 H   0  0  0  0  0  0  0  0  0  0  0  0
   -7.3544    3.7471    1.9623 H   0  0  0  0  0  0  0  0  0  0  0  0
   -9.7880    3.9502    4.4169 H   0  0  0  0  0  0  0  0  0  0  0  0
   -8.7141    5.0397    3.4622 H   0  0  0  0  0  0  0  0  0  0  0  0
   -8.3931    4.7688    5.2159 H   0  0  0  0  0  0  0  0  0  0  0  0
   -8.2074    2.1642    5.8809 H   0  0  0  0  0  0  0  0  0  0  0  0
   -6.7434    0.2496    5.4255 H   0  0  0  0  0  0  0  0  0  0  0  0
   -3.7039   -2.0400    1.9427 H   0  0  0  0  0  0  0  0  0  0  0  0
   -1.6104   -1.6216    0.7423 H   0  0  0  0  0  0  0  0  0  0  0  0
   -0.1752    1.8330    0.1835 H   0  0  0  0  0  0  0  0  0  0  0  0
    0.5420    0.3471    0.9169 H   0  0  0  0  0  0  0  0  0  0  0  0
   -0.3969    0.2458   -0.6270 H   0  0  0  0  0  0  0  0  0  0  0  0
   -1.8190    2.5499    1.7979 H   0  0  0  0  0  0  0  0  0  0  0  0
   -3.8472    2.1341    3.0742 H   0  0  0  0  0  0  0  0  0  0  0  0
   -9.3224    1.4502    1.8360 H   0  0  0  0  0  0  0  0  0  0  0  0
  -11.0114    2.1157    3.4505 H   0  0  0  0  0  0  0  0  0  0  0  0
  -11.9026    0.5028    5.0826 H   0  0  0  0  0  0  0  0  0  0  0  0
  -11.7557   -1.6703    6.1697 H   0  0  0  0  0  0  0  0  0  0  0  0
  -10.4861   -2.8254    5.6619 H   0  0  0  0  0  0  0  0  0  0  0  0
  -13.1622   -2.3941    4.1942 H   0  0  0  0  0  0  0  0  0  0  0  0
  -12.7626   -3.7628    5.2972 H   0  0  0  0  0  0  0  0  0  0  0  0
  -11.8758   -3.5823    3.7414 H   0  0  0  0  0  0  0  0  0  0  0  0
   -9.4570   -2.5831    3.3716 H   0  0  0  0  0  0  0  0  0  0  0  0
    3.3394    2.6015   -0.8232 H   0  0  0  0  0  0  0  0  0  0  0  0
    4.6169    4.1578    0.6040 H   0  0  0  0  0  0  0  0  0  0  0  0
    4.2135    6.5876    0.4815 H   0  0  0  0  0  0  0  0  0  0  0  0
    2.4926    8.3555   -0.1021 H   0  0  0  0  0  0  0  0  0  0  0  0
    1.4136    8.1090   -1.5101 H   0  0  0  0  0  0  0  0  0  0  0  0
    3.4291    8.1289   -3.0344 H   0  0  0  0  0  0  0  0  0  0  0  0
    3.2294    9.6633   -2.1079 H   0  0  0  0  0  0  0  0  0  0  0  0
    4.4754    8.4665   -1.5923 H   0  0  0  0  0  0  0  0  0  0  0  0
    1.2786    5.9432   -2.6156 H   0  0  0  0  0  0  0  0  0  0  0  0
   -3.1319   -1.0252   -1.9685 H   0  0  0  0  0  0  0  0  0  0  0  0
   -4.0885   -1.4923   -0.6117 H   0  0  0  0  0  0  0  0  0  0  0  0
   -4.0332   -2.7972   -3.3992 H   0  0  0  0  0  0  0  0  0  0  0  0
   -5.3578   -3.1467   -2.2287 H   0  0  0  0  0  0  0  0  0  0  0  0
   -3.6514   -3.5147   -1.7951 H   0  0  0  0  0  0  0  0  0  0  0  0
   -1.6704   -0.7675   -4.0028 H   0  0  0  0  0  0  0  0  0  0  0  0
   -3.4499   -0.7809   -4.2958 H   0  0  0  0  0  0  0  0  0  0  0  0
   -1.4252    0.9309   -5.8380 H   0  0  0  0  0  0  0  0  0  0  0  0
   -2.2823   -0.5431   -6.4204 H   0  0  0  0  0  0  0  0  0  0  0  0
   -3.2244    0.9552   -6.0400 H   0  0  0  0  0  0  0  0  0  0  0  0
    4.1590   -2.8134   -5.6059 H   0  0  0  0  0  0  0  0  0  0  0  0
    4.0103   -3.5485   -7.9458 H   0  0  0  0  0  0  0  0  0  0  0  0
    4.0213   -1.8743  -10.5566 H   0  0  0  0  0  0  0  0  0  0  0  0
    2.2334   -1.6324  -10.6319 H   0  0  0  0  0  0  0  0  0  0  0  0
    2.8996   -3.2395  -10.1738 H   0  0  0  0  0  0  0  0  0  0  0  0
    2.2165    0.2241   -9.0144 H   0  0  0  0  0  0  0  0  0  0  0  0
    2.3719    0.9593   -6.6763 H   0  0  0  0  0  0  0  0  0  0  0  0
    4.7860   -0.5776   -2.2727 H   0  0  0  0  0  0  0  0  0  0  0  0
    4.3019   -2.0391   -0.3697 H   0  0  0  0  0  0  0  0  0  0  0  0
    1.2267   -4.1205   -0.0492 H   0  0  0  0  0  0  0  0  0  0  0  0
    2.6471   -3.4431    0.8219 H   0  0  0  0  0  0  0  0  0  0  0  0
    2.8678   -4.8380   -0.3097 H   0  0  0  0  0  0  0  0  0  0  0  0
    0.9260   -3.6883   -2.4846 H   0  0  0  0  0  0  0  0  0  0  0  0
    1.4010   -2.2158   -4.3928 H   0  0  0  0  0  0  0  0  0  0  0  0
    7.7734    5.5255   -2.0074 H   0  0  0  0  0  0  0  0  0  0  0  0
    6.8674    7.7879   -2.2592 H   0  0  0  0  0  0  0  0  0  0  0  0
    5.8610    9.5116   -3.5784 H   0  0  0  0  0  0  0  0  0  0  0  0
    4.8100    8.9244   -4.9212 H   0  0  0  0  0  0  0  0  0  0  0  0
    6.4960    9.4761   -5.2640 H   0  0  0  0  0  0  0  0  0  0  0  0
    5.9601    6.9678   -6.3935 H   0  0  0  0  0  0  0  0  0  0  0  0
    6.8375    4.6960   -6.1403 H   0  0  0  0  0  0  0  0  0  0  0  0
    8.1253    1.7304   -1.9792 H   0  0  0  0  0  0  0  0  0  0  0  0
   10.0688    1.2859   -0.5433 H   0  0  0  0  0  0  0  0  0  0  0  0
   13.1503    1.9360   -1.0561 H   0  0  0  0  0  0  0  0  0  0  0  0
   12.1607    2.1118    0.4461 H   0  0  0  0  0  0  0  0  0  0  0  0
   12.9944    3.5472   -0.2489 H   0  0  0  0  0  0  0  0  0  0  0  0
   12.1968    4.5365   -2.4112 H   0  0  0  0  0  0  0  0  0  0  0  0
   10.2622    4.9641   -3.8675 H   0  0  0  0  0  0  0  0  0  0  0  0
    9.6118    0.0838   -4.6960 H   0  0  0  0  0  0  0  0  0  0  0  0
   10.2595    5.3826   -7.9538 H   0  0  0  0  0  0  0  0  0  0  0  0
   10.8567    7.7333   -8.3861 H   0  0  0  0  0  0  0  0  0  0  0  0
   11.0901    6.7304   -9.8888 H   0  0  0  0  0  0  0  0  0  0  0  0
   12.0288    8.2509   -9.6562 H   0  0  0  0  0  0  0  0  0  0  0  0
   14.5416    5.2265   -7.3639 H   0  0  0  0  0  0  0  0  0  0  0  0
   14.2975    3.1752   -6.0668 H   0  0  0  0  0  0  0  0  0  0  0  0
  1  2  2  3
  2  3  1  0
  3  4  2  0
  3  5  1  0
  5  6  2  0
  6  7  1  0
  7  8  1  0
  8  9  1  0
  7 10  2  0
 10 11  1  0
 11 12  2  0
 12 13  1  0
 13 14  2  3
 14 15  1  0
 15 16  3  0
 14 17  1  0
 17 18  3  0
  1 19  1  0
 19 20  2  0
 20 21  1  0
 21 22  1  0
 22 23  2  0
 23 24  1  0
 24 25  2  0
 25 26  1  0
 25 27  1  0
 27 28  2  0
 21 29  1  0
 29 30  2  0
 30 31  1  0
 31 32  2  0
 32 33  1  0
 32 34  1  0
 34 35  2  0
 20 36  1  0
 36 37  1  0
 37 38  1  0
 38 39  2  0
 39 40  1  0
 40 41  1  0
 41 42  2  0
 42 43  1  0
 43 44  2  0
 44 45  1  0
 44 46  1  0
 46 47  2  0
 40 48  1  0
 48 49  2  0
 49 50  1  0
 50 51  2  0
 51 52  1  0
 51 53  1  0
 53 54  2  0
 39 55  1  0
 55 56  1  0
 38 57  1  0
 57 58  2  0
 58 59  1  0
 59 60  2  0
 60 61  1  0
 61 62  2  0
 62 63  1  0
 63 64  1  0
 64 65  1  0
 63 66  2  0
 58 67  1  0
 67 68  1  0
 68 69  1  0
 69 70  1  0
 70 71  1  0
 71 72  1  0
 72 73  2  0
 73 74  1  0
 74 75  1  0
 72 76  1  0
 76 77  1  0
 77 78  1  0
 78 79  1  0
 79 80  1  0
 80 81  1  0
 81 82  2  0
 82 83  1  0
 83 84  2  0
 84 85  1  0
 85 86  1  0
 86 87  1  0
 85 88  2  0
 80 89  2  0
 89 90  1  0
 90 91  1  0
 91 92  1  0
 92 93  1  0
 93 94  1  0
 94 95  1  0
 95 96  1  0
 96 97  1  0
 97 98  1  0
 98 99  1  0
 96100  1  0
100101  1  0
 93102  1  0
102103  1  0
 89104  1  0
104105  2  0
105106  1  0
106107  1  0
107108  2  0
108109  1  0
109110  2  0
110111  1  0
110112  1  0
112113  2  0
106114  1  0
114115  2  0
115116  1  0
116117  2  0
117118  1  0
117119  1  0
119120  2  0
105121  1  0
121122  1  0
122123  1  0
123124  2  0
124125  1  0
125126  1  0
126127  2  0
127128  1  0
128129  2  0
129130  1  0
129131  1  0
131132  2  0
125133  1  0
133134  2  0
134135  1  0
135136  2  0
136137  1  0
136138  1  0
138139  2  0
124140  1  0
140141  1  0
123142  1  0
142143  2  3
143144  1  0
144145  2  0
144146  1  0
146147  2  0
147148  1  0
148149  1  0
149150  1  0
148151  2  0
151152  1  0
152153  2  0
153154  1  0
154155  2  3
155156  1  0
156157  3  0
155158  1  0
158159  3  0
 13  2  1  0
 56 19  1  0
 99 57  1  0
141104  1  0
154143  1  0
 12  5  1  0
 28 22  1  0
 35 29  1  0
 55 36  2  0
 66 59  1  0
 98 67  2  0
113107  1  0
120114  1  0
140121  2  0
153146  1  0
 47 41  1  0
 54 48  1  0
 97 69  2  0
132126  1  0
139133  1  0
 95 70  2  0
 75 71  2  0
 94 76  2  0
 92 77  2  0
 91 79  2  0
 88 81  1  0
  1160  1  0
  6161  1  0
  9162  1  0
  9163  1  0
  9164  1  0
 10165  1  0
 11166  1  0
 23167  1  0
 24168  1  0
 26169  1  0
 26170  1  0
 26171  1  0
 27172  1  0
 28173  1  0
 30174  1  0
 31175  1  0
 33176  1  0
 33177  1  0
 33178  1  0
 34179  1  0
 35180  1  0
 42181  1  0
 43182  1  0
 45183  1  0
 45184  1  0
 45185  1  0
 46186  1  0
 47187  1  0
 49188  1  0
 50189  1  0
 52190  1  0
 52191  1  0
 52192  1  0
 53193  1  0
 54194  1  0
 60195  1  0
 61196  1  0
 62197  1  0
 64198  1  0
 64199  1  0
 65200  1  0
 65201  1  0
 65202  1  0
 66203  1  0
 82204  1  0
 83205  1  0
 84206  1  0
 86207  1  0
 86208  1  0
 87209  1  0
 87210  1  0
 87211  1  0
 88212  1  0
100213  1  0
100214  1  0
101215  1  0
101216  1  0
101217  1  0
102218  1  0
102219  1  0
103220  1  0
103221  1  0
103222  1  0
108223  1  0
109224  1  0
111225  1  0
111226  1  0
111227  1  0
112228  1  0
113229  1  0
115230  1  0
116231  1  0
118232  1  0
118233  1  0
118234  1  0
119235  1  0
120236  1  0
127237  1  0
128238  1  0
130239  1  0
130240  1  0
130241  1  0
131242  1  0
132243  1  0
134244  1  0
135245  1  0
137246  1  0
137247  1  0
137248  1  0
138249  1  0
139250  1  0
142251  1  0
147252  1  0
150253  1  0
150254  1  0
150255  1  0
151256  1  0
152257  1  0
M  END

