
     RDKit          3D

266294  0  0  0  0  0  0  0  0999 V2000
    3.7030    4.8279    5.9113 C   0  0  0  0  0  0  0  0  0  0  0  0
    2.9277    5.4028    4.9687 C   0  0  0  0  0  0  0  0  0  0  0  0
    1.8928    4.7083    4.1902 C   0  0  0  0  0  0  0  0  0  0  0  0
    1.8419    3.4747    3.9406 O   0  0  0  0  0  0  0  0  0  0  0  0
    0.9513    5.6886    3.7101 C   0  0  0  0  0  0  0  0  0  0  0  0
   -0.2900    5.4630    3.1191 C   0  0  0  0  0  0  0  0  0  0  0  0
   -1.1406    6.5540    2.8836 C   0  0  0  0  0  0  0  0  0  0  0  0
   -2.4044    6.3038    2.3255 O   0  0  0  0  0  0  0  0  0  0  0  0
   -3.4195    7.2878    2.1588 C   0  0  0  0  0  0  0  0  0  0  0  0
   -0.7094    7.8560    3.2391 C   0  0  0  0  0  0  0  0  0  0  0  0
    0.5497    8.0598    3.8280 C   0  0  0  0  0  0  0  0  0  0  0  0
    1.3903    6.9568    4.0462 C   0  0  0  0  0  0  0  0  0  0  0  0
    2.7130    6.8606    4.7288 C   0  0  0  0  0  0  0  0  0  0  0  0
    3.6036    7.8680    4.9201 C   0  0  0  0  0  0  0  0  0  0  0  0
    4.9329    7.6373    5.4270 C   0  0  0  0  0  0  0  0  0  0  0  0
    6.0058    7.4725    5.8305 N   0  0  0  0  0  0  0  0  0  0  0  0
    3.3408    9.2215    4.5024 C   0  0  0  0  0  0  0  0  0  0  0  0
    3.1467   10.3135    4.1678 N   0  0  0  0  0  0  0  0  0  0  0  0
    3.5018    3.4321    6.3293 C   0  0  0  0  0  0  0  0  0  0  0  0
    4.3788    2.3396    6.1496 C   0  0  0  0  0  0  0  0  0  0  0  0
    5.7507    2.4202    5.7007 N   0  0  0  0  0  0  0  0  0  0  0  0
    6.1378    3.4015    4.7212 C   0  0  0  0  0  0  0  0  0  0  0  0
    5.4048    3.5436    3.5349 C   0  0  0  0  0  0  0  0  0  0  0  0
    5.7093    4.5681    2.6350 C   0  0  0  0  0  0  0  0  0  0  0  0
    6.7556    5.4605    2.9073 C   0  0  0  0  0  0  0  0  0  0  0  0
    7.0722    6.5761    1.9573 C   0  0  0  0  0  0  0  0  0  0  0  0
    7.5348    5.2755    4.0590 C   0  0  0  0  0  0  0  0  0  0  0  0
    7.2245    4.2578    4.9643 C   0  0  0  0  0  0  0  0  0  0  0  0
    6.7546    1.5747    6.3071 C   0  0  0  0  0  0  0  0  0  0  0  0
    6.7487    1.3463    7.6948 C   0  0  0  0  0  0  0  0  0  0  0  0
    7.7104    0.5205    8.2819 C   0  0  0  0  0  0  0  0  0  0  0  0
    8.6926   -0.0976    7.4922 C   0  0  0  0  0  0  0  0  0  0  0  0
    9.7497   -0.9519    8.1343 C   0  0  0  0  0  0  0  0  0  0  0  0
    8.7172    0.1482    6.1114 C   0  0  0  0  0  0  0  0  0  0  0  0
    7.7513    0.9733    5.5227 C   0  0  0  0  0  0  0  0  0  0  0  0
    3.7395    1.1411    6.4911 C   0  0  0  0  0  0  0  0  0  0  0  0
    4.0781   -0.4901    6.2681 S   0  0  0  0  0  0  0  0  0  0  0  0
    2.5529   -1.0333    6.8174 C   0  0  0  0  0  0  0  0  0  0  0  0
    1.7701    0.0911    7.1468 C   0  0  0  0  0  0  0  0  0  0  0  0
    0.3866    0.0755    7.5443 N   0  0  0  0  0  0  0  0  0  0  0  0
   -0.5923    0.4704    6.5597 C   0  0  0  0  0  0  0  0  0  0  0  0
   -1.3300    1.6561    6.7254 C   0  0  0  0  0  0  0  0  0  0  0  0
   -2.2520    2.0584    5.7548 C   0  0  0  0  0  0  0  0  0  0  0  0
   -2.4536    1.2810    4.6060 C   0  0  0  0  0  0  0  0  0  0  0  0
   -3.4257    1.7346    3.5629 C   0  0  0  0  0  0  0  0  0  0  0  0
   -1.7327    0.0874    4.4478 C   0  0  0  0  0  0  0  0  0  0  0  0
   -0.8042   -0.3078    5.4133 C   0  0  0  0  0  0  0  0  0  0  0  0
    0.0454    0.1259    8.9543 C   0  0  0  0  0  0  0  0  0  0  0  0
   -1.2687   -0.1567    9.3775 C   0  0  0  0  0  0  0  0  0  0  0  0
   -1.6193   -0.0768   10.7284 C   0  0  0  0  0  0  0  0  0  0  0  0
   -0.6550    0.2613   11.6896 C   0  0  0  0  0  0  0  0  0  0  0  0
   -1.0451    0.3858   13.1306 C   0  0  0  0  0  0  0  0  0  0  0  0
    0.6545    0.5382   11.2807 C   0  0  0  0  0  0  0  0  0  0  0  0
    1.0069    0.4644    9.9313 C   0  0  0  0  0  0  0  0  0  0  0  0
    2.4703    1.2724    6.9447 C   0  0  0  0  0  0  0  0  0  0  0  0
    2.0182    2.8799    6.9568 S   0  0  0  0  0  0  0  0  0  0  0  0
    2.0212   -2.3782    6.5521 C   0  0  0  0  0  0  0  0  0  0  0  0
    1.0633   -3.0306    7.3525 C   0  0  0  0  0  0  0  0  0  0  0  0
    1.0460   -2.9507    8.8432 C   0  0  0  0  0  0  0  0  0  0  0  0
   -0.1263   -3.1436    9.5959 C   0  0  0  0  0  0  0  0  0  0  0  0
   -0.0823   -3.1564   10.9930 C   0  0  0  0  0  0  0  0  0  0  0  0
    1.1264   -2.9674   11.6631 C   0  0  0  0  0  0  0  0  0  0  0  0
    2.3037   -2.7484   10.9369 C   0  0  0  0  0  0  0  0  0  0  0  0
    3.6164   -2.5756   11.6527 C   0  0  0  0  0  0  0  0  0  0  0  0
    4.3776   -3.8962   11.7178 C   0  0  0  0  0  0  0  0  0  0  0  0
    2.2604   -2.7579    9.5347 C   0  0  0  0  0  0  0  0  0  0  0  0
    0.2726   -3.8904    6.5722 C   0  0  0  0  0  0  0  0  0  0  0  0
   -1.3704   -4.2934    6.7218 S   0  0  0  0  0  0  0  0  0  0  0  0
   -1.5110   -4.7143    5.0922 C   0  0  0  0  0  0  0  0  0  0  0  0
   -2.5222   -4.5553    4.1789 C   0  0  0  0  0  0  0  0  0  0  0  0
   -3.8106   -4.0263    4.3752 C   0  0  0  0  0  0  0  0  0  0  0  0
   -4.5160   -3.4818    3.2585 C   0  0  0  0  0  0  0  0  0  0  0  0
   -5.7281   -2.9284    3.5003 N   0  0  0  0  0  0  0  0  0  0  0  0
   -5.8075   -3.1506    5.1404 S   0  0  0  0  0  0  0  0  0  0  0  0
   -4.4067   -3.9100    5.5877 N   0  0  0  0  0  0  0  0  0  0  0  0
   -3.9259   -3.5665    1.9969 C   0  0  0  0  0  0  0  0  0  0  0  0
   -4.3849   -3.2627    0.7496 C   0  0  0  0  0  0  0  0  0  0  0  0
   -5.6961   -2.4942   -0.0047 S   0  0  0  0  0  0  0  0  0  0  0  0
   -5.0604   -2.8785   -1.5475 C   0  0  0  0  0  0  0  0  0  0  0  0
   -5.4062   -2.5207   -2.8559 C   0  0  0  0  0  0  0  0  0  0  0  0
   -6.4319   -1.5147   -3.2021 C   0  0  0  0  0  0  0  0  0  0  0  0
   -7.3325   -1.7548   -4.2524 C   0  0  0  0  0  0  0  0  0  0  0  0
   -8.2247   -0.7586   -4.6550 C   0  0  0  0  0  0  0  0  0  0  0  0
   -8.2235    0.4853   -4.0195 C   0  0  0  0  0  0  0  0  0  0  0  0
   -7.3314    0.7399   -2.9652 C   0  0  0  0  0  0  0  0  0  0  0  0
   -7.2848    2.0969   -2.3210 C   0  0  0  0  0  0  0  0  0  0  0  0
   -6.1482    2.9397   -2.8971 C   0  0  0  0  0  0  0  0  0  0  0  0
   -6.4382   -0.2653   -2.5608 C   0  0  0  0  0  0  0  0  0  0  0  0
   -4.4975   -3.0692   -3.7838 C   0  0  0  0  0  0  0  0  0  0  0  0
   -3.2731   -3.8990   -2.9480 S   0  0  0  0  0  0  0  0  0  0  0  0
   -3.9079   -3.6120   -1.4403 C   0  0  0  0  0  0  0  0  0  0  0  0
   -3.4948   -3.7793   -0.1314 C   0  0  0  0  0  0  0  0  0  0  0  0
   -2.4208   -4.3571    0.4640 N   0  0  0  0  0  0  0  0  0  0  0  0
   -2.6720   -4.1568    1.7970 C   0  0  0  0  0  0  0  0  0  0  0  0
   -1.8960   -4.5105    2.9247 C   0  0  0  0  0  0  0  0  0  0  0  0
   -0.5356   -4.4201    3.0768 N   0  0  0  0  0  0  0  0  0  0  0  0
   -0.3398   -4.5383    4.4176 C   0  0  0  0  0  0  0  0  0  0  0  0
    0.6599   -4.0198    5.2533 C   0  0  0  0  0  0  0  0  0  0  0  0
    1.9322   -2.9708    4.9652 S   0  0  0  0  0  0  0  0  0  0  0  0
    0.4329   -3.8489    2.1280 C   0  0  0  0  0  0  0  0  0  0  0  0
    0.2029   -2.3521    1.9251 C   0  0  0  0  0  0  0  0  0  0  0  0
   -1.6301   -5.4530   -0.1153 C   0  0  0  0  0  0  0  0  0  0  0  0
   -0.6331   -4.9586   -1.1684 C   0  0  0  0  0  0  0  0  0  0  0  0
   -4.2799   -2.5867   -5.1525 C   0  0  0  0  0  0  0  0  0  0  0  0
   -3.8208   -3.3664   -6.2272 C   0  0  0  0  0  0  0  0  0  0  0  0
   -3.9655   -4.7920   -6.3335 N   0  0  0  0  0  0  0  0  0  0  0  0
   -3.0239   -5.6811   -5.6960 C   0  0  0  0  0  0  0  0  0  0  0  0
   -1.6624   -5.3408   -5.5930 C   0  0  0  0  0  0  0  0  0  0  0  0
   -0.7558   -6.2114   -4.9865 C   0  0  0  0  0  0  0  0  0  0  0  0
   -1.1942   -7.4367   -4.4657 C   0  0  0  0  0  0  0  0  0  0  0  0
   -0.2163   -8.3521   -3.7970 C   0  0  0  0  0  0  0  0  0  0  0  0
   -2.5531   -7.7744   -4.5490 C   0  0  0  0  0  0  0  0  0  0  0  0
   -3.4593   -6.9063   -5.1646 C   0  0  0  0  0  0  0  0  0  0  0  0
   -4.9338   -5.2925   -7.2783 C   0  0  0  0  0  0  0  0  0  0  0  0
   -6.2112   -4.7082   -7.3600 C   0  0  0  0  0  0  0  0  0  0  0  0
   -7.1193   -5.1248   -8.3353 C   0  0  0  0  0  0  0  0  0  0  0  0
   -6.7624   -6.1224   -9.2546 C   0  0  0  0  0  0  0  0  0  0  0  0
   -7.7269   -6.5657  -10.3120 C   0  0  0  0  0  0  0  0  0  0  0  0
   -5.5017   -6.7259   -9.1604 C   0  0  0  0  0  0  0  0  0  0  0  0
   -4.5931   -6.3126   -8.1822 C   0  0  0  0  0  0  0  0  0  0  0  0
   -3.2322   -2.5855   -7.2158 C   0  0  0  0  0  0  0  0  0  0  0  0
   -2.1554   -2.9603   -8.4459 S   0  0  0  0  0  0  0  0  0  0  0  0
   -1.6257   -1.3488   -8.6311 C   0  0  0  0  0  0  0  0  0  0  0  0
   -2.3187   -0.5182   -7.7391 C   0  0  0  0  0  0  0  0  0  0  0  0
   -2.0237    0.8728   -7.5369 N   0  0  0  0  0  0  0  0  0  0  0  0
   -2.7895    1.8983   -8.2204 C   0  0  0  0  0  0  0  0  0  0  0  0
   -3.9102    1.5590   -9.0116 C   0  0  0  0  0  0  0  0  0  0  0  0
   -4.6350    2.5439   -9.6878 C   0  0  0  0  0  0  0  0  0  0  0  0
   -4.2556    3.8887   -9.6015 C   0  0  0  0  0  0  0  0  0  0  0  0
   -5.0437    4.9448  -10.3149 C   0  0  0  0  0  0  0  0  0  0  0  0
   -3.1648    4.2444   -8.7981 C   0  0  0  0  0  0  0  0  0  0  0  0
   -2.4408    3.2634   -8.1135 C   0  0  0  0  0  0  0  0  0  0  0  0
   -0.8888    1.2042   -6.7199 C   0  0  0  0  0  0  0  0  0  0  0  0
    0.3211    1.5996   -7.3110 C   0  0  0  0  0  0  0  0  0  0  0  0
    1.4230    1.9194   -6.5131 C   0  0  0  0  0  0  0  0  0  0  0  0
    1.3221    1.8601   -5.1133 C   0  0  0  0  0  0  0  0  0  0  0  0
    2.4728    2.2666   -4.2489 C   0  0  0  0  0  0  0  0  0  0  0  0
    0.1053    1.4854   -4.5236 C   0  0  0  0  0  0  0  0  0  0  0  0
   -0.9898    1.1534   -5.3240 C   0  0  0  0  0  0  0  0  0  0  0  0
   -3.2017   -1.2511   -6.9565 C   0  0  0  0  0  0  0  0  0  0  0  0
   -3.9279   -0.9518   -5.4778 S   0  0  0  0  0  0  0  0  0  0  0  0
   -0.3631   -0.9856   -9.2873 C   0  0  0  0  0  0  0  0  0  0  0  0
    0.8408   -1.2911   -8.7548 C   0  0  0  0  0  0  0  0  0  0  0  0
    1.0486   -1.8494   -7.4086 C   0  0  0  0  0  0  0  0  0  0  0  0
    0.1593   -2.2441   -6.6105 O   0  0  0  0  0  0  0  0  0  0  0  0
    2.4514   -1.7964   -7.0882 C   0  0  0  0  0  0  0  0  0  0  0  0
    3.0647   -2.2693   -5.9030 C   0  0  0  0  0  0  0  0  0  0  0  0
    4.4380   -2.1425   -5.8928 C   0  0  0  0  0  0  0  0  0  0  0  0
    5.1736   -1.5691   -6.9756 C   0  0  0  0  0  0  0  0  0  0  0  0
    4.5794   -1.0932   -8.1330 C   0  0  0  0  0  0  0  0  0  0  0  0
    3.1600   -1.2179   -8.1716 C   0  0  0  0  0  0  0  0  0  0  0  0
    2.1941   -0.9020   -9.2712 C   0  0  0  0  0  0  0  0  0  0  0  0
    2.4981   -0.4533  -10.5185 C   0  0  0  0  0  0  0  0  0  0  0  0
    1.5600   -0.5002  -11.6117 C   0  0  0  0  0  0  0  0  0  0  0  0
    0.8185   -0.5353  -12.5007 N   0  0  0  0  0  0  0  0  0  0  0  0
    3.7920    0.0655  -10.8658 C   0  0  0  0  0  0  0  0  0  0  0  0
    4.8268    0.4961  -11.1592 N   0  0  0  0  0  0  0  0  0  0  0  0
    6.4614   -1.7874   -6.2377 C   0  0  0  0  0  0  0  0  0  0  0  0
    7.1435   -0.5482   -5.5840 C   0  0  0  0  0  0  0  0  0  0  0  0
    6.0964    0.4559   -5.1572 C   0  0  0  0  0  0  0  0  0  0  0  0
    5.4305   -0.0962   -4.1434 C   0  0  0  0  0  0  0  0  0  0  0  0
    6.0323   -1.4606   -3.9229 C   0  0  0  0  0  0  0  0  0  0  0  0
    7.4838   -1.1330   -4.2246 C   0  0  0  0  0  0  0  0  0  0  0  0
    5.7093   -2.3875   -5.1327 C   0  0  0  0  0  0  0  0  0  0  0  0
    4.3879    5.4102    6.5036 H   0  0  0  0  0  0  0  0  0  0  0  0
   -0.6155    4.4556    2.8888 H   0  0  0  0  0  0  0  0  0  0  0  0
   -4.3199    6.8135    1.7174 H   0  0  0  0  0  0  0  0  0  0  0  0
   -3.0660    8.0839    1.4730 H   0  0  0  0  0  0  0  0  0  0  0  0
   -3.6938    7.7243    3.1426 H   0  0  0  0  0  0  0  0  0  0  0  0
   -1.3530    8.7127    3.0863 H   0  0  0  0  0  0  0  0  0  0  0  0
    0.8171    9.0551    4.1333 H   0  0  0  0  0  0  0  0  0  0  0  0
    4.5785    2.8775    3.3240 H   0  0  0  0  0  0  0  0  0  0  0  0
    5.1169    4.6755    1.7352 H   0  0  0  0  0  0  0  0  0  0  0  0
    7.4094    7.4775    2.5144 H   0  0  0  0  0  0  0  0  0  0  0  0
    6.1781    6.8612    1.3623 H   0  0  0  0  0  0  0  0  0  0  0  0
    7.8787    6.2577    1.2651 H   0  0  0  0  0  0  0  0  0  0  0  0
    8.3601    5.9422    4.2704 H   0  0  0  0  0  0  0  0  0  0  0  0
    7.8084    4.1600    5.8724 H   0  0  0  0  0  0  0  0  0  0  0  0
    6.0025    1.8165    8.3240 H   0  0  0  0  0  0  0  0  0  0  0  0
    7.6908    0.3677    9.3543 H   0  0  0  0  0  0  0  0  0  0  0  0
   10.6301   -0.3275    8.3892 H   0  0  0  0  0  0  0  0  0  0  0  0
    9.3639   -1.4257    9.0607 H   0  0  0  0  0  0  0  0  0  0  0  0
   10.0671   -1.7608    7.4439 H   0  0  0  0  0  0  0  0  0  0  0  0
    9.4833   -0.2980    5.4892 H   0  0  0  0  0  0  0  0  0  0  0  0
    7.7756    1.1400    4.4530 H   0  0  0  0  0  0  0  0  0  0  0  0
   -1.1787    2.2773    7.5997 H   0  0  0  0  0  0  0  0  0  0  0  0
   -2.8002    2.9807    5.8917 H   0  0  0  0  0  0  0  0  0  0  0  0
   -3.4606    1.0360    2.6985 H   0  0  0  0  0  0  0  0  0  0  0  0
   -4.4409    1.7937    4.0101 H   0  0  0  0  0  0  0  0  0  0  0  0
   -3.1363    2.7415    3.1895 H   0  0  0  0  0  0  0  0  0  0  0  0
   -1.8775   -0.5326    3.5720 H   0  0  0  0  0  0  0  0  0  0  0  0
   -0.2600   -1.2248    5.2728 H   0  0  0  0  0  0  0  0  0  0  0  0
   -2.0235   -0.4551    8.6628 H   0  0  0  0  0  0  0  0  0  0  0  0
   -2.6402   -0.2903   11.0234 H   0  0  0  0  0  0  0  0  0  0  0  0
   -1.5190    1.3772   13.3000 H   0  0  0  0  0  0  0  0  0  0  0  0
   -1.7652   -0.4144   13.4039 H   0  0  0  0  0  0  0  0  0  0  0  0
   -0.1525    0.2920   13.7897 H   0  0  0  0  0  0  0  0  0  0  0  0
    1.4083    0.8154   12.0094 H   0  0  0  0  0  0  0  0  0  0  0  0
    2.0297    0.6853    9.6604 H   0  0  0  0  0  0  0  0  0  0  0  0
   -1.0874   -3.2485    9.1249 H   0  0  0  0  0  0  0  0  0  0  0  0
   -0.9933   -3.3082   11.5580 H   0  0  0  0  0  0  0  0  0  0  0  0
    1.1417   -2.9915   12.7470 H   0  0  0  0  0  0  0  0  0  0  0  0
    3.4495   -2.1951   12.6820 H   0  0  0  0  0  0  0  0  0  0  0  0
    4.2346   -1.8208   11.1197 H   0  0  0  0  0  0  0  0  0  0  0  0
    5.3376   -3.7547   12.2555 H   0  0  0  0  0  0  0  0  0  0  0  0
    4.5980   -4.2659   10.6917 H   0  0  0  0  0  0  0  0  0  0  0  0
    3.7827   -4.6656   12.2611 H   0  0  0  0  0  0  0  0  0  0  0  0
    3.1870   -2.6428    8.9897 H   0  0  0  0  0  0  0  0  0  0  0  0
   -7.3335   -2.7090   -4.7628 H   0  0  0  0  0  0  0  0  0  0  0  0
   -8.9118   -0.9464   -5.4712 H   0  0  0  0  0  0  0  0  0  0  0  0
   -8.9104    1.2533   -4.3553 H   0  0  0  0  0  0  0  0  0  0  0  0
   -8.2458    2.6330   -2.4740 H   0  0  0  0  0  0  0  0  0  0  0  0
   -7.1376    1.9858   -1.2226 H   0  0  0  0  0  0  0  0  0  0  0  0
   -6.2645    3.0484   -3.9982 H   0  0  0  0  0  0  0  0  0  0  0  0
   -6.1685    3.9514   -2.4366 H   0  0  0  0  0  0  0  0  0  0  0  0
   -5.1667    2.4709   -2.6754 H   0  0  0  0  0  0  0  0  0  0  0  0
   -5.7202   -0.0555   -1.7776 H   0  0  0  0  0  0  0  0  0  0  0  0
    1.4645   -4.0247    2.4850 H   0  0  0  0  0  0  0  0  0  0  0  0
    0.3798   -4.3600    1.1597 H   0  0  0  0  0  0  0  0  0  0  0  0
    1.0264   -1.9323    1.3066 H   0  0  0  0  0  0  0  0  0  0  0  0
   -0.7562   -2.1714    1.3990 H   0  0  0  0  0  0  0  0  0  0  0  0
    0.1866   -1.8280    2.9004 H   0  0  0  0  0  0  0  0  0  0  0  0
   -2.3165   -6.1963   -0.5778 H   0  0  0  0  0  0  0  0  0  0  0  0
   -1.0906   -6.0012    0.6831 H   0  0  0  0  0  0  0  0  0  0  0  0
    0.3475   -5.4583   -1.0210 H   0  0  0  0  0  0  0  0  0  0  0  0
   -0.4881   -3.8596   -1.1046 H   0  0  0  0  0  0  0  0  0  0  0  0
   -0.9788   -5.2250   -2.1869 H   0  0  0  0  0  0  0  0  0  0  0  0
   -1.2990   -4.4059   -5.9916 H   0  0  0  0  0  0  0  0  0  0  0  0
    0.2883   -5.9333   -4.9264 H   0  0  0  0  0  0  0  0  0  0  0  0
   -0.6804   -9.3295   -3.5406 H   0  0  0  0  0  0  0  0  0  0  0  0
    0.6437   -8.5456   -4.4733 H   0  0  0  0  0  0  0  0  0  0  0  0
    0.1565   -7.8816   -2.8636 H   0  0  0  0  0  0  0  0  0  0  0  0
   -2.9131   -8.7139   -4.1464 H   0  0  0  0  0  0  0  0  0  0  0  0
   -4.5053   -7.1840   -5.2208 H   0  0  0  0  0  0  0  0  0  0  0  0
   -6.4990   -3.9252   -6.6726 H   0  0  0  0  0  0  0  0  0  0  0  0
   -8.0947   -4.6554   -8.3836 H   0  0  0  0  0  0  0  0  0  0  0  0
   -8.1827   -7.5344  -10.0175 H   0  0  0  0  0  0  0  0  0  0  0  0
   -7.1984   -6.6953  -11.2823 H   0  0  0  0  0  0  0  0  0  0  0  0
   -8.5370   -5.8201  -10.4615 H   0  0  0  0  0  0  0  0  0  0  0  0
   -5.2125   -7.5021   -9.8583 H   0  0  0  0  0  0  0  0  0  0  0  0
   -3.6117   -6.7683   -8.1502 H   0  0  0  0  0  0  0  0  0  0  0  0
   -4.2314    0.5300   -9.1143 H   0  0  0  0  0  0  0  0  0  0  0  0
   -5.4903    2.2522  -10.2848 H   0  0  0  0  0  0  0  0  0  0  0  0
   -5.5695    4.5138  -11.1939 H   0  0  0  0  0  0  0  0  0  0  0  0
   -4.3736    5.7519  -10.6795 H   0  0  0  0  0  0  0  0  0  0  0  0
   -5.7956    5.3801   -9.6235 H   0  0  0  0  0  0  0  0  0  0  0  0
   -2.8671    5.2827   -8.7033 H   0  0  0  0  0  0  0  0  0  0  0  0
   -1.6017    3.5798   -7.5085 H   0  0  0  0  0  0  0  0  0  0  0  0
    0.4035    1.6671   -8.3880 H   0  0  0  0  0  0  0  0  0  0  0  0
    2.3482    2.2228   -6.9877 H   0  0  0  0  0  0  0  0  0  0  0  0
    3.4306    2.2208   -4.8101 H   0  0  0  0  0  0  0  0  0  0  0  0
    2.3182    3.3085   -3.8930 H   0  0  0  0  0  0  0  0  0  0  0  0
    2.5469    1.5928   -3.3669 H   0  0  0  0  0  0  0  0  0  0  0  0
   -0.0006    1.4578   -3.4445 H   0  0  0  0  0  0  0  0  0  0  0  0
   -1.9253    0.8859   -4.8537 H   0  0  0  0  0  0  0  0  0  0  0  0
   -0.4472   -0.3438  -10.1452 H   0  0  0  0  0  0  0  0  0  0  0  0
    2.5132   -2.7094   -5.0848 H   0  0  0  0  0  0  0  0  0  0  0  0
    5.1893   -0.6871   -8.9190 H   0  0  0  0  0  0  0  0  0  0  0  0
    7.1560   -2.4969   -6.7385 H   0  0  0  0  0  0  0  0  0  0  0  0
    7.9971   -0.1244   -6.1528 H   0  0  0  0  0  0  0  0  0  0  0  0
    5.9701    1.4686   -5.5257 H   0  0  0  0  0  0  0  0  0  0  0  0
    4.6789    0.3918   -3.5343 H   0  0  0  0  0  0  0  0  0  0  0  0
    5.8362   -1.9038   -2.9230 H   0  0  0  0  0  0  0  0  0  0  0  0
    8.1408   -2.0333   -4.2797 H   0  0  0  0  0  0  0  0  0  0  0  0
    7.9266   -0.3905   -3.5193 H   0  0  0  0  0  0  0  0  0  0  0  0
    5.9350   -3.4648   -4.9710 H   0  0  0  0  0  0  0  0  0  0  0  0
  1  2  2  3
  2  3  1  0
  3  4  2  0
  3  5  1  0
  5  6  2  0
  6  7  1  0
  7  8  1  0
  8  9  1  0
  7 10  2  0
 10 11  1  0
 11 12  2  0
 12 13  1  0
 13 14  2  3
 14 15  1  0
 15 16  3  0
 14 17  1  0
 17 18  3  0
  1 19  1  0
 19 20  2  0
 20 21  1  0
 21 22  1  0
 22 23  2  0
 23 24  1  0
 24 25  2  0
 25 26  1  0
 25 27  1  0
 27 28  2  0
 21 29  1  0
 29 30  2  0
 30 31  1  0
 31 32  2  0
 32 33  1  0
 32 34  1  0
 34 35  2  0
 20 36  1  0
 36 37  1  0
 37 38  1  0
 38 39  2  0
 39 40  1  0
 40 41  1  0
 41 42  2  0
 42 43  1  0
 43 44  2  0
 44 45  1  0
 44 46  1  0
 46 47  2  0
 40 48  1  0
 48 49  2  0
 49 50  1  0
 50 51  2  0
 51 52  1  0
 51 53  1  0
 53 54  2  0
 39 55  1  0
 55 56  1  0
 38 57  1  0
 57 58  2  0
 58 59  1  0
 59 60  2  0
 60 61  1  0
 61 62  2  0
 62 63  1  0
 63 64  1  0
 64 65  1  0
 63 66  2  0
 58 67  1  0
 67 68  1  0
 68 69  1  0
 69 70  1  0
 70 71  1  0
 71 72  1  0
 72 73  2  0
 73 74  1  0
 74 75  1  0
 72 76  1  0
 76 77  1  0
 77 78  1  0
 78 79  1  0
 79 80  1  0
 80 81  1  0
 81 82  2  0
 82 83  1  0
 83 84  2  0
 84 85  1  0
 85 86  1  0
 86 87  1  0
 85 88  2  0
 80 89  2  0
 89 90  1  0
 90 91  1  0
 91 92  1  0
 92 93  1  0
 93 94  1  0
 94 95  1  0
 95 96  1  0
 96 97  1  0
 97 98  1  0
 98 99  1  0
 96100  1  0
100101  1  0
 93102  1  0
102103  1  0
 89104  1  0
104105  2  0
105106  1  0
106107  1  0
107108  2  0
108109  1  0
109110  2  0
110111  1  0
110112  1  0
112113  2  0
106114  1  0
114115  2  0
115116  1  0
116117  2  0
117118  1  0
117119  1  0
119120  2  0
105121  1  0
121122  1  0
122123  1  0
123124  2  0
124125  1  0
125126  1  0
126127  2  0
127128  1  0
128129  2  0
129130  1  0
129131  1  0
131132  2  0
125133  1  0
133134  2  0
134135  1  0
135136  2  0
136137  1  0
136138  1  0
138139  2  0
124140  1  0
140141  1  0
123142  1  0
142143  2  3
143144  1  0
144145  2  0
144146  1  0
146147  2  0
147148  1  0
148149  2  0
149150  1  0
150151  2  0
151152  1  0
152153  2  3
153154  1  0
154155  3  0
153156  1  0
156157  3  0
149158  1  0
158159  1  0
159160  1  0
160161  2  0
161162  1  0
162163  1  0
162164  1  0
 13  2  1  0
 56 19  1  0
 99 57  1  0
141104  1  0
152143  1  0
164158  1  0
 12  5  1  0
 28 22  1  0
 35 29  1  0
 55 36  2  0
 66 59  1  0
 98 67  2  0
113107  1  0
120114  1  0
140121  2  0
151146  1  0
163159  1  0
 47 41  1  0
 54 48  1  0
 97 69  2  0
132126  1  0
139133  1  0
164148  1  0
 95 70  2  0
 75 71  2  0
 94 76  2  0
 92 77  2  0
 91 79  2  0
 88 81  1  0
  1165  1  0
  6166  1  0
  9167  1  0
  9168  1  0
  9169  1  0
 10170  1  0
 11171  1  0
 23172  1  0
 24173  1  0
 26174  1  0
 26175  1  0
 26176  1  0
 27177  1  0
 28178  1  0
 30179  1  0
 31180  1  0
 33181  1  0
 33182  1  0
 33183  1  0
 34184  1  0
 35185  1  0
 42186  1  0
 43187  1  0
 45188  1  0
 45189  1  0
 45190  1  0
 46191  1  0
 47192  1  0
 49193  1  0
 50194  1  0
 52195  1  0
 52196  1  0
 52197  1  0
 53198  1  0
 54199  1  0
 60200  1  0
 61201  1  0
 62202  1  0
 64203  1  0
 64204  1  0
 65205  1  0
 65206  1  0
 65207  1  0
 66208  1  0
 82209  1  0
 83210  1  0
 84211  1  0
 86212  1  0
 86213  1  0
 87214  1  0
 87215  1  0
 87216  1  0
 88217  1  0
100218  1  0
100219  1  0
101220  1  0
101221  1  0
101222  1  0
102223  1  0
102224  1  0
103225  1  0
103226  1  0
103227  1  0
108228  1  0
109229  1  0
111230  1  0
111231  1  0
111232  1  0
112233  1  0
113234  1  0
115235  1  0
116236  1  0
118237  1  0
118238  1  0
118239  1  0
119240  1  0
120241  1  0
127242  1  0
128243  1  0
130244  1  0
130245  1  0
130246  1  0
131247  1  0
132248  1  0
134249  1  0
135250  1  0
137251  1  0
137252  1  0
137253  1  0
138254  1  0
139255  1  0
142256  1  0
147257  1  0
150258  1  0
158259  1  0
159260  1  0
160261  1  0
161262  1  0
162263  1  0
163264  1  0
163265  1  0
164266  1  0
M  END

