
     RDKit          3D

 89 99  0  0  0  0  0  0  0  0999 V2000
   -1.4164   -4.9497    5.0338 C   0  0  0  0  0  0  0  0  0  0  0  0
   -2.0524   -5.5428    3.8386 C   0  0  0  0  0  0  0  0  0  0  0  0
   -2.7368   -6.6733    3.9684 C   0  0  0  0  0  0  0  0  0  0  0  0
   -3.2502   -7.2822    5.0269 O   0  0  0  0  0  0  0  0  0  0  0  0
   -2.9396   -7.3088    2.6945 C   0  0  0  0  0  0  0  0  0  0  0  0
   -3.6993   -8.3894    2.2467 C   0  0  0  0  0  0  0  0  0  0  0  0
   -3.8600   -8.6496    0.9323 C   0  0  0  0  0  0  0  0  0  0  0  0
   -4.5939   -9.6866    0.4668 O   0  0  0  0  0  0  0  0  0  0  0  0
   -4.7421   -9.8915   -0.9673 C   0  0  0  0  0  0  0  0  0  0  0  0
   -3.2241   -7.8224    0.0343 C   0  0  0  0  0  0  0  0  0  0  0  0
   -2.4562   -6.7463    0.4943 C   0  0  0  0  0  0  0  0  0  0  0  0
   -2.2916   -6.4464    1.7763 C   0  0  0  0  0  0  0  0  0  0  0  0
   -1.6446   -5.1413    2.5755 C   0  0  0  0  0  0  0  0  0  0  0  0
   -1.6591   -4.2665    1.6095 C   0  0  0  0  0  0  0  0  0  0  0  0
   -0.8006   -4.4930    0.4902 C   0  0  0  0  0  0  0  0  0  0  0  0
   -0.0439   -4.6770   -0.5131 N   0  0  0  0  0  0  0  0  0  0  0  0
   -2.5942   -3.2808    1.3672 C   0  0  0  0  0  0  0  0  0  0  0  0
   -3.4731   -2.3465    1.1422 N   0  0  0  0  0  0  0  0  0  0  0  0
   -0.7654   -3.7315    4.6425 C   0  0  0  0  0  0  0  0  0  0  0  0
    0.6437   -3.4965    4.6849 C   0  0  0  0  0  0  0  0  0  0  0  0
    1.3902   -4.5057    5.3263 O   0  0  0  0  0  0  0  0  0  0  0  0
    1.6390   -4.5574    6.6815 C   0  0  0  0  0  0  0  0  0  0  0  0
    1.2710   -2.3987    4.1749 C   0  0  0  0  0  0  0  0  0  0  0  0
    2.6326   -2.2216    4.2019 F   0  0  0  0  0  0  0  0  0  0  0  0
    0.5106   -1.4766    3.5767 C   0  0  0  0  0  0  0  0  0  0  0  0
   -0.8544   -1.5769    3.4954 C   0  0  0  0  0  0  0  0  0  0  0  0
   -1.7070   -0.7390    2.9428 O   0  0  0  0  0  0  0  0  0  0  0  0
   -2.5789    0.2764    2.9686 C   0  0  0  0  0  0  0  0  0  0  0  0
   -1.4975   -2.7293    4.0485 C   0  0  0  0  0  0  0  0  0  0  0  0
   -2.8324   -2.8206    4.1378 F   0  0  0  0  0  0  0  0  0  0  0  0
    1.0383   -0.3344    2.7157 C   0  0  0  0  0  0  0  0  0  0  0  0
    0.5101    0.8441    2.9042 C   0  0  0  0  0  0  0  0  0  0  0  0
   -0.0710    1.2814    4.0725 F   0  0  0  0  0  0  0  0  0  0  0  0
    0.6495    1.7956    1.8382 C   0  0  0  0  0  0  0  0  0  0  0  0
    0.0046    2.8455    1.7993 C   0  0  0  0  0  0  0  0  0  0  0  0
   -0.2419    3.8279    0.7944 C   0  0  0  0  0  0  0  0  0  0  0  0
   -1.0492    4.7751    0.8522 N   0  0  0  0  0  0  0  0  0  0  0  0
   -1.7274    4.5630    2.4050 S   0  0  0  0  0  0  0  0  0  0  0  0
   -0.9457    3.3064    2.8753 N   0  0  0  0  0  0  0  0  0  0  0  0
    0.4877    3.4187   -0.3992 C   0  0  0  0  0  0  0  0  0  0  0  0
    1.2336    2.2790   -0.3867 C   0  0  0  0  0  0  0  0  0  0  0  0
    1.9137    1.9267   -1.5492 F   0  0  0  0  0  0  0  0  0  0  0  0
    1.3438    1.4269    0.6858 C   0  0  0  0  0  0  0  0  0  0  0  0
    1.9335    0.0976    0.5520 C   0  0  0  0  0  0  0  0  0  0  0  0
    1.7436   -0.7352    1.5914 C   0  0  0  0  0  0  0  0  0  0  0  0
    2.3998   -1.9265    1.4194 N   0  0  0  0  0  0  0  0  0  0  0  0
    3.1730   -1.7980   -0.0819 S   0  0  0  0  0  0  0  0  0  0  0  0
    2.6313   -0.2062   -0.4640 N   0  0  0  0  0  0  0  0  0  0  0  0
    0.3706    4.1856   -1.5578 C   0  0  0  0  0  0  0  0  0  0  0  0
    0.0707    5.0956   -2.3729 C   0  0  0  0  0  0  0  0  0  0  0  0
   -0.2043    5.9211   -3.0964 C   0  0  0  0  0  0  0  0  0  0  0  0
    0.4265    5.0910   -4.3542 C   0  0  0  0  0  0  0  0  0  0  0  0
    1.0304    3.4949   -3.3443 Se  0  0  0  0  0  2  0  0  0  0  0  0
    0.6204    5.5872   -5.5888 C   0  0  0  0  0  0  0  0  0  0  0  0
    1.8564    6.2921   -5.8216 C   0  0  0  0  0  0  0  0  0  0  0  0
    2.7968    6.3882   -4.6966 C   0  0  0  0  0  0  0  0  0  0  0  0
    2.7804    5.7118   -3.6188 O   0  0  0  0  0  0  0  0  0  0  0  0
    3.7681    7.4577   -5.0707 C   0  0  0  0  0  0  0  0  0  0  0  0
    3.4141    7.9123   -6.2324 C   0  0  0  0  0  0  0  0  0  0  0  0
    4.4616    9.2253   -6.5234 S   0  0  0  0  0  0  0  0  0  0  0  0
    5.4019    9.1750   -5.0599 C   0  0  0  0  0  0  0  0  0  0  0  0
    6.3868    9.5900   -4.3001 C   0  0  0  0  0  0  0  0  0  0  0  0
    6.8954    9.3475   -3.2687 C   0  0  0  0  0  0  0  0  0  0  0  0
    5.7550    7.9170   -2.9345 S   0  0  0  0  0  0  0  0  0  0  0  0
    4.8084    8.1141   -4.4470 C   0  0  0  0  0  0  0  0  0  0  0  0
    2.1832    7.1999   -6.8096 C   0  0  0  0  0  0  0  0  0  0  0  0
    1.7168    7.4576   -7.9574 C   0  0  0  0  0  0  0  0  0  0  0  0
    0.6602    6.8791   -8.6750 C   0  0  0  0  0  0  0  0  0  0  0  0
   -0.1957    6.4030   -9.2688 N   0  0  0  0  0  0  0  0  0  0  0  0
    2.3735    8.5672   -8.6582 C   0  0  0  0  0  0  0  0  0  0  0  0
    2.9056    9.4682   -9.2475 N   0  0  0  0  0  0  0  0  0  0  0  0
   -1.4916   -5.4192    5.9157 H   0  0  0  0  0  0  0  0  0  0  0  0
   -4.1786   -8.9925    2.9985 H   0  0  0  0  0  0  0  0  0  0  0  0
   -5.5600  -10.6527   -1.0499 H   0  0  0  0  0  0  0  0  0  0  0  0
   -3.8720  -10.2426   -1.4899 H   0  0  0  0  0  0  0  0  0  0  0  0
   -5.0794   -8.9387   -1.4023 H   0  0  0  0  0  0  0  0  0  0  0  0
   -3.3242   -7.9981   -1.0201 H   0  0  0  0  0  0  0  0  0  0  0  0
   -2.0489   -6.1655   -0.3184 H   0  0  0  0  0  0  0  0  0  0  0  0
    2.6686   -4.9243    6.8782 H   0  0  0  0  0  0  0  0  0  0  0  0
    0.9499   -5.3434    7.1213 H   0  0  0  0  0  0  0  0  0  0  0  0
    1.5034   -3.5937    7.2440 H   0  0  0  0  0  0  0  0  0  0  0  0
   -2.6662    0.8511    3.9452 H   0  0  0  0  0  0  0  0  0  0  0  0
   -3.6675   -0.0789    2.7195 H   0  0  0  0  0  0  0  0  0  0  0  0
   -2.3716    1.0557    2.1916 H   0  0  0  0  0  0  0  0  0  0  0  0
   -0.5105    5.8445   -1.2011 H   0  0  0  0  0  0  0  0  0  0  0  0
   -0.5616    6.8140   -3.4963 H   0  0  0  0  0  0  0  0  0  0  0  0
    0.0218    5.5688   -6.4192 H   0  0  0  0  0  0  0  0  0  0  0  0
    6.9387   10.6238   -4.8726 H   0  0  0  0  0  0  0  0  0  0  0  0
    7.6354    9.5698   -2.5136 H   0  0  0  0  0  0  0  0  0  0  0  0
  1  2  2  3
  2  3  1  0
  3  4  2  0
  3  5  1  0
  5  6  2  0
  6  7  1  0
  7  8  1  0
  8  9  1  0
  7 10  2  0
 10 11  1  0
 11 12  2  0
 12 13  1  0
 13 14  2  3
 14 15  1  0
 15 16  3  0
 14 17  1  0
 17 18  3  0
  1 19  1  0
 19 20  2  0
 20 21  1  0
 21 22  1  0
 20 23  1  0
 23 24  1  0
 23 25  2  0
 25 26  1  0
 26 27  1  0
 27 28  1  0
 26 29  2  0
 29 30  1  0
 25 31  1  0
 31 32  2  0
 32 33  1  0
 32 34  1  0
 34 35  1  0
 35 36  1  0
 36 37  2  0
 37 38  1  0
 38 39  1  0
 36 40  1  0
 40 41  2  0
 41 42  1  0
 41 43  1  0
 43 44  1  0
 44 45  1  0
 45 46  2  0
 46 47  1  0
 47 48  1  0
 40 49  1  0
 49 50  2  0
 50 51  1  0
 51 52  2  0
 52 53  1  0
 52 54  1  0
 54 55  2  3
 55 56  1  0
 56 57  2  0
 56 58  1  0
 58 59  2  0
 59 60  1  0
 60 61  1  0
 61 62  1  0
 62 63  2  0
 63 64  1  0
 64 65  1  0
 59 66  1  0
 66 67  2  3
 67 68  1  0
 68 69  3  0
 67 70  1  0
 70 71  3  0
 13  2  1  0
 29 19  1  0
 45 31  1  0
 53 49  1  0
 66 55  1  0
 12  5  1  0
 43 34  2  0
 48 44  2  0
 65 58  1  0
 39 35  2  0
 65 61  2  0
  1 72  1  0
  6 73  1  0
  9 74  1  0
  9 75  1  0
  9 76  1  0
 10 77  1  0
 11 78  1  0
 22 79  1  0
 22 80  1  0
 22 81  1  0
 28 82  1  0
 28 83  1  0
 28 84  1  0
 50 85  1  0
 51 86  1  0
 54 87  1  0
 62 88  1  0
 63 89  1  0
M  END

