
     RDKit          3D

253278  0  0  0  0  0  0  0  0999 V2000
   -2.7763   -7.3976    2.8365 C   0  0  0  0  0  0  0  0  0  0  0  0
   -3.2959   -8.6008    3.1449 C   0  0  0  0  0  0  0  0  0  0  0  0
   -3.2965   -9.2236    4.4728 C   0  0  0  0  0  0  0  0  0  0  0  0
   -3.1010   -8.6366    5.5758 O   0  0  0  0  0  0  0  0  0  0  0  0
   -3.4485  -10.6577    4.3060 C   0  0  0  0  0  0  0  0  0  0  0  0
   -3.3737  -11.6580    5.2839 C   0  0  0  0  0  0  0  0  0  0  0  0
   -3.1989  -11.3038    6.6325 O   0  0  0  0  0  0  0  0  0  0  0  0
   -3.0476  -12.2445    7.6892 C   0  0  0  0  0  0  0  0  0  0  0  0
   -3.4575  -12.9984    4.8568 C   0  0  0  0  0  0  0  0  0  0  0  0
   -3.5437  -13.3097    3.4904 C   0  0  0  0  0  0  0  0  0  0  0  0
   -3.5775  -12.2857    2.5280 C   0  0  0  0  0  0  0  0  0  0  0  0
   -3.5829  -10.9495    2.9557 C   0  0  0  0  0  0  0  0  0  0  0  0
   -3.6169   -9.6846    2.1673 C   0  0  0  0  0  0  0  0  0  0  0  0
   -4.0481   -9.5251    0.8891 C   0  0  0  0  0  0  0  0  0  0  0  0
   -4.3810  -10.6361    0.0303 C   0  0  0  0  0  0  0  0  0  0  0  0
   -4.6307  -11.5265   -0.6690 N   0  0  0  0  0  0  0  0  0  0  0  0
   -4.2749   -8.2208    0.3188 C   0  0  0  0  0  0  0  0  0  0  0  0
   -4.4347   -7.1739   -0.1512 N   0  0  0  0  0  0  0  0  0  0  0  0
   -2.3064   -6.4007    3.8149 C   0  0  0  0  0  0  0  0  0  0  0  0
   -3.0763   -5.7045    4.7749 C   0  0  0  0  0  0  0  0  0  0  0  0
   -4.4740   -5.9283    5.0331 N   0  0  0  0  0  0  0  0  0  0  0  0
   -4.9548   -5.8924    6.3992 C   0  0  0  0  0  0  0  0  0  0  0  0
   -6.2196   -5.3529    6.7035 C   0  0  0  0  0  0  0  0  0  0  0  0
   -6.6913   -5.3321    8.0180 C   0  0  0  0  0  0  0  0  0  0  0  0
   -5.9068   -5.8509    9.0566 C   0  0  0  0  0  0  0  0  0  0  0  0
   -6.4001   -5.8075   10.4712 C   0  0  0  0  0  0  0  0  0  0  0  0
   -4.6260   -6.3455    8.7695 C   0  0  0  0  0  0  0  0  0  0  0  0
   -4.1525   -6.3682    7.4565 C   0  0  0  0  0  0  0  0  0  0  0  0
   -5.3960   -5.9723    3.9242 C   0  0  0  0  0  0  0  0  0  0  0  0
   -5.2756   -5.0583    2.8645 C   0  0  0  0  0  0  0  0  0  0  0  0
   -6.2080   -5.0558    1.8235 C   0  0  0  0  0  0  0  0  0  0  0  0
   -7.2774   -5.9624    1.8363 C   0  0  0  0  0  0  0  0  0  0  0  0
   -8.2846   -5.9545    0.7263 C   0  0  0  0  0  0  0  0  0  0  0  0
   -7.3745   -6.9022    2.8716 C   0  0  0  0  0  0  0  0  0  0  0  0
   -6.4404   -6.9046    3.9102 C   0  0  0  0  0  0  0  0  0  0  0  0
   -2.3936   -4.5765    5.2428 C   0  0  0  0  0  0  0  0  0  0  0  0
   -2.8847   -3.1779    6.0259 S   0  0  0  0  0  0  0  0  0  0  0  0
   -1.4727   -2.2802    5.6913 C   0  0  0  0  0  0  0  0  0  0  0  0
   -0.6326   -3.0880    4.9017 C   0  0  0  0  0  0  0  0  0  0  0  0
    0.5852   -2.6313    4.2825 N   0  0  0  0  0  0  0  0  0  0  0  0
    0.7942   -2.8848    2.8760 C   0  0  0  0  0  0  0  0  0  0  0  0
   -0.1591   -2.4749    1.9280 C   0  0  0  0  0  0  0  0  0  0  0  0
   -0.0089   -2.8232    0.5808 C   0  0  0  0  0  0  0  0  0  0  0  0
    1.0957   -3.5840    0.1636 C   0  0  0  0  0  0  0  0  0  0  0  0
    1.2157   -4.0468   -1.2569 C   0  0  0  0  0  0  0  0  0  0  0  0
    2.0453   -3.9964    1.1078 C   0  0  0  0  0  0  0  0  0  0  0  0
    1.8993   -3.6433    2.4505 C   0  0  0  0  0  0  0  0  0  0  0  0
    1.7141   -2.2962    5.1165 C   0  0  0  0  0  0  0  0  0  0  0  0
    1.9306   -2.9756    6.3303 C   0  0  0  0  0  0  0  0  0  0  0  0
    3.0844   -2.7353    7.0768 C   0  0  0  0  0  0  0  0  0  0  0  0
    4.0290   -1.7995    6.6386 C   0  0  0  0  0  0  0  0  0  0  0  0
    5.2868   -1.5766    7.4213 C   0  0  0  0  0  0  0  0  0  0  0  0
    3.8165   -1.1171    5.4303 C   0  0  0  0  0  0  0  0  0  0  0  0
    2.6634   -1.3584    4.6776 C   0  0  0  0  0  0  0  0  0  0  0  0
   -1.1775   -4.3586    4.6874 C   0  0  0  0  0  0  0  0  0  0  0  0
   -0.8460   -5.5668    3.5729 S   0  0  0  0  0  0  0  0  0  0  0  0
   -1.5194   -0.8204    5.5621 C   0  0  0  0  0  0  0  0  0  0  0  0
   -0.8311    0.1513    6.3175 C   0  0  0  0  0  0  0  0  0  0  0  0
   -0.0737   -0.0992    7.5586 C   0  0  0  0  0  0  0  0  0  0  0  0
    1.2999    0.1917    7.5754 C   0  0  0  0  0  0  0  0  0  0  0  0
    2.0515    0.0066    8.7341 C   0  0  0  0  0  0  0  0  0  0  0  0
    1.4427   -0.4613    9.8952 C   0  0  0  0  0  0  0  0  0  0  0  0
    0.0687   -0.7103    9.9099 C   0  0  0  0  0  0  0  0  0  0  0  0
   -0.7099   -0.5225    8.7547 C   0  0  0  0  0  0  0  0  0  0  0  0
   -2.2132   -0.6165    8.8829 C   0  0  0  0  0  0  0  0  0  0  0  0
   -2.8125    0.7491    9.2030 C   0  0  0  0  0  0  0  0  0  0  0  0
   -0.9587    1.4159    5.7262 C   0  0  0  0  0  0  0  0  0  0  0  0
   -0.2062    2.9364    5.9709 S   0  0  0  0  0  0  0  0  0  0  0  0
   -0.9424    3.5610    4.5682 C   0  0  0  0  0  0  0  0  0  0  0  0
   -0.9671    4.6862    3.7814 C   0  0  0  0  0  0  0  0  0  0  0  0
   -0.3808    5.9462    3.9185 C   0  0  0  0  0  0  0  0  0  0  0  0
   -0.6258    6.9296    2.9096 C   0  0  0  0  0  0  0  0  0  0  0  0
   -0.0113    8.1275    3.0651 N   0  0  0  0  0  0  0  0  0  0  0  0
    0.7832    7.8532    4.4891 S   0  0  0  0  0  0  0  0  0  0  0  0
    0.4240    6.3026    4.9488 N   0  0  0  0  0  0  0  0  0  0  0  0
   -1.4059    6.5869    1.7948 C   0  0  0  0  0  0  0  0  0  0  0  0
   -1.4977    7.1915    0.5624 C   0  0  0  0  0  0  0  0  0  0  0  0
   -0.5875    8.3956   -0.2190 S   0  0  0  0  0  0  0  0  0  0  0  0
   -0.7702    7.6545   -1.7410 C   0  0  0  0  0  0  0  0  0  0  0  0
   -0.1310    7.7924   -2.9892 C   0  0  0  0  0  0  0  0  0  0  0  0
    0.7712    8.8956   -3.4097 C   0  0  0  0  0  0  0  0  0  0  0  0
    2.0500    9.1575   -2.8308 C   0  0  0  0  0  0  0  0  0  0  0  0
    2.6281    8.3906   -1.6544 C   0  0  0  0  0  0  0  0  0  0  0  0
    2.9666    6.9470   -1.9916 C   0  0  0  0  0  0  0  0  0  0  0  0
    2.8467   10.1732   -3.4001 C   0  0  0  0  0  0  0  0  0  0  0  0
    2.4078   10.9022   -4.5058 C   0  0  0  0  0  0  0  0  0  0  0  0
    1.1643   10.6393   -5.0674 C   0  0  0  0  0  0  0  0  0  0  0  0
    0.3565    9.6427   -4.5277 C   0  0  0  0  0  0  0  0  0  0  0  0
   -0.4977    6.7424   -3.8622 C   0  0  0  0  0  0  0  0  0  0  0  0
   -1.4470    5.6330   -3.0174 S   0  0  0  0  0  0  0  0  0  0  0  0
   -1.5241    6.5137   -1.6116 C   0  0  0  0  0  0  0  0  0  0  0  0
   -1.9237    6.2337   -0.3080 C   0  0  0  0  0  0  0  0  0  0  0  0
   -2.1669    5.0384    0.2973 N   0  0  0  0  0  0  0  0  0  0  0  0
   -1.9083    5.2836    1.6196 C   0  0  0  0  0  0  0  0  0  0  0  0
   -1.7785    4.3544    2.6839 C   0  0  0  0  0  0  0  0  0  0  0  0
   -2.3286    3.1057    2.8363 N   0  0  0  0  0  0  0  0  0  0  0  0
   -1.7463    2.6563    3.9687 C   0  0  0  0  0  0  0  0  0  0  0  0
   -1.7573    1.4381    4.6132 C   0  0  0  0  0  0  0  0  0  0  0  0
   -2.2996   -0.0937    4.2380 S   0  0  0  0  0  0  0  0  0  0  0  0
   -3.6357    2.6146    2.3593 C   0  0  0  0  0  0  0  0  0  0  0  0
   -4.7435    3.6351    2.6082 C   0  0  0  0  0  0  0  0  0  0  0  0
   -2.0748    3.7465   -0.3935 C   0  0  0  0  0  0  0  0  0  0  0  0
   -3.3704    3.4473   -1.1550 C   0  0  0  0  0  0  0  0  0  0  0  0
    0.2688    6.3054   -5.0342 C   0  0  0  0  0  0  0  0  0  0  0  0
   -0.2334    5.9774   -6.3179 C   0  0  0  0  0  0  0  0  0  0  0  0
   -1.5469    6.3111   -6.8137 N   0  0  0  0  0  0  0  0  0  0  0  0
   -1.7061    6.7578   -8.1770 C   0  0  0  0  0  0  0  0  0  0  0  0
   -0.8140    7.6936   -8.7270 C   0  0  0  0  0  0  0  0  0  0  0  0
   -0.9472    8.0976  -10.0595 C   0  0  0  0  0  0  0  0  0  0  0  0
   -1.9783    7.5807  -10.8579 C   0  0  0  0  0  0  0  0  0  0  0  0
   -2.0799    7.9620  -12.3049 C   0  0  0  0  0  0  0  0  0  0  0  0
   -2.8638    6.6398  -10.3143 C   0  0  0  0  0  0  0  0  0  0  0  0
   -2.7360    6.2394   -8.9824 C   0  0  0  0  0  0  0  0  0  0  0  0
   -2.7155    6.0008   -6.0380 C   0  0  0  0  0  0  0  0  0  0  0  0
   -2.9989    4.6732   -5.6870 C   0  0  0  0  0  0  0  0  0  0  0  0
   -4.1425    4.3679   -4.9438 C   0  0  0  0  0  0  0  0  0  0  0  0
   -5.0200    5.3882   -4.5447 C   0  0  0  0  0  0  0  0  0  0  0  0
   -6.2524    5.0481   -3.7611 C   0  0  0  0  0  0  0  0  0  0  0  0
   -4.7544    6.7133   -4.9274 C   0  0  0  0  0  0  0  0  0  0  0  0
   -3.6073    7.0169   -5.6698 C   0  0  0  0  0  0  0  0  0  0  0  0
    0.6685    5.1580   -7.0123 C   0  0  0  0  0  0  0  0  0  0  0  0
    0.5890    4.2355   -8.4200 S   0  0  0  0  0  0  0  0  0  0  0  0
    1.9622    3.2915   -8.0241 C   0  0  0  0  0  0  0  0  0  0  0  0
    2.5211    3.7673   -6.8333 C   0  0  0  0  0  0  0  0  0  0  0  0
    3.6948    3.2366   -6.1987 N   0  0  0  0  0  0  0  0  0  0  0  0
    3.5933    2.0732   -5.3507 C   0  0  0  0  0  0  0  0  0  0  0  0
    4.6588    1.1559   -5.2785 C   0  0  0  0  0  0  0  0  0  0  0  0
    4.5666    0.0272   -4.4602 C   0  0  0  0  0  0  0  0  0  0  0  0
    3.4039   -0.2107   -3.7108 C   0  0  0  0  0  0  0  0  0  0  0  0
    3.2862   -1.4229   -2.8409 C   0  0  0  0  0  0  0  0  0  0  0  0
    2.3421    0.6994   -3.7743 C   0  0  0  0  0  0  0  0  0  0  0  0
    2.4347    1.8317   -4.5848 C   0  0  0  0  0  0  0  0  0  0  0  0
    4.9218    3.9887   -6.2827 C   0  0  0  0  0  0  0  0  0  0  0  0
    5.7188    4.1898   -5.1413 C   0  0  0  0  0  0  0  0  0  0  0  0
    6.9191    4.9007   -5.2314 C   0  0  0  0  0  0  0  0  0  0  0  0
    7.3416    5.4241   -6.4632 C   0  0  0  0  0  0  0  0  0  0  0  0
    8.6213    6.2041   -6.5463 C   0  0  0  0  0  0  0  0  0  0  0  0
    6.5321    5.2596   -7.5956 C   0  0  0  0  0  0  0  0  0  0  0  0
    5.3307    4.5477   -7.5074 C   0  0  0  0  0  0  0  0  0  0  0  0
    1.7760    4.8074   -6.3109 C   0  0  0  0  0  0  0  0  0  0  0  0
    1.7671    5.5349   -4.8180 S   0  0  0  0  0  0  0  0  0  0  0  0
    2.5899    2.2956   -8.8954 C   0  0  0  0  0  0  0  0  0  0  0  0
    2.8600    1.0233   -8.5446 C   0  0  0  0  0  0  0  0  0  0  0  0
    4.0100    0.2936   -9.0980 C   0  0  0  0  0  0  0  0  0  0  0  0
    4.7943    0.7176   -9.9884 O   0  0  0  0  0  0  0  0  0  0  0  0
    4.1458   -0.9644   -8.4027 C   0  0  0  0  0  0  0  0  0  0  0  0
    5.1825   -1.9001   -8.4626 C   0  0  0  0  0  0  0  0  0  0  0  0
    5.1402   -2.9966   -7.5840 C   0  0  0  0  0  0  0  0  0  0  0  0
    4.0956   -3.1190   -6.6449 C   0  0  0  0  0  0  0  0  0  0  0  0
    4.0904   -4.5634   -5.3949 Br  0  0  0  0  0  0  0  0  0  0  0  0
    3.0816   -2.1486   -6.5873 C   0  0  0  0  0  0  0  0  0  0  0  0
    3.1054   -1.0857   -7.5036 C   0  0  0  0  0  0  0  0  0  0  0  0
    2.2059    0.0915   -7.5643 C   0  0  0  0  0  0  0  0  0  0  0  0
    0.8814    0.0305   -7.2637 C   0  0  0  0  0  0  0  0  0  0  0  0
    0.2067   -1.2368   -7.1071 C   0  0  0  0  0  0  0  0  0  0  0  0
   -0.3398   -2.2594   -7.0124 N   0  0  0  0  0  0  0  0  0  0  0  0
    0.0959    1.1815   -6.9336 C   0  0  0  0  0  0  0  0  0  0  0  0
   -0.5749    2.0691   -6.6033 N   0  0  0  0  0  0  0  0  0  0  0  0
   -2.5163   -7.1824    1.8122 H   0  0  0  0  0  0  0  0  0  0  0  0
   -3.9886  -12.8206    7.8174 H   0  0  0  0  0  0  0  0  0  0  0  0
   -2.8091  -11.7195    8.6336 H   0  0  0  0  0  0  0  0  0  0  0  0
   -2.2166  -12.9346    7.4433 H   0  0  0  0  0  0  0  0  0  0  0  0
   -3.4425  -13.8122    5.5707 H   0  0  0  0  0  0  0  0  0  0  0  0
   -3.5561  -14.3447    3.1768 H   0  0  0  0  0  0  0  0  0  0  0  0
   -3.5637  -12.5588    1.4878 H   0  0  0  0  0  0  0  0  0  0  0  0
   -6.8416   -4.9310    5.9246 H   0  0  0  0  0  0  0  0  0  0  0  0
   -7.6661   -4.9071    8.2234 H   0  0  0  0  0  0  0  0  0  0  0  0
   -6.0947   -4.8508   10.9429 H   0  0  0  0  0  0  0  0  0  0  0  0
   -5.9762   -6.6496   11.0593 H   0  0  0  0  0  0  0  0  0  0  0  0
   -7.5062   -5.8928   10.5045 H   0  0  0  0  0  0  0  0  0  0  0  0
   -3.9966   -6.7191    9.5650 H   0  0  0  0  0  0  0  0  0  0  0  0
   -3.1620   -6.7552    7.2739 H   0  0  0  0  0  0  0  0  0  0  0  0
   -4.4751   -4.3298    2.8528 H   0  0  0  0  0  0  0  0  0  0  0  0
   -6.1049   -4.3391    1.0145 H   0  0  0  0  0  0  0  0  0  0  0  0
   -7.9560   -6.6480   -0.0777 H   0  0  0  0  0  0  0  0  0  0  0  0
   -8.3948   -4.9305    0.3017 H   0  0  0  0  0  0  0  0  0  0  0  0
   -9.2829   -6.2733    1.0990 H   0  0  0  0  0  0  0  0  0  0  0  0
   -8.1811   -7.6219    2.8826 H   0  0  0  0  0  0  0  0  0  0  0  0
   -6.5385   -7.6243    4.7129 H   0  0  0  0  0  0  0  0  0  0  0  0
   -1.0210   -1.9009    2.2372 H   0  0  0  0  0  0  0  0  0  0  0  0
   -0.7638   -2.5154   -0.1315 H   0  0  0  0  0  0  0  0  0  0  0  0
    0.8750   -5.1016   -1.3323 H   0  0  0  0  0  0  0  0  0  0  0  0
    0.6008   -3.4183   -1.9361 H   0  0  0  0  0  0  0  0  0  0  0  0
    2.2740   -3.9889   -1.5900 H   0  0  0  0  0  0  0  0  0  0  0  0
    2.8821   -4.6147    0.8109 H   0  0  0  0  0  0  0  0  0  0  0  0
    2.6216   -4.0040    3.1703 H   0  0  0  0  0  0  0  0  0  0  0  0
    1.2283   -3.7234    6.6831 H   0  0  0  0  0  0  0  0  0  0  0  0
    3.2451   -3.2886    7.9911 H   0  0  0  0  0  0  0  0  0  0  0  0
    5.6131   -0.5191    7.3436 H   0  0  0  0  0  0  0  0  0  0  0  0
    5.1245   -1.8074    8.4961 H   0  0  0  0  0  0  0  0  0  0  0  0
    6.0871   -2.2366    7.0296 H   0  0  0  0  0  0  0  0  0  0  0  0
    4.5471   -0.4039    5.0680 H   0  0  0  0  0  0  0  0  0  0  0  0
    2.5183   -0.8269    3.7457 H   0  0  0  0  0  0  0  0  0  0  0  0
    1.7915    0.5601    6.6818 H   0  0  0  0  0  0  0  0  0  0  0  0
    3.1118    0.2236    8.7296 H   0  0  0  0  0  0  0  0  0  0  0  0
    2.0289   -0.6043   10.7946 H   0  0  0  0  0  0  0  0  0  0  0  0
   -0.3931   -1.0177   10.8393 H   0  0  0  0  0  0  0  0  0  0  0  0
   -2.6801   -1.0061    7.9607 H   0  0  0  0  0  0  0  0  0  0  0  0
   -2.4830   -1.3271    9.6929 H   0  0  0  0  0  0  0  0  0  0  0  0
   -2.5973    1.4699    8.3851 H   0  0  0  0  0  0  0  0  0  0  0  0
   -3.9125    0.6586    9.3149 H   0  0  0  0  0  0  0  0  0  0  0  0
   -2.3873    1.1429   10.1532 H   0  0  0  0  0  0  0  0  0  0  0  0
    3.5642    8.8785   -1.3002 H   0  0  0  0  0  0  0  0  0  0  0  0
    1.9482    8.4195   -0.7946 H   0  0  0  0  0  0  0  0  0  0  0  0
    3.5988    6.8976   -2.9031 H   0  0  0  0  0  0  0  0  0  0  0  0
    2.0455    6.3536   -2.1310 H   0  0  0  0  0  0  0  0  0  0  0  0
    3.5313    6.4941   -1.1502 H   0  0  0  0  0  0  0  0  0  0  0  0
    3.8214   10.4015   -2.9962 H   0  0  0  0  0  0  0  0  0  0  0  0
    3.0368   11.6787   -4.9286 H   0  0  0  0  0  0  0  0  0  0  0  0
    0.8274   11.2006   -5.9282 H   0  0  0  0  0  0  0  0  0  0  0  0
   -0.6006    9.4417   -4.9927 H   0  0  0  0  0  0  0  0  0  0  0  0
   -3.6022    2.3096    1.3062 H   0  0  0  0  0  0  0  0  0  0  0  0
   -3.9207    1.6866    2.9024 H   0  0  0  0  0  0  0  0  0  0  0  0
   -4.5814    4.5384    1.9829 H   0  0  0  0  0  0  0  0  0  0  0  0
   -4.7613    3.9268    3.6804 H   0  0  0  0  0  0  0  0  0  0  0  0
   -5.7258    3.1937    2.3430 H   0  0  0  0  0  0  0  0  0  0  0  0
   -1.8192    2.9291    0.3025 H   0  0  0  0  0  0  0  0  0  0  0  0
   -1.2255    3.7499   -1.1080 H   0  0  0  0  0  0  0  0  0  0  0  0
   -4.2488    3.4668   -0.4804 H   0  0  0  0  0  0  0  0  0  0  0  0
   -3.5465    4.1982   -1.9487 H   0  0  0  0  0  0  0  0  0  0  0  0
   -3.2964    2.4458   -1.6323 H   0  0  0  0  0  0  0  0  0  0  0  0
   -0.0169    8.1098   -8.1217 H   0  0  0  0  0  0  0  0  0  0  0  0
   -0.2456    8.8152  -10.4670 H   0  0  0  0  0  0  0  0  0  0  0  0
   -3.1358    7.9333  -12.6434 H   0  0  0  0  0  0  0  0  0  0  0  0
   -1.6937    8.9911  -12.4683 H   0  0  0  0  0  0  0  0  0  0  0  0
   -1.4852    7.2511  -12.9146 H   0  0  0  0  0  0  0  0  0  0  0  0
   -3.6503    6.2102  -10.9244 H   0  0  0  0  0  0  0  0  0  0  0  0
   -3.4226    5.4991   -8.5917 H   0  0  0  0  0  0  0  0  0  0  0  0
   -2.3265    3.8813   -5.9824 H   0  0  0  0  0  0  0  0  0  0  0  0
   -4.3344    3.3362   -4.6640 H   0  0  0  0  0  0  0  0  0  0  0  0
   -7.0161    4.6201   -4.4428 H   0  0  0  0  0  0  0  0  0  0  0  0
   -6.6750    5.9484   -3.2672 H   0  0  0  0  0  0  0  0  0  0  0  0
   -6.0136    4.3031   -2.9725 H   0  0  0  0  0  0  0  0  0  0  0  0
   -5.4363    7.5097   -4.6533 H   0  0  0  0  0  0  0  0  0  0  0  0
   -3.4150    8.0436   -5.9612 H   0  0  0  0  0  0  0  0  0  0  0  0
    5.5518    1.3100   -5.8707 H   0  0  0  0  0  0  0  0  0  0  0  0
    5.3945   -0.6680   -4.4247 H   0  0  0  0  0  0  0  0  0  0  0  0
    4.1482   -2.1140   -2.9787 H   0  0  0  0  0  0  0  0  0  0  0  0
    2.3581   -1.9731   -3.0994 H   0  0  0  0  0  0  0  0  0  0  0  0
    3.2450   -1.1184   -1.7723 H   0  0  0  0  0  0  0  0  0  0  0  0
    1.4386    0.5333   -3.1998 H   0  0  0  0  0  0  0  0  0  0  0  0
    1.6015    2.5213   -4.6095 H   0  0  0  0  0  0  0  0  0  0  0  0
    5.4128    3.7961   -4.1809 H   0  0  0  0  0  0  0  0  0  0  0  0
    7.5181    5.0432   -4.3412 H   0  0  0  0  0  0  0  0  0  0  0  0
    9.3846    5.7685   -5.8673 H   0  0  0  0  0  0  0  0  0  0  0  0
    8.4318    7.2571   -6.2526 H   0  0  0  0  0  0  0  0  0  0  0  0
    9.0279    6.1829   -7.5787 H   0  0  0  0  0  0  0  0  0  0  0  0
    6.8315    5.6782   -8.5476 H   0  0  0  0  0  0  0  0  0  0  0  0
    4.7299    4.4190   -8.3969 H   0  0  0  0  0  0  0  0  0  0  0  0
    3.1269    2.7148   -9.7426 H   0  0  0  0  0  0  0  0  0  0  0  0
    6.0008   -1.7715   -9.1552 H   0  0  0  0  0  0  0  0  0  0  0  0
    5.9365   -3.7293   -7.6115 H   0  0  0  0  0  0  0  0  0  0  0  0
    2.3302   -2.2065   -5.8117 H   0  0  0  0  0  0  0  0  0  0  0  0
  1  2  2  3
  2  3  1  0
  3  4  2  0
  3  5  1  0
  5  6  2  0
  6  7  1  0
  7  8  1  0
  6  9  1  0
  9 10  2  0
 10 11  1  0
 11 12  2  0
 12 13  1  0
 13 14  2  3
 14 15  1  0
 15 16  3  0
 14 17  1  0
 17 18  3  0
  1 19  1  0
 19 20  2  0
 20 21  1  0
 21 22  1  0
 22 23  2  0
 23 24  1  0
 24 25  2  0
 25 26  1  0
 25 27  1  0
 27 28  2  0
 21 29  1  0
 29 30  2  0
 30 31  1  0
 31 32  2  0
 32 33  1  0
 32 34  1  0
 34 35  2  0
 20 36  1  0
 36 37  1  0
 37 38  1  0
 38 39  2  0
 39 40  1  0
 40 41  1  0
 41 42  2  0
 42 43  1  0
 43 44  2  0
 44 45  1  0
 44 46  1  0
 46 47  2  0
 40 48  1  0
 48 49  2  0
 49 50  1  0
 50 51  2  0
 51 52  1  0
 51 53  1  0
 53 54  2  0
 39 55  1  0
 55 56  1  0
 38 57  1  0
 57 58  2  0
 58 59  1  0
 59 60  2  0
 60 61  1  0
 61 62  2  0
 62 63  1  0
 63 64  2  0
 64 65  1  0
 65 66  1  0
 58 67  1  0
 67 68  1  0
 68 69  1  0
 69 70  1  0
 70 71  1  0
 71 72  1  0
 72 73  2  0
 73 74  1  0
 74 75  1  0
 72 76  1  0
 76 77  1  0
 77 78  1  0
 78 79  1  0
 79 80  1  0
 80 81  1  0
 81 82  2  0
 82 83  1  0
 83 84  1  0
 82 85  1  0
 85 86  2  0
 86 87  1  0
 87 88  2  0
 80 89  2  0
 89 90  1  0
 90 91  1  0
 91 92  1  0
 92 93  1  0
 93 94  1  0
 94 95  1  0
 95 96  1  0
 96 97  1  0
 97 98  1  0
 98 99  1  0
 96100  1  0
100101  1  0
 93102  1  0
102103  1  0
 89104  1  0
104105  2  0
105106  1  0
106107  1  0
107108  2  0
108109  1  0
109110  2  0
110111  1  0
110112  1  0
112113  2  0
106114  1  0
114115  2  0
115116  1  0
116117  2  0
117118  1  0
117119  1  0
119120  2  0
105121  1  0
121122  1  0
122123  1  0
123124  2  0
124125  1  0
125126  1  0
126127  2  0
127128  1  0
128129  2  0
129130  1  0
129131  1  0
131132  2  0
125133  1  0
133134  2  0
134135  1  0
135136  2  0
136137  1  0
136138  1  0
138139  2  0
124140  1  0
140141  1  0
123142  1  0
142143  2  3
143144  1  0
144145  2  0
144146  1  0
146147  2  0
147148  1  0
148149  2  0
149150  1  0
149151  1  0
151152  2  0
152153  1  0
153154  2  3
154155  1  0
155156  3  0
154157  1  0
157158  3  0
 13  2  1  0
 56 19  1  0
 99 57  1  0
141104  1  0
153143  1  0
 12  5  1  0
 28 22  1  0
 35 29  1  0
 55 36  2  0
 64 59  1  0
 98 67  2  0
113107  1  0
120114  1  0
140121  2  0
152146  1  0
 47 41  1  0
 54 48  1  0
 97 69  2  0
132126  1  0
139133  1  0
 95 70  2  0
 75 71  2  0
 94 76  2  0
 92 77  2  0
 91 79  2  0
 88 81  1  0
  1159  1  0
  8160  1  0
  8161  1  0
  8162  1  0
  9163  1  0
 10164  1  0
 11165  1  0
 23166  1  0
 24167  1  0
 26168  1  0
 26169  1  0
 26170  1  0
 27171  1  0
 28172  1  0
 30173  1  0
 31174  1  0
 33175  1  0
 33176  1  0
 33177  1  0
 34178  1  0
 35179  1  0
 42180  1  0
 43181  1  0
 45182  1  0
 45183  1  0
 45184  1  0
 46185  1  0
 47186  1  0
 49187  1  0
 50188  1  0
 52189  1  0
 52190  1  0
 52191  1  0
 53192  1  0
 54193  1  0
 60194  1  0
 61195  1  0
 62196  1  0
 63197  1  0
 65198  1  0
 65199  1  0
 66200  1  0
 66201  1  0
 66202  1  0
 83203  1  0
 83204  1  0
 84205  1  0
 84206  1  0
 84207  1  0
 85208  1  0
 86209  1  0
 87210  1  0
 88211  1  0
100212  1  0
100213  1  0
101214  1  0
101215  1  0
101216  1  0
102217  1  0
102218  1  0
103219  1  0
103220  1  0
103221  1  0
108222  1  0
109223  1  0
111224  1  0
111225  1  0
111226  1  0
112227  1  0
113228  1  0
115229  1  0
116230  1  0
118231  1  0
118232  1  0
118233  1  0
119234  1  0
120235  1  0
127236  1  0
128237  1  0
130238  1  0
130239  1  0
130240  1  0
131241  1  0
132242  1  0
134243  1  0
135244  1  0
137245  1  0
137246  1  0
137247  1  0
138248  1  0
139249  1  0
142250  1  0
147251  1  0
148252  1  0
151253  1  0
M  END

