
     RDKit          3D

165181  0  0  0  0  0  0  0  0999 V2000
    7.7592    3.0662    6.2126 C   0  0  0  0  0  0  0  0  0  0  0  0
    7.0324    3.1511    7.3464 C   0  0  0  0  0  0  0  0  0  0  0  0
    5.5714    3.3162    7.4103 C   0  0  0  0  0  0  0  0  0  0  0  0
    4.8032    3.6002    6.4518 O   0  0  0  0  0  0  0  0  0  0  0  0
    5.1304    3.0026    8.7541 C   0  0  0  0  0  0  0  0  0  0  0  0
    3.8177    2.9560    9.2411 C   0  0  0  0  0  0  0  0  0  0  0  0
    2.7561    3.3179    8.3988 O   0  0  0  0  0  0  0  0  0  0  0  0
    1.3882    3.3060    8.7848 C   0  0  0  0  0  0  0  0  0  0  0  0
    3.6246    2.5361   10.5723 C   0  0  0  0  0  0  0  0  0  0  0  0
    4.7220    2.1566   11.3619 C   0  0  0  0  0  0  0  0  0  0  0  0
    6.0277    2.2161   10.8477 C   0  0  0  0  0  0  0  0  0  0  0  0
    6.2249    2.6657    9.5315 C   0  0  0  0  0  0  0  0  0  0  0  0
    7.4789    2.8367    8.7362 C   0  0  0  0  0  0  0  0  0  0  0  0
    8.7412    2.9430    9.2224 C   0  0  0  0  0  0  0  0  0  0  0  0
    9.0604    2.7336   10.6122 C   0  0  0  0  0  0  0  0  0  0  0  0
    9.3309    2.5720   11.7256 N   0  0  0  0  0  0  0  0  0  0  0  0
    9.8462    3.3683    8.4022 C   0  0  0  0  0  0  0  0  0  0  0  0
   10.7399    3.7083    7.7528 N   0  0  0  0  0  0  0  0  0  0  0  0
    7.1956    3.4040    4.8933 C   0  0  0  0  0  0  0  0  0  0  0  0
    6.7540    4.7095    4.6437 C   0  0  0  0  0  0  0  0  0  0  0  0
    5.9032    4.9792    3.5550 C   0  0  0  0  0  0  0  0  0  0  0  0
    5.3054    6.2402    3.3813 O   0  0  0  0  0  0  0  0  0  0  0  0
    5.6175    7.4220    4.1155 C   0  0  0  0  0  0  0  0  0  0  0  0
    6.9638    7.9891    3.6784 C   0  0  0  0  0  0  0  0  0  0  0  0
    5.5708    3.9356    2.6656 C   0  0  0  0  0  0  0  0  0  0  0  0
    6.1562    2.6695    2.8394 C   0  0  0  0  0  0  0  0  0  0  0  0
    6.9641    2.4003    3.9455 C   0  0  0  0  0  0  0  0  0  0  0  0
    7.4115    1.1370    4.1603 F   0  0  0  0  0  0  0  0  0  0  0  0
    4.3640    4.0356    1.8185 C   0  0  0  0  0  0  0  0  0  0  0  0
    3.9535    5.1202    1.0043 C   0  0  0  0  0  0  0  0  0  0  0  0
    4.8924    6.1274    0.3878 C   0  0  0  0  0  0  0  0  0  0  0  0
    4.3915    7.5609    0.5147 C   0  0  0  0  0  0  0  0  0  0  0  0
    2.5855    5.0104    0.7041 C   0  0  0  0  0  0  0  0  0  0  0  0
    1.4285    5.9726   -0.1155 S   0  0  0  0  0  0  0  0  0  0  0  0
    0.1730    4.9051    0.3078 C   0  0  0  0  0  0  0  0  0  0  0  0
   -1.1262    4.6345   -0.0254 C   0  0  0  0  0  0  0  0  0  0  0  0
   -2.0138    5.2424   -0.9247 C   0  0  0  0  0  0  0  0  0  0  0  0
   -3.2447    4.5773   -1.2313 C   0  0  0  0  0  0  0  0  0  0  0  0
   -4.0563    5.1760   -2.1352 N   0  0  0  0  0  0  0  0  0  0  0  0
   -3.1422    6.5118   -2.4893 S   0  0  0  0  0  0  0  0  0  0  0  0
   -1.7635    6.4030   -1.5761 N   0  0  0  0  0  0  0  0  0  0  0  0
   -3.5386    3.3755   -0.5757 C   0  0  0  0  0  0  0  0  0  0  0  0
   -4.5885    2.5028   -0.6738 C   0  0  0  0  0  0  0  0  0  0  0  0
   -5.6959    2.0628   -1.8752 S   0  0  0  0  0  0  0  0  0  0  0  0
   -5.8958    0.5089   -1.1888 C   0  0  0  0  0  0  0  0  0  0  0  0
   -6.3048   -0.6868   -1.7709 C   0  0  0  0  0  0  0  0  0  0  0  0
   -7.0190   -0.7730   -2.9692 O   0  0  0  0  0  0  0  0  0  0  0  0
   -8.4027   -0.4289   -3.0692 C   0  0  0  0  0  0  0  0  0  0  0  0
   -8.5907    1.0455   -3.3946 C   0  0  0  0  0  0  0  0  0  0  0  0
   -5.7758   -1.8121   -1.1074 C   0  0  0  0  0  0  0  0  0  0  0  0
   -4.7871   -1.2789    0.1796 S   0  0  0  0  0  0  0  0  0  0  0  0
   -5.0789    0.3480   -0.0942 C   0  0  0  0  0  0  0  0  0  0  0  0
   -4.3403    1.4840    0.1905 C   0  0  0  0  0  0  0  0  0  0  0  0
   -3.1825    1.6448    0.8711 N   0  0  0  0  0  0  0  0  0  0  0  0
   -2.6591    2.7912    0.3450 C   0  0  0  0  0  0  0  0  0  0  0  0
   -1.3945    3.3780    0.5465 C   0  0  0  0  0  0  0  0  0  0  0  0
   -0.2616    2.8155    1.0663 N   0  0  0  0  0  0  0  0  0  0  0  0
    0.6271    3.8313    0.9959 C   0  0  0  0  0  0  0  0  0  0  0  0
    1.9861    3.8881    1.2139 C   0  0  0  0  0  0  0  0  0  0  0  0
    3.0622    2.9660    2.0794 S   0  0  0  0  0  0  0  0  0  0  0  0
    0.1600    1.4215    0.8727 C   0  0  0  0  0  0  0  0  0  0  0  0
    0.7812    1.2238   -0.5131 C   0  0  0  0  0  0  0  0  0  0  0  0
   -2.8494    0.9819    2.1430 C   0  0  0  0  0  0  0  0  0  0  0  0
   -3.9961    1.0880    3.1483 C   0  0  0  0  0  0  0  0  0  0  0  0
   -5.7421   -3.1678   -1.7054 C   0  0  0  0  0  0  0  0  0  0  0  0
   -6.9323   -3.7306   -2.1927 C   0  0  0  0  0  0  0  0  0  0  0  0
   -8.1354   -3.2118   -1.8345 F   0  0  0  0  0  0  0  0  0  0  0  0
   -6.8981   -4.8035   -3.0871 C   0  0  0  0  0  0  0  0  0  0  0  0
   -8.0677   -5.2836   -3.5880 F   0  0  0  0  0  0  0  0  0  0  0  0
   -5.6759   -5.3409   -3.5161 C   0  0  0  0  0  0  0  0  0  0  0  0
   -4.4779   -4.8261   -2.9755 C   0  0  0  0  0  0  0  0  0  0  0  0
   -3.2676   -5.2515   -3.4206 N   0  0  0  0  0  0  0  0  0  0  0  0
   -2.0966   -4.8129   -2.8858 C   0  0  0  0  0  0  0  0  0  0  0  0
   -0.8372   -5.2071   -3.5470 C   0  0  0  0  0  0  0  0  0  0  0  0
    0.4935   -4.1961   -3.8093 S   0  0  0  0  0  0  0  0  0  0  0  0
    1.3717   -5.2921   -4.7312 C   0  0  0  0  0  0  0  0  0  0  0  0
    2.6814   -4.9960   -5.3984 C   0  0  0  0  0  0  0  0  0  0  0  0
    2.4757   -4.1141   -6.6282 C   0  0  0  0  0  0  0  0  0  0  0  0
    0.6162   -6.4444   -4.8850 C   0  0  0  0  0  0  0  0  0  0  0  0
   -0.6194   -6.4032   -4.2297 C   0  0  0  0  0  0  0  0  0  0  0  0
    1.0312   -7.5174   -5.6078 F   0  0  0  0  0  0  0  0  0  0  0  0
   -2.1440   -3.9146   -1.7962 C   0  0  0  0  0  0  0  0  0  0  0  0
   -3.3470   -3.3848   -1.4473 N   0  0  0  0  0  0  0  0  0  0  0  0
   -4.5143   -3.7857   -2.0247 C   0  0  0  0  0  0  0  0  0  0  0  0
   -0.9756   -3.6444   -0.9321 C   0  0  0  0  0  0  0  0  0  0  0  0
    0.0153   -4.5613   -0.5872 C   0  0  0  0  0  0  0  0  0  0  0  0
    0.9371   -4.0654    0.3341 C   0  0  0  0  0  0  0  0  0  0  0  0
    1.9794   -4.7975    0.7964 F   0  0  0  0  0  0  0  0  0  0  0  0
    0.6902   -2.7583    0.7256 C   0  0  0  0  0  0  0  0  0  0  0  0
    1.4781   -1.9788    1.7410 C   0  0  0  0  0  0  0  0  0  0  0  0
    0.7042   -1.8373    3.0456 C   0  0  0  0  0  0  0  0  0  0  0  0
   -0.7142   -2.2363   -0.0422 S   0  0  0  0  0  0  0  0  0  0  0  0
   -5.6825   -6.2917   -4.6540 C   0  0  0  0  0  0  0  0  0  0  0  0
   -4.9615   -7.4234   -4.7251 C   0  0  0  0  0  0  0  0  0  0  0  0
   -4.0671   -8.1391   -3.5004 S   0  0  0  0  0  0  0  0  0  0  0  0
   -3.4094   -9.3601   -4.4731 C   0  0  0  0  0  0  0  0  0  0  0  0
   -2.4999  -10.2546   -4.0008 C   0  0  0  0  0  0  0  0  0  0  0  0
   -1.8919  -11.2971   -4.7818 C   0  0  0  0  0  0  0  0  0  0  0  0
   -1.3919  -12.1421   -5.3945 N   0  0  0  0  0  0  0  0  0  0  0  0
   -2.0753  -10.2082   -2.6219 C   0  0  0  0  0  0  0  0  0  0  0  0
   -1.7329  -10.1708   -1.5175 N   0  0  0  0  0  0  0  0  0  0  0  0
   -3.9036   -9.2439   -5.7532 N   0  0  0  0  0  0  0  0  0  0  0  0
   -3.5053  -10.0283   -6.9377 C   0  0  0  0  0  0  0  0  0  0  0  0
   -2.1922   -9.5498   -7.5190 C   0  0  0  0  0  0  0  0  0  0  0  0
   -1.8521   -8.1810   -7.5405 C   0  0  0  0  0  0  0  0  0  0  0  0
   -0.6705   -7.7525   -8.1509 C   0  0  0  0  0  0  0  0  0  0  0  0
    0.1795   -8.6783   -8.7574 C   0  0  0  0  0  0  0  0  0  0  0  0
   -0.1575  -10.0361   -8.7653 C   0  0  0  0  0  0  0  0  0  0  0  0
   -1.3447  -10.4676   -8.1630 C   0  0  0  0  0  0  0  0  0  0  0  0
   -4.7758   -8.1909   -5.8698 C   0  0  0  0  0  0  0  0  0  0  0  0
   -5.3354   -7.9006   -6.9620 O   0  0  0  0  0  0  0  0  0  0  0  0
    8.7590    2.6594    6.2243 H   0  0  0  0  0  0  0  0  0  0  0  0
    1.2284    3.9988    9.6389 H   0  0  0  0  0  0  0  0  0  0  0  0
    0.7710    3.6449    7.9277 H   0  0  0  0  0  0  0  0  0  0  0  0
    1.0792    2.2766    9.0645 H   0  0  0  0  0  0  0  0  0  0  0  0
    2.6376    2.4775   11.0009 H   0  0  0  0  0  0  0  0  0  0  0  0
    4.5610    1.8145   12.3724 H   0  0  0  0  0  0  0  0  0  0  0  0
    6.8364    1.8757   11.4705 H   0  0  0  0  0  0  0  0  0  0  0  0
    6.9792    5.4777    5.3740 H   0  0  0  0  0  0  0  0  0  0  0  0
    5.5962    7.2328    5.2062 H   0  0  0  0  0  0  0  0  0  0  0  0
    4.8381    8.1833    3.9037 H   0  0  0  0  0  0  0  0  0  0  0  0
    7.1875    8.9060    4.2582 H   0  0  0  0  0  0  0  0  0  0  0  0
    6.9364    8.2369    2.5974 H   0  0  0  0  0  0  0  0  0  0  0  0
    7.7746    7.2532    3.8604 H   0  0  0  0  0  0  0  0  0  0  0  0
    5.8910    1.8538    2.1748 H   0  0  0  0  0  0  0  0  0  0  0  0
    5.0317    5.8789   -0.6840 H   0  0  0  0  0  0  0  0  0  0  0  0
    5.8883    6.0622    0.8701 H   0  0  0  0  0  0  0  0  0  0  0  0
    3.9960    7.7544    1.5360 H   0  0  0  0  0  0  0  0  0  0  0  0
    3.5932    7.7635   -0.2261 H   0  0  0  0  0  0  0  0  0  0  0  0
    5.2237    8.2642    0.3138 H   0  0  0  0  0  0  0  0  0  0  0  0
   -8.8495   -1.0312   -3.8884 H   0  0  0  0  0  0  0  0  0  0  0  0
   -8.9401   -0.6786   -2.1287 H   0  0  0  0  0  0  0  0  0  0  0  0
   -9.6386    1.2224   -3.7196 H   0  0  0  0  0  0  0  0  0  0  0  0
   -8.4001    1.6649   -2.4939 H   0  0  0  0  0  0  0  0  0  0  0  0
   -7.9069    1.3496   -4.2178 H   0  0  0  0  0  0  0  0  0  0  0  0
   -0.6848    0.7217    0.9327 H   0  0  0  0  0  0  0  0  0  0  0  0
    0.8837    1.1422    1.6679 H   0  0  0  0  0  0  0  0  0  0  0  0
    0.0667    1.5539   -1.2964 H   0  0  0  0  0  0  0  0  0  0  0  0
    1.0128    0.1525   -0.6847 H   0  0  0  0  0  0  0  0  0  0  0  0
    1.7212    1.8030   -0.6119 H   0  0  0  0  0  0  0  0  0  0  0  0
   -1.9687    1.4636    2.6141 H   0  0  0  0  0  0  0  0  0  0  0  0
   -2.6255   -0.0914    1.9579 H   0  0  0  0  0  0  0  0  0  0  0  0
   -3.6852    0.6297    4.1108 H   0  0  0  0  0  0  0  0  0  0  0  0
   -4.8921    0.5463    2.7795 H   0  0  0  0  0  0  0  0  0  0  0  0
   -4.2623    2.1521    3.3157 H   0  0  0  0  0  0  0  0  0  0  0  0
    3.3549   -4.4832   -4.6862 H   0  0  0  0  0  0  0  0  0  0  0  0
    3.1707   -5.9434   -5.7056 H   0  0  0  0  0  0  0  0  0  0  0  0
    1.8327   -4.6350   -7.3712 H   0  0  0  0  0  0  0  0  0  0  0  0
    3.4570   -3.8872   -7.0991 H   0  0  0  0  0  0  0  0  0  0  0  0
    2.0007   -3.1516   -6.3391 H   0  0  0  0  0  0  0  0  0  0  0  0
   -1.3399   -7.2097   -4.2790 H   0  0  0  0  0  0  0  0  0  0  0  0
    0.0557   -5.5768   -0.9630 H   0  0  0  0  0  0  0  0  0  0  0  0
    1.7159   -0.9830    1.3340 H   0  0  0  0  0  0  0  0  0  0  0  0
    2.4446   -2.4893    1.9462 H   0  0  0  0  0  0  0  0  0  0  0  0
   -0.2577   -1.3175    2.8704 H   0  0  0  0  0  0  0  0  0  0  0  0
    0.5116   -2.8355    3.4853 H   0  0  0  0  0  0  0  0  0  0  0  0
    1.3032   -1.2402    3.7680 H   0  0  0  0  0  0  0  0  0  0  0  0
   -6.2862   -6.0064   -5.5081 H   0  0  0  0  0  0  0  0  0  0  0  0
   -4.2729   -9.9472   -7.7355 H   0  0  0  0  0  0  0  0  0  0  0  0
   -3.4941  -11.1105   -6.7000 H   0  0  0  0  0  0  0  0  0  0  0  0
   -2.4942   -7.4381   -7.0867 H   0  0  0  0  0  0  0  0  0  0  0  0
   -0.4094   -6.7043   -8.1489 H   0  0  0  0  0  0  0  0  0  0  0  0
    1.0934   -8.3441   -9.2280 H   0  0  0  0  0  0  0  0  0  0  0  0
    0.4950  -10.7502   -9.2471 H   0  0  0  0  0  0  0  0  0  0  0  0
   -1.6018  -11.5185   -8.1999 H   0  0  0  0  0  0  0  0  0  0  0  0
  1  2  2  3
  2  3  1  0
  3  4  2  0
  3  5  1  0
  5  6  2  0
  6  7  1  0
  7  8  1  0
  6  9  1  0
  9 10  2  0
 10 11  1  0
 11 12  2  0
 12 13  1  0
 13 14  2  3
 14 15  1  0
 15 16  3  0
 14 17  1  0
 17 18  3  0
  1 19  1  0
 19 20  2  0
 20 21  1  0
 21 22  1  0
 22 23  1  0
 23 24  1  0
 21 25  2  0
 25 26  1  0
 26 27  2  0
 27 28  1  0
 25 29  1  0
 29 30  2  0
 30 31  1  0
 31 32  1  0
 30 33  1  0
 33 34  1  0
 34 35  1  0
 35 36  1  0
 36 37  1  0
 37 38  1  0
 38 39  2  0
 39 40  1  0
 40 41  1  0
 38 42  1  0
 42 43  1  0
 43 44  1  0
 44 45  1  0
 45 46  1  0
 46 47  1  0
 47 48  1  0
 48 49  1  0
 46 50  2  0
 50 51  1  0
 51 52  1  0
 52 53  1  0
 53 54  1  0
 54 55  1  0
 55 56  1  0
 56 57  1  0
 57 58  1  0
 58 59  1  0
 59 60  1  0
 57 61  1  0
 61 62  1  0
 54 63  1  0
 63 64  1  0
 50 65  1  0
 65 66  2  0
 66 67  1  0
 66 68  1  0
 68 69  1  0
 68 70  2  0
 70 71  1  0
 71 72  2  0
 72 73  1  0
 73 74  1  0
 74 75  1  0
 75 76  1  0
 76 77  1  0
 77 78  1  0
 76 79  2  0
 79 80  1  0
 79 81  1  0
 73 82  2  0
 82 83  1  0
 83 84  2  0
 82 85  1  0
 85 86  2  0
 86 87  1  0
 87 88  1  0
 87 89  2  0
 89 90  1  0
 90 91  1  0
 89 92  1  0
 70 93  1  0
 93 94  2  3
 94 95  1  0
 95 96  1  0
 96 97  2  3
 97 98  1  0
 98 99  3  0
 97100  1  0
100101  3  0
 96102  1  0
102103  1  0
103104  1  0
104105  2  0
105106  1  0
106107  2  0
107108  1  0
108109  2  0
102110  1  0
110111  2  0
 13  2  1  0
 27 19  1  0
 60 29  1  0
 84 65  1  0
 92 85  1  0
110 94  1  0
 12  5  1  0
 59 33  2  0
 84 71  1  0
109104  1  0
 58 35  2  0
 80 74  2  0
 56 36  2  0
 41 37  2  0
 55 42  2  0
 53 43  2  0
 52 45  2  0
  1112  1  0
  8113  1  0
  8114  1  0
  8115  1  0
  9116  1  0
 10117  1  0
 11118  1  0
 20119  1  0
 23120  1  0
 23121  1  0
 24122  1  0
 24123  1  0
 24124  1  0
 26125  1  0
 31126  1  0
 31127  1  0
 32128  1  0
 32129  1  0
 32130  1  0
 48131  1  0
 48132  1  0
 49133  1  0
 49134  1  0
 49135  1  0
 61136  1  0
 61137  1  0
 62138  1  0
 62139  1  0
 62140  1  0
 63141  1  0
 63142  1  0
 64143  1  0
 64144  1  0
 64145  1  0
 77146  1  0
 77147  1  0
 78148  1  0
 78149  1  0
 78150  1  0
 80151  1  0
 86152  1  0
 90153  1  0
 90154  1  0
 91155  1  0
 91156  1  0
 91157  1  0
 93158  1  0
103159  1  0
103160  1  0
105161  1  0
106162  1  0
107163  1  0
108164  1  0
109165  1  0
M  END

