
     RDKit          3D

246269  0  0  0  0  0  0  0  0999 V2000
  -12.3174    0.5544   -5.7151 C   0  0  0  0  0  0  0  0  0  0  0  0
  -12.2481    1.5727   -4.8306 C   0  0  0  0  0  0  0  0  0  0  0  0
  -11.0284    2.0339   -4.1541 C   0  0  0  0  0  0  0  0  0  0  0  0
   -9.9718    1.3671   -3.9808 O   0  0  0  0  0  0  0  0  0  0  0  0
  -11.2486    3.3816   -3.6705 C   0  0  0  0  0  0  0  0  0  0  0  0
  -10.3213    4.2669   -3.1161 C   0  0  0  0  0  0  0  0  0  0  0  0
   -9.0076    3.8337   -2.8864 O   0  0  0  0  0  0  0  0  0  0  0  0
   -7.9758    4.6517   -2.3440 C   0  0  0  0  0  0  0  0  0  0  0  0
  -10.7531    5.5797   -2.8262 C   0  0  0  0  0  0  0  0  0  0  0  0
  -12.0686    5.9753   -3.1188 C   0  0  0  0  0  0  0  0  0  0  0  0
  -12.9767    5.0636   -3.6836 C   0  0  0  0  0  0  0  0  0  0  0  0
  -12.5585    3.7481   -3.9333 C   0  0  0  0  0  0  0  0  0  0  0  0
  -13.2917    2.6050   -4.5552 C   0  0  0  0  0  0  0  0  0  0  0  0
  -14.6353    2.4383   -4.6136 C   0  0  0  0  0  0  0  0  0  0  0  0
  -15.5578    3.4459   -4.1612 C   0  0  0  0  0  0  0  0  0  0  0  0
  -16.3142    4.2429   -3.7971 N   0  0  0  0  0  0  0  0  0  0  0  0
  -15.2397    1.1894   -4.9949 C   0  0  0  0  0  0  0  0  0  0  0  0
  -15.7391    0.1886   -5.2963 N   0  0  0  0  0  0  0  0  0  0  0  0
  -11.1367   -0.2364   -6.0732 C   0  0  0  0  0  0  0  0  0  0  0  0
  -10.7420   -1.3900   -5.4024 C   0  0  0  0  0  0  0  0  0  0  0  0
   -9.3797   -1.6881   -5.5907 C   0  0  0  0  0  0  0  0  0  0  0  0
   -8.6354   -2.6764   -4.9037 C   0  0  0  0  0  0  0  0  0  0  0  0
   -9.2659   -3.6112   -3.9501 C   0  0  0  0  0  0  0  0  0  0  0  0
   -9.2371   -4.9934   -4.1879 C   0  0  0  0  0  0  0  0  0  0  0  0
   -9.8674   -5.8797   -3.3035 C   0  0  0  0  0  0  0  0  0  0  0  0
   -9.8274   -7.2530   -3.5923 O   0  0  0  0  0  0  0  0  0  0  0  0
  -10.4455   -8.2613   -2.7946 C   0  0  0  0  0  0  0  0  0  0  0  0
  -10.1783   -9.6275   -3.4068 C   0  0  0  0  0  0  0  0  0  0  0  0
  -10.5240   -5.3724   -2.1680 C   0  0  0  0  0  0  0  0  0  0  0  0
  -10.5488   -3.9966   -1.9122 C   0  0  0  0  0  0  0  0  0  0  0  0
  -11.2404   -3.5487   -0.7728 O   0  0  0  0  0  0  0  0  0  0  0  0
  -11.3730   -2.1876   -0.3636 C   0  0  0  0  0  0  0  0  0  0  0  0
  -10.1014   -1.6986    0.3224 C   0  0  0  0  0  0  0  0  0  0  0  0
   -9.9055   -3.1196   -2.8034 C   0  0  0  0  0  0  0  0  0  0  0  0
   -7.2364   -2.6471   -5.0727 C   0  0  0  0  0  0  0  0  0  0  0  0
   -6.6058   -1.7085   -5.8928 C   0  0  0  0  0  0  0  0  0  0  0  0
   -7.3516   -0.7631   -6.6194 C   0  0  0  0  0  0  0  0  0  0  0  0
   -6.6941    0.3028   -7.4013 C   0  0  0  0  0  0  0  0  0  0  0  0
   -6.7513    0.2789   -8.7976 C   0  0  0  0  0  0  0  0  0  0  0  0
   -6.0533    1.2261   -9.5541 C   0  0  0  0  0  0  0  0  0  0  0  0
   -5.3226    2.2330   -8.8961 C   0  0  0  0  0  0  0  0  0  0  0  0
   -5.2710    2.2737   -7.4883 C   0  0  0  0  0  0  0  0  0  0  0  0
   -4.5297    3.2368   -6.7809 O   0  0  0  0  0  0  0  0  0  0  0  0
   -3.8001    4.3136   -7.3716 C   0  0  0  0  0  0  0  0  0  0  0  0
   -4.7400    5.4504   -7.7660 C   0  0  0  0  0  0  0  0  0  0  0  0
   -5.9634    1.3085   -6.7530 C   0  0  0  0  0  0  0  0  0  0  0  0
   -6.0940    1.1201  -10.9510 O   0  0  0  0  0  0  0  0  0  0  0  0
   -5.3189    1.9212  -11.8364 C   0  0  0  0  0  0  0  0  0  0  0  0
   -5.5276    1.4443  -13.2649 C   0  0  0  0  0  0  0  0  0  0  0  0
   -8.7421   -0.7802   -6.4423 C   0  0  0  0  0  0  0  0  0  0  0  0
   -9.8341    0.3948   -6.9360 S   0  0  0  0  0  0  0  0  0  0  0  0
   -5.2119   -1.7272   -5.7848 C   0  0  0  0  0  0  0  0  0  0  0  0
   -4.7295   -2.6472   -4.8535 C   0  0  0  0  0  0  0  0  0  0  0  0
   -6.0581   -3.4584   -4.1843 S   0  0  0  0  0  0  0  0  0  0  0  0
   -3.3674   -2.6178   -4.2687 C   0  0  0  0  0  0  0  0  0  0  0  0
   -2.2434   -1.9348   -4.7965 C   0  0  0  0  0  0  0  0  0  0  0  0
   -2.1374   -1.4267   -6.1819 C   0  0  0  0  0  0  0  0  0  0  0  0
   -1.9547   -0.0570   -6.4318 C   0  0  0  0  0  0  0  0  0  0  0  0
   -1.9743    0.4286   -7.7419 C   0  0  0  0  0  0  0  0  0  0  0  0
   -2.1787   -0.4459   -8.8135 C   0  0  0  0  0  0  0  0  0  0  0  0
   -2.3798   -1.8152   -8.5786 C   0  0  0  0  0  0  0  0  0  0  0  0
   -2.6163   -2.7610   -9.7265 C   0  0  0  0  0  0  0  0  0  0  0  0
   -1.3187   -3.4456  -10.1417 C   0  0  0  0  0  0  0  0  0  0  0  0
   -2.3383   -2.3020   -7.2621 C   0  0  0  0  0  0  0  0  0  0  0  0
   -1.2746   -1.7219   -3.8132 C   0  0  0  0  0  0  0  0  0  0  0  0
   -0.0289   -0.5749   -3.7176 S   0  0  0  0  0  0  0  0  0  0  0  0
    0.1529   -0.8252   -2.0519 C   0  0  0  0  0  0  0  0  0  0  0  0
    0.4423    0.0304   -1.0275 C   0  0  0  0  0  0  0  0  0  0  0  0
    0.8171    1.3808   -1.0848 C   0  0  0  0  0  0  0  0  0  0  0  0
    0.6184    2.1993    0.0660 C   0  0  0  0  0  0  0  0  0  0  0  0
    1.0021    3.4954   -0.0274 N   0  0  0  0  0  0  0  0  0  0  0  0
    1.5415    3.5171   -1.5941 S   0  0  0  0  0  0  0  0  0  0  0  0
    1.3401    1.9812   -2.1819 N   0  0  0  0  0  0  0  0  0  0  0  0
    0.0886    1.6204    1.2285 C   0  0  0  0  0  0  0  0  0  0  0  0
    0.1790    2.0601    2.5215 C   0  0  0  0  0  0  0  0  0  0  0  0
    1.0081    3.3562    3.2173 S   0  0  0  0  0  0  0  0  0  0  0  0
    1.3884    2.4518    4.5996 C   0  0  0  0  0  0  0  0  0  0  0  0
    2.4082    2.6367    5.5383 C   0  0  0  0  0  0  0  0  0  0  0  0
    3.1322    3.9088    5.7692 C   0  0  0  0  0  0  0  0  0  0  0  0
    3.3665    4.3356    7.0869 C   0  0  0  0  0  0  0  0  0  0  0  0
    4.0681    5.5163    7.3345 C   0  0  0  0  0  0  0  0  0  0  0  0
    4.5441    6.2855    6.2722 C   0  0  0  0  0  0  0  0  0  0  0  0
    4.3437    5.8612    4.9514 C   0  0  0  0  0  0  0  0  0  0  0  0
    4.8054    6.7124    3.8027 C   0  0  0  0  0  0  0  0  0  0  0  0
    3.6573    7.5638    3.2745 C   0  0  0  0  0  0  0  0  0  0  0  0
    3.6417    4.6706    4.7044 C   0  0  0  0  0  0  0  0  0  0  0  0
    2.7723    1.4186    6.1460 C   0  0  0  0  0  0  0  0  0  0  0  0
    1.8027    0.1713    5.5109 S   0  0  0  0  0  0  0  0  0  0  0  0
    0.9087    1.1659    4.4904 C   0  0  0  0  0  0  0  0  0  0  0  0
    0.1849    0.9473    3.3116 C   0  0  0  0  0  0  0  0  0  0  0  0
   -0.0520   -0.1885    2.5995 N   0  0  0  0  0  0  0  0  0  0  0  0
   -0.1768    0.2481    1.3046 C   0  0  0  0  0  0  0  0  0  0  0  0
   -0.1483   -0.5216    0.1153 C   0  0  0  0  0  0  0  0  0  0  0  0
   -0.9318   -1.5962   -0.2182 N   0  0  0  0  0  0  0  0  0  0  0  0
   -0.7292   -1.7452   -1.5584 C   0  0  0  0  0  0  0  0  0  0  0  0
   -1.5608   -2.2397   -2.5704 C   0  0  0  0  0  0  0  0  0  0  0  0
   -3.0845   -2.9413   -2.6186 S   0  0  0  0  0  0  0  0  0  0  0  0
   -2.1022   -2.0953    0.5188 C   0  0  0  0  0  0  0  0  0  0  0  0
   -2.0266   -3.6143    0.6968 C   0  0  0  0  0  0  0  0  0  0  0  0
    0.2654   -1.5474    3.0513 C   0  0  0  0  0  0  0  0  0  0  0  0
    1.6751   -1.9616    2.6415 C   0  0  0  0  0  0  0  0  0  0  0  0
    4.1493    1.1639    6.5980 C   0  0  0  0  0  0  0  0  0  0  0  0
    5.2567    1.5983    5.8859 C   0  0  0  0  0  0  0  0  0  0  0  0
    6.4597    1.1010    6.3758 C   0  0  0  0  0  0  0  0  0  0  0  0
    7.7240    1.3471    5.8128 C   0  0  0  0  0  0  0  0  0  0  0  0
    7.8619    2.2626    4.6583 C   0  0  0  0  0  0  0  0  0  0  0  0
    7.4072    1.8574    3.3973 C   0  0  0  0  0  0  0  0  0  0  0  0
    7.2270    2.7875    2.3703 C   0  0  0  0  0  0  0  0  0  0  0  0
    6.7026    2.3275    1.1508 O   0  0  0  0  0  0  0  0  0  0  0  0
    6.1150    3.1404    0.1328 C   0  0  0  0  0  0  0  0  0  0  0  0
    4.7350    3.6248    0.5602 C   0  0  0  0  0  0  0  0  0  0  0  0
    7.5568    4.1364    2.5971 C   0  0  0  0  0  0  0  0  0  0  0  0
    8.0564    4.5472    3.8488 C   0  0  0  0  0  0  0  0  0  0  0  0
    8.4065    5.8807    4.1289 O   0  0  0  0  0  0  0  0  0  0  0  0
    8.4940    6.9369    3.1734 C   0  0  0  0  0  0  0  0  0  0  0  0
    9.7114    6.7600    2.2765 C   0  0  0  0  0  0  0  0  0  0  0  0
    8.1964    3.6049    4.8744 C   0  0  0  0  0  0  0  0  0  0  0  0
    8.8157    0.6904    6.3968 C   0  0  0  0  0  0  0  0  0  0  0  0
    8.6786   -0.1288    7.5281 C   0  0  0  0  0  0  0  0  0  0  0  0
    7.4076   -0.3450    8.1187 C   0  0  0  0  0  0  0  0  0  0  0  0
    7.2423   -1.1562    9.3482 C   0  0  0  0  0  0  0  0  0  0  0  0
    7.9768   -0.8335   10.4996 C   0  0  0  0  0  0  0  0  0  0  0  0
    7.8281   -1.5858   11.6776 C   0  0  0  0  0  0  0  0  0  0  0  0
    6.9092   -2.6410   11.7049 C   0  0  0  0  0  0  0  0  0  0  0  0
    6.1582   -2.9668   10.5602 C   0  0  0  0  0  0  0  0  0  0  0  0
    5.2277   -4.0141   10.5475 O   0  0  0  0  0  0  0  0  0  0  0  0
    4.8953   -4.8025   11.6847 C   0  0  0  0  0  0  0  0  0  0  0  0
    3.8163   -5.8012   11.3110 C   0  0  0  0  0  0  0  0  0  0  0  0
    6.3411   -2.2298    9.3850 C   0  0  0  0  0  0  0  0  0  0  0  0
    8.5726   -1.3217   12.8395 O   0  0  0  0  0  0  0  0  0  0  0  0
    9.5541   -0.2955   12.9504 C   0  0  0  0  0  0  0  0  0  0  0  0
   10.1639   -0.3199   14.3437 C   0  0  0  0  0  0  0  0  0  0  0  0
    6.3081    0.2658    7.4851 C   0  0  0  0  0  0  0  0  0  0  0  0
    4.6560    0.1424    7.8445 S   0  0  0  0  0  0  0  0  0  0  0  0
    9.8940   -0.7132    7.9256 C   0  0  0  0  0  0  0  0  0  0  0  0
   10.9501   -0.4004    7.0774 C   0  0  0  0  0  0  0  0  0  0  0  0
   10.4224    0.6769    5.8881 S   0  0  0  0  0  0  0  0  0  0  0  0
   12.3416   -0.7333    7.3659 C   0  0  0  0  0  0  0  0  0  0  0  0
   13.1635   -1.5159    6.6443 C   0  0  0  0  0  0  0  0  0  0  0  0
   14.6006   -1.5978    6.9793 C   0  0  0  0  0  0  0  0  0  0  0  0
   15.1788   -1.0421    7.9546 O   0  0  0  0  0  0  0  0  0  0  0  0
   15.2491   -2.4006    5.9749 C   0  0  0  0  0  0  0  0  0  0  0  0
   16.5197   -2.9544    5.8483 C   0  0  0  0  0  0  0  0  0  0  0  0
   16.5590   -3.8455    4.7755 C   0  0  0  0  0  0  0  0  0  0  0  0
   17.9466   -4.8039    4.3058 Cl  0  0  0  0  0  0  0  0  0  0  0  0
   15.0290   -3.9492    4.0421 S   0  0  0  0  0  0  0  0  0  0  0  0
   14.3308   -2.8066    5.0639 C   0  0  0  0  0  0  0  0  0  0  0  0
   12.9613   -2.3547    5.3951 C   0  0  0  0  0  0  0  0  0  0  0  0
   11.8487   -2.7922    4.7609 C   0  0  0  0  0  0  0  0  0  0  0  0
   11.9518   -3.5551    3.5390 C   0  0  0  0  0  0  0  0  0  0  0  0
   12.0319   -4.1635    2.5572 N   0  0  0  0  0  0  0  0  0  0  0  0
   10.5096   -2.6835    5.2798 C   0  0  0  0  0  0  0  0  0  0  0  0
    9.4123   -2.6345    5.6590 N   0  0  0  0  0  0  0  0  0  0  0  0
  -13.2151    0.3618   -6.2813 H   0  0  0  0  0  0  0  0  0  0  0  0
   -7.7913    5.5215   -3.0108 H   0  0  0  0  0  0  0  0  0  0  0  0
   -8.2555    5.0021   -1.3298 H   0  0  0  0  0  0  0  0  0  0  0  0
   -7.0434    4.0558   -2.2726 H   0  0  0  0  0  0  0  0  0  0  0  0
  -10.0768    6.3091   -2.3990 H   0  0  0  0  0  0  0  0  0  0  0  0
  -12.3802    6.9950   -2.9196 H   0  0  0  0  0  0  0  0  0  0  0  0
  -13.9616    5.4155   -3.9470 H   0  0  0  0  0  0  0  0  0  0  0  0
  -11.3960   -1.9170   -4.7200 H   0  0  0  0  0  0  0  0  0  0  0  0
   -8.7449   -5.3865   -5.0680 H   0  0  0  0  0  0  0  0  0  0  0  0
  -10.0267   -8.2367   -1.7701 H   0  0  0  0  0  0  0  0  0  0  0  0
  -11.5419   -8.0908   -2.7522 H   0  0  0  0  0  0  0  0  0  0  0  0
  -10.6304  -10.4173   -2.7732 H   0  0  0  0  0  0  0  0  0  0  0  0
  -10.6197   -9.6827   -4.4244 H   0  0  0  0  0  0  0  0  0  0  0  0
   -9.0852   -9.8045   -3.4764 H   0  0  0  0  0  0  0  0  0  0  0  0
  -11.0326   -6.0320   -1.4780 H   0  0  0  0  0  0  0  0  0  0  0  0
  -12.2081   -2.1297    0.3664 H   0  0  0  0  0  0  0  0  0  0  0  0
  -11.6403   -1.5374   -1.2245 H   0  0  0  0  0  0  0  0  0  0  0  0
  -10.2408   -0.6508    0.6549 H   0  0  0  0  0  0  0  0  0  0  0  0
   -9.8803   -2.3335    1.2046 H   0  0  0  0  0  0  0  0  0  0  0  0
   -9.2393   -1.7368   -0.3728 H   0  0  0  0  0  0  0  0  0  0  0  0
   -9.9032   -2.0541   -2.6305 H   0  0  0  0  0  0  0  0  0  0  0  0
   -7.3058   -0.5051   -9.3038 H   0  0  0  0  0  0  0  0  0  0  0  0
   -4.7996    2.9739   -9.4761 H   0  0  0  0  0  0  0  0  0  0  0  0
   -3.0735    4.7014   -6.6235 H   0  0  0  0  0  0  0  0  0  0  0  0
   -3.2079    3.9605   -8.2472 H   0  0  0  0  0  0  0  0  0  0  0  0
   -5.0861    5.9810   -6.8573 H   0  0  0  0  0  0  0  0  0  0  0  0
   -4.2039    6.1688   -8.4178 H   0  0  0  0  0  0  0  0  0  0  0  0
   -5.6219    5.0646   -8.3156 H   0  0  0  0  0  0  0  0  0  0  0  0
   -5.9084    1.3249   -5.6719 H   0  0  0  0  0  0  0  0  0  0  0  0
   -5.6299    2.9838  -11.7593 H   0  0  0  0  0  0  0  0  0  0  0  0
   -4.2416    1.8292  -11.5820 H   0  0  0  0  0  0  0  0  0  0  0  0
   -4.8777    2.0269  -13.9524 H   0  0  0  0  0  0  0  0  0  0  0  0
   -6.5882    1.5886  -13.5624 H   0  0  0  0  0  0  0  0  0  0  0  0
   -5.2678    0.3679  -13.3487 H   0  0  0  0  0  0  0  0  0  0  0  0
   -4.6016   -0.9945   -6.2767 H   0  0  0  0  0  0  0  0  0  0  0  0
   -1.8381    0.6434   -5.6162 H   0  0  0  0  0  0  0  0  0  0  0  0
   -1.8436    1.4852   -7.9314 H   0  0  0  0  0  0  0  0  0  0  0  0
   -2.1938   -0.0528   -9.8242 H   0  0  0  0  0  0  0  0  0  0  0  0
   -3.0379   -2.2143  -10.5972 H   0  0  0  0  0  0  0  0  0  0  0  0
   -3.3567   -3.5331   -9.4281 H   0  0  0  0  0  0  0  0  0  0  0  0
   -0.8693   -3.9822   -9.2767 H   0  0  0  0  0  0  0  0  0  0  0  0
   -1.5227   -4.1831  -10.9463 H   0  0  0  0  0  0  0  0  0  0  0  0
   -0.5922   -2.6953  -10.5236 H   0  0  0  0  0  0  0  0  0  0  0  0
   -2.4909   -3.3593   -7.0737 H   0  0  0  0  0  0  0  0  0  0  0  0
    3.0000    3.7502    7.9238 H   0  0  0  0  0  0  0  0  0  0  0  0
    4.2323    5.8409    8.3541 H   0  0  0  0  0  0  0  0  0  0  0  0
    5.0697    7.2088    6.4811 H   0  0  0  0  0  0  0  0  0  0  0  0
    5.1947    6.0710    2.9852 H   0  0  0  0  0  0  0  0  0  0  0  0
    5.6316    7.3804    4.1247 H   0  0  0  0  0  0  0  0  0  0  0  0
    2.8333    6.9166    2.9072 H   0  0  0  0  0  0  0  0  0  0  0  0
    3.2697    8.2284    4.0773 H   0  0  0  0  0  0  0  0  0  0  0  0
    4.0147    8.1930    2.4319 H   0  0  0  0  0  0  0  0  0  0  0  0
    3.5237    4.3333    3.6865 H   0  0  0  0  0  0  0  0  0  0  0  0
   -3.0281   -1.8287   -0.0299 H   0  0  0  0  0  0  0  0  0  0  0  0
   -2.1944   -1.6028    1.5084 H   0  0  0  0  0  0  0  0  0  0  0  0
   -2.0145   -4.1263   -0.2847 H   0  0  0  0  0  0  0  0  0  0  0  0
   -2.9138   -3.9653    1.2640 H   0  0  0  0  0  0  0  0  0  0  0  0
   -1.1152   -3.9053    1.2500 H   0  0  0  0  0  0  0  0  0  0  0  0
    0.1513   -1.6162    4.1531 H   0  0  0  0  0  0  0  0  0  0  0  0
   -0.4475   -2.2718    2.6413 H   0  0  0  0  0  0  0  0  0  0  0  0
    2.4023   -1.1603    2.8934 H   0  0  0  0  0  0  0  0  0  0  0  0
    1.9673   -2.8883    3.1820 H   0  0  0  0  0  0  0  0  0  0  0  0
    1.7159   -2.1583    1.5491 H   0  0  0  0  0  0  0  0  0  0  0  0
    5.1831    2.2080    4.9978 H   0  0  0  0  0  0  0  0  0  0  0  0
    7.1127    0.8241    3.2365 H   0  0  0  0  0  0  0  0  0  0  0  0
    5.9974    2.5225   -0.7836 H   0  0  0  0  0  0  0  0  0  0  0  0
    6.7744    3.9939   -0.1336 H   0  0  0  0  0  0  0  0  0  0  0  0
    4.2777    4.2180   -0.2566 H   0  0  0  0  0  0  0  0  0  0  0  0
    4.8109    4.2623    1.4641 H   0  0  0  0  0  0  0  0  0  0  0  0
    4.0816    2.7570    0.7840 H   0  0  0  0  0  0  0  0  0  0  0  0
    7.4188    4.8613    1.8127 H   0  0  0  0  0  0  0  0  0  0  0  0
    8.6035    7.8965    3.7242 H   0  0  0  0  0  0  0  0  0  0  0  0
    7.5678    7.0071    2.5664 H   0  0  0  0  0  0  0  0  0  0  0  0
    9.6173    5.8442    1.6559 H   0  0  0  0  0  0  0  0  0  0  0  0
    9.8049    7.6367    1.5983 H   0  0  0  0  0  0  0  0  0  0  0  0
   10.6306    6.6862    2.8926 H   0  0  0  0  0  0  0  0  0  0  0  0
    8.5128    3.9317    5.8592 H   0  0  0  0  0  0  0  0  0  0  0  0
    8.6602    0.0054   10.4667 H   0  0  0  0  0  0  0  0  0  0  0  0
    6.7897   -3.2019   12.6226 H   0  0  0  0  0  0  0  0  0  0  0  0
    5.7914   -5.3531   12.0351 H   0  0  0  0  0  0  0  0  0  0  0  0
    4.5121   -4.1501   12.4968 H   0  0  0  0  0  0  0  0  0  0  0  0
    4.1773   -6.4612   10.4934 H   0  0  0  0  0  0  0  0  0  0  0  0
    3.5653   -6.4205   12.1958 H   0  0  0  0  0  0  0  0  0  0  0  0
    2.9055   -5.2622   10.9749 H   0  0  0  0  0  0  0  0  0  0  0  0
    5.7783   -2.5012    8.5004 H   0  0  0  0  0  0  0  0  0  0  0  0
   10.3569   -0.4572   12.1962 H   0  0  0  0  0  0  0  0  0  0  0  0
    9.0771    0.6953   12.7817 H   0  0  0  0  0  0  0  0  0  0  0  0
   10.9209    0.4851   14.4373 H   0  0  0  0  0  0  0  0  0  0  0  0
    9.3730   -0.1555   15.1042 H   0  0  0  0  0  0  0  0  0  0  0  0
   10.6544   -1.2963   14.5277 H   0  0  0  0  0  0  0  0  0  0  0  0
   10.0052   -1.3783    8.7712 H   0  0  0  0  0  0  0  0  0  0  0  0
   12.7344   -0.2457    8.2551 H   0  0  0  0  0  0  0  0  0  0  0  0
   17.3403   -2.7721    6.5296 H   0  0  0  0  0  0  0  0  0  0  0  0
  1  2  2  3
  2  3  1  0
  3  4  2  0
  3  5  1  0
  5  6  2  0
  6  7  1  0
  7  8  1  0
  6  9  1  0
  9 10  2  0
 10 11  1  0
 11 12  2  0
 12 13  1  0
 13 14  2  3
 14 15  1  0
 15 16  3  0
 14 17  1  0
 17 18  3  0
  1 19  1  0
 19 20  2  0
 20 21  1  0
 21 22  2  0
 22 23  1  0
 23 24  2  0
 24 25  1  0
 25 26  1  0
 26 27  1  0
 27 28  1  0
 25 29  2  0
 29 30  1  0
 30 31  1  0
 31 32  1  0
 32 33  1  0
 30 34  2  0
 22 35  1  0
 35 36  2  0
 36 37  1  0
 37 38  1  0
 38 39  2  0
 39 40  1  0
 40 41  2  0
 41 42  1  0
 42 43  1  0
 43 44  1  0
 44 45  1  0
 42 46  2  0
 40 47  1  0
 47 48  1  0
 48 49  1  0
 37 50  2  0
 50 51  1  0
 36 52  1  0
 52 53  2  0
 53 54  1  0
 53 55  1  0
 55 56  2  0
 56 57  1  0
 57 58  2  0
 58 59  1  0
 59 60  2  0
 60 61  1  0
 61 62  1  0
 62 63  1  0
 61 64  2  0
 56 65  1  0
 65 66  1  0
 66 67  1  0
 67 68  1  0
 68 69  1  0
 69 70  1  0
 70 71  2  0
 71 72  1  0
 72 73  1  0
 70 74  1  0
 74 75  1  0
 75 76  1  0
 76 77  1  0
 77 78  1  0
 78 79  1  0
 79 80  2  0
 80 81  1  0
 81 82  2  0
 82 83  1  0
 83 84  1  0
 84 85  1  0
 83 86  2  0
 78 87  2  0
 87 88  1  0
 88 89  1  0
 89 90  1  0
 90 91  1  0
 91 92  1  0
 92 93  1  0
 93 94  1  0
 94 95  1  0
 95 96  1  0
 96 97  1  0
 94 98  1  0
 98 99  1  0
 91100  1  0
100101  1  0
 87102  1  0
102103  2  0
103104  1  0
104105  2  0
105106  1  0
106107  2  0
107108  1  0
108109  1  0
109110  1  0
110111  1  0
108112  2  0
112113  1  0
113114  1  0
114115  1  0
115116  1  0
113117  2  0
105118  1  0
118119  2  0
119120  1  0
120121  1  0
121122  2  0
122123  1  0
123124  2  0
124125  1  0
125126  1  0
126127  1  0
127128  1  0
125129  2  0
123130  1  0
130131  1  0
131132  1  0
120133  2  0
133134  1  0
119135  1  0
135136  2  0
136137  1  0
136138  1  0
138139  2  3
139140  1  0
140141  2  0
140142  1  0
142143  1  0
143144  2  0
144145  1  0
144146  1  0
146147  1  0
147148  1  0
148149  2  3
149150  1  0
150151  3  0
149152  1  0
152153  3  0
 13  2  1  0
 51 19  1  0
 97 55  1  0
134102  1  0
148139  1  0
 12  5  1  0
 50 21  1  0
 64 57  1  0
 96 65  2  0
133104  1  0
147142  2  0
 34 23  1  0
 54 35  1  0
 95 67  2  0
117106  1  0
137118  1  0
 46 38  1  0
 93 68  2  0
129121  1  0
 73 69  2  0
 92 74  2  0
 90 75  2  0
 89 77  2  0
 86 79  1  0
  1154  1  0
  8155  1  0
  8156  1  0
  8157  1  0
  9158  1  0
 10159  1  0
 11160  1  0
 20161  1  0
 24162  1  0
 27163  1  0
 27164  1  0
 28165  1  0
 28166  1  0
 28167  1  0
 29168  1  0
 32169  1  0
 32170  1  0
 33171  1  0
 33172  1  0
 33173  1  0
 34174  1  0
 39175  1  0
 41176  1  0
 44177  1  0
 44178  1  0
 45179  1  0
 45180  1  0
 45181  1  0
 46182  1  0
 48183  1  0
 48184  1  0
 49185  1  0
 49186  1  0
 49187  1  0
 52188  1  0
 58189  1  0
 59190  1  0
 60191  1  0
 62192  1  0
 62193  1  0
 63194  1  0
 63195  1  0
 63196  1  0
 64197  1  0
 80198  1  0
 81199  1  0
 82200  1  0
 84201  1  0
 84202  1  0
 85203  1  0
 85204  1  0
 85205  1  0
 86206  1  0
 98207  1  0
 98208  1  0
 99209  1  0
 99210  1  0
 99211  1  0
100212  1  0
100213  1  0
101214  1  0
101215  1  0
101216  1  0
103217  1  0
107218  1  0
110219  1  0
110220  1  0
111221  1  0
111222  1  0
111223  1  0
112224  1  0
115225  1  0
115226  1  0
116227  1  0
116228  1  0
116229  1  0
117230  1  0
122231  1  0
124232  1  0
127233  1  0
127234  1  0
128235  1  0
128236  1  0
128237  1  0
129238  1  0
131239  1  0
131240  1  0
132241  1  0
132242  1  0
132243  1  0
135244  1  0
138245  1  0
143246  1  0
M  END

