
     RDKit          3D

190212  0  0  0  0  0  0  0  0999 V2000
    2.0040   -7.2511    6.0024 C   0  0  0  0  0  0  0  0  0  0  0  0
    0.7413   -7.7114    6.0608 C   0  0  0  0  0  0  0  0  0  0  0  0
   -0.4716   -6.8963    5.9029 C   0  0  0  0  0  0  0  0  0  0  0  0
   -0.5327   -5.7329    5.4221 O   0  0  0  0  0  0  0  0  0  0  0  0
   -1.5875   -7.6131    6.4834 C   0  0  0  0  0  0  0  0  0  0  0  0
   -2.9074   -7.1380    6.6639 C   0  0  0  0  0  0  0  0  0  0  0  0
   -3.7130   -7.9912    7.3956 C   0  0  0  0  0  0  0  0  0  0  0  0
   -3.2517   -9.2401    7.9265 C   0  0  0  0  0  0  0  0  0  0  0  0
   -1.9636   -9.7159    7.7437 C   0  0  0  0  0  0  0  0  0  0  0  0
   -1.1285   -8.8677    6.9644 C   0  0  0  0  0  0  0  0  0  0  0  0
    0.3065   -9.0330    6.6078 C   0  0  0  0  0  0  0  0  0  0  0  0
    0.9870  -10.2068    6.5285 C   0  0  0  0  0  0  0  0  0  0  0  0
    2.3076  -10.2948    5.9630 C   0  0  0  0  0  0  0  0  0  0  0  0
    3.3736  -10.3739    5.5180 N   0  0  0  0  0  0  0  0  0  0  0  0
    0.3808  -11.4721    6.8570 C   0  0  0  0  0  0  0  0  0  0  0  0
   -0.0925  -12.4977    7.1098 N   0  0  0  0  0  0  0  0  0  0  0  0
   -4.5885   -9.4793    8.5639 C   0  0  0  0  0  0  0  0  0  0  0  0
   -4.6717   -9.2699   10.1052 C   0  0  0  0  0  0  0  0  0  0  0  0
   -6.1450   -9.1815   10.4309 C   0  0  0  0  0  0  0  0  0  0  0  0
   -6.5759   -8.0200    9.9281 C   0  0  0  0  0  0  0  0  0  0  0  0
   -5.3788   -7.3592    9.2878 C   0  0  0  0  0  0  0  0  0  0  0  0
   -4.3114   -7.8026   10.2729 C   0  0  0  0  0  0  0  0  0  0  0  0
   -5.0586   -8.2032    8.0173 C   0  0  0  0  0  0  0  0  0  0  0  0
    2.3653   -5.9158    5.4990 C   0  0  0  0  0  0  0  0  0  0  0  0
    2.2100   -5.4326    3.8912 S   0  0  0  0  0  0  0  0  0  0  0  0
    3.0056   -3.9591    4.0622 C   0  0  0  0  0  0  0  0  0  0  0  0
    3.4025   -3.8164    5.3924 C   0  0  0  0  0  0  0  0  0  0  0  0
    4.1283   -2.6581    5.9601 C   0  0  0  0  0  0  0  0  0  0  0  0
    4.5177   -1.7188    5.2169 O   0  0  0  0  0  0  0  0  0  0  0  0
    4.4012   -2.6442    7.4168 C   0  0  0  0  0  0  0  0  0  0  0  0
    5.0081   -1.6017    8.1316 C   0  0  0  0  0  0  0  0  0  0  0  0
    5.4543   -0.2629    7.6187 C   0  0  0  0  0  0  0  0  0  0  0  0
    4.2700    0.6819    7.4454 C   0  0  0  0  0  0  0  0  0  0  0  0
    5.0611   -2.0392    9.7550 S   0  0  0  0  0  0  0  0  0  0  0  0
    4.3339   -3.5457    9.5853 C   0  0  0  0  0  0  0  0  0  0  0  0
    4.1217   -4.4933   10.7288 C   0  0  0  0  0  0  0  0  0  0  0  0
    5.2543   -5.5099   10.8126 C   0  0  0  0  0  0  0  0  0  0  0  0
    4.0348   -3.7417    8.2305 C   0  0  0  0  0  0  0  0  0  0  0  0
    3.3819   -4.9368    7.6404 C   0  0  0  0  0  0  0  0  0  0  0  0
    3.0936   -5.9384    8.3467 O   0  0  0  0  0  0  0  0  0  0  0  0
    3.0551   -4.9183    6.1960 C   0  0  0  0  0  0  0  0  0  0  0  0
    3.1985   -2.9776    2.9901 C   0  0  0  0  0  0  0  0  0  0  0  0
    4.2948   -2.9312    2.1029 C   0  0  0  0  0  0  0  0  0  0  0  0
    5.2752   -4.0174    1.9169 C   0  0  0  0  0  0  0  0  0  0  0  0
    6.6517   -3.7703    2.0346 C   0  0  0  0  0  0  0  0  0  0  0  0
    7.5709   -4.8025    1.8216 C   0  0  0  0  0  0  0  0  0  0  0  0
    7.1233   -6.0853    1.4889 C   0  0  0  0  0  0  0  0  0  0  0  0
    5.7498   -6.3449    1.3692 C   0  0  0  0  0  0  0  0  0  0  0  0
    5.2600   -7.7081    0.9606 C   0  0  0  0  0  0  0  0  0  0  0  0
    4.9907   -7.7532   -0.5397 C   0  0  0  0  0  0  0  0  0  0  0  0
    4.8309   -5.3048    1.5765 C   0  0  0  0  0  0  0  0  0  0  0  0
    4.2874   -1.7432    1.3684 C   0  0  0  0  0  0  0  0  0  0  0  0
    5.3008   -1.0992    0.1518 S   0  0  0  0  0  0  0  0  0  0  0  0
    4.3023    0.2704    0.0240 C   0  0  0  0  0  0  0  0  0  0  0  0
    4.2107    1.4290   -0.6877 C   0  0  0  0  0  0  0  0  0  0  0  0
    5.0770    1.9513   -1.6470 C   0  0  0  0  0  0  0  0  0  0  0  0
    4.7424    3.1767   -2.2735 C   0  0  0  0  0  0  0  0  0  0  0  0
    5.5968    3.6415   -3.2172 N   0  0  0  0  0  0  0  0  0  0  0  0
    6.7414    2.4447   -3.1728 S   0  0  0  0  0  0  0  0  0  0  0  0
    6.2285    1.3535   -2.0391 N   0  0  0  0  0  0  0  0  0  0  0  0
    3.5473    3.8039   -1.9278 C   0  0  0  0  0  0  0  0  0  0  0  0
    2.9252    4.8545   -2.5351 C   0  0  0  0  0  0  0  0  0  0  0  0
    3.1148    5.8166   -3.9237 S   0  0  0  0  0  0  0  0  0  0  0  0
    1.4816    6.3082   -3.8740 C   0  0  0  0  0  0  0  0  0  0  0  0
    0.6350    7.0028   -4.7628 C   0  0  0  0  0  0  0  0  0  0  0  0
    1.0809    7.8537   -5.8980 C   0  0  0  0  0  0  0  0  0  0  0  0
    0.4054    9.0570   -6.1769 C   0  0  0  0  0  0  0  0  0  0  0  0
    0.8179    9.8797   -7.2256 C   0  0  0  0  0  0  0  0  0  0  0  0
    1.9166    9.5223   -8.0067 C   0  0  0  0  0  0  0  0  0  0  0  0
    2.6180    8.3382   -7.7371 C   0  0  0  0  0  0  0  0  0  0  0  0
    3.8177    7.9594   -8.5657 C   0  0  0  0  0  0  0  0  0  0  0  0
    3.4562    6.8954   -9.5968 C   0  0  0  0  0  0  0  0  0  0  0  0
    2.1840    7.4964   -6.6963 C   0  0  0  0  0  0  0  0  0  0  0  0
   -0.7154    6.8299   -4.3745 C   0  0  0  0  0  0  0  0  0  0  0  0
   -0.8020    5.9229   -2.9408 S   0  0  0  0  0  0  0  0  0  0  0  0
    0.8453    5.7164   -2.8079 C   0  0  0  0  0  0  0  0  0  0  0  0
    1.6762    4.9072   -2.0412 C   0  0  0  0  0  0  0  0  0  0  0  0
    1.4440    3.9792   -1.0821 N   0  0  0  0  0  0  0  0  0  0  0  0
    2.6311    3.2758   -0.9814 C   0  0  0  0  0  0  0  0  0  0  0  0
    3.0085    2.0628   -0.2835 C   0  0  0  0  0  0  0  0  0  0  0  0
    2.4261    1.3041    0.7214 N   0  0  0  0  0  0  0  0  0  0  0  0
    3.2448    0.2325    0.8519 C   0  0  0  0  0  0  0  0  0  0  0  0
    3.2351   -0.9082    1.6416 C   0  0  0  0  0  0  0  0  0  0  0  0
    2.2695   -1.5586    2.8494 S   0  0  0  0  0  0  0  0  0  0  0  0
    1.3009    1.5361    1.6291 C   0  0  0  0  0  0  0  0  0  0  0  0
    0.0725    0.7265    1.1903 C   0  0  0  0  0  0  0  0  0  0  0  0
    0.2001    3.9462   -0.3078 C   0  0  0  0  0  0  0  0  0  0  0  0
    0.2766    4.9310    0.8637 C   0  0  0  0  0  0  0  0  0  0  0  0
   -1.9367    7.1636   -5.1289 C   0  0  0  0  0  0  0  0  0  0  0  0
   -3.2898    7.7637   -4.3313 S   0  0  0  0  0  0  0  0  0  0  0  0
   -4.4387    7.3173   -5.4647 C   0  0  0  0  0  0  0  0  0  0  0  0
   -3.7758    6.6668   -6.5113 C   0  0  0  0  0  0  0  0  0  0  0  0
   -4.4552    5.9935   -7.6408 C   0  0  0  0  0  0  0  0  0  0  0  0
   -5.6951    6.1330   -7.8085 O   0  0  0  0  0  0  0  0  0  0  0  0
   -3.6442    5.1773   -8.5729 C   0  0  0  0  0  0  0  0  0  0  0  0
   -4.1233    4.4841   -9.6932 C   0  0  0  0  0  0  0  0  0  0  0  0
   -5.5412    4.3596  -10.1782 C   0  0  0  0  0  0  0  0  0  0  0  0
   -6.2937    3.2817   -9.4056 C   0  0  0  0  0  0  0  0  0  0  0  0
   -2.8214    3.7327  -10.4414 S   0  0  0  0  0  0  0  0  0  0  0  0
   -1.6372    4.2514   -9.3713 C   0  0  0  0  0  0  0  0  0  0  0  0
   -0.1742    4.0037   -9.6049 C   0  0  0  0  0  0  0  0  0  0  0  0
    0.4355    5.1405  -10.4168 C   0  0  0  0  0  0  0  0  0  0  0  0
   -2.2473    5.0522   -8.3902 C   0  0  0  0  0  0  0  0  0  0  0  0
   -1.5698    5.7220   -7.2503 C   0  0  0  0  0  0  0  0  0  0  0  0
   -0.3390    5.5584   -7.0564 O   0  0  0  0  0  0  0  0  0  0  0  0
   -2.3791    6.5629   -6.3257 C   0  0  0  0  0  0  0  0  0  0  0  0
   -5.8544    7.1270   -5.1138 C   0  0  0  0  0  0  0  0  0  0  0  0
   -6.2921    6.0025   -4.5132 C   0  0  0  0  0  0  0  0  0  0  0  0
   -5.4681    4.8174   -4.2121 C   0  0  0  0  0  0  0  0  0  0  0  0
   -4.2108    4.7533   -4.1837 O   0  0  0  0  0  0  0  0  0  0  0  0
   -6.3487    3.7029   -3.9663 C   0  0  0  0  0  0  0  0  0  0  0  0
   -5.9995    2.3705   -3.7502 C   0  0  0  0  0  0  0  0  0  0  0  0
   -7.0196    1.4191   -3.6118 C   0  0  0  0  0  0  0  0  0  0  0  0
   -6.6502    0.0880   -3.3698 O   0  0  0  0  0  0  0  0  0  0  0  0
   -7.5745   -0.9789   -3.1677 C   0  0  0  0  0  0  0  0  0  0  0  0
   -8.3701    1.8246   -3.7309 C   0  0  0  0  0  0  0  0  0  0  0  0
   -8.6958    3.1742   -3.9594 C   0  0  0  0  0  0  0  0  0  0  0  0
   -7.6626    4.1222   -4.0362 C   0  0  0  0  0  0  0  0  0  0  0  0
   -7.7081    5.5964   -4.2550 C   0  0  0  0  0  0  0  0  0  0  0  0
   -8.7592    6.4190   -4.0069 C   0  0  0  0  0  0  0  0  0  0  0  0
   -8.6289    7.8540   -4.0135 C   0  0  0  0  0  0  0  0  0  0  0  0
   -8.5369    9.0090   -4.0128 N   0  0  0  0  0  0  0  0  0  0  0  0
  -10.0330    5.9232   -3.5546 C   0  0  0  0  0  0  0  0  0  0  0  0
  -11.0613    5.5406   -3.1851 N   0  0  0  0  0  0  0  0  0  0  0  0
    2.8104   -7.8405    6.4147 H   0  0  0  0  0  0  0  0  0  0  0  0
   -3.2433   -6.1751    6.3036 H   0  0  0  0  0  0  0  0  0  0  0  0
   -1.6367  -10.6322    8.2105 H   0  0  0  0  0  0  0  0  0  0  0  0
   -5.1164  -10.3777    8.1695 H   0  0  0  0  0  0  0  0  0  0  0  0
   -4.0925   -9.9896   10.7218 H   0  0  0  0  0  0  0  0  0  0  0  0
   -6.7243   -9.8600   11.0461 H   0  0  0  0  0  0  0  0  0  0  0  0
   -7.5667   -7.5990   10.0556 H   0  0  0  0  0  0  0  0  0  0  0  0
   -5.4691   -6.2641    9.1298 H   0  0  0  0  0  0  0  0  0  0  0  0
   -4.4786   -7.4263   11.3115 H   0  0  0  0  0  0  0  0  0  0  0  0
   -3.2714   -7.5537    9.9685 H   0  0  0  0  0  0  0  0  0  0  0  0
   -5.8885   -8.2944    7.2816 H   0  0  0  0  0  0  0  0  0  0  0  0
    6.1683    0.1835    8.3412 H   0  0  0  0  0  0  0  0  0  0  0  0
    5.9984   -0.3798    6.6599 H   0  0  0  0  0  0  0  0  0  0  0  0
    4.6270    1.6506    7.0334 H   0  0  0  0  0  0  0  0  0  0  0  0
    3.5253    0.2522    6.7441 H   0  0  0  0  0  0  0  0  0  0  0  0
    3.7801    0.8704    8.4246 H   0  0  0  0  0  0  0  0  0  0  0  0
    4.0876   -3.9183   11.6785 H   0  0  0  0  0  0  0  0  0  0  0  0
    3.1438   -5.0090   10.6294 H   0  0  0  0  0  0  0  0  0  0  0  0
    5.3616   -6.0592    9.8531 H   0  0  0  0  0  0  0  0  0  0  0  0
    6.2120   -4.9966   11.0466 H   0  0  0  0  0  0  0  0  0  0  0  0
    5.0359   -6.2435   11.6181 H   0  0  0  0  0  0  0  0  0  0  0  0
    7.0097   -2.7814    2.2879 H   0  0  0  0  0  0  0  0  0  0  0  0
    8.6324   -4.6089    1.9107 H   0  0  0  0  0  0  0  0  0  0  0  0
    7.8483   -6.8722    1.3137 H   0  0  0  0  0  0  0  0  0  0  0  0
    4.3224   -7.9509    1.5090 H   0  0  0  0  0  0  0  0  0  0  0  0
    6.0111   -8.4844    1.2201 H   0  0  0  0  0  0  0  0  0  0  0  0
    4.6068   -8.7553   -0.8211 H   0  0  0  0  0  0  0  0  0  0  0  0
    4.2282   -6.9934   -0.8177 H   0  0  0  0  0  0  0  0  0  0  0  0
    5.9269   -7.5585   -1.1042 H   0  0  0  0  0  0  0  0  0  0  0  0
    3.7723   -5.4912    1.4391 H   0  0  0  0  0  0  0  0  0  0  0  0
   -0.4313    9.3766   -5.5661 H   0  0  0  0  0  0  0  0  0  0  0  0
    0.2906   10.8026   -7.4281 H   0  0  0  0  0  0  0  0  0  0  0  0
    2.2296   10.1725   -8.8139 H   0  0  0  0  0  0  0  0  0  0  0  0
    4.2290    8.8484   -9.0946 H   0  0  0  0  0  0  0  0  0  0  0  0
    4.6202    7.5681   -7.9016 H   0  0  0  0  0  0  0  0  0  0  0  0
    2.6560    7.2670  -10.2744 H   0  0  0  0  0  0  0  0  0  0  0  0
    3.1175    5.9708   -9.0827 H   0  0  0  0  0  0  0  0  0  0  0  0
    4.3510    6.6514  -10.2061 H   0  0  0  0  0  0  0  0  0  0  0  0
    2.6967    6.5611   -6.5289 H   0  0  0  0  0  0  0  0  0  0  0  0
    1.5782    1.2183    2.6575 H   0  0  0  0  0  0  0  0  0  0  0  0
    1.1025    2.6060    1.7514 H   0  0  0  0  0  0  0  0  0  0  0  0
   -0.8409    1.1387    1.6650 H   0  0  0  0  0  0  0  0  0  0  0  0
   -0.0493    0.7461    0.0847 H   0  0  0  0  0  0  0  0  0  0  0  0
    0.1743   -0.3360    1.4853 H   0  0  0  0  0  0  0  0  0  0  0  0
   -0.0528    2.9371   -0.0126 H   0  0  0  0  0  0  0  0  0  0  0  0
   -0.6655    4.2275   -0.9354 H   0  0  0  0  0  0  0  0  0  0  0  0
    0.2080    5.9727    0.4822 H   0  0  0  0  0  0  0  0  0  0  0  0
    1.2437    4.8322    1.4061 H   0  0  0  0  0  0  0  0  0  0  0  0
   -0.5642    4.7508    1.5669 H   0  0  0  0  0  0  0  0  0  0  0  0
   -6.0721    5.3316  -10.0994 H   0  0  0  0  0  0  0  0  0  0  0  0
   -5.5342    4.0864  -11.2558 H   0  0  0  0  0  0  0  0  0  0  0  0
   -7.3543    3.2578   -9.7386 H   0  0  0  0  0  0  0  0  0  0  0  0
   -6.2678    3.4868   -8.3148 H   0  0  0  0  0  0  0  0  0  0  0  0
   -5.8401    2.2869   -9.6018 H   0  0  0  0  0  0  0  0  0  0  0  0
   -0.0532    3.0562  -10.1720 H   0  0  0  0  0  0  0  0  0  0  0  0
    0.3679    3.8734   -8.6502 H   0  0  0  0  0  0  0  0  0  0  0  0
    1.5068    4.9200  -10.6139 H   0  0  0  0  0  0  0  0  0  0  0  0
   -0.0885    5.2399  -11.3958 H   0  0  0  0  0  0  0  0  0  0  0  0
    0.3551    6.0997   -9.8569 H   0  0  0  0  0  0  0  0  0  0  0  0
   -6.5438    7.8808   -5.4598 H   0  0  0  0  0  0  0  0  0  0  0  0
   -4.9589    2.0754   -3.6988 H   0  0  0  0  0  0  0  0  0  0  0  0
   -8.1853   -1.1338   -4.0837 H   0  0  0  0  0  0  0  0  0  0  0  0
   -7.0060   -1.9086   -2.9574 H   0  0  0  0  0  0  0  0  0  0  0  0
   -8.2331   -0.7564   -2.2992 H   0  0  0  0  0  0  0  0  0  0  0  0
   -9.1732    1.1036   -3.6611 H   0  0  0  0  0  0  0  0  0  0  0  0
   -9.7314    3.4410   -4.0999 H   0  0  0  0  0  0  0  0  0  0  0  0
  1  2  2  3
  2  3  1  0
  3  4  2  0
  3  5  1  0
  5  6  2  0
  6  7  1  0
  7  8  2  0
  8  9  1  0
  9 10  2  0
 10 11  1  0
 11 12  2  3
 12 13  1  0
 13 14  3  0
 12 15  1  0
 15 16  3  0
  8 17  1  0
 17 18  1  0
 18 19  1  0
 19 20  2  0
 20 21  1  0
 21 22  1  0
 21 23  1  0
  1 24  1  0
 24 25  1  0
 25 26  1  0
 26 27  2  0
 27 28  1  0
 28 29  2  0
 28 30  1  0
 30 31  2  0
 31 32  1  0
 32 33  1  0
 31 34  1  0
 34 35  1  0
 35 36  1  0
 36 37  1  0
 35 38  2  0
 38 39  1  0
 39 40  2  0
 39 41  1  0
 26 42  1  0
 42 43  2  0
 43 44  1  0
 44 45  2  0
 45 46  1  0
 46 47  2  0
 47 48  1  0
 48 49  1  0
 49 50  1  0
 48 51  2  0
 43 52  1  0
 52 53  1  0
 53 54  1  0
 54 55  1  0
 55 56  1  0
 56 57  1  0
 57 58  2  0
 58 59  1  0
 59 60  1  0
 57 61  1  0
 61 62  1  0
 62 63  1  0
 63 64  1  0
 64 65  1  0
 65 66  1  0
 66 67  2  0
 67 68  1  0
 68 69  2  0
 69 70  1  0
 70 71  1  0
 71 72  1  0
 70 73  2  0
 65 74  2  0
 74 75  1  0
 75 76  1  0
 76 77  1  0
 77 78  1  0
 78 79  1  0
 79 80  1  0
 80 81  1  0
 81 82  1  0
 82 83  1  0
 83 84  1  0
 81 85  1  0
 85 86  1  0
 78 87  1  0
 87 88  1  0
 74 89  1  0
 89 90  1  0
 90 91  1  0
 91 92  2  0
 92 93  1  0
 93 94  2  0
 93 95  1  0
 95 96  2  0
 96 97  1  0
 97 98  1  0
 96 99  1  0
 99100  1  0
100101  1  0
101102  1  0
100103  2  0
103104  1  0
104105  2  0
104106  1  0
 91107  1  0
107108  2  3
108109  1  0
109110  2  0
109111  1  0
111112  2  0
112113  1  0
113114  1  0
114115  1  0
113116  2  0
116117  1  0
117118  2  0
118119  1  0
119120  2  3
120121  1  0
121122  3  0
120123  1  0
123124  3  0
 11  2  1  0
 23 17  1  0
 41 24  2  0
 84 42  1  0
106 89  2  0
119108  1  0
 10  5  1  0
 22 18  1  0
 41 27  1  0
 51 44  1  0
 83 52  2  0
106 92  1  0
118111  1  0
 23  7  1  0
 38 30  1  0
 82 54  2  0
103 95  1  0
 80 55  2  0
 60 56  2  0
 79 61  2  0
 77 62  2  0
 76 64  2  0
 73 66  1  0
  1125  1  0
  6126  1  0
  9127  1  0
 17128  1  0
 18129  1  0
 19130  1  0
 20131  1  0
 21132  1  0
 22133  1  0
 22134  1  0
 23135  1  0
 32136  1  0
 32137  1  0
 33138  1  0
 33139  1  0
 33140  1  0
 36141  1  0
 36142  1  0
 37143  1  0
 37144  1  0
 37145  1  0
 45146  1  0
 46147  1  0
 47148  1  0
 49149  1  0
 49150  1  0
 50151  1  0
 50152  1  0
 50153  1  0
 51154  1  0
 67155  1  0
 68156  1  0
 69157  1  0
 71158  1  0
 71159  1  0
 72160  1  0
 72161  1  0
 72162  1  0
 73163  1  0
 85164  1  0
 85165  1  0
 86166  1  0
 86167  1  0
 86168  1  0
 87169  1  0
 87170  1  0
 88171  1  0
 88172  1  0
 88173  1  0
 97174  1  0
 97175  1  0
 98176  1  0
 98177  1  0
 98178  1  0
101179  1  0
101180  1  0
102181  1  0
102182  1  0
102183  1  0
107184  1  0
112185  1  0
115186  1  0
115187  1  0
115188  1  0
116189  1  0
117190  1  0
M  END

