
     RDKit          3D

221248  0  0  0  0  0  0  0  0999 V2000
   -4.5499   -3.5150   -5.1080 C   0  0  0  0  0  0  0  0  0  0  0  0
   -3.3047   -4.0252   -5.0091 C   0  0  0  0  0  0  0  0  0  0  0  0
   -2.3953   -3.9045   -3.8620 C   0  0  0  0  0  0  0  0  0  0  0  0
   -2.7290   -3.7538   -2.6554 O   0  0  0  0  0  0  0  0  0  0  0  0
   -1.0395   -4.0867   -4.3276 C   0  0  0  0  0  0  0  0  0  0  0  0
    0.1510   -3.8984   -3.5886 C   0  0  0  0  0  0  0  0  0  0  0  0
    1.3042   -4.0699   -4.3305 C   0  0  0  0  0  0  0  0  0  0  0  0
    1.2965   -4.4003   -5.7237 C   0  0  0  0  0  0  0  0  0  0  0  0
    0.1318   -4.5803   -6.4551 C   0  0  0  0  0  0  0  0  0  0  0  0
   -1.0675   -4.4364   -5.7018 C   0  0  0  0  0  0  0  0  0  0  0  0
   -2.4852   -4.5592   -6.1402 C   0  0  0  0  0  0  0  0  0  0  0  0
   -2.9437   -5.2460   -7.2186 C   0  0  0  0  0  0  0  0  0  0  0  0
   -4.3349   -5.5826   -7.3806 C   0  0  0  0  0  0  0  0  0  0  0  0
   -5.4476   -5.8658   -7.5109 N   0  0  0  0  0  0  0  0  0  0  0  0
   -2.0636   -5.8318   -8.1974 C   0  0  0  0  0  0  0  0  0  0  0  0
   -1.3707   -6.3059   -8.9936 N   0  0  0  0  0  0  0  0  0  0  0  0
    2.7971   -4.3720   -5.7569 C   0  0  0  0  0  0  0  0  0  0  0  0
    3.4978   -3.1496   -6.4255 C   0  0  0  0  0  0  0  0  0  0  0  0
    2.6348   -1.9188   -6.2804 C   0  0  0  0  0  0  0  0  0  0  0  0
    2.6316   -1.6076   -4.9850 C   0  0  0  0  0  0  0  0  0  0  0  0
    3.4954   -2.6368   -4.2894 C   0  0  0  0  0  0  0  0  0  0  0  0
    4.5427   -2.8388   -5.3683 C   0  0  0  0  0  0  0  0  0  0  0  0
    2.8039   -4.0330   -4.3311 C   0  0  0  0  0  0  0  0  0  0  0  0
   -5.2293   -2.7078   -4.0699 C   0  0  0  0  0  0  0  0  0  0  0  0
   -4.4967   -1.4842   -3.1700 S   0  0  0  0  0  0  0  0  0  0  0  0
   -5.8911   -0.7942   -2.5507 C   0  0  0  0  0  0  0  0  0  0  0  0
   -6.9823   -1.4919   -3.0709 C   0  0  0  0  0  0  0  0  0  0  0  0
   -8.4064   -1.1730   -2.8253 C   0  0  0  0  0  0  0  0  0  0  0  0
   -8.7345   -0.3898   -1.8952 O   0  0  0  0  0  0  0  0  0  0  0  0
   -9.4288   -1.8290   -3.6718 C   0  0  0  0  0  0  0  0  0  0  0  0
  -10.7858   -1.4928   -3.7365 C   0  0  0  0  0  0  0  0  0  0  0  0
  -11.5202   -0.4335   -2.9634 C   0  0  0  0  0  0  0  0  0  0  0  0
  -11.9791   -0.9690   -1.6125 C   0  0  0  0  0  0  0  0  0  0  0  0
  -11.5241   -2.5193   -4.8446 S   0  0  0  0  0  0  0  0  0  0  0  0
  -10.1524   -3.3942   -5.2672 C   0  0  0  0  0  0  0  0  0  0  0  0
  -10.1390   -4.4481   -6.3350 C   0  0  0  0  0  0  0  0  0  0  0  0
   -9.6187   -3.8874   -7.6551 C   0  0  0  0  0  0  0  0  0  0  0  0
   -9.0682   -2.8819   -4.5410 C   0  0  0  0  0  0  0  0  0  0  0  0
   -7.6556   -3.3335   -4.6370 C   0  0  0  0  0  0  0  0  0  0  0  0
   -7.3501   -4.3687   -5.2828 O   0  0  0  0  0  0  0  0  0  0  0  0
   -6.6166   -2.5493   -3.9322 C   0  0  0  0  0  0  0  0  0  0  0  0
   -5.8975    0.4983   -1.8516 C   0  0  0  0  0  0  0  0  0  0  0  0
   -6.4767    1.6916   -2.3267 C   0  0  0  0  0  0  0  0  0  0  0  0
   -7.3005    1.8283   -3.5453 C   0  0  0  0  0  0  0  0  0  0  0  0
   -6.8699    1.3061   -4.7757 C   0  0  0  0  0  0  0  0  0  0  0  0
   -7.6688    1.4359   -5.9131 C   0  0  0  0  0  0  0  0  0  0  0  0
   -8.8997    2.0952   -5.8350 C   0  0  0  0  0  0  0  0  0  0  0  0
   -9.3453    2.6183   -4.6115 C   0  0  0  0  0  0  0  0  0  0  0  0
  -10.6507    3.3612   -4.5238 C   0  0  0  0  0  0  0  0  0  0  0  0
  -10.4115    4.8660   -4.5293 C   0  0  0  0  0  0  0  0  0  0  0  0
   -8.5356    2.4903   -3.4724 C   0  0  0  0  0  0  0  0  0  0  0  0
   -6.0725    2.7839   -1.5535 C   0  0  0  0  0  0  0  0  0  0  0  0
   -6.0417    4.4430   -1.9085 S   0  0  0  0  0  0  0  0  0  0  0  0
   -4.9743    4.7612   -0.6279 C   0  0  0  0  0  0  0  0  0  0  0  0
   -3.9435    5.6551   -0.4845 C   0  0  0  0  0  0  0  0  0  0  0  0
   -3.5022    6.6210   -1.4109 C   0  0  0  0  0  0  0  0  0  0  0  0
   -2.1295    7.0118   -1.4053 C   0  0  0  0  0  0  0  0  0  0  0  0
   -1.7215    7.8588   -2.3826 N   0  0  0  0  0  0  0  0  0  0  0  0
   -3.1486    8.0443   -3.2026 S   0  0  0  0  0  0  0  0  0  0  0  0
   -4.2709    7.1177   -2.4125 N   0  0  0  0  0  0  0  0  0  0  0  0
   -1.2961    6.5115   -0.4023 C   0  0  0  0  0  0  0  0  0  0  0  0
    0.0611    6.5904   -0.2166 C   0  0  0  0  0  0  0  0  0  0  0  0
    1.3407    6.5090   -1.3343 S   0  0  0  0  0  0  0  0  0  0  0  0
    2.2923    5.5661   -0.2797 C   0  0  0  0  0  0  0  0  0  0  0  0
    3.4241    4.7588   -0.4699 C   0  0  0  0  0  0  0  0  0  0  0  0
    4.2039    4.6770   -1.7229 C   0  0  0  0  0  0  0  0  0  0  0  0
    3.5541    4.5478   -2.9596 C   0  0  0  0  0  0  0  0  0  0  0  0
    4.2957    4.4871   -4.1418 C   0  0  0  0  0  0  0  0  0  0  0  0
    5.6899    4.5436   -4.0993 C   0  0  0  0  0  0  0  0  0  0  0  0
    6.3571    4.6401   -2.8687 C   0  0  0  0  0  0  0  0  0  0  0  0
    7.8621    4.7080   -2.8202 C   0  0  0  0  0  0  0  0  0  0  0  0
    8.3339    6.1365   -2.5667 C   0  0  0  0  0  0  0  0  0  0  0  0
    5.6076    4.7108   -1.6831 C   0  0  0  0  0  0  0  0  0  0  0  0
    3.6250    3.9189    0.6441 C   0  0  0  0  0  0  0  0  0  0  0  0
    2.3579    4.1125    1.7596 S   0  0  0  0  0  0  0  0  0  0  0  0
    1.6158    5.3274    0.8900 C   0  0  0  0  0  0  0  0  0  0  0  0
    0.3377    5.8560    0.9085 C   0  0  0  0  0  0  0  0  0  0  0  0
   -0.7721    5.2920    1.4403 N   0  0  0  0  0  0  0  0  0  0  0  0
   -1.7688    5.6453    0.5822 C   0  0  0  0  0  0  0  0  0  0  0  0
   -3.0498    5.0638    0.4273 C   0  0  0  0  0  0  0  0  0  0  0  0
   -3.4137    3.7620    0.6796 N   0  0  0  0  0  0  0  0  0  0  0  0
   -4.6015    3.6213    0.0279 C   0  0  0  0  0  0  0  0  0  0  0  0
   -5.2191    2.4909   -0.5177 C   0  0  0  0  0  0  0  0  0  0  0  0
   -4.8800    0.8470   -0.5363 S   0  0  0  0  0  0  0  0  0  0  0  0
   -2.5137    2.6383    0.9881 C   0  0  0  0  0  0  0  0  0  0  0  0
   -1.6344    2.2900   -0.2124 C   0  0  0  0  0  0  0  0  0  0  0  0
   -0.9285    4.9504    2.8607 C   0  0  0  0  0  0  0  0  0  0  0  0
   -0.5966    6.1456    3.7535 C   0  0  0  0  0  0  0  0  0  0  0  0
    4.5506    2.7931    0.7454 C   0  0  0  0  0  0  0  0  0  0  0  0
    5.4675    2.6655    1.7843 C   0  0  0  0  0  0  0  0  0  0  0  0
    5.8393    1.3347    2.0325 C   0  0  0  0  0  0  0  0  0  0  0  0
    6.6423    0.8852    3.1011 C   0  0  0  0  0  0  0  0  0  0  0  0
    7.2021    1.8134    4.1052 C   0  0  0  0  0  0  0  0  0  0  0  0
    8.5905    1.9227    4.2647 C   0  0  0  0  0  0  0  0  0  0  0  0
    9.1198    2.7736    5.2411 C   0  0  0  0  0  0  0  0  0  0  0  0
    8.2653    3.5140    6.0650 C   0  0  0  0  0  0  0  0  0  0  0  0
    6.8778    3.3919    5.9254 C   0  0  0  0  0  0  0  0  0  0  0  0
    5.7812    4.3366    6.9869 S   0  0  0  0  0  0  0  0  0  0  0  0
    5.7185    3.0903    8.3222 C   0  0  0  0  0  0  0  0  0  0  0  0
    4.6626    2.0314    8.0314 C   0  0  0  0  0  0  0  0  0  0  0  0
    6.3484    2.5491    4.9407 C   0  0  0  0  0  0  0  0  0  0  0  0
    6.7582   -0.5034    3.2667 C   0  0  0  0  0  0  0  0  0  0  0  0
    6.1028   -1.4221    2.4378 C   0  0  0  0  0  0  0  0  0  0  0  0
    5.3140   -0.9739    1.3568 C   0  0  0  0  0  0  0  0  0  0  0  0
    4.4728   -1.9092    0.5853 C   0  0  0  0  0  0  0  0  0  0  0  0
    5.0595   -2.8686   -0.2532 C   0  0  0  0  0  0  0  0  0  0  0  0
    4.2565   -3.7941   -0.9258 C   0  0  0  0  0  0  0  0  0  0  0  0
    2.8665   -3.7553   -0.7787 C   0  0  0  0  0  0  0  0  0  0  0  0
    2.2762   -2.8012    0.0564 C   0  0  0  0  0  0  0  0  0  0  0  0
    0.4952   -2.7610    0.2684 S   0  0  0  0  0  0  0  0  0  0  0  0
    0.5134   -3.9305    1.6661 C   0  0  0  0  0  0  0  0  0  0  0  0
   -0.9083   -4.2276    2.1135 C   0  0  0  0  0  0  0  0  0  0  0  0
    3.0784   -1.8797    0.7388 C   0  0  0  0  0  0  0  0  0  0  0  0
    5.2111    0.4180    1.1804 C   0  0  0  0  0  0  0  0  0  0  0  0
    4.1931    1.2606    0.1353 S   0  0  0  0  0  0  0  0  0  0  0  0
    6.1822   -2.7441    2.9117 C   0  0  0  0  0  0  0  0  0  0  0  0
    6.8621   -2.8405    4.1245 C   0  0  0  0  0  0  0  0  0  0  0  0
    7.4136   -1.3162    4.5832 S   0  0  0  0  0  0  0  0  0  0  0  0
    6.8928   -3.9993    5.0244 C   0  0  0  0  0  0  0  0  0  0  0  0
    5.7901   -4.4916    5.6270 C   0  0  0  0  0  0  0  0  0  0  0  0
    4.4233   -3.9587    5.4932 C   0  0  0  0  0  0  0  0  0  0  0  0
    3.9713   -3.2681    4.5423 O   0  0  0  0  0  0  0  0  0  0  0  0
    3.6672   -4.3109    6.6726 C   0  0  0  0  0  0  0  0  0  0  0  0
    2.3771   -3.8501    7.0180 C   0  0  0  0  0  0  0  0  0  0  0  0
    1.9959   -4.1761    8.3051 C   0  0  0  0  0  0  0  0  0  0  0  0
    2.8306   -4.9071    9.2075 C   0  0  0  0  0  0  0  0  0  0  0  0
    4.0903   -5.3793    8.8682 C   0  0  0  0  0  0  0  0  0  0  0  0
    4.4887   -5.0801    7.5340 C   0  0  0  0  0  0  0  0  0  0  0  0
    5.7848   -5.3478    6.8529 C   0  0  0  0  0  0  0  0  0  0  0  0
    6.6776   -6.3214    7.1624 C   0  0  0  0  0  0  0  0  0  0  0  0
    7.7736   -6.6597    6.2885 C   0  0  0  0  0  0  0  0  0  0  0  0
    8.6536   -6.9409    5.5890 N   0  0  0  0  0  0  0  0  0  0  0  0
    6.5129   -7.1835    8.3025 C   0  0  0  0  0  0  0  0  0  0  0  0
    6.3913   -7.8841    9.2176 N   0  0  0  0  0  0  0  0  0  0  0  0
    1.8166   -4.7480   10.3030 C   0  0  0  0  0  0  0  0  0  0  0  0
    2.1094   -3.7011   11.4220 C   0  0  0  0  0  0  0  0  0  0  0  0
    2.9277   -2.5578   10.8633 C   0  0  0  0  0  0  0  0  0  0  0  0
    2.1338   -1.8950   10.0223 C   0  0  0  0  0  0  0  0  0  0  0  0
    0.8027   -2.6120   10.0317 C   0  0  0  0  0  0  0  0  0  0  0  0
    0.7588   -3.0140   11.4947 C   0  0  0  0  0  0  0  0  0  0  0  0
    0.9511   -4.0167    9.3712 C   0  0  0  0  0  0  0  0  0  0  0  0
   -5.0695   -3.5752   -6.0516 H   0  0  0  0  0  0  0  0  0  0  0  0
    0.1644   -3.6187   -2.5448 H   0  0  0  0  0  0  0  0  0  0  0  0
    0.1697   -4.7790   -7.5122 H   0  0  0  0  0  0  0  0  0  0  0  0
    3.2579   -5.3598   -5.9837 H   0  0  0  0  0  0  0  0  0  0  0  0
    3.8952   -3.3265   -7.4458 H   0  0  0  0  0  0  0  0  0  0  0  0
    2.1757   -1.3404   -7.0727 H   0  0  0  0  0  0  0  0  0  0  0  0
    2.1684   -0.7308   -4.5430 H   0  0  0  0  0  0  0  0  0  0  0  0
    3.8884   -2.3197   -3.3011 H   0  0  0  0  0  0  0  0  0  0  0  0
    5.2365   -3.6870   -5.1620 H   0  0  0  0  0  0  0  0  0  0  0  0
    5.1362   -1.9194   -5.5897 H   0  0  0  0  0  0  0  0  0  0  0  0
    3.2757   -4.8143   -3.6958 H   0  0  0  0  0  0  0  0  0  0  0  0
  -10.8800    0.4638   -2.8217 H   0  0  0  0  0  0  0  0  0  0  0  0
  -12.4117   -0.1087   -3.5431 H   0  0  0  0  0  0  0  0  0  0  0  0
  -12.6518   -1.8415   -1.7555 H   0  0  0  0  0  0  0  0  0  0  0  0
  -11.1065   -1.2764   -0.9986 H   0  0  0  0  0  0  0  0  0  0  0  0
  -12.5352   -0.1765   -1.0662 H   0  0  0  0  0  0  0  0  0  0  0  0
   -9.5213   -5.3147   -6.0174 H   0  0  0  0  0  0  0  0  0  0  0  0
  -11.1723   -4.8248   -6.4887 H   0  0  0  0  0  0  0  0  0  0  0  0
  -10.2473   -3.0277   -7.9809 H   0  0  0  0  0  0  0  0  0  0  0  0
   -8.5676   -3.5452   -7.5475 H   0  0  0  0  0  0  0  0  0  0  0  0
   -9.6595   -4.6766   -8.4342 H   0  0  0  0  0  0  0  0  0  0  0  0
   -5.9129    0.8074   -4.8565 H   0  0  0  0  0  0  0  0  0  0  0  0
   -7.3309    1.0343   -6.8596 H   0  0  0  0  0  0  0  0  0  0  0  0
   -9.5022    2.2009   -6.7300 H   0  0  0  0  0  0  0  0  0  0  0  0
  -11.3097    3.0944   -5.3775 H   0  0  0  0  0  0  0  0  0  0  0  0
  -11.1815    3.0738   -3.5910 H   0  0  0  0  0  0  0  0  0  0  0  0
  -11.3815    5.3965   -4.4169 H   0  0  0  0  0  0  0  0  0  0  0  0
   -9.7479    5.1634   -3.6876 H   0  0  0  0  0  0  0  0  0  0  0  0
   -9.9438    5.1756   -5.4904 H   0  0  0  0  0  0  0  0  0  0  0  0
   -8.8719    2.9023   -2.5278 H   0  0  0  0  0  0  0  0  0  0  0  0
    2.4768    4.4730   -3.0110 H   0  0  0  0  0  0  0  0  0  0  0  0
    3.7878    4.3947   -5.0921 H   0  0  0  0  0  0  0  0  0  0  0  0
    6.2499    4.5055   -5.0272 H   0  0  0  0  0  0  0  0  0  0  0  0
    8.2983    4.3487   -3.7769 H   0  0  0  0  0  0  0  0  0  0  0  0
    8.2381    4.0445   -2.0118 H   0  0  0  0  0  0  0  0  0  0  0  0
    7.9604    6.5018   -1.5857 H   0  0  0  0  0  0  0  0  0  0  0  0
    7.9713    6.8120   -3.3720 H   0  0  0  0  0  0  0  0  0  0  0  0
    9.4449    6.1608   -2.5525 H   0  0  0  0  0  0  0  0  0  0  0  0
    6.1184    4.8071   -0.7312 H   0  0  0  0  0  0  0  0  0  0  0  0
   -1.8698    2.8489    1.8511 H   0  0  0  0  0  0  0  0  0  0  0  0
   -3.1039    1.7534    1.3008 H   0  0  0  0  0  0  0  0  0  0  0  0
   -0.9462    3.1279   -0.4387 H   0  0  0  0  0  0  0  0  0  0  0  0
   -1.0279    1.3881    0.0149 H   0  0  0  0  0  0  0  0  0  0  0  0
   -2.2594    2.0905   -1.1037 H   0  0  0  0  0  0  0  0  0  0  0  0
   -1.9794    4.6645    3.0771 H   0  0  0  0  0  0  0  0  0  0  0  0
   -0.2650    4.1010    3.1183 H   0  0  0  0  0  0  0  0  0  0  0  0
   -0.7638    5.8728    4.8169 H   0  0  0  0  0  0  0  0  0  0  0  0
    0.4642    6.4412    3.6301 H   0  0  0  0  0  0  0  0  0  0  0  0
   -1.2520    7.0012    3.4944 H   0  0  0  0  0  0  0  0  0  0  0  0
    5.7705    3.5014    2.4006 H   0  0  0  0  0  0  0  0  0  0  0  0
    9.2618    1.3513    3.6352 H   0  0  0  0  0  0  0  0  0  0  0  0
   10.1922    2.8599    5.3574 H   0  0  0  0  0  0  0  0  0  0  0  0
    8.6834    4.1716    6.8166 H   0  0  0  0  0  0  0  0  0  0  0  0
    5.4534    3.6090    9.2675 H   0  0  0  0  0  0  0  0  0  0  0  0
    6.7103    2.6116    8.4627 H   0  0  0  0  0  0  0  0  0  0  0  0
    4.5731    1.3476    8.9013 H   0  0  0  0  0  0  0  0  0  0  0  0
    3.6768    2.5110    7.8532 H   0  0  0  0  0  0  0  0  0  0  0  0
    4.9471    1.4340    7.1417 H   0  0  0  0  0  0  0  0  0  0  0  0
    5.2726    2.4569    4.8332 H   0  0  0  0  0  0  0  0  0  0  0  0
    6.1359   -2.9095   -0.3701 H   0  0  0  0  0  0  0  0  0  0  0  0
    4.7111   -4.5344   -1.5698 H   0  0  0  0  0  0  0  0  0  0  0  0
    2.2527   -4.4764   -1.2992 H   0  0  0  0  0  0  0  0  0  0  0  0
    1.0013   -4.8785    1.3534 H   0  0  0  0  0  0  0  0  0  0  0  0
    1.0820   -3.4902    2.5131 H   0  0  0  0  0  0  0  0  0  0  0  0
   -1.4072   -3.2961    2.4532 H   0  0  0  0  0  0  0  0  0  0  0  0
   -0.8903   -4.9516    2.9533 H   0  0  0  0  0  0  0  0  0  0  0  0
   -1.4882   -4.6676    1.2761 H   0  0  0  0  0  0  0  0  0  0  0  0
    2.6206   -1.1596    1.4048 H   0  0  0  0  0  0  0  0  0  0  0  0
    5.6778   -3.5848    2.4507 H   0  0  0  0  0  0  0  0  0  0  0  0
    7.8679   -4.2664    5.4025 H   0  0  0  0  0  0  0  0  0  0  0  0
    1.7713   -3.2357    6.3650 H   0  0  0  0  0  0  0  0  0  0  0  0
    4.7108   -5.8697    9.5984 H   0  0  0  0  0  0  0  0  0  0  0  0
    1.3791   -5.7069   10.6582 H   0  0  0  0  0  0  0  0  0  0  0  0
    2.4820   -4.1219   12.3790 H   0  0  0  0  0  0  0  0  0  0  0  0
    3.9380   -2.2755   11.1391 H   0  0  0  0  0  0  0  0  0  0  0  0
    2.3865   -0.9792    9.4981 H   0  0  0  0  0  0  0  0  0  0  0  0
   -0.0579   -2.0092    9.6755 H   0  0  0  0  0  0  0  0  0  0  0  0
    0.7402   -2.1427   12.1930 H   0  0  0  0  0  0  0  0  0  0  0  0
   -0.0800   -3.7058   11.7425 H   0  0  0  0  0  0  0  0  0  0  0  0
   -0.0092   -4.5352    9.1440 H   0  0  0  0  0  0  0  0  0  0  0  0
  1  2  2  3
  2  3  1  0
  3  4  2  0
  3  5  1  0
  5  6  2  0
  6  7  1  0
  7  8  2  0
  8  9  1  0
  9 10  2  0
 10 11  1  0
 11 12  2  3
 12 13  1  0
 13 14  3  0
 12 15  1  0
 15 16  3  0
  8 17  1  0
 17 18  1  0
 18 19  1  0
 19 20  2  0
 20 21  1  0
 21 22  1  0
 21 23  1  0
  1 24  1  0
 24 25  1  0
 25 26  1  0
 26 27  2  0
 27 28  1  0
 28 29  2  0
 28 30  1  0
 30 31  2  0
 31 32  1  0
 32 33  1  0
 31 34  1  0
 34 35  1  0
 35 36  1  0
 36 37  1  0
 35 38  2  0
 38 39  1  0
 39 40  2  0
 39 41  1  0
 26 42  1  0
 42 43  2  0
 43 44  1  0
 44 45  2  0
 45 46  1  0
 46 47  2  0
 47 48  1  0
 48 49  1  0
 49 50  1  0
 48 51  2  0
 43 52  1  0
 52 53  1  0
 53 54  1  0
 54 55  1  0
 55 56  1  0
 56 57  1  0
 57 58  2  0
 58 59  1  0
 59 60  1  0
 57 61  1  0
 61 62  1  0
 62 63  1  0
 63 64  1  0
 64 65  1  0
 65 66  1  0
 66 67  2  0
 67 68  1  0
 68 69  2  0
 69 70  1  0
 70 71  1  0
 71 72  1  0
 70 73  2  0
 65 74  2  0
 74 75  1  0
 75 76  1  0
 76 77  1  0
 77 78  1  0
 78 79  1  0
 79 80  1  0
 80 81  1  0
 81 82  1  0
 82 83  1  0
 83 84  1  0
 81 85  1  0
 85 86  1  0
 78 87  1  0
 87 88  1  0
 74 89  1  0
 89 90  2  0
 90 91  1  0
 91 92  2  0
 92 93  1  0
 93 94  2  0
 94 95  1  0
 95 96  2  0
 96 97  1  0
 97 98  1  0
 98 99  1  0
 99100  1  0
 97101  2  0
 92102  1  0
102103  2  0
103104  1  0
104105  1  0
105106  2  0
106107  1  0
107108  2  0
108109  1  0
109110  1  0
110111  1  0
111112  1  0
109113  2  0
104114  2  0
114115  1  0
103116  1  0
116117  2  0
117118  1  0
117119  1  0
119120  2  3
120121  1  0
121122  2  0
121123  1  0
123124  2  0
124125  1  0
125126  2  0
126127  1  0
127128  2  0
128129  1  0
129130  2  3
130131  1  0
131132  3  0
130133  1  0
133134  3  0
126135  1  0
135136  1  0
136137  1  0
137138  2  0
138139  1  0
139140  1  0
139141  1  0
 11  2  1  0
 23 17  1  0
 41 24  2  0
 84 42  1  0
115 89  1  0
129120  1  0
141135  1  0
 10  5  1  0
 22 18  1  0
 41 27  1  0
 51 44  1  0
 83 52  2  0
114 91  1  0
128123  1  0
140136  1  0
 23  7  1  0
 38 30  1  0
 82 54  2  0
101 93  1  0
118102  1  0
141125  1  0
 80 55  2  0
113105  1  0
 60 56  2  0
 79 61  2  0
 77 62  2  0
 76 64  2  0
 73 66  1  0
  1142  1  0
  6143  1  0
  9144  1  0
 17145  1  0
 18146  1  0
 19147  1  0
 20148  1  0
 21149  1  0
 22150  1  0
 22151  1  0
 23152  1  0
 32153  1  0
 32154  1  0
 33155  1  0
 33156  1  0
 33157  1  0
 36158  1  0
 36159  1  0
 37160  1  0
 37161  1  0
 37162  1  0
 45163  1  0
 46164  1  0
 47165  1  0
 49166  1  0
 49167  1  0
 50168  1  0
 50169  1  0
 50170  1  0
 51171  1  0
 67172  1  0
 68173  1  0
 69174  1  0
 71175  1  0
 71176  1  0
 72177  1  0
 72178  1  0
 72179  1  0
 73180  1  0
 85181  1  0
 85182  1  0
 86183  1  0
 86184  1  0
 86185  1  0
 87186  1  0
 87187  1  0
 88188  1  0
 88189  1  0
 88190  1  0
 90191  1  0
 94192  1  0
 95193  1  0
 96194  1  0
 99195  1  0
 99196  1  0
100197  1  0
100198  1  0
100199  1  0
101200  1  0
106201  1  0
107202  1  0
108203  1  0
111204  1  0
111205  1  0
112206  1  0
112207  1  0
112208  1  0
113209  1  0
116210  1  0
119211  1  0
124212  1  0
127213  1  0
135214  1  0
136215  1  0
137216  1  0
138217  1  0
139218  1  0
140219  1  0
140220  1  0
141221  1  0
M  END

