
     RDKit          3D

170192  0  0  0  0  0  0  0  0999 V2000
   -1.8252   -1.9163   -8.7750 C   0  0  0  0  0  0  0  0  0  0  0  0
   -1.2809   -2.8490   -9.5801 C   0  0  0  0  0  0  0  0  0  0  0  0
   -1.0224   -4.2388   -9.1919 C   0  0  0  0  0  0  0  0  0  0  0  0
   -1.7398   -4.9411   -8.4320 O   0  0  0  0  0  0  0  0  0  0  0  0
    0.2210   -4.6633   -9.7933 C   0  0  0  0  0  0  0  0  0  0  0  0
    1.0237   -5.7448   -9.3725 C   0  0  0  0  0  0  0  0  0  0  0  0
    2.3121   -5.7001   -9.8632 C   0  0  0  0  0  0  0  0  0  0  0  0
    2.7861   -4.6707  -10.7373 C   0  0  0  0  0  0  0  0  0  0  0  0
    1.9972   -3.6184  -11.1723 C   0  0  0  0  0  0  0  0  0  0  0  0
    0.6666   -3.6395  -10.6712 C   0  0  0  0  0  0  0  0  0  0  0  0
   -0.3472   -2.5527  -10.6994 C   0  0  0  0  0  0  0  0  0  0  0  0
   -0.4933   -1.5965  -11.6502 C   0  0  0  0  0  0  0  0  0  0  0  0
    0.4119   -1.4764  -12.7627 C   0  0  0  0  0  0  0  0  0  0  0  0
    1.1383   -1.3677  -13.6592 N   0  0  0  0  0  0  0  0  0  0  0  0
   -1.6285   -0.7104  -11.6671 C   0  0  0  0  0  0  0  0  0  0  0  0
   -2.5397    0.0028  -11.6879 N   0  0  0  0  0  0  0  0  0  0  0  0
    4.1777   -5.2364  -10.6691 C   0  0  0  0  0  0  0  0  0  0  0  0
    5.2293   -4.4715   -9.8059 C   0  0  0  0  0  0  0  0  0  0  0  0
    4.5370   -3.7554   -8.6712 C   0  0  0  0  0  0  0  0  0  0  0  0
    4.0803   -4.6989   -7.8475 C   0  0  0  0  0  0  0  0  0  0  0  0
    4.4824   -6.0284   -8.4451 C   0  0  0  0  0  0  0  0  0  0  0  0
    5.8260   -5.6261   -9.0243 C   0  0  0  0  0  0  0  0  0  0  0  0
    3.6892   -6.2824   -9.7658 C   0  0  0  0  0  0  0  0  0  0  0  0
   -2.0751   -2.1392   -7.3327 C   0  0  0  0  0  0  0  0  0  0  0  0
   -1.0837   -2.7541   -6.5321 C   0  0  0  0  0  0  0  0  0  0  0  0
   -1.3090   -2.8822   -5.1702 C   0  0  0  0  0  0  0  0  0  0  0  0
   -0.4357   -3.4183   -4.1353 C   0  0  0  0  0  0  0  0  0  0  0  0
    0.6942   -3.9473   -4.3023 O   0  0  0  0  0  0  0  0  0  0  0  0
   -1.1042   -3.1695   -2.8664 C   0  0  0  0  0  0  0  0  0  0  0  0
   -2.3091   -2.5369   -3.1214 C   0  0  0  0  0  0  0  0  0  0  0  0
   -2.4432   -2.3645   -4.5724 C   0  0  0  0  0  0  0  0  0  0  0  0
   -3.4251   -1.7185   -5.3269 C   0  0  0  0  0  0  0  0  0  0  0  0
   -3.2305   -1.6050   -6.7168 C   0  0  0  0  0  0  0  0  0  0  0  0
   -3.1183   -2.0904   -2.0805 C   0  0  0  0  0  0  0  0  0  0  0  0
   -2.6622   -2.2627   -0.7624 C   0  0  0  0  0  0  0  0  0  0  0  0
   -1.4064   -2.8667   -0.4965 C   0  0  0  0  0  0  0  0  0  0  0  0
   -0.6385   -3.3707   -1.5714 C   0  0  0  0  0  0  0  0  0  0  0  0
   -0.9056   -2.9306    0.9296 C   0  0  0  0  0  0  0  0  0  0  0  0
    0.5940   -2.9714    1.0424 C   0  0  0  0  0  0  0  0  0  0  0  0
    1.0528   -3.8760    1.8875 C   0  0  0  0  0  0  0  0  0  0  0  0
    2.5818   -3.7256    2.7665 S   0  0  0  0  0  0  0  0  0  0  0  0
    1.6131   -3.9868    4.3117 C   0  0  0  0  0  0  0  0  0  0  0  0
    1.4594   -2.6931    5.1031 C   0  0  0  0  0  0  0  0  0  0  0  0
    2.6558   -1.8412    5.2627 C   0  0  0  0  0  0  0  0  0  0  0  0
    3.8485   -2.2488    5.8469 C   0  0  0  0  0  0  0  0  0  0  0  0
    4.8789   -1.2991    5.7464 C   0  0  0  0  0  0  0  0  0  0  0  0
    6.2473   -1.5474    6.3161 C   0  0  0  0  0  0  0  0  0  0  0  0
    7.2197   -2.0057    5.2325 C   0  0  0  0  0  0  0  0  0  0  0  0
    4.5019   -0.1565    5.0222 C   0  0  0  0  0  0  0  0  0  0  0  0
    5.3323    1.0697    4.7537 C   0  0  0  0  0  0  0  0  0  0  0  0
    5.5316    1.2993    3.2573 C   0  0  0  0  0  0  0  0  0  0  0  0
    2.9043   -0.3470    4.5262 S   0  0  0  0  0  0  0  0  0  0  0  0
    0.3179   -2.4855    5.8137 C   0  0  0  0  0  0  0  0  0  0  0  0
   -0.7738   -3.3858    5.7693 C   0  0  0  0  0  0  0  0  0  0  0  0
   -0.8393   -4.4278    4.9182 C   0  0  0  0  0  0  0  0  0  0  0  0
   -2.0056   -5.3332    4.8387 C   0  0  0  0  0  0  0  0  0  0  0  0
   -3.3342   -4.9435    4.7112 C   0  0  0  0  0  0  0  0  0  0  0  0
   -4.2096   -6.0110    4.4686 C   0  0  0  0  0  0  0  0  0  0  0  0
   -5.6650   -5.7861    4.1600 C   0  0  0  0  0  0  0  0  0  0  0  0
   -5.8544   -5.4769    2.6768 C   0  0  0  0  0  0  0  0  0  0  0  0
   -3.5586   -7.2437    4.3663 C   0  0  0  0  0  0  0  0  0  0  0  0
   -1.9128   -6.9959    4.6033 S   0  0  0  0  0  0  0  0  0  0  0  0
   -4.1834   -8.5841    4.1161 C   0  0  0  0  0  0  0  0  0  0  0  0
   -4.6953   -9.1919    5.4185 C   0  0  0  0  0  0  0  0  0  0  0  0
    0.2515   -4.5262    3.9251 C   0  0  0  0  0  0  0  0  0  0  0  0
    0.0230   -4.5388    2.6102 C   0  0  0  0  0  0  0  0  0  0  0  0
   -1.5633   -4.4065    1.7970 S   0  0  0  0  0  0  0  0  0  0  0  0
   -2.0222   -2.8418    6.7997 S   0  0  0  0  0  0  0  0  0  0  0  0
   -1.2176   -1.4418    7.2412 C   0  0  0  0  0  0  0  0  0  0  0  0
   -1.6688   -0.2544    7.8170 C   0  0  0  0  0  0  0  0  0  0  0  0
   -0.7252    0.7774    7.6658 C   0  0  0  0  0  0  0  0  0  0  0  0
    0.6333    0.1399    6.8526 S   0  0  0  0  0  0  0  0  0  0  0  0
    0.0114   -1.4002    6.6527 C   0  0  0  0  0  0  0  0  0  0  0  0
   -1.0020    2.2347    7.7575 C   0  0  0  0  0  0  0  0  0  0  0  0
    0.0262    3.1528    7.4477 C   0  0  0  0  0  0  0  0  0  0  0  0
   -0.3109    4.4807    7.1956 C   0  0  0  0  0  0  0  0  0  0  0  0
    0.4858    5.4965    6.5168 C   0  0  0  0  0  0  0  0  0  0  0  0
    1.7066    5.4171    6.2131 O   0  0  0  0  0  0  0  0  0  0  0  0
   -0.4398    6.5483    6.1169 C   0  0  0  0  0  0  0  0  0  0  0  0
   -1.7071    6.2059    6.5602 C   0  0  0  0  0  0  0  0  0  0  0  0
   -1.6237    4.9114    7.2394 C   0  0  0  0  0  0  0  0  0  0  0  0
   -2.6492    4.0572    7.6357 C   0  0  0  0  0  0  0  0  0  0  0  0
   -2.3314    2.7178    7.9145 C   0  0  0  0  0  0  0  0  0  0  0  0
   -2.8324    6.9174    6.1463 C   0  0  0  0  0  0  0  0  0  0  0  0
   -2.6527    7.9910    5.2549 C   0  0  0  0  0  0  0  0  0  0  0  0
   -1.3616    8.3075    4.7681 C   0  0  0  0  0  0  0  0  0  0  0  0
   -0.2378    7.5911    5.2202 C   0  0  0  0  0  0  0  0  0  0  0  0
   -1.1956    9.3261    3.7231 C   0  0  0  0  0  0  0  0  0  0  0  0
   -1.1463    9.0155    2.4102 C   0  0  0  0  0  0  0  0  0  0  0  0
   -1.1908    7.6541    1.8577 C   0  0  0  0  0  0  0  0  0  0  0  0
   -1.5363    6.6109    2.4708 O   0  0  0  0  0  0  0  0  0  0  0  0
   -0.7257    7.6951    0.4873 C   0  0  0  0  0  0  0  0  0  0  0  0
   -0.4752    6.5904   -0.3619 C   0  0  0  0  0  0  0  0  0  0  0  0
    0.1066    6.9330   -1.5691 C   0  0  0  0  0  0  0  0  0  0  0  0
    0.4298    8.2812   -1.9247 C   0  0  0  0  0  0  0  0  0  0  0  0
    0.1776    9.3660   -1.1046 C   0  0  0  0  0  0  0  0  0  0  0  0
   -0.4407    9.0406    0.1360 C   0  0  0  0  0  0  0  0  0  0  0  0
   -0.8069    9.9299    1.2769 C   0  0  0  0  0  0  0  0  0  0  0  0
   -0.9995   11.2766    1.2232 C   0  0  0  0  0  0  0  0  0  0  0  0
   -1.5573   12.0256    2.3183 C   0  0  0  0  0  0  0  0  0  0  0  0
   -2.0134   12.6387    3.1894 N   0  0  0  0  0  0  0  0  0  0  0  0
   -0.8091   12.0342    0.0166 C   0  0  0  0  0  0  0  0  0  0  0  0
   -0.6726   12.6551   -0.9518 N   0  0  0  0  0  0  0  0  0  0  0  0
    1.0087    7.8167   -3.2292 C   0  0  0  0  0  0  0  0  0  0  0  0
    0.1565    8.0788   -4.5051 C   0  0  0  0  0  0  0  0  0  0  0  0
    0.7435    7.1958   -5.5811 C   0  0  0  0  0  0  0  0  0  0  0  0
    0.4346    5.9367   -5.2501 C   0  0  0  0  0  0  0  0  0  0  0  0
   -0.3501    6.0116   -3.9609 C   0  0  0  0  0  0  0  0  0  0  0  0
   -1.1180    7.2967   -4.2311 C   0  0  0  0  0  0  0  0  0  0  0  0
    0.6727    6.4362   -2.8664 C   0  0  0  0  0  0  0  0  0  0  0  0
   -1.9055   -0.8917   -9.1057 H   0  0  0  0  0  0  0  0  0  0  0  0
    0.7010   -6.4759   -8.6405 H   0  0  0  0  0  0  0  0  0  0  0  0
    2.4218   -2.8003  -11.7305 H   0  0  0  0  0  0  0  0  0  0  0  0
    4.5554   -5.6282  -11.6366 H   0  0  0  0  0  0  0  0  0  0  0  0
    5.9537   -3.8547  -10.3742 H   0  0  0  0  0  0  0  0  0  0  0  0
    4.4066   -2.6840   -8.5430 H   0  0  0  0  0  0  0  0  0  0  0  0
    3.5485   -4.5324   -6.9173 H   0  0  0  0  0  0  0  0  0  0  0  0
    4.4986   -6.8783   -7.7330 H   0  0  0  0  0  0  0  0  0  0  0  0
    6.5636   -5.3068   -8.2477 H   0  0  0  0  0  0  0  0  0  0  0  0
    6.2786   -6.4131   -9.6654 H   0  0  0  0  0  0  0  0  0  0  0  0
    3.7778   -7.3110  -10.1848 H   0  0  0  0  0  0  0  0  0  0  0  0
   -0.1420   -3.0888   -6.9521 H   0  0  0  0  0  0  0  0  0  0  0  0
   -4.2999   -1.2913   -4.8563 H   0  0  0  0  0  0  0  0  0  0  0  0
   -3.9707   -1.0856   -7.3125 H   0  0  0  0  0  0  0  0  0  0  0  0
   -4.0551   -1.5867   -2.2818 H   0  0  0  0  0  0  0  0  0  0  0  0
   -3.2688   -1.8902    0.0539 H   0  0  0  0  0  0  0  0  0  0  0  0
    0.3185   -3.8522   -1.4158 H   0  0  0  0  0  0  0  0  0  0  0  0
   -1.2544   -2.0287    1.4820 H   0  0  0  0  0  0  0  0  0  0  0  0
    1.2262   -2.1922    0.6345 H   0  0  0  0  0  0  0  0  0  0  0  0
    2.1312   -4.7382    4.9441 H   0  0  0  0  0  0  0  0  0  0  0  0
    3.9713   -3.2179    6.3219 H   0  0  0  0  0  0  0  0  0  0  0  0
    6.6303   -0.6294    6.8096 H   0  0  0  0  0  0  0  0  0  0  0  0
    6.1966   -2.3390    7.0964 H   0  0  0  0  0  0  0  0  0  0  0  0
    8.2420   -2.0841    5.6592 H   0  0  0  0  0  0  0  0  0  0  0  0
    7.2442   -1.2835    4.3897 H   0  0  0  0  0  0  0  0  0  0  0  0
    6.9231   -3.0024    4.8460 H   0  0  0  0  0  0  0  0  0  0  0  0
    6.3257    0.9963    5.2381 H   0  0  0  0  0  0  0  0  0  0  0  0
    4.8105    1.9533    5.1864 H   0  0  0  0  0  0  0  0  0  0  0  0
    6.0987    0.4538    2.8059 H   0  0  0  0  0  0  0  0  0  0  0  0
    6.1056    2.2420    3.1016 H   0  0  0  0  0  0  0  0  0  0  0  0
    4.5482    1.4193    2.7562 H   0  0  0  0  0  0  0  0  0  0  0  0
   -3.6572   -3.9094    4.7195 H   0  0  0  0  0  0  0  0  0  0  0  0
   -6.2696   -6.6747    4.4352 H   0  0  0  0  0  0  0  0  0  0  0  0
   -6.0422   -4.9292    4.7582 H   0  0  0  0  0  0  0  0  0  0  0  0
   -6.9219   -5.2395    2.4777 H   0  0  0  0  0  0  0  0  0  0  0  0
   -5.5615   -6.3527    2.0602 H   0  0  0  0  0  0  0  0  0  0  0  0
   -5.2338   -4.6027    2.3784 H   0  0  0  0  0  0  0  0  0  0  0  0
   -5.0188   -8.4880    3.3912 H   0  0  0  0  0  0  0  0  0  0  0  0
   -3.4301   -9.2633    3.6670 H   0  0  0  0  0  0  0  0  0  0  0  0
   -5.5471   -8.5972    5.8085 H   0  0  0  0  0  0  0  0  0  0  0  0
   -5.0421  -10.2323    5.2365 H   0  0  0  0  0  0  0  0  0  0  0  0
   -3.8897   -9.2109    6.1849 H   0  0  0  0  0  0  0  0  0  0  0  0
   -2.6697   -0.1334    8.1980 H   0  0  0  0  0  0  0  0  0  0  0  0
    1.0457    2.8336    7.2883 H   0  0  0  0  0  0  0  0  0  0  0  0
   -3.6797    4.3889    7.6415 H   0  0  0  0  0  0  0  0  0  0  0  0
   -3.1436    2.0461    8.1521 H   0  0  0  0  0  0  0  0  0  0  0  0
   -3.8257    6.6256    6.4616 H   0  0  0  0  0  0  0  0  0  0  0  0
   -3.5197    8.5351    4.8983 H   0  0  0  0  0  0  0  0  0  0  0  0
    0.7496    7.7892    4.8208 H   0  0  0  0  0  0  0  0  0  0  0  0
   -0.9866   10.3257    4.0648 H   0  0  0  0  0  0  0  0  0  0  0  0
   -0.6854    5.5649   -0.0827 H   0  0  0  0  0  0  0  0  0  0  0  0
    0.4875   10.3546   -1.3958 H   0  0  0  0  0  0  0  0  0  0  0  0
    2.1002    8.0156   -3.3278 H   0  0  0  0  0  0  0  0  0  0  0  0
    0.0233    9.1423   -4.7890 H   0  0  0  0  0  0  0  0  0  0  0  0
    1.2350    7.5101   -6.4958 H   0  0  0  0  0  0  0  0  0  0  0  0
    0.6324    5.0545   -5.8494 H   0  0  0  0  0  0  0  0  0  0  0  0
   -0.9664    5.1185   -3.7274 H   0  0  0  0  0  0  0  0  0  0  0  0
   -1.7032    7.6712   -3.3616 H   0  0  0  0  0  0  0  0  0  0  0  0
   -1.7929    7.2304   -5.1182 H   0  0  0  0  0  0  0  0  0  0  0  0
    1.5509    5.7634   -2.7420 H   0  0  0  0  0  0  0  0  0  0  0  0
  1  2  2  3
  2  3  1  0
  3  4  2  0
  3  5  1  0
  5  6  2  0
  6  7  1  0
  7  8  2  0
  8  9  1  0
  9 10  2  0
 10 11  1  0
 11 12  2  3
 12 13  1  0
 13 14  3  0
 12 15  1  0
 15 16  3  0
  8 17  1  0
 17 18  1  0
 18 19  1  0
 19 20  2  0
 20 21  1  0
 21 22  1  0
 21 23  1  0
  1 24  1  0
 24 25  2  0
 25 26  1  0
 26 27  1  0
 27 28  2  0
 27 29  1  0
 29 30  2  0
 30 31  1  0
 31 32  1  0
 32 33  2  0
 30 34  1  0
 34 35  2  0
 35 36  1  0
 36 37  2  0
 36 38  1  0
 38 39  1  0
 39 40  2  0
 40 41  1  0
 41 42  1  0
 42 43  1  0
 43 44  1  0
 44 45  2  0
 45 46  1  0
 46 47  1  0
 47 48  1  0
 46 49  2  0
 49 50  1  0
 50 51  1  0
 49 52  1  0
 43 53  2  0
 53 54  1  0
 54 55  2  0
 55 56  1  0
 56 57  2  0
 57 58  1  0
 58 59  1  0
 59 60  1  0
 58 61  2  0
 61 62  1  0
 61 63  1  0
 63 64  1  0
 55 65  1  0
 65 66  2  0
 66 67  1  0
 54 68  1  0
 68 69  1  0
 69 70  1  0
 70 71  2  0
 71 72  1  0
 72 73  1  0
 71 74  1  0
 74 75  2  0
 75 76  1  0
 76 77  1  0
 77 78  2  0
 77 79  1  0
 79 80  2  0
 80 81  1  0
 81 82  1  0
 82 83  2  0
 80 84  1  0
 84 85  2  0
 85 86  1  0
 86 87  2  0
 86 88  1  0
 88 89  2  3
 89 90  1  0
 90 91  2  0
 90 92  1  0
 92 93  2  0
 93 94  1  0
 94 95  2  0
 95 96  1  0
 96 97  2  0
 97 98  1  0
 98 99  2  3
 99100  1  0
100101  3  0
 99102  1  0
102103  3  0
 95104  1  0
104105  1  0
105106  1  0
106107  2  0
107108  1  0
108109  1  0
108110  1  0
 11  2  1  0
 23 17  1  0
 33 24  1  0
 67 38  1  0
 73 69  2  0
 83 74  1  0
 98 89  1  0
110104  1  0
 10  5  1  0
 22 18  1  0
 31 26  2  0
 66 40  1  0
 81 76  2  0
 97 92  1  0
109105  1  0
 23  7  1  0
 37 29  1  0
 65 42  1  0
 87 79  1  0
110 94  1  0
 52 44  1  0
 73 53  1  0
 62 56  1  0
  1111  1  0
  6112  1  0
  9113  1  0
 17114  1  0
 18115  1  0
 19116  1  0
 20117  1  0
 21118  1  0
 22119  1  0
 22120  1  0
 23121  1  0
 25122  1  0
 32123  1  0
 33124  1  0
 34125  1  0
 35126  1  0
 37127  1  0
 38128  1  0
 39129  1  0
 42130  1  0
 45131  1  0
 47132  1  0
 47133  1  0
 48134  1  0
 48135  1  0
 48136  1  0
 50137  1  0
 50138  1  0
 51139  1  0
 51140  1  0
 51141  1  0
 57142  1  0
 59143  1  0
 59144  1  0
 60145  1  0
 60146  1  0
 60147  1  0
 63148  1  0
 63149  1  0
 64150  1  0
 64151  1  0
 64152  1  0
 70153  1  0
 75154  1  0
 82155  1  0
 83156  1  0
 84157  1  0
 85158  1  0
 87159  1  0
 88160  1  0
 93161  1  0
 96162  1  0
104163  1  0
105164  1  0
106165  1  0
107166  1  0
108167  1  0
109168  1  0
109169  1  0
110170  1  0
M  END

