
     RDKit          3D

176199  0  0  0  0  0  0  0  0999 V2000
   -2.3901   -7.5197    3.3408 C   0  0  0  0  0  0  0  0  0  0  0  0
   -3.0894   -6.4070    3.0434 C   0  0  0  0  0  0  0  0  0  0  0  0
   -2.5055   -5.0728    2.8348 C   0  0  0  0  0  0  0  0  0  0  0  0
   -1.2871   -4.8032    2.6673 O   0  0  0  0  0  0  0  0  0  0  0  0
   -3.5501   -4.0850    2.9337 C   0  0  0  0  0  0  0  0  0  0  0  0
   -3.3818   -2.6822    2.9668 C   0  0  0  0  0  0  0  0  0  0  0  0
   -4.5428   -1.9863    3.2240 C   0  0  0  0  0  0  0  0  0  0  0  0
   -5.8090   -2.6213    3.4433 C   0  0  0  0  0  0  0  0  0  0  0  0
   -5.9773   -4.0004    3.4286 C   0  0  0  0  0  0  0  0  0  0  0  0
   -4.7921   -4.7393    3.1410 C   0  0  0  0  0  0  0  0  0  0  0  0
   -4.5734   -6.2143    3.1164 C   0  0  0  0  0  0  0  0  0  0  0  0
   -5.5267   -7.1684    2.9382 C   0  0  0  0  0  0  0  0  0  0  0  0
   -6.9201   -6.8403    2.7740 C   0  0  0  0  0  0  0  0  0  0  0  0
   -8.0396   -6.5926    2.6238 N   0  0  0  0  0  0  0  0  0  0  0  0
   -5.2062   -8.5597    2.7746 C   0  0  0  0  0  0  0  0  0  0  0  0
   -4.9592   -9.6810    2.6273 N   0  0  0  0  0  0  0  0  0  0  0  0
   -6.4548   -1.2869    3.6823 C   0  0  0  0  0  0  0  0  0  0  0  0
   -6.7896   -0.9283    5.1614 C   0  0  0  0  0  0  0  0  0  0  0  0
   -7.0265    0.5636    5.1810 C   0  0  0  0  0  0  0  0  0  0  0  0
   -5.8339    1.1436    4.9868 C   0  0  0  0  0  0  0  0  0  0  0  0
   -4.8353    0.0229    4.8365 C   0  0  0  0  0  0  0  0  0  0  0  0
   -5.4307   -0.9549    5.8366 C   0  0  0  0  0  0  0  0  0  0  0  0
   -5.1538   -0.6417    3.4633 C   0  0  0  0  0  0  0  0  0  0  0  0
   -0.9201   -7.5470    3.3178 C   0  0  0  0  0  0  0  0  0  0  0  0
   -0.2278   -7.4453    2.0914 C   0  0  0  0  0  0  0  0  0  0  0  0
    1.1434   -7.1936    2.1245 C   0  0  0  0  0  0  0  0  0  0  0  0
    2.0224   -6.7383    1.0471 C   0  0  0  0  0  0  0  0  0  0  0  0
    1.7538   -6.7216   -0.1804 O   0  0  0  0  0  0  0  0  0  0  0  0
    3.2358   -6.2282    1.6850 C   0  0  0  0  0  0  0  0  0  0  0  0
    3.1133   -6.4215    3.0494 C   0  0  0  0  0  0  0  0  0  0  0  0
    1.8144   -7.0369    3.3240 C   0  0  0  0  0  0  0  0  0  0  0  0
    1.1646   -7.2020    4.5467 C   0  0  0  0  0  0  0  0  0  0  0  0
   -0.2117   -7.4799    4.5370 C   0  0  0  0  0  0  0  0  0  0  0  0
    3.9803   -5.8006    3.9373 C   0  0  0  0  0  0  0  0  0  0  0  0
    4.9773   -4.9612    3.4264 C   0  0  0  0  0  0  0  0  0  0  0  0
    5.1229   -4.7511    2.0259 C   0  0  0  0  0  0  0  0  0  0  0  0
    4.2393   -5.4173    1.1485 C   0  0  0  0  0  0  0  0  0  0  0  0
    6.0199   -3.6754    1.5040 C   0  0  0  0  0  0  0  0  0  0  0  0
    7.0151   -2.9812    2.2331 C   0  0  0  0  0  0  0  0  0  0  0  0
    7.7965   -3.5518    3.3502 C   0  0  0  0  0  0  0  0  0  0  0  0
    8.0223   -2.8277    4.5318 C   0  0  0  0  0  0  0  0  0  0  0  0
    8.7879   -3.3853    5.5607 C   0  0  0  0  0  0  0  0  0  0  0  0
    9.3408   -4.6595    5.4176 C   0  0  0  0  0  0  0  0  0  0  0  0
    9.1178   -5.4002    4.2447 C   0  0  0  0  0  0  0  0  0  0  0  0
    9.6995   -6.7823    4.0846 C   0  0  0  0  0  0  0  0  0  0  0  0
   10.8489   -6.7853    3.0790 C   0  0  0  0  0  0  0  0  0  0  0  0
    8.3379   -4.8418    3.2199 C   0  0  0  0  0  0  0  0  0  0  0  0
    7.3530   -1.7726    1.6112 C   0  0  0  0  0  0  0  0  0  0  0  0
    8.0177   -0.3267    2.2246 S   0  0  0  0  0  0  0  0  0  0  0  0
    7.5922    0.5294    0.8263 C   0  0  0  0  0  0  0  0  0  0  0  0
    7.2326    1.8266    0.5496 C   0  0  0  0  0  0  0  0  0  0  0  0
    7.1508    2.9339    1.4095 C   0  0  0  0  0  0  0  0  0  0  0  0
    6.3558    4.0514    1.0173 C   0  0  0  0  0  0  0  0  0  0  0  0
    6.2694    5.0890    1.8902 N   0  0  0  0  0  0  0  0  0  0  0  0
    7.2041    4.4900    3.1228 S   0  0  0  0  0  0  0  0  0  0  0  0
    7.7249    2.9930    2.6389 N   0  0  0  0  0  0  0  0  0  0  0  0
    5.7517    4.0377   -0.2434 C   0  0  0  0  0  0  0  0  0  0  0  0
    4.9864    4.9516   -0.9104 C   0  0  0  0  0  0  0  0  0  0  0  0
    3.9950    6.2825   -0.5487 S   0  0  0  0  0  0  0  0  0  0  0  0
    3.2959    6.2251   -2.1095 C   0  0  0  0  0  0  0  0  0  0  0  0
    2.1041    6.7589   -2.6194 C   0  0  0  0  0  0  0  0  0  0  0  0
    1.2341    7.6166   -1.8016 C   0  0  0  0  0  0  0  0  0  0  0  0
    0.0615    7.0955   -1.2293 C   0  0  0  0  0  0  0  0  0  0  0  0
   -0.8064    7.9344   -0.5255 C   0  0  0  0  0  0  0  0  0  0  0  0
   -0.5132    9.2927   -0.3904 C   0  0  0  0  0  0  0  0  0  0  0  0
    0.6717    9.8199   -0.9324 C   0  0  0  0  0  0  0  0  0  0  0  0
    0.9549   11.2951   -0.8303 C   0  0  0  0  0  0  0  0  0  0  0  0
    0.3506   12.0438   -2.0158 C   0  0  0  0  0  0  0  0  0  0  0  0
    1.5389    8.9772   -1.6446 C   0  0  0  0  0  0  0  0  0  0  0  0
    1.7462    6.1487   -3.8540 C   0  0  0  0  0  0  0  0  0  0  0  0
    2.9081    4.9471   -4.2038 S   0  0  0  0  0  0  0  0  0  0  0  0
    3.8451    5.2108   -2.8583 C   0  0  0  0  0  0  0  0  0  0  0  0
    4.7766    4.4630   -2.1545 C   0  0  0  0  0  0  0  0  0  0  0  0
    5.3211    3.2327   -2.3439 N   0  0  0  0  0  0  0  0  0  0  0  0
    5.8788    2.9543   -1.1231 C   0  0  0  0  0  0  0  0  0  0  0  0
    6.5197    1.7753   -0.6602 C   0  0  0  0  0  0  0  0  0  0  0  0
    6.2883    0.4713   -1.0190 N   0  0  0  0  0  0  0  0  0  0  0  0
    6.9541   -0.2554   -0.0848 C   0  0  0  0  0  0  0  0  0  0  0  0
    6.7657   -1.5541    0.3923 C   0  0  0  0  0  0  0  0  0  0  0  0
    5.6782   -2.7884    0.0806 S   0  0  0  0  0  0  0  0  0  0  0  0
    5.2746   -0.0634   -1.9288 C   0  0  0  0  0  0  0  0  0  0  0  0
    5.9316   -0.8712   -3.0479 C   0  0  0  0  0  0  0  0  0  0  0  0
    5.8163    2.7478   -3.6423 C   0  0  0  0  0  0  0  0  0  0  0  0
    4.6955    2.2299   -4.5510 C   0  0  0  0  0  0  0  0  0  0  0  0
    0.4323    6.2210   -4.5721 C   0  0  0  0  0  0  0  0  0  0  0  0
    0.0488    5.1350   -5.3992 C   0  0  0  0  0  0  0  0  0  0  0  0
   -1.2761    5.0287   -5.8004 C   0  0  0  0  0  0  0  0  0  0  0  0
   -1.9534    3.8636   -6.3479 C   0  0  0  0  0  0  0  0  0  0  0  0
   -1.4130    2.8379   -6.8341 O   0  0  0  0  0  0  0  0  0  0  0  0
   -3.3777    4.0854   -6.1509 C   0  0  0  0  0  0  0  0  0  0  0  0
   -3.5538    5.3398   -5.5856 C   0  0  0  0  0  0  0  0  0  0  0  0
   -2.2274    5.9378   -5.3845 C   0  0  0  0  0  0  0  0  0  0  0  0
   -1.8649    7.0910   -4.6905 C   0  0  0  0  0  0  0  0  0  0  0  0
   -0.5144    7.2528   -4.3317 C   0  0  0  0  0  0  0  0  0  0  0  0
   -4.7680    5.6937   -4.9970 C   0  0  0  0  0  0  0  0  0  0  0  0
   -5.8010    4.7371   -4.9611 C   0  0  0  0  0  0  0  0  0  0  0  0
   -5.5982    3.4443   -5.4945 C   0  0  0  0  0  0  0  0  0  0  0  0
   -4.3871    3.1288   -6.1352 C   0  0  0  0  0  0  0  0  0  0  0  0
   -6.5229    2.3449   -5.1597 C   0  0  0  0  0  0  0  0  0  0  0  0
   -7.6204    2.1068   -5.9929 C   0  0  0  0  0  0  0  0  0  0  0  0
   -8.4425    1.0014   -5.7785 C   0  0  0  0  0  0  0  0  0  0  0  0
   -8.1770    0.1005   -4.7362 C   0  0  0  0  0  0  0  0  0  0  0  0
   -9.0248   -1.1020   -4.5523 C   0  0  0  0  0  0  0  0  0  0  0  0
  -10.0274   -1.2856   -5.2954 O   0  0  0  0  0  0  0  0  0  0  0  0
   -8.6951   -2.0641   -3.5314 N   0  0  0  0  0  0  0  0  0  0  0  0
   -9.4766   -3.3033   -3.3944 C   0  0  0  0  0  0  0  0  0  0  0  0
  -10.6907   -3.0730   -2.5039 C   0  0  0  0  0  0  0  0  0  0  0  0
   -7.6325   -1.7667   -2.6099 C   0  0  0  0  0  0  0  0  0  0  0  0
   -7.4058   -2.5342   -1.6302 O   0  0  0  0  0  0  0  0  0  0  0  0
   -6.7972   -0.5600   -2.8128 C   0  0  0  0  0  0  0  0  0  0  0  0
   -5.7072   -0.3053   -1.9663 C   0  0  0  0  0  0  0  0  0  0  0  0
   -4.9063    0.8167   -2.1575 C   0  0  0  0  0  0  0  0  0  0  0  0
   -5.1744    1.6963   -3.2023 C   0  0  0  0  0  0  0  0  0  0  0  0
   -6.2570    1.4713   -4.0763 C   0  0  0  0  0  0  0  0  0  0  0  0
   -7.0871    0.3336   -3.8714 C   0  0  0  0  0  0  0  0  0  0  0  0
   -2.8819   -8.3936    3.7337 H   0  0  0  0  0  0  0  0  0  0  0  0
   -2.4257   -2.1936    2.8416 H   0  0  0  0  0  0  0  0  0  0  0  0
   -6.9221   -4.4435    3.6912 H   0  0  0  0  0  0  0  0  0  0  0  0
   -7.2302   -1.0221    2.9303 H   0  0  0  0  0  0  0  0  0  0  0  0
   -7.5815   -1.5415    5.6405 H   0  0  0  0  0  0  0  0  0  0  0  0
   -7.9549    1.0816    5.3936 H   0  0  0  0  0  0  0  0  0  0  0  0
   -5.6258    2.2081    5.0337 H   0  0  0  0  0  0  0  0  0  0  0  0
   -3.7750    0.3052    5.0111 H   0  0  0  0  0  0  0  0  0  0  0  0
   -5.4422   -0.5669    6.8823 H   0  0  0  0  0  0  0  0  0  0  0  0
   -4.9428   -1.9562    5.8410 H   0  0  0  0  0  0  0  0  0  0  0  0
   -5.1100    0.0371    2.5800 H   0  0  0  0  0  0  0  0  0  0  0  0
   -0.7645   -7.4521    1.1511 H   0  0  0  0  0  0  0  0  0  0  0  0
    1.6807   -7.0380    5.4828 H   0  0  0  0  0  0  0  0  0  0  0  0
   -0.7424   -7.5393    5.4760 H   0  0  0  0  0  0  0  0  0  0  0  0
    3.8387   -5.8990    5.0075 H   0  0  0  0  0  0  0  0  0  0  0  0
    5.5541   -4.4025    4.1427 H   0  0  0  0  0  0  0  0  0  0  0  0
    4.2640   -5.2301    0.0817 H   0  0  0  0  0  0  0  0  0  0  0  0
    7.5813   -1.8501    4.6698 H   0  0  0  0  0  0  0  0  0  0  0  0
    8.9480   -2.8263    6.4728 H   0  0  0  0  0  0  0  0  0  0  0  0
    9.9291   -5.0772    6.2269 H   0  0  0  0  0  0  0  0  0  0  0  0
   10.0794   -7.1641    5.0591 H   0  0  0  0  0  0  0  0  0  0  0  0
    8.9037   -7.4809    3.7397 H   0  0  0  0  0  0  0  0  0  0  0  0
   11.6505   -6.0945    3.4146 H   0  0  0  0  0  0  0  0  0  0  0  0
   11.2681   -7.8117    3.0016 H   0  0  0  0  0  0  0  0  0  0  0  0
   10.4826   -6.4737    2.0772 H   0  0  0  0  0  0  0  0  0  0  0  0
    8.1610   -5.4093    2.3120 H   0  0  0  0  0  0  0  0  0  0  0  0
   -0.1864    6.0469   -1.3486 H   0  0  0  0  0  0  0  0  0  0  0  0
   -1.7244    7.5351   -0.1110 H   0  0  0  0  0  0  0  0  0  0  0  0
   -1.2093    9.9353    0.1337 H   0  0  0  0  0  0  0  0  0  0  0  0
    2.0535   11.4726   -0.8023 H   0  0  0  0  0  0  0  0  0  0  0  0
    0.5265   11.7009    0.1167 H   0  0  0  0  0  0  0  0  0  0  0  0
   -0.7418   11.8438   -2.0824 H   0  0  0  0  0  0  0  0  0  0  0  0
    0.5000   13.1364   -1.8784 H   0  0  0  0  0  0  0  0  0  0  0  0
    0.8404   11.7302   -2.9608 H   0  0  0  0  0  0  0  0  0  0  0  0
    2.4350    9.3825   -2.1015 H   0  0  0  0  0  0  0  0  0  0  0  0
    4.6533    0.7441   -2.3405 H   0  0  0  0  0  0  0  0  0  0  0  0
    4.5665   -0.7101   -1.3746 H   0  0  0  0  0  0  0  0  0  0  0  0
    6.3199   -1.8331   -2.6585 H   0  0  0  0  0  0  0  0  0  0  0  0
    6.7827   -0.3116   -3.4905 H   0  0  0  0  0  0  0  0  0  0  0  0
    5.1922   -1.0801   -3.8512 H   0  0  0  0  0  0  0  0  0  0  0  0
    6.3542    3.5761   -4.1573 H   0  0  0  0  0  0  0  0  0  0  0  0
    6.5703    1.9525   -3.4869 H   0  0  0  0  0  0  0  0  0  0  0  0
    4.5247    2.9361   -5.3867 H   0  0  0  0  0  0  0  0  0  0  0  0
    3.7450    2.0890   -3.9944 H   0  0  0  0  0  0  0  0  0  0  0  0
    4.9909    1.2569   -4.9951 H   0  0  0  0  0  0  0  0  0  0  0  0
    0.7239    4.3249   -5.6310 H   0  0  0  0  0  0  0  0  0  0  0  0
   -2.6059    7.8159   -4.3745 H   0  0  0  0  0  0  0  0  0  0  0  0
   -0.2363    8.1505   -3.8021 H   0  0  0  0  0  0  0  0  0  0  0  0
   -4.8844    6.6405   -4.4856 H   0  0  0  0  0  0  0  0  0  0  0  0
   -6.7139    4.9690   -4.4286 H   0  0  0  0  0  0  0  0  0  0  0  0
   -4.1823    2.1190   -6.4702 H   0  0  0  0  0  0  0  0  0  0  0  0
   -7.8250    2.7615   -6.8303 H   0  0  0  0  0  0  0  0  0  0  0  0
   -9.2725    0.8384   -6.4514 H   0  0  0  0  0  0  0  0  0  0  0  0
   -8.8493   -4.1136   -2.9634 H   0  0  0  0  0  0  0  0  0  0  0  0
   -9.8125   -3.6588   -4.3931 H   0  0  0  0  0  0  0  0  0  0  0  0
  -11.3019   -3.9965   -2.4663 H   0  0  0  0  0  0  0  0  0  0  0  0
  -10.3658   -2.8129   -1.4752 H   0  0  0  0  0  0  0  0  0  0  0  0
  -11.3139   -2.2491   -2.9098 H   0  0  0  0  0  0  0  0  0  0  0  0
   -5.4671   -0.9815   -1.1542 H   0  0  0  0  0  0  0  0  0  0  0  0
   -4.0689    1.0002   -1.4948 H   0  0  0  0  0  0  0  0  0  0  0  0
   -4.5181    2.5506   -3.3182 H   0  0  0  0  0  0  0  0  0  0  0  0
  1  2  2  3
  2  3  1  0
  3  4  2  0
  3  5  1  0
  5  6  2  0
  6  7  1  0
  7  8  2  0
  8  9  1  0
  9 10  2  0
 10 11  1  0
 11 12  2  3
 12 13  1  0
 13 14  3  0
 12 15  1  0
 15 16  3  0
  8 17  1  0
 17 18  1  0
 18 19  1  0
 19 20  2  0
 20 21  1  0
 21 22  1  0
 21 23  1  0
  1 24  1  0
 24 25  2  0
 25 26  1  0
 26 27  1  0
 27 28  2  0
 27 29  1  0
 29 30  2  0
 30 31  1  0
 31 32  1  0
 32 33  2  0
 30 34  1  0
 34 35  2  0
 35 36  1  0
 36 37  2  0
 36 38  1  0
 38 39  2  0
 39 40  1  0
 40 41  2  0
 41 42  1  0
 42 43  2  0
 43 44  1  0
 44 45  1  0
 45 46  1  0
 44 47  2  0
 39 48  1  0
 48 49  1  0
 49 50  1  0
 50 51  1  0
 51 52  1  0
 52 53  1  0
 53 54  2  0
 54 55  1  0
 55 56  1  0
 53 57  1  0
 57 58  1  0
 58 59  1  0
 59 60  1  0
 60 61  1  0
 61 62  1  0
 62 63  2  0
 63 64  1  0
 64 65  2  0
 65 66  1  0
 66 67  1  0
 67 68  1  0
 66 69  2  0
 61 70  2  0
 70 71  1  0
 71 72  1  0
 72 73  1  0
 73 74  1  0
 74 75  1  0
 75 76  1  0
 76 77  1  0
 77 78  1  0
 78 79  1  0
 79 80  1  0
 77 81  1  0
 81 82  1  0
 74 83  1  0
 83 84  1  0
 70 85  1  0
 85 86  2  0
 86 87  1  0
 87 88  1  0
 88 89  2  0
 88 90  1  0
 90 91  2  0
 91 92  1  0
 92 93  1  0
 93 94  2  0
 91 95  1  0
 95 96  2  0
 96 97  1  0
 97 98  2  0
 97 99  1  0
 99100  2  0
100101  1  0
101102  2  0
102103  1  0
103104  2  0
103105  1  0
105106  1  0
106107  1  0
105108  1  0
108109  2  0
108110  1  0
110111  1  0
111112  2  0
112113  1  0
113114  2  0
114115  1  0
 11  2  1  0
 23 17  1  0
 33 24  1  0
 80 38  1  0
 94 85  1  0
114 99  1  0
 10  5  1  0
 22 18  1  0
 31 26  2  0
 47 40  1  0
 79 48  2  0
 92 87  2  0
115102  1  0
 23  7  1  0
 37 29  1  0
 78 50  2  0
 98 90  1  0
115110  2  0
 76 51  2  0
 56 52  2  0
 75 57  2  0
 73 58  2  0
 72 60  2  0
 69 62  1  0
  1116  1  0
  6117  1  0
  9118  1  0
 17119  1  0
 18120  1  0
 19121  1  0
 20122  1  0
 21123  1  0
 22124  1  0
 22125  1  0
 23126  1  0
 25127  1  0
 32128  1  0
 33129  1  0
 34130  1  0
 35131  1  0
 37132  1  0
 41133  1  0
 42134  1  0
 43135  1  0
 45136  1  0
 45137  1  0
 46138  1  0
 46139  1  0
 46140  1  0
 47141  1  0
 63142  1  0
 64143  1  0
 65144  1  0
 67145  1  0
 67146  1  0
 68147  1  0
 68148  1  0
 68149  1  0
 69150  1  0
 81151  1  0
 81152  1  0
 82153  1  0
 82154  1  0
 82155  1  0
 83156  1  0
 83157  1  0
 84158  1  0
 84159  1  0
 84160  1  0
 86161  1  0
 93162  1  0
 94163  1  0
 95164  1  0
 96165  1  0
 98166  1  0
100167  1  0
101168  1  0
106169  1  0
106170  1  0
107171  1  0
107172  1  0
107173  1  0
111174  1  0
112175  1  0
113176  1  0
M  END

