
     RDKit          3D

196216  0  0  0  0  0  0  0  0999 V2000
    5.7028    2.6873    7.5469 C   0  0  0  0  0  0  0  0  0  0  0  0
    5.8386    1.8030    8.5530 C   0  0  0  0  0  0  0  0  0  0  0  0
    6.4160    0.4584    8.4278 C   0  0  0  0  0  0  0  0  0  0  0  0
    6.8523   -0.0762    7.3730 O   0  0  0  0  0  0  0  0  0  0  0  0
    6.5630   -0.1146    9.7469 C   0  0  0  0  0  0  0  0  0  0  0  0
    6.9965   -1.4256   10.0554 C   0  0  0  0  0  0  0  0  0  0  0  0
    6.9202   -1.7403   11.3987 C   0  0  0  0  0  0  0  0  0  0  0  0
    6.4579   -0.8147   12.3899 C   0  0  0  0  0  0  0  0  0  0  0  0
    6.0462    0.4695   12.0954 C   0  0  0  0  0  0  0  0  0  0  0  0
    6.1255    0.8205   10.7157 C   0  0  0  0  0  0  0  0  0  0  0  0
    5.6740    2.0629   10.0224 C   0  0  0  0  0  0  0  0  0  0  0  0
    5.1412    3.1692   10.6123 C   0  0  0  0  0  0  0  0  0  0  0  0
    4.4475    4.1999    9.8795 C   0  0  0  0  0  0  0  0  0  0  0  0
    3.8844    5.0305    9.3014 N   0  0  0  0  0  0  0  0  0  0  0  0
    5.2196    3.4120   12.0289 C   0  0  0  0  0  0  0  0  0  0  0  0
    5.2800    3.6215   13.1659 N   0  0  0  0  0  0  0  0  0  0  0  0
    6.5964   -1.8569   13.4569 C   0  0  0  0  0  0  0  0  0  0  0  0
    5.2733   -2.5038   13.9670 C   0  0  0  0  0  0  0  0  0  0  0  0
    5.6853   -3.7516   14.7113 C   0  0  0  0  0  0  0  0  0  0  0  0
    6.1217   -4.6177   13.7877 C   0  0  0  0  0  0  0  0  0  0  0  0
    5.9905   -3.9235   12.4521 C   0  0  0  0  0  0  0  0  0  0  0  0
    4.7056   -3.1532   12.7163 C   0  0  0  0  0  0  0  0  0  0  0  0
    7.0742   -2.8052   12.4440 C   0  0  0  0  0  0  0  0  0  0  0  0
    5.6792    2.3526    6.1113 C   0  0  0  0  0  0  0  0  0  0  0  0
    5.1109    1.2244    5.5200 C   0  0  0  0  0  0  0  0  0  0  0  0
    5.0674    1.2936    4.1216 C   0  0  0  0  0  0  0  0  0  0  0  0
    4.4398    0.2572    3.2925 C   0  0  0  0  0  0  0  0  0  0  0  0
    3.0592    0.2870    3.0680 C   0  0  0  0  0  0  0  0  0  0  0  0
    2.4500   -0.6756    2.2562 C   0  0  0  0  0  0  0  0  0  0  0  0
    3.2435   -1.6726    1.6540 C   0  0  0  0  0  0  0  0  0  0  0  0
    4.6353   -1.7034    1.8722 C   0  0  0  0  0  0  0  0  0  0  0  0
    5.4702   -2.6723    1.2942 O   0  0  0  0  0  0  0  0  0  0  0  0
    5.0113   -3.7959    0.5448 C   0  0  0  0  0  0  0  0  0  0  0  0
    6.2026   -4.6156    0.0795 C   0  0  0  0  0  0  0  0  0  0  0  0
    5.2215   -0.7365    2.6952 C   0  0  0  0  0  0  0  0  0  0  0  0
    1.0623   -0.5853    2.0671 O   0  0  0  0  0  0  0  0  0  0  0  0
    0.2531   -1.5116    1.3461 C   0  0  0  0  0  0  0  0  0  0  0  0
    0.0239   -2.7826    2.1565 C   0  0  0  0  0  0  0  0  0  0  0  0
    5.5579    2.4948    3.6167 C   0  0  0  0  0  0  0  0  0  0  0  0
    6.0234    3.4683    4.9028 S   0  0  0  0  0  0  0  0  0  0  0  0
    5.4733    2.9421    2.2253 C   0  0  0  0  0  0  0  0  0  0  0  0
    6.2993    2.5284    1.1623 C   0  0  0  0  0  0  0  0  0  0  0  0
    7.4149    1.5654    1.2962 C   0  0  0  0  0  0  0  0  0  0  0  0
    7.5255    0.4772    0.4149 C   0  0  0  0  0  0  0  0  0  0  0  0
    8.5235   -0.4818    0.6041 C   0  0  0  0  0  0  0  0  0  0  0  0
    9.4132   -0.3706    1.6757 C   0  0  0  0  0  0  0  0  0  0  0  0
    9.3282    0.7214    2.5529 C   0  0  0  0  0  0  0  0  0  0  0  0
   10.2336    0.8126    3.7532 C   0  0  0  0  0  0  0  0  0  0  0  0
    9.5055    0.3389    5.0078 C   0  0  0  0  0  0  0  0  0  0  0  0
    8.3355    1.6926    2.3499 C   0  0  0  0  0  0  0  0  0  0  0  0
    5.8352    3.0589   -0.0460 C   0  0  0  0  0  0  0  0  0  0  0  0
    6.2968    2.8515   -1.6697 S   0  0  0  0  0  0  0  0  0  0  0  0
    4.9859    3.7907   -2.2053 C   0  0  0  0  0  0  0  0  0  0  0  0
    4.2471    3.8420   -3.3486 C   0  0  0  0  0  0  0  0  0  0  0  0
    4.4818    3.2021   -4.5713 C   0  0  0  0  0  0  0  0  0  0  0  0
    3.4120    3.0780   -5.4957 C   0  0  0  0  0  0  0  0  0  0  0  0
    3.6634    2.3912   -6.6400 N   0  0  0  0  0  0  0  0  0  0  0  0
    5.2481    1.9846   -6.3849 S   0  0  0  0  0  0  0  0  0  0  0  0
    5.6552    2.6121   -4.9101 N   0  0  0  0  0  0  0  0  0  0  0  0
    2.1788    3.6421   -5.1729 C   0  0  0  0  0  0  0  0  0  0  0  0
    0.9779    3.5392   -5.8082 C   0  0  0  0  0  0  0  0  0  0  0  0
    0.2786    2.4136   -6.8623 S   0  0  0  0  0  0  0  0  0  0  0  0
   -1.2786    2.7816   -6.2760 C   0  0  0  0  0  0  0  0  0  0  0  0
   -2.4719    2.0679   -6.3425 C   0  0  0  0  0  0  0  0  0  0  0  0
   -2.6314    0.8511   -7.1507 C   0  0  0  0  0  0  0  0  0  0  0  0
   -2.5982    0.9207   -8.5488 C   0  0  0  0  0  0  0  0  0  0  0  0
   -2.6389   -0.2519   -9.3081 C   0  0  0  0  0  0  0  0  0  0  0  0
   -2.6877   -1.4973   -8.6804 C   0  0  0  0  0  0  0  0  0  0  0  0
   -2.7188   -1.5791   -7.2793 C   0  0  0  0  0  0  0  0  0  0  0  0
   -2.6610   -2.9153   -6.5892 C   0  0  0  0  0  0  0  0  0  0  0  0
   -1.2434   -3.1995   -6.0907 C   0  0  0  0  0  0  0  0  0  0  0  0
   -2.7081   -0.3989   -6.5187 C   0  0  0  0  0  0  0  0  0  0  0  0
   -3.3542    2.4707   -5.3263 C   0  0  0  0  0  0  0  0  0  0  0  0
   -2.6358    3.6760   -4.3564 S   0  0  0  0  0  0  0  0  0  0  0  0
   -1.2260    3.7178   -5.2694 C   0  0  0  0  0  0  0  0  0  0  0  0
    0.0680    4.1485   -5.0117 C   0  0  0  0  0  0  0  0  0  0  0  0
    0.6103    4.6891   -3.8953 N   0  0  0  0  0  0  0  0  0  0  0  0
    1.9333    4.3138   -3.9573 C   0  0  0  0  0  0  0  0  0  0  0  0
    2.9830    4.3519   -2.9811 C   0  0  0  0  0  0  0  0  0  0  0  0
    2.9390    4.5428   -1.6132 N   0  0  0  0  0  0  0  0  0  0  0  0
    4.1861    4.2036   -1.1932 C   0  0  0  0  0  0  0  0  0  0  0  0
    4.6884    3.8114    0.0460 C   0  0  0  0  0  0  0  0  0  0  0  0
    4.1838    3.8822    1.6419 S   0  0  0  0  0  0  0  0  0  0  0  0
    1.7842    4.6455   -0.7136 C   0  0  0  0  0  0  0  0  0  0  0  0
    0.9608    3.3613   -0.7117 C   0  0  0  0  0  0  0  0  0  0  0  0
   -0.0431    5.8027   -3.1944 C   0  0  0  0  0  0  0  0  0  0  0  0
    0.8307    7.0596   -3.1716 C   0  0  0  0  0  0  0  0  0  0  0  0
   -4.6886    1.9124   -5.1195 C   0  0  0  0  0  0  0  0  0  0  0  0
   -5.0751    1.0273   -4.1223 C   0  0  0  0  0  0  0  0  0  0  0  0
   -6.3821    0.5287   -4.2949 C   0  0  0  0  0  0  0  0  0  0  0  0
   -7.0358   -0.3409   -3.2822 C   0  0  0  0  0  0  0  0  0  0  0  0
   -6.8224   -0.1180   -1.9098 C   0  0  0  0  0  0  0  0  0  0  0  0
   -7.4364   -0.9232   -0.9421 C   0  0  0  0  0  0  0  0  0  0  0  0
   -8.2776   -1.9733   -1.3514 C   0  0  0  0  0  0  0  0  0  0  0  0
   -8.4840   -2.2232   -2.7225 C   0  0  0  0  0  0  0  0  0  0  0  0
   -9.3118   -3.2597   -3.1919 O   0  0  0  0  0  0  0  0  0  0  0  0
  -10.0061   -4.2139   -2.3828 C   0  0  0  0  0  0  0  0  0  0  0  0
   -9.0499   -5.2925   -1.8783 C   0  0  0  0  0  0  0  0  0  0  0  0
   -7.8521   -1.4127   -3.6705 C   0  0  0  0  0  0  0  0  0  0  0  0
   -7.1871   -0.6451    0.4123 O   0  0  0  0  0  0  0  0  0  0  0  0
   -7.7800   -1.3475    1.5019 C   0  0  0  0  0  0  0  0  0  0  0  0
   -7.2943   -0.7601    2.8173 C   0  0  0  0  0  0  0  0  0  0  0  0
   -6.9920    1.0035   -5.4729 C   0  0  0  0  0  0  0  0  0  0  0  0
   -5.9490    2.1042   -6.1929 S   0  0  0  0  0  0  0  0  0  0  0  0
   -8.4141    0.9262   -5.8408 C   0  0  0  0  0  0  0  0  0  0  0  0
   -8.9597    0.0123   -6.6655 C   0  0  0  0  0  0  0  0  0  0  0  0
  -10.4087   -0.1844   -6.7393 C   0  0  0  0  0  0  0  0  0  0  0  0
  -11.2872    0.6480   -6.3907 O   0  0  0  0  0  0  0  0  0  0  0  0
  -10.6675   -1.5094   -7.2566 C   0  0  0  0  0  0  0  0  0  0  0  0
  -11.9016   -2.0923   -7.5504 C   0  0  0  0  0  0  0  0  0  0  0  0
  -11.9274   -3.3591   -8.1496 C   0  0  0  0  0  0  0  0  0  0  0  0
  -13.1747   -3.9151   -8.4707 O   0  0  0  0  0  0  0  0  0  0  0  0
  -13.3523   -5.1464   -9.1616 C   0  0  0  0  0  0  0  0  0  0  0  0
  -10.7055   -4.0216   -8.4286 C   0  0  0  0  0  0  0  0  0  0  0  0
   -9.4749   -3.4109   -8.1310 C   0  0  0  0  0  0  0  0  0  0  0  0
   -9.4650   -2.1416   -7.5336 C   0  0  0  0  0  0  0  0  0  0  0  0
   -8.3367   -1.1996   -7.2769 C   0  0  0  0  0  0  0  0  0  0  0  0
   -7.1097   -1.2825   -7.8358 C   0  0  0  0  0  0  0  0  0  0  0  0
   -6.4844   -0.1312   -8.4261 C   0  0  0  0  0  0  0  0  0  0  0  0
   -5.9881    0.7761   -8.9470 N   0  0  0  0  0  0  0  0  0  0  0  0
   -6.4723   -2.5411   -8.1215 C   0  0  0  0  0  0  0  0  0  0  0  0
   -5.9455   -3.5474   -8.3541 N   0  0  0  0  0  0  0  0  0  0  0  0
    5.6004    3.7391    7.7613 H   0  0  0  0  0  0  0  0  0  0  0  0
    7.3020   -2.1427    9.3090 H   0  0  0  0  0  0  0  0  0  0  0  0
    5.6452    1.0935   12.8760 H   0  0  0  0  0  0  0  0  0  0  0  0
    7.3429   -1.5955   14.2375 H   0  0  0  0  0  0  0  0  0  0  0  0
    4.5880   -1.8247   14.5182 H   0  0  0  0  0  0  0  0  0  0  0  0
    5.5549   -3.9614   15.7670 H   0  0  0  0  0  0  0  0  0  0  0  0
    6.4081   -5.6497   13.9689 H   0  0  0  0  0  0  0  0  0  0  0  0
    5.9825   -4.5965   11.5656 H   0  0  0  0  0  0  0  0  0  0  0  0
    3.8261   -3.8114   12.9181 H   0  0  0  0  0  0  0  0  0  0  0  0
    4.4262   -2.4369   11.9134 H   0  0  0  0  0  0  0  0  0  0  0  0
    8.1235   -3.1461   12.5848 H   0  0  0  0  0  0  0  0  0  0  0  0
    4.6805    0.4038    6.0819 H   0  0  0  0  0  0  0  0  0  0  0  0
    2.4508    1.0635    3.5208 H   0  0  0  0  0  0  0  0  0  0  0  0
    2.7876   -2.4162    1.0144 H   0  0  0  0  0  0  0  0  0  0  0  0
    4.4366   -3.4521   -0.3423 H   0  0  0  0  0  0  0  0  0  0  0  0
    4.3586   -4.4264    1.1883 H   0  0  0  0  0  0  0  0  0  0  0  0
    6.8187   -4.9218    0.9488 H   0  0  0  0  0  0  0  0  0  0  0  0
    5.8492   -5.5259   -0.4504 H   0  0  0  0  0  0  0  0  0  0  0  0
    6.8270   -4.0120   -0.6132 H   0  0  0  0  0  0  0  0  0  0  0  0
    6.2934   -0.7596    2.8712 H   0  0  0  0  0  0  0  0  0  0  0  0
    0.6987   -1.7441    0.3542 H   0  0  0  0  0  0  0  0  0  0  0  0
   -0.7338   -1.0337    1.1613 H   0  0  0  0  0  0  0  0  0  0  0  0
    0.9520   -3.3842    2.2033 H   0  0  0  0  0  0  0  0  0  0  0  0
   -0.7756   -3.3933    1.6833 H   0  0  0  0  0  0  0  0  0  0  0  0
   -0.2873   -2.5172    3.1908 H   0  0  0  0  0  0  0  0  0  0  0  0
    6.8129    0.3380   -0.3857 H   0  0  0  0  0  0  0  0  0  0  0  0
    8.5934   -1.3290   -0.0658 H   0  0  0  0  0  0  0  0  0  0  0  0
   10.1666   -1.1380    1.8214 H   0  0  0  0  0  0  0  0  0  0  0  0
   10.5617    1.8662    3.8962 H   0  0  0  0  0  0  0  0  0  0  0  0
   11.1484    0.1971    3.5962 H   0  0  0  0  0  0  0  0  0  0  0  0
   10.1869    0.3888    5.8806 H   0  0  0  0  0  0  0  0  0  0  0  0
    8.6279    0.9914    5.2104 H   0  0  0  0  0  0  0  0  0  0  0  0
    9.1601   -0.7089    4.8790 H   0  0  0  0  0  0  0  0  0  0  0  0
    8.2690    2.5345    3.0290 H   0  0  0  0  0  0  0  0  0  0  0  0
   -2.5340    1.8773   -9.0489 H   0  0  0  0  0  0  0  0  0  0  0  0
   -2.6100   -0.1954  -10.3870 H   0  0  0  0  0  0  0  0  0  0  0  0
   -2.6765   -2.4019   -9.2775 H   0  0  0  0  0  0  0  0  0  0  0  0
   -3.3630   -2.9189   -5.7237 H   0  0  0  0  0  0  0  0  0  0  0  0
   -2.9752   -3.7313   -7.2794 H   0  0  0  0  0  0  0  0  0  0  0  0
   -0.9573   -2.4632   -5.3090 H   0  0  0  0  0  0  0  0  0  0  0  0
   -0.5225   -3.1415   -6.9339 H   0  0  0  0  0  0  0  0  0  0  0  0
   -1.1958   -4.2169   -5.6515 H   0  0  0  0  0  0  0  0  0  0  0  0
   -2.7019   -0.4557   -5.4366 H   0  0  0  0  0  0  0  0  0  0  0  0
    1.1965    5.5383   -0.9218 H   0  0  0  0  0  0  0  0  0  0  0  0
    2.1160    4.8397    0.3203 H   0  0  0  0  0  0  0  0  0  0  0  0
    0.1100    3.4603   -0.0061 H   0  0  0  0  0  0  0  0  0  0  0  0
    1.5925    2.5037   -0.3901 H   0  0  0  0  0  0  0  0  0  0  0  0
    0.5548    3.1429   -1.7183 H   0  0  0  0  0  0  0  0  0  0  0  0
   -0.9670    6.0939   -3.7412 H   0  0  0  0  0  0  0  0  0  0  0  0
   -0.4173    5.4886   -2.2049 H   0  0  0  0  0  0  0  0  0  0  0  0
    1.0833    7.3568   -4.2108 H   0  0  0  0  0  0  0  0  0  0  0  0
    1.7760    6.9043   -2.6201 H   0  0  0  0  0  0  0  0  0  0  0  0
    0.2747    7.8902   -2.6906 H   0  0  0  0  0  0  0  0  0  0  0  0
   -4.4234    0.7386   -3.3087 H   0  0  0  0  0  0  0  0  0  0  0  0
   -6.1885    0.6964   -1.5785 H   0  0  0  0  0  0  0  0  0  0  0  0
   -8.7659   -2.5875   -0.6100 H   0  0  0  0  0  0  0  0  0  0  0  0
  -10.5323   -3.7154   -1.5405 H   0  0  0  0  0  0  0  0  0  0  0  0
  -10.7749   -4.7005   -3.0179 H   0  0  0  0  0  0  0  0  0  0  0  0
   -8.3920   -4.8878   -1.0809 H   0  0  0  0  0  0  0  0  0  0  0  0
   -9.6361   -6.1361   -1.4581 H   0  0  0  0  0  0  0  0  0  0  0  0
   -8.4267   -5.6699   -2.7147 H   0  0  0  0  0  0  0  0  0  0  0  0
   -7.9810   -1.6513   -4.7125 H   0  0  0  0  0  0  0  0  0  0  0  0
   -8.8844   -1.2536    1.4490 H   0  0  0  0  0  0  0  0  0  0  0  0
   -7.4985   -2.4235    1.4562 H   0  0  0  0  0  0  0  0  0  0  0  0
   -7.5455    0.3207    2.8670 H   0  0  0  0  0  0  0  0  0  0  0  0
   -7.7842   -1.2832    3.6665 H   0  0  0  0  0  0  0  0  0  0  0  0
   -6.1944   -0.8854    2.9046 H   0  0  0  0  0  0  0  0  0  0  0  0
   -9.0639    1.6457   -5.3592 H   0  0  0  0  0  0  0  0  0  0  0  0
  -12.8246   -1.5656   -7.3470 H   0  0  0  0  0  0  0  0  0  0  0  0
  -12.9599   -5.9838   -8.5500 H   0  0  0  0  0  0  0  0  0  0  0  0
  -12.8431   -5.1095  -10.1465 H   0  0  0  0  0  0  0  0  0  0  0  0
  -14.4394   -5.3089   -9.3338 H   0  0  0  0  0  0  0  0  0  0  0  0
  -10.6935   -4.9991   -8.8953 H   0  0  0  0  0  0  0  0  0  0  0  0
   -8.5693   -3.9298   -8.3952 H   0  0  0  0  0  0  0  0  0  0  0  0
  1  2  2  3
  2  3  1  0
  3  4  2  0
  3  5  1  0
  5  6  2  0
  6  7  1  0
  7  8  2  0
  8  9  1  0
  9 10  2  0
 10 11  1  0
 11 12  2  3
 12 13  1  0
 13 14  3  0
 12 15  1  0
 15 16  3  0
  8 17  1  0
 17 18  1  0
 18 19  1  0
 19 20  2  0
 20 21  1  0
 21 22  1  0
 21 23  1  0
  1 24  1  0
 24 25  2  0
 25 26  1  0
 26 27  1  0
 27 28  2  0
 28 29  1  0
 29 30  2  0
 30 31  1  0
 31 32  1  0
 32 33  1  0
 33 34  1  0
 31 35  2  0
 29 36  1  0
 36 37  1  0
 37 38  1  0
 26 39  2  0
 39 40  1  0
 39 41  1  0
 41 42  2  0
 42 43  1  0
 43 44  2  0
 44 45  1  0
 45 46  2  0
 46 47  1  0
 47 48  1  0
 48 49  1  0
 47 50  2  0
 42 51  1  0
 51 52  1  0
 52 53  1  0
 53 54  1  0
 54 55  1  0
 55 56  1  0
 56 57  2  0
 57 58  1  0
 58 59  1  0
 56 60  1  0
 60 61  1  0
 61 62  1  0
 62 63  1  0
 63 64  1  0
 64 65  1  0
 65 66  2  0
 66 67  1  0
 67 68  2  0
 68 69  1  0
 69 70  1  0
 70 71  1  0
 69 72  2  0
 64 73  2  0
 73 74  1  0
 74 75  1  0
 75 76  1  0
 76 77  1  0
 77 78  1  0
 78 79  1  0
 79 80  1  0
 80 81  1  0
 81 82  1  0
 82 83  1  0
 80 84  1  0
 84 85  1  0
 77 86  1  0
 86 87  1  0
 73 88  1  0
 88 89  2  0
 89 90  1  0
 90 91  1  0
 91 92  2  0
 92 93  1  0
 93 94  2  0
 94 95  1  0
 95 96  1  0
 96 97  1  0
 97 98  1  0
 95 99  2  0
 93100  1  0
100101  1  0
101102  1  0
 90103  2  0
103104  1  0
103105  1  0
105106  2  3
106107  1  0
107108  2  0
107109  1  0
109110  2  0
110111  1  0
111112  1  0
112113  1  0
111114  2  0
114115  1  0
115116  2  0
116117  1  0
117118  2  3
118119  1  0
119120  3  0
118121  1  0
121122  3  0
 11  2  1  0
 23 17  1  0
 40 24  1  0
 83 41  1  0
104 88  1  0
117106  1  0
 10  5  1  0
 22 18  1  0
 35 27  1  0
 50 43  1  0
 82 51  2  0
 99 91  1  0
116109  1  0
 23  7  1  0
 81 53  2  0
 79 54  2  0
 59 55  2  0
 78 60  2  0
 76 61  2  0
 75 63  2  0
 72 65  1  0
  1123  1  0
  6124  1  0
  9125  1  0
 17126  1  0
 18127  1  0
 19128  1  0
 20129  1  0
 21130  1  0
 22131  1  0
 22132  1  0
 23133  1  0
 25134  1  0
 28135  1  0
 30136  1  0
 33137  1  0
 33138  1  0
 34139  1  0
 34140  1  0
 34141  1  0
 35142  1  0
 37143  1  0
 37144  1  0
 38145  1  0
 38146  1  0
 38147  1  0
 44148  1  0
 45149  1  0
 46150  1  0
 48151  1  0
 48152  1  0
 49153  1  0
 49154  1  0
 49155  1  0
 50156  1  0
 66157  1  0
 67158  1  0
 68159  1  0
 70160  1  0
 70161  1  0
 71162  1  0
 71163  1  0
 71164  1  0
 72165  1  0
 84166  1  0
 84167  1  0
 85168  1  0
 85169  1  0
 85170  1  0
 86171  1  0
 86172  1  0
 87173  1  0
 87174  1  0
 87175  1  0
 89176  1  0
 92177  1  0
 94178  1  0
 97179  1  0
 97180  1  0
 98181  1  0
 98182  1  0
 98183  1  0
 99184  1  0
101185  1  0
101186  1  0
102187  1  0
102188  1  0
102189  1  0
105190  1  0
110191  1  0
113192  1  0
113193  1  0
113194  1  0
114195  1  0
115196  1  0
M  END

