
     RDKit          3D

212236  0  0  0  0  0  0  0  0999 V2000
    1.3175   -7.2924   -4.5395 C   0  0  0  0  0  0  0  0  0  0  0  0
    0.4546   -8.0520   -3.8539 C   0  0  0  0  0  0  0  0  0  0  0  0
    0.7725   -9.4221   -3.4418 C   0  0  0  0  0  0  0  0  0  0  0  0
    1.9107   -9.9787   -3.4985 O   0  0  0  0  0  0  0  0  0  0  0  0
   -0.4521  -10.0449   -2.9433 C   0  0  0  0  0  0  0  0  0  0  0  0
   -0.6841  -11.3387   -2.4813 C   0  0  0  0  0  0  0  0  0  0  0  0
   -1.9631  -11.7234   -2.1039 C   0  0  0  0  0  0  0  0  0  0  0  0
   -3.0074  -10.8388   -2.1798 C   0  0  0  0  0  0  0  0  0  0  0  0
   -2.7258   -9.5332   -2.6452 C   0  0  0  0  0  0  0  0  0  0  0  0
   -1.4748   -9.1415   -3.0189 C   0  0  0  0  0  0  0  0  0  0  0  0
   -0.9529   -7.8400   -3.5760 C   0  0  0  0  0  0  0  0  0  0  0  0
   -1.5664   -6.7081   -3.2839 C   0  0  0  0  0  0  0  0  0  0  0  0
   -2.9776   -6.5764   -3.0802 C   0  0  0  0  0  0  0  0  0  0  0  0
   -4.1479   -6.4771   -2.9189 N   0  0  0  0  0  0  0  0  0  0  0  0
   -0.8637   -5.5799   -2.8190 C   0  0  0  0  0  0  0  0  0  0  0  0
   -0.2461   -4.5811   -2.3932 N   0  0  0  0  0  0  0  0  0  0  0  0
   -4.0019  -11.7927   -1.7325 C   0  0  0  0  0  0  0  0  0  0  0  0
   -4.5251  -11.6160   -0.3587 C   0  0  0  0  0  0  0  0  0  0  0  0
   -5.1074  -12.9253    0.0597 C   0  0  0  0  0  0  0  0  0  0  0  0
   -4.1108  -13.7597    0.2280 C   0  0  0  0  0  0  0  0  0  0  0  0
   -2.8311  -13.0589   -0.1147 C   0  0  0  0  0  0  0  0  0  0  0  0
   -3.2066  -11.6620    0.4433 C   0  0  0  0  0  0  0  0  0  0  0  0
   -2.8370  -12.7854   -1.5691 C   0  0  0  0  0  0  0  0  0  0  0  0
    1.0349   -5.9408   -5.0153 C   0  0  0  0  0  0  0  0  0  0  0  0
    1.8488   -4.8456   -5.2036 C   0  0  0  0  0  0  0  0  0  0  0  0
    1.2930   -3.7096   -5.6881 C   0  0  0  0  0  0  0  0  0  0  0  0
    1.8983   -2.4914   -5.9406 C   0  0  0  0  0  0  0  0  0  0  0  0
    3.2478   -2.1267   -5.5342 C   0  0  0  0  0  0  0  0  0  0  0  0
    4.1903   -2.5166   -4.7089 C   0  0  0  0  0  0  0  0  0  0  0  0
    5.3896   -1.9175   -4.6030 C   0  0  0  0  0  0  0  0  0  0  0  0
    5.7728   -0.8621   -5.3176 C   0  0  0  0  0  0  0  0  0  0  0  0
    7.1480    0.2121   -5.4913 S   0  0  0  0  0  0  0  0  0  0  0  0
    7.0171    1.7393   -4.5739 C   0  0  0  0  0  0  0  0  0  0  0  0
    7.0578    1.6338   -3.1004 C   0  0  0  0  0  0  0  0  0  0  0  0
    4.1288   -0.6280   -6.3771 Se  0  0  0  0  0  2  0  0  0  0  0  0
    1.0909   -1.4386   -6.4345 C   0  0  0  0  0  0  0  0  0  0  0  0
   -0.2518   -1.4705   -6.6872 C   0  0  0  0  0  0  0  0  0  0  0  0
   -0.8327   -2.6937   -6.4186 C   0  0  0  0  0  0  0  0  0  0  0  0
   -2.2644   -2.8431   -6.1287 C   0  0  0  0  0  0  0  0  0  0  0  0
   -3.2248   -1.9564   -5.7922 C   0  0  0  0  0  0  0  0  0  0  0  0
   -4.4718   -2.3373   -5.4650 C   0  0  0  0  0  0  0  0  0  0  0  0
   -4.8951   -3.5910   -5.4327 C   0  0  0  0  0  0  0  0  0  0  0  0
   -6.3622   -4.4209   -4.9512 S   0  0  0  0  0  0  0  0  0  0  0  0
   -7.5406   -3.2700   -4.2055 C   0  0  0  0  0  0  0  0  0  0  0  0
   -7.0531   -2.6717   -2.9057 C   0  0  0  0  0  0  0  0  0  0  0  0
   -3.2090   -4.5021   -5.9875 Se  0  0  0  0  0  2  0  0  0  0  0  0
   -0.0591   -3.7597   -5.9482 C   0  0  0  0  0  0  0  0  0  0  0  0
   -0.5035   -5.3320   -5.5372 S   0  0  0  0  0  0  0  0  0  0  0  0
   -0.8445   -0.3031   -7.0470 C   0  0  0  0  0  0  0  0  0  0  0  0
   -0.0983    0.8154   -7.1267 C   0  0  0  0  0  0  0  0  0  0  0  0
    1.4776    0.1962   -6.7094 S   0  0  0  0  0  0  0  0  0  0  0  0
   -0.4173    2.2832   -6.9723 C   0  0  0  0  0  0  0  0  0  0  0  0
   -1.5329    3.0330   -7.0038 C   0  0  0  0  0  0  0  0  0  0  0  0
   -2.6786    2.5534   -7.7814 C   0  0  0  0  0  0  0  0  0  0  0  0
   -2.6256    2.6597   -9.1773 C   0  0  0  0  0  0  0  0  0  0  0  0
   -3.6383    2.1925   -9.9978 C   0  0  0  0  0  0  0  0  0  0  0  0
   -4.7266    1.6115   -9.4072 C   0  0  0  0  0  0  0  0  0  0  0  0
   -4.8252    1.4833   -8.0459 C   0  0  0  0  0  0  0  0  0  0  0  0
   -6.0023    0.8125   -7.4928 C   0  0  0  0  0  0  0  0  0  0  0  0
   -7.1894    1.7301   -7.2796 C   0  0  0  0  0  0  0  0  0  0  0  0
   -3.7808    1.9670   -7.2458 C   0  0  0  0  0  0  0  0  0  0  0  0
   -1.4759    4.2412   -6.3366 C   0  0  0  0  0  0  0  0  0  0  0  0
   -2.6069    5.4076   -5.6692 S   0  0  0  0  0  0  0  0  0  0  0  0
   -1.5454    6.2678   -4.6427 C   0  0  0  0  0  0  0  0  0  0  0  0
   -1.4763    7.1147   -3.4973 C   0  0  0  0  0  0  0  0  0  0  0  0
   -2.5073    7.6270   -2.7173 C   0  0  0  0  0  0  0  0  0  0  0  0
   -2.2653    7.9913   -1.4185 C   0  0  0  0  0  0  0  0  0  0  0  0
   -3.3113    8.4760   -0.7417 N   0  0  0  0  0  0  0  0  0  0  0  0
   -4.5794    8.4393   -1.8262 S   0  0  0  0  0  0  0  0  0  0  0  0
   -3.7668    7.8063   -3.1378 N   0  0  0  0  0  0  0  0  0  0  0  0
   -0.9667    7.8170   -0.9753 C   0  0  0  0  0  0  0  0  0  0  0  0
   -0.5323    7.6792    0.3819 C   0  0  0  0  0  0  0  0  0  0  0  0
   -1.0260    7.6017    2.0323 S   0  0  0  0  0  0  0  0  0  0  0  0
    0.4045    6.8286    2.6915 C   0  0  0  0  0  0  0  0  0  0  0  0
    0.7209    6.1378    3.8404 C   0  0  0  0  0  0  0  0  0  0  0  0
    0.1133    6.3384    5.1693 C   0  0  0  0  0  0  0  0  0  0  0  0
    0.7724    7.2913    5.9864 C   0  0  0  0  0  0  0  0  0  0  0  0
    0.3755    7.5395    7.2693 C   0  0  0  0  0  0  0  0  0  0  0  0
   -0.6895    6.8669    7.8298 C   0  0  0  0  0  0  0  0  0  0  0  0
   -1.3377    5.9394    7.0454 C   0  0  0  0  0  0  0  0  0  0  0  0
   -2.4482    5.2003    7.6740 C   0  0  0  0  0  0  0  0  0  0  0  0
   -3.7662    5.9508    7.6203 C   0  0  0  0  0  0  0  0  0  0  0  0
   -0.9325    5.6940    5.7328 C   0  0  0  0  0  0  0  0  0  0  0  0
    1.8170    5.3282    3.7562 C   0  0  0  0  0  0  0  0  0  0  0  0
    2.3735    5.5732    2.1773 S   0  0  0  0  0  0  0  0  0  0  0  0
    1.1477    6.7037    1.6282 C   0  0  0  0  0  0  0  0  0  0  0  0
    0.6889    7.1520    0.3897 C   0  0  0  0  0  0  0  0  0  0  0  0
    1.0843    6.9967   -0.9148 N   0  0  0  0  0  0  0  0  0  0  0  0
    0.0889    7.3609   -1.7175 C   0  0  0  0  0  0  0  0  0  0  0  0
   -0.1747    6.9726   -3.0791 C   0  0  0  0  0  0  0  0  0  0  0  0
    0.5475    6.1546   -3.8461 N   0  0  0  0  0  0  0  0  0  0  0  0
   -0.3529    5.6869   -4.8296 C   0  0  0  0  0  0  0  0  0  0  0  0
   -0.3896    4.6199   -5.7336 C   0  0  0  0  0  0  0  0  0  0  0  0
    0.6717    3.2838   -6.0717 S   0  0  0  0  0  0  0  0  0  0  0  0
    1.9016    5.6934   -3.9372 C   0  0  0  0  0  0  0  0  0  0  0  0
    2.1981    4.3497   -3.3866 C   0  0  0  0  0  0  0  0  0  0  0  0
    2.4860    6.9139   -1.2889 C   0  0  0  0  0  0  0  0  0  0  0  0
    2.9529    8.3172   -1.7392 C   0  0  0  0  0  0  0  0  0  0  0  0
    2.1555    4.1711    4.6161 C   0  0  0  0  0  0  0  0  0  0  0  0
    3.2625    3.5491    4.9599 C   0  0  0  0  0  0  0  0  0  0  0  0
    3.1337    2.3464    5.6413 C   0  0  0  0  0  0  0  0  0  0  0  0
    4.1265    1.4987    6.1023 C   0  0  0  0  0  0  0  0  0  0  0  0
    5.5311    1.5903    5.6548 C   0  0  0  0  0  0  0  0  0  0  0  0
    6.6887    1.0542    6.0151 C   0  0  0  0  0  0  0  0  0  0  0  0
    7.8072    1.1783    5.2977 C   0  0  0  0  0  0  0  0  0  0  0  0
    7.8635    1.8540    4.1489 C   0  0  0  0  0  0  0  0  0  0  0  0
    9.0175    2.1939    2.8486 S   0  0  0  0  0  0  0  0  0  0  0  0
    8.6302    0.9837    1.5096 C   0  0  0  0  0  0  0  0  0  0  0  0
    9.5145    1.1555    0.3289 C   0  0  0  0  0  0  0  0  0  0  0  0
    5.9660    2.4471    4.0324 Se  0  0  0  0  0  2  0  0  0  0  0  0
    3.7890    0.3283    6.7911 C   0  0  0  0  0  0  0  0  0  0  0  0
    2.5254   -0.0893    7.0520 C   0  0  0  0  0  0  0  0  0  0  0  0
    1.5095    0.7507    6.5713 C   0  0  0  0  0  0  0  0  0  0  0  0
    0.1051    0.3914    6.5041 C   0  0  0  0  0  0  0  0  0  0  0  0
   -0.6119   -0.7526    6.6101 C   0  0  0  0  0  0  0  0  0  0  0  0
   -1.9560   -0.7713    6.5438 C   0  0  0  0  0  0  0  0  0  0  0  0
   -2.7484    0.2576    6.3702 C   0  0  0  0  0  0  0  0  0  0  0  0
   -4.3976    0.7456    6.2421 S   0  0  0  0  0  0  0  0  0  0  0  0
   -4.9568    0.6144    4.5248 C   0  0  0  0  0  0  0  0  0  0  0  0
   -4.1937    1.5676    3.6106 C   0  0  0  0  0  0  0  0  0  0  0  0
   -1.2199    1.6544    6.2697 Se  0  0  0  0  0  2  0  0  0  0  0  0
    1.8786    1.9209    5.8976 C   0  0  0  0  0  0  0  0  0  0  0  0
    0.8914    3.1536    5.2132 S   0  0  0  0  0  0  0  0  0  0  0  0
    2.3564   -1.1684    7.7955 C   0  0  0  0  0  0  0  0  0  0  0  0
    3.5151   -1.8285    8.2812 C   0  0  0  0  0  0  0  0  0  0  0  0
    4.7361   -0.8309    7.6117 S   0  0  0  0  0  0  0  0  0  0  0  0
    3.4470   -2.8966    9.1581 C   0  0  0  0  0  0  0  0  0  0  0  0
    3.4084   -3.8676    9.9395 C   0  0  0  0  0  0  0  0  0  0  0  0
    4.1993   -4.8774   10.1915 C   0  0  0  0  0  0  0  0  0  0  0  0
    5.0201   -5.9285   10.4379 N   0  0  0  0  0  0  0  0  0  0  0  0
    2.0558   -3.9186   10.7063 C   0  0  0  0  0  0  0  0  0  0  0  0
    1.9163   -4.8106   11.5664 O   0  0  0  0  0  0  0  0  0  0  0  0
    1.1077   -3.0105   10.3966 O   0  0  0  0  0  0  0  0  0  0  0  0
   -0.1548   -3.0031   11.0379 C   0  0  0  0  0  0  0  0  0  0  0  0
   -0.9973   -1.9398   10.3462 C   0  0  0  0  0  0  0  0  0  0  0  0
    2.2956   -7.7381   -4.7458 H   0  0  0  0  0  0  0  0  0  0  0  0
    0.1532  -12.0005   -2.4328 H   0  0  0  0  0  0  0  0  0  0  0  0
   -3.5432   -8.8599   -2.7249 H   0  0  0  0  0  0  0  0  0  0  0  0
   -4.7496  -12.1384   -2.4874 H   0  0  0  0  0  0  0  0  0  0  0  0
   -5.0966  -10.7526   -0.1309 H   0  0  0  0  0  0  0  0  0  0  0  0
   -6.1751  -13.1256    0.1702 H   0  0  0  0  0  0  0  0  0  0  0  0
   -4.1850  -14.7752    0.5605 H   0  0  0  0  0  0  0  0  0  0  0  0
   -1.9501  -13.4678    0.3154 H   0  0  0  0  0  0  0  0  0  0  0  0
   -3.4192  -11.7449    1.5045 H   0  0  0  0  0  0  0  0  0  0  0  0
   -2.4959  -10.8946    0.1487 H   0  0  0  0  0  0  0  0  0  0  0  0
   -2.9375  -13.6818   -2.2421 H   0  0  0  0  0  0  0  0  0  0  0  0
    2.9263   -4.9960   -4.9571 H   0  0  0  0  0  0  0  0  0  0  0  0
    3.9646   -3.3991   -4.0125 H   0  0  0  0  0  0  0  0  0  0  0  0
    6.1564   -2.3244   -3.8433 H   0  0  0  0  0  0  0  0  0  0  0  0
    6.1150    2.3398   -4.8804 H   0  0  0  0  0  0  0  0  0  0  0  0
    7.8864    2.4097   -4.8937 H   0  0  0  0  0  0  0  0  0  0  0  0
    7.4232    0.7160   -2.6695 H   0  0  0  0  0  0  0  0  0  0  0  0
    7.7235    2.4413   -2.6449 H   0  0  0  0  0  0  0  0  0  0  0  0
    6.0563    1.8973   -2.6457 H   0  0  0  0  0  0  0  0  0  0  0  0
   -2.9235   -0.8548   -5.7314 H   0  0  0  0  0  0  0  0  0  0  0  0
   -5.2277   -1.5328   -5.1970 H   0  0  0  0  0  0  0  0  0  0  0  0
   -7.8012   -2.4388   -4.8954 H   0  0  0  0  0  0  0  0  0  0  0  0
   -8.4725   -3.8571   -4.0077 H   0  0  0  0  0  0  0  0  0  0  0  0
   -6.2268   -1.9096   -3.1256 H   0  0  0  0  0  0  0  0  0  0  0  0
   -7.8450   -2.1671   -2.3831 H   0  0  0  0  0  0  0  0  0  0  0  0
   -6.6208   -3.4715   -2.2704 H   0  0  0  0  0  0  0  0  0  0  0  0
   -1.9139   -0.2221   -7.3495 H   0  0  0  0  0  0  0  0  0  0  0  0
   -1.7398    3.1311   -9.5959 H   0  0  0  0  0  0  0  0  0  0  0  0
   -3.5735    2.2925  -11.0791 H   0  0  0  0  0  0  0  0  0  0  0  0
   -5.5219    1.2441  -10.0864 H   0  0  0  0  0  0  0  0  0  0  0  0
   -6.3778    0.0127   -8.2138 H   0  0  0  0  0  0  0  0  0  0  0  0
   -5.7978    0.3102   -6.5459 H   0  0  0  0  0  0  0  0  0  0  0  0
   -7.4141    2.3152   -8.1780 H   0  0  0  0  0  0  0  0  0  0  0  0
   -7.0677    2.3912   -6.4061 H   0  0  0  0  0  0  0  0  0  0  0  0
   -8.0588    1.0406   -7.0321 H   0  0  0  0  0  0  0  0  0  0  0  0
   -3.8290    1.8742   -6.1608 H   0  0  0  0  0  0  0  0  0  0  0  0
    1.6051    7.8136    5.5411 H   0  0  0  0  0  0  0  0  0  0  0  0
    0.8771    8.2725    7.9187 H   0  0  0  0  0  0  0  0  0  0  0  0
   -0.9884    7.0858    8.8621 H   0  0  0  0  0  0  0  0  0  0  0  0
   -2.5334    4.1589    7.3264 H   0  0  0  0  0  0  0  0  0  0  0  0
   -2.1724    5.1004    8.7586 H   0  0  0  0  0  0  0  0  0  0  0  0
   -3.7298    6.7375    6.8710 H   0  0  0  0  0  0  0  0  0  0  0  0
   -4.0203    6.3708    8.6299 H   0  0  0  0  0  0  0  0  0  0  0  0
   -4.6017    5.2415    7.4006 H   0  0  0  0  0  0  0  0  0  0  0  0
   -1.4556    4.9604    5.1097 H   0  0  0  0  0  0  0  0  0  0  0  0
    2.1004    5.5108   -5.1025 H   0  0  0  0  0  0  0  0  0  0  0  0
    2.7180    6.4061   -3.7601 H   0  0  0  0  0  0  0  0  0  0  0  0
    2.8117    3.7107   -4.1246 H   0  0  0  0  0  0  0  0  0  0  0  0
    2.7797    4.2476   -2.4690 H   0  0  0  0  0  0  0  0  0  0  0  0
    1.2367    3.7684   -3.1830 H   0  0  0  0  0  0  0  0  0  0  0  0
    2.9847    6.0908   -1.6092 H   0  0  0  0  0  0  0  0  0  0  0  0
    3.0133    6.9630   -0.2107 H   0  0  0  0  0  0  0  0  0  0  0  0
    3.5759    8.8297   -0.9895 H   0  0  0  0  0  0  0  0  0  0  0  0
    3.5525    8.2774   -2.6646 H   0  0  0  0  0  0  0  0  0  0  0  0
    2.0520    8.9968   -1.8357 H   0  0  0  0  0  0  0  0  0  0  0  0
    4.2812    3.9868    4.7462 H   0  0  0  0  0  0  0  0  0  0  0  0
    6.7130    0.4771    7.0014 H   0  0  0  0  0  0  0  0  0  0  0  0
    8.7821    0.6962    5.6529 H   0  0  0  0  0  0  0  0  0  0  0  0
    8.7095   -0.0068    1.9395 H   0  0  0  0  0  0  0  0  0  0  0  0
    7.5357    1.0881    1.2732 H   0  0  0  0  0  0  0  0  0  0  0  0
   10.5027    0.6662    0.4399 H   0  0  0  0  0  0  0  0  0  0  0  0
    9.6114    2.2121    0.0089 H   0  0  0  0  0  0  0  0  0  0  0  0
    9.0266    0.6343   -0.5461 H   0  0  0  0  0  0  0  0  0  0  0  0
   -0.0214   -1.7275    6.6984 H   0  0  0  0  0  0  0  0  0  0  0  0
   -2.4721   -1.7974    6.6492 H   0  0  0  0  0  0  0  0  0  0  0  0
   -4.6695   -0.4419    4.1916 H   0  0  0  0  0  0  0  0  0  0  0  0
   -6.0349    0.7133    4.4052 H   0  0  0  0  0  0  0  0  0  0  0  0
   -4.8184    1.9885    2.8434 H   0  0  0  0  0  0  0  0  0  0  0  0
   -3.3864    1.0039    3.0541 H   0  0  0  0  0  0  0  0  0  0  0  0
   -3.6353    2.2705    4.2510 H   0  0  0  0  0  0  0  0  0  0  0  0
    1.3983   -1.6191    8.1284 H   0  0  0  0  0  0  0  0  0  0  0  0
    4.6297   -3.4581    8.6143 H   0  0  0  0  0  0  0  0  0  0  0  0
    0.0303   -2.6686   12.0884 H   0  0  0  0  0  0  0  0  0  0  0  0
   -0.6184   -3.9850   11.0501 H   0  0  0  0  0  0  0  0  0  0  0  0
   -1.7484   -1.5198   11.0355 H   0  0  0  0  0  0  0  0  0  0  0  0
   -0.3665   -1.0814   10.0242 H   0  0  0  0  0  0  0  0  0  0  0  0
   -1.4975   -2.4437    9.4590 H   0  0  0  0  0  0  0  0  0  0  0  0
  1  2  2  3
  2  3  1  0
  3  4  2  0
  3  5  1  0
  5  6  2  0
  6  7  1  0
  7  8  2  0
  8  9  1  0
  9 10  2  0
 10 11  1  0
 11 12  2  3
 12 13  1  0
 13 14  3  0
 12 15  1  0
 15 16  3  0
  8 17  1  0
 17 18  1  0
 18 19  1  0
 19 20  2  0
 20 21  1  0
 21 22  1  0
 21 23  1  0
  1 24  1  0
 24 25  2  0
 25 26  1  0
 26 27  2  0
 27 28  1  0
 28 29  2  0
 29 30  1  0
 30 31  2  0
 31 32  1  0
 32 33  1  0
 33 34  1  0
 31 35  1  0
 27 36  1  0
 36 37  2  0
 37 38  1  0
 38 39  1  0
 39 40  2  0
 40 41  1  0
 41 42  2  0
 42 43  1  0
 43 44  1  0
 44 45  1  0
 42 46  1  0
 38 47  2  0
 47 48  1  0
 37 49  1  0
 49 50  2  0
 50 51  1  0
 50 52  1  0
 52 53  2  0
 53 54  1  0
 54 55  2  0
 55 56  1  0
 56 57  2  0
 57 58  1  0
 58 59  1  0
 59 60  1  0
 58 61  2  0
 53 62  1  0
 62 63  1  0
 63 64  1  0
 64 65  1  0
 65 66  1  0
 66 67  1  0
 67 68  2  0
 68 69  1  0
 69 70  1  0
 67 71  1  0
 71 72  1  0
 72 73  1  0
 73 74  1  0
 74 75  1  0
 75 76  1  0
 76 77  2  0
 77 78  1  0
 78 79  2  0
 79 80  1  0
 80 81  1  0
 81 82  1  0
 80 83  2  0
 75 84  2  0
 84 85  1  0
 85 86  1  0
 86 87  1  0
 87 88  1  0
 88 89  1  0
 89 90  1  0
 90 91  1  0
 91 92  1  0
 92 93  1  0
 93 94  1  0
 91 95  1  0
 95 96  1  0
 88 97  1  0
 97 98  1  0
 84 99  1  0
 99100  2  0
100101  1  0
101102  2  0
102103  1  0
103104  2  0
104105  1  0
105106  2  0
106107  1  0
107108  1  0
108109  1  0
106110  1  0
102111  1  0
111112  2  0
112113  1  0
113114  1  0
114115  2  0
115116  1  0
116117  2  0
117118  1  0
118119  1  0
119120  1  0
117121  1  0
113122  2  0
122123  1  0
112124  1  0
124125  2  0
125126  1  0
125127  1  0
127128  2  3
128129  1  0
129130  3  0
128131  1  0
131132  2  0
131133  1  0
133134  1  0
134135  1  0
 11  2  1  0
 23 17  1  0
 48 24  1  0
 94 52  1  0
123 99  1  0
 10  5  1  0
 22 18  1  0
 47 26  1  0
 61 54  1  0
 93 62  2  0
122101  1  0
 23  7  1  0
 35 28  1  0
 51 36  1  0
 92 64  2  0
110103  1  0
126111  1  0
 46 39  1  0
 90 65  2  0
121114  1  0
 70 66  2  0
 89 71  2  0
 87 72  2  0
 86 74  2  0
 83 76  1  0
  1136  1  0
  6137  1  0
  9138  1  0
 17139  1  0
 18140  1  0
 19141  1  0
 20142  1  0
 21143  1  0
 22144  1  0
 22145  1  0
 23146  1  0
 25147  1  0
 29148  1  0
 30149  1  0
 33150  1  0
 33151  1  0
 34152  1  0
 34153  1  0
 34154  1  0
 40155  1  0
 41156  1  0
 44157  1  0
 44158  1  0
 45159  1  0
 45160  1  0
 45161  1  0
 49162  1  0
 55163  1  0
 56164  1  0
 57165  1  0
 59166  1  0
 59167  1  0
 60168  1  0
 60169  1  0
 60170  1  0
 61171  1  0
 77172  1  0
 78173  1  0
 79174  1  0
 81175  1  0
 81176  1  0
 82177  1  0
 82178  1  0
 82179  1  0
 83180  1  0
 95181  1  0
 95182  1  0
 96183  1  0
 96184  1  0
 96185  1  0
 97186  1  0
 97187  1  0
 98188  1  0
 98189  1  0
 98190  1  0
100191  1  0
104192  1  0
105193  1  0
108194  1  0
108195  1  0
109196  1  0
109197  1  0
109198  1  0
115199  1  0
116200  1  0
119201  1  0
119202  1  0
120203  1  0
120204  1  0
120205  1  0
124206  1  0
127207  1  0
134208  1  0
134209  1  0
135210  1  0
135211  1  0
135212  1  0
M  END

