
     RDKit          3D

234261  0  0  0  0  0  0  0  0999 V2000
   -4.1988    7.1428   -5.8310 C   0  0  0  0  0  0  0  0  0  0  0  0
   -5.2946    6.3577   -5.7719 C   0  0  0  0  0  0  0  0  0  0  0  0
   -6.3897    6.6577   -4.8428 C   0  0  0  0  0  0  0  0  0  0  0  0
   -6.9613    7.7739   -4.7260 O   0  0  0  0  0  0  0  0  0  0  0  0
   -6.7472    5.4774   -4.0997 C   0  0  0  0  0  0  0  0  0  0  0  0
   -7.6186    5.4014   -2.9896 C   0  0  0  0  0  0  0  0  0  0  0  0
   -7.6449    4.1585   -2.3862 C   0  0  0  0  0  0  0  0  0  0  0  0
   -6.8559    3.0544   -2.8380 C   0  0  0  0  0  0  0  0  0  0  0  0
   -6.0001    3.1280   -3.9273 C   0  0  0  0  0  0  0  0  0  0  0  0
   -5.9752    4.3961   -4.5731 C   0  0  0  0  0  0  0  0  0  0  0  0
   -5.1500    4.8703   -5.7182 C   0  0  0  0  0  0  0  0  0  0  0  0
   -4.4830    4.1108   -6.6240 C   0  0  0  0  0  0  0  0  0  0  0  0
   -4.3836    2.6822   -6.5223 C   0  0  0  0  0  0  0  0  0  0  0  0
   -4.2865    1.5259   -6.4461 N   0  0  0  0  0  0  0  0  0  0  0  0
   -3.9203    4.6877   -7.8167 C   0  0  0  0  0  0  0  0  0  0  0  0
   -3.4622    5.1386   -8.7891 N   0  0  0  0  0  0  0  0  0  0  0  0
   -7.3849    2.2027   -1.7224 C   0  0  0  0  0  0  0  0  0  0  0  0
   -6.4181    1.9430   -0.5293 C   0  0  0  0  0  0  0  0  0  0  0  0
   -7.2797    1.4309    0.5980 C   0  0  0  0  0  0  0  0  0  0  0  0
   -8.0178    2.4691    1.0179 C   0  0  0  0  0  0  0  0  0  0  0  0
   -7.6317    3.6423    0.1531 C   0  0  0  0  0  0  0  0  0  0  0  0
   -6.1482    3.3393    0.0034 C   0  0  0  0  0  0  0  0  0  0  0  0
   -8.1968    3.3338   -1.2642 C   0  0  0  0  0  0  0  0  0  0  0  0
   -3.5061    7.4543   -4.5599 C   0  0  0  0  0  0  0  0  0  0  0  0
   -2.4494    6.6527   -4.1470 C   0  0  0  0  0  0  0  0  0  0  0  0
   -1.9313    6.7234   -2.9002 C   0  0  0  0  0  0  0  0  0  0  0  0
   -0.9813    5.7786   -2.7862 N   0  0  0  0  0  0  0  0  0  0  0  0
   -0.9662    5.1824   -3.9503 O   0  0  0  0  0  0  0  0  0  0  0  0
   -1.8411    5.6553   -4.8066 N   0  0  0  0  0  0  0  0  0  0  0  0
   -2.4221    7.5876   -1.9199 C   0  0  0  0  0  0  0  0  0  0  0  0
   -3.4672    8.4889   -2.3176 C   0  0  0  0  0  0  0  0  0  0  0  0
   -4.0996    9.4087   -1.4602 O   0  0  0  0  0  0  0  0  0  0  0  0
   -4.0383    9.4388   -0.0421 C   0  0  0  0  0  0  0  0  0  0  0  0
   -5.1148   10.3755    0.4803 C   0  0  0  0  0  0  0  0  0  0  0  0
   -3.9548    8.4467   -3.6563 C   0  0  0  0  0  0  0  0  0  0  0  0
   -4.9243    9.3551   -4.0747 O   0  0  0  0  0  0  0  0  0  0  0  0
   -4.6154   10.7273   -4.3095 C   0  0  0  0  0  0  0  0  0  0  0  0
   -5.8143   11.4063   -4.9453 C   0  0  0  0  0  0  0  0  0  0  0  0
   -1.9835    7.3409   -0.5346 C   0  0  0  0  0  0  0  0  0  0  0  0
   -1.0207    8.0604    0.2069 C   0  0  0  0  0  0  0  0  0  0  0  0
   -0.4063    9.3399   -0.1979 C   0  0  0  0  0  0  0  0  0  0  0  0
   -0.4056   10.4265    0.6929 C   0  0  0  0  0  0  0  0  0  0  0  0
    0.0991   11.6647    0.2925 C   0  0  0  0  0  0  0  0  0  0  0  0
    0.6402   11.8236   -0.9828 C   0  0  0  0  0  0  0  0  0  0  0  0
    0.6729   10.7451   -1.8756 C   0  0  0  0  0  0  0  0  0  0  0  0
    1.3372   10.9004   -3.2156 C   0  0  0  0  0  0  0  0  0  0  0  0
    2.8368   10.6296   -3.1047 C   0  0  0  0  0  0  0  0  0  0  0  0
    0.1541    9.5013   -1.4781 C   0  0  0  0  0  0  0  0  0  0  0  0
   -0.6936    7.3758    1.3854 C   0  0  0  0  0  0  0  0  0  0  0  0
    0.5553    7.5671    2.5272 S   0  0  0  0  0  0  0  0  0  0  0  0
    0.1756    6.0817    3.2592 C   0  0  0  0  0  0  0  0  0  0  0  0
    0.8715    5.1467    3.9666 C   0  0  0  0  0  0  0  0  0  0  0  0
    2.1694    5.2017    4.4945 C   0  0  0  0  0  0  0  0  0  0  0  0
    2.7811    3.9943    4.9321 C   0  0  0  0  0  0  0  0  0  0  0  0
    4.0535    4.0813    5.4083 N   0  0  0  0  0  0  0  0  0  0  0  0
    4.3085    5.7050    5.2139 S   0  0  0  0  0  0  0  0  0  0  0  0
    2.9193    6.3314    4.5631 N   0  0  0  0  0  0  0  0  0  0  0  0
    2.0526    2.8104    4.8606 C   0  0  0  0  0  0  0  0  0  0  0  0
    2.3799    1.5250    5.1792 C   0  0  0  0  0  0  0  0  0  0  0  0
    3.7591    0.6175    5.5423 S   0  0  0  0  0  0  0  0  0  0  0  0
    2.9118   -0.8459    5.2661 C   0  0  0  0  0  0  0  0  0  0  0  0
    3.3168   -2.1772    5.0838 C   0  0  0  0  0  0  0  0  0  0  0  0
    4.6348   -2.7184    5.5190 C   0  0  0  0  0  0  0  0  0  0  0  0
    4.7076   -3.9789    6.1279 C   0  0  0  0  0  0  0  0  0  0  0  0
    5.9156   -4.4358    6.6693 C   0  0  0  0  0  0  0  0  0  0  0  0
    7.0534   -3.6331    6.6187 C   0  0  0  0  0  0  0  0  0  0  0  0
    7.0097   -2.3902    5.9767 C   0  0  0  0  0  0  0  0  0  0  0  0
    8.2278   -1.5033    5.9520 C   0  0  0  0  0  0  0  0  0  0  0  0
    8.2802   -0.6227    7.1983 C   0  0  0  0  0  0  0  0  0  0  0  0
    5.8041   -1.9450    5.4142 C   0  0  0  0  0  0  0  0  0  0  0  0
    2.2491   -2.9460    4.5622 C   0  0  0  0  0  0  0  0  0  0  0  0
    0.8635   -1.9702    4.3657 S   0  0  0  0  0  0  0  0  0  0  0  0
    1.6020   -0.5879    4.9379 C   0  0  0  0  0  0  0  0  0  0  0  0
    1.3075    0.7606    4.8903 C   0  0  0  0  0  0  0  0  0  0  0  0
    0.2513    1.4667    4.4176 N   0  0  0  0  0  0  0  0  0  0  0  0
    0.7504    2.7459    4.3338 C   0  0  0  0  0  0  0  0  0  0  0  0
    0.1804    3.9350    3.7944 C   0  0  0  0  0  0  0  0  0  0  0  0
   -0.8403    4.0937    2.8889 N   0  0  0  0  0  0  0  0  0  0  0  0
   -0.8333    5.4287    2.6261 C   0  0  0  0  0  0  0  0  0  0  0  0
   -1.3276    6.1696    1.5553 C   0  0  0  0  0  0  0  0  0  0  0  0
   -2.3404    5.8737    0.2543 S   0  0  0  0  0  0  0  0  0  0  0  0
   -1.3971    3.0908    1.9718 C   0  0  0  0  0  0  0  0  0  0  0  0
   -2.9067    2.9571    2.1637 C   0  0  0  0  0  0  0  0  0  0  0  0
   -1.1409    1.0202    4.5964 C   0  0  0  0  0  0  0  0  0  0  0  0
   -1.8804    1.8816    5.6243 C   0  0  0  0  0  0  0  0  0  0  0  0
    2.3471   -4.2329    3.8557 C   0  0  0  0  0  0  0  0  0  0  0  0
    2.6844   -4.2962    2.4879 C   0  0  0  0  0  0  0  0  0  0  0  0
    3.7992   -3.5900    1.9093 N   0  0  0  0  0  0  0  0  0  0  0  0
    5.1420   -3.9080    2.3638 C   0  0  0  0  0  0  0  0  0  0  0  0
    6.1721   -2.9460    2.2986 C   0  0  0  0  0  0  0  0  0  0  0  0
    7.4531   -3.2442    2.7768 C   0  0  0  0  0  0  0  0  0  0  0  0
    7.7177   -4.4837    3.3689 C   0  0  0  0  0  0  0  0  0  0  0  0
    9.0811   -4.7882    3.9210 C   0  0  0  0  0  0  0  0  0  0  0  0
    6.7101   -5.4564    3.4114 C   0  0  0  0  0  0  0  0  0  0  0  0
    5.4366   -5.1708    2.9134 C   0  0  0  0  0  0  0  0  0  0  0  0
    3.5729   -2.6418    0.8413 C   0  0  0  0  0  0  0  0  0  0  0  0
    2.5531   -1.6831    0.9470 C   0  0  0  0  0  0  0  0  0  0  0  0
    2.4106   -0.6860   -0.0211 C   0  0  0  0  0  0  0  0  0  0  0  0
    3.2939   -0.6219   -1.1067 C   0  0  0  0  0  0  0  0  0  0  0  0
    3.1635    0.4867   -2.1091 C   0  0  0  0  0  0  0  0  0  0  0  0
    4.2809   -1.6102   -1.2499 C   0  0  0  0  0  0  0  0  0  0  0  0
    4.4100   -2.6213   -0.2894 C   0  0  0  0  0  0  0  0  0  0  0  0
    2.0480   -5.3595    1.8548 C   0  0  0  0  0  0  0  0  0  0  0  0
    1.9337   -5.9063    0.2707 S   0  0  0  0  0  0  0  0  0  0  0  0
    0.9193   -7.2360    0.6518 C   0  0  0  0  0  0  0  0  0  0  0  0
    0.6688   -7.2177    2.0351 C   0  0  0  0  0  0  0  0  0  0  0  0
    0.1330   -8.3328    2.7615 N   0  0  0  0  0  0  0  0  0  0  0  0
   -1.2458   -8.3704    3.1938 C   0  0  0  0  0  0  0  0  0  0  0  0
   -1.8607   -9.6036    3.4805 C   0  0  0  0  0  0  0  0  0  0  0  0
   -3.1784   -9.6550    3.9345 C   0  0  0  0  0  0  0  0  0  0  0  0
   -3.9099   -8.4702    4.1193 C   0  0  0  0  0  0  0  0  0  0  0  0
   -5.3369   -8.5264    4.5820 C   0  0  0  0  0  0  0  0  0  0  0  0
   -3.3180   -7.2388    3.8025 C   0  0  0  0  0  0  0  0  0  0  0  0
   -1.9983   -7.1888    3.3393 C   0  0  0  0  0  0  0  0  0  0  0  0
    1.0819   -9.3072    3.2330 C   0  0  0  0  0  0  0  0  0  0  0  0
    1.2707   -9.4960    4.6100 C   0  0  0  0  0  0  0  0  0  0  0  0
    2.2768  -10.3495    5.0730 C   0  0  0  0  0  0  0  0  0  0  0  0
    3.1111  -11.0176    4.1637 C   0  0  0  0  0  0  0  0  0  0  0  0
    4.1977  -11.9303    4.6516 C   0  0  0  0  0  0  0  0  0  0  0  0
    2.9028  -10.8532    2.7859 C   0  0  0  0  0  0  0  0  0  0  0  0
    1.8981   -9.9967    2.3242 C   0  0  0  0  0  0  0  0  0  0  0  0
    1.3040   -6.1513    2.6621 C   0  0  0  0  0  0  0  0  0  0  0  0
    1.3043   -5.5323    4.2218 S   0  0  0  0  0  0  0  0  0  0  0  0
    0.1792   -8.1287   -0.2771 C   0  0  0  0  0  0  0  0  0  0  0  0
    0.4162   -8.3537   -1.5852 C   0  0  0  0  0  0  0  0  0  0  0  0
    1.4850   -7.7905   -2.4234 C   0  0  0  0  0  0  0  0  0  0  0  0
    2.6434   -7.4731   -2.0481 O   0  0  0  0  0  0  0  0  0  0  0  0
    1.0319   -7.7853   -3.8036 C   0  0  0  0  0  0  0  0  0  0  0  0
    1.6755   -7.1932   -4.9248 C   0  0  0  0  0  0  0  0  0  0  0  0
    0.9194   -7.2189   -6.0866 C   0  0  0  0  0  0  0  0  0  0  0  0
   -0.3975   -7.7792   -6.1412 C   0  0  0  0  0  0  0  0  0  0  0  0
   -1.0176   -8.3784   -5.0585 C   0  0  0  0  0  0  0  0  0  0  0  0
   -0.2396   -8.4016   -3.8690 C   0  0  0  0  0  0  0  0  0  0  0  0
   -0.5780   -8.9482   -2.5343 C   0  0  0  0  0  0  0  0  0  0  0  0
   -1.4111   -9.9838   -2.2797 C   0  0  0  0  0  0  0  0  0  0  0  0
   -1.3985  -10.6792   -1.0163 C   0  0  0  0  0  0  0  0  0  0  0  0
   -1.3876  -11.2472   -0.0049 N   0  0  0  0  0  0  0  0  0  0  0  0
   -2.2326  -10.5742   -3.2996 C   0  0  0  0  0  0  0  0  0  0  0  0
   -2.9152  -11.0518   -4.1043 N   0  0  0  0  0  0  0  0  0  0  0  0
   -0.5264   -7.3892   -7.5834 C   0  0  0  0  0  0  0  0  0  0  0  0
   -0.4241   -8.5241   -8.6459 C   0  0  0  0  0  0  0  0  0  0  0  0
    0.4844   -9.6223   -8.1416 C   0  0  0  0  0  0  0  0  0  0  0  0
    1.7145   -9.1097   -8.0999 C   0  0  0  0  0  0  0  0  0  0  0  0
    1.6059   -7.6824   -8.5865 C   0  0  0  0  0  0  0  0  0  0  0  0
    0.5211   -7.8666   -9.6366 C   0  0  0  0  0  0  0  0  0  0  0  0
    0.8293   -6.8293   -7.5370 C   0  0  0  0  0  0  0  0  0  0  0  0
   -3.5036    6.9333   -6.6301 H   0  0  0  0  0  0  0  0  0  0  0  0
   -8.1875    6.2465   -2.6232 H   0  0  0  0  0  0  0  0  0  0  0  0
   -5.3822    2.2901   -4.1970 H   0  0  0  0  0  0  0  0  0  0  0  0
   -7.9651    1.3190   -2.0728 H   0  0  0  0  0  0  0  0  0  0  0  0
   -5.5236    1.3251   -0.7574 H   0  0  0  0  0  0  0  0  0  0  0  0
   -7.2321    0.4550    1.0642 H   0  0  0  0  0  0  0  0  0  0  0  0
   -8.6638    2.4829    1.8859 H   0  0  0  0  0  0  0  0  0  0  0  0
   -7.8835    4.6439    0.5688 H   0  0  0  0  0  0  0  0  0  0  0  0
   -5.6065    3.3404    0.9780 H   0  0  0  0  0  0  0  0  0  0  0  0
   -5.6115    4.0048   -0.7131 H   0  0  0  0  0  0  0  0  0  0  0  0
   -9.2976    3.1618   -1.3234 H   0  0  0  0  0  0  0  0  0  0  0  0
   -3.0556    9.8320    0.2847 H   0  0  0  0  0  0  0  0  0  0  0  0
   -4.2171    8.4271    0.3836 H   0  0  0  0  0  0  0  0  0  0  0  0
   -5.1558   10.3162    1.5924 H   0  0  0  0  0  0  0  0  0  0  0  0
   -4.9003   11.4271    0.1844 H   0  0  0  0  0  0  0  0  0  0  0  0
   -6.1066   10.0791    0.0712 H   0  0  0  0  0  0  0  0  0  0  0  0
   -3.7470   10.8050   -5.0007 H   0  0  0  0  0  0  0  0  0  0  0  0
   -4.3608   11.2331   -3.3520 H   0  0  0  0  0  0  0  0  0  0  0  0
   -5.5729   12.4682   -5.1624 H   0  0  0  0  0  0  0  0  0  0  0  0
   -6.6800   11.3651   -4.2552 H   0  0  0  0  0  0  0  0  0  0  0  0
   -6.0793   10.8912   -5.8934 H   0  0  0  0  0  0  0  0  0  0  0  0
   -0.8338   10.3210    1.6832 H   0  0  0  0  0  0  0  0  0  0  0  0
    0.0782   12.5018    0.9818 H   0  0  0  0  0  0  0  0  0  0  0  0
    1.0249   12.7904   -1.2746 H   0  0  0  0  0  0  0  0  0  0  0  0
    1.1759   11.9296   -3.6008 H   0  0  0  0  0  0  0  0  0  0  0  0
    0.8914   10.1954   -3.9522 H   0  0  0  0  0  0  0  0  0  0  0  0
    3.3029   11.3216   -2.3725 H   0  0  0  0  0  0  0  0  0  0  0  0
    3.0164    9.5825   -2.7830 H   0  0  0  0  0  0  0  0  0  0  0  0
    3.3163   10.7871   -4.0951 H   0  0  0  0  0  0  0  0  0  0  0  0
    0.1979    8.6572   -2.1589 H   0  0  0  0  0  0  0  0  0  0  0  0
    3.8255   -4.6012    6.2331 H   0  0  0  0  0  0  0  0  0  0  0  0
    5.9538   -5.3994    7.1605 H   0  0  0  0  0  0  0  0  0  0  0  0
    7.9717   -3.9857    7.0737 H   0  0  0  0  0  0  0  0  0  0  0  0
    9.1514   -2.1203    5.9101 H   0  0  0  0  0  0  0  0  0  0  0  0
    8.2194   -0.8547    5.0480 H   0  0  0  0  0  0  0  0  0  0  0  0
    8.2697   -1.2530    8.1137 H   0  0  0  0  0  0  0  0  0  0  0  0
    9.2179   -0.0209    7.1967 H   0  0  0  0  0  0  0  0  0  0  0  0
    7.4111    0.0698    7.2192 H   0  0  0  0  0  0  0  0  0  0  0  0
    5.7916   -1.0046    4.8868 H   0  0  0  0  0  0  0  0  0  0  0  0
   -1.1921    3.3921    0.9243 H   0  0  0  0  0  0  0  0  0  0  0  0
   -0.8711    2.1226    2.0709 H   0  0  0  0  0  0  0  0  0  0  0  0
   -3.3087    2.2171    1.4396 H   0  0  0  0  0  0  0  0  0  0  0  0
   -3.1608    2.6258    3.1890 H   0  0  0  0  0  0  0  0  0  0  0  0
   -3.4076    3.9294    2.0052 H   0  0  0  0  0  0  0  0  0  0  0  0
   -1.6833    0.9731    3.6408 H   0  0  0  0  0  0  0  0  0  0  0  0
   -1.1598   -0.0221    4.9796 H   0  0  0  0  0  0  0  0  0  0  0  0
   -2.9051    1.4759    5.7787 H   0  0  0  0  0  0  0  0  0  0  0  0
   -1.3348    1.8719    6.5922 H   0  0  0  0  0  0  0  0  0  0  0  0
   -1.9613    2.9314    5.2711 H   0  0  0  0  0  0  0  0  0  0  0  0
    5.9834   -1.9593    1.9041 H   0  0  0  0  0  0  0  0  0  0  0  0
    8.2281   -2.4894    2.7213 H   0  0  0  0  0  0  0  0  0  0  0  0
    9.0008   -5.4773    4.7903 H   0  0  0  0  0  0  0  0  0  0  0  0
    9.5761   -3.8596    4.2715 H   0  0  0  0  0  0  0  0  0  0  0  0
    9.7054   -5.2589    3.1357 H   0  0  0  0  0  0  0  0  0  0  0  0
    6.9062   -6.4316    3.8446 H   0  0  0  0  0  0  0  0  0  0  0  0
    4.6816   -5.9491    2.9633 H   0  0  0  0  0  0  0  0  0  0  0  0
    1.9017   -1.6748    1.8058 H   0  0  0  0  0  0  0  0  0  0  0  0
    1.6391    0.0668    0.1047 H   0  0  0  0  0  0  0  0  0  0  0  0
    4.0586    0.5396   -2.7661 H   0  0  0  0  0  0  0  0  0  0  0  0
    2.2679    0.3200   -2.7383 H   0  0  0  0  0  0  0  0  0  0  0  0
    3.0695    1.4636   -1.5837 H   0  0  0  0  0  0  0  0  0  0  0  0
    4.9581   -1.5937   -2.0940 H   0  0  0  0  0  0  0  0  0  0  0  0
    5.1819   -3.3707   -0.4127 H   0  0  0  0  0  0  0  0  0  0  0  0
   -1.3218  -10.5340    3.3426 H   0  0  0  0  0  0  0  0  0  0  0  0
   -3.6348  -10.6185    4.1368 H   0  0  0  0  0  0  0  0  0  0  0  0
   -5.5836   -7.6304    5.1920 H   0  0  0  0  0  0  0  0  0  0  0  0
   -6.0100   -8.5588    3.6986 H   0  0  0  0  0  0  0  0  0  0  0  0
   -5.5128   -9.4274    5.2070 H   0  0  0  0  0  0  0  0  0  0  0  0
   -3.8795   -6.3186    3.9115 H   0  0  0  0  0  0  0  0  0  0  0  0
   -1.5658   -6.2268    3.1165 H   0  0  0  0  0  0  0  0  0  0  0  0
    0.6555   -8.9571    5.3237 H   0  0  0  0  0  0  0  0  0  0  0  0
    2.4171  -10.4718    6.1394 H   0  0  0  0  0  0  0  0  0  0  0  0
    5.1184  -11.7886    4.0473 H   0  0  0  0  0  0  0  0  0  0  0  0
    4.4522  -11.7240    5.7139 H   0  0  0  0  0  0  0  0  0  0  0  0
    3.8693  -12.9863    4.5572 H   0  0  0  0  0  0  0  0  0  0  0  0
    3.5286  -11.3708    2.0690 H   0  0  0  0  0  0  0  0  0  0  0  0
    1.7650   -9.8655    1.2581 H   0  0  0  0  0  0  0  0  0  0  0  0
   -0.7277   -8.5304    0.1411 H   0  0  0  0  0  0  0  0  0  0  0  0
    2.6477   -6.7231   -4.8729 H   0  0  0  0  0  0  0  0  0  0  0  0
   -2.0214   -8.7572   -5.1308 H   0  0  0  0  0  0  0  0  0  0  0  0
   -1.3135   -6.6292   -7.7815 H   0  0  0  0  0  0  0  0  0  0  0  0
   -1.3945   -8.8751   -9.0665 H   0  0  0  0  0  0  0  0  0  0  0  0
    0.2101  -10.6465   -7.9184 H   0  0  0  0  0  0  0  0  0  0  0  0
    2.6194   -9.6458   -7.8350 H   0  0  0  0  0  0  0  0  0  0  0  0
    2.5536   -7.2439   -8.9651 H   0  0  0  0  0  0  0  0  0  0  0  0
    0.1226   -6.9048  -10.0589 H   0  0  0  0  0  0  0  0  0  0  0  0
    0.8323   -8.5472  -10.4691 H   0  0  0  0  0  0  0  0  0  0  0  0
    0.8642   -5.7311   -7.7131 H   0  0  0  0  0  0  0  0  0  0  0  0
  1  2  2  3
  2  3  1  0
  3  4  2  0
  3  5  1  0
  5  6  2  0
  6  7  1  0
  7  8  2  0
  8  9  1  0
  9 10  2  0
 10 11  1  0
 11 12  2  3
 12 13  1  0
 13 14  3  0
 12 15  1  0
 15 16  3  0
  8 17  1  0
 17 18  1  0
 18 19  1  0
 19 20  2  0
 20 21  1  0
 21 22  1  0
 21 23  1  0
  1 24  1  0
 24 25  1  0
 25 26  1  0
 26 27  2  0
 27 28  1  0
 28 29  1  0
 26 30  1  0
 30 31  2  0
 31 32  1  0
 32 33  1  0
 33 34  1  0
 31 35  1  0
 35 36  1  0
 36 37  1  0
 37 38  1  0
 30 39  1  0
 39 40  2  0
 40 41  1  0
 41 42  2  0
 42 43  1  0
 43 44  2  0
 44 45  1  0
 45 46  1  0
 46 47  1  0
 45 48  2  0
 40 49  1  0
 49 50  1  0
 50 51  1  0
 51 52  1  0
 52 53  1  0
 53 54  1  0
 54 55  2  0
 55 56  1  0
 56 57  1  0
 54 58  1  0
 58 59  1  0
 59 60  1  0
 60 61  1  0
 61 62  1  0
 62 63  1  0
 63 64  2  0
 64 65  1  0
 65 66  2  0
 66 67  1  0
 67 68  1  0
 68 69  1  0
 67 70  2  0
 62 71  2  0
 71 72  1  0
 72 73  1  0
 73 74  1  0
 74 75  1  0
 75 76  1  0
 76 77  1  0
 77 78  1  0
 78 79  1  0
 79 80  1  0
 80 81  1  0
 78 82  1  0
 82 83  1  0
 75 84  1  0
 84 85  1  0
 71 86  1  0
 86 87  2  0
 87 88  1  0
 88 89  1  0
 89 90  2  0
 90 91  1  0
 91 92  2  0
 92 93  1  0
 92 94  1  0
 94 95  2  0
 88 96  1  0
 96 97  2  0
 97 98  1  0
 98 99  2  0
 99100  1  0
 99101  1  0
101102  2  0
 87103  1  0
103104  1  0
104105  1  0
105106  2  0
106107  1  0
107108  1  0
108109  2  0
109110  1  0
110111  2  0
111112  1  0
111113  1  0
113114  2  0
107115  1  0
115116  2  0
116117  1  0
117118  2  0
118119  1  0
118120  1  0
120121  2  0
106122  1  0
122123  1  0
105124  1  0
124125  2  3
125126  1  0
126127  2  0
126128  1  0
128129  2  0
129130  1  0
130131  2  0
131132  1  0
132133  2  0
133134  1  0
134135  2  3
135136  1  0
136137  3  0
135138  1  0
138139  3  0
131140  1  0
140141  1  0
141142  1  0
142143  2  0
143144  1  0
144145  1  0
144146  1  0
 11  2  1  0
 23 17  1  0
 35 24  2  0
 81 39  1  0
123 86  1  0
134125  1  0
146140  1  0
 10  5  1  0
 22 18  1  0
 29 25  2  0
 48 41  1  0
 80 49  2  0
 95 89  1  0
102 96  1  0
122103  2  0
133128  1  0
145141  1  0
 23  7  1  0
 79 51  2  0
114108  1  0
121115  1  0
146130  1  0
 77 52  2  0
 57 53  2  0
 76 58  2  0
 74 59  2  0
 73 61  2  0
 70 63  1  0
  1147  1  0
  6148  1  0
  9149  1  0
 17150  1  0
 18151  1  0
 19152  1  0
 20153  1  0
 21154  1  0
 22155  1  0
 22156  1  0
 23157  1  0
 33158  1  0
 33159  1  0
 34160  1  0
 34161  1  0
 34162  1  0
 37163  1  0
 37164  1  0
 38165  1  0
 38166  1  0
 38167  1  0
 42168  1  0
 43169  1  0
 44170  1  0
 46171  1  0
 46172  1  0
 47173  1  0
 47174  1  0
 47175  1  0
 48176  1  0
 64177  1  0
 65178  1  0
 66179  1  0
 68180  1  0
 68181  1  0
 69182  1  0
 69183  1  0
 69184  1  0
 70185  1  0
 82186  1  0
 82187  1  0
 83188  1  0
 83189  1  0
 83190  1  0
 84191  1  0
 84192  1  0
 85193  1  0
 85194  1  0
 85195  1  0
 90196  1  0
 91197  1  0
 93198  1  0
 93199  1  0
 93200  1  0
 94201  1  0
 95202  1  0
 97203  1  0
 98204  1  0
100205  1  0
100206  1  0
100207  1  0
101208  1  0
102209  1  0
109210  1  0
110211  1  0
112212  1  0
112213  1  0
112214  1  0
113215  1  0
114216  1  0
116217  1  0
117218  1  0
119219  1  0
119220  1  0
119221  1  0
120222  1  0
121223  1  0
124224  1  0
129225  1  0
132226  1  0
140227  1  0
141228  1  0
142229  1  0
143230  1  0
144231  1  0
145232  1  0
145233  1  0
146234  1  0
M  END

