
     RDKit          3D

183208  0  0  0  0  0  0  0  0999 V2000
   -1.8209    5.5325   -6.3850 C   0  0  0  0  0  0  0  0  0  0  0  0
   -0.7465    5.9305   -5.6761 C   0  0  0  0  0  0  0  0  0  0  0  0
   -0.6357    5.8714   -4.2105 C   0  0  0  0  0  0  0  0  0  0  0  0
   -1.5883    5.7573   -3.3911 O   0  0  0  0  0  0  0  0  0  0  0  0
    0.7568    5.9684   -3.8465 C   0  0  0  0  0  0  0  0  0  0  0  0
    1.3083    5.8300   -2.5523 C   0  0  0  0  0  0  0  0  0  0  0  0
    2.6918    5.8466   -2.5315 C   0  0  0  0  0  0  0  0  0  0  0  0
    3.4911    5.9771   -3.7129 C   0  0  0  0  0  0  0  0  0  0  0  0
    2.9545    6.1161   -4.9843 C   0  0  0  0  0  0  0  0  0  0  0  0
    1.5326    6.1416   -5.0240 C   0  0  0  0  0  0  0  0  0  0  0  0
    0.6160    6.2603   -6.1959 C   0  0  0  0  0  0  0  0  0  0  0  0
    0.9188    6.7886   -7.4100 C   0  0  0  0  0  0  0  0  0  0  0  0
   -0.0788    7.0348   -8.4192 C   0  0  0  0  0  0  0  0  0  0  0  0
   -0.8651    7.2401   -9.2456 N   0  0  0  0  0  0  0  0  0  0  0  0
    2.2342    7.2745   -7.7310 C   0  0  0  0  0  0  0  0  0  0  0  0
    3.2845    7.6773   -8.0007 N   0  0  0  0  0  0  0  0  0  0  0  0
    4.7460    5.8764   -2.8945 C   0  0  0  0  0  0  0  0  0  0  0  0
    5.5623    7.1819   -2.6594 C   0  0  0  0  0  0  0  0  0  0  0  0
    4.6370    8.3772   -2.6658 C   0  0  0  0  0  0  0  0  0  0  0  0
    3.8819    8.2790   -1.5707 C   0  0  0  0  0  0  0  0  0  0  0  0
    4.3202    7.0235   -0.8514 C   0  0  0  0  0  0  0  0  0  0  0  0
    5.8045    7.0807   -1.1618 C   0  0  0  0  0  0  0  0  0  0  0  0
    3.9253    5.7647   -1.6821 C   0  0  0  0  0  0  0  0  0  0  0  0
   -2.9977    4.9472   -5.7335 C   0  0  0  0  0  0  0  0  0  0  0  0
   -2.9275    3.6143   -5.2859 C   0  0  0  0  0  0  0  0  0  0  0  0
   -3.9638    3.1237   -4.5038 C   0  0  0  0  0  0  0  0  0  0  0  0
   -4.0187    1.8953   -3.7283 C   0  0  0  0  0  0  0  0  0  0  0  0
   -3.1789    0.9518   -3.7403 O   0  0  0  0  0  0  0  0  0  0  0  0
   -5.1913    2.0018   -2.8735 C   0  0  0  0  0  0  0  0  0  0  0  0
   -5.8329    3.1990   -3.1461 C   0  0  0  0  0  0  0  0  0  0  0  0
   -5.0570    3.9105   -4.1655 C   0  0  0  0  0  0  0  0  0  0  0  0
   -5.1649    5.2273   -4.6191 C   0  0  0  0  0  0  0  0  0  0  0  0
   -4.1281    5.7459   -5.4182 C   0  0  0  0  0  0  0  0  0  0  0  0
   -6.9292    3.6136   -2.3911 C   0  0  0  0  0  0  0  0  0  0  0  0
   -7.3269    2.8133   -1.3029 C   0  0  0  0  0  0  0  0  0  0  0  0
   -6.5882    1.6514   -0.9497 C   0  0  0  0  0  0  0  0  0  0  0  0
   -5.5377    1.2200   -1.7857 C   0  0  0  0  0  0  0  0  0  0  0  0
   -6.8060    0.9496    0.3420 C   0  0  0  0  0  0  0  0  0  0  0  0
   -7.1735    1.5289    1.5793 C   0  0  0  0  0  0  0  0  0  0  0  0
   -7.2976    2.9777    1.8255 C   0  0  0  0  0  0  0  0  0  0  0  0
   -8.4514    3.4942    2.4354 C   0  0  0  0  0  0  0  0  0  0  0  0
   -8.5857    4.8719    2.6386 C   0  0  0  0  0  0  0  0  0  0  0  0
   -7.5648    5.7410    2.2445 C   0  0  0  0  0  0  0  0  0  0  0  0
   -6.3886    5.2356    1.6656 C   0  0  0  0  0  0  0  0  0  0  0  0
   -5.3015    6.1745    1.2090 C   0  0  0  0  0  0  0  0  0  0  0  0
   -5.5061    6.5693   -0.2510 C   0  0  0  0  0  0  0  0  0  0  0  0
   -6.2614    3.8536    1.4569 C   0  0  0  0  0  0  0  0  0  0  0  0
   -7.0548    0.6052    2.6261 C   0  0  0  0  0  0  0  0  0  0  0  0
   -6.9804    0.8249    4.3089 S   0  0  0  0  0  0  0  0  0  0  0  0
   -6.3245   -0.7233    4.5484 C   0  0  0  0  0  0  0  0  0  0  0  0
   -5.4104   -1.1894    5.4524 C   0  0  0  0  0  0  0  0  0  0  0  0
   -4.9632   -0.6069    6.6485 C   0  0  0  0  0  0  0  0  0  0  0  0
   -3.7404   -1.0621    7.2290 C   0  0  0  0  0  0  0  0  0  0  0  0
   -3.3179   -0.4362    8.3542 N   0  0  0  0  0  0  0  0  0  0  0  0
   -4.5354    0.6713    8.5265 S   0  0  0  0  0  0  0  0  0  0  0  0
   -5.5856    0.4245    7.2686 N   0  0  0  0  0  0  0  0  0  0  0  0
   -3.0560   -2.1098    6.6066 C   0  0  0  0  0  0  0  0  0  0  0  0
   -1.8478   -2.6913    6.8669 C   0  0  0  0  0  0  0  0  0  0  0  0
   -0.4185   -2.1524    7.6082 S   0  0  0  0  0  0  0  0  0  0  0  0
    0.5331   -3.1330    6.5900 C   0  0  0  0  0  0  0  0  0  0  0  0
    1.8892   -3.0506    6.2478 C   0  0  0  0  0  0  0  0  0  0  0  0
    2.9024   -2.3435    7.0573 C   0  0  0  0  0  0  0  0  0  0  0  0
    3.7527   -1.3859    6.4761 C   0  0  0  0  0  0  0  0  0  0  0  0
    4.7323   -0.7534    7.2496 C   0  0  0  0  0  0  0  0  0  0  0  0
    4.8710   -1.0744    8.6023 C   0  0  0  0  0  0  0  0  0  0  0  0
    4.0300   -2.0288    9.1945 C   0  0  0  0  0  0  0  0  0  0  0  0
    4.1752   -2.3533   10.6553 C   0  0  0  0  0  0  0  0  0  0  0  0
    3.3314   -1.4054   11.5030 C   0  0  0  0  0  0  0  0  0  0  0  0
    3.0338   -2.6475    8.4216 C   0  0  0  0  0  0  0  0  0  0  0  0
    2.1302   -3.6653    5.0068 C   0  0  0  0  0  0  0  0  0  0  0  0
    0.6713   -4.2470    4.3622 S   0  0  0  0  0  0  0  0  0  0  0  0
   -0.2549   -3.8056    5.6810 C   0  0  0  0  0  0  0  0  0  0  0  0
   -1.6183   -3.5867    5.8594 C   0  0  0  0  0  0  0  0  0  0  0  0
   -2.6444   -3.6563    4.9707 N   0  0  0  0  0  0  0  0  0  0  0  0
   -3.5009   -2.6848    5.4109 C   0  0  0  0  0  0  0  0  0  0  0  0
   -4.6626   -2.1651    4.7805 C   0  0  0  0  0  0  0  0  0  0  0  0
   -5.0206   -2.2308    3.4521 N   0  0  0  0  0  0  0  0  0  0  0  0
   -6.0767   -1.3660    3.3627 C   0  0  0  0  0  0  0  0  0  0  0  0
   -6.5418   -0.6180    2.2764 C   0  0  0  0  0  0  0  0  0  0  0  0
   -6.2780   -0.6426    0.6285 S   0  0  0  0  0  0  0  0  0  0  0  0
   -4.1110   -2.5129    2.3341 C   0  0  0  0  0  0  0  0  0  0  0  0
   -4.6702   -3.5859    1.4002 C   0  0  0  0  0  0  0  0  0  0  0  0
   -3.1355   -4.9400    4.4374 C   0  0  0  0  0  0  0  0  0  0  0  0
   -2.2218   -5.5347    3.3724 C   0  0  0  0  0  0  0  0  0  0  0  0
    3.3658   -3.6060    4.2164 C   0  0  0  0  0  0  0  0  0  0  0  0
    3.3766   -2.8092    3.0581 C   0  0  0  0  0  0  0  0  0  0  0  0
    4.4486   -2.9202    2.1870 C   0  0  0  0  0  0  0  0  0  0  0  0
    4.5456   -2.4395    0.8195 C   0  0  0  0  0  0  0  0  0  0  0  0
    3.7527   -1.6502    0.2394 O   0  0  0  0  0  0  0  0  0  0  0  0
    5.6600   -3.1500    0.2128 C   0  0  0  0  0  0  0  0  0  0  0  0
    6.2423   -3.9672    1.1710 C   0  0  0  0  0  0  0  0  0  0  0  0
    5.4824   -3.8168    2.4190 C   0  0  0  0  0  0  0  0  0  0  0  0
    5.5134   -4.5931    3.5813 C   0  0  0  0  0  0  0  0  0  0  0  0
    4.4524   -4.4628    4.4988 C   0  0  0  0  0  0  0  0  0  0  0  0
    7.1778   -4.9402    0.8089 C   0  0  0  0  0  0  0  0  0  0  0  0
    7.4613   -5.1189   -0.5613 C   0  0  0  0  0  0  0  0  0  0  0  0
    6.7660   -4.3699   -1.5391 C   0  0  0  0  0  0  0  0  0  0  0  0
    5.9207   -3.3150   -1.1403 C   0  0  0  0  0  0  0  0  0  0  0  0
    6.7995   -4.7849   -2.9564 C   0  0  0  0  0  0  0  0  0  0  0  0
    5.6777   -4.9477   -3.6908 C   0  0  0  0  0  0  0  0  0  0  0  0
    5.6369   -4.7918   -5.1438 C   0  0  0  0  0  0  0  0  0  0  0  0
    6.6179   -4.8966   -5.9254 O   0  0  0  0  0  0  0  0  0  0  0  0
    4.2935   -4.3827   -5.5230 C   0  0  0  0  0  0  0  0  0  0  0  0
    3.8256   -4.0143   -6.8069 C   0  0  0  0  0  0  0  0  0  0  0  0
    2.5189   -3.5507   -6.8157 C   0  0  0  0  0  0  0  0  0  0  0  0
    1.7273   -3.4275   -5.6280 C   0  0  0  0  0  0  0  0  0  0  0  0
    2.1697   -3.8036   -4.3728 C   0  0  0  0  0  0  0  0  0  0  0  0
    3.4874   -4.3327   -4.3557 C   0  0  0  0  0  0  0  0  0  0  0  0
    4.2642   -4.8657   -3.2150 C   0  0  0  0  0  0  0  0  0  0  0  0
    3.7471   -5.5211   -2.1457 C   0  0  0  0  0  0  0  0  0  0  0  0
    2.3494   -5.4637   -1.8025 C   0  0  0  0  0  0  0  0  0  0  0  0
    1.2287   -5.4233   -1.5178 N   0  0  0  0  0  0  0  0  0  0  0  0
    4.5319   -6.4540   -1.3815 C   0  0  0  0  0  0  0  0  0  0  0  0
    5.1462   -7.2217   -0.7693 N   0  0  0  0  0  0  0  0  0  0  0  0
    0.5780   -2.8844   -6.4253 C   0  0  0  0  0  0  0  0  0  0  0  0
   -0.6434   -3.8238   -6.6596 C   0  0  0  0  0  0  0  0  0  0  0  0
   -0.1843   -5.2642   -6.6801 C   0  0  0  0  0  0  0  0  0  0  0  0
    0.5492   -5.4136   -7.7832 C   0  0  0  0  0  0  0  0  0  0  0  0
    0.5623   -4.0725   -8.4829 C   0  0  0  0  0  0  0  0  0  0  0  0
   -0.8510   -3.6220   -8.1500 C   0  0  0  0  0  0  0  0  0  0  0  0
    1.3795   -3.0380   -7.6468 C   0  0  0  0  0  0  0  0  0  0  0  0
   -1.7857    5.4567   -7.4602 H   0  0  0  0  0  0  0  0  0  0  0  0
    0.7098    5.6934   -1.6619 H   0  0  0  0  0  0  0  0  0  0  0  0
    3.5909    6.1632   -5.8547 H   0  0  0  0  0  0  0  0  0  0  0  0
    5.3576    4.9701   -3.0998 H   0  0  0  0  0  0  0  0  0  0  0  0
    6.4741    7.2942   -3.2849 H   0  0  0  0  0  0  0  0  0  0  0  0
    4.6324    9.2009   -3.3743 H   0  0  0  0  0  0  0  0  0  0  0  0
    3.1598    9.0109   -1.2301 H   0  0  0  0  0  0  0  0  0  0  0  0
    4.0589    6.9835    0.2265 H   0  0  0  0  0  0  0  0  0  0  0  0
    6.3169    7.9766   -0.7319 H   0  0  0  0  0  0  0  0  0  0  0  0
    6.3568    6.1558   -0.8640 H   0  0  0  0  0  0  0  0  0  0  0  0
    4.0433    4.7932   -1.1495 H   0  0  0  0  0  0  0  0  0  0  0  0
   -2.0464    3.0076   -5.4652 H   0  0  0  0  0  0  0  0  0  0  0  0
   -5.9935    5.8590   -4.3208 H   0  0  0  0  0  0  0  0  0  0  0  0
   -4.1689    6.7779   -5.7413 H   0  0  0  0  0  0  0  0  0  0  0  0
   -7.4388    4.5429   -2.6149 H   0  0  0  0  0  0  0  0  0  0  0  0
   -8.1725    3.1313   -0.7061 H   0  0  0  0  0  0  0  0  0  0  0  0
   -4.9337    0.3571   -1.5465 H   0  0  0  0  0  0  0  0  0  0  0  0
   -9.2576    2.8316    2.7329 H   0  0  0  0  0  0  0  0  0  0  0  0
   -9.4887    5.2641    3.0873 H   0  0  0  0  0  0  0  0  0  0  0  0
   -7.6867    6.8074    2.4009 H   0  0  0  0  0  0  0  0  0  0  0  0
   -5.2915    7.0871    1.8400 H   0  0  0  0  0  0  0  0  0  0  0  0
   -4.3058    5.6872    1.3170 H   0  0  0  0  0  0  0  0  0  0  0  0
   -6.5304    6.9774   -0.4045 H   0  0  0  0  0  0  0  0  0  0  0  0
   -4.7651    7.3445   -0.5351 H   0  0  0  0  0  0  0  0  0  0  0  0
   -5.3617    5.6830   -0.9115 H   0  0  0  0  0  0  0  0  0  0  0  0
   -5.3594    3.4617    1.0007 H   0  0  0  0  0  0  0  0  0  0  0  0
    3.6578   -1.1190    5.4305 H   0  0  0  0  0  0  0  0  0  0  0  0
    5.3831   -0.0136    6.8016 H   0  0  0  0  0  0  0  0  0  0  0  0
    5.6297   -0.5733    9.1890 H   0  0  0  0  0  0  0  0  0  0  0  0
    5.2423   -2.2653   10.9621 H   0  0  0  0  0  0  0  0  0  0  0  0
    3.8629   -3.4015   10.8540 H   0  0  0  0  0  0  0  0  0  0  0  0
    3.4617   -1.6515   12.5777 H   0  0  0  0  0  0  0  0  0  0  0  0
    2.2568   -1.5090   11.2432 H   0  0  0  0  0  0  0  0  0  0  0  0
    3.6513   -0.3531   11.3373 H   0  0  0  0  0  0  0  0  0  0  0  0
    2.3773   -3.3834    8.8747 H   0  0  0  0  0  0  0  0  0  0  0  0
   -3.1172   -2.8201    2.6904 H   0  0  0  0  0  0  0  0  0  0  0  0
   -3.9238   -1.5821    1.7592 H   0  0  0  0  0  0  0  0  0  0  0  0
   -5.6969   -3.3280    1.0629 H   0  0  0  0  0  0  0  0  0  0  0  0
   -4.0157   -3.6695    0.5075 H   0  0  0  0  0  0  0  0  0  0  0  0
   -4.7184   -4.5728    1.9021 H   0  0  0  0  0  0  0  0  0  0  0  0
   -4.1519   -4.8170    4.0233 H   0  0  0  0  0  0  0  0  0  0  0  0
   -3.2377   -5.6706    5.2714 H   0  0  0  0  0  0  0  0  0  0  0  0
   -1.3603   -6.0505    3.8466 H   0  0  0  0  0  0  0  0  0  0  0  0
   -2.7812   -6.2932    2.7863 H   0  0  0  0  0  0  0  0  0  0  0  0
   -1.8527   -4.7490    2.6778 H   0  0  0  0  0  0  0  0  0  0  0  0
    2.5277   -2.1843    2.7984 H   0  0  0  0  0  0  0  0  0  0  0  0
    6.2936   -5.3261    3.7402 H   0  0  0  0  0  0  0  0  0  0  0  0
    4.4359   -5.0919    5.3806 H   0  0  0  0  0  0  0  0  0  0  0  0
    7.6192   -5.5959    1.5504 H   0  0  0  0  0  0  0  0  0  0  0  0
    8.1302   -5.9164   -0.8620 H   0  0  0  0  0  0  0  0  0  0  0  0
    5.3757   -2.7293   -1.8678 H   0  0  0  0  0  0  0  0  0  0  0  0
    7.7697   -4.8448   -3.4349 H   0  0  0  0  0  0  0  0  0  0  0  0
    4.4414   -4.0583   -7.6963 H   0  0  0  0  0  0  0  0  0  0  0  0
    1.5547   -3.6726   -3.4966 H   0  0  0  0  0  0  0  0  0  0  0  0
    0.3155   -1.8289   -6.1889 H   0  0  0  0  0  0  0  0  0  0  0  0
   -1.5261   -3.6228   -6.0187 H   0  0  0  0  0  0  0  0  0  0  0  0
   -0.4350   -6.0452   -5.9681 H   0  0  0  0  0  0  0  0  0  0  0  0
    0.9926   -6.3393   -8.1287 H   0  0  0  0  0  0  0  0  0  0  0  0
    0.8051   -4.1133   -9.5656 H   0  0  0  0  0  0  0  0  0  0  0  0
   -1.0513   -2.5604   -8.4310 H   0  0  0  0  0  0  0  0  0  0  0  0
   -1.6430   -4.2833   -8.5854 H   0  0  0  0  0  0  0  0  0  0  0  0
    1.5888   -2.0765   -8.1678 H   0  0  0  0  0  0  0  0  0  0  0  0
  1  2  2  3
  2  3  1  0
  3  4  2  0
  3  5  1  0
  5  6  2  0
  6  7  1  0
  7  8  2  0
  8  9  1  0
  9 10  2  0
 10 11  1  0
 11 12  2  3
 12 13  1  0
 13 14  3  0
 12 15  1  0
 15 16  3  0
  8 17  1  0
 17 18  1  0
 18 19  1  0
 19 20  2  0
 20 21  1  0
 21 22  1  0
 21 23  1  0
  1 24  1  0
 24 25  2  0
 25 26  1  0
 26 27  1  0
 27 28  2  0
 27 29  1  0
 29 30  2  0
 30 31  1  0
 31 32  1  0
 32 33  2  0
 30 34  1  0
 34 35  2  0
 35 36  1  0
 36 37  2  0
 36 38  1  0
 38 39  2  0
 39 40  1  0
 40 41  2  0
 41 42  1  0
 42 43  2  0
 43 44  1  0
 44 45  1  0
 45 46  1  0
 44 47  2  0
 39 48  1  0
 48 49  1  0
 49 50  1  0
 50 51  1  0
 51 52  1  0
 52 53  1  0
 53 54  2  0
 54 55  1  0
 55 56  1  0
 53 57  1  0
 57 58  1  0
 58 59  1  0
 59 60  1  0
 60 61  1  0
 61 62  1  0
 62 63  2  0
 63 64  1  0
 64 65  2  0
 65 66  1  0
 66 67  1  0
 67 68  1  0
 66 69  2  0
 61 70  2  0
 70 71  1  0
 71 72  1  0
 72 73  1  0
 73 74  1  0
 74 75  1  0
 75 76  1  0
 76 77  1  0
 77 78  1  0
 78 79  1  0
 79 80  1  0
 77 81  1  0
 81 82  1  0
 74 83  1  0
 83 84  1  0
 70 85  1  0
 85 86  2  0
 86 87  1  0
 87 88  1  0
 88 89  2  0
 88 90  1  0
 90 91  2  0
 91 92  1  0
 92 93  1  0
 93 94  2  0
 91 95  1  0
 95 96  2  0
 96 97  1  0
 97 98  2  0
 97 99  1  0
 99100  2  3
100101  1  0
101102  2  0
101103  1  0
103104  2  0
104105  1  0
105106  2  0
106107  1  0
107108  2  0
108109  1  0
109110  2  3
110111  1  0
111112  3  0
110113  1  0
113114  3  0
106115  1  0
115116  1  0
116117  1  0
117118  2  0
118119  1  0
119120  1  0
119121  1  0
 11  2  1  0
 23 17  1  0
 33 24  1  0
 80 38  1  0
 94 85  1  0
109100  1  0
121115  1  0
 10  5  1  0
 22 18  1  0
 31 26  2  0
 47 40  1  0
 79 48  2  0
 92 87  2  0
108103  1  0
120116  1  0
 23  7  1  0
 37 29  1  0
 78 50  2  0
 98 90  1  0
121105  1  0
 76 51  2  0
 56 52  2  0
 75 57  2  0
 73 58  2  0
 72 60  2  0
 69 62  1  0
  1122  1  0
  6123  1  0
  9124  1  0
 17125  1  0
 18126  1  0
 19127  1  0
 20128  1  0
 21129  1  0
 22130  1  0
 22131  1  0
 23132  1  0
 25133  1  0
 32134  1  0
 33135  1  0
 34136  1  0
 35137  1  0
 37138  1  0
 41139  1  0
 42140  1  0
 43141  1  0
 45142  1  0
 45143  1  0
 46144  1  0
 46145  1  0
 46146  1  0
 47147  1  0
 63148  1  0
 64149  1  0
 65150  1  0
 67151  1  0
 67152  1  0
 68153  1  0
 68154  1  0
 68155  1  0
 69156  1  0
 81157  1  0
 81158  1  0
 82159  1  0
 82160  1  0
 82161  1  0
 83162  1  0
 83163  1  0
 84164  1  0
 84165  1  0
 84166  1  0
 86167  1  0
 93168  1  0
 94169  1  0
 95170  1  0
 96171  1  0
 98172  1  0
 99173  1  0
104174  1  0
107175  1  0
115176  1  0
116177  1  0
117178  1  0
118179  1  0
119180  1  0
120181  1  0
120182  1  0
121183  1  0
M  END

