
     RDKit          3D

170192  0  0  0  0  0  0  0  0999 V2000
   -5.2371   -7.8243    1.4948 C   0  0  0  0  0  0  0  0  0  0  0  0
   -5.4019   -8.8704    0.6701 C   0  0  0  0  0  0  0  0  0  0  0  0
   -4.3518   -9.8331    0.2919 C   0  0  0  0  0  0  0  0  0  0  0  0
   -3.1117   -9.6334    0.2900 O   0  0  0  0  0  0  0  0  0  0  0  0
   -4.9857  -11.0985   -0.0214 C   0  0  0  0  0  0  0  0  0  0  0  0
   -4.3398  -12.3442   -0.2125 C   0  0  0  0  0  0  0  0  0  0  0  0
   -5.2131  -13.4157   -0.2852 C   0  0  0  0  0  0  0  0  0  0  0  0
   -6.6335  -13.2814   -0.1761 C   0  0  0  0  0  0  0  0  0  0  0  0
   -7.2697  -12.0632    0.0125 C   0  0  0  0  0  0  0  0  0  0  0  0
   -6.3919  -10.9441    0.0625 C   0  0  0  0  0  0  0  0  0  0  0  0
   -6.7068   -9.5230    0.3593 C   0  0  0  0  0  0  0  0  0  0  0  0
   -7.8976   -8.8985    0.1735 C   0  0  0  0  0  0  0  0  0  0  0  0
   -8.0523   -7.4763    0.3283 C   0  0  0  0  0  0  0  0  0  0  0  0
   -8.2013   -6.3331    0.4507 N   0  0  0  0  0  0  0  0  0  0  0  0
   -9.0566   -9.5967   -0.3146 C   0  0  0  0  0  0  0  0  0  0  0  0
   -9.9926  -10.1544   -0.7116 N   0  0  0  0  0  0  0  0  0  0  0  0
   -6.8021  -14.7675   -0.2612 C   0  0  0  0  0  0  0  0  0  0  0  0
   -7.1462  -15.5357    1.0554 C   0  0  0  0  0  0  0  0  0  0  0  0
   -6.5551  -14.8173    2.2485 C   0  0  0  0  0  0  0  0  0  0  0  0
   -5.2282  -14.9423    2.1493 C   0  0  0  0  0  0  0  0  0  0  0  0
   -4.9606  -15.7414    0.8916 C   0  0  0  0  0  0  0  0  0  0  0  0
   -6.1546  -16.6806    0.9514 C   0  0  0  0  0  0  0  0  0  0  0  0
   -5.3424  -14.9061   -0.3704 C   0  0  0  0  0  0  0  0  0  0  0  0
   -3.9323   -7.3257    1.9573 C   0  0  0  0  0  0  0  0  0  0  0  0
   -2.9645   -6.8511    1.0437 C   0  0  0  0  0  0  0  0  0  0  0  0
   -1.8013   -6.2772    1.5567 C   0  0  0  0  0  0  0  0  0  0  0  0
   -0.7006   -5.6104    0.8666 C   0  0  0  0  0  0  0  0  0  0  0  0
   -0.5611   -5.4815   -0.3820 O   0  0  0  0  0  0  0  0  0  0  0  0
    0.1576   -5.0489    1.9022 C   0  0  0  0  0  0  0  0  0  0  0  0
   -0.3749   -5.3782    3.1364 C   0  0  0  0  0  0  0  0  0  0  0  0
   -1.5914   -6.1557    2.9223 C   0  0  0  0  0  0  0  0  0  0  0  0
   -2.5298   -6.6199    3.8402 C   0  0  0  0  0  0  0  0  0  0  0  0
   -3.7048   -7.2081    3.3491 C   0  0  0  0  0  0  0  0  0  0  0  0
    0.1691   -4.8753    4.3210 C   0  0  0  0  0  0  0  0  0  0  0  0
    1.2696   -4.0069    4.2320 C   0  0  0  0  0  0  0  0  0  0  0  0
    1.8097   -3.6655    2.9713 C   0  0  0  0  0  0  0  0  0  0  0  0
    1.2458   -4.1915    1.7917 C   0  0  0  0  0  0  0  0  0  0  0  0
    2.8981   -2.6839    2.8707 C   0  0  0  0  0  0  0  0  0  0  0  0
    4.1163   -2.8945    2.1924 C   0  0  0  0  0  0  0  0  0  0  0  0
    4.5520   -4.2092    1.6762 C   0  0  0  0  0  0  0  0  0  0  0  0
    4.5292   -5.3316    2.5205 C   0  0  0  0  0  0  0  0  0  0  0  0
    4.8889   -6.5889    2.0315 C   0  0  0  0  0  0  0  0  0  0  0  0
    5.2726   -6.7385    0.6978 C   0  0  0  0  0  0  0  0  0  0  0  0
    5.2931   -5.6272   -0.1633 C   0  0  0  0  0  0  0  0  0  0  0  0
    5.6772   -5.7915   -1.6029 C   0  0  0  0  0  0  0  0  0  0  0  0
    4.6106   -6.5666   -2.3766 C   0  0  0  0  0  0  0  0  0  0  0  0
    4.9205   -4.3661    0.3337 C   0  0  0  0  0  0  0  0  0  0  0  0
    4.7682   -1.6767    1.9570 C   0  0  0  0  0  0  0  0  0  0  0  0
    6.0649   -1.2181    0.9358 S   0  0  0  0  0  0  0  0  0  0  0  0
    5.6743    0.4260    1.1263 C   0  0  0  0  0  0  0  0  0  0  0  0
    5.8746    1.5973    0.4522 C   0  0  0  0  0  0  0  0  0  0  0  0
    6.8531    1.9868   -0.4683 C   0  0  0  0  0  0  0  0  0  0  0  0
    6.8069    3.3081   -1.0020 C   0  0  0  0  0  0  0  0  0  0  0  0
    7.7775    3.6503   -1.8830 N   0  0  0  0  0  0  0  0  0  0  0  0
    8.6492    2.2404   -1.8992 S   0  0  0  0  0  0  0  0  0  0  0  0
    7.8743    1.1915   -0.8759 N   0  0  0  0  0  0  0  0  0  0  0  0
    5.7319    4.1335   -0.6500 C   0  0  0  0  0  0  0  0  0  0  0  0
    5.3149    5.3294   -1.1717 C   0  0  0  0  0  0  0  0  0  0  0  0
    5.7831    6.4839   -2.3341 S   0  0  0  0  0  0  0  0  0  0  0  0
    4.2813    7.2932   -2.1933 C   0  0  0  0  0  0  0  0  0  0  0  0
    3.6956    8.4165   -2.8023 C   0  0  0  0  0  0  0  0  0  0  0  0
    4.3785    9.3222   -3.7575 C   0  0  0  0  0  0  0  0  0  0  0  0
    5.7032    9.7303   -3.5310 C   0  0  0  0  0  0  0  0  0  0  0  0
    6.3282   10.6253   -4.4017 C   0  0  0  0  0  0  0  0  0  0  0  0
    5.6264   11.1405   -5.4971 C   0  0  0  0  0  0  0  0  0  0  0  0
    4.2992   10.7580   -5.7284 C   0  0  0  0  0  0  0  0  0  0  0  0
    3.5478   11.3028   -6.9127 C   0  0  0  0  0  0  0  0  0  0  0  0
    3.8257   10.4726   -8.1643 C   0  0  0  0  0  0  0  0  0  0  0  0
    3.6918    9.8235   -4.8761 C   0  0  0  0  0  0  0  0  0  0  0  0
    2.3744    8.5786   -2.3428 C   0  0  0  0  0  0  0  0  0  0  0  0
    1.9777    7.3760   -1.2116 S   0  0  0  0  0  0  0  0  0  0  0  0
    3.4614    6.6260   -1.3145 C   0  0  0  0  0  0  0  0  0  0  0  0
    4.0538    5.5241   -0.7262 C   0  0  0  0  0  0  0  0  0  0  0  0
    3.5913    4.5207    0.0586 N   0  0  0  0  0  0  0  0  0  0  0  0
    4.6865    3.6998    0.1894 C   0  0  0  0  0  0  0  0  0  0  0  0
    4.8253    2.4486    0.8488 C   0  0  0  0  0  0  0  0  0  0  0  0
    4.0721    1.8562    1.8336 N   0  0  0  0  0  0  0  0  0  0  0  0
    4.5996    0.6160    1.9303 C   0  0  0  0  0  0  0  0  0  0  0  0
    4.0908   -0.5736    2.4212 C   0  0  0  0  0  0  0  0  0  0  0  0
    2.6372   -1.0201    3.1223 S   0  0  0  0  0  0  0  0  0  0  0  0
    3.1847    2.4328    2.8532 C   0  0  0  0  0  0  0  0  0  0  0  0
    3.7228    3.7538    3.4101 C   0  0  0  0  0  0  0  0  0  0  0  0
    2.1664    4.1889    0.2166 C   0  0  0  0  0  0  0  0  0  0  0  0
    1.7980    2.8828   -0.4885 C   0  0  0  0  0  0  0  0  0  0  0  0
    1.3917    9.6167   -2.6730 C   0  0  0  0  0  0  0  0  0  0  0  0
    0.2636    9.2033   -3.4033 C   0  0  0  0  0  0  0  0  0  0  0  0
   -0.9622    9.7950   -3.1255 C   0  0  0  0  0  0  0  0  0  0  0  0
   -2.2610    9.1410   -3.2520 C   0  0  0  0  0  0  0  0  0  0  0  0
   -2.5241    8.1475   -3.9843 O   0  0  0  0  0  0  0  0  0  0  0  0
   -3.1259    9.7125   -2.2355 C   0  0  0  0  0  0  0  0  0  0  0  0
   -2.4324   10.7324   -1.5966 C   0  0  0  0  0  0  0  0  0  0  0  0
   -1.0782   10.7906   -2.1621 C   0  0  0  0  0  0  0  0  0  0  0  0
    0.0619   11.3359   -1.5602 C   0  0  0  0  0  0  0  0  0  0  0  0
    1.3067   10.7460   -1.8293 C   0  0  0  0  0  0  0  0  0  0  0  0
   -2.8682   11.2358   -0.3670 C   0  0  0  0  0  0  0  0  0  0  0  0
   -3.9923   10.6476    0.2393 C   0  0  0  0  0  0  0  0  0  0  0  0
   -4.6421    9.5528   -0.3776 C   0  0  0  0  0  0  0  0  0  0  0  0
   -4.2309    9.1027   -1.6427 C   0  0  0  0  0  0  0  0  0  0  0  0
   -5.6206    8.7511    0.3721 C   0  0  0  0  0  0  0  0  0  0  0  0
   -5.2501    7.7862    1.2377 C   0  0  0  0  0  0  0  0  0  0  0  0
   -3.8901    7.5660    1.7548 C   0  0  0  0  0  0  0  0  0  0  0  0
   -2.8243    8.0639    1.3045 O   0  0  0  0  0  0  0  0  0  0  0  0
   -3.9763    6.6761    2.8919 C   0  0  0  0  0  0  0  0  0  0  0  0
   -2.9575    6.2862    3.7643 C   0  0  0  0  0  0  0  0  0  0  0  0
   -3.2954    5.4921    4.8682 C   0  0  0  0  0  0  0  0  0  0  0  0
   -4.6301    5.1264    5.0963 C   0  0  0  0  0  0  0  0  0  0  0  0
   -5.6420    5.5291    4.2059 C   0  0  0  0  0  0  0  0  0  0  0  0
   -5.2945    6.2933    3.0816 C   0  0  0  0  0  0  0  0  0  0  0  0
   -6.1407    6.8588    1.9948 C   0  0  0  0  0  0  0  0  0  0  0  0
   -7.3530    6.3898    1.5955 C   0  0  0  0  0  0  0  0  0  0  0  0
   -8.0471    5.3443    2.3008 C   0  0  0  0  0  0  0  0  0  0  0  0
   -8.6193    4.5036    2.8613 N   0  0  0  0  0  0  0  0  0  0  0  0
   -7.9717    6.7969    0.3598 C   0  0  0  0  0  0  0  0  0  0  0  0
   -8.4713    7.1180   -0.6314 N   0  0  0  0  0  0  0  0  0  0  0  0
   -6.1001   -7.3942    1.9731 H   0  0  0  0  0  0  0  0  0  0  0  0
   -3.2667  -12.4592   -0.2275 H   0  0  0  0  0  0  0  0  0  0  0  0
   -8.3346  -12.0138    0.1831 H   0  0  0  0  0  0  0  0  0  0  0  0
   -7.3562  -15.1067   -1.1620 H   0  0  0  0  0  0  0  0  0  0  0  0
   -8.2105  -15.8299    1.1686 H   0  0  0  0  0  0  0  0  0  0  0  0
   -7.0947  -14.3585    3.0723 H   0  0  0  0  0  0  0  0  0  0  0  0
   -4.5036  -14.5987    2.8799 H   0  0  0  0  0  0  0  0  0  0  0  0
   -3.9662  -16.2329    0.8486 H   0  0  0  0  0  0  0  0  0  0  0  0
   -6.2833  -17.2968    0.0280 H   0  0  0  0  0  0  0  0  0  0  0  0
   -6.1537  -17.3426    1.8510 H   0  0  0  0  0  0  0  0  0  0  0  0
   -5.0060  -15.3322   -1.3409 H   0  0  0  0  0  0  0  0  0  0  0  0
   -3.1372   -6.8804   -0.0270 H   0  0  0  0  0  0  0  0  0  0  0  0
   -2.3748   -6.5031    4.9051 H   0  0  0  0  0  0  0  0  0  0  0  0
   -4.4502   -7.5596    4.0532 H   0  0  0  0  0  0  0  0  0  0  0  0
   -0.2623   -5.1206    5.2827 H   0  0  0  0  0  0  0  0  0  0  0  0
    1.6968   -3.5983    5.1439 H   0  0  0  0  0  0  0  0  0  0  0  0
    1.6237   -3.9032    0.8142 H   0  0  0  0  0  0  0  0  0  0  0  0
    4.2322   -5.2393    3.5583 H   0  0  0  0  0  0  0  0  0  0  0  0
    4.8747   -7.4508    2.6870 H   0  0  0  0  0  0  0  0  0  0  0  0
    5.5491   -7.7237    0.3324 H   0  0  0  0  0  0  0  0  0  0  0  0
    6.6475   -6.3423   -1.6615 H   0  0  0  0  0  0  0  0  0  0  0  0
    5.8284   -4.8020   -2.0947 H   0  0  0  0  0  0  0  0  0  0  0  0
    4.5925   -7.6300   -2.0539 H   0  0  0  0  0  0  0  0  0  0  0  0
    3.6070   -6.1153   -2.2064 H   0  0  0  0  0  0  0  0  0  0  0  0
    4.8323   -6.5250   -3.4606 H   0  0  0  0  0  0  0  0  0  0  0  0
    4.8938   -3.5163   -0.3380 H   0  0  0  0  0  0  0  0  0  0  0  0
    6.2494    9.3657   -2.6713 H   0  0  0  0  0  0  0  0  0  0  0  0
    7.3514   10.9213   -4.2258 H   0  0  0  0  0  0  0  0  0  0  0  0
    6.1198   11.8400   -6.1553 H   0  0  0  0  0  0  0  0  0  0  0  0
    2.4519   11.3022   -6.7111 H   0  0  0  0  0  0  0  0  0  0  0  0
    3.8508   12.3585   -7.1008 H   0  0  0  0  0  0  0  0  0  0  0  0
    4.9159   10.4522   -8.3767 H   0  0  0  0  0  0  0  0  0  0  0  0
    3.3004   10.9189   -9.0301 H   0  0  0  0  0  0  0  0  0  0  0  0
    3.4614    9.4301   -8.0229 H   0  0  0  0  0  0  0  0  0  0  0  0
    2.6804    9.4947   -5.0862 H   0  0  0  0  0  0  0  0  0  0  0  0
    2.1437    2.5013    2.4828 H   0  0  0  0  0  0  0  0  0  0  0  0
    3.1326    1.7397    3.7201 H   0  0  0  0  0  0  0  0  0  0  0  0
    3.5815    4.5886    2.6980 H   0  0  0  0  0  0  0  0  0  0  0  0
    4.8092    3.6552    3.6405 H   0  0  0  0  0  0  0  0  0  0  0  0
    3.1794    4.0094    4.3462 H   0  0  0  0  0  0  0  0  0  0  0  0
    1.5286    4.9704   -0.2376 H   0  0  0  0  0  0  0  0  0  0  0  0
    1.8622    4.1968    1.2715 H   0  0  0  0  0  0  0  0  0  0  0  0
    2.1572    2.9078   -1.5372 H   0  0  0  0  0  0  0  0  0  0  0  0
    2.2307    2.0052    0.0227 H   0  0  0  0  0  0  0  0  0  0  0  0
    0.6932    2.7601   -0.4973 H   0  0  0  0  0  0  0  0  0  0  0  0
    0.2943    8.2778   -3.9743 H   0  0  0  0  0  0  0  0  0  0  0  0
   -0.0311   12.0728   -0.7706 H   0  0  0  0  0  0  0  0  0  0  0  0
    2.1616   11.0476   -1.2313 H   0  0  0  0  0  0  0  0  0  0  0  0
   -2.2903   11.9746    0.1671 H   0  0  0  0  0  0  0  0  0  0  0  0
   -4.2899   10.9709    1.2280 H   0  0  0  0  0  0  0  0  0  0  0  0
   -4.6676    8.2180   -2.0879 H   0  0  0  0  0  0  0  0  0  0  0  0
   -6.6595    8.9400    0.1526 H   0  0  0  0  0  0  0  0  0  0  0  0
   -1.9352    6.6001    3.6058 H   0  0  0  0  0  0  0  0  0  0  0  0
   -2.5233    5.1824    5.5663 H   0  0  0  0  0  0  0  0  0  0  0  0
   -4.8854    4.5417    5.9695 H   0  0  0  0  0  0  0  0  0  0  0  0
   -6.6624    5.2800    4.4370 H   0  0  0  0  0  0  0  0  0  0  0  0
  1  2  2  3
  2  3  1  0
  3  4  2  0
  3  5  1  0
  5  6  2  0
  6  7  1  0
  7  8  2  0
  8  9  1  0
  9 10  2  0
 10 11  1  0
 11 12  2  3
 12 13  1  0
 13 14  3  0
 12 15  1  0
 15 16  3  0
  8 17  1  0
 17 18  1  0
 18 19  1  0
 19 20  2  0
 20 21  1  0
 21 22  1  0
 21 23  1  0
  1 24  1  0
 24 25  2  0
 25 26  1  0
 26 27  1  0
 27 28  2  0
 27 29  1  0
 29 30  2  0
 30 31  1  0
 31 32  1  0
 32 33  2  0
 30 34  1  0
 34 35  2  0
 35 36  1  0
 36 37  2  0
 36 38  1  0
 38 39  2  0
 39 40  1  0
 40 41  2  0
 41 42  1  0
 42 43  2  0
 43 44  1  0
 44 45  1  0
 45 46  1  0
 44 47  2  0
 39 48  1  0
 48 49  1  0
 49 50  1  0
 50 51  1  0
 51 52  1  0
 52 53  1  0
 53 54  2  0
 54 55  1  0
 55 56  1  0
 53 57  1  0
 57 58  1  0
 58 59  1  0
 59 60  1  0
 60 61  1  0
 61 62  1  0
 62 63  2  0
 63 64  1  0
 64 65  2  0
 65 66  1  0
 66 67  1  0
 67 68  1  0
 66 69  2  0
 61 70  2  0
 70 71  1  0
 71 72  1  0
 72 73  1  0
 73 74  1  0
 74 75  1  0
 75 76  1  0
 76 77  1  0
 77 78  1  0
 78 79  1  0
 79 80  1  0
 77 81  1  0
 81 82  1  0
 74 83  1  0
 83 84  1  0
 70 85  1  0
 85 86  2  0
 86 87  1  0
 87 88  1  0
 88 89  2  0
 88 90  1  0
 90 91  2  0
 91 92  1  0
 92 93  1  0
 93 94  2  0
 91 95  1  0
 95 96  2  0
 96 97  1  0
 97 98  2  0
 97 99  1  0
 99100  2  3
100101  1  0
101102  2  0
101103  1  0
103104  2  0
104105  1  0
105106  2  0
106107  1  0
107108  2  0
108109  1  0
109110  2  3
110111  1  0
111112  3  0
110113  1  0
113114  3  0
 11  2  1  0
 23 17  1  0
 33 24  1  0
 80 38  1  0
 94 85  1  0
109100  1  0
 10  5  1  0
 22 18  1  0
 31 26  2  0
 47 40  1  0
 79 48  2  0
 92 87  2  0
108103  1  0
 23  7  1  0
 37 29  1  0
 78 50  2  0
 98 90  1  0
 76 51  2  0
 56 52  2  0
 75 57  2  0
 73 58  2  0
 72 60  2  0
 69 62  1  0
  1115  1  0
  6116  1  0
  9117  1  0
 17118  1  0
 18119  1  0
 19120  1  0
 20121  1  0
 21122  1  0
 22123  1  0
 22124  1  0
 23125  1  0
 25126  1  0
 32127  1  0
 33128  1  0
 34129  1  0
 35130  1  0
 37131  1  0
 41132  1  0
 42133  1  0
 43134  1  0
 45135  1  0
 45136  1  0
 46137  1  0
 46138  1  0
 46139  1  0
 47140  1  0
 63141  1  0
 64142  1  0
 65143  1  0
 67144  1  0
 67145  1  0
 68146  1  0
 68147  1  0
 68148  1  0
 69149  1  0
 81150  1  0
 81151  1  0
 82152  1  0
 82153  1  0
 82154  1  0
 83155  1  0
 83156  1  0
 84157  1  0
 84158  1  0
 84159  1  0
 86160  1  0
 93161  1  0
 94162  1  0
 95163  1  0
 96164  1  0
 98165  1  0
 99166  1  0
104167  1  0
105168  1  0
106169  1  0
107170  1  0
M  END

