
     RDKit          3D

183205  0  0  0  0  0  0  0  0999 V2000
   -4.9812   -2.4208   -2.3003 C   0  0  0  0  0  0  0  0  0  0  0  0
   -5.7800   -1.4082   -1.9063 C   0  0  0  0  0  0  0  0  0  0  0  0
   -5.7293   -0.0390   -2.4370 C   0  0  0  0  0  0  0  0  0  0  0  0
   -5.3058    0.3063   -3.5721 O   0  0  0  0  0  0  0  0  0  0  0  0
   -6.2370    0.8657   -1.4342 C   0  0  0  0  0  0  0  0  0  0  0  0
   -6.1545    2.2783   -1.4484 C   0  0  0  0  0  0  0  0  0  0  0  0
   -6.5207    2.8707   -0.2569 C   0  0  0  0  0  0  0  0  0  0  0  0
   -6.9312    2.1244    0.8941 C   0  0  0  0  0  0  0  0  0  0  0  0
   -7.0254    0.7403    0.9108 C   0  0  0  0  0  0  0  0  0  0  0  0
   -6.6833    0.1109   -0.3193 C   0  0  0  0  0  0  0  0  0  0  0  0
   -6.5565   -1.3390   -0.6331 C   0  0  0  0  0  0  0  0  0  0  0  0
   -7.1965   -2.3612   -0.0143 C   0  0  0  0  0  0  0  0  0  0  0  0
   -7.1637   -3.7071   -0.5281 C   0  0  0  0  0  0  0  0  0  0  0  0
   -7.1364   -4.7878   -0.9410 N   0  0  0  0  0  0  0  0  0  0  0  0
   -8.0685   -2.1528    1.1112 C   0  0  0  0  0  0  0  0  0  0  0  0
   -8.7753   -1.9963    2.0140 N   0  0  0  0  0  0  0  0  0  0  0  0
   -7.0324    3.3866    1.6947 C   0  0  0  0  0  0  0  0  0  0  0  0
   -5.8831    3.6568    2.7116 C   0  0  0  0  0  0  0  0  0  0  0  0
   -5.9986    5.1134    3.0892 C   0  0  0  0  0  0  0  0  0  0  0  0
   -5.6349    5.8148    2.0084 C   0  0  0  0  0  0  0  0  0  0  0  0
   -5.2803    4.8079    0.9422 C   0  0  0  0  0  0  0  0  0  0  0  0
   -4.6490    3.7461    1.8258 C   0  0  0  0  0  0  0  0  0  0  0  0
   -6.6263    4.1512    0.5117 C   0  0  0  0  0  0  0  0  0  0  0  0
   -3.8887   -2.1984   -3.2587 C   0  0  0  0  0  0  0  0  0  0  0  0
   -2.5377   -1.2913   -2.8567 S   0  0  0  0  0  0  0  0  0  0  0  0
   -2.0202   -0.9814   -4.4216 C   0  0  0  0  0  0  0  0  0  0  0  0
   -2.9222   -1.5809   -5.3072 C   0  0  0  0  0  0  0  0  0  0  0  0
   -2.9201   -1.4354   -6.7791 C   0  0  0  0  0  0  0  0  0  0  0  0
   -1.9897   -0.8144   -7.3565 O   0  0  0  0  0  0  0  0  0  0  0  0
   -4.0447   -2.0188   -7.5494 C   0  0  0  0  0  0  0  0  0  0  0  0
   -4.2136   -1.9553   -8.9388 C   0  0  0  0  0  0  0  0  0  0  0  0
   -3.2776   -1.3804   -9.9644 C   0  0  0  0  0  0  0  0  0  0  0  0
   -2.1452   -2.3564  -10.2684 C   0  0  0  0  0  0  0  0  0  0  0  0
   -5.6496   -2.7365   -9.3282 S   0  0  0  0  0  0  0  0  0  0  0  0
   -6.0829   -3.1682   -7.7641 C   0  0  0  0  0  0  0  0  0  0  0  0
   -7.3825   -3.8396   -7.4225 C   0  0  0  0  0  0  0  0  0  0  0  0
   -8.4079   -2.8215   -6.9339 C   0  0  0  0  0  0  0  0  0  0  0  0
   -5.0953   -2.6968   -6.8912 C   0  0  0  0  0  0  0  0  0  0  0  0
   -5.0830   -2.8617   -5.4175 C   0  0  0  0  0  0  0  0  0  0  0  0
   -5.9788   -3.5172   -4.8253 O   0  0  0  0  0  0  0  0  0  0  0  0
   -3.9710   -2.2614   -4.6523 C   0  0  0  0  0  0  0  0  0  0  0  0
   -1.0739    0.0993   -4.7200 C   0  0  0  0  0  0  0  0  0  0  0  0
    0.1857   -0.0224   -5.3340 C   0  0  0  0  0  0  0  0  0  0  0  0
    0.7450   -1.2820   -5.8522 C   0  0  0  0  0  0  0  0  0  0  0  0
    1.1620   -1.3591   -7.1896 C   0  0  0  0  0  0  0  0  0  0  0  0
    1.6451   -2.5633   -7.7056 C   0  0  0  0  0  0  0  0  0  0  0  0
    1.7391   -3.6911   -6.8851 C   0  0  0  0  0  0  0  0  0  0  0  0
    1.3382   -3.6230   -5.5393 C   0  0  0  0  0  0  0  0  0  0  0  0
    1.4927   -4.8262   -4.6482 C   0  0  0  0  0  0  0  0  0  0  0  0
    2.9307   -4.9448   -4.1397 C   0  0  0  0  0  0  0  0  0  0  0  0
    0.8416   -2.4146   -5.0267 C   0  0  0  0  0  0  0  0  0  0  0  0
    0.9150    1.1697   -5.2239 C   0  0  0  0  0  0  0  0  0  0  0  0
    2.5945    1.4318   -5.1711 S   0  0  0  0  0  0  0  0  0  0  0  0
    2.4208    2.8926   -4.3166 C   0  0  0  0  0  0  0  0  0  0  0  0
    3.1460    3.4068   -3.2644 C   0  0  0  0  0  0  0  0  0  0  0  0
    4.5107    3.3736   -2.9522 C   0  0  0  0  0  0  0  0  0  0  0  0
    4.9378    3.8816   -1.6828 C   0  0  0  0  0  0  0  0  0  0  0  0
    6.2644    3.8023   -1.4132 N   0  0  0  0  0  0  0  0  0  0  0  0
    6.8000    3.1149   -2.8223 S   0  0  0  0  0  0  0  0  0  0  0  0
    5.4679    2.8791   -3.7765 N   0  0  0  0  0  0  0  0  0  0  0  0
    3.9667    4.3056   -0.7566 C   0  0  0  0  0  0  0  0  0  0  0  0
    4.0498    4.3808    0.6125 C   0  0  0  0  0  0  0  0  0  0  0  0
    5.2625    3.9944    1.7366 S   0  0  0  0  0  0  0  0  0  0  0  0
    4.1203    3.5273    2.9080 C   0  0  0  0  0  0  0  0  0  0  0  0
    4.2229    2.8408    4.1275 C   0  0  0  0  0  0  0  0  0  0  0  0
    5.4776    2.6355    4.8927 C   0  0  0  0  0  0  0  0  0  0  0  0
    6.6771    2.2892    4.2486 C   0  0  0  0  0  0  0  0  0  0  0  0
    7.8528    2.1258    4.9852 C   0  0  0  0  0  0  0  0  0  0  0  0
    7.8405    2.2854    6.3726 C   0  0  0  0  0  0  0  0  0  0  0  0
    6.6469    2.6028    7.0369 C   0  0  0  0  0  0  0  0  0  0  0  0
    6.6319    2.7850    8.5314 C   0  0  0  0  0  0  0  0  0  0  0  0
    6.8794    4.2423    8.9056 C   0  0  0  0  0  0  0  0  0  0  0  0
    5.4712    2.7916    6.2907 C   0  0  0  0  0  0  0  0  0  0  0  0
    2.9615    2.3542    4.5284 C   0  0  0  0  0  0  0  0  0  0  0  0
    1.7761    2.8212    3.4060 S   0  0  0  0  0  0  0  0  0  0  0  0
    2.8484    3.6293    2.4037 C   0  0  0  0  0  0  0  0  0  0  0  0
    2.7990    4.1256    1.1006 C   0  0  0  0  0  0  0  0  0  0  0  0
    1.8814    3.9463    0.1128 N   0  0  0  0  0  0  0  0  0  0  0  0
    2.5979    4.1771   -1.0359 C   0  0  0  0  0  0  0  0  0  0  0  0
    2.2031    3.8851   -2.3562 C   0  0  0  0  0  0  0  0  0  0  0  0
    0.9449    3.7921   -2.8544 N   0  0  0  0  0  0  0  0  0  0  0  0
    1.1002    3.1443   -4.0325 C   0  0  0  0  0  0  0  0  0  0  0  0
    0.2582    2.1796   -4.5594 C   0  0  0  0  0  0  0  0  0  0  0  0
   -1.2290    1.6392   -4.0263 S   0  0  0  0  0  0  0  0  0  0  0  0
   -0.1688    4.7005   -2.5484 C   0  0  0  0  0  0  0  0  0  0  0  0
   -0.2491    5.8250   -3.5753 C   0  0  0  0  0  0  0  0  0  0  0  0
    0.7317    3.0331    0.2365 C   0  0  0  0  0  0  0  0  0  0  0  0
    1.1714    1.5767    0.0744 C   0  0  0  0  0  0  0  0  0  0  0  0
    2.7146    1.2934    5.5166 C   0  0  0  0  0  0  0  0  0  0  0  0
    1.4590    1.3270    6.6391 S   0  0  0  0  0  0  0  0  0  0  0  0
    1.6332   -0.2573    7.1760 C   0  0  0  0  0  0  0  0  0  0  0  0
    2.7340   -0.8264    6.5242 C   0  0  0  0  0  0  0  0  0  0  0  0
    3.3255   -2.1596    6.8007 C   0  0  0  0  0  0  0  0  0  0  0  0
    2.9486   -2.8331    7.7942 O   0  0  0  0  0  0  0  0  0  0  0  0
    4.4299   -2.6352    5.9299 C   0  0  0  0  0  0  0  0  0  0  0  0
    5.1067   -3.8573    6.0413 C   0  0  0  0  0  0  0  0  0  0  0  0
    4.8253   -4.9907    6.9875 C   0  0  0  0  0  0  0  0  0  0  0  0
    3.6400   -5.8185    6.5031 C   0  0  0  0  0  0  0  0  0  0  0  0
    6.2721   -3.9246    4.8304 S   0  0  0  0  0  0  0  0  0  0  0  0
    5.9705   -2.4092    4.1675 C   0  0  0  0  0  0  0  0  0  0  0  0
    6.7286   -1.8379    3.0021 C   0  0  0  0  0  0  0  0  0  0  0  0
    6.0472   -2.1888    1.6852 C   0  0  0  0  0  0  0  0  0  0  0  0
    4.9080   -1.8301    4.8745 C   0  0  0  0  0  0  0  0  0  0  0  0
    4.2864   -0.5177    4.5872 C   0  0  0  0  0  0  0  0  0  0  0  0
    4.5170    0.0765    3.5017 O   0  0  0  0  0  0  0  0  0  0  0  0
    3.2915    0.0161    5.5446 C   0  0  0  0  0  0  0  0  0  0  0  0
    0.6770   -0.9142    8.0822 C   0  0  0  0  0  0  0  0  0  0  0  0
    0.0860   -2.1019    7.8469 C   0  0  0  0  0  0  0  0  0  0  0  0
   -0.4524   -2.9307    8.9368 C   0  0  0  0  0  0  0  0  0  0  0  0
   -0.7295   -2.5484   10.1045 O   0  0  0  0  0  0  0  0  0  0  0  0
   -0.5204   -4.2914    8.4537 C   0  0  0  0  0  0  0  0  0  0  0  0
   -0.1208   -4.3463    7.1394 C   0  0  0  0  0  0  0  0  0  0  0  0
   -0.1713   -5.6165    6.5742 C   0  0  0  0  0  0  0  0  0  0  0  0
   -0.7125   -6.6562    7.8005 S   0  0  0  0  0  0  0  0  0  0  0  0
   -0.8926   -5.4977    9.0165 C   0  0  0  0  0  0  0  0  0  0  0  0
   -1.4497   -5.7836   10.6515 Cl  0  0  0  0  0  0  0  0  0  0  0  0
    0.1825   -2.9867    6.6371 C   0  0  0  0  0  0  0  0  0  0  0  0
    0.1957   -2.6215    5.3352 C   0  0  0  0  0  0  0  0  0  0  0  0
    0.3661   -3.5853    4.2759 C   0  0  0  0  0  0  0  0  0  0  0  0
    0.5082   -4.3480    3.4175 N   0  0  0  0  0  0  0  0  0  0  0  0
   -0.1198   -1.2835    4.9179 C   0  0  0  0  0  0  0  0  0  0  0  0
   -0.3871   -0.2150    4.5621 N   0  0  0  0  0  0  0  0  0  0  0  0
   -4.9516   -3.3475   -1.7484 H   0  0  0  0  0  0  0  0  0  0  0  0
   -5.7716    2.8461   -2.2897 H   0  0  0  0  0  0  0  0  0  0  0  0
   -7.2682    0.2099    1.8179 H   0  0  0  0  0  0  0  0  0  0  0  0
   -8.0609    3.6068    2.0578 H   0  0  0  0  0  0  0  0  0  0  0  0
   -5.8154    2.9480    3.5645 H   0  0  0  0  0  0  0  0  0  0  0  0
   -6.2293    5.5247    4.0665 H   0  0  0  0  0  0  0  0  0  0  0  0
   -5.5230    6.8921    1.9575 H   0  0  0  0  0  0  0  0  0  0  0  0
   -4.6478    5.1947    0.1166 H   0  0  0  0  0  0  0  0  0  0  0  0
   -3.7398    4.1057    2.3651 H   0  0  0  0  0  0  0  0  0  0  0  0
   -4.3955    2.8001    1.2966 H   0  0  0  0  0  0  0  0  0  0  0  0
   -7.3999    4.8459    0.1157 H   0  0  0  0  0  0  0  0  0  0  0  0
   -2.8683   -0.4088   -9.6181 H   0  0  0  0  0  0  0  0  0  0  0  0
   -3.8393   -1.1781  -10.9003 H   0  0  0  0  0  0  0  0  0  0  0  0
   -2.5567   -3.3017  -10.6775 H   0  0  0  0  0  0  0  0  0  0  0  0
   -1.5597   -2.5788   -9.3526 H   0  0  0  0  0  0  0  0  0  0  0  0
   -1.4624   -1.9089  -11.0217 H   0  0  0  0  0  0  0  0  0  0  0  0
   -7.2235   -4.6273   -6.6590 H   0  0  0  0  0  0  0  0  0  0  0  0
   -7.7866   -4.3472   -8.3254 H   0  0  0  0  0  0  0  0  0  0  0  0
   -9.3445   -3.3470   -6.6420 H   0  0  0  0  0  0  0  0  0  0  0  0
   -8.6426   -2.0946   -7.7407 H   0  0  0  0  0  0  0  0  0  0  0  0
   -8.0238   -2.2656   -6.0503 H   0  0  0  0  0  0  0  0  0  0  0  0
    1.0830   -0.4944   -7.8409 H   0  0  0  0  0  0  0  0  0  0  0  0
    1.9524   -2.6222   -8.7435 H   0  0  0  0  0  0  0  0  0  0  0  0
    2.1247   -4.6168   -7.2963 H   0  0  0  0  0  0  0  0  0  0  0  0
    1.2255   -5.7451   -5.2097 H   0  0  0  0  0  0  0  0  0  0  0  0
    0.8047   -4.7584   -3.7768 H   0  0  0  0  0  0  0  0  0  0  0  0
    3.1504   -4.1270   -3.4214 H   0  0  0  0  0  0  0  0  0  0  0  0
    3.0611   -5.9202   -3.6273 H   0  0  0  0  0  0  0  0  0  0  0  0
    3.6496   -4.8928   -4.9850 H   0  0  0  0  0  0  0  0  0  0  0  0
    0.5399   -2.3515   -3.9873 H   0  0  0  0  0  0  0  0  0  0  0  0
    6.7037    2.1151    3.1817 H   0  0  0  0  0  0  0  0  0  0  0  0
    8.7755    1.8700    4.4792 H   0  0  0  0  0  0  0  0  0  0  0  0
    8.7598    2.1586    6.9276 H   0  0  0  0  0  0  0  0  0  0  0  0
    7.4103    2.1474    9.0014 H   0  0  0  0  0  0  0  0  0  0  0  0
    5.6497    2.4639    8.9421 H   0  0  0  0  0  0  0  0  0  0  0  0
    6.0990    4.8942    8.4580 H   0  0  0  0  0  0  0  0  0  0  0  0
    6.8411    4.3531   10.0100 H   0  0  0  0  0  0  0  0  0  0  0  0
    7.8816    4.5674    8.5494 H   0  0  0  0  0  0  0  0  0  0  0  0
    4.5571    3.0694    6.7995 H   0  0  0  0  0  0  0  0  0  0  0  0
   -0.0278    5.1692   -1.5538 H   0  0  0  0  0  0  0  0  0  0  0  0
   -1.1251    4.1394   -2.5425 H   0  0  0  0  0  0  0  0  0  0  0  0
    0.7312    6.3440   -3.6573 H   0  0  0  0  0  0  0  0  0  0  0  0
   -1.0176    6.5607   -3.2620 H   0  0  0  0  0  0  0  0  0  0  0  0
   -0.5304    5.4175   -4.5700 H   0  0  0  0  0  0  0  0  0  0  0  0
    0.2284    3.1778    1.2114 H   0  0  0  0  0  0  0  0  0  0  0  0
   -0.0463    3.2340   -0.5122 H   0  0  0  0  0  0  0  0  0  0  0  0
    1.5713    1.4072   -0.9471 H   0  0  0  0  0  0  0  0  0  0  0  0
    0.3032    0.9041    0.2302 H   0  0  0  0  0  0  0  0  0  0  0  0
    1.9559    1.3158    0.8163 H   0  0  0  0  0  0  0  0  0  0  0  0
    5.7194   -5.6476    7.0512 H   0  0  0  0  0  0  0  0  0  0  0  0
    4.6309   -4.6053    8.0106 H   0  0  0  0  0  0  0  0  0  0  0  0
    3.8623   -6.2712    5.5136 H   0  0  0  0  0  0  0  0  0  0  0  0
    2.7317   -5.1878    6.4155 H   0  0  0  0  0  0  0  0  0  0  0  0
    3.4342   -6.6343    7.2285 H   0  0  0  0  0  0  0  0  0  0  0  0
    6.8253   -0.7368    3.1024 H   0  0  0  0  0  0  0  0  0  0  0  0
    7.7584   -2.2541    2.9973 H   0  0  0  0  0  0  0  0  0  0  0  0
    6.5960   -1.7083    0.8463 H   0  0  0  0  0  0  0  0  0  0  0  0
    4.9969   -1.8267    1.6734 H   0  0  0  0  0  0  0  0  0  0  0  0
    6.0547   -3.2895    1.5298 H   0  0  0  0  0  0  0  0  0  0  0  0
    0.4944   -0.4222    9.0281 H   0  0  0  0  0  0  0  0  0  0  0  0
    0.0779   -5.9050    5.5647 H   0  0  0  0  0  0  0  0  0  0  0  0
  1  2  2  3
  2  3  1  0
  3  4  2  0
  3  5  1  0
  5  6  2  0
  6  7  1  0
  7  8  2  0
  8  9  1  0
  9 10  2  0
 10 11  1  0
 11 12  2  3
 12 13  1  0
 13 14  3  0
 12 15  1  0
 15 16  3  0
  8 17  1  0
 17 18  1  0
 18 19  1  0
 19 20  2  0
 20 21  1  0
 21 22  1  0
 21 23  1  0
  1 24  1  0
 24 25  1  0
 25 26  1  0
 26 27  2  0
 27 28  1  0
 28 29  2  0
 28 30  1  0
 30 31  2  0
 31 32  1  0
 32 33  1  0
 31 34  1  0
 34 35  1  0
 35 36  1  0
 36 37  1  0
 35 38  2  0
 38 39  1  0
 39 40  2  0
 39 41  1  0
 26 42  1  0
 42 43  2  0
 43 44  1  0
 44 45  2  0
 45 46  1  0
 46 47  2  0
 47 48  1  0
 48 49  1  0
 49 50  1  0
 48 51  2  0
 43 52  1  0
 52 53  1  0
 53 54  1  0
 54 55  1  0
 55 56  1  0
 56 57  1  0
 57 58  2  0
 58 59  1  0
 59 60  1  0
 57 61  1  0
 61 62  1  0
 62 63  1  0
 63 64  1  0
 64 65  1  0
 65 66  1  0
 66 67  2  0
 67 68  1  0
 68 69  2  0
 69 70  1  0
 70 71  1  0
 71 72  1  0
 70 73  2  0
 65 74  2  0
 74 75  1  0
 75 76  1  0
 76 77  1  0
 77 78  1  0
 78 79  1  0
 79 80  1  0
 80 81  1  0
 81 82  1  0
 82 83  1  0
 83 84  1  0
 81 85  1  0
 85 86  1  0
 78 87  1  0
 87 88  1  0
 74 89  1  0
 89 90  1  0
 90 91  1  0
 91 92  2  0
 92 93  1  0
 93 94  2  0
 93 95  1  0
 95 96  2  0
 96 97  1  0
 97 98  1  0
 96 99  1  0
 99100  1  0
100101  1  0
101102  1  0
100103  2  0
103104  1  0
104105  2  0
104106  1  0
 91107  1  0
107108  2  3
108109  1  0
109110  2  0
109111  1  0
111112  1  0
112113  2  0
113114  1  0
114115  1  0
115116  1  0
112117  1  0
117118  2  3
118119  1  0
119120  3  0
118121  1  0
121122  3  0
 11  2  1  0
 23 17  1  0
 41 24  2  0
 84 42  1  0
106 89  2  0
117108  1  0
 10  5  1  0
 22 18  1  0
 41 27  1  0
 51 44  1  0
 83 52  2  0
106 92  1  0
115111  2  0
 23  7  1  0
 38 30  1  0
 82 54  2  0
103 95  1  0
 80 55  2  0
 60 56  2  0
 79 61  2  0
 77 62  2  0
 76 64  2  0
 73 66  1  0
  1123  1  0
  6124  1  0
  9125  1  0
 17126  1  0
 18127  1  0
 19128  1  0
 20129  1  0
 21130  1  0
 22131  1  0
 22132  1  0
 23133  1  0
 32134  1  0
 32135  1  0
 33136  1  0
 33137  1  0
 33138  1  0
 36139  1  0
 36140  1  0
 37141  1  0
 37142  1  0
 37143  1  0
 45144  1  0
 46145  1  0
 47146  1  0
 49147  1  0
 49148  1  0
 50149  1  0
 50150  1  0
 50151  1  0
 51152  1  0
 67153  1  0
 68154  1  0
 69155  1  0
 71156  1  0
 71157  1  0
 72158  1  0
 72159  1  0
 72160  1  0
 73161  1  0
 85162  1  0
 85163  1  0
 86164  1  0
 86165  1  0
 86166  1  0
 87167  1  0
 87168  1  0
 88169  1  0
 88170  1  0
 88171  1  0
 97172  1  0
 97173  1  0
 98174  1  0
 98175  1  0
 98176  1  0
101177  1  0
101178  1  0
102179  1  0
102180  1  0
102181  1  0
107182  1  0
113183  1  0
M  END

