
     RDKit          3D

188211  0  0  0  0  0  0  0  0999 V2000
    0.2379    2.4387   -6.7359 C   0  0  0  0  0  0  0  0  0  0  0  0
    0.4509    3.2626   -5.6568 C   0  0  0  0  0  0  0  0  0  0  0  0
   -0.3986    3.4000   -4.5037 C   0  0  0  0  0  0  0  0  0  0  0  0
   -1.5035    2.7681   -4.2380 O   0  0  0  0  0  0  0  0  0  0  0  0
    0.0915    4.3551   -3.5605 C   0  0  0  0  0  0  0  0  0  0  0  0
   -0.2996    4.9693   -2.3697 C   0  0  0  0  0  0  0  0  0  0  0  0
    0.1169    5.8236   -1.6712 C   0  0  0  0  0  0  0  0  0  0  0  0
    1.4261    6.4548   -2.1500 C   0  0  0  0  0  0  0  0  0  0  0  0
    1.9107    5.9023   -3.3544 C   0  0  0  0  0  0  0  0  0  0  0  0
    1.2376    4.8408   -4.0555 C   0  0  0  0  0  0  0  0  0  0  0  0
    1.5021    4.1607   -5.3605 C   0  0  0  0  0  0  0  0  0  0  0  0
    2.7562    4.4117   -6.0696 C   0  0  0  0  0  0  0  0  0  0  0  0
    2.9494    3.7281   -7.2150 C   0  0  0  0  0  0  0  0  0  0  0  0
    3.1284    3.1405   -8.2366 N   0  0  0  0  0  0  0  0  0  0  0  0
    3.7605    4.9423   -5.1422 C   0  0  0  0  0  0  0  0  0  0  0  0
    4.4876    5.3458   -4.4528 N   0  0  0  0  0  0  0  0  0  0  0  0
    1.4995    7.3221   -1.0173 C   0  0  0  0  0  0  0  0  0  0  0  0
    1.2532    8.7959   -1.3155 C   0  0  0  0  0  0  0  0  0  0  0  0
    0.7327    9.4478   -0.1003 C   0  0  0  0  0  0  0  0  0  0  0  0
   -0.5119    9.0800    0.0981 C   0  0  0  0  0  0  0  0  0  0  0  0
   -0.7803    7.9513   -0.8676 C   0  0  0  0  0  0  0  0  0  0  0  0
   -0.0772    8.5916   -2.0852 C   0  0  0  0  0  0  0  0  0  0  0  0
    0.1911    6.8524   -0.5247 C   0  0  0  0  0  0  0  0  0  0  0  0
   -1.0092    1.6297   -6.6091 C   0  0  0  0  0  0  0  0  0  0  0  0
   -2.4014    2.0945   -5.8042 S   0  0  0  0  0  0  0  0  0  0  0  0
   -3.1716    0.4959   -5.5167 C   0  0  0  0  0  0  0  0  0  0  0  0
   -2.2584   -0.2445   -6.1373 C   0  0  0  0  0  0  0  0  0  0  0  0
   -2.5335   -1.7639   -6.2412 C   0  0  0  0  0  0  0  0  0  0  0  0
   -3.5795   -2.2169   -5.7036 O   0  0  0  0  0  0  0  0  0  0  0  0
   -1.6218   -2.7006   -6.9306 C   0  0  0  0  0  0  0  0  0  0  0  0
   -1.7383   -3.9792   -7.0703 C   0  0  0  0  0  0  0  0  0  0  0  0
   -2.9210   -4.8925   -6.6285 C   0  0  0  0  0  0  0  0  0  0  0  0
   -3.9815   -4.7515   -7.6805 C   0  0  0  0  0  0  0  0  0  0  0  0
   -0.3942   -4.5575   -7.9080 S   0  0  0  0  0  0  0  0  0  0  0  0
    0.3492   -3.0734   -8.0895 C   0  0  0  0  0  0  0  0  0  0  0  0
    1.7121   -2.8151   -8.7801 C   0  0  0  0  0  0  0  0  0  0  0  0
    2.7256   -2.6641   -7.6767 C   0  0  0  0  0  0  0  0  0  0  0  0
   -0.4148   -2.0852   -7.5162 C   0  0  0  0  0  0  0  0  0  0  0  0
   -0.2137   -0.6626   -7.3789 C   0  0  0  0  0  0  0  0  0  0  0  0
    0.8177   -0.1458   -7.8780 O   0  0  0  0  0  0  0  0  0  0  0  0
   -1.2118    0.1911   -6.6584 C   0  0  0  0  0  0  0  0  0  0  0  0
   -4.2348    0.4129   -4.4200 C   0  0  0  0  0  0  0  0  0  0  0  0
   -4.3860    1.3032   -3.6245 C   0  0  0  0  0  0  0  0  0  0  0  0
   -4.8494    1.2879   -2.3507 C   0  0  0  0  0  0  0  0  0  0  0  0
   -4.8462    2.1707   -0.9164 S   0  0  0  0  0  0  0  0  0  0  0  0
   -5.3535    0.9395    0.1420 C   0  0  0  0  0  0  0  0  0  0  0  0
   -5.4776    0.6401    1.5414 C   0  0  0  0  0  0  0  0  0  0  0  0
   -4.9835    1.3786    2.5996 C   0  0  0  0  0  0  0  0  0  0  0  0
   -4.8077    0.7706    3.7912 C   0  0  0  0  0  0  0  0  0  0  0  0
   -4.2332    1.2866    5.0914 C   0  0  0  0  0  0  0  0  0  0  0  0
   -3.8280    2.7572    4.9530 C   0  0  0  0  0  0  0  0  0  0  0  0
   -3.1431    3.0622    4.1013 C   0  0  0  0  0  0  0  0  0  0  0  0
   -2.7833    4.5155    3.7987 C   0  0  0  0  0  0  0  0  0  0  0  0
   -3.4887    5.3058    4.8081 C   0  0  0  0  0  0  0  0  0  0  0  0
   -3.2505    6.8224    4.6299 C   0  0  0  0  0  0  0  0  0  0  0  0
   -2.2258    7.3123    5.6055 C   0  0  0  0  0  0  0  0  0  0  0  0
   -4.2055    4.8311    5.6914 C   0  0  0  0  0  0  0  0  0  0  0  0
   -4.6130    3.4449    6.0634 C   0  0  0  0  0  0  0  0  0  0  0  0
   -5.5467    1.2154    5.8833 C   0  0  0  0  0  0  0  0  0  0  0  0
   -6.5815    2.0456    5.0964 C   0  0  0  0  0  0  0  0  0  0  0  0
   -3.2813    0.3012    5.4074 C   0  0  0  0  0  0  0  0  0  0  0  0
   -4.1289   -0.9251    5.1942 C   0  0  0  0  0  0  0  0  0  0  0  0
   -5.0834   -0.4835    4.0583 C   0  0  0  0  0  0  0  0  0  0  0  0
   -5.6364   -1.3092    3.0104 C   0  0  0  0  0  0  0  0  0  0  0  0
   -5.8108   -0.6917    1.7336 C   0  0  0  0  0  0  0  0  0  0  0  0
   -6.1075   -1.1642    0.3691 C   0  0  0  0  0  0  0  0  0  0  0  0
   -7.5959   -1.1128    0.0978 C   0  0  0  0  0  0  0  0  0  0  0  0
   -8.5054   -1.8768    0.9587 C   0  0  0  0  0  0  0  0  0  0  0  0
   -5.5816   -2.5583    0.1144 C   0  0  0  0  0  0  0  0  0  0  0  0
   -6.1367   -3.5529    0.6673 C   0  0  0  0  0  0  0  0  0  0  0  0
   -5.7168   -4.8355    0.2620 C   0  0  0  0  0  0  0  0  0  0  0  0
   -4.8851   -5.1238   -0.5443 C   0  0  0  0  0  0  0  0  0  0  0  0
   -4.3745   -6.4671   -1.0224 C   0  0  0  0  0  0  0  0  0  0  0  0
   -3.0480   -6.7180   -0.3946 C   0  0  0  0  0  0  0  0  0  0  0  0
   -4.1500   -3.9867   -1.2802 C   0  0  0  0  0  0  0  0  0  0  0  0
   -4.5426   -2.7189   -0.9015 C   0  0  0  0  0  0  0  0  0  0  0  0
   -5.5661   -0.1784   -0.6766 C   0  0  0  0  0  0  0  0  0  0  0  0
   -5.2653    0.0320   -1.9581 C   0  0  0  0  0  0  0  0  0  0  0  0
   -4.8895   -0.9017   -3.4939 S   0  0  0  0  0  0  0  0  0  0  0  0
   -3.2606   -2.3019    5.5698 S   0  0  0  0  0  0  0  0  0  0  0  0
   -1.7753   -1.5563    5.9497 C   0  0  0  0  0  0  0  0  0  0  0  0
   -0.5602   -1.2677    6.2047 C   0  0  0  0  0  0  0  0  0  0  0  0
    0.5182   -1.2452    6.4275 C   0  0  0  0  0  0  0  0  0  0  0  0
   -0.3321    0.5643    6.1549 S   0  0  0  0  0  0  0  0  0  0  0  0
   -2.0835   -0.2512    5.7892 C   0  0  0  0  0  0  0  0  0  0  0  0
    1.8511   -1.5432    6.6698 C   0  0  0  0  0  0  0  0  0  0  0  0
    3.1987   -0.5365    5.4849 Se  0  0  0  0  0  2  0  0  0  0  0  0
    4.6078   -1.6796    6.1093 C   0  0  0  0  0  0  0  0  0  0  0  0
    3.9134   -2.5318    6.9922 C   0  0  0  0  0  0  0  0  0  0  0  0
    4.4673   -3.5917    7.6945 C   0  0  0  0  0  0  0  0  0  0  0  0
    3.8942   -4.3944    8.4545 C   0  0  0  0  0  0  0  0  0  0  0  0
    4.3831   -5.5814    9.2647 C   0  0  0  0  0  0  0  0  0  0  0  0
    4.4472   -6.7652    8.3303 C   0  0  0  0  0  0  0  0  0  0  0  0
    2.2386   -3.7466    8.3539 S   0  0  0  0  0  0  0  0  0  0  0  0
    2.7193   -2.3818    7.1539 C   0  0  0  0  0  0  0  0  0  0  0  0
    5.9904   -1.5526    5.6937 C   0  0  0  0  0  0  0  0  0  0  0  0
    6.2413   -1.8631    4.4513 C   0  0  0  0  0  0  0  0  0  0  0  0
    5.3973   -2.2992    3.4042 C   0  0  0  0  0  0  0  0  0  0  0  0
    4.1152   -2.3352    3.4478 O   0  0  0  0  0  0  0  0  0  0  0  0
    6.1333   -2.7083    2.2495 C   0  0  0  0  0  0  0  0  0  0  0  0
    5.9358   -3.1691    1.0249 C   0  0  0  0  0  0  0  0  0  0  0  0
    6.7607   -3.4866    0.0261 C   0  0  0  0  0  0  0  0  0  0  0  0
    8.0566   -3.2929    0.3562 C   0  0  0  0  0  0  0  0  0  0  0  0
    8.5351   -2.8307    1.5569 C   0  0  0  0  0  0  0  0  0  0  0  0
    7.5775   -2.5239    2.5610 C   0  0  0  0  0  0  0  0  0  0  0  0
    7.6582   -2.0081    3.9079 C   0  0  0  0  0  0  0  0  0  0  0  0
    8.6968   -1.6664    4.5408 C   0  0  0  0  0  0  0  0  0  0  0  0
    9.2180   -1.1077    5.6783 C   0  0  0  0  0  0  0  0  0  0  0  0
    9.6656   -0.6122    6.6943 N   0  0  0  0  0  0  0  0  0  0  0  0
    9.8138   -2.7028    4.0388 C   0  0  0  0  0  0  0  0  0  0  0  0
   10.7525   -3.5445    3.6320 N   0  0  0  0  0  0  0  0  0  0  0  0
    8.5382   -3.8207   -0.9782 C   0  0  0  0  0  0  0  0  0  0  0  0
    9.0076   -2.6530   -1.8036 C   0  0  0  0  0  0  0  0  0  0  0  0
    9.0744   -3.1770   -3.2150 C   0  0  0  0  0  0  0  0  0  0  0  0
    7.8625   -3.5464   -3.5473 C   0  0  0  0  0  0  0  0  0  0  0  0
    6.9094   -3.0311   -2.4931 C   0  0  0  0  0  0  0  0  0  0  0  0
    7.7334   -1.8494   -1.9498 C   0  0  0  0  0  0  0  0  0  0  0  0
    7.0730   -3.9759   -1.3388 C   0  0  0  0  0  0  0  0  0  0  0  0
    0.8467    2.3244   -7.5502 H   0  0  0  0  0  0  0  0  0  0  0  0
   -1.3238    4.4289   -2.0695 H   0  0  0  0  0  0  0  0  0  0  0  0
    2.7210    6.3806   -3.7695 H   0  0  0  0  0  0  0  0  0  0  0  0
    2.3933    7.1368   -0.3568 H   0  0  0  0  0  0  0  0  0  0  0  0
    2.0269    9.2760   -1.8645 H   0  0  0  0  0  0  0  0  0  0  0  0
    1.2470   10.1567    0.5642 H   0  0  0  0  0  0  0  0  0  0  0  0
   -1.2657    9.4194    0.7840 H   0  0  0  0  0  0  0  0  0  0  0  0
   -1.7960    7.7127   -1.0381 H   0  0  0  0  0  0  0  0  0  0  0  0
   -0.5181    9.5791   -2.3168 H   0  0  0  0  0  0  0  0  0  0  0  0
    0.0248    7.8996   -2.9139 H   0  0  0  0  0  0  0  0  0  0  0  0
    0.1071    6.4122    0.4645 H   0  0  0  0  0  0  0  0  0  0  0  0
   -3.2493   -4.4943   -5.6854 H   0  0  0  0  0  0  0  0  0  0  0  0
   -2.5227   -5.9415   -6.5522 H   0  0  0  0  0  0  0  0  0  0  0  0
   -4.1997   -5.7270   -8.2155 H   0  0  0  0  0  0  0  0  0  0  0  0
   -4.9826   -4.4857   -7.2169 H   0  0  0  0  0  0  0  0  0  0  0  0
   -3.8140   -4.0018   -8.4516 H   0  0  0  0  0  0  0  0  0  0  0  0
    1.9541   -3.7073   -9.4010 H   0  0  0  0  0  0  0  0  0  0  0  0
    1.6062   -1.8781   -9.3029 H   0  0  0  0  0  0  0  0  0  0  0  0
    3.4825   -1.8618   -7.9306 H   0  0  0  0  0  0  0  0  0  0  0  0
    3.2306   -3.6467   -7.4726 H   0  0  0  0  0  0  0  0  0  0  0  0
    2.2538   -2.3725   -6.7221 H   0  0  0  0  0  0  0  0  0  0  0  0
   -4.1554    2.4602   -3.9575 H   0  0  0  0  0  0  0  0  0  0  0  0
   -4.7245    2.4100    2.4295 H   0  0  0  0  0  0  0  0  0  0  0  0
   -2.5595    2.5119    3.2746 H   0  0  0  0  0  0  0  0  0  0  0  0
   -2.2112    4.8054    3.0759 H   0  0  0  0  0  0  0  0  0  0  0  0
   -2.9751    6.9947    3.5630 H   0  0  0  0  0  0  0  0  0  0  0  0
   -4.2147    7.3077    4.8402 H   0  0  0  0  0  0  0  0  0  0  0  0
   -1.2492    7.5807    5.1882 H   0  0  0  0  0  0  0  0  0  0  0  0
   -2.1007    6.6354    6.4852 H   0  0  0  0  0  0  0  0  0  0  0  0
   -2.6041    8.2828    6.0762 H   0  0  0  0  0  0  0  0  0  0  0  0
   -4.7509    5.5038    6.4542 H   0  0  0  0  0  0  0  0  0  0  0  0
   -5.1514    3.1432    6.7625 H   0  0  0  0  0  0  0  0  0  0  0  0
   -5.5265    1.4523    6.9002 H   0  0  0  0  0  0  0  0  0  0  0  0
   -5.9738    0.1595    5.7922 H   0  0  0  0  0  0  0  0  0  0  0  0
   -7.1979    1.3374    4.4247 H   0  0  0  0  0  0  0  0  0  0  0  0
   -6.0829    2.7279    4.4018 H   0  0  0  0  0  0  0  0  0  0  0  0
   -7.2484    2.5387    5.7926 H   0  0  0  0  0  0  0  0  0  0  0  0
   -5.8516   -2.3007    3.2084 H   0  0  0  0  0  0  0  0  0  0  0  0
   -7.7332   -1.3822   -1.0044 H   0  0  0  0  0  0  0  0  0  0  0  0
   -7.8806   -0.0381    0.1211 H   0  0  0  0  0  0  0  0  0  0  0  0
   -9.5059   -1.3062    1.0370 H   0  0  0  0  0  0  0  0  0  0  0  0
   -8.2061   -1.9506    2.0156 H   0  0  0  0  0  0  0  0  0  0  0  0
   -8.8590   -2.8508    0.5259 H   0  0  0  0  0  0  0  0  0  0  0  0
   -6.8956   -3.5793    1.4575 H   0  0  0  0  0  0  0  0  0  0  0  0
   -6.3464   -5.6638    0.8322 H   0  0  0  0  0  0  0  0  0  0  0  0
   -5.1083   -7.2380   -0.6308 H   0  0  0  0  0  0  0  0  0  0  0  0
   -4.3498   -6.4722   -2.1208 H   0  0  0  0  0  0  0  0  0  0  0  0
   -2.5662   -7.6288   -0.8406 H   0  0  0  0  0  0  0  0  0  0  0  0
   -2.3628   -5.8583   -0.6299 H   0  0  0  0  0  0  0  0  0  0  0  0
   -3.1418   -6.8133    0.6901 H   0  0  0  0  0  0  0  0  0  0  0  0
   -3.4494   -4.2847   -1.9782 H   0  0  0  0  0  0  0  0  0  0  0  0
   -4.0553   -1.8761   -1.2494 H   0  0  0  0  0  0  0  0  0  0  0  0
   -0.3236   -2.8575    6.1895 H   0  0  0  0  0  0  0  0  0  0  0  0
    5.6459   -3.7650    7.5924 H   0  0  0  0  0  0  0  0  0  0  0  0
    3.7720   -5.6935   10.1428 H   0  0  0  0  0  0  0  0  0  0  0  0
    5.4690   -5.3716    9.5203 H   0  0  0  0  0  0  0  0  0  0  0  0
    5.1077   -6.4067    7.4657 H   0  0  0  0  0  0  0  0  0  0  0  0
    4.9809   -7.6502    8.7766 H   0  0  0  0  0  0  0  0  0  0  0  0
    3.4837   -7.0235    7.8868 H   0  0  0  0  0  0  0  0  0  0  0  0
    6.7446   -1.2308    6.4075 H   0  0  0  0  0  0  0  0  0  0  0  0
    4.7892   -3.3025    0.8046 H   0  0  0  0  0  0  0  0  0  0  0  0
    9.5511   -2.6769    1.6877 H   0  0  0  0  0  0  0  0  0  0  0  0
    9.1611   -4.6996   -0.9419 H   0  0  0  0  0  0  0  0  0  0  0  0
    9.8788   -2.1350   -1.4811 H   0  0  0  0  0  0  0  0  0  0  0  0
   10.0034   -3.1892   -3.7592 H   0  0  0  0  0  0  0  0  0  0  0  0
    7.5183   -4.0974   -4.3748 H   0  0  0  0  0  0  0  0  0  0  0  0
    5.9398   -2.7956   -2.8481 H   0  0  0  0  0  0  0  0  0  0  0  0
    7.3295   -1.5578   -0.9488 H   0  0  0  0  0  0  0  0  0  0  0  0
    7.7872   -1.0266   -2.6598 H   0  0  0  0  0  0  0  0  0  0  0  0
    6.7535   -5.0267   -1.5261 H   0  0  0  0  0  0  0  0  0  0  0  0
  1  2  2  3
  2  3  1  0
  3  4  2  0
  3  5  1  0
  5  6  2  0
  6  7  1  0
  7  8  2  0
  8  9  1  0
  9 10  2  0
 10 11  1  0
 11 12  2  3
 12 13  1  0
 13 14  3  0
 12 15  1  0
 15 16  3  0
  8 17  1  0
 17 18  1  0
 18 19  1  0
 19 20  2  0
 20 21  1  0
 21 22  1  0
 21 23  1  0
  1 24  1  0
 24 25  1  0
 25 26  1  0
 26 27  2  0
 27 28  1  0
 28 29  2  0
 28 30  1  0
 30 31  2  0
 31 32  1  0
 32 33  1  0
 31 34  1  0
 34 35  1  0
 35 36  1  0
 36 37  1  0
 35 38  2  0
 38 39  1  0
 39 40  2  0
 39 41  1  0
 26 42  1  0
 42 43  2  0
 43 44  1  0
 44 45  1  0
 45 46  1  0
 46 47  1  0
 47 48  2  0
 48 49  1  0
 49 50  1  0
 50 51  1  0
 51 52  2  0
 52 53  1  0
 53 54  2  0
 54 55  1  0
 55 56  1  0
 54 57  1  0
 57 58  2  0
 50 59  1  0
 59 60  1  0
 50 61  1  0
 61 62  2  0
 62 63  1  0
 63 64  1  0
 64 65  2  0
 65 66  1  0
 66 67  1  0
 67 68  1  0
 66 69  1  0
 69 70  2  0
 70 71  1  0
 71 72  2  0
 72 73  1  0
 73 74  1  0
 72 75  1  0
 75 76  2  0
 66 77  1  0
 77 78  1  0
 78 79  1  0
 62 80  1  0
 80 81  1  0
 81 82  1  0
 82 83  2  0
 83 84  1  0
 84 85  1  0
 83 86  1  0
 86 87  1  0
 87 88  1  0
 88 89  2  0
 89 90  1  0
 90 91  2  0
 91 92  1  0
 92 93  1  0
 91 94  1  0
 94 95  1  0
 88 96  1  0
 96 97  2  3
 97 98  1  0
 98 99  2  0
 98100  1  0
100101  2  0
101102  1  0
102103  2  0
103104  1  0
104105  2  0
105106  1  0
106107  2  3
107108  1  0
108109  3  0
107110  1  0
110111  3  0
103112  1  0
112113  1  0
113114  1  0
114115  2  0
115116  1  0
116117  1  0
116118  1  0
 11  2  1  0
 23 17  1  0
 41 24  2  0
 79 42  1  0
 85 81  2  0
 95 86  2  0
106 97  1  0
118112  1  0
 10  5  1  0
 22 18  1  0
 41 27  1  0
 78 44  2  0
 95 89  1  0
105100  1  0
117113  1  0
 23  7  1  0
 38 30  1  0
 77 46  2  0
118102  1  0
 65 47  1  0
 76 69  1  0
 63 49  2  0
 58 51  1  0
 85 61  1  0
  1119  1  0
  6120  1  0
  9121  1  0
 17122  1  0
 18123  1  0
 19124  1  0
 20125  1  0
 21126  1  0
 22127  1  0
 22128  1  0
 23129  1  0
 32130  1  0
 32131  1  0
 33132  1  0
 33133  1  0
 33134  1  0
 36135  1  0
 36136  1  0
 37137  1  0
 37138  1  0
 37139  1  0
 43140  1  0
 48141  1  0
 52142  1  0
 53143  1  0
 55144  1  0
 55145  1  0
 56146  1  0
 56147  1  0
 56148  1  0
 57149  1  0
 58150  1  0
 59151  1  0
 59152  1  0
 60153  1  0
 60154  1  0
 60155  1  0
 64156  1  0
 67157  1  0
 67158  1  0
 68159  1  0
 68160  1  0
 68161  1  0
 70162  1  0
 71163  1  0
 73164  1  0
 73165  1  0
 74166  1  0
 74167  1  0
 74168  1  0
 75169  1  0
 76170  1  0
 82171  1  0
 90172  1  0
 92173  1  0
 92174  1  0
 93175  1  0
 93176  1  0
 93177  1  0
 96178  1  0
101179  1  0
104180  1  0
112181  1  0
113182  1  0
114183  1  0
115184  1  0
116185  1  0
117186  1  0
117187  1  0
118188  1  0
M  END

