
     RDKit          3D

222249  0  0  0  0  0  0  0  0999 V2000
    2.6196   -8.8418   -5.3161 C   0  0  0  0  0  0  0  0  0  0  0  0
    2.0309  -10.0356   -5.1159 C   0  0  0  0  0  0  0  0  0  0  0  0
    2.7855  -11.2837   -5.1296 C   0  0  0  0  0  0  0  0  0  0  0  0
    3.9716  -11.4279   -5.5391 O   0  0  0  0  0  0  0  0  0  0  0  0
    1.9933  -12.3176   -4.5037 C   0  0  0  0  0  0  0  0  0  0  0  0
    2.3336  -13.6819   -4.3707 C   0  0  0  0  0  0  0  0  0  0  0  0
    1.3155  -14.4663   -3.8660 C   0  0  0  0  0  0  0  0  0  0  0  0
    0.0369  -13.9416   -3.4908 C   0  0  0  0  0  0  0  0  0  0  0  0
   -0.2951  -12.6036   -3.5923 C   0  0  0  0  0  0  0  0  0  0  0  0
    0.7332  -11.7750   -4.1296 C   0  0  0  0  0  0  0  0  0  0  0  0
    0.6700  -10.3535   -4.5776 C   0  0  0  0  0  0  0  0  0  0  0  0
   -0.4732   -9.6654   -4.8230 C   0  0  0  0  0  0  0  0  0  0  0  0
   -1.7018   -9.9129   -4.1113 C   0  0  0  0  0  0  0  0  0  0  0  0
   -2.6959  -10.0961   -3.5487 N   0  0  0  0  0  0  0  0  0  0  0  0
   -0.5775   -8.7050   -5.8903 C   0  0  0  0  0  0  0  0  0  0  0  0
   -0.6896   -7.9448   -6.7544 N   0  0  0  0  0  0  0  0  0  0  0  0
   -0.4533  -15.3179   -3.1618 C   0  0  0  0  0  0  0  0  0  0  0  0
   -1.4385  -15.9899   -4.1666 C   0  0  0  0  0  0  0  0  0  0  0  0
   -1.1647  -15.5015   -5.5717 C   0  0  0  0  0  0  0  0  0  0  0  0
    0.0226  -15.9965   -5.9228 C   0  0  0  0  0  0  0  0  0  0  0  0
    0.5178  -16.8053   -4.7438 C   0  0  0  0  0  0  0  0  0  0  0  0
   -0.8068  -17.3657   -4.2623 C   0  0  0  0  0  0  0  0  0  0  0  0
    0.8537  -15.8600   -3.5483 C   0  0  0  0  0  0  0  0  0  0  0  0
    2.0438   -7.5469   -4.9381 C   0  0  0  0  0  0  0  0  0  0  0  0
    1.8242   -6.2818   -6.0248 S   0  0  0  0  0  0  0  0  0  0  0  0
    0.9644   -5.2909   -4.9784 C   0  0  0  0  0  0  0  0  0  0  0  0
    0.8971   -5.9057   -3.7250 C   0  0  0  0  0  0  0  0  0  0  0  0
    0.3129   -5.3161   -2.4998 C   0  0  0  0  0  0  0  0  0  0  0  0
   -0.0497   -4.1118   -2.4702 O   0  0  0  0  0  0  0  0  0  0  0  0
    0.2416   -6.1540   -1.2808 C   0  0  0  0  0  0  0  0  0  0  0  0
   -0.4406   -5.8342   -0.0986 C   0  0  0  0  0  0  0  0  0  0  0  0
   -1.2850   -4.6232    0.1865 C   0  0  0  0  0  0  0  0  0  0  0  0
   -0.4307   -3.4638    0.6913 C   0  0  0  0  0  0  0  0  0  0  0  0
   -0.1999   -7.0826    0.9966 S   0  0  0  0  0  0  0  0  0  0  0  0
    0.7574   -8.0493    0.0044 C   0  0  0  0  0  0  0  0  0  0  0  0
    1.2463   -9.4138    0.3939 C   0  0  0  0  0  0  0  0  0  0  0  0
    0.3660  -10.5026   -0.2156 C   0  0  0  0  0  0  0  0  0  0  0  0
    0.8942   -7.4060   -1.2328 C   0  0  0  0  0  0  0  0  0  0  0  0
    1.6153   -7.9260   -2.4236 C   0  0  0  0  0  0  0  0  0  0  0  0
    2.3393   -8.9514   -2.3428 O   0  0  0  0  0  0  0  0  0  0  0  0
    1.5120   -7.1701   -3.6950 C   0  0  0  0  0  0  0  0  0  0  0  0
    0.2410   -4.0885   -5.3880 C   0  0  0  0  0  0  0  0  0  0  0  0
   -1.1155   -3.8767   -5.1244 C   0  0  0  0  0  0  0  0  0  0  0  0
   -1.4431   -2.5408   -5.2780 C   0  0  0  0  0  0  0  0  0  0  0  0
   -2.7268   -1.6283   -4.6843 S   0  0  0  0  0  0  0  0  0  0  0  0
   -1.9080   -0.1654   -4.9557 C   0  0  0  0  0  0  0  0  0  0  0  0
   -2.2412    1.1640   -4.4893 C   0  0  0  0  0  0  0  0  0  0  0  0
   -1.2894    2.1874   -4.5375 C   0  0  0  0  0  0  0  0  0  0  0  0
    0.1781    1.8968   -4.9135 C   0  0  0  0  0  0  0  0  0  0  0  0
    0.2769    0.6471   -5.6347 O   0  0  0  0  0  0  0  0  0  0  0  0
   -0.6459   -0.3887   -5.4690 C   0  0  0  0  0  0  0  0  0  0  0  0
   -0.4091   -1.7366   -5.6609 C   0  0  0  0  0  0  0  0  0  0  0  0
    1.0032   -2.6253   -5.8142 S   0  0  0  0  0  0  0  0  0  0  0  0
    0.6645    3.0111   -5.8362 C   0  0  0  0  0  0  0  0  0  0  0  0
    0.2576    3.0137   -7.1856 C   0  0  0  0  0  0  0  0  0  0  0  0
    0.6668    4.0298   -8.0547 C   0  0  0  0  0  0  0  0  0  0  0  0
    1.4862    5.0707   -7.5919 C   0  0  0  0  0  0  0  0  0  0  0  0
    1.9085    6.1697   -8.5272 C   0  0  0  0  0  0  0  0  0  0  0  0
    0.8137    7.2260   -8.6413 C   0  0  0  0  0  0  0  0  0  0  0  0
    1.8662    5.0975   -6.2424 C   0  0  0  0  0  0  0  0  0  0  0  0
    1.4613    4.0820   -5.3750 C   0  0  0  0  0  0  0  0  0  0  0  0
    1.0822    1.7162   -3.6789 C   0  0  0  0  0  0  0  0  0  0  0  0
    2.4589    1.4832   -3.8807 C   0  0  0  0  0  0  0  0  0  0  0  0
    3.3180    1.2519   -2.8010 C   0  0  0  0  0  0  0  0  0  0  0  0
    2.8155    1.2154   -1.4936 C   0  0  0  0  0  0  0  0  0  0  0  0
    3.7380    0.9743   -0.3283 C   0  0  0  0  0  0  0  0  0  0  0  0
    4.0810    2.2828    0.3797 C   0  0  0  0  0  0  0  0  0  0  0  0
    1.4474    1.4210   -1.2815 C   0  0  0  0  0  0  0  0  0  0  0  0
    0.5861    1.6594   -2.3563 C   0  0  0  0  0  0  0  0  0  0  0  0
   -1.7984    3.3269   -3.9072 C   0  0  0  0  0  0  0  0  0  0  0  0
   -1.1254    4.7977   -3.4711 S   0  0  0  0  0  0  0  0  0  0  0  0
   -2.4334    5.2394   -2.4823 C   0  0  0  0  0  0  0  0  0  0  0  0
   -2.3800    6.2388   -1.4293 C   0  0  0  0  0  0  0  0  0  0  0  0
   -3.0095    5.9333   -0.2311 C   0  0  0  0  0  0  0  0  0  0  0  0
   -3.9262    4.8780   -0.1384 O   0  0  0  0  0  0  0  0  0  0  0  0
   -4.4546    4.2044   -1.3066 C   0  0  0  0  0  0  0  0  0  0  0  0
   -4.8066    2.7794   -0.8809 C   0  0  0  0  0  0  0  0  0  0  0  0
   -3.9178    2.0750   -0.0449 C   0  0  0  0  0  0  0  0  0  0  0  0
   -4.1665    0.7471    0.3111 C   0  0  0  0  0  0  0  0  0  0  0  0
   -5.3000    0.0833   -0.1774 C   0  0  0  0  0  0  0  0  0  0  0  0
   -5.5209   -1.3694    0.1534 C   0  0  0  0  0  0  0  0  0  0  0  0
   -4.6894   -2.2689   -0.7569 C   0  0  0  0  0  0  0  0  0  0  0  0
   -6.1829    0.7676   -1.0271 C   0  0  0  0  0  0  0  0  0  0  0  0
   -5.9422    2.1013   -1.3748 C   0  0  0  0  0  0  0  0  0  0  0  0
   -5.6911    4.9938   -1.7551 C   0  0  0  0  0  0  0  0  0  0  0  0
   -5.9398    5.3112   -3.1094 C   0  0  0  0  0  0  0  0  0  0  0  0
   -7.0430    6.0927   -3.4650 C   0  0  0  0  0  0  0  0  0  0  0  0
   -7.9366    6.5500   -2.4861 C   0  0  0  0  0  0  0  0  0  0  0  0
   -9.0690    7.4657   -2.8578 C   0  0  0  0  0  0  0  0  0  0  0  0
   -8.6818    8.9251   -2.6248 C   0  0  0  0  0  0  0  0  0  0  0  0
   -7.7256    6.1969   -1.1467 C   0  0  0  0  0  0  0  0  0  0  0  0
   -6.6207    5.4207   -0.7867 C   0  0  0  0  0  0  0  0  0  0  0  0
   -3.3669    4.1957   -2.4037 C   0  0  0  0  0  0  0  0  0  0  0  0
   -3.0135    3.1699   -3.2942 C   0  0  0  0  0  0  0  0  0  0  0  0
   -3.6008    1.6205   -3.5916 S   0  0  0  0  0  0  0  0  0  0  0  0
   -2.4550    6.6206    0.8390 C   0  0  0  0  0  0  0  0  0  0  0  0
   -1.4155    7.4438    0.4960 C   0  0  0  0  0  0  0  0  0  0  0  0
   -1.1205    7.3387   -1.1574 S   0  0  0  0  0  0  0  0  0  0  0  0
   -0.5014    7.7012    1.5052 C   0  0  0  0  0  0  0  0  0  0  0  0
   -0.8302    7.0203    2.6801 C   0  0  0  0  0  0  0  0  0  0  0  0
   -2.2479    6.1127    2.4225 S   0  0  0  0  0  0  0  0  0  0  0  0
    0.2137    6.5891    3.6022 C   0  0  0  0  0  0  0  0  0  0  0  0
    1.3364    5.4169    3.1734 S   0  0  0  0  0  0  0  0  0  0  0  0
    2.4345    5.7393    4.3952 C   0  0  0  0  0  0  0  0  0  0  0  0
    1.9576    6.8185    5.1470 C   0  0  0  0  0  0  0  0  0  0  0  0
    2.6840    7.5084    6.2341 C   0  0  0  0  0  0  0  0  0  0  0  0
    3.8199    7.1020    6.5986 O   0  0  0  0  0  0  0  0  0  0  0  0
    2.0467    8.6855    6.8695 C   0  0  0  0  0  0  0  0  0  0  0  0
    2.5947    9.4624    7.8985 C   0  0  0  0  0  0  0  0  0  0  0  0
    3.9530    9.3376    8.5295 C   0  0  0  0  0  0  0  0  0  0  0  0
    5.0361    9.9314    7.6318 C   0  0  0  0  0  0  0  0  0  0  0  0
    1.5130   10.6982    8.2567 S   0  0  0  0  0  0  0  0  0  0  0  0
    0.3223   10.2571    7.1549 C   0  0  0  0  0  0  0  0  0  0  0  0
   -0.9616   11.0139    6.9692 C   0  0  0  0  0  0  0  0  0  0  0  0
   -0.8560   11.9998    5.8078 C   0  0  0  0  0  0  0  0  0  0  0  0
    0.7773    9.1386    6.4464 C   0  0  0  0  0  0  0  0  0  0  0  0
    0.0633    8.4611    5.3349 C   0  0  0  0  0  0  0  0  0  0  0  0
   -1.0619    8.8601    4.9369 O   0  0  0  0  0  0  0  0  0  0  0  0
    0.7092    7.2926    4.7002 C   0  0  0  0  0  0  0  0  0  0  0  0
    3.7593    5.1131    4.4535 C   0  0  0  0  0  0  0  0  0  0  0  0
    4.1382    4.2830    5.4353 C   0  0  0  0  0  0  0  0  0  0  0  0
    3.2639    3.7476    6.4873 C   0  0  0  0  0  0  0  0  0  0  0  0
    2.1635    4.2337    6.8623 O   0  0  0  0  0  0  0  0  0  0  0  0
    3.8451    2.5213    6.9890 C   0  0  0  0  0  0  0  0  0  0  0  0
    3.2626    1.6130    7.9002 C   0  0  0  0  0  0  0  0  0  0  0  0
    3.9878    0.4480    8.0658 C   0  0  0  0  0  0  0  0  0  0  0  0
    5.2081    0.1777    7.3640 C   0  0  0  0  0  0  0  0  0  0  0  0
    5.7869    1.0657    6.4736 C   0  0  0  0  0  0  0  0  0  0  0  0
    5.0745    2.2870    6.3178 C   0  0  0  0  0  0  0  0  0  0  0  0
    5.3701    3.4410    5.4278 C   0  0  0  0  0  0  0  0  0  0  0  0
    6.5782    3.7989    4.9288 C   0  0  0  0  0  0  0  0  0  0  0  0
    7.7457    2.9683    5.0583 C   0  0  0  0  0  0  0  0  0  0  0  0
    8.6918    2.3069    5.1547 N   0  0  0  0  0  0  0  0  0  0  0  0
    6.8040    5.0898    4.3337 C   0  0  0  0  0  0  0  0  0  0  0  0
    6.9911    6.1272    3.8560 N   0  0  0  0  0  0  0  0  0  0  0  0
    5.2822   -1.1844    7.9793 C   0  0  0  0  0  0  0  0  0  0  0  0
    4.9001   -2.3799    7.0574 C   0  0  0  0  0  0  0  0  0  0  0  0
    4.6732   -3.5574    7.9778 C   0  0  0  0  0  0  0  0  0  0  0  0
    3.5430   -3.3014    8.6487 C   0  0  0  0  0  0  0  0  0  0  0  0
    3.0441   -1.9651    8.1542 C   0  0  0  0  0  0  0  0  0  0  0  0
    3.4526   -2.0868    6.6938 C   0  0  0  0  0  0  0  0  0  0  0  0
    4.0407   -0.9030    8.7085 C   0  0  0  0  0  0  0  0  0  0  0  0
    3.6121   -8.8171   -5.7559 H   0  0  0  0  0  0  0  0  0  0  0  0
    3.2789  -14.0928   -4.6951 H   0  0  0  0  0  0  0  0  0  0  0  0
   -1.2824  -12.2708   -3.3229 H   0  0  0  0  0  0  0  0  0  0  0  0
   -0.6983  -15.4688   -2.0869 H   0  0  0  0  0  0  0  0  0  0  0  0
   -2.5074  -15.9720   -3.8666 H   0  0  0  0  0  0  0  0  0  0  0  0
   -1.8245  -14.9213   -6.2077 H   0  0  0  0  0  0  0  0  0  0  0  0
    0.5017  -15.8790   -6.8905 H   0  0  0  0  0  0  0  0  0  0  0  0
    1.2935  -17.5613   -4.9887 H   0  0  0  0  0  0  0  0  0  0  0  0
   -1.3073  -18.0324   -5.0112 H   0  0  0  0  0  0  0  0  0  0  0  0
   -0.7361  -17.8978   -3.2848 H   0  0  0  0  0  0  0  0  0  0  0  0
    1.4083  -16.3381   -2.7107 H   0  0  0  0  0  0  0  0  0  0  0  0
   -2.0393   -4.8783    0.9614 H   0  0  0  0  0  0  0  0  0  0  0  0
   -1.8436   -4.3166   -0.7243 H   0  0  0  0  0  0  0  0  0  0  0  0
   -1.0694   -2.5643    0.8251 H   0  0  0  0  0  0  0  0  0  0  0  0
    0.0202   -3.7229    1.6766 H   0  0  0  0  0  0  0  0  0  0  0  0
    0.3781   -3.2180   -0.0283 H   0  0  0  0  0  0  0  0  0  0  0  0
    2.3011   -9.5466    0.0852 H   0  0  0  0  0  0  0  0  0  0  0  0
    1.2155   -9.5051    1.5021 H   0  0  0  0  0  0  0  0  0  0  0  0
    0.3773  -10.4455   -1.3265 H   0  0  0  0  0  0  0  0  0  0  0  0
    0.7463  -11.5012    0.0922 H   0  0  0  0  0  0  0  0  0  0  0  0
   -0.6805  -10.3889    0.1379 H   0  0  0  0  0  0  0  0  0  0  0  0
   -1.7790   -4.6161   -4.6964 H   0  0  0  0  0  0  0  0  0  0  0  0
   -0.3847    2.2306   -7.5667 H   0  0  0  0  0  0  0  0  0  0  0  0
    0.3394    4.0113   -9.0857 H   0  0  0  0  0  0  0  0  0  0  0  0
    2.8459    6.6472   -8.1637 H   0  0  0  0  0  0  0  0  0  0  0  0
    2.1191    5.7496   -9.5339 H   0  0  0  0  0  0  0  0  0  0  0  0
    1.1399    8.0241   -9.3402 H   0  0  0  0  0  0  0  0  0  0  0  0
    0.6118    7.6790   -7.6463 H   0  0  0  0  0  0  0  0  0  0  0  0
   -0.1210    6.7695   -9.0344 H   0  0  0  0  0  0  0  0  0  0  0  0
    2.4670    5.9144   -5.8588 H   0  0  0  0  0  0  0  0  0  0  0  0
    1.7611    4.1510   -4.3399 H   0  0  0  0  0  0  0  0  0  0  0  0
    2.8708    1.4714   -4.8806 H   0  0  0  0  0  0  0  0  0  0  0  0
    4.3702    1.0851   -2.9898 H   0  0  0  0  0  0  0  0  0  0  0  0
    4.6818    0.4949   -0.6696 H   0  0  0  0  0  0  0  0  0  0  0  0
    3.2565    0.2831    0.3967 H   0  0  0  0  0  0  0  0  0  0  0  0
    4.6027    2.9670   -0.3219 H   0  0  0  0  0  0  0  0  0  0  0  0
    3.1592    2.7719    0.7559 H   0  0  0  0  0  0  0  0  0  0  0  0
    4.7491    2.0722    1.2437 H   0  0  0  0  0  0  0  0  0  0  0  0
    1.0430    1.3836   -0.2768 H   0  0  0  0  0  0  0  0  0  0  0  0
   -0.4674    1.7744   -2.1382 H   0  0  0  0  0  0  0  0  0  0  0  0
   -3.0177    2.5506    0.3224 H   0  0  0  0  0  0  0  0  0  0  0  0
   -3.4618    0.2274    0.9520 H   0  0  0  0  0  0  0  0  0  0  0  0
   -6.5960   -1.6326    0.0349 H   0  0  0  0  0  0  0  0  0  0  0  0
   -5.2419   -1.5596    1.2113 H   0  0  0  0  0  0  0  0  0  0  0  0
   -4.8435   -3.3307   -0.4675 H   0  0  0  0  0  0  0  0  0  0  0  0
   -3.6098   -2.0286   -0.6537 H   0  0  0  0  0  0  0  0  0  0  0  0
   -4.9918   -2.1353   -1.8193 H   0  0  0  0  0  0  0  0  0  0  0  0
   -7.0536    0.2634   -1.4319 H   0  0  0  0  0  0  0  0  0  0  0  0
   -6.6356    2.5845   -2.0497 H   0  0  0  0  0  0  0  0  0  0  0  0
   -5.2782    4.9771   -3.8967 H   0  0  0  0  0  0  0  0  0  0  0  0
   -7.1862    6.3542   -4.5070 H   0  0  0  0  0  0  0  0  0  0  0  0
   -9.9656    7.2227   -2.2443 H   0  0  0  0  0  0  0  0  0  0  0  0
   -9.3442    7.3261   -3.9276 H   0  0  0  0  0  0  0  0  0  0  0  0
   -8.4883    9.1068   -1.5475 H   0  0  0  0  0  0  0  0  0  0  0  0
   -9.5113    9.5876   -2.9518 H   0  0  0  0  0  0  0  0  0  0  0  0
   -7.7727    9.1798   -3.2092 H   0  0  0  0  0  0  0  0  0  0  0  0
   -8.4017    6.5438   -0.3777 H   0  0  0  0  0  0  0  0  0  0  0  0
   -6.4805    5.1629    0.2573 H   0  0  0  0  0  0  0  0  0  0  0  0
    0.4729    8.1354    1.3210 H   0  0  0  0  0  0  0  0  0  0  0  0
    4.1845    8.2735    8.7498 H   0  0  0  0  0  0  0  0  0  0  0  0
    3.9548    9.8763    9.5008 H   0  0  0  0  0  0  0  0  0  0  0  0
    4.8232   11.0053    7.4357 H   0  0  0  0  0  0  0  0  0  0  0  0
    6.0204    9.8587    8.1384 H   0  0  0  0  0  0  0  0  0  0  0  0
    5.0895    9.3908    6.6649 H   0  0  0  0  0  0  0  0  0  0  0  0
   -1.1890   11.5794    7.8972 H   0  0  0  0  0  0  0  0  0  0  0  0
   -1.8048   10.3116    6.8023 H   0  0  0  0  0  0  0  0  0  0  0  0
   -0.5711   11.4766    4.8698 H   0  0  0  0  0  0  0  0  0  0  0  0
   -1.8426   12.4958    5.6557 H   0  0  0  0  0  0  0  0  0  0  0  0
   -0.0968   12.7802    6.0384 H   0  0  0  0  0  0  0  0  0  0  0  0
    4.3672    5.2096    3.5671 H   0  0  0  0  0  0  0  0  0  0  0  0
    2.3087    1.7859    8.3872 H   0  0  0  0  0  0  0  0  0  0  0  0
    6.6690    0.7967    5.9153 H   0  0  0  0  0  0  0  0  0  0  0  0
    6.1742   -1.3368    8.6255 H   0  0  0  0  0  0  0  0  0  0  0  0
    5.5853   -2.5685    6.2030 H   0  0  0  0  0  0  0  0  0  0  0  0
    5.2467   -4.4757    8.0245 H   0  0  0  0  0  0  0  0  0  0  0  0
    3.0398   -3.9780    9.3316 H   0  0  0  0  0  0  0  0  0  0  0  0
    1.9684   -1.7561    8.3465 H   0  0  0  0  0  0  0  0  0  0  0  0
    2.9474   -2.9299    6.1630 H   0  0  0  0  0  0  0  0  0  0  0  0
    3.3106   -1.1574    6.1026 H   0  0  0  0  0  0  0  0  0  0  0  0
    4.1516   -0.8729    9.8151 H   0  0  0  0  0  0  0  0  0  0  0  0
  1  2  2  3
  2  3  1  0
  3  4  2  0
  3  5  1  0
  5  6  2  0
  6  7  1  0
  7  8  2  0
  8  9  1  0
  9 10  2  0
 10 11  1  0
 11 12  2  3
 12 13  1  0
 13 14  3  0
 12 15  1  0
 15 16  3  0
  8 17  1  0
 17 18  1  0
 18 19  1  0
 19 20  2  0
 20 21  1  0
 21 22  1  0
 21 23  1  0
  1 24  1  0
 24 25  1  0
 25 26  1  0
 26 27  2  0
 27 28  1  0
 28 29  2  0
 28 30  1  0
 30 31  2  0
 31 32  1  0
 32 33  1  0
 31 34  1  0
 34 35  1  0
 35 36  1  0
 36 37  1  0
 35 38  2  0
 38 39  1  0
 39 40  2  0
 39 41  1  0
 26 42  1  0
 42 43  2  0
 43 44  1  0
 44 45  1  0
 45 46  1  0
 46 47  1  0
 47 48  2  0
 48 49  1  0
 49 50  1  0
 50 51  1  0
 51 52  1  0
 52 53  1  0
 49 54  1  0
 54 55  2  0
 55 56  1  0
 56 57  2  0
 57 58  1  0
 58 59  1  0
 57 60  1  0
 60 61  2  0
 49 62  1  0
 62 63  2  0
 63 64  1  0
 64 65  2  0
 65 66  1  0
 66 67  1  0
 65 68  1  0
 68 69  2  0
 48 70  1  0
 70 71  1  0
 71 72  1  0
 72 73  1  0
 73 74  2  0
 74 75  1  0
 75 76  1  0
 76 77  1  0
 77 78  2  0
 78 79  1  0
 79 80  2  0
 80 81  1  0
 81 82  1  0
 80 83  1  0
 83 84  2  0
 76 85  1  0
 85 86  2  0
 86 87  1  0
 87 88  2  0
 88 89  1  0
 89 90  1  0
 88 91  1  0
 91 92  2  0
 76 93  1  0
 93 94  1  0
 94 95  1  0
 74 96  1  0
 96 97  2  0
 97 98  1  0
 97 99  1  0
 99100  2  0
100101  1  0
100102  1  0
102103  1  0
103104  1  0
104105  2  0
105106  1  0
106107  2  0
106108  1  0
108109  2  0
109110  1  0
110111  1  0
109112  1  0
112113  1  0
113114  1  0
114115  1  0
113116  2  0
116117  1  0
117118  2  0
117119  1  0
104120  1  0
120121  2  3
121122  1  0
122123  2  0
122124  1  0
124125  2  0
125126  1  0
126127  2  0
127128  1  0
128129  2  0
129130  1  0
130131  2  3
131132  1  0
132133  3  0
131134  1  0
134135  3  0
127136  1  0
136137  1  0
137138  1  0
138139  2  0
139140  1  0
140141  1  0
140142  1  0
 11  2  1  0
 23 17  1  0
 41 24  2  0
 53 42  1  0
 61 54  1  0
 69 62  1  0
 94 70  2  0
101 96  1  0
119102  2  0
130121  1  0
142136  1  0
 10  5  1  0
 22 18  1  0
 41 27  1  0
 52 44  2  0
 93 72  2  0
119105  1  0
129124  1  0
141137  1  0
 23  7  1  0
 38 30  1  0
 51 46  2  0
 98 73  1  0
116108  1  0
142126  1  0
 95 47  1  0
 84 77  1  0
 92 85  1  0
  1143  1  0
  6144  1  0
  9145  1  0
 17146  1  0
 18147  1  0
 19148  1  0
 20149  1  0
 21150  1  0
 22151  1  0
 22152  1  0
 23153  1  0
 32154  1  0
 32155  1  0
 33156  1  0
 33157  1  0
 33158  1  0
 36159  1  0
 36160  1  0
 37161  1  0
 37162  1  0
 37163  1  0
 43164  1  0
 55165  1  0
 56166  1  0
 58167  1  0
 58168  1  0
 59169  1  0
 59170  1  0
 59171  1  0
 60172  1  0
 61173  1  0
 63174  1  0
 64175  1  0
 66176  1  0
 66177  1  0
 67178  1  0
 67179  1  0
 67180  1  0
 68181  1  0
 69182  1  0
 78183  1  0
 79184  1  0
 81185  1  0
 81186  1  0
 82187  1  0
 82188  1  0
 82189  1  0
 83190  1  0
 84191  1  0
 86192  1  0
 87193  1  0
 89194  1  0
 89195  1  0
 90196  1  0
 90197  1  0
 90198  1  0
 91199  1  0
 92200  1  0
 99201  1  0
110202  1  0
110203  1  0
111204  1  0
111205  1  0
111206  1  0
114207  1  0
114208  1  0
115209  1  0
115210  1  0
115211  1  0
120212  1  0
125213  1  0
128214  1  0
136215  1  0
137216  1  0
138217  1  0
139218  1  0
140219  1  0
141220  1  0
141221  1  0
142222  1  0
M  END

