
     RDKit          3D

207234  0  0  0  0  0  0  0  0999 V2000
    8.9866   -3.4430    1.3803 C   0  0  0  0  0  0  0  0  0  0  0  0
    7.8141   -3.9921    1.0014 C   0  0  0  0  0  0  0  0  0  0  0  0
    6.5740   -3.2422    0.7513 C   0  0  0  0  0  0  0  0  0  0  0  0
    6.3080   -2.0762    1.1531 O   0  0  0  0  0  0  0  0  0  0  0  0
    5.6840   -4.0593   -0.0395 C   0  0  0  0  0  0  0  0  0  0  0  0
    4.4380   -3.6760   -0.5792 C   0  0  0  0  0  0  0  0  0  0  0  0
    3.8599   -4.6420   -1.3800 C   0  0  0  0  0  0  0  0  0  0  0  0
    4.4691   -5.9110   -1.6451 C   0  0  0  0  0  0  0  0  0  0  0  0
    5.6867   -6.2954   -1.1101 C   0  0  0  0  0  0  0  0  0  0  0  0
    6.2913   -5.3255   -0.2602 C   0  0  0  0  0  0  0  0  0  0  0  0
    7.5896   -5.3746    0.4818 C   0  0  0  0  0  0  0  0  0  0  0  0
    8.3031   -6.4850    0.7954 C   0  0  0  0  0  0  0  0  0  0  0  0
    9.3730   -6.4633    1.7594 C   0  0  0  0  0  0  0  0  0  0  0  0
   10.2308   -6.4583    2.5350 N   0  0  0  0  0  0  0  0  0  0  0  0
    7.9499   -7.7972    0.3095 C   0  0  0  0  0  0  0  0  0  0  0  0
    7.6773   -8.8583   -0.0677 N   0  0  0  0  0  0  0  0  0  0  0  0
    3.3124   -6.2998   -2.5168 C   0  0  0  0  0  0  0  0  0  0  0  0
    2.3063   -7.3289   -1.9203 C   0  0  0  0  0  0  0  0  0  0  0  0
    1.0713   -7.2508   -2.7849 C   0  0  0  0  0  0  0  0  0  0  0  0
    0.4992   -6.0703   -2.5186 C   0  0  0  0  0  0  0  0  0  0  0  0
    1.3715   -5.3900   -1.4911 C   0  0  0  0  0  0  0  0  0  0  0  0
    1.7754   -6.6153   -0.6878 C   0  0  0  0  0  0  0  0  0  0  0  0
    2.6833   -5.0050   -2.2368 C   0  0  0  0  0  0  0  0  0  0  0  0
    9.1272   -1.9915    1.5663 C   0  0  0  0  0  0  0  0  0  0  0  0
    9.1350   -1.1614    0.4291 C   0  0  0  0  0  0  0  0  0  0  0  0
    8.9869    0.2115    0.6137 C   0  0  0  0  0  0  0  0  0  0  0  0
    8.6430    1.2237   -0.3774 C   0  0  0  0  0  0  0  0  0  0  0  0
    8.6082    1.0724   -1.6269 O   0  0  0  0  0  0  0  0  0  0  0  0
    8.2305    2.4049    0.3682 C   0  0  0  0  0  0  0  0  0  0  0  0
    8.3693    2.1439    1.7202 C   0  0  0  0  0  0  0  0  0  0  0  0
    8.8319    0.7607    1.8776 C   0  0  0  0  0  0  0  0  0  0  0  0
    8.8837   -0.0363    3.0218 C   0  0  0  0  0  0  0  0  0  0  0  0
    9.0495   -1.4260    2.8588 C   0  0  0  0  0  0  0  0  0  0  0  0
    7.8596    3.0221    2.6767 C   0  0  0  0  0  0  0  0  0  0  0  0
    7.1886    4.1761    2.2315 C   0  0  0  0  0  0  0  0  0  0  0  0
    7.0064    4.4269    0.8474 C   0  0  0  0  0  0  0  0  0  0  0  0
    7.5377    3.5179   -0.0923 C   0  0  0  0  0  0  0  0  0  0  0  0
    6.0950    5.5099    0.4029 C   0  0  0  0  0  0  0  0  0  0  0  0
    6.1528    6.2290   -0.8126 C   0  0  0  0  0  0  0  0  0  0  0  0
    7.2621    6.1398   -1.7874 C   0  0  0  0  0  0  0  0  0  0  0  0
    8.5802    6.3957   -1.3792 C   0  0  0  0  0  0  0  0  0  0  0  0
    9.6379    6.2426   -2.2812 C   0  0  0  0  0  0  0  0  0  0  0  0
    9.3900    5.8202   -3.5901 C   0  0  0  0  0  0  0  0  0  0  0  0
    8.0801    5.5392   -4.0060 C   0  0  0  0  0  0  0  0  0  0  0  0
    7.8082    5.0733   -5.4121 C   0  0  0  0  0  0  0  0  0  0  0  0
    7.3786    6.2376   -6.3002 C   0  0  0  0  0  0  0  0  0  0  0  0
    7.0175    5.7192   -3.1051 C   0  0  0  0  0  0  0  0  0  0  0  0
    4.9607    6.9300   -1.0385 C   0  0  0  0  0  0  0  0  0  0  0  0
    4.3143    7.6531   -2.4330 S   0  0  0  0  0  0  0  0  0  0  0  0
    2.7831    7.8002   -1.7170 C   0  0  0  0  0  0  0  0  0  0  0  0
    1.5167    7.7196   -2.2276 C   0  0  0  0  0  0  0  0  0  0  0  0
    1.1321    7.6904   -3.5743 C   0  0  0  0  0  0  0  0  0  0  0  0
   -0.1370    7.1556   -3.9156 C   0  0  0  0  0  0  0  0  0  0  0  0
   -0.4459    7.0831   -5.2346 N   0  0  0  0  0  0  0  0  0  0  0  0
    0.9456    7.7049   -5.8797 S   0  0  0  0  0  0  0  0  0  0  0  0
    1.9328    8.0672   -4.6019 N   0  0  0  0  0  0  0  0  0  0  0  0
   -0.9831    6.7410   -2.8914 C   0  0  0  0  0  0  0  0  0  0  0  0
   -2.2009    6.1288   -2.9394 C   0  0  0  0  0  0  0  0  0  0  0  0
   -3.0757    5.1904   -4.0506 S   0  0  0  0  0  0  0  0  0  0  0  0
   -4.0024    4.5030   -2.7846 C   0  0  0  0  0  0  0  0  0  0  0  0
   -4.8477    3.3877   -2.7146 C   0  0  0  0  0  0  0  0  0  0  0  0
   -5.2827    2.5887   -3.8788 C   0  0  0  0  0  0  0  0  0  0  0  0
   -6.6277    2.2086   -4.0061 C   0  0  0  0  0  0  0  0  0  0  0  0
   -7.0325    1.4036   -5.0725 C   0  0  0  0  0  0  0  0  0  0  0  0
   -6.1014    0.9711   -6.0194 C   0  0  0  0  0  0  0  0  0  0  0  0
   -4.7538    1.3514   -5.9115 C   0  0  0  0  0  0  0  0  0  0  0  0
   -3.7342    0.8533   -6.9008 C   0  0  0  0  0  0  0  0  0  0  0  0
   -2.9566   -0.3259   -6.3247 C   0  0  0  0  0  0  0  0  0  0  0  0
   -4.3509    2.1542   -4.8347 C   0  0  0  0  0  0  0  0  0  0  0  0
   -5.1281    3.0579   -1.3743 C   0  0  0  0  0  0  0  0  0  0  0  0
   -4.2981    4.1175   -0.3275 S   0  0  0  0  0  0  0  0  0  0  0  0
   -3.6264    5.0128   -1.5675 C   0  0  0  0  0  0  0  0  0  0  0  0
   -2.5854    5.9187   -1.6624 C   0  0  0  0  0  0  0  0  0  0  0  0
   -1.6838    6.3630   -0.7546 N   0  0  0  0  0  0  0  0  0  0  0  0
   -0.6376    6.8196   -1.5281 C   0  0  0  0  0  0  0  0  0  0  0  0
    0.6979    7.2188   -1.1932 C   0  0  0  0  0  0  0  0  0  0  0  0
    1.4813    6.9076   -0.0986 N   0  0  0  0  0  0  0  0  0  0  0  0
    2.7405    7.2713   -0.4643 C   0  0  0  0  0  0  0  0  0  0  0  0
    3.9940    6.7847   -0.0737 C   0  0  0  0  0  0  0  0  0  0  0  0
    4.5673    5.7567    1.1183 S   0  0  0  0  0  0  0  0  0  0  0  0
    1.1893    6.0280    1.0399 C   0  0  0  0  0  0  0  0  0  0  0  0
    0.9825    4.5831    0.5897 C   0  0  0  0  0  0  0  0  0  0  0  0
   -2.0468    6.6406    0.6432 C   0  0  0  0  0  0  0  0  0  0  0  0
   -1.7392    8.0875    1.0382 C   0  0  0  0  0  0  0  0  0  0  0  0
   -5.7087    1.7991   -0.8846 C   0  0  0  0  0  0  0  0  0  0  0  0
   -5.3638    0.5295   -1.3475 C   0  0  0  0  0  0  0  0  0  0  0  0
   -5.7555   -0.4997   -0.4756 C   0  0  0  0  0  0  0  0  0  0  0  0
   -5.4537   -1.8721   -0.6197 C   0  0  0  0  0  0  0  0  0  0  0  0
   -4.8897   -2.4236   -1.8813 C   0  0  0  0  0  0  0  0  0  0  0  0
   -5.3895   -2.1724   -3.1567 C   0  0  0  0  0  0  0  0  0  0  0  0
   -4.8156   -2.9768   -4.1496 C   0  0  0  0  0  0  0  0  0  0  0  0
   -3.8396   -3.8324   -3.6626 C   0  0  0  0  0  0  0  0  0  0  0  0
   -3.0331   -5.1413   -4.5870 S   0  0  0  0  0  0  0  0  0  0  0  0
   -1.7206   -4.0930   -5.3064 C   0  0  0  0  0  0  0  0  0  0  0  0
   -1.9915   -3.8727   -6.7879 C   0  0  0  0  0  0  0  0  0  0  0  0
   -3.7036   -3.6191   -2.0053 S   0  0  0  0  0  0  0  0  0  0  0  0
   -5.7685   -2.7001    0.4786 C   0  0  0  0  0  0  0  0  0  0  0  0
   -6.4180   -2.2231    1.6274 C   0  0  0  0  0  0  0  0  0  0  0  0
   -6.7972   -0.8705    1.7291 C   0  0  0  0  0  0  0  0  0  0  0  0
   -7.6018   -0.3709    2.8639 C   0  0  0  0  0  0  0  0  0  0  0  0
   -7.3644    0.7794    3.6137 C   0  0  0  0  0  0  0  0  0  0  0  0
   -8.3662    1.0420    4.5588 C   0  0  0  0  0  0  0  0  0  0  0  0
   -9.3901    0.1048    4.5389 C   0  0  0  0  0  0  0  0  0  0  0  0
  -10.8663    0.1385    5.5572 S   0  0  0  0  0  0  0  0  0  0  0  0
  -11.9513    0.7968    4.2393 C   0  0  0  0  0  0  0  0  0  0  0  0
  -11.7170    2.2862    4.0177 C   0  0  0  0  0  0  0  0  0  0  0  0
   -9.0550   -1.0584    3.3764 S   0  0  0  0  0  0  0  0  0  0  0  0
   -6.4104   -0.0295    0.6714 C   0  0  0  0  0  0  0  0  0  0  0  0
   -6.5096    1.6490    0.5898 S   0  0  0  0  0  0  0  0  0  0  0  0
   -6.5418   -3.1903    2.6420 C   0  0  0  0  0  0  0  0  0  0  0  0
   -6.0014   -4.4180    2.2832 C   0  0  0  0  0  0  0  0  0  0  0  0
   -5.3828   -4.3221    0.7168 S   0  0  0  0  0  0  0  0  0  0  0  0
   -5.7253   -5.5126    3.2208 C   0  0  0  0  0  0  0  0  0  0  0  0
   -4.5396   -5.6363    3.8488 C   0  0  0  0  0  0  0  0  0  0  0  0
   -3.4641   -4.6300    3.8347 C   0  0  0  0  0  0  0  0  0  0  0  0
   -3.3607   -3.6500    3.0486 O   0  0  0  0  0  0  0  0  0  0  0  0
   -2.5536   -4.9091    4.9207 C   0  0  0  0  0  0  0  0  0  0  0  0
   -1.4658   -4.1075    5.3402 C   0  0  0  0  0  0  0  0  0  0  0  0
   -0.8440   -4.5661    6.4843 C   0  0  0  0  0  0  0  0  0  0  0  0
   -1.2663   -5.7395    7.1888 C   0  0  0  0  0  0  0  0  0  0  0  0
   -2.3363   -6.5221    6.7880 C   0  0  0  0  0  0  0  0  0  0  0  0
   -2.9766   -6.0833    5.5935 C   0  0  0  0  0  0  0  0  0  0  0  0
   -4.1660   -6.6438    4.8904 C   0  0  0  0  0  0  0  0  0  0  0  0
   -4.6563   -7.9081    5.0034 C   0  0  0  0  0  0  0  0  0  0  0  0
   -5.6522   -8.4308    4.1052 C   0  0  0  0  0  0  0  0  0  0  0  0
   -6.4490   -8.8643    3.3852 N   0  0  0  0  0  0  0  0  0  0  0  0
   -4.1156   -8.8740    5.9277 C   0  0  0  0  0  0  0  0  0  0  0  0
   -3.6931   -9.6651    6.6607 N   0  0  0  0  0  0  0  0  0  0  0  0
   -0.2058   -5.5172    8.2261 C   0  0  0  0  0  0  0  0  0  0  0  0
   -0.6507   -4.9681    9.6165 C   0  0  0  0  0  0  0  0  0  0  0  0
   -1.8758   -4.0977    9.4609 C   0  0  0  0  0  0  0  0  0  0  0  0
   -1.4850   -3.0022    8.8048 C   0  0  0  0  0  0  0  0  0  0  0  0
   -0.0061   -3.1670    8.5330 C   0  0  0  0  0  0  0  0  0  0  0  0
    0.3912   -3.8807    9.8128 C   0  0  0  0  0  0  0  0  0  0  0  0
    0.2254   -4.3153    7.5040 C   0  0  0  0  0  0  0  0  0  0  0  0
    9.8950   -4.0239    1.4089 H   0  0  0  0  0  0  0  0  0  0  0  0
    3.9865   -2.7060   -0.4113 H   0  0  0  0  0  0  0  0  0  0  0  0
    6.1218   -7.2446   -1.3676 H   0  0  0  0  0  0  0  0  0  0  0  0
    3.5935   -6.4641   -3.5814 H   0  0  0  0  0  0  0  0  0  0  0  0
    2.7049   -8.3512   -1.7542 H   0  0  0  0  0  0  0  0  0  0  0  0
    0.6590   -8.0284   -3.4195 H   0  0  0  0  0  0  0  0  0  0  0  0
   -0.4609   -5.7310   -2.8882 H   0  0  0  0  0  0  0  0  0  0  0  0
    0.8861   -4.5715   -0.9185 H   0  0  0  0  0  0  0  0  0  0  0  0
    0.9096   -7.1374   -0.2136 H   0  0  0  0  0  0  0  0  0  0  0  0
    2.5442   -6.4192    0.0902 H   0  0  0  0  0  0  0  0  0  0  0  0
    2.5611   -4.3527   -3.1272 H   0  0  0  0  0  0  0  0  0  0  0  0
    9.1371   -1.5799   -0.5710 H   0  0  0  0  0  0  0  0  0  0  0  0
    8.7196    0.3867    4.0042 H   0  0  0  0  0  0  0  0  0  0  0  0
    9.0269   -2.0697    3.7300 H   0  0  0  0  0  0  0  0  0  0  0  0
    7.9240    2.7953    3.7354 H   0  0  0  0  0  0  0  0  0  0  0  0
    6.7525    4.8438    2.9645 H   0  0  0  0  0  0  0  0  0  0  0  0
    7.3313    3.6038   -1.1507 H   0  0  0  0  0  0  0  0  0  0  0  0
    8.7920    6.7078   -0.3621 H   0  0  0  0  0  0  0  0  0  0  0  0
   10.6535    6.4443   -1.9631 H   0  0  0  0  0  0  0  0  0  0  0  0
   10.2230    5.7012   -4.2751 H   0  0  0  0  0  0  0  0  0  0  0  0
    8.7166    4.5988   -5.8466 H   0  0  0  0  0  0  0  0  0  0  0  0
    7.0057    4.3021   -5.4074 H   0  0  0  0  0  0  0  0  0  0  0  0
    8.1635    7.0243   -6.3120 H   0  0  0  0  0  0  0  0  0  0  0  0
    6.4278    6.6733   -5.9264 H   0  0  0  0  0  0  0  0  0  0  0  0
    7.2194    5.8776   -7.3386 H   0  0  0  0  0  0  0  0  0  0  0  0
    6.0086    5.4903   -3.4204 H   0  0  0  0  0  0  0  0  0  0  0  0
   -7.3623    2.5310   -3.2787 H   0  0  0  0  0  0  0  0  0  0  0  0
   -8.0694    1.1080   -5.1659 H   0  0  0  0  0  0  0  0  0  0  0  0
   -6.4282    0.3335   -6.8336 H   0  0  0  0  0  0  0  0  0  0  0  0
   -4.2312    0.5344   -7.8424 H   0  0  0  0  0  0  0  0  0  0  0  0
   -3.0247    1.6710   -7.1556 H   0  0  0  0  0  0  0  0  0  0  0  0
   -2.3949   -0.0193   -5.4148 H   0  0  0  0  0  0  0  0  0  0  0  0
   -2.2336   -0.6990   -7.0789 H   0  0  0  0  0  0  0  0  0  0  0  0
   -3.6539   -1.1475   -6.0595 H   0  0  0  0  0  0  0  0  0  0  0  0
   -3.3039    2.4107   -4.7236 H   0  0  0  0  0  0  0  0  0  0  0  0
    0.3552    6.4132    1.6345 H   0  0  0  0  0  0  0  0  0  0  0  0
    2.0151    6.0565    1.7738 H   0  0  0  0  0  0  0  0  0  0  0  0
    0.8783    3.9301    1.4792 H   0  0  0  0  0  0  0  0  0  0  0  0
    1.8563    4.2488   -0.0075 H   0  0  0  0  0  0  0  0  0  0  0  0
    0.0667    4.4924   -0.0266 H   0  0  0  0  0  0  0  0  0  0  0  0
   -3.1432    6.5226    0.7715 H   0  0  0  0  0  0  0  0  0  0  0  0
   -1.6198    5.8795    1.3228 H   0  0  0  0  0  0  0  0  0  0  0  0
   -2.3017    8.7851    0.3806 H   0  0  0  0  0  0  0  0  0  0  0  0
   -0.6624    8.3191    0.9475 H   0  0  0  0  0  0  0  0  0  0  0  0
   -2.0468    8.2622    2.0891 H   0  0  0  0  0  0  0  0  0  0  0  0
   -4.7461    0.3703   -2.2215 H   0  0  0  0  0  0  0  0  0  0  0  0
   -6.1961   -1.4777   -3.3622 H   0  0  0  0  0  0  0  0  0  0  0  0
   -5.1293   -2.9582   -5.1839 H   0  0  0  0  0  0  0  0  0  0  0  0
   -1.6452   -3.1143   -4.7879 H   0  0  0  0  0  0  0  0  0  0  0  0
   -0.7496   -4.6192   -5.1887 H   0  0  0  0  0  0  0  0  0  0  0  0
   -1.1860   -3.2503   -7.2266 H   0  0  0  0  0  0  0  0  0  0  0  0
   -2.0215   -4.8474   -7.3198 H   0  0  0  0  0  0  0  0  0  0  0  0
   -2.9623   -3.3551   -6.9295 H   0  0  0  0  0  0  0  0  0  0  0  0
   -6.4972    1.4123    3.4859 H   0  0  0  0  0  0  0  0  0  0  0  0
   -8.3506    1.8971    5.2195 H   0  0  0  0  0  0  0  0  0  0  0  0
  -11.7876    0.2384    3.2927 H   0  0  0  0  0  0  0  0  0  0  0  0
  -13.0082    0.6416    4.5444 H   0  0  0  0  0  0  0  0  0  0  0  0
  -12.4115    2.6541    3.2362 H   0  0  0  0  0  0  0  0  0  0  0  0
  -11.9057    2.8456    4.9577 H   0  0  0  0  0  0  0  0  0  0  0  0
  -10.6769    2.4760    3.6796 H   0  0  0  0  0  0  0  0  0  0  0  0
   -6.9301   -2.9860    3.6307 H   0  0  0  0  0  0  0  0  0  0  0  0
   -6.5537   -6.1526    3.4756 H   0  0  0  0  0  0  0  0  0  0  0  0
   -1.1711   -3.1927    4.8429 H   0  0  0  0  0  0  0  0  0  0  0  0
   -2.6623   -7.3545    7.3880 H   0  0  0  0  0  0  0  0  0  0  0  0
    0.5678   -6.3167    8.2615 H   0  0  0  0  0  0  0  0  0  0  0  0
   -0.7118   -5.7227   10.4288 H   0  0  0  0  0  0  0  0  0  0  0  0
   -2.8666   -4.2796    9.8629 H   0  0  0  0  0  0  0  0  0  0  0  0
   -2.1043   -2.1400    8.5848 H   0  0  0  0  0  0  0  0  0  0  0  0
    0.5390   -2.2219    8.3247 H   0  0  0  0  0  0  0  0  0  0  0  0
    0.2256   -3.2700   10.7353 H   0  0  0  0  0  0  0  0  0  0  0  0
    1.4417   -4.2609    9.7999 H   0  0  0  0  0  0  0  0  0  0  0  0
    1.2623   -4.3821    7.1008 H   0  0  0  0  0  0  0  0  0  0  0  0
  1  2  2  3
  2  3  1  0
  3  4  2  0
  3  5  1  0
  5  6  2  0
  6  7  1  0
  7  8  2  0
  8  9  1  0
  9 10  2  0
 10 11  1  0
 11 12  2  3
 12 13  1  0
 13 14  3  0
 12 15  1  0
 15 16  3  0
  8 17  1  0
 17 18  1  0
 18 19  1  0
 19 20  2  0
 20 21  1  0
 21 22  1  0
 21 23  1  0
  1 24  1  0
 24 25  2  0
 25 26  1  0
 26 27  1  0
 27 28  2  0
 27 29  1  0
 29 30  2  0
 30 31  1  0
 31 32  1  0
 32 33  2  0
 30 34  1  0
 34 35  2  0
 35 36  1  0
 36 37  2  0
 36 38  1  0
 38 39  2  0
 39 40  1  0
 40 41  2  0
 41 42  1  0
 42 43  2  0
 43 44  1  0
 44 45  1  0
 45 46  1  0
 44 47  2  0
 39 48  1  0
 48 49  1  0
 49 50  1  0
 50 51  1  0
 51 52  1  0
 52 53  1  0
 53 54  2  0
 54 55  1  0
 55 56  1  0
 53 57  1  0
 57 58  1  0
 58 59  1  0
 59 60  1  0
 60 61  1  0
 61 62  1  0
 62 63  2  0
 63 64  1  0
 64 65  2  0
 65 66  1  0
 66 67  1  0
 67 68  1  0
 66 69  2  0
 61 70  2  0
 70 71  1  0
 71 72  1  0
 72 73  1  0
 73 74  1  0
 74 75  1  0
 75 76  1  0
 76 77  1  0
 77 78  1  0
 78 79  1  0
 79 80  1  0
 77 81  1  0
 81 82  1  0
 74 83  1  0
 83 84  1  0
 70 85  1  0
 85 86  2  0
 86 87  1  0
 87 88  2  0
 88 89  1  0
 89 90  2  0
 90 91  1  0
 91 92  2  0
 92 93  1  0
 93 94  1  0
 94 95  1  0
 92 96  1  0
 88 97  1  0
 97 98  2  0
 98 99  1  0
 99100  1  0
100101  2  0
101102  1  0
102103  2  0
103104  1  0
104105  1  0
105106  1  0
103107  1  0
 99108  2  0
108109  1  0
 98110  1  0
110111  2  0
111112  1  0
111113  1  0
113114  2  3
114115  1  0
115116  2  0
115117  1  0
117118  2  0
118119  1  0
119120  2  0
120121  1  0
121122  2  0
122123  1  0
123124  2  3
124125  1  0
125126  3  0
124127  1  0
127128  3  0
120129  1  0
129130  1  0
130131  1  0
131132  2  0
132133  1  0
133134  1  0
133135  1  0
 11  2  1  0
 23 17  1  0
 33 24  1  0
 80 38  1  0
109 85  1  0
123114  1  0
135129  1  0
 10  5  1  0
 22 18  1  0
 31 26  2  0
 47 40  1  0
 79 48  2  0
108 87  1  0
122117  1  0
134130  1  0
 23  7  1  0
 37 29  1  0
 78 50  2  0
 96 89  1  0
112 97  1  0
135119  1  0
 76 51  2  0
107100  1  0
 56 52  2  0
 75 57  2  0
 73 58  2  0
 72 60  2  0
 69 62  1  0
  1136  1  0
  6137  1  0
  9138  1  0
 17139  1  0
 18140  1  0
 19141  1  0
 20142  1  0
 21143  1  0
 22144  1  0
 22145  1  0
 23146  1  0
 25147  1  0
 32148  1  0
 33149  1  0
 34150  1  0
 35151  1  0
 37152  1  0
 41153  1  0
 42154  1  0
 43155  1  0
 45156  1  0
 45157  1  0
 46158  1  0
 46159  1  0
 46160  1  0
 47161  1  0
 63162  1  0
 64163  1  0
 65164  1  0
 67165  1  0
 67166  1  0
 68167  1  0
 68168  1  0
 68169  1  0
 69170  1  0
 81171  1  0
 81172  1  0
 82173  1  0
 82174  1  0
 82175  1  0
 83176  1  0
 83177  1  0
 84178  1  0
 84179  1  0
 84180  1  0
 86181  1  0
 90182  1  0
 91183  1  0
 94184  1  0
 94185  1  0
 95186  1  0
 95187  1  0
 95188  1  0
101189  1  0
102190  1  0
105191  1  0
105192  1  0
106193  1  0
106194  1  0
106195  1  0
110196  1  0
113197  1  0
118198  1  0
121199  1  0
129200  1  0
130201  1  0
131202  1  0
132203  1  0
133204  1  0
134205  1  0
134206  1  0
135207  1  0
M  END

