
     RDKit          3D

231260  0  0  0  0  0  0  0  0999 V2000
    2.5580   -9.6419    1.2280 C   0  0  0  0  0  0  0  0  0  0  0  0
    1.7319  -10.5422    0.9069 C   0  0  0  0  0  0  0  0  0  0  0  0
    0.6901  -10.6914   -0.0873 C   0  0  0  0  0  0  0  0  0  0  0  0
    0.2591   -9.7487   -0.8299 O   0  0  0  0  0  0  0  0  0  0  0  0
    0.1894  -12.0793   -0.1416 C   0  0  0  0  0  0  0  0  0  0  0  0
   -0.8446  -12.6326   -0.8558 C   0  0  0  0  0  0  0  0  0  0  0  0
   -1.2224  -13.9416   -0.6485 C   0  0  0  0  0  0  0  0  0  0  0  0
   -0.5023  -14.6548    0.3052 C   0  0  0  0  0  0  0  0  0  0  0  0
    0.5278  -14.0961    1.0078 C   0  0  0  0  0  0  0  0  0  0  0  0
    0.9081  -12.7620    0.7980 C   0  0  0  0  0  0  0  0  0  0  0  0
    1.8715  -11.9275    1.5064 C   0  0  0  0  0  0  0  0  0  0  0  0
    2.3883  -12.2686    2.6924 C   0  0  0  0  0  0  0  0  0  0  0  0
    2.8353  -11.5293    3.6522 C   0  0  0  0  0  0  0  0  0  0  0  0
    3.3481  -10.7170    4.6943 N   0  0  0  0  0  0  0  0  0  0  0  0
    3.0009  -13.6018    2.6810 C   0  0  0  0  0  0  0  0  0  0  0  0
    3.5646  -14.7874    2.6702 N   0  0  0  0  0  0  0  0  0  0  0  0
   -1.2968  -15.8873    0.1040 C   0  0  0  0  0  0  0  0  0  0  0  0
   -0.6049  -16.9311   -0.7413 C   0  0  0  0  0  0  0  0  0  0  0  0
    0.2579  -16.2326   -1.7125 C   0  0  0  0  0  0  0  0  0  0  0  0
   -0.5236  -15.6467   -2.6214 C   0  0  0  0  0  0  0  0  0  0  0  0
   -1.9238  -15.8364   -2.1920 C   0  0  0  0  0  0  0  0  0  0  0  0
   -1.7982  -17.2857   -1.6501 C   0  0  0  0  0  0  0  0  0  0  0  0
   -2.1283  -15.0849   -0.9275 C   0  0  0  0  0  0  0  0  0  0  0  0
    2.9412   -8.3264    0.8209 C   0  0  0  0  0  0  0  0  0  0  0  0
    4.3016   -7.9740    0.6431 C   0  0  0  0  0  0  0  0  0  0  0  0
    4.6032   -6.6891    0.4330 C   0  0  0  0  0  0  0  0  0  0  0  0
    5.9106   -6.1249    0.4125 C   0  0  0  0  0  0  0  0  0  0  0  0
    7.0876   -6.9082    0.1764 C   0  0  0  0  0  0  0  0  0  0  0  0
    8.4106   -6.7670    0.2206 C   0  0  0  0  0  0  0  0  0  0  0  0
    9.2845   -7.6807   -0.1918 C   0  0  0  0  0  0  0  0  0  0  0  0
    8.9078   -8.8602   -0.6938 C   0  0  0  0  0  0  0  0  0  0  0  0
    9.8001  -10.2404   -1.3712 S   0  0  0  0  0  0  0  0  0  0  0  0
    9.8818  -10.2910   -3.1473 C   0  0  0  0  0  0  0  0  0  0  0  0
    8.5681  -10.5804   -3.8144 C   0  0  0  0  0  0  0  0  0  0  0  0
    6.9901   -8.7075   -0.5935 Se  0  0  0  0  0  2  0  0  0  0  0  0
    6.0439   -4.7635    0.3956 C   0  0  0  0  0  0  0  0  0  0  0  0
    5.0243   -3.8606    0.3631 C   0  0  0  0  0  0  0  0  0  0  0  0
    3.7247   -4.4138    0.3497 C   0  0  0  0  0  0  0  0  0  0  0  0
    2.5124   -3.6462    0.1322 C   0  0  0  0  0  0  0  0  0  0  0  0
    2.1479   -2.4359   -0.2674 C   0  0  0  0  0  0  0  0  0  0  0  0
    0.8889   -1.9849   -0.2933 C   0  0  0  0  0  0  0  0  0  0  0  0
   -0.1702   -2.6961    0.0737 C   0  0  0  0  0  0  0  0  0  0  0  0
   -1.9091   -2.5347    0.2132 S   0  0  0  0  0  0  0  0  0  0  0  0
   -2.5477   -4.1941    0.7042 C   0  0  0  0  0  0  0  0  0  0  0  0
   -2.3098   -5.1494   -0.4860 C   0  0  0  0  0  0  0  0  0  0  0  0
    0.7802   -4.4018    0.5863 Se  0  0  0  0  0  2  0  0  0  0  0  0
    3.5847   -5.7940    0.3944 C   0  0  0  0  0  0  0  0  0  0  0  0
    2.1929   -6.8112    0.6524 S   0  0  0  0  0  0  0  0  0  0  0  0
    5.3346   -2.5846    0.5387 C   0  0  0  0  0  0  0  0  0  0  0  0
    6.6900   -2.2519    0.7573 C   0  0  0  0  0  0  0  0  0  0  0  0
    7.4243   -3.7479    0.6801 S   0  0  0  0  0  0  0  0  0  0  0  0
    7.0483   -0.8532    1.1278 C   0  0  0  0  0  0  0  0  0  0  0  0
    7.9211    0.0884    0.8225 C   0  0  0  0  0  0  0  0  0  0  0  0
    8.9891   -0.2212   -0.1672 C   0  0  0  0  0  0  0  0  0  0  0  0
   10.2075   -0.7148    0.1868 C   0  0  0  0  0  0  0  0  0  0  0  0
   11.1788   -1.0264   -0.7861 C   0  0  0  0  0  0  0  0  0  0  0  0
   10.8524   -0.8176   -2.1112 C   0  0  0  0  0  0  0  0  0  0  0  0
    9.6229   -0.3119   -2.5020 C   0  0  0  0  0  0  0  0  0  0  0  0
    9.3338   -0.1141   -3.9731 C   0  0  0  0  0  0  0  0  0  0  0  0
    9.8314    1.2710   -4.3350 C   0  0  0  0  0  0  0  0  0  0  0  0
    8.7386   -0.0316   -1.5263 C   0  0  0  0  0  0  0  0  0  0  0  0
    7.7403    1.3575    1.3751 C   0  0  0  0  0  0  0  0  0  0  0  0
    8.4012    2.9418    1.2318 S   0  0  0  0  0  0  0  0  0  0  0  0
    7.2631    3.8260    2.2024 C   0  0  0  0  0  0  0  0  0  0  0  0
    6.7268    5.1110    2.4937 C   0  0  0  0  0  0  0  0  0  0  0  0
    7.0809    6.4026    2.1699 C   0  0  0  0  0  0  0  0  0  0  0  0
    6.2252    7.4431    2.3863 C   0  0  0  0  0  0  0  0  0  0  0  0
    6.6706    8.6378    2.0812 N   0  0  0  0  0  0  0  0  0  0  0  0
    8.2277    8.4147    1.5051 S   0  0  0  0  0  0  0  0  0  0  0  0
    8.2791    6.7279    1.6697 N   0  0  0  0  0  0  0  0  0  0  0  0
    4.9629    7.1230    2.9135 C   0  0  0  0  0  0  0  0  0  0  0  0
    3.7477    7.8304    2.7073 C   0  0  0  0  0  0  0  0  0  0  0  0
    3.0287    9.2529    2.1176 S   0  0  0  0  0  0  0  0  0  0  0  0
    1.3544    8.6841    2.0865 C   0  0  0  0  0  0  0  0  0  0  0  0
    0.1663    9.0804    1.5049 C   0  0  0  0  0  0  0  0  0  0  0  0
   -0.1088   10.5113    1.1246 C   0  0  0  0  0  0  0  0  0  0  0  0
    0.6616   11.2280    0.2815 C   0  0  0  0  0  0  0  0  0  0  0  0
    0.3037   12.5437    0.0404 C   0  0  0  0  0  0  0  0  0  0  0  0
   -0.7900   13.1266    0.6204 C   0  0  0  0  0  0  0  0  0  0  0  0
   -1.6030   12.3997    1.4968 C   0  0  0  0  0  0  0  0  0  0  0  0
   -2.7975   12.9900    2.1245 C   0  0  0  0  0  0  0  0  0  0  0  0
   -2.4494   13.6313    3.4796 C   0  0  0  0  0  0  0  0  0  0  0  0
   -1.2168   11.1131    1.7038 C   0  0  0  0  0  0  0  0  0  0  0  0
   -0.7944    8.1755    1.4130 C   0  0  0  0  0  0  0  0  0  0  0  0
   -0.0761    6.7941    2.1753 S   0  0  0  0  0  0  0  0  0  0  0  0
    1.4894    7.4803    2.5339 C   0  0  0  0  0  0  0  0  0  0  0  0
    2.7226    6.9794    2.8851 C   0  0  0  0  0  0  0  0  0  0  0  0
    3.2393    5.7337    3.2372 N   0  0  0  0  0  0  0  0  0  0  0  0
    4.6064    5.8456    3.2460 C   0  0  0  0  0  0  0  0  0  0  0  0
    5.5257    4.7662    3.0757 C   0  0  0  0  0  0  0  0  0  0  0  0
    5.3412    3.4887    3.1774 N   0  0  0  0  0  0  0  0  0  0  0  0
    6.4208    2.8477    2.6050 C   0  0  0  0  0  0  0  0  0  0  0  0
    6.7179    1.5685    2.1487 C   0  0  0  0  0  0  0  0  0  0  0  0
    5.9474    0.0153    2.2026 S   0  0  0  0  0  0  0  0  0  0  0  0
    4.5211    2.7239    4.1215 C   0  0  0  0  0  0  0  0  0  0  0  0
    5.5009    2.1044    5.2227 C   0  0  0  0  0  0  0  0  0  0  0  0
    2.4753    4.5442    3.2972 C   0  0  0  0  0  0  0  0  0  0  0  0
    1.6272    4.2129    4.4510 C   0  0  0  0  0  0  0  0  0  0  0  0
   -2.0171    7.9905    0.5315 C   0  0  0  0  0  0  0  0  0  0  0  0
   -1.8530    6.9781   -0.4785 C   0  0  0  0  0  0  0  0  0  0  0  0
   -2.8870    6.6641   -1.2520 C   0  0  0  0  0  0  0  0  0  0  0  0
   -2.9881    5.5975   -2.1602 C   0  0  0  0  0  0  0  0  0  0  0  0
   -1.8246    4.8210   -2.5994 C   0  0  0  0  0  0  0  0  0  0  0  0
   -0.4975    4.9679   -2.5990 C   0  0  0  0  0  0  0  0  0  0  0  0
    0.3449    3.9990   -2.9380 C   0  0  0  0  0  0  0  0  0  0  0  0
   -0.0118    2.7796   -3.3214 C   0  0  0  0  0  0  0  0  0  0  0  0
    0.7670    1.2615   -3.7148 S   0  0  0  0  0  0  0  0  0  0  0  0
    1.4242    1.1077   -5.3553 C   0  0  0  0  0  0  0  0  0  0  0  0
    0.4326    1.1137   -6.4661 C   0  0  0  0  0  0  0  0  0  0  0  0
   -1.9967    2.9938   -3.1923 Se  0  0  0  0  0  2  0  0  0  0  0  0
   -4.1963    5.2761   -2.7390 C   0  0  0  0  0  0  0  0  0  0  0  0
   -5.3510    5.9582   -2.4894 C   0  0  0  0  0  0  0  0  0  0  0  0
   -5.2390    7.0559   -1.5799 C   0  0  0  0  0  0  0  0  0  0  0  0
   -6.3817    7.8518   -1.2132 C   0  0  0  0  0  0  0  0  0  0  0  0
   -6.6834    8.9263   -0.5113 C   0  0  0  0  0  0  0  0  0  0  0  0
   -7.9270    9.3934   -0.3276 C   0  0  0  0  0  0  0  0  0  0  0  0
   -9.0298    8.8454   -0.8289 C   0  0  0  0  0  0  0  0  0  0  0  0
  -10.7756    9.0318   -0.9433 S   0  0  0  0  0  0  0  0  0  0  0  0
  -11.4756    7.6288   -1.8839 C   0  0  0  0  0  0  0  0  0  0  0  0
  -11.0487    7.6060   -3.3251 C   0  0  0  0  0  0  0  0  0  0  0  0
   -8.1591    7.3137   -1.7823 Se  0  0  0  0  0  2  0  0  0  0  0  0
   -4.0264    7.3569   -1.0008 C   0  0  0  0  0  0  0  0  0  0  0  0
   -3.5701    8.4251    0.3150 S   0  0  0  0  0  0  0  0  0  0  0  0
   -6.4680    5.4561   -2.9622 C   0  0  0  0  0  0  0  0  0  0  0  0
   -6.3874    4.2137   -3.6826 C   0  0  0  0  0  0  0  0  0  0  0  0
   -4.7726    3.8931   -3.6647 S   0  0  0  0  0  0  0  0  0  0  0  0
   -7.7268    3.5427   -3.9351 C   0  0  0  0  0  0  0  0  0  0  0  0
   -8.2492    3.0533   -2.7712 C   0  0  0  0  0  0  0  0  0  0  0  0
   -7.5999    3.1248   -1.4795 C   0  0  0  0  0  0  0  0  0  0  0  0
   -6.3961    3.4538   -1.2556 O   0  0  0  0  0  0  0  0  0  0  0  0
   -8.5426    2.7601   -0.4310 C   0  0  0  0  0  0  0  0  0  0  0  0
   -8.4050    2.8446    0.9384 C   0  0  0  0  0  0  0  0  0  0  0  0
   -9.4422    2.6342    1.7936 C   0  0  0  0  0  0  0  0  0  0  0  0
  -10.6483    2.3059    1.2447 C   0  0  0  0  0  0  0  0  0  0  0  0
  -10.8156    2.2015   -0.1649 C   0  0  0  0  0  0  0  0  0  0  0  0
   -9.7505    2.4445   -1.0025 C   0  0  0  0  0  0  0  0  0  0  0  0
   -9.6046    2.6244   -2.5061 C   0  0  0  0  0  0  0  0  0  0  0  0
  -10.6713    2.8062   -3.2932 C   0  0  0  0  0  0  0  0  0  0  0  0
  -10.7569    3.4435   -4.4559 C   0  0  0  0  0  0  0  0  0  0  0  0
  -10.8222    4.0822   -5.6053 N   0  0  0  0  0  0  0  0  0  0  0  0
  -11.9501    2.1992   -2.8092 C   0  0  0  0  0  0  0  0  0  0  0  0
  -12.9802    1.6993   -2.4365 N   0  0  0  0  0  0  0  0  0  0  0  0
  -11.2995    2.2155    2.5752 C   0  0  0  0  0  0  0  0  0  0  0  0
  -11.4048    0.8703    3.1941 C   0  0  0  0  0  0  0  0  0  0  0  0
  -10.2621    0.0375    2.8119 C   0  0  0  0  0  0  0  0  0  0  0  0
   -9.1606    0.4522    3.4617 C   0  0  0  0  0  0  0  0  0  0  0  0
   -9.5413    1.7017    4.1305 C   0  0  0  0  0  0  0  0  0  0  0  0
  -10.9662    1.2575    4.6435 C   0  0  0  0  0  0  0  0  0  0  0  0
   -9.9694    2.7241    3.1776 C   0  0  0  0  0  0  0  0  0  0  0  0
    3.2066   -9.9409    2.1432 H   0  0  0  0  0  0  0  0  0  0  0  0
   -1.3734  -12.0141   -1.5964 H   0  0  0  0  0  0  0  0  0  0  0  0
    1.0642  -14.6517    1.7440 H   0  0  0  0  0  0  0  0  0  0  0  0
   -1.8347  -16.2300    0.9850 H   0  0  0  0  0  0  0  0  0  0  0  0
   -0.2295  -17.7657   -0.2183 H   0  0  0  0  0  0  0  0  0  0  0  0
    1.3295  -16.1823   -1.7211 H   0  0  0  0  0  0  0  0  0  0  0  0
   -0.2158  -15.1339   -3.5226 H   0  0  0  0  0  0  0  0  0  0  0  0
   -2.6707  -15.7559   -2.9370 H   0  0  0  0  0  0  0  0  0  0  0  0
   -1.5031  -17.9839   -2.4279 H   0  0  0  0  0  0  0  0  0  0  0  0
   -2.6845  -17.5783   -1.0414 H   0  0  0  0  0  0  0  0  0  0  0  0
   -3.1736  -14.9320   -0.5961 H   0  0  0  0  0  0  0  0  0  0  0  0
    5.0247   -8.7981    0.7030 H   0  0  0  0  0  0  0  0  0  0  0  0
    8.8146   -5.7799    0.6514 H   0  0  0  0  0  0  0  0  0  0  0  0
   10.4207   -7.5065   -0.1464 H   0  0  0  0  0  0  0  0  0  0  0  0
   10.6151  -11.0418   -3.5217 H   0  0  0  0  0  0  0  0  0  0  0  0
   10.1846   -9.2780   -3.5876 H   0  0  0  0  0  0  0  0  0  0  0  0
    8.1408  -11.5482   -3.4511 H   0  0  0  0  0  0  0  0  0  0  0  0
    8.8281  -10.7808   -4.9254 H   0  0  0  0  0  0  0  0  0  0  0  0
    7.8633   -9.7382   -3.8381 H   0  0  0  0  0  0  0  0  0  0  0  0
    2.9842   -1.7384   -0.6587 H   0  0  0  0  0  0  0  0  0  0  0  0
    0.6802   -0.9112   -0.6487 H   0  0  0  0  0  0  0  0  0  0  0  0
   -1.9044   -4.6165    1.5074 H   0  0  0  0  0  0  0  0  0  0  0  0
   -3.5974   -4.1818    0.9305 H   0  0  0  0  0  0  0  0  0  0  0  0
   -3.0721   -5.9293   -0.5630 H   0  0  0  0  0  0  0  0  0  0  0  0
   -2.3434   -4.5280   -1.4094 H   0  0  0  0  0  0  0  0  0  0  0  0
   -1.3103   -5.6620   -0.4047 H   0  0  0  0  0  0  0  0  0  0  0  0
    4.6302   -1.7426    0.5436 H   0  0  0  0  0  0  0  0  0  0  0  0
   10.4724   -0.8937    1.1978 H   0  0  0  0  0  0  0  0  0  0  0  0
   12.1467   -1.4202   -0.5426 H   0  0  0  0  0  0  0  0  0  0  0  0
   11.5476   -1.0390   -2.9094 H   0  0  0  0  0  0  0  0  0  0  0  0
    8.2377   -0.1557   -4.1733 H   0  0  0  0  0  0  0  0  0  0  0  0
    9.9281   -0.8424   -4.5857 H   0  0  0  0  0  0  0  0  0  0  0  0
    9.0249    1.8447   -4.8507 H   0  0  0  0  0  0  0  0  0  0  0  0
   10.0750    1.8769   -3.4227 H   0  0  0  0  0  0  0  0  0  0  0  0
   10.7067    1.2428   -4.9869 H   0  0  0  0  0  0  0  0  0  0  0  0
    7.7824    0.3609   -1.7922 H   0  0  0  0  0  0  0  0  0  0  0  0
    1.5165   10.7704   -0.1795 H   0  0  0  0  0  0  0  0  0  0  0  0
    0.9286   13.1312   -0.6394 H   0  0  0  0  0  0  0  0  0  0  0  0
   -1.0306   14.1859    0.4001 H   0  0  0  0  0  0  0  0  0  0  0  0
   -3.1984   13.8159    1.4828 H   0  0  0  0  0  0  0  0  0  0  0  0
   -3.6228   12.2744    2.2258 H   0  0  0  0  0  0  0  0  0  0  0  0
   -3.3923   14.1756    3.8055 H   0  0  0  0  0  0  0  0  0  0  0  0
   -2.2714   12.8524    4.2463 H   0  0  0  0  0  0  0  0  0  0  0  0
   -1.6351   14.3383    3.3405 H   0  0  0  0  0  0  0  0  0  0  0  0
   -1.8016   10.4889    2.3619 H   0  0  0  0  0  0  0  0  0  0  0  0
    4.0642    3.4317    4.8123 H   0  0  0  0  0  0  0  0  0  0  0  0
    4.0314    1.8854    3.7202 H   0  0  0  0  0  0  0  0  0  0  0  0
    4.9206    1.4686    5.8945 H   0  0  0  0  0  0  0  0  0  0  0  0
    5.8970    2.9303    5.8493 H   0  0  0  0  0  0  0  0  0  0  0  0
    6.3602    1.6627    4.7091 H   0  0  0  0  0  0  0  0  0  0  0  0
    1.6320    4.7581    2.5182 H   0  0  0  0  0  0  0  0  0  0  0  0
    2.8692    3.6952    2.6752 H   0  0  0  0  0  0  0  0  0  0  0  0
    0.5835    4.6063    4.3641 H   0  0  0  0  0  0  0  0  0  0  0  0
    1.4923    3.1028    4.4664 H   0  0  0  0  0  0  0  0  0  0  0  0
    2.0153    4.4600    5.4417 H   0  0  0  0  0  0  0  0  0  0  0  0
   -0.8542    6.4906   -0.5383 H   0  0  0  0  0  0  0  0  0  0  0  0
   -0.0830    5.9996   -2.3521 H   0  0  0  0  0  0  0  0  0  0  0  0
    1.4842    4.1943   -2.9159 H   0  0  0  0  0  0  0  0  0  0  0  0
    1.9179    0.0788   -5.4233 H   0  0  0  0  0  0  0  0  0  0  0  0
    2.2542    1.8396   -5.5364 H   0  0  0  0  0  0  0  0  0  0  0  0
    0.6760    0.4215   -7.2903 H   0  0  0  0  0  0  0  0  0  0  0  0
    0.4127    2.1304   -6.9748 H   0  0  0  0  0  0  0  0  0  0  0  0
   -0.5899    0.8252   -6.1321 H   0  0  0  0  0  0  0  0  0  0  0  0
   -5.8073    9.4913   -0.0056 H   0  0  0  0  0  0  0  0  0  0  0  0
   -8.1031   10.3443    0.3068 H   0  0  0  0  0  0  0  0  0  0  0  0
  -11.1640    6.6615   -1.4067 H   0  0  0  0  0  0  0  0  0  0  0  0
  -12.5519    7.6332   -1.8435 H   0  0  0  0  0  0  0  0  0  0  0  0
  -10.0164    7.8978   -3.5069 H   0  0  0  0  0  0  0  0  0  0  0  0
  -11.1910    6.5372   -3.6774 H   0  0  0  0  0  0  0  0  0  0  0  0
  -11.7299    8.2123   -3.9862 H   0  0  0  0  0  0  0  0  0  0  0  0
   -7.4949    5.8618   -2.9092 H   0  0  0  0  0  0  0  0  0  0  0  0
   -8.1363    3.4850   -4.8469 H   0  0  0  0  0  0  0  0  0  0  0  0
   -7.4460    3.0849    1.3510 H   0  0  0  0  0  0  0  0  0  0  0  0
  -11.7546    1.9548   -0.5082 H   0  0  0  0  0  0  0  0  0  0  0  0
  -12.1553    2.8981    2.7213 H   0  0  0  0  0  0  0  0  0  0  0  0
  -12.4012    0.3955    3.1981 H   0  0  0  0  0  0  0  0  0  0  0  0
  -10.2219   -0.7902    2.1329 H   0  0  0  0  0  0  0  0  0  0  0  0
   -8.1945   -0.0242    3.5049 H   0  0  0  0  0  0  0  0  0  0  0  0
   -8.9230    1.9938    4.9854 H   0  0  0  0  0  0  0  0  0  0  0  0
  -11.5131    2.1328    4.9965 H   0  0  0  0  0  0  0  0  0  0  0  0
  -10.8688    0.3988    5.2756 H   0  0  0  0  0  0  0  0  0  0  0  0
  -10.0652    3.7755    3.5499 H   0  0  0  0  0  0  0  0  0  0  0  0
  1  2  2  3
  2  3  1  0
  3  4  2  0
  3  5  1  0
  5  6  2  0
  6  7  1  0
  7  8  2  0
  8  9  1  0
  9 10  2  0
 10 11  1  0
 11 12  2  3
 12 13  1  0
 13 14  3  0
 12 15  1  0
 15 16  3  0
  8 17  1  0
 17 18  1  0
 18 19  1  0
 19 20  2  0
 20 21  1  0
 21 22  1  0
 21 23  1  0
  1 24  1  0
 24 25  2  0
 25 26  1  0
 26 27  2  0
 27 28  1  0
 28 29  2  0
 29 30  1  0
 30 31  2  0
 31 32  1  0
 32 33  1  0
 33 34  1  0
 31 35  1  0
 27 36  1  0
 36 37  2  0
 37 38  1  0
 38 39  1  0
 39 40  2  0
 40 41  1  0
 41 42  2  0
 42 43  1  0
 43 44  1  0
 44 45  1  0
 42 46  1  0
 38 47  2  0
 47 48  1  0
 37 49  1  0
 49 50  2  0
 50 51  1  0
 50 52  1  0
 52 53  2  0
 53 54  1  0
 54 55  2  0
 55 56  1  0
 56 57  2  0
 57 58  1  0
 58 59  1  0
 59 60  1  0
 58 61  2  0
 53 62  1  0
 62 63  1  0
 63 64  1  0
 64 65  1  0
 65 66  1  0
 66 67  1  0
 67 68  2  0
 68 69  1  0
 69 70  1  0
 67 71  1  0
 71 72  1  0
 72 73  1  0
 73 74  1  0
 74 75  1  0
 75 76  1  0
 76 77  2  0
 77 78  1  0
 78 79  2  0
 79 80  1  0
 80 81  1  0
 81 82  1  0
 80 83  2  0
 75 84  2  0
 84 85  1  0
 85 86  1  0
 86 87  1  0
 87 88  1  0
 88 89  1  0
 89 90  1  0
 90 91  1  0
 91 92  1  0
 92 93  1  0
 93 94  1  0
 91 95  1  0
 95 96  1  0
 88 97  1  0
 97 98  1  0
 84 99  1  0
 99100  2  0
100101  1  0
101102  2  0
102103  1  0
103104  2  0
104105  1  0
105106  2  0
106107  1  0
107108  1  0
108109  1  0
106110  1  0
102111  1  0
111112  2  0
112113  1  0
113114  1  0
114115  2  0
115116  1  0
116117  2  0
117118  1  0
118119  1  0
119120  1  0
117121  1  0
113122  2  0
122123  1  0
112124  1  0
124125  2  0
125126  1  0
125127  1  0
127128  2  3
128129  1  0
129130  2  0
129131  1  0
131132  2  0
132133  1  0
133134  2  0
134135  1  0
135136  2  0
136137  1  0
137138  2  3
138139  1  0
139140  3  0
138141  1  0
141142  3  0
134143  1  0
143144  1  0
144145  1  0
145146  2  0
146147  1  0
147148  1  0
147149  1  0
 11  2  1  0
 23 17  1  0
 48 24  1  0
 94 52  1  0
123 99  1  0
137128  1  0
149143  1  0
 10  5  1  0
 22 18  1  0
 47 26  1  0
 61 54  1  0
 93 62  2  0
122101  1  0
136131  1  0
148144  1  0
 23  7  1  0
 35 28  1  0
 51 36  1  0
 92 64  2  0
110103  1  0
126111  1  0
149133  1  0
 46 39  1  0
 90 65  2  0
121114  1  0
 70 66  2  0
 89 71  2  0
 87 72  2  0
 86 74  2  0
 83 76  1  0
  1150  1  0
  6151  1  0
  9152  1  0
 17153  1  0
 18154  1  0
 19155  1  0
 20156  1  0
 21157  1  0
 22158  1  0
 22159  1  0
 23160  1  0
 25161  1  0
 29162  1  0
 30163  1  0
 33164  1  0
 33165  1  0
 34166  1  0
 34167  1  0
 34168  1  0
 40169  1  0
 41170  1  0
 44171  1  0
 44172  1  0
 45173  1  0
 45174  1  0
 45175  1  0
 49176  1  0
 55177  1  0
 56178  1  0
 57179  1  0
 59180  1  0
 59181  1  0
 60182  1  0
 60183  1  0
 60184  1  0
 61185  1  0
 77186  1  0
 78187  1  0
 79188  1  0
 81189  1  0
 81190  1  0
 82191  1  0
 82192  1  0
 82193  1  0
 83194  1  0
 95195  1  0
 95196  1  0
 96197  1  0
 96198  1  0
 96199  1  0
 97200  1  0
 97201  1  0
 98202  1  0
 98203  1  0
 98204  1  0
100205  1  0
104206  1  0
105207  1  0
108208  1  0
108209  1  0
109210  1  0
109211  1  0
109212  1  0
115213  1  0
116214  1  0
119215  1  0
119216  1  0
120217  1  0
120218  1  0
120219  1  0
124220  1  0
127221  1  0
132222  1  0
135223  1  0
143224  1  0
144225  1  0
145226  1  0
146227  1  0
147228  1  0
148229  1  0
148230  1  0
149231  1  0
M  END

