
     RDKit          3D

165186  0  0  0  0  0  0  0  0999 V2000
    0.9151    3.5182    7.2917 C   0  0  0  0  0  0  0  0  0  0  0  0
    1.3297    2.3006    7.5348 C   0  0  0  0  0  0  0  0  0  0  0  0
    0.9094    1.0277    7.2646 C   0  0  0  0  0  0  0  0  0  0  0  0
   -0.1525    0.5579    6.8039 O   0  0  0  0  0  0  0  0  0  0  0  0
    2.0100   -0.0137    7.6374 C   0  0  0  0  0  0  0  0  0  0  0  0
    2.0522   -1.3104    7.4241 C   0  0  0  0  0  0  0  0  0  0  0  0
    3.1975   -2.0686    7.6688 C   0  0  0  0  0  0  0  0  0  0  0  0
    4.2958   -1.3396    8.1490 C   0  0  0  0  0  0  0  0  0  0  0  0
    4.2274   -0.0145    8.3661 C   0  0  0  0  0  0  0  0  0  0  0  0
    3.0806    0.7679    8.1269 C   0  0  0  0  0  0  0  0  0  0  0  0
    2.7820    2.1216    8.1028 C   0  0  0  0  0  0  0  0  0  0  0  0
    3.4588    3.3023    8.0093 C   0  0  0  0  0  0  0  0  0  0  0  0
    4.0997    4.3159    7.9518 C   0  0  0  0  0  0  0  0  0  0  0  0
    4.7407    5.3275    7.8789 N   0  0  0  0  0  0  0  0  0  0  0  0
    4.1636    2.8223    9.6147 C   0  0  0  0  0  0  0  0  0  0  0  0
    4.6592    2.4898   10.7089 N   0  0  0  0  0  0  0  0  0  0  0  0
    5.2083   -2.5312    8.1028 C   0  0  0  0  0  0  0  0  0  0  0  0
    6.0525   -2.5887    6.8606 C   0  0  0  0  0  0  0  0  0  0  0  0
    5.3380   -2.0563    5.6965 C   0  0  0  0  0  0  0  0  0  0  0  0
    4.3333   -2.8760    5.3881 C   0  0  0  0  0  0  0  0  0  0  0  0
    4.3380   -3.9587    6.4327 C   0  0  0  0  0  0  0  0  0  0  0  0
    5.8431   -4.1018    6.5749 C   0  0  0  0  0  0  0  0  0  0  0  0
    3.9604   -3.2937    7.7319 C   0  0  0  0  0  0  0  0  0  0  0  0
   -0.1945    4.0564    6.5683 C   0  0  0  0  0  0  0  0  0  0  0  0
   -1.7879    3.1997    6.0014 Se  0  0  0  0  0  2  0  0  0  0  0  0
   -2.3004    4.6541    4.9223 C   0  0  0  0  0  0  0  0  0  0  0  0
   -1.2777    5.5909    5.1245 C   0  0  0  0  0  0  0  0  0  0  0  0
   -1.1865    6.8745    4.5581 C   0  0  0  0  0  0  0  0  0  0  0  0
   -0.1014    7.6424    4.8317 C   0  0  0  0  0  0  0  0  0  0  0  0
    0.2742    9.0430    4.3945 C   0  0  0  0  0  0  0  0  0  0  0  0
   -0.1326   10.0801    5.3970 C   0  0  0  0  0  0  0  0  0  0  0  0
    0.7815    6.6356    5.8770 S   0  0  0  0  0  0  0  0  0  0  0  0
   -0.2869    5.2646    5.9072 C   0  0  0  0  0  0  0  0  0  0  0  0
   -3.2403    4.5207    3.7824 C   0  0  0  0  0  0  0  0  0  0  0  0
   -4.1974    4.9807    3.0460 C   0  0  0  0  0  0  0  0  0  0  0  0
   -4.9460    6.1681    3.6308 C   0  0  0  0  0  0  0  0  0  0  0  0
   -4.8002    7.3854    3.0475 C   0  0  0  0  0  0  0  0  0  0  0  0
   -5.4140    8.5273    3.6240 C   0  0  0  0  0  0  0  0  0  0  0  0
   -6.1628    8.4014    4.7650 C   0  0  0  0  0  0  0  0  0  0  0  0
   -6.3027    7.1264    5.3430 C   0  0  0  0  0  0  0  0  0  0  0  0
   -7.1156    7.0770    6.5959 C   0  0  0  0  0  0  0  0  0  0  0  0
   -8.5784    6.8988    6.3699 C   0  0  0  0  0  0  0  0  0  0  0  0
   -5.7083    6.0835    4.7826 C   0  0  0  0  0  0  0  0  0  0  0  0
   -4.5044    4.4781    1.8001 C   0  0  0  0  0  0  0  0  0  0  0  0
   -5.4568    4.7264    0.3315 S   0  0  0  0  0  0  0  0  0  0  0  0
   -4.7925    3.4802   -0.6638 C   0  0  0  0  0  0  0  0  0  0  0  0
   -4.7908    2.8916   -1.9280 C   0  0  0  0  0  0  0  0  0  0  0  0
   -5.2104    3.1386   -3.1704 C   0  0  0  0  0  0  0  0  0  0  0  0
   -4.8537    2.5936   -4.3533 C   0  0  0  0  0  0  0  0  0  0  0  0
   -5.3351    2.9095   -5.4770 N   0  0  0  0  0  0  0  0  0  0  0  0
   -6.4730    4.1102   -5.0647 S   0  0  0  0  0  0  0  0  0  0  0  0
   -6.2262    4.1100   -3.4284 N   0  0  0  0  0  0  0  0  0  0  0  0
   -3.8642    1.5429   -4.2344 C   0  0  0  0  0  0  0  0  0  0  0  0
   -3.2087    0.6476   -5.0572 C   0  0  0  0  0  0  0  0  0  0  0  0
   -2.7343    0.2194   -6.6823 S   0  0  0  0  0  0  0  0  0  0  0  0
   -1.5498   -1.0118   -6.3184 C   0  0  0  0  0  0  0  0  0  0  0  0
   -0.6187   -1.8732   -6.8889 C   0  0  0  0  0  0  0  0  0  0  0  0
   -0.4347   -2.0190   -8.2977 C   0  0  0  0  0  0  0  0  0  0  0  0
    1.0496   -2.3157   -8.7314 C   0  0  0  0  0  0  0  0  0  0  0  0
    1.0360   -2.5216  -10.0046 C   0  0  0  0  0  0  0  0  0  0  0  0
    0.4705   -2.6125  -11.0752 C   0  0  0  0  0  0  0  0  0  0  0  0
   -1.1230   -2.2942  -10.6760 C   0  0  0  0  0  0  0  0  0  0  0  0
   -1.9241   -2.3991  -11.8274 C   0  0  0  0  0  0  0  0  0  0  0  0
   -2.4558   -3.8295  -12.0443 C   0  0  0  0  0  0  0  0  0  0  0  0
   -1.1146   -2.0910   -9.4375 C   0  0  0  0  0  0  0  0  0  0  0  0
    0.1405   -2.6365   -6.0844 C   0  0  0  0  0  0  0  0  0  0  0  0
   -0.4529   -2.1630   -4.5070 S   0  0  0  0  0  0  0  0  0  0  0  0
   -1.5891   -1.0377   -4.9588 C   0  0  0  0  0  0  0  0  0  0  0  0
   -2.4638   -0.1636   -4.3873 C   0  0  0  0  0  0  0  0  0  0  0  0
   -2.6524    0.2137   -3.0710 N   0  0  0  0  0  0  0  0  0  0  0  0
   -3.4427    1.2476   -2.9433 C   0  0  0  0  0  0  0  0  0  0  0  0
   -3.7830    1.8629   -1.7766 C   0  0  0  0  0  0  0  0  0  0  0  0
   -3.2627    1.9169   -0.5611 N   0  0  0  0  0  0  0  0  0  0  0  0
   -3.9212    2.9405    0.1351 C   0  0  0  0  0  0  0  0  0  0  0  0
   -3.7447    3.4384    1.4133 C   0  0  0  0  0  0  0  0  0  0  0  0
   -2.6750    3.2146    2.7304 S   0  0  0  0  0  0  0  0  0  0  0  0
   -1.8920    1.5047   -0.1332 C   0  0  0  0  0  0  0  0  0  0  0  0
   -1.0226    2.7972    0.0170 C   0  0  0  0  0  0  0  0  0  0  0  0
   -2.4666   -0.8091   -1.9861 C   0  0  0  0  0  0  0  0  0  0  0  0
   -3.8982   -1.5284   -1.9753 C   0  0  0  0  0  0  0  0  0  0  0  0
    1.2667   -3.6016   -5.9933 C   0  0  0  0  0  0  0  0  0  0  0  0
    1.5151   -5.2296   -6.7033 Se  0  0  0  0  0  2  0  0  0  0  0  0
    3.0570   -5.6940   -5.4044 C   0  0  0  0  0  0  0  0  0  0  0  0
    3.0750   -4.4255   -4.6604 C   0  0  0  0  0  0  0  0  0  0  0  0
    3.9675   -4.1051   -3.6214 C   0  0  0  0  0  0  0  0  0  0  0  0
    3.8729   -2.8928   -3.0750 C   0  0  0  0  0  0  0  0  0  0  0  0
    4.6882   -2.2548   -1.9694 C   0  0  0  0  0  0  0  0  0  0  0  0
    5.7246   -1.3552   -2.5325 C   0  0  0  0  0  0  0  0  0  0  0  0
    2.6003   -2.1970   -3.9447 S   0  0  0  0  0  0  0  0  0  0  0  0
    2.2518   -3.6193   -5.0310 C   0  0  0  0  0  0  0  0  0  0  0  0
    3.5417   -6.9354   -5.3750 C   0  0  0  0  0  0  0  0  0  0  0  0
    3.9958   -8.1399   -5.3136 C   0  0  0  0  0  0  0  0  0  0  0  0
    4.7884   -8.7277   -6.4007 C   0  0  0  0  0  0  0  0  0  0  0  0
    5.4956   -8.1835   -7.2424 O   0  0  0  0  0  0  0  0  0  0  0  0
    4.5675  -10.2046   -6.2788 C   0  0  0  0  0  0  0  0  0  0  0  0
    5.1925  -11.1770   -7.1138 C   0  0  0  0  0  0  0  0  0  0  0  0
    4.8848  -12.5272   -6.7528 C   0  0  0  0  0  0  0  0  0  0  0  0
    5.3794  -13.7020   -7.2668 C   0  0  0  0  0  0  0  0  0  0  0  0
    5.1094  -14.8410   -6.8377 C   0  0  0  0  0  0  0  0  0  0  0  0
    5.7030  -16.6189   -7.3337 Br  0  0  0  0  0  0  0  0  0  0  0  0
    4.0248  -14.4772   -5.5159 S   0  0  0  0  0  0  0  0  0  0  0  0
    4.0931  -12.7033   -5.7427 C   0  0  0  0  0  0  0  0  0  0  0  0
    3.4533  -11.7887   -4.8828 C   0  0  0  0  0  0  0  0  0  0  0  0
    3.7824  -10.4272   -5.2791 C   0  0  0  0  0  0  0  0  0  0  0  0
    3.3136   -9.2037   -4.5108 C   0  0  0  0  0  0  0  0  0  0  0  0
    2.7897   -9.2795   -3.3752 C   0  0  0  0  0  0  0  0  0  0  0  0
    2.1138  -10.3645   -2.7542 C   0  0  0  0  0  0  0  0  0  0  0  0
    1.5010  -11.3140   -2.2192 N   0  0  0  0  0  0  0  0  0  0  0  0
    3.1864   -8.3683   -2.2078 C   0  0  0  0  0  0  0  0  0  0  0  0
    3.5190   -7.6562   -1.2758 N   0  0  0  0  0  0  0  0  0  0  0  0
    1.4700    4.3487    7.8266 H   0  0  0  0  0  0  0  0  0  0  0  0
    1.1569   -1.8434    7.0534 H   0  0  0  0  0  0  0  0  0  0  0  0
    5.0809    0.6024    8.7363 H   0  0  0  0  0  0  0  0  0  0  0  0
    5.6785   -2.8006    9.0378 H   0  0  0  0  0  0  0  0  0  0  0  0
    7.0787   -2.3118    6.9753 H   0  0  0  0  0  0  0  0  0  0  0  0
    5.6152   -1.1343    5.1642 H   0  0  0  0  0  0  0  0  0  0  0  0
    3.6428   -2.8305    4.5793 H   0  0  0  0  0  0  0  0  0  0  0  0
    3.8364   -4.8629    6.1644 H   0  0  0  0  0  0  0  0  0  0  0  0
    6.3503   -4.3856    5.6289 H   0  0  0  0  0  0  0  0  0  0  0  0
    6.1430   -4.7027    7.4310 H   0  0  0  0  0  0  0  0  0  0  0  0
    3.6483   -4.0505    8.4931 H   0  0  0  0  0  0  0  0  0  0  0  0
   -1.9620    7.3558    3.9060 H   0  0  0  0  0  0  0  0  0  0  0  0
   -0.0864    9.1740    3.3829 H   0  0  0  0  0  0  0  0  0  0  0  0
    1.4109    8.9930    4.3498 H   0  0  0  0  0  0  0  0  0  0  0  0
    0.7523   10.7344    5.6216 H   0  0  0  0  0  0  0  0  0  0  0  0
   -0.8929   10.7396    4.9621 H   0  0  0  0  0  0  0  0  0  0  0  0
   -0.4660    9.6210    6.3770 H   0  0  0  0  0  0  0  0  0  0  0  0
   -4.2131    7.5024    2.1511 H   0  0  0  0  0  0  0  0  0  0  0  0
   -5.2674    9.4911    3.1472 H   0  0  0  0  0  0  0  0  0  0  0  0
   -6.6508    9.2284    5.2291 H   0  0  0  0  0  0  0  0  0  0  0  0
   -6.6417    6.3371    7.2661 H   0  0  0  0  0  0  0  0  0  0  0  0
   -6.9714    8.0814    7.1009 H   0  0  0  0  0  0  0  0  0  0  0  0
   -9.1017    7.9072    6.2772 H   0  0  0  0  0  0  0  0  0  0  0  0
   -9.0272    6.4631    7.2987 H   0  0  0  0  0  0  0  0  0  0  0  0
   -8.8710    6.3609    5.4673 H   0  0  0  0  0  0  0  0  0  0  0  0
   -5.7783    5.0771    5.2129 H   0  0  0  0  0  0  0  0  0  0  0  0
    1.7655   -2.4976   -7.9255 H   0  0  0  0  0  0  0  0  0  0  0  0
    2.3183   -2.6804  -10.2605 H   0  0  0  0  0  0  0  0  0  0  0  0
    0.5148   -2.7824  -12.0816 H   0  0  0  0  0  0  0  0  0  0  0  0
   -2.8554   -1.7644  -11.7931 H   0  0  0  0  0  0  0  0  0  0  0  0
   -1.4336   -2.0554  -12.7857 H   0  0  0  0  0  0  0  0  0  0  0  0
   -3.1201   -4.0741  -11.1892 H   0  0  0  0  0  0  0  0  0  0  0  0
   -1.6263   -4.5546  -12.1376 H   0  0  0  0  0  0  0  0  0  0  0  0
   -3.0555   -3.8371  -12.9851 H   0  0  0  0  0  0  0  0  0  0  0  0
   -2.2923   -1.8740   -9.0446 H   0  0  0  0  0  0  0  0  0  0  0  0
   -1.8883    0.9016    0.7453 H   0  0  0  0  0  0  0  0  0  0  0  0
   -1.3021    1.0604   -0.9485 H   0  0  0  0  0  0  0  0  0  0  0  0
   -0.4977    2.6989    0.9498 H   0  0  0  0  0  0  0  0  0  0  0  0
   -0.2025    2.8148   -0.7662 H   0  0  0  0  0  0  0  0  0  0  0  0
   -1.6519    3.6444   -0.1867 H   0  0  0  0  0  0  0  0  0  0  0  0
   -2.3599   -0.5769   -1.0201 H   0  0  0  0  0  0  0  0  0  0  0  0
   -1.8365   -1.6481   -2.3272 H   0  0  0  0  0  0  0  0  0  0  0  0
   -4.6499   -0.6844   -2.0167 H   0  0  0  0  0  0  0  0  0  0  0  0
   -4.0188   -2.1051   -1.0848 H   0  0  0  0  0  0  0  0  0  0  0  0
   -4.0203   -2.0626   -2.9171 H   0  0  0  0  0  0  0  0  0  0  0  0
    4.7278   -4.8086   -3.2027 H   0  0  0  0  0  0  0  0  0  0  0  0
    4.0429   -1.7313   -1.2546 H   0  0  0  0  0  0  0  0  0  0  0  0
    5.1593   -3.1298   -1.4223 H   0  0  0  0  0  0  0  0  0  0  0  0
    6.2020   -0.7596   -1.6996 H   0  0  0  0  0  0  0  0  0  0  0  0
    6.4964   -1.8958   -3.0877 H   0  0  0  0  0  0  0  0  0  0  0  0
    5.2150   -0.5625   -3.1457 H   0  0  0  0  0  0  0  0  0  0  0  0
    3.3546   -7.0098   -3.9579 H   0  0  0  0  0  0  0  0  0  0  0  0
    5.8181  -10.8998   -7.8988 H   0  0  0  0  0  0  0  0  0  0  0  0
    6.1134  -13.6000   -8.1841 H   0  0  0  0  0  0  0  0  0  0  0  0
    2.8538  -12.0799   -4.1342 H   0  0  0  0  0  0  0  0  0  0  0  0
  1  2  2  3
  2  3  1  0
  3  4  2  0
  3  5  1  0
  5  6  2  0
  6  7  1  0
  7  8  2  0
  8  9  1  0
  9 10  2  0
 10 11  1  0
 11 12  2  3
 12 13  1  0
 13 14  3  0
 12 15  1  0
 15 16  3  0
  8 17  1  0
 17 18  1  0
 18 19  1  0
 19 20  2  0
 20 21  1  0
 21 22  1  0
 21 23  1  0
  1 24  1  0
 24 25  1  0
 25 26  1  0
 26 27  2  0
 27 28  1  0
 28 29  2  0
 29 30  1  0
 30 31  1  0
 29 32  1  0
 32 33  1  0
 26 34  1  0
 34 35  2  0
 35 36  1  0
 36 37  2  0
 37 38  1  0
 38 39  2  0
 39 40  1  0
 40 41  1  0
 41 42  1  0
 40 43  2  0
 35 44  1  0
 44 45  1  0
 45 46  1  0
 46 47  1  0
 47 48  1  0
 48 49  1  0
 49 50  2  0
 50 51  1  0
 51 52  1  0
 49 53  1  0
 53 54  1  0
 54 55  1  0
 55 56  1  0
 56 57  1  0
 57 58  1  0
 58 59  2  0
 59 60  1  0
 60 61  2  0
 61 62  1  0
 62 63  1  0
 63 64  1  0
 62 65  2  0
 57 66  2  0
 66 67  1  0
 67 68  1  0
 68 69  1  0
 69 70  1  0
 70 71  1  0
 71 72  1  0
 72 73  1  0
 73 74  1  0
 74 75  1  0
 75 76  1  0
 73 77  1  0
 77 78  1  0
 70 79  1  0
 79 80  1  0
 66 81  1  0
 81 82  1  0
 82 83  1  0
 83 84  2  0
 84 85  1  0
 85 86  2  0
 86 87  1  0
 87 88  1  0
 86 89  1  0
 89 90  1  0
 83 91  1  0
 91 92  2  3
 92 93  1  0
 93 94  2  0
 93 95  1  0
 95 96  2  0
 96 97  1  0
 97 98  1  0
 98 99  2  0
 99100  1  0
 99101  1  0
101102  1  0
102103  1  0
103104  2  0
104105  1  0
105106  2  3
106107  1  0
107108  3  0
106109  1  0
109110  3  0
 11  2  1  0
 23 17  1  0
 33 24  2  0
 76 34  1  0
 90 81  2  0
105 92  1  0
 10  5  1  0
 22 18  1  0
 33 27  1  0
 43 36  1  0
 75 44  2  0
 90 84  1  0
104 95  1  0
 23  7  1  0
 74 46  2  0
102 97  2  0
 72 47  2  0
 52 48  2  0
 71 53  2  0
 69 54  2  0
 68 56  2  0
 65 58  1  0
  1111  1  0
  6112  1  0
  9113  1  0
 17114  1  0
 18115  1  0
 19116  1  0
 20117  1  0
 21118  1  0
 22119  1  0
 22120  1  0
 23121  1  0
 28122  1  0
 30123  1  0
 30124  1  0
 31125  1  0
 31126  1  0
 31127  1  0
 37128  1  0
 38129  1  0
 39130  1  0
 41131  1  0
 41132  1  0
 42133  1  0
 42134  1  0
 42135  1  0
 43136  1  0
 59137  1  0
 60138  1  0
 61139  1  0
 63140  1  0
 63141  1  0
 64142  1  0
 64143  1  0
 64144  1  0
 65145  1  0
 77146  1  0
 77147  1  0
 78148  1  0
 78149  1  0
 78150  1  0
 79151  1  0
 79152  1  0
 80153  1  0
 80154  1  0
 80155  1  0
 85156  1  0
 87157  1  0
 87158  1  0
 88159  1  0
 88160  1  0
 88161  1  0
 91162  1  0
 96163  1  0
 98164  1  0
103165  1  0
M  END

