
     RDKit          3D

211236  0  0  0  0  0  0  0  0999 V2000
   -2.1095   -7.2298    0.8613 C   0  0  0  0  0  0  0  0  0  0  0  0
   -3.2535   -6.9999    0.1894 C   0  0  0  0  0  0  0  0  0  0  0  0
   -3.3433   -6.5408   -1.2046 C   0  0  0  0  0  0  0  0  0  0  0  0
   -2.6717   -6.9679   -2.1812 O   0  0  0  0  0  0  0  0  0  0  0  0
   -4.3884   -5.5462   -1.3018 C   0  0  0  0  0  0  0  0  0  0  0  0
   -4.6240   -4.6694   -2.3840 C   0  0  0  0  0  0  0  0  0  0  0  0
   -5.4971   -3.6436   -2.0815 C   0  0  0  0  0  0  0  0  0  0  0  0
   -6.0963   -3.4720   -0.7890 C   0  0  0  0  0  0  0  0  0  0  0  0
   -5.9006   -4.3570    0.2617 C   0  0  0  0  0  0  0  0  0  0  0  0
   -5.0306   -5.4404   -0.0445 C   0  0  0  0  0  0  0  0  0  0  0  0
   -4.4777   -6.4818    0.8608 C   0  0  0  0  0  0  0  0  0  0  0  0
   -5.0619   -6.9932    1.9680 C   0  0  0  0  0  0  0  0  0  0  0  0
   -4.5408   -8.1711    2.6161 C   0  0  0  0  0  0  0  0  0  0  0  0
   -4.1237   -9.1191    3.1389 N   0  0  0  0  0  0  0  0  0  0  0  0
   -6.3031   -6.4819    2.4891 C   0  0  0  0  0  0  0  0  0  0  0  0
   -7.3003   -6.0703    2.9157 N   0  0  0  0  0  0  0  0  0  0  0  0
   -6.7083   -2.1730   -1.2300 C   0  0  0  0  0  0  0  0  0  0  0  0
   -6.0509   -0.8444   -0.7409 C   0  0  0  0  0  0  0  0  0  0  0  0
   -4.5635   -1.0344   -0.5468 C   0  0  0  0  0  0  0  0  0  0  0  0
   -4.0373   -1.2039   -1.7614 C   0  0  0  0  0  0  0  0  0  0  0  0
   -5.1893   -1.1295   -2.7383 C   0  0  0  0  0  0  0  0  0  0  0  0
   -6.0246   -0.0691   -2.0446 C   0  0  0  0  0  0  0  0  0  0  0  0
   -6.1219   -2.3676   -2.5614 C   0  0  0  0  0  0  0  0  0  0  0  0
   -0.8039   -6.7802    0.3512 C   0  0  0  0  0  0  0  0  0  0  0  0
   -0.1779   -7.1624   -0.8347 C   0  0  0  0  0  0  0  0  0  0  0  0
    0.9072   -6.3339   -1.1693 C   0  0  0  0  0  0  0  0  0  0  0  0
    1.6791   -6.3873   -2.3534 C   0  0  0  0  0  0  0  0  0  0  0  0
    1.3870   -7.3368   -3.4469 C   0  0  0  0  0  0  0  0  0  0  0  0
    2.3204   -8.1397   -4.0974 C   0  0  0  0  0  0  0  0  0  0  0  0
    1.7708   -8.9067   -5.1329 C   0  0  0  0  0  0  0  0  0  0  0  0
    0.4123   -8.6934   -5.3043 C   0  0  0  0  0  0  0  0  0  0  0  0
   -0.6326   -9.5226   -6.5000 S   0  0  0  0  0  0  0  0  0  0  0  0
   -0.3587   -8.3093   -7.8389 C   0  0  0  0  0  0  0  0  0  0  0  0
   -1.4100   -7.2087   -7.7863 C   0  0  0  0  0  0  0  0  0  0  0  0
   -0.1161   -7.5680   -4.1749 S   0  0  0  0  0  0  0  0  0  0  0  0
    2.7128   -5.4356   -2.4738 C   0  0  0  0  0  0  0  0  0  0  0  0
    2.9816   -4.4824   -1.4832 C   0  0  0  0  0  0  0  0  0  0  0  0
    2.2005   -4.4196   -0.3167 C   0  0  0  0  0  0  0  0  0  0  0  0
    2.4121   -3.3677    0.6962 C   0  0  0  0  0  0  0  0  0  0  0  0
    3.5816   -3.1602    1.4196 C   0  0  0  0  0  0  0  0  0  0  0  0
    3.5174   -2.0480    2.2614 C   0  0  0  0  0  0  0  0  0  0  0  0
    2.2962   -1.3927    2.2053 C   0  0  0  0  0  0  0  0  0  0  0  0
    1.8768    0.1066    3.0959 S   0  0  0  0  0  0  0  0  0  0  0  0
    0.9860   -0.7412    4.4452 C   0  0  0  0  0  0  0  0  0  0  0  0
    1.9471   -1.4311    5.4056 C   0  0  0  0  0  0  0  0  0  0  0  0
    1.2936   -2.1732    1.1082 S   0  0  0  0  0  0  0  0  0  0  0  0
    1.1621   -5.3568   -0.1991 C   0  0  0  0  0  0  0  0  0  0  0  0
    0.0274   -5.4826    1.0321 S   0  0  0  0  0  0  0  0  0  0  0  0
    3.9937   -3.5830   -1.8370 C   0  0  0  0  0  0  0  0  0  0  0  0
    4.5057   -3.8177   -3.1058 C   0  0  0  0  0  0  0  0  0  0  0  0
    3.7058   -5.1256   -3.8075 S   0  0  0  0  0  0  0  0  0  0  0  0
    5.4658   -2.9310   -3.7627 C   0  0  0  0  0  0  0  0  0  0  0  0
    6.7168   -2.5817   -3.2188 C   0  0  0  0  0  0  0  0  0  0  0  0
    7.3630   -3.3338   -2.1230 C   0  0  0  0  0  0  0  0  0  0  0  0
    7.5336   -4.7248   -2.2509 C   0  0  0  0  0  0  0  0  0  0  0  0
    8.1049   -5.4636   -1.2136 C   0  0  0  0  0  0  0  0  0  0  0  0
    8.5119   -4.8272   -0.0391 C   0  0  0  0  0  0  0  0  0  0  0  0
    8.3632   -3.4386    0.1014 C   0  0  0  0  0  0  0  0  0  0  0  0
    8.7957   -2.7521    1.3692 C   0  0  0  0  0  0  0  0  0  0  0  0
    7.6008   -2.4597    2.2723 C   0  0  0  0  0  0  0  0  0  0  0  0
    7.7781   -2.6981   -0.9408 C   0  0  0  0  0  0  0  0  0  0  0  0
    7.1901   -1.3856   -3.7734 C   0  0  0  0  0  0  0  0  0  0  0  0
    8.3127   -0.2370   -3.2080 S   0  0  0  0  0  0  0  0  0  0  0  0
    7.6877    0.9782   -4.2181 C   0  0  0  0  0  0  0  0  0  0  0  0
    7.4306    2.3063   -3.9559 C   0  0  0  0  0  0  0  0  0  0  0  0
    8.0945    3.2485   -3.1674 C   0  0  0  0  0  0  0  0  0  0  0  0
    7.4548    4.5041   -2.9183 C   0  0  0  0  0  0  0  0  0  0  0  0
    8.1202    5.3810   -2.1270 N   0  0  0  0  0  0  0  0  0  0  0  0
    9.4911    4.5005   -1.8240 S   0  0  0  0  0  0  0  0  0  0  0  0
    9.3125    3.0511   -2.6077 N   0  0  0  0  0  0  0  0  0  0  0  0
    6.1406    4.7055   -3.3773 C   0  0  0  0  0  0  0  0  0  0  0  0
    5.1709    5.5248   -2.8524 C   0  0  0  0  0  0  0  0  0  0  0  0
    5.1315    6.5478   -1.4957 S   0  0  0  0  0  0  0  0  0  0  0  0
    3.4975    6.1971   -1.1978 C   0  0  0  0  0  0  0  0  0  0  0  0
    2.6652    6.4404   -0.0964 C   0  0  0  0  0  0  0  0  0  0  0  0
    3.0010    7.4039    0.9685 C   0  0  0  0  0  0  0  0  0  0  0  0
    2.0925    8.4190    1.3109 C   0  0  0  0  0  0  0  0  0  0  0  0
    2.3824    9.2979    2.3576 C   0  0  0  0  0  0  0  0  0  0  0  0
    3.5702    9.1612    3.0822 C   0  0  0  0  0  0  0  0  0  0  0  0
    4.4884    8.1537    2.7484 C   0  0  0  0  0  0  0  0  0  0  0  0
    5.7338    7.9525    3.5721 C   0  0  0  0  0  0  0  0  0  0  0  0
    5.5092    6.8784    4.6327 C   0  0  0  0  0  0  0  0  0  0  0  0
    4.1961    7.2755    1.6931 C   0  0  0  0  0  0  0  0  0  0  0  0
    1.5100    5.6253   -0.1335 C   0  0  0  0  0  0  0  0  0  0  0  0
    1.5777    4.6659   -1.5446 S   0  0  0  0  0  0  0  0  0  0  0  0
    3.0284    5.2787   -2.1012 C   0  0  0  0  0  0  0  0  0  0  0  0
    3.9740    4.8980   -3.0554 C   0  0  0  0  0  0  0  0  0  0  0  0
    4.1001    3.7505   -3.7742 N   0  0  0  0  0  0  0  0  0  0  0  0
    5.4446    3.6849   -4.0464 C   0  0  0  0  0  0  0  0  0  0  0  0
    6.1682    2.5572   -4.4900 C   0  0  0  0  0  0  0  0  0  0  0  0
    5.6972    1.4829   -5.1747 N   0  0  0  0  0  0  0  0  0  0  0  0
    6.6201    0.5180   -4.9533 C   0  0  0  0  0  0  0  0  0  0  0  0
    6.3616   -0.8253   -4.7132 C   0  0  0  0  0  0  0  0  0  0  0  0
    4.9669   -1.7395   -4.8612 S   0  0  0  0  0  0  0  0  0  0  0  0
    4.9227    1.5735   -6.4183 C   0  0  0  0  0  0  0  0  0  0  0  0
    5.8454    1.6449   -7.6375 C   0  0  0  0  0  0  0  0  0  0  0  0
    3.1748    2.6092   -3.6743 C   0  0  0  0  0  0  0  0  0  0  0  0
    3.4996    1.7401   -2.4557 C   0  0  0  0  0  0  0  0  0  0  0  0
    0.5608    5.3365    0.9806 C   0  0  0  0  0  0  0  0  0  0  0  0
   -0.7306    4.8322    0.7028 C   0  0  0  0  0  0  0  0  0  0  0  0
   -1.2260    4.9364   -0.6088 O   0  0  0  0  0  0  0  0  0  0  0  0
   -2.6028    4.8762   -0.9812 C   0  0  0  0  0  0  0  0  0  0  0  0
   -2.7897    5.5557   -2.3292 C   0  0  0  0  0  0  0  0  0  0  0  0
   -1.4788    4.2399    1.7485 C   0  0  0  0  0  0  0  0  0  0  0  0
   -2.5445    3.3781    1.4633 O   0  0  0  0  0  0  0  0  0  0  0  0
   -2.3269    2.0645    0.9452 C   0  0  0  0  0  0  0  0  0  0  0  0
   -1.6862    1.1628    1.9975 C   0  0  0  0  0  0  0  0  0  0  0  0
   -1.0879    4.4270    3.0914 C   0  0  0  0  0  0  0  0  0  0  0  0
    0.1594    4.9922    3.3602 C   0  0  0  0  0  0  0  0  0  0  0  0
    0.9929    5.3896    2.3187 C   0  0  0  0  0  0  0  0  0  0  0  0
   -1.8269    3.8120    4.2184 C   0  0  0  0  0  0  0  0  0  0  0  0
   -3.1568    3.9027    4.4161 C   0  0  0  0  0  0  0  0  0  0  0  0
   -4.1216    4.6167    3.5667 C   0  0  0  0  0  0  0  0  0  0  0  0
   -3.8722    5.5901    2.8051 O   0  0  0  0  0  0  0  0  0  0  0  0
   -5.4348    4.0429    3.7801 C   0  0  0  0  0  0  0  0  0  0  0  0
   -6.6109    4.2752    3.0288 C   0  0  0  0  0  0  0  0  0  0  0  0
   -7.6647    3.4474    3.3725 C   0  0  0  0  0  0  0  0  0  0  0  0
   -7.5702    2.4383    4.3868 C   0  0  0  0  0  0  0  0  0  0  0  0
   -6.4224    2.2118    5.1275 C   0  0  0  0  0  0  0  0  0  0  0  0
   -5.3413    3.0765    4.8140 C   0  0  0  0  0  0  0  0  0  0  0  0
   -3.9579    3.0735    5.3587 C   0  0  0  0  0  0  0  0  0  0  0  0
   -3.5857    2.6572    6.5972 C   0  0  0  0  0  0  0  0  0  0  0  0
   -2.2804    2.9273    7.1420 C   0  0  0  0  0  0  0  0  0  0  0  0
   -1.2356    3.1416    7.5925 N   0  0  0  0  0  0  0  0  0  0  0  0
   -4.5366    2.1132    7.5319 C   0  0  0  0  0  0  0  0  0  0  0  0
   -5.2973    1.6924    8.2941 N   0  0  0  0  0  0  0  0  0  0  0  0
   -8.9771    2.0007    4.1072 C   0  0  0  0  0  0  0  0  0  0  0  0
   -9.1484    0.6763    3.3020 C   0  0  0  0  0  0  0  0  0  0  0  0
  -10.5799    0.6653    2.8245 C   0  0  0  0  0  0  0  0  0  0  0  0
  -10.6765    1.6177    1.8888 C   0  0  0  0  0  0  0  0  0  0  0  0
   -9.3062    2.2376    1.7634 C   0  0  0  0  0  0  0  0  0  0  0  0
   -8.4679    0.9892    1.9789 C   0  0  0  0  0  0  0  0  0  0  0  0
   -9.0787    3.0418    3.0768 C   0  0  0  0  0  0  0  0  0  0  0  0
   -2.1590   -7.3223    1.9350 H   0  0  0  0  0  0  0  0  0  0  0  0
   -4.0965   -4.7309   -3.3283 H   0  0  0  0  0  0  0  0  0  0  0  0
   -6.3062   -4.1632    1.2421 H   0  0  0  0  0  0  0  0  0  0  0  0
   -7.8215   -2.1763   -1.2277 H   0  0  0  0  0  0  0  0  0  0  0  0
   -6.5716   -0.3401    0.0939 H   0  0  0  0  0  0  0  0  0  0  0  0
   -4.0063   -0.9544    0.3802 H   0  0  0  0  0  0  0  0  0  0  0  0
   -2.9792   -1.3078   -1.9929 H   0  0  0  0  0  0  0  0  0  0  0  0
   -4.9018   -0.9007   -3.7886 H   0  0  0  0  0  0  0  0  0  0  0  0
   -5.5067    0.9165   -1.9639 H   0  0  0  0  0  0  0  0  0  0  0  0
   -7.0287    0.0727   -2.5055 H   0  0  0  0  0  0  0  0  0  0  0  0
   -6.8739   -2.5063   -3.3695 H   0  0  0  0  0  0  0  0  0  0  0  0
   -0.5164   -7.9931   -1.4359 H   0  0  0  0  0  0  0  0  0  0  0  0
    3.3713   -8.1755   -3.8352 H   0  0  0  0  0  0  0  0  0  0  0  0
    2.3474   -9.5929   -5.7390 H   0  0  0  0  0  0  0  0  0  0  0  0
    0.6585   -7.8670   -7.7775 H   0  0  0  0  0  0  0  0  0  0  0  0
   -0.4410   -8.8397   -8.8105 H   0  0  0  0  0  0  0  0  0  0  0  0
   -1.3514   -6.6638   -6.8215 H   0  0  0  0  0  0  0  0  0  0  0  0
   -1.2381   -6.4877   -8.6124 H   0  0  0  0  0  0  0  0  0  0  0  0
   -2.4249   -7.6451   -7.8999 H   0  0  0  0  0  0  0  0  0  0  0  0
    4.4689   -3.7752    1.3161 H   0  0  0  0  0  0  0  0  0  0  0  0
    4.3379   -1.7283    2.8946 H   0  0  0  0  0  0  0  0  0  0  0  0
    0.4102    0.0254    5.0078 H   0  0  0  0  0  0  0  0  0  0  0  0
    0.2645   -1.4763    4.0306 H   0  0  0  0  0  0  0  0  0  0  0  0
    1.3842   -1.8210    6.2793 H   0  0  0  0  0  0  0  0  0  0  0  0
    2.7147   -0.7145    5.7642 H   0  0  0  0  0  0  0  0  0  0  0  0
    2.4522   -2.2848    4.9058 H   0  0  0  0  0  0  0  0  0  0  0  0
    4.3070   -2.7501   -1.2233 H   0  0  0  0  0  0  0  0  0  0  0  0
    7.2169   -5.2335   -3.1512 H   0  0  0  0  0  0  0  0  0  0  0  0
    8.2399   -6.5339   -1.3287 H   0  0  0  0  0  0  0  0  0  0  0  0
    8.9618   -5.4195    0.7522 H   0  0  0  0  0  0  0  0  0  0  0  0
    9.5259   -3.3824    1.9261 H   0  0  0  0  0  0  0  0  0  0  0  0
    9.3129   -1.8020    1.1178 H   0  0  0  0  0  0  0  0  0  0  0  0
    6.8915   -1.7706    1.7656 H   0  0  0  0  0  0  0  0  0  0  0  0
    7.9521   -1.9830    3.2128 H   0  0  0  0  0  0  0  0  0  0  0  0
    7.0718   -3.4028    2.5289 H   0  0  0  0  0  0  0  0  0  0  0  0
    7.6233   -1.6347   -0.8130 H   0  0  0  0  0  0  0  0  0  0  0  0
    1.1629    8.5263    0.7680 H   0  0  0  0  0  0  0  0  0  0  0  0
    1.6796   10.0807    2.6176 H   0  0  0  0  0  0  0  0  0  0  0  0
    3.7720    9.8418    3.9046 H   0  0  0  0  0  0  0  0  0  0  0  0
    6.0336    8.9022    4.0675 H   0  0  0  0  0  0  0  0  0  0  0  0
    6.5740    7.6447    2.9135 H   0  0  0  0  0  0  0  0  0  0  0  0
    6.4371    6.7421    5.2289 H   0  0  0  0  0  0  0  0  0  0  0  0
    4.6832    7.1765    5.3145 H   0  0  0  0  0  0  0  0  0  0  0  0
    5.2528    5.9101    4.1498 H   0  0  0  0  0  0  0  0  0  0  0  0
    4.8833    6.4699    1.4623 H   0  0  0  0  0  0  0  0  0  0  0  0
    4.2551    0.6906   -6.5113 H   0  0  0  0  0  0  0  0  0  0  0  0
    4.2997    2.4963   -6.4270 H   0  0  0  0  0  0  0  0  0  0  0  0
    6.4274    0.7034   -7.7325 H   0  0  0  0  0  0  0  0  0  0  0  0
    5.2399    1.7781   -8.5590 H   0  0  0  0  0  0  0  0  0  0  0  0
    6.5466    2.5009   -7.5410 H   0  0  0  0  0  0  0  0  0  0  0  0
    3.2063    1.9801   -4.5765 H   0  0  0  0  0  0  0  0  0  0  0  0
    2.1295    2.9669   -3.6206 H   0  0  0  0  0  0  0  0  0  0  0  0
    3.3676    2.3207   -1.5208 H   0  0  0  0  0  0  0  0  0  0  0  0
    4.5462    1.3756   -2.5015 H   0  0  0  0  0  0  0  0  0  0  0  0
    2.8245    0.8608   -2.4258 H   0  0  0  0  0  0  0  0  0  0  0  0
   -3.2287    5.3982   -0.2269 H   0  0  0  0  0  0  0  0  0  0  0  0
   -2.9243    3.8155   -1.0765 H   0  0  0  0  0  0  0  0  0  0  0  0
   -2.5554    6.6407   -2.2422 H   0  0  0  0  0  0  0  0  0  0  0  0
   -3.8427    5.4435   -2.6628 H   0  0  0  0  0  0  0  0  0  0  0  0
   -2.1175    5.0928   -3.0834 H   0  0  0  0  0  0  0  0  0  0  0  0
   -1.6673    2.1095    0.0494 H   0  0  0  0  0  0  0  0  0  0  0  0
   -3.3037    1.6359    0.6428 H   0  0  0  0  0  0  0  0  0  0  0  0
   -1.5329    0.1450    1.5749 H   0  0  0  0  0  0  0  0  0  0  0  0
   -2.3466    1.0940    2.8896 H   0  0  0  0  0  0  0  0  0  0  0  0
   -0.6986    1.5695    2.3002 H   0  0  0  0  0  0  0  0  0  0  0  0
    0.5231    5.0585    4.3807 H   0  0  0  0  0  0  0  0  0  0  0  0
    1.9968    5.6902    2.5755 H   0  0  0  0  0  0  0  0  0  0  0  0
   -1.2353    3.1821    4.8608 H   0  0  0  0  0  0  0  0  0  0  0  0
   -6.6686    4.9974    2.2249 H   0  0  0  0  0  0  0  0  0  0  0  0
   -6.3654    1.3968    5.8318 H   0  0  0  0  0  0  0  0  0  0  0  0
   -9.6700    2.1302    4.9698 H   0  0  0  0  0  0  0  0  0  0  0  0
   -8.8091   -0.2504    3.8133 H   0  0  0  0  0  0  0  0  0  0  0  0
  -11.3596   -0.0372    3.0977 H   0  0  0  0  0  0  0  0  0  0  0  0
  -11.5476    1.8210    1.2772 H   0  0  0  0  0  0  0  0  0  0  0  0
   -9.1206    2.7914    0.8225 H   0  0  0  0  0  0  0  0  0  0  0  0
   -7.3717    1.1803    2.0617 H   0  0  0  0  0  0  0  0  0  0  0  0
   -8.6403    0.2063    1.1992 H   0  0  0  0  0  0  0  0  0  0  0  0
   -9.8250    3.8390    3.2911 H   0  0  0  0  0  0  0  0  0  0  0  0
  1  2  2  3
  2  3  1  0
  3  4  2  0
  3  5  1  0
  5  6  2  0
  6  7  1  0
  7  8  2  0
  8  9  1  0
  9 10  2  0
 10 11  1  0
 11 12  2  3
 12 13  1  0
 13 14  3  0
 12 15  1  0
 15 16  3  0
  8 17  1  0
 17 18  1  0
 18 19  1  0
 19 20  2  0
 20 21  1  0
 21 22  1  0
 21 23  1  0
  1 24  1  0
 24 25  2  0
 25 26  1  0
 26 27  2  0
 27 28  1  0
 28 29  2  0
 29 30  1  0
 30 31  2  0
 31 32  1  0
 32 33  1  0
 33 34  1  0
 31 35  1  0
 27 36  1  0
 36 37  2  0
 37 38  1  0
 38 39  1  0
 39 40  2  0
 40 41  1  0
 41 42  2  0
 42 43  1  0
 43 44  1  0
 44 45  1  0
 42 46  1  0
 38 47  2  0
 47 48  1  0
 37 49  1  0
 49 50  2  0
 50 51  1  0
 50 52  1  0
 52 53  2  0
 53 54  1  0
 54 55  2  0
 55 56  1  0
 56 57  2  0
 57 58  1  0
 58 59  1  0
 59 60  1  0
 58 61  2  0
 53 62  1  0
 62 63  1  0
 63 64  1  0
 64 65  1  0
 65 66  1  0
 66 67  1  0
 67 68  2  0
 68 69  1  0
 69 70  1  0
 67 71  1  0
 71 72  1  0
 72 73  1  0
 73 74  1  0
 74 75  1  0
 75 76  1  0
 76 77  2  0
 77 78  1  0
 78 79  2  0
 79 80  1  0
 80 81  1  0
 81 82  1  0
 80 83  2  0
 75 84  2  0
 84 85  1  0
 85 86  1  0
 86 87  1  0
 87 88  1  0
 88 89  1  0
 89 90  1  0
 90 91  1  0
 91 92  1  0
 92 93  1  0
 93 94  1  0
 91 95  1  0
 95 96  1  0
 88 97  1  0
 97 98  1  0
 84 99  1  0
 99100  2  0
100101  1  0
101102  1  0
102103  1  0
100104  1  0
104105  1  0
105106  1  0
106107  1  0
104108  2  0
108109  1  0
109110  2  0
108111  1  0
111112  2  3
112113  1  0
113114  2  0
113115  1  0
115116  2  0
116117  1  0
117118  2  0
118119  1  0
119120  2  0
120121  1  0
121122  2  3
122123  1  0
123124  3  0
122125  1  0
125126  3  0
118127  1  0
127128  1  0
128129  1  0
129130  2  0
130131  1  0
131132  1  0
131133  1  0
 11  2  1  0
 23 17  1  0
 48 24  1  0
 94 52  1  0
110 99  1  0
121112  1  0
133127  1  0
 10  5  1  0
 22 18  1  0
 47 26  1  0
 61 54  1  0
 93 62  2  0
120115  1  0
132128  1  0
 23  7  1  0
 35 28  1  0
 51 36  1  0
 92 64  2  0
133117  1  0
 46 39  1  0
 90 65  2  0
 70 66  2  0
 89 71  2  0
 87 72  2  0
 86 74  2  0
 83 76  1  0
  1134  1  0
  6135  1  0
  9136  1  0
 17137  1  0
 18138  1  0
 19139  1  0
 20140  1  0
 21141  1  0
 22142  1  0
 22143  1  0
 23144  1  0
 25145  1  0
 29146  1  0
 30147  1  0
 33148  1  0
 33149  1  0
 34150  1  0
 34151  1  0
 34152  1  0
 40153  1  0
 41154  1  0
 44155  1  0
 44156  1  0
 45157  1  0
 45158  1  0
 45159  1  0
 49160  1  0
 55161  1  0
 56162  1  0
 57163  1  0
 59164  1  0
 59165  1  0
 60166  1  0
 60167  1  0
 60168  1  0
 61169  1  0
 77170  1  0
 78171  1  0
 79172  1  0
 81173  1  0
 81174  1  0
 82175  1  0
 82176  1  0
 82177  1  0
 83178  1  0
 95179  1  0
 95180  1  0
 96181  1  0
 96182  1  0
 96183  1  0
 97184  1  0
 97185  1  0
 98186  1  0
 98187  1  0
 98188  1  0
102189  1  0
102190  1  0
103191  1  0
103192  1  0
103193  1  0
106194  1  0
106195  1  0
107196  1  0
107197  1  0
107198  1  0
109199  1  0
110200  1  0
111201  1  0
116202  1  0
119203  1  0
127204  1  0
128205  1  0
129206  1  0
130207  1  0
131208  1  0
132209  1  0
132210  1  0
133211  1  0
M  END

