
     RDKit          3D

239268  0  0  0  0  0  0  0  0999 V2000
   -2.2872   -6.1859    2.4916 C   0  0  0  0  0  0  0  0  0  0  0  0
   -3.1894   -5.9449    1.5161 C   0  0  0  0  0  0  0  0  0  0  0  0
   -3.6346   -6.9560    0.5576 C   0  0  0  0  0  0  0  0  0  0  0  0
   -3.1340   -8.1060    0.4118 O   0  0  0  0  0  0  0  0  0  0  0  0
   -4.7766   -6.4370   -0.1680 C   0  0  0  0  0  0  0  0  0  0  0  0
   -5.4136   -7.0180   -1.2897 C   0  0  0  0  0  0  0  0  0  0  0  0
   -6.3719   -6.2088   -1.8729 C   0  0  0  0  0  0  0  0  0  0  0  0
   -6.7293   -4.9231   -1.3525 C   0  0  0  0  0  0  0  0  0  0  0  0
   -6.1186   -4.3548   -0.2507 C   0  0  0  0  0  0  0  0  0  0  0  0
   -5.0862   -5.1428    0.3300 C   0  0  0  0  0  0  0  0  0  0  0  0
   -4.0417   -4.7317    1.3062 C   0  0  0  0  0  0  0  0  0  0  0  0
   -3.6504   -3.4460    1.4758 C   0  0  0  0  0  0  0  0  0  0  0  0
   -4.5912   -2.3600    1.5514 C   0  0  0  0  0  0  0  0  0  0  0  0
   -5.3395   -1.4821    1.6367 N   0  0  0  0  0  0  0  0  0  0  0  0
   -2.2590   -3.0747    1.4320 C   0  0  0  0  0  0  0  0  0  0  0  0
   -1.1427   -2.7701    1.3932 N   0  0  0  0  0  0  0  0  0  0  0  0
   -7.7154   -4.7227   -2.4640 C   0  0  0  0  0  0  0  0  0  0  0  0
   -7.3346   -3.7090   -3.5894 C   0  0  0  0  0  0  0  0  0  0  0  0
   -5.8315   -3.6672   -3.7557 C   0  0  0  0  0  0  0  0  0  0  0  0
   -5.4667   -4.8470   -4.2516 C   0  0  0  0  0  0  0  0  0  0  0  0
   -6.7363   -5.6531   -4.4176 C   0  0  0  0  0  0  0  0  0  0  0  0
   -7.6823   -4.5318   -4.8144 C   0  0  0  0  0  0  0  0  0  0  0  0
   -7.3283   -6.0229   -3.0183 C   0  0  0  0  0  0  0  0  0  0  0  0
   -1.9741   -5.2122    3.5428 C   0  0  0  0  0  0  0  0  0  0  0  0
   -0.6967   -4.7400    3.8251 C   0  0  0  0  0  0  0  0  0  0  0  0
   -0.9104   -3.5885    4.5568 C   0  0  0  0  0  0  0  0  0  0  0  0
   -0.0591   -2.4996    4.8396 C   0  0  0  0  0  0  0  0  0  0  0  0
    1.4020   -2.5094    4.6047 C   0  0  0  0  0  0  0  0  0  0  0  0
    2.2667   -2.1485    5.6523 C   0  0  0  0  0  0  0  0  0  0  0  0
    3.6507   -2.1943    5.4756 C   0  0  0  0  0  0  0  0  0  0  0  0
    4.1964   -2.5791    4.2409 C   0  0  0  0  0  0  0  0  0  0  0  0
    5.6884   -2.6632    4.0705 C   0  0  0  0  0  0  0  0  0  0  0  0
    6.2331   -3.9755    4.6223 C   0  0  0  0  0  0  0  0  0  0  0  0
    3.3334   -2.9180    3.1834 C   0  0  0  0  0  0  0  0  0  0  0  0
    1.9477   -2.8751    3.3630 C   0  0  0  0  0  0  0  0  0  0  0  0
   -0.7114   -1.3344    5.2860 C   0  0  0  0  0  0  0  0  0  0  0  0
   -2.0609   -1.3107    5.6046 C   0  0  0  0  0  0  0  0  0  0  0  0
   -2.8974   -2.4231    5.4024 C   0  0  0  0  0  0  0  0  0  0  0  0
   -4.3304   -2.4499    5.7669 C   0  0  0  0  0  0  0  0  0  0  0  0
   -5.2146   -1.4472    5.3454 C   0  0  0  0  0  0  0  0  0  0  0  0
   -6.5354   -1.4325    5.8048 C   0  0  0  0  0  0  0  0  0  0  0  0
   -6.9979   -2.4393    6.6671 C   0  0  0  0  0  0  0  0  0  0  0  0
   -8.3888   -2.3737    7.2370 C   0  0  0  0  0  0  0  0  0  0  0  0
   -8.3614   -1.8400    8.6669 C   0  0  0  0  0  0  0  0  0  0  0  0
   -6.1273   -3.4730    7.0454 C   0  0  0  0  0  0  0  0  0  0  0  0
   -4.8043   -3.4796    6.5953 C   0  0  0  0  0  0  0  0  0  0  0  0
   -2.2797   -3.5214    4.7791 C   0  0  0  0  0  0  0  0  0  0  0  0
   -2.8914   -4.5145    4.1837 O   0  0  0  0  0  0  0  0  0  0  0  0
   -2.3762    0.0026    5.8685 C   0  0  0  0  0  0  0  0  0  0  0  0
   -1.2081    0.7022    5.5976 C   0  0  0  0  0  0  0  0  0  0  0  0
   -0.2202   -0.1199    5.3069 O   0  0  0  0  0  0  0  0  0  0  0  0
   -1.1803    2.1303    5.2863 C   0  0  0  0  0  0  0  0  0  0  0  0
   -0.6426    3.1957    6.0405 C   0  0  0  0  0  0  0  0  0  0  0  0
   -0.1662    3.0936    7.4392 C   0  0  0  0  0  0  0  0  0  0  0  0
    0.7011    2.0616    7.8355 C   0  0  0  0  0  0  0  0  0  0  0  0
    1.0560    1.9184    9.1812 C   0  0  0  0  0  0  0  0  0  0  0  0
    0.5611    2.8053   10.1413 C   0  0  0  0  0  0  0  0  0  0  0  0
   -0.2931    3.8514    9.7608 C   0  0  0  0  0  0  0  0  0  0  0  0
   -0.8847    4.7642   10.8046 C   0  0  0  0  0  0  0  0  0  0  0  0
   -2.1341    4.1394   11.4278 C   0  0  0  0  0  0  0  0  0  0  0  0
   -0.6543    3.9868    8.4062 C   0  0  0  0  0  0  0  0  0  0  0  0
   -0.7625    4.3960    5.3273 C   0  0  0  0  0  0  0  0  0  0  0  0
   -0.1142    5.9593    5.5281 S   0  0  0  0  0  0  0  0  0  0  0  0
   -0.7423    6.4712    4.0298 C   0  0  0  0  0  0  0  0  0  0  0  0
   -0.3968    7.4029    3.0838 C   0  0  0  0  0  0  0  0  0  0  0  0
    0.7029    8.2800    3.0621 C   0  0  0  0  0  0  0  0  0  0  0  0
    1.1594    8.7770    1.8003 C   0  0  0  0  0  0  0  0  0  0  0  0
    2.2961    9.5150    1.8046 N   0  0  0  0  0  0  0  0  0  0  0  0
    2.6462    9.4787    3.4218 S   0  0  0  0  0  0  0  0  0  0  0  0
    1.4595    8.5775    4.1467 N   0  0  0  0  0  0  0  0  0  0  0  0
    0.4292    8.4707    0.6492 C   0  0  0  0  0  0  0  0  0  0  0  0
    0.6882    8.6873   -0.6841 C   0  0  0  0  0  0  0  0  0  0  0  0
    2.1564    8.6327   -1.5235 S   0  0  0  0  0  0  0  0  0  0  0  0
    1.4669    7.8031   -2.8373 C   0  0  0  0  0  0  0  0  0  0  0  0
    2.0513    6.9328   -3.7752 C   0  0  0  0  0  0  0  0  0  0  0  0
    3.5101    6.7571   -3.9438 C   0  0  0  0  0  0  0  0  0  0  0  0
    4.0741    6.7903   -5.2275 C   0  0  0  0  0  0  0  0  0  0  0  0
    5.4477    6.6046   -5.3983 C   0  0  0  0  0  0  0  0  0  0  0  0
    6.2709    6.3919   -4.2886 C   0  0  0  0  0  0  0  0  0  0  0  0
    5.7214    6.3585   -2.9974 C   0  0  0  0  0  0  0  0  0  0  0  0
    6.5892    6.0569   -1.8092 C   0  0  0  0  0  0  0  0  0  0  0  0
    6.7231    4.5492   -1.6261 C   0  0  0  0  0  0  0  0  0  0  0  0
    4.3370    6.5230   -2.8354 C   0  0  0  0  0  0  0  0  0  0  0  0
    1.0988    6.0456   -4.3153 C   0  0  0  0  0  0  0  0  0  0  0  0
   -0.3992    6.3374   -3.5718 S   0  0  0  0  0  0  0  0  0  0  0  0
    0.1234    7.6069   -2.6233 C   0  0  0  0  0  0  0  0  0  0  0  0
   -0.3101    8.0585   -1.3831 C   0  0  0  0  0  0  0  0  0  0  0  0
   -1.1973    7.4458   -0.5621 N   0  0  0  0  0  0  0  0  0  0  0  0
   -0.6962    7.6468    0.6879 C   0  0  0  0  0  0  0  0  0  0  0  0
   -1.0138    6.9791    1.8927 C   0  0  0  0  0  0  0  0  0  0  0  0
   -1.5428    5.7182    2.0443 N   0  0  0  0  0  0  0  0  0  0  0  0
   -1.3934    5.4740    3.3738 C   0  0  0  0  0  0  0  0  0  0  0  0
   -1.3780    4.2912    4.1054 C   0  0  0  0  0  0  0  0  0  0  0  0
   -1.7861    2.6979    3.8071 S   0  0  0  0  0  0  0  0  0  0  0  0
   -1.5335    4.6474    1.0294 C   0  0  0  0  0  0  0  0  0  0  0  0
   -0.1063    4.2027    0.7182 C   0  0  0  0  0  0  0  0  0  0  0  0
   -2.5980    7.1591   -0.9070 C   0  0  0  0  0  0  0  0  0  0  0  0
   -3.3061    8.3958   -1.4530 C   0  0  0  0  0  0  0  0  0  0  0  0
    1.4077    4.6859   -4.7572 C   0  0  0  0  0  0  0  0  0  0  0  0
    2.0302    3.7477   -3.9469 C   0  0  0  0  0  0  0  0  0  0  0  0
    1.8727    2.5512   -4.6067 C   0  0  0  0  0  0  0  0  0  0  0  0
    2.1047    1.2336   -4.1699 C   0  0  0  0  0  0  0  0  0  0  0  0
    2.7083    0.9317   -2.8539 C   0  0  0  0  0  0  0  0  0  0  0  0
    2.0894    0.0259   -1.9725 C   0  0  0  0  0  0  0  0  0  0  0  0
    2.6123   -0.1789   -0.6906 C   0  0  0  0  0  0  0  0  0  0  0  0
    3.7552    0.5221   -0.2737 C   0  0  0  0  0  0  0  0  0  0  0  0
    4.2815    0.3758    1.1292 C   0  0  0  0  0  0  0  0  0  0  0  0
    5.6079   -0.3781    1.1459 C   0  0  0  0  0  0  0  0  0  0  0  0
    4.3965    1.3866   -1.1698 C   0  0  0  0  0  0  0  0  0  0  0  0
    3.8793    1.5903   -2.4503 C   0  0  0  0  0  0  0  0  0  0  0  0
    1.6487    0.2265   -5.0372 C   0  0  0  0  0  0  0  0  0  0  0  0
    1.0449    0.5085   -6.2510 C   0  0  0  0  0  0  0  0  0  0  0  0
    0.8130    1.8309   -6.6872 C   0  0  0  0  0  0  0  0  0  0  0  0
    0.1671    2.1529   -7.9755 C   0  0  0  0  0  0  0  0  0  0  0  0
   -1.0376    1.5364   -8.3475 C   0  0  0  0  0  0  0  0  0  0  0  0
   -1.6203    1.8101   -9.5847 C   0  0  0  0  0  0  0  0  0  0  0  0
   -1.0059    2.7078  -10.4736 C   0  0  0  0  0  0  0  0  0  0  0  0
   -1.5933    2.9560  -11.8372 C   0  0  0  0  0  0  0  0  0  0  0  0
   -0.8656    2.1290  -12.8943 C   0  0  0  0  0  0  0  0  0  0  0  0
    0.1918    3.3360  -10.0988 C   0  0  0  0  0  0  0  0  0  0  0  0
    0.7736    3.0631   -8.8583 C   0  0  0  0  0  0  0  0  0  0  0  0
    1.2118    2.8406   -5.7903 C   0  0  0  0  0  0  0  0  0  0  0  0
    0.9496    4.1266   -5.8647 O   0  0  0  0  0  0  0  0  0  0  0  0
    0.7312   -0.7121   -6.8171 C   0  0  0  0  0  0  0  0  0  0  0  0
    1.1547   -1.6616   -5.8917 C   0  0  0  0  0  0  0  0  0  0  0  0
    1.6947   -1.0724   -4.8407 O   0  0  0  0  0  0  0  0  0  0  0  0
    0.9307   -3.1153   -6.0424 C   0  0  0  0  0  0  0  0  0  0  0  0
    1.4698   -4.0938   -5.2795 C   0  0  0  0  0  0  0  0  0  0  0  0
    2.3905   -3.9192   -4.1421 C   0  0  0  0  0  0  0  0  0  0  0  0
    3.1631   -2.9445   -3.9398 O   0  0  0  0  0  0  0  0  0  0  0  0
    2.3777   -5.1212   -3.3408 C   0  0  0  0  0  0  0  0  0  0  0  0
    3.0202   -5.3298   -2.0982 C   0  0  0  0  0  0  0  0  0  0  0  0
    2.7612   -6.5640   -1.5315 C   0  0  0  0  0  0  0  0  0  0  0  0
    1.9129   -7.5413   -2.1440 C   0  0  0  0  0  0  0  0  0  0  0  0
    1.2747   -7.3424   -3.3561 C   0  0  0  0  0  0  0  0  0  0  0  0
    1.5544   -6.0894   -3.9752 C   0  0  0  0  0  0  0  0  0  0  0  0
    1.0649   -5.5396   -5.2721 C   0  0  0  0  0  0  0  0  0  0  0  0
    0.5669   -6.2628   -6.3138 C   0  0  0  0  0  0  0  0  0  0  0  0
    0.3071   -5.6919   -7.6082 C   0  0  0  0  0  0  0  0  0  0  0  0
    0.0901   -5.2510   -8.6564 N   0  0  0  0  0  0  0  0  0  0  0  0
    0.3881   -7.6892   -6.2490 C   0  0  0  0  0  0  0  0  0  0  0  0
    0.2455   -8.8369   -6.2153 N   0  0  0  0  0  0  0  0  0  0  0  0
    2.1528   -8.4876   -1.0051 C   0  0  0  0  0  0  0  0  0  0  0  0
    3.1221   -9.6763   -1.2828 C   0  0  0  0  0  0  0  0  0  0  0  0
    3.4966  -10.2305    0.0703 C   0  0  0  0  0  0  0  0  0  0  0  0
    4.2807   -9.3132    0.6500 C   0  0  0  0  0  0  0  0  0  0  0  0
    4.4105   -8.1741   -0.3303 C   0  0  0  0  0  0  0  0  0  0  0  0
    4.4307   -8.9813   -1.6175 C   0  0  0  0  0  0  0  0  0  0  0  0
    3.0151   -7.4817   -0.3729 C   0  0  0  0  0  0  0  0  0  0  0  0
   -1.7398   -7.1218    2.4885 H   0  0  0  0  0  0  0  0  0  0  0  0
   -5.1364   -7.9814   -1.6958 H   0  0  0  0  0  0  0  0  0  0  0  0
   -6.3905   -3.3638    0.0674 H   0  0  0  0  0  0  0  0  0  0  0  0
   -8.7752   -4.6798   -2.1283 H   0  0  0  0  0  0  0  0  0  0  0  0
   -7.8329   -2.7184   -3.5172 H   0  0  0  0  0  0  0  0  0  0  0  0
   -5.1819   -2.8115   -3.5937 H   0  0  0  0  0  0  0  0  0  0  0  0
   -4.4674   -5.1132   -4.5821 H   0  0  0  0  0  0  0  0  0  0  0  0
   -6.6693   -6.4848   -5.1467 H   0  0  0  0  0  0  0  0  0  0  0  0
   -8.7574   -4.8423   -4.8506 H   0  0  0  0  0  0  0  0  0  0  0  0
   -7.4026   -4.0282   -5.7687 H   0  0  0  0  0  0  0  0  0  0  0  0
   -8.1544   -6.7700   -3.0428 H   0  0  0  0  0  0  0  0  0  0  0  0
    0.2269   -5.0823    3.3755 H   0  0  0  0  0  0  0  0  0  0  0  0
    1.8648   -1.8534    6.6142 H   0  0  0  0  0  0  0  0  0  0  0  0
    4.3009   -1.9407    6.3054 H   0  0  0  0  0  0  0  0  0  0  0  0
    6.1803   -1.8131    4.5928 H   0  0  0  0  0  0  0  0  0  0  0  0
    5.9620   -2.6009    2.9965 H   0  0  0  0  0  0  0  0  0  0  0  0
    7.3375   -3.9938    4.5064 H   0  0  0  0  0  0  0  0  0  0  0  0
    5.9905   -4.0722    5.7030 H   0  0  0  0  0  0  0  0  0  0  0  0
    5.8008   -4.8352    4.0654 H   0  0  0  0  0  0  0  0  0  0  0  0
    3.7343   -3.2150    2.2228 H   0  0  0  0  0  0  0  0  0  0  0  0
    1.3064   -3.1152    2.5267 H   0  0  0  0  0  0  0  0  0  0  0  0
   -4.8893   -0.6714    4.6648 H   0  0  0  0  0  0  0  0  0  0  0  0
   -7.1948   -0.6275    5.5043 H   0  0  0  0  0  0  0  0  0  0  0  0
   -8.8507   -3.3872    7.2363 H   0  0  0  0  0  0  0  0  0  0  0  0
   -9.0334   -1.7145    6.6168 H   0  0  0  0  0  0  0  0  0  0  0  0
   -7.8523   -0.8525    8.7087 H   0  0  0  0  0  0  0  0  0  0  0  0
   -9.4008   -1.7140    9.0388 H   0  0  0  0  0  0  0  0  0  0  0  0
   -7.8350   -2.5540    9.3365 H   0  0  0  0  0  0  0  0  0  0  0  0
   -6.4616   -4.2618    7.7070 H   0  0  0  0  0  0  0  0  0  0  0  0
   -4.1355   -4.2693    6.9204 H   0  0  0  0  0  0  0  0  0  0  0  0
   -3.3550    0.4313    6.0430 H   0  0  0  0  0  0  0  0  0  0  0  0
    1.0990    1.3645    7.1088 H   0  0  0  0  0  0  0  0  0  0  0  0
    1.7168    1.1157    9.4827 H   0  0  0  0  0  0  0  0  0  0  0  0
    0.8337    2.6753   11.1817 H   0  0  0  0  0  0  0  0  0  0  0  0
   -1.1606    5.7412   10.3482 H   0  0  0  0  0  0  0  0  0  0  0  0
   -0.1368    4.9738   11.5973 H   0  0  0  0  0  0  0  0  0  0  0  0
   -2.8879    3.9139   10.6421 H   0  0  0  0  0  0  0  0  0  0  0  0
   -2.5891    4.8409   12.1625 H   0  0  0  0  0  0  0  0  0  0  0  0
   -1.8754    3.1954   11.9565 H   0  0  0  0  0  0  0  0  0  0  0  0
   -1.3533    4.7675    8.1180 H   0  0  0  0  0  0  0  0  0  0  0  0
    3.4492    6.9574   -6.0964 H   0  0  0  0  0  0  0  0  0  0  0  0
    5.8769    6.6242   -6.3929 H   0  0  0  0  0  0  0  0  0  0  0  0
    7.3350    6.2512   -4.4346 H   0  0  0  0  0  0  0  0  0  0  0  0
    7.5960    6.5060   -1.9409 H   0  0  0  0  0  0  0  0  0  0  0  0
    6.1458    6.4975   -0.8912 H   0  0  0  0  0  0  0  0  0  0  0  0
    7.3152    4.1128   -2.4595 H   0  0  0  0  0  0  0  0  0  0  0  0
    5.7175    4.0832   -1.6144 H   0  0  0  0  0  0  0  0  0  0  0  0
    7.2371    4.3283   -0.6674 H   0  0  0  0  0  0  0  0  0  0  0  0
    3.9045    6.4309   -1.8483 H   0  0  0  0  0  0  0  0  0  0  0  0
   -2.1236    3.7785    1.3776 H   0  0  0  0  0  0  0  0  0  0  0  0
   -2.0224    4.9493    0.0993 H   0  0  0  0  0  0  0  0  0  0  0  0
    0.4274    3.9092    1.6497 H   0  0  0  0  0  0  0  0  0  0  0  0
   -0.1244    3.3396    0.0136 H   0  0  0  0  0  0  0  0  0  0  0  0
    0.4448    5.0288    0.2240 H   0  0  0  0  0  0  0  0  0  0  0  0
   -2.6384    6.3546   -1.6702 H   0  0  0  0  0  0  0  0  0  0  0  0
   -3.1560    6.8321   -0.0074 H   0  0  0  0  0  0  0  0  0  0  0  0
   -4.3706    8.1517   -1.6470 H   0  0  0  0  0  0  0  0  0  0  0  0
   -3.2574    9.2257   -0.7160 H   0  0  0  0  0  0  0  0  0  0  0  0
   -2.8386    8.7119   -2.4095 H   0  0  0  0  0  0  0  0  0  0  0  0
    2.4055    3.9123   -2.9452 H   0  0  0  0  0  0  0  0  0  0  0  0
    1.1824   -0.4912   -2.2605 H   0  0  0  0  0  0  0  0  0  0  0  0
    2.1036   -0.8577   -0.0182 H   0  0  0  0  0  0  0  0  0  0  0  0
    4.4329    1.3872    1.5656 H   0  0  0  0  0  0  0  0  0  0  0  0
    3.5508   -0.1588    1.7755 H   0  0  0  0  0  0  0  0  0  0  0  0
    5.4552   -1.4269    0.8165 H   0  0  0  0  0  0  0  0  0  0  0  0
    6.3494    0.1094    0.4782 H   0  0  0  0  0  0  0  0  0  0  0  0
    6.0153   -0.3702    2.1744 H   0  0  0  0  0  0  0  0  0  0  0  0
    5.2895    1.9147   -0.8690 H   0  0  0  0  0  0  0  0  0  0  0  0
    4.3860    2.2738   -3.1206 H   0  0  0  0  0  0  0  0  0  0  0  0
   -1.5322    0.8503   -7.6734 H   0  0  0  0  0  0  0  0  0  0  0  0
   -2.5378    1.3056   -9.8638 H   0  0  0  0  0  0  0  0  0  0  0  0
   -1.5071    4.0363  -12.0946 H   0  0  0  0  0  0  0  0  0  0  0  0
   -2.6741    2.6929  -11.8504 H   0  0  0  0  0  0  0  0  0  0  0  0
   -1.3145    2.3200  -13.8900 H   0  0  0  0  0  0  0  0  0  0  0  0
   -0.9505    1.0470  -12.6626 H   0  0  0  0  0  0  0  0  0  0  0  0
    0.2089    2.4091  -12.9327 H   0  0  0  0  0  0  0  0  0  0  0  0
    0.6877    4.0244  -10.7780 H   0  0  0  0  0  0  0  0  0  0  0  0
    1.7091    3.5404   -8.5989 H   0  0  0  0  0  0  0  0  0  0  0  0
    0.2409   -0.8980   -7.7637 H   0  0  0  0  0  0  0  0  0  0  0  0
    0.1922   -3.3684   -6.7818 H   0  0  0  0  0  0  0  0  0  0  0  0
    3.6456   -4.5890   -1.6234 H   0  0  0  0  0  0  0  0  0  0  0  0
    0.6047   -8.0872   -3.7464 H   0  0  0  0  0  0  0  0  0  0  0  0
    1.2333   -8.7379   -0.4297 H   0  0  0  0  0  0  0  0  0  0  0  0
    2.7679  -10.4271   -2.0184 H   0  0  0  0  0  0  0  0  0  0  0  0
    3.2814  -11.2184    0.4584 H   0  0  0  0  0  0  0  0  0  0  0  0
    4.8033   -9.4331    1.5926 H   0  0  0  0  0  0  0  0  0  0  0  0
    5.2774   -7.5004   -0.1630 H   0  0  0  0  0  0  0  0  0  0  0  0
    4.3985   -8.3715   -2.5456 H   0  0  0  0  0  0  0  0  0  0  0  0
    5.2984   -9.6826   -1.6845 H   0  0  0  0  0  0  0  0  0  0  0  0
    2.6374   -7.0937    0.5995 H   0  0  0  0  0  0  0  0  0  0  0  0
  1  2  2  3
  2  3  1  0
  3  4  2  0
  3  5  1  0
  5  6  2  0
  6  7  1  0
  7  8  2  0
  8  9  1  0
  9 10  2  0
 10 11  1  0
 11 12  2  3
 12 13  1  0
 13 14  3  0
 12 15  1  0
 15 16  3  0
  8 17  1  0
 17 18  1  0
 18 19  1  0
 19 20  2  0
 20 21  1  0
 21 22  1  0
 21 23  1  0
  1 24  1  0
 24 25  2  0
 25 26  1  0
 26 27  2  0
 27 28  1  0
 28 29  2  0
 29 30  1  0
 30 31  2  0
 31 32  1  0
 32 33  1  0
 31 34  1  0
 34 35  2  0
 27 36  1  0
 36 37  2  0
 37 38  1  0
 38 39  1  0
 39 40  2  0
 40 41  1  0
 41 42  2  0
 42 43  1  0
 43 44  1  0
 42 45  1  0
 45 46  2  0
 38 47  2  0
 47 48  1  0
 37 49  1  0
 49 50  2  0
 50 51  1  0
 50 52  1  0
 52 53  2  0
 53 54  1  0
 54 55  2  0
 55 56  1  0
 56 57  2  0
 57 58  1  0
 58 59  1  0
 59 60  1  0
 58 61  2  0
 53 62  1  0
 62 63  1  0
 63 64  1  0
 64 65  1  0
 65 66  1  0
 66 67  1  0
 67 68  2  0
 68 69  1  0
 69 70  1  0
 67 71  1  0
 71 72  1  0
 72 73  1  0
 73 74  1  0
 74 75  1  0
 75 76  1  0
 76 77  2  0
 77 78  1  0
 78 79  2  0
 79 80  1  0
 80 81  1  0
 81 82  1  0
 80 83  2  0
 75 84  2  0
 84 85  1  0
 85 86  1  0
 86 87  1  0
 87 88  1  0
 88 89  1  0
 89 90  1  0
 90 91  1  0
 91 92  1  0
 92 93  1  0
 93 94  1  0
 91 95  1  0
 95 96  1  0
 88 97  1  0
 97 98  1  0
 84 99  1  0
 99100  2  0
100101  1  0
101102  2  0
102103  1  0
103104  2  0
104105  1  0
105106  2  0
106107  1  0
107108  1  0
106109  1  0
109110  2  0
102111  1  0
111112  2  0
112113  1  0
113114  1  0
114115  2  0
115116  1  0
116117  2  0
117118  1  0
118119  1  0
117120  1  0
120121  2  0
113122  2  0
122123  1  0
112124  1  0
124125  2  0
125126  1  0
125127  1  0
127128  2  3
128129  1  0
129130  2  0
129131  1  0
131132  2  0
132133  1  0
133134  2  0
134135  1  0
135136  2  0
136137  1  0
137138  2  3
138139  1  0
139140  3  0
138141  1  0
141142  3  0
134143  1  0
143144  1  0
144145  1  0
145146  2  0
146147  1  0
147148  1  0
147149  1  0
 11  2  1  0
 23 17  1  0
 48 24  1  0
 94 52  1  0
123 99  1  0
137128  1  0
149143  1  0
 10  5  1  0
 22 18  1  0
 47 26  1  0
 61 54  1  0
 93 62  2  0
122101  1  0
136131  1  0
148144  1  0
 23  7  1  0
 35 28  1  0
 51 36  1  0
 92 64  2  0
110103  1  0
126111  1  0
149133  1  0
 46 39  1  0
 90 65  2  0
121114  1  0
 70 66  2  0
 89 71  2  0
 87 72  2  0
 86 74  2  0
 83 76  1  0
  1150  1  0
  6151  1  0
  9152  1  0
 17153  1  0
 18154  1  0
 19155  1  0
 20156  1  0
 21157  1  0
 22158  1  0
 22159  1  0
 23160  1  0
 25161  1  0
 29162  1  0
 30163  1  0
 32164  1  0
 32165  1  0
 33166  1  0
 33167  1  0
 33168  1  0
 34169  1  0
 35170  1  0
 40171  1  0
 41172  1  0
 43173  1  0
 43174  1  0
 44175  1  0
 44176  1  0
 44177  1  0
 45178  1  0
 46179  1  0
 49180  1  0
 55181  1  0
 56182  1  0
 57183  1  0
 59184  1  0
 59185  1  0
 60186  1  0
 60187  1  0
 60188  1  0
 61189  1  0
 77190  1  0
 78191  1  0
 79192  1  0
 81193  1  0
 81194  1  0
 82195  1  0
 82196  1  0
 82197  1  0
 83198  1  0
 95199  1  0
 95200  1  0
 96201  1  0
 96202  1  0
 96203  1  0
 97204  1  0
 97205  1  0
 98206  1  0
 98207  1  0
 98208  1  0
100209  1  0
104210  1  0
105211  1  0
107212  1  0
107213  1  0
108214  1  0
108215  1  0
108216  1  0
109217  1  0
110218  1  0
115219  1  0
116220  1  0
118221  1  0
118222  1  0
119223  1  0
119224  1  0
119225  1  0
120226  1  0
121227  1  0
124228  1  0
127229  1  0
132230  1  0
135231  1  0
143232  1  0
144233  1  0
145234  1  0
146235  1  0
147236  1  0
148237  1  0
148238  1  0
149239  1  0
M  END

