
     RDKit          3D

242270  0  0  0  0  0  0  0  0999 V2000
    6.3743    1.6713   -3.9639 C   0  0  0  0  0  0  0  0  0  0  0  0
    5.7750    2.8015   -3.5321 C   0  0  0  0  0  0  0  0  0  0  0  0
    6.5290    4.0611   -3.4708 C   0  0  0  0  0  0  0  0  0  0  0  0
    7.7517    4.1761   -3.2109 O   0  0  0  0  0  0  0  0  0  0  0  0
    5.6802    5.1726   -3.8396 C   0  0  0  0  0  0  0  0  0  0  0  0
    6.0040    6.5463   -3.7533 C   0  0  0  0  0  0  0  0  0  0  0  0
    4.9302    7.3782   -4.0122 C   0  0  0  0  0  0  0  0  0  0  0  0
    3.6308    6.9020   -4.3750 C   0  0  0  0  0  0  0  0  0  0  0  0
    3.3210    5.5550   -4.4647 C   0  0  0  0  0  0  0  0  0  0  0  0
    4.4143    4.6788   -4.2125 C   0  0  0  0  0  0  0  0  0  0  0  0
    4.4036    3.2080   -4.0006 C   0  0  0  0  0  0  0  0  0  0  0  0
    3.3008    2.4236   -4.0260 C   0  0  0  0  0  0  0  0  0  0  0  0
    3.1635    1.2600   -3.1871 C   0  0  0  0  0  0  0  0  0  0  0  0
    3.0045    0.3372   -2.5026 N   0  0  0  0  0  0  0  0  0  0  0  0
    2.1566    2.7331   -4.8472 C   0  0  0  0  0  0  0  0  0  0  0  0
    1.2589    2.9666   -5.5343 N   0  0  0  0  0  0  0  0  0  0  0  0
    3.1125    8.2997   -4.4244 C   0  0  0  0  0  0  0  0  0  0  0  0
    2.9013    8.9450   -5.8264 C   0  0  0  0  0  0  0  0  0  0  0  0
    2.7321   10.4180   -5.5654 C   0  0  0  0  0  0  0  0  0  0  0  0
    3.9271   10.8793   -5.1868 C   0  0  0  0  0  0  0  0  0  0  0  0
    4.8623    9.6867   -5.2009 C   0  0  0  0  0  0  0  0  0  0  0  0
    4.3015    8.9650   -6.4068 C   0  0  0  0  0  0  0  0  0  0  0  0
    4.4270    8.7882   -4.0208 C   0  0  0  0  0  0  0  0  0  0  0  0
    6.7817    0.6265   -2.9921 C   0  0  0  0  0  0  0  0  0  0  0  0
    5.8314   -0.7385   -2.7475 S   0  0  0  0  0  0  0  0  0  0  0  0
    6.6496   -1.3543   -1.4312 C   0  0  0  0  0  0  0  0  0  0  0  0
    7.7423   -0.5332   -1.1786 C   0  0  0  0  0  0  0  0  0  0  0  0
    8.7611   -0.7895   -0.1328 C   0  0  0  0  0  0  0  0  0  0  0  0
    8.6953   -1.8256    0.5815 O   0  0  0  0  0  0  0  0  0  0  0  0
    9.8573    0.1905    0.0371 C   0  0  0  0  0  0  0  0  0  0  0  0
   10.8410    0.1566    1.0304 C   0  0  0  0  0  0  0  0  0  0  0  0
   11.1599   -0.9526    1.9987 C   0  0  0  0  0  0  0  0  0  0  0  0
   11.9800   -2.0728    1.3267 C   0  0  0  0  0  0  0  0  0  0  0  0
   11.8151    1.5133    0.8298 S   0  0  0  0  0  0  0  0  0  0  0  0
   11.0101    2.1614   -0.4951 C   0  0  0  0  0  0  0  0  0  0  0  0
   11.3706    3.4891   -1.0926 C   0  0  0  0  0  0  0  0  0  0  0  0
   10.3935    4.5840   -0.6599 C   0  0  0  0  0  0  0  0  0  0  0  0
    9.9558    1.3024   -0.8284 C   0  0  0  0  0  0  0  0  0  0  0  0
    9.0382    1.4429   -1.9881 C   0  0  0  0  0  0  0  0  0  0  0  0
    9.3235    2.2235   -2.9359 O   0  0  0  0  0  0  0  0  0  0  0  0
    7.8464    0.5651   -2.0605 C   0  0  0  0  0  0  0  0  0  0  0  0
    6.0781   -2.3629   -0.5425 C   0  0  0  0  0  0  0  0  0  0  0  0
    5.2094   -1.9859    0.8693 S   0  0  0  0  0  0  0  0  0  0  0  0
    4.7115   -3.5721    1.1113 C   0  0  0  0  0  0  0  0  0  0  0  0
    3.5792   -4.1991    1.7529 C   0  0  0  0  0  0  0  0  0  0  0  0
    3.2416   -5.3064    1.0023 C   0  0  0  0  0  0  0  0  0  0  0  0
    4.4051   -5.7055    0.0804 C   0  0  0  0  0  0  0  0  0  0  0  0
    5.0973   -4.3540    0.0584 C   0  0  0  0  0  0  0  0  0  0  0  0
    5.8888   -3.7049   -0.8880 C   0  0  0  0  0  0  0  0  0  0  0  0
    5.3993   -6.6518    0.7696 C   0  0  0  0  0  0  0  0  0  0  0  0
    6.6533   -6.8953    0.1641 C   0  0  0  0  0  0  0  0  0  0  0  0
    7.6404   -7.6235    0.8325 C   0  0  0  0  0  0  0  0  0  0  0  0
    7.3996   -8.1399    2.1122 C   0  0  0  0  0  0  0  0  0  0  0  0
    8.4797   -8.8890    2.8446 C   0  0  0  0  0  0  0  0  0  0  0  0
    8.4120  -10.3787    2.5232 C   0  0  0  0  0  0  0  0  0  0  0  0
    6.1280   -7.9774    2.6885 C   0  0  0  0  0  0  0  0  0  0  0  0
    5.1378   -7.2499    2.0238 C   0  0  0  0  0  0  0  0  0  0  0  0
    3.9571   -6.2473   -1.2803 C   0  0  0  0  0  0  0  0  0  0  0  0
    3.5267   -5.3927   -2.3164 C   0  0  0  0  0  0  0  0  0  0  0  0
    2.9940   -5.9231   -3.5005 C   0  0  0  0  0  0  0  0  0  0  0  0
    2.8438   -7.3137   -3.6541 C   0  0  0  0  0  0  0  0  0  0  0  0
    2.2074   -7.8887   -4.8988 C   0  0  0  0  0  0  0  0  0  0  0  0
    3.2193   -8.6880   -5.7179 C   0  0  0  0  0  0  0  0  0  0  0  0
    3.2398   -8.1635   -2.6214 C   0  0  0  0  0  0  0  0  0  0  0  0
    3.8033   -7.6439   -1.4517 C   0  0  0  0  0  0  0  0  0  0  0  0
    1.8488   -5.5379    1.0235 C   0  0  0  0  0  0  0  0  0  0  0  0
    1.0772   -6.1626    0.0243 C   0  0  0  0  0  0  0  0  0  0  0  0
   -0.2993   -5.9622    0.0512 C   0  0  0  0  0  0  0  0  0  0  0  0
   -1.3203   -6.0061   -1.3014 S   0  0  0  0  0  0  0  0  0  0  0  0
   -2.6318   -5.4451   -0.4258 C   0  0  0  0  0  0  0  0  0  0  0  0
   -3.7951   -4.6667   -0.7574 C   0  0  0  0  0  0  0  0  0  0  0  0
   -4.2819   -4.1367    0.4115 C   0  0  0  0  0  0  0  0  0  0  0  0
   -3.5512   -4.6826    1.6349 C   0  0  0  0  0  0  0  0  0  0  0  0
   -3.1999   -3.6566    2.7178 C   0  0  0  0  0  0  0  0  0  0  0  0
   -2.8626   -2.3260    2.4007 C   0  0  0  0  0  0  0  0  0  0  0  0
   -2.5416   -1.4042    3.4095 C   0  0  0  0  0  0  0  0  0  0  0  0
   -2.4870   -1.8127    4.7479 C   0  0  0  0  0  0  0  0  0  0  0  0
   -2.1705   -0.8205    5.8388 C   0  0  0  0  0  0  0  0  0  0  0  0
   -3.4397   -0.1235    6.3229 C   0  0  0  0  0  0  0  0  0  0  0  0
   -2.7652   -3.1497    5.0681 C   0  0  0  0  0  0  0  0  0  0  0  0
   -3.1060   -4.0595    4.0660 C   0  0  0  0  0  0  0  0  0  0  0  0
   -4.4290   -5.8238    2.1833 C   0  0  0  0  0  0  0  0  0  0  0  0
   -5.7690   -5.5547    2.5366 C   0  0  0  0  0  0  0  0  0  0  0  0
   -6.6446   -6.5988    2.8555 C   0  0  0  0  0  0  0  0  0  0  0  0
   -6.2057   -7.9291    2.8495 C   0  0  0  0  0  0  0  0  0  0  0  0
   -7.1939   -9.0549    3.0217 C   0  0  0  0  0  0  0  0  0  0  0  0
   -7.7590   -9.4862    1.6671 C   0  0  0  0  0  0  0  0  0  0  0  0
   -4.8543   -8.2025    2.5807 C   0  0  0  0  0  0  0  0  0  0  0  0
   -3.9707   -7.1588    2.2728 C   0  0  0  0  0  0  0  0  0  0  0  0
   -2.3284   -5.2244    0.8943 C   0  0  0  0  0  0  0  0  0  0  0  0
   -0.9539   -5.3738    1.1494 C   0  0  0  0  0  0  0  0  0  0  0  0
   -0.1974   -4.7490    2.1529 C   0  0  0  0  0  0  0  0  0  0  0  0
    1.1988   -4.7539    1.9966 C   0  0  0  0  0  0  0  0  0  0  0  0
    2.2635   -3.5750    2.5943 S   0  0  0  0  0  0  0  0  0  0  0  0
   -5.0289   -2.9689    0.2439 C   0  0  0  0  0  0  0  0  0  0  0  0
   -5.0055   -2.5357   -1.0825 C   0  0  0  0  0  0  0  0  0  0  0  0
   -4.0631   -3.5927   -2.0236 S   0  0  0  0  0  0  0  0  0  0  0  0
   -5.4111   -1.1931   -1.4852 C   0  0  0  0  0  0  0  0  0  0  0  0
   -4.5254   -0.1243   -1.6087 C   0  0  0  0  0  0  0  0  0  0  0  0
   -5.1505    1.1270   -1.4494 C   0  0  0  0  0  0  0  0  0  0  0  0
   -4.5095    2.3895   -1.4233 C   0  0  0  0  0  0  0  0  0  0  0  0
   -3.0530    2.5712   -1.6182 C   0  0  0  0  0  0  0  0  0  0  0  0
   -2.1246    1.9765   -0.7436 C   0  0  0  0  0  0  0  0  0  0  0  0
   -0.7598    2.2802   -0.8499 C   0  0  0  0  0  0  0  0  0  0  0  0
   -0.3148    3.1934   -1.8100 C   0  0  0  0  0  0  0  0  0  0  0  0
   -1.2365    3.7951   -2.6738 C   0  0  0  0  0  0  0  0  0  0  0  0
   -0.6821    5.0011   -3.8777 S   0  0  0  0  0  0  0  0  0  0  0  0
   -1.0140    6.4333   -2.7989 C   0  0  0  0  0  0  0  0  0  0  0  0
   -0.8101    7.7268   -3.5747 C   0  0  0  0  0  0  0  0  0  0  0  0
   -2.5924    3.4666   -2.5944 C   0  0  0  0  0  0  0  0  0  0  0  0
   -5.3039    3.4926   -1.0775 C   0  0  0  0  0  0  0  0  0  0  0  0
   -6.6677    3.3829   -0.7707 C   0  0  0  0  0  0  0  0  0  0  0  0
   -7.3379    2.1546   -0.9193 C   0  0  0  0  0  0  0  0  0  0  0  0
   -8.8203    2.0711   -0.8224 C   0  0  0  0  0  0  0  0  0  0  0  0
   -9.6097    2.9603   -1.5761 C   0  0  0  0  0  0  0  0  0  0  0  0
  -11.0043    2.8559   -1.5700 C   0  0  0  0  0  0  0  0  0  0  0  0
  -11.6254    1.8410   -0.8409 C   0  0  0  0  0  0  0  0  0  0  0  0
  -10.8529    0.9347   -0.1086 C   0  0  0  0  0  0  0  0  0  0  0  0
  -11.6428   -0.4518    0.7052 S   0  0  0  0  0  0  0  0  0  0  0  0
  -11.4863   -1.5271   -0.7620 C   0  0  0  0  0  0  0  0  0  0  0  0
  -12.1973   -2.8527   -0.5313 C   0  0  0  0  0  0  0  0  0  0  0  0
   -9.4587    1.0734   -0.0633 C   0  0  0  0  0  0  0  0  0  0  0  0
   -6.5320    1.0364   -1.2196 C   0  0  0  0  0  0  0  0  0  0  0  0
   -6.9587   -0.5884   -1.2020 S   0  0  0  0  0  0  0  0  0  0  0  0
   -7.2002    4.5437   -0.1807 C   0  0  0  0  0  0  0  0  0  0  0  0
   -6.2531    5.5532   -0.0352 C   0  0  0  0  0  0  0  0  0  0  0  0
   -4.7782    5.0358   -0.6596 S   0  0  0  0  0  0  0  0  0  0  0  0
   -6.3332    6.6331    0.9623 C   0  0  0  0  0  0  0  0  0  0  0  0
   -5.8111    6.4716    2.1999 C   0  0  0  0  0  0  0  0  0  0  0  0
   -5.2301    5.2205    2.7078 C   0  0  0  0  0  0  0  0  0  0  0  0
   -5.6061    4.0526    2.4251 O   0  0  0  0  0  0  0  0  0  0  0  0
   -4.1720    5.5444    3.6349 C   0  0  0  0  0  0  0  0  0  0  0  0
   -3.2156    4.6565    4.1717 C   0  0  0  0  0  0  0  0  0  0  0  0
   -2.2239    5.2815    4.8955 C   0  0  0  0  0  0  0  0  0  0  0  0
   -2.1706    6.6987    5.0968 C   0  0  0  0  0  0  0  0  0  0  0  0
   -3.1143    7.5756    4.5920 C   0  0  0  0  0  0  0  0  0  0  0  0
   -4.1490    6.9526    3.8319 C   0  0  0  0  0  0  0  0  0  0  0  0
   -5.2654    7.5669    3.0472 C   0  0  0  0  0  0  0  0  0  0  0  0
   -5.8021    8.8012    3.1926 C   0  0  0  0  0  0  0  0  0  0  0  0
   -7.0648    9.1441    2.5855 C   0  0  0  0  0  0  0  0  0  0  0  0
   -8.0818    9.4164    2.1081 N   0  0  0  0  0  0  0  0  0  0  0  0
   -5.2461    9.7834    4.0744 C   0  0  0  0  0  0  0  0  0  0  0  0
   -4.8149   10.5864    4.7969 N   0  0  0  0  0  0  0  0  0  0  0  0
   -0.8941    6.5526    5.8770 C   0  0  0  0  0  0  0  0  0  0  0  0
   -0.9967    6.7014    7.4236 C   0  0  0  0  0  0  0  0  0  0  0  0
    0.2817    6.1218    7.9872 C   0  0  0  0  0  0  0  0  0  0  0  0
    0.2128    4.7955    7.8021 C   0  0  0  0  0  0  0  0  0  0  0  0
   -1.1023    4.5279    7.1146 C   0  0  0  0  0  0  0  0  0  0  0  0
   -1.9512    5.5808    7.8135 C   0  0  0  0  0  0  0  0  0  0  0  0
   -0.9564    5.1018    5.6707 C   0  0  0  0  0  0  0  0  0  0  0  0
    5.8790    1.1934   -4.7989 H   0  0  0  0  0  0  0  0  0  0  0  0
    6.9627    6.9118   -3.4200 H   0  0  0  0  0  0  0  0  0  0  0  0
    2.2979    5.2548   -4.6324 H   0  0  0  0  0  0  0  0  0  0  0  0
    2.3262    8.4906   -3.6727 H   0  0  0  0  0  0  0  0  0  0  0  0
    2.1109    8.4850   -6.4481 H   0  0  0  0  0  0  0  0  0  0  0  0
    1.8513   11.0291   -5.7564 H   0  0  0  0  0  0  0  0  0  0  0  0
    4.1799   11.9221   -5.0319 H   0  0  0  0  0  0  0  0  0  0  0  0
    5.9388    9.9409   -5.2433 H   0  0  0  0  0  0  0  0  0  0  0  0
    4.7509    7.9620   -6.5882 H   0  0  0  0  0  0  0  0  0  0  0  0
    4.3621    9.5570   -7.3535 H   0  0  0  0  0  0  0  0  0  0  0  0
    4.4442    9.2736   -3.0193 H   0  0  0  0  0  0  0  0  0  0  0  0
   11.7561   -0.5299    2.8437 H   0  0  0  0  0  0  0  0  0  0  0  0
   10.2270   -1.3747    2.4388 H   0  0  0  0  0  0  0  0  0  0  0  0
   11.4640   -3.0522    1.4458 H   0  0  0  0  0  0  0  0  0  0  0  0
   12.1949   -1.8794    0.2468 H   0  0  0  0  0  0  0  0  0  0  0  0
   12.9585   -2.1615    1.8352 H   0  0  0  0  0  0  0  0  0  0  0  0
   12.3903    3.7679   -0.7387 H   0  0  0  0  0  0  0  0  0  0  0  0
   11.4242    3.4197   -2.1958 H   0  0  0  0  0  0  0  0  0  0  0  0
   10.8577    5.5794   -0.8461 H   0  0  0  0  0  0  0  0  0  0  0  0
    9.4617    4.5257   -1.2535 H   0  0  0  0  0  0  0  0  0  0  0  0
   10.1406    4.5030    0.4091 H   0  0  0  0  0  0  0  0  0  0  0  0
    6.2317   -4.1465   -1.8093 H   0  0  0  0  0  0  0  0  0  0  0  0
    6.8790   -6.4880   -0.8147 H   0  0  0  0  0  0  0  0  0  0  0  0
    8.6084   -7.7643    0.3632 H   0  0  0  0  0  0  0  0  0  0  0  0
    8.3704   -8.7490    3.9426 H   0  0  0  0  0  0  0  0  0  0  0  0
    9.4804   -8.4999    2.5594 H   0  0  0  0  0  0  0  0  0  0  0  0
    9.1902  -10.9270    3.0950 H   0  0  0  0  0  0  0  0  0  0  0  0
    8.5867  -10.5421    1.4406 H   0  0  0  0  0  0  0  0  0  0  0  0
    7.4150  -10.7865    2.7987 H   0  0  0  0  0  0  0  0  0  0  0  0
    5.9137   -8.3962    3.6650 H   0  0  0  0  0  0  0  0  0  0  0  0
    4.1784   -7.1337    2.5128 H   0  0  0  0  0  0  0  0  0  0  0  0
    3.5661   -4.3166   -2.2049 H   0  0  0  0  0  0  0  0  0  0  0  0
    2.6566   -5.2476   -4.2779 H   0  0  0  0  0  0  0  0  0  0  0  0
    1.7828   -7.0843   -5.5410 H   0  0  0  0  0  0  0  0  0  0  0  0
    1.3633   -8.5540   -4.6084 H   0  0  0  0  0  0  0  0  0  0  0  0
    4.0301   -8.0195   -6.0813 H   0  0  0  0  0  0  0  0  0  0  0  0
    3.6636   -9.5018   -5.1069 H   0  0  0  0  0  0  0  0  0  0  0  0
    2.7173   -9.1511   -6.5948 H   0  0  0  0  0  0  0  0  0  0  0  0
    3.0950   -9.2360   -2.7043 H   0  0  0  0  0  0  0  0  0  0  0  0
    4.0493   -8.3378   -0.6643 H   0  0  0  0  0  0  0  0  0  0  0  0
    1.5074   -6.6226   -0.8439 H   0  0  0  0  0  0  0  0  0  0  0  0
   -2.8345   -1.9852    1.3773 H   0  0  0  0  0  0  0  0  0  0  0  0
   -2.3196   -0.3779    3.1414 H   0  0  0  0  0  0  0  0  0  0  0  0
   -1.4606   -0.0522    5.4686 H   0  0  0  0  0  0  0  0  0  0  0  0
   -1.6906   -1.3284    6.7039 H   0  0  0  0  0  0  0  0  0  0  0  0
   -3.8771    0.4868    5.5010 H   0  0  0  0  0  0  0  0  0  0  0  0
   -4.1852   -0.8784    6.6651 H   0  0  0  0  0  0  0  0  0  0  0  0
   -3.1939    0.5505    7.1747 H   0  0  0  0  0  0  0  0  0  0  0  0
   -2.7003   -3.4906    6.0960 H   0  0  0  0  0  0  0  0  0  0  0  0
   -3.2662   -5.0904    4.3479 H   0  0  0  0  0  0  0  0  0  0  0  0
   -6.1542   -4.5431    2.5077 H   0  0  0  0  0  0  0  0  0  0  0  0
   -7.6836   -6.3743    3.0655 H   0  0  0  0  0  0  0  0  0  0  0  0
   -8.0320   -8.7269    3.6778 H   0  0  0  0  0  0  0  0  0  0  0  0
   -6.7039   -9.9293    3.5033 H   0  0  0  0  0  0  0  0  0  0  0  0
   -8.2641   -8.6349    1.1642 H   0  0  0  0  0  0  0  0  0  0  0  0
   -6.9446   -9.8666    1.0127 H   0  0  0  0  0  0  0  0  0  0  0  0
   -8.5022  -10.3000    1.8003 H   0  0  0  0  0  0  0  0  0  0  0  0
   -4.5009   -9.2265    2.5776 H   0  0  0  0  0  0  0  0  0  0  0  0
   -2.9420   -7.4231    2.0536 H   0  0  0  0  0  0  0  0  0  0  0  0
   -0.6418   -4.1023    2.8922 H   0  0  0  0  0  0  0  0  0  0  0  0
   -5.4092   -2.3669    1.0681 H   0  0  0  0  0  0  0  0  0  0  0  0
   -3.4588   -0.2604   -1.7178 H   0  0  0  0  0  0  0  0  0  0  0  0
   -2.4585    1.3083    0.0416 H   0  0  0  0  0  0  0  0  0  0  0  0
   -0.0517    1.8271   -0.1631 H   0  0  0  0  0  0  0  0  0  0  0  0
    0.7378    3.4502   -1.8597 H   0  0  0  0  0  0  0  0  0  0  0  0
   -2.0591    6.3964   -2.4297 H   0  0  0  0  0  0  0  0  0  0  0  0
   -0.3188    6.4094   -1.9297 H   0  0  0  0  0  0  0  0  0  0  0  0
    0.2549    7.8358   -3.8331 H   0  0  0  0  0  0  0  0  0  0  0  0
   -1.4138    7.7160   -4.5115 H   0  0  0  0  0  0  0  0  0  0  0  0
   -1.1265    8.5903   -2.9510 H   0  0  0  0  0  0  0  0  0  0  0  0
   -3.2936    3.9430   -3.2655 H   0  0  0  0  0  0  0  0  0  0  0  0
   -9.1423    3.7356   -2.1722 H   0  0  0  0  0  0  0  0  0  0  0  0
  -11.5932    3.5478   -2.1547 H   0  0  0  0  0  0  0  0  0  0  0  0
  -12.7021    1.7469   -0.8711 H   0  0  0  0  0  0  0  0  0  0  0  0
  -11.9393   -1.0245   -1.6411 H   0  0  0  0  0  0  0  0  0  0  0  0
  -10.4118   -1.7125   -0.9684 H   0  0  0  0  0  0  0  0  0  0  0  0
  -11.7343   -3.3839    0.3297 H   0  0  0  0  0  0  0  0  0  0  0  0
  -13.2704   -2.6772   -0.3240 H   0  0  0  0  0  0  0  0  0  0  0  0
  -12.0983   -3.4836   -1.4407 H   0  0  0  0  0  0  0  0  0  0  0  0
   -8.8808    0.3865    0.5471 H   0  0  0  0  0  0  0  0  0  0  0  0
   -8.1850    4.6040    0.2575 H   0  0  0  0  0  0  0  0  0  0  0  0
   -6.5631    7.6212    0.5903 H   0  0  0  0  0  0  0  0  0  0  0  0
   -3.2309    3.5910    3.9904 H   0  0  0  0  0  0  0  0  0  0  0  0
   -3.0198    8.6390    4.7318 H   0  0  0  0  0  0  0  0  0  0  0  0
   -0.0260    7.0487    5.3975 H   0  0  0  0  0  0  0  0  0  0  0  0
   -1.2614    7.7134    7.7953 H   0  0  0  0  0  0  0  0  0  0  0  0
    1.0589    6.6420    8.5405 H   0  0  0  0  0  0  0  0  0  0  0  0
    0.9165    4.0695    8.1830 H   0  0  0  0  0  0  0  0  0  0  0  0
   -1.4672    3.4847    7.1821 H   0  0  0  0  0  0  0  0  0  0  0  0
   -2.0247    5.4280    8.9150 H   0  0  0  0  0  0  0  0  0  0  0  0
   -2.9746    5.6863    7.4040 H   0  0  0  0  0  0  0  0  0  0  0  0
   -0.1161    4.6841    5.0709 H   0  0  0  0  0  0  0  0  0  0  0  0
  1  2  2  3
  2  3  1  0
  3  4  2  0
  3  5  1  0
  5  6  2  0
  6  7  1  0
  7  8  2  0
  8  9  1  0
  9 10  2  0
 10 11  1  0
 11 12  2  3
 12 13  1  0
 13 14  3  0
 12 15  1  0
 15 16  3  0
  8 17  1  0
 17 18  1  0
 18 19  1  0
 19 20  2  0
 20 21  1  0
 21 22  1  0
 21 23  1  0
  1 24  1  0
 24 25  1  0
 25 26  1  0
 26 27  2  0
 27 28  1  0
 28 29  2  0
 28 30  1  0
 30 31  2  0
 31 32  1  0
 32 33  1  0
 31 34  1  0
 34 35  1  0
 35 36  1  0
 36 37  1  0
 35 38  2  0
 38 39  1  0
 39 40  2  0
 39 41  1  0
 26 42  1  0
 42 43  1  0
 43 44  1  0
 44 45  1  0
 45 46  2  0
 46 47  1  0
 47 48  1  0
 48 49  1  0
 47 50  1  0
 50 51  2  0
 51 52  1  0
 52 53  2  0
 53 54  1  0
 54 55  1  0
 53 56  1  0
 56 57  2  0
 47 58  1  0
 58 59  2  0
 59 60  1  0
 60 61  2  0
 61 62  1  0
 62 63  1  0
 61 64  1  0
 64 65  2  0
 46 66  1  0
 66 67  2  0
 67 68  1  0
 68 69  1  0
 69 70  1  0
 70 71  1  0
 71 72  2  0
 72 73  1  0
 73 74  1  0
 74 75  2  0
 75 76  1  0
 76 77  2  0
 77 78  1  0
 78 79  1  0
 77 80  1  0
 80 81  2  0
 73 82  1  0
 82 83  2  0
 83 84  1  0
 84 85  2  0
 85 86  1  0
 86 87  1  0
 85 88  1  0
 88 89  2  0
 73 90  1  0
 90 91  1  0
 91 92  1  0
 92 93  2  0
 93 94  1  0
 72 95  1  0
 95 96  2  0
 96 97  1  0
 96 98  1  0
 98 99  2  0
 99100  1  0
100101  2  0
101102  1  0
102103  2  0
103104  1  0
104105  2  0
105106  1  0
106107  1  0
107108  1  0
108109  1  0
106110  2  0
101111  1  0
111112  2  0
112113  1  0
113114  1  0
114115  2  0
115116  1  0
116117  2  0
117118  1  0
118119  1  0
119120  1  0
120121  1  0
118122  2  0
113123  2  0
123124  1  0
112125  1  0
125126  2  0
126127  1  0
126128  1  0
128129  2  3
129130  1  0
130131  2  0
130132  1  0
132133  2  0
133134  1  0
134135  2  0
135136  1  0
136137  2  0
137138  1  0
138139  2  3
139140  1  0
140141  3  0
139142  1  0
142143  3  0
135144  1  0
144145  1  0
145146  1  0
146147  2  0
147148  1  0
148149  1  0
148150  1  0
 11  2  1  0
 23 17  1  0
 41 24  2  0
 49 42  2  0
 57 50  1  0
 65 58  1  0
 93 66  1  0
124 98  1  0
138129  1  0
150144  1  0
 10  5  1  0
 22 18  1  0
 41 27  1  0
 48 44  2  0
 91 68  2  0
123100  1  0
137132  1  0
149145  1  0
 23  7  1  0
 38 30  1  0
 94 45  1  0
110102  1  0
127111  1  0
150134  1  0
 90 70  2  0
122114  1  0
 97 71  1  0
 81 74  1  0
 89 82  1  0
  1151  1  0
  6152  1  0
  9153  1  0
 17154  1  0
 18155  1  0
 19156  1  0
 20157  1  0
 21158  1  0
 22159  1  0
 22160  1  0
 23161  1  0
 32162  1  0
 32163  1  0
 33164  1  0
 33165  1  0
 33166  1  0
 36167  1  0
 36168  1  0
 37169  1  0
 37170  1  0
 37171  1  0
 49172  1  0
 51173  1  0
 52174  1  0
 54175  1  0
 54176  1  0
 55177  1  0
 55178  1  0
 55179  1  0
 56180  1  0
 57181  1  0
 59182  1  0
 60183  1  0
 62184  1  0
 62185  1  0
 63186  1  0
 63187  1  0
 63188  1  0
 64189  1  0
 65190  1  0
 67191  1  0
 75192  1  0
 76193  1  0
 78194  1  0
 78195  1  0
 79196  1  0
 79197  1  0
 79198  1  0
 80199  1  0
 81200  1  0
 83201  1  0
 84202  1  0
 86203  1  0
 86204  1  0
 87205  1  0
 87206  1  0
 87207  1  0
 88208  1  0
 89209  1  0
 92210  1  0
 95211  1  0
 99212  1  0
103213  1  0
104214  1  0
105215  1  0
108216  1  0
108217  1  0
109218  1  0
109219  1  0
109220  1  0
110221  1  0
115222  1  0
116223  1  0
117224  1  0
120225  1  0
120226  1  0
121227  1  0
121228  1  0
121229  1  0
122230  1  0
125231  1  0
128232  1  0
133233  1  0
136234  1  0
144235  1  0
145236  1  0
146237  1  0
147238  1  0
148239  1  0
149240  1  0
149241  1  0
150242  1  0
M  END

