
     RDKit          3D

211236  0  0  0  0  0  0  0  0999 V2000
   -0.7863   -4.8505  -11.0659 C   0  0  0  0  0  0  0  0  0  0  0  0
   -1.9151   -5.4521  -10.6698 C   0  0  0  0  0  0  0  0  0  0  0  0
   -2.7668   -5.1881   -9.5435 C   0  0  0  0  0  0  0  0  0  0  0  0
   -2.4538   -4.6175   -8.4636 O   0  0  0  0  0  0  0  0  0  0  0  0
   -4.0927   -5.7414   -9.8506 C   0  0  0  0  0  0  0  0  0  0  0  0
   -5.2596   -5.5671   -9.1215 C   0  0  0  0  0  0  0  0  0  0  0  0
   -6.4912   -5.9728   -9.5831 C   0  0  0  0  0  0  0  0  0  0  0  0
   -6.5150   -6.5557  -10.8174 C   0  0  0  0  0  0  0  0  0  0  0  0
   -5.3182   -6.7530  -11.5661 C   0  0  0  0  0  0  0  0  0  0  0  0
   -4.1256   -6.3341  -11.0568 C   0  0  0  0  0  0  0  0  0  0  0  0
   -2.7363   -6.2184  -11.6727 C   0  0  0  0  0  0  0  0  0  0  0  0
   -2.4395   -6.6709  -12.7335 C   0  0  0  0  0  0  0  0  0  0  0  0
   -1.5558   -6.9325  -13.8135 C   0  0  0  0  0  0  0  0  0  0  0  0
   -0.7049   -7.1756  -14.8173 N   0  0  0  0  0  0  0  0  0  0  0  0
   -3.3991   -7.9112  -13.1853 C   0  0  0  0  0  0  0  0  0  0  0  0
   -4.1595   -8.8880  -13.5359 N   0  0  0  0  0  0  0  0  0  0  0  0
   -7.9758   -6.7206  -10.8248 C   0  0  0  0  0  0  0  0  0  0  0  0
   -8.4630   -8.1002  -10.6139 C   0  0  0  0  0  0  0  0  0  0  0  0
   -7.3351   -8.8217   -9.9410 C   0  0  0  0  0  0  0  0  0  0  0  0
   -7.2211   -8.2707   -8.7052 C   0  0  0  0  0  0  0  0  0  0  0  0
   -8.3225   -7.2829   -8.5626 C   0  0  0  0  0  0  0  0  0  0  0  0
   -9.3622   -7.9340   -9.4038 C   0  0  0  0  0  0  0  0  0  0  0  0
   -7.9761   -6.1114   -9.4032 C   0  0  0  0  0  0  0  0  0  0  0  0
   -0.4043   -3.7121  -10.1837 C   0  0  0  0  0  0  0  0  0  0  0  0
    0.7975   -3.6609   -9.5374 C   0  0  0  0  0  0  0  0  0  0  0  0
    1.0021   -2.6119   -8.5954 C   0  0  0  0  0  0  0  0  0  0  0  0
    2.2314   -2.5671   -8.0011 O   0  0  0  0  0  0  0  0  0  0  0  0
    3.2730   -3.4387   -8.3131 C   0  0  0  0  0  0  0  0  0  0  0  0
    4.5265   -3.1295   -7.5785 C   0  0  0  0  0  0  0  0  0  0  0  0
    0.0203   -1.7105   -8.3335 C   0  0  0  0  0  0  0  0  0  0  0  0
   -1.1850   -1.7680   -9.0059 C   0  0  0  0  0  0  0  0  0  0  0  0
   -1.4039   -2.7657   -9.9450 C   0  0  0  0  0  0  0  0  0  0  0  0
   -2.5256   -2.9123  -10.7197 O   0  0  0  0  0  0  0  0  0  0  0  0
   -3.6750   -2.0537  -10.7232 C   0  0  0  0  0  0  0  0  0  0  0  0
   -3.2079   -0.6615  -11.0839 C   0  0  0  0  0  0  0  0  0  0  0  0
    0.2432   -0.6794   -7.2637 C   0  0  0  0  0  0  0  0  0  0  0  0
    0.9862    0.4229   -7.3849 C   0  0  0  0  0  0  0  0  0  0  0  0
    1.5601    0.8565   -8.6835 C   0  0  0  0  0  0  0  0  0  0  0  0
    0.8597    1.0488   -9.8266 C   0  0  0  0  0  0  0  0  0  0  0  0
    1.4304    1.5796  -10.9885 C   0  0  0  0  0  0  0  0  0  0  0  0
    2.7796    1.9319  -11.0025 C   0  0  0  0  0  0  0  0  0  0  0  0
    3.5054    1.7406   -9.8371 C   0  0  0  0  0  0  0  0  0  0  0  0
    4.8992    2.2063   -9.7391 C   0  0  0  0  0  0  0  0  0  0  0  0
    4.8920    3.5182   -8.9119 C   0  0  0  0  0  0  0  0  0  0  0  0
    2.9010    1.2173   -8.7576 C   0  0  0  0  0  0  0  0  0  0  0  0
    1.1425    1.2241   -6.2757 C   0  0  0  0  0  0  0  0  0  0  0  0
    2.0234    2.6992   -5.8777 S   0  0  0  0  0  0  0  0  0  0  0  0
    1.5115    2.7696   -4.2229 C   0  0  0  0  0  0  0  0  0  0  0  0
    1.6865    3.5556   -3.1068 C   0  0  0  0  0  0  0  0  0  0  0  0
    2.2698    4.7686   -2.8611 C   0  0  0  0  0  0  0  0  0  0  0  0
    2.1146    5.4005   -1.6884 C   0  0  0  0  0  0  0  0  0  0  0  0
    2.7103    6.5755   -1.5356 N   0  0  0  0  0  0  0  0  0  0  0  0
    3.5045    6.8392   -3.0036 S   0  0  0  0  0  0  0  0  0  0  0  0
    3.0420    5.4232   -3.7776 N   0  0  0  0  0  0  0  0  0  0  0  0
    1.3450    4.6854   -0.7521 C   0  0  0  0  0  0  0  0  0  0  0  0
    1.2039    4.9919    0.6110 C   0  0  0  0  0  0  0  0  0  0  0  0
    1.4356    6.1851    1.7817 S   0  0  0  0  0  0  0  0  0  0  0  0
    0.7525    5.3075    3.1339 C   0  0  0  0  0  0  0  0  0  0  0  0
    0.7166    5.4841    4.4934 C   0  0  0  0  0  0  0  0  0  0  0  0
    0.6743    6.9185    4.9968 C   0  0  0  0  0  0  0  0  0  0  0  0
   -0.5166    7.4166    5.5409 C   0  0  0  0  0  0  0  0  0  0  0  0
   -0.6222    8.7843    5.7908 C   0  0  0  0  0  0  0  0  0  0  0  0
    0.4084    9.6557    5.5301 C   0  0  0  0  0  0  0  0  0  0  0  0
    1.5707    9.1468    5.0082 C   0  0  0  0  0  0  0  0  0  0  0  0
    2.6680   10.0410    4.6127 C   0  0  0  0  0  0  0  0  0  0  0  0
    2.5841   10.2539    3.0904 C   0  0  0  0  0  0  0  0  0  0  0  0
    1.6502    7.7843    4.7639 C   0  0  0  0  0  0  0  0  0  0  0  0
    0.3950    4.5007    5.2623 C   0  0  0  0  0  0  0  0  0  0  0  0
    0.0454    3.2493    4.0852 S   0  0  0  0  0  0  0  0  0  0  0  0
    0.3991    4.1658    2.6142 C   0  0  0  0  0  0  0  0  0  0  0  0
    0.6115    3.9583    1.2621 C   0  0  0  0  0  0  0  0  0  0  0  0
    0.3212    2.9987    0.2657 N   0  0  0  0  0  0  0  0  0  0  0  0
    0.7584    3.4534   -0.9289 C   0  0  0  0  0  0  0  0  0  0  0  0
    0.8810    2.8497   -2.1529 C   0  0  0  0  0  0  0  0  0  0  0  0
    0.3144    1.8069   -2.7341 N   0  0  0  0  0  0  0  0  0  0  0  0
    0.7566    1.7719   -4.0803 C   0  0  0  0  0  0  0  0  0  0  0  0
    0.5210    0.8911   -5.1264 C   0  0  0  0  0  0  0  0  0  0  0  0
   -0.2518   -0.5905   -5.6453 S   0  0  0  0  0  0  0  0  0  0  0  0
   -0.7991    1.0188   -2.2968 C   0  0  0  0  0  0  0  0  0  0  0  0
   -0.5607   -0.3479   -1.8442 C   0  0  0  0  0  0  0  0  0  0  0  0
   -0.1368    1.7183    0.6288 C   0  0  0  0  0  0  0  0  0  0  0  0
   -1.6091    1.7299    0.8899 C   0  0  0  0  0  0  0  0  0  0  0  0
    0.6151    4.2351    6.7257 C   0  0  0  0  0  0  0  0  0  0  0  0
   -0.0790    3.7109    7.7070 C   0  0  0  0  0  0  0  0  0  0  0  0
    0.5627    3.2961    8.8343 C   0  0  0  0  0  0  0  0  0  0  0  0
    0.0116    2.4288    9.7945 C   0  0  0  0  0  0  0  0  0  0  0  0
   -1.4154    2.2978   10.0444 C   0  0  0  0  0  0  0  0  0  0  0  0
   -2.1141    1.3749   10.7328 C   0  0  0  0  0  0  0  0  0  0  0  0
   -3.4220    1.4833   10.9684 C   0  0  0  0  0  0  0  0  0  0  0  0
   -4.1675    2.5071   10.5314 C   0  0  0  0  0  0  0  0  0  0  0  0
   -5.8411    3.0692   10.6577 S   0  0  0  0  0  0  0  0  0  0  0  0
   -5.9567    4.2705   12.0359 C   0  0  0  0  0  0  0  0  0  0  0  0
   -5.6696    3.6442   13.3834 C   0  0  0  0  0  0  0  0  0  0  0  0
   -2.7153    3.5378    9.6052 Se  0  0  0  0  0  2  0  0  0  0  0  0
    0.9040    1.7901   10.6967 C   0  0  0  0  0  0  0  0  0  0  0  0
    2.2384    1.9510   10.7248 C   0  0  0  0  0  0  0  0  0  0  0  0
    2.7767    2.8383    9.8086 C   0  0  0  0  0  0  0  0  0  0  0  0
    4.1105    3.3460    9.8261 C   0  0  0  0  0  0  0  0  0  0  0  0
    5.1435    3.4559   10.6598 C   0  0  0  0  0  0  0  0  0  0  0  0
    6.3294    3.9849   10.2863 C   0  0  0  0  0  0  0  0  0  0  0  0
    6.5976    4.4270    9.0894 C   0  0  0  0  0  0  0  0  0  0  0  0
    7.9899    5.1794    8.3055 S   0  0  0  0  0  0  0  0  0  0  0  0
    7.7666    5.5140    6.5683 C   0  0  0  0  0  0  0  0  0  0  0  0
    7.7239    4.1879    5.7822 C   0  0  0  0  0  0  0  0  0  0  0  0
    4.8985    4.1095    8.1805 Se  0  0  0  0  0  2  0  0  0  0  0  0
    1.8931    3.4672    8.8857 C   0  0  0  0  0  0  0  0  0  0  0  0
    2.2444    4.2154    7.3914 S   0  0  0  0  0  0  0  0  0  0  0  0
    2.9640    0.9570   11.4217 C   0  0  0  0  0  0  0  0  0  0  0  0
    2.3065   -0.0302   11.9751 C   0  0  0  0  0  0  0  0  0  0  0  0
    0.6541    0.3380   11.6053 S   0  0  0  0  0  0  0  0  0  0  0  0
    2.5950   -1.4246   12.4549 C   0  0  0  0  0  0  0  0  0  0  0  0
    2.5726   -2.3236   11.3881 C   0  0  0  0  0  0  0  0  0  0  0  0
    2.3357   -1.8155   10.0314 C   0  0  0  0  0  0  0  0  0  0  0  0
    2.3191   -0.6854    9.5846 O   0  0  0  0  0  0  0  0  0  0  0  0
    2.0917   -3.0247    9.2059 C   0  0  0  0  0  0  0  0  0  0  0  0
    1.7518   -3.0692    7.8970 C   0  0  0  0  0  0  0  0  0  0  0  0
    1.4359   -4.2069    7.2486 C   0  0  0  0  0  0  0  0  0  0  0  0
    1.4387   -5.4224    7.9545 C   0  0  0  0  0  0  0  0  0  0  0  0
    1.8065   -5.3579    9.2798 C   0  0  0  0  0  0  0  0  0  0  0  0
    2.1461   -4.2026    9.9467 C   0  0  0  0  0  0  0  0  0  0  0  0
    2.4793   -3.7579   11.3676 C   0  0  0  0  0  0  0  0  0  0  0  0
    2.5570   -4.5810   12.3088 C   0  0  0  0  0  0  0  0  0  0  0  0
    2.4229   -6.0839   12.0248 C   0  0  0  0  0  0  0  0  0  0  0  0
    2.3372   -7.1331   11.8095 N   0  0  0  0  0  0  0  0  0  0  0  0
    2.5883   -4.4293   13.7781 C   0  0  0  0  0  0  0  0  0  0  0  0
    2.6003   -4.3240   14.9551 N   0  0  0  0  0  0  0  0  0  0  0  0
    0.7962   -6.1557    6.8679 C   0  0  0  0  0  0  0  0  0  0  0  0
    1.4827   -7.3260    6.3230 C   0  0  0  0  0  0  0  0  0  0  0  0
    2.8493   -7.3266    6.9565 C   0  0  0  0  0  0  0  0  0  0  0  0
    3.2986   -6.1053    6.6392 C   0  0  0  0  0  0  0  0  0  0  0  0
    2.5353   -5.5291    5.5010 C   0  0  0  0  0  0  0  0  0  0  0  0
    1.9218   -6.8240    4.9305 C   0  0  0  0  0  0  0  0  0  0  0  0
    1.2186   -4.9519    6.0093 C   0  0  0  0  0  0  0  0  0  0  0  0
   -0.2344   -5.1540  -11.8749 H   0  0  0  0  0  0  0  0  0  0  0  0
   -5.1415   -5.1181   -8.1570 H   0  0  0  0  0  0  0  0  0  0  0  0
   -5.4650   -7.1725  -12.5217 H   0  0  0  0  0  0  0  0  0  0  0  0
   -8.5035   -6.0757  -11.6001 H   0  0  0  0  0  0  0  0  0  0  0  0
   -8.8751   -8.6300  -11.4191 H   0  0  0  0  0  0  0  0  0  0  0  0
   -6.6987   -9.6127  -10.2937 H   0  0  0  0  0  0  0  0  0  0  0  0
   -6.4333   -8.5022   -7.9638 H   0  0  0  0  0  0  0  0  0  0  0  0
   -8.6557   -7.1030   -7.5101 H   0  0  0  0  0  0  0  0  0  0  0  0
  -10.2178   -7.2283   -9.6237 H   0  0  0  0  0  0  0  0  0  0  0  0
   -9.7026   -8.9350   -9.0472 H   0  0  0  0  0  0  0  0  0  0  0  0
   -8.5120   -5.1813   -9.2923 H   0  0  0  0  0  0  0  0  0  0  0  0
    1.5783   -4.3834   -9.7054 H   0  0  0  0  0  0  0  0  0  0  0  0
    3.0386   -4.5033   -8.2334 H   0  0  0  0  0  0  0  0  0  0  0  0
    3.4700   -3.3299   -9.4662 H   0  0  0  0  0  0  0  0  0  0  0  0
    5.3538   -3.7521   -7.9233 H   0  0  0  0  0  0  0  0  0  0  0  0
    4.7499   -2.0069   -7.7807 H   0  0  0  0  0  0  0  0  0  0  0  0
    4.3166   -3.2345   -6.4983 H   0  0  0  0  0  0  0  0  0  0  0  0
   -1.9287   -1.0679   -8.7934 H   0  0  0  0  0  0  0  0  0  0  0  0
   -4.3987   -2.3890  -11.5040 H   0  0  0  0  0  0  0  0  0  0  0  0
   -4.1331   -2.0296   -9.7272 H   0  0  0  0  0  0  0  0  0  0  0  0
   -3.5675    0.1140  -10.4017 H   0  0  0  0  0  0  0  0  0  0  0  0
   -3.4854   -0.3951  -12.1538 H   0  0  0  0  0  0  0  0  0  0  0  0
   -2.0901   -0.6674  -11.1239 H   0  0  0  0  0  0  0  0  0  0  0  0
   -0.1642    0.7881   -9.8780 H   0  0  0  0  0  0  0  0  0  0  0  0
    0.8803    1.7075  -11.8930 H   0  0  0  0  0  0  0  0  0  0  0  0
    3.2834    2.3445  -11.8600 H   0  0  0  0  0  0  0  0  0  0  0  0
    5.4393    1.4826   -9.0641 H   0  0  0  0  0  0  0  0  0  0  0  0
    5.4034    2.2917  -10.6692 H   0  0  0  0  0  0  0  0  0  0  0  0
    5.8674    3.7489   -8.5342 H   0  0  0  0  0  0  0  0  0  0  0  0
    4.5455    4.3944   -9.5160 H   0  0  0  0  0  0  0  0  0  0  0  0
    4.1272    3.4024   -8.0827 H   0  0  0  0  0  0  0  0  0  0  0  0
    3.4576    1.0419   -7.8120 H   0  0  0  0  0  0  0  0  0  0  0  0
   -1.3029    6.7656    5.7361 H   0  0  0  0  0  0  0  0  0  0  0  0
   -1.5813    9.1636    6.1850 H   0  0  0  0  0  0  0  0  0  0  0  0
    0.2898   10.6892    5.7377 H   0  0  0  0  0  0  0  0  0  0  0  0
    3.6703    9.7474    4.8871 H   0  0  0  0  0  0  0  0  0  0  0  0
    2.5026   11.0695    5.0639 H   0  0  0  0  0  0  0  0  0  0  0  0
    2.9546   11.2582    2.8905 H   0  0  0  0  0  0  0  0  0  0  0  0
    1.5584   10.1088    2.7474 H   0  0  0  0  0  0  0  0  0  0  0  0
    3.3044    9.5475    2.5786 H   0  0  0  0  0  0  0  0  0  0  0  0
    2.6245    7.4170    4.3469 H   0  0  0  0  0  0  0  0  0  0  0  0
   -1.5387    1.6618   -1.7134 H   0  0  0  0  0  0  0  0  0  0  0  0
   -1.5235    0.8815   -3.2195 H   0  0  0  0  0  0  0  0  0  0  0  0
    0.4975   -0.6068   -1.6585 H   0  0  0  0  0  0  0  0  0  0  0  0
   -0.8890   -1.1164   -2.6137 H   0  0  0  0  0  0  0  0  0  0  0  0
   -1.1481   -0.6609   -0.9432 H   0  0  0  0  0  0  0  0  0  0  0  0
    0.2617    1.4907    1.7399 H   0  0  0  0  0  0  0  0  0  0  0  0
    0.3297    0.8737    0.1643 H   0  0  0  0  0  0  0  0  0  0  0  0
   -2.1073    0.7374    0.7251 H   0  0  0  0  0  0  0  0  0  0  0  0
   -1.8339    1.9948    1.9804 H   0  0  0  0  0  0  0  0  0  0  0  0
   -2.1744    2.5510    0.3792 H   0  0  0  0  0  0  0  0  0  0  0  0
   -1.1900    3.6401    7.5824 H   0  0  0  0  0  0  0  0  0  0  0  0
   -1.5924    0.4284   11.0497 H   0  0  0  0  0  0  0  0  0  0  0  0
   -3.9660    0.6882   11.5652 H   0  0  0  0  0  0  0  0  0  0  0  0
   -6.9901    4.6172   12.0088 H   0  0  0  0  0  0  0  0  0  0  0  0
   -5.2886    5.1461   11.8953 H   0  0  0  0  0  0  0  0  0  0  0  0
   -5.1350    4.2814   14.0603 H   0  0  0  0  0  0  0  0  0  0  0  0
   -5.2040    2.6272   13.2981 H   0  0  0  0  0  0  0  0  0  0  0  0
   -6.6627    3.4178   13.9081 H   0  0  0  0  0  0  0  0  0  0  0  0
    5.0106    3.0850   11.7184 H   0  0  0  0  0  0  0  0  0  0  0  0
    7.1860    4.1032   11.0558 H   0  0  0  0  0  0  0  0  0  0  0  0
    8.5749    6.1269    6.1694 H   0  0  0  0  0  0  0  0  0  0  0  0
    6.7999    6.0850    6.3817 H   0  0  0  0  0  0  0  0  0  0  0  0
    7.3817    4.3787    4.7253 H   0  0  0  0  0  0  0  0  0  0  0  0
    7.1698    3.4223    6.2651 H   0  0  0  0  0  0  0  0  0  0  0  0
    8.7922    3.8789    5.7578 H   0  0  0  0  0  0  0  0  0  0  0  0
    4.0935    0.9852   11.4835 H   0  0  0  0  0  0  0  0  0  0  0  0
    2.8016   -1.6621   13.3729 H   0  0  0  0  0  0  0  0  0  0  0  0
    1.7691   -2.1032    7.3193 H   0  0  0  0  0  0  0  0  0  0  0  0
    1.8384   -6.2963    9.8201 H   0  0  0  0  0  0  0  0  0  0  0  0
   -0.3351   -6.1872    6.9650 H   0  0  0  0  0  0  0  0  0  0  0  0
    0.9647   -8.2643    6.3235 H   0  0  0  0  0  0  0  0  0  0  0  0
    3.3027   -8.0692    7.5183 H   0  0  0  0  0  0  0  0  0  0  0  0
    4.1230   -5.6546    7.1776 H   0  0  0  0  0  0  0  0  0  0  0  0
    3.0519   -4.9035    4.8051 H   0  0  0  0  0  0  0  0  0  0  0  0
    2.7046   -7.4981    4.5161 H   0  0  0  0  0  0  0  0  0  0  0  0
    1.0984   -6.5727    4.2640 H   0  0  0  0  0  0  0  0  0  0  0  0
    0.5124   -4.5515    5.3325 H   0  0  0  0  0  0  0  0  0  0  0  0
  1  2  2  3
  2  3  1  0
  3  4  2  0
  3  5  1  0
  5  6  2  0
  6  7  1  0
  7  8  2  0
  8  9  1  0
  9 10  2  0
 10 11  1  0
 11 12  2  3
 12 13  1  0
 13 14  3  0
 12 15  1  0
 15 16  3  0
  8 17  1  0
 17 18  1  0
 18 19  1  0
 19 20  2  0
 20 21  1  0
 21 22  1  0
 21 23  1  0
  1 24  1  0
 24 25  2  0
 25 26  1  0
 26 27  1  0
 27 28  1  0
 28 29  1  0
 26 30  2  0
 30 31  1  0
 31 32  2  0
 32 33  1  0
 33 34  1  0
 34 35  1  0
 30 36  1  0
 36 37  2  0
 37 38  1  0
 38 39  2  0
 39 40  1  0
 40 41  2  0
 41 42  1  0
 42 43  1  0
 43 44  1  0
 42 45  2  0
 37 46  1  0
 46 47  1  0
 47 48  1  0
 48 49  1  0
 49 50  1  0
 50 51  1  0
 51 52  2  0
 52 53  1  0
 53 54  1  0
 51 55  1  0
 55 56  1  0
 56 57  1  0
 57 58  1  0
 58 59  1  0
 59 60  1  0
 60 61  2  0
 61 62  1  0
 62 63  2  0
 63 64  1  0
 64 65  1  0
 65 66  1  0
 64 67  2  0
 59 68  2  0
 68 69  1  0
 69 70  1  0
 70 71  1  0
 71 72  1  0
 72 73  1  0
 73 74  1  0
 74 75  1  0
 75 76  1  0
 76 77  1  0
 77 78  1  0
 75 79  1  0
 79 80  1  0
 72 81  1  0
 81 82  1  0
 68 83  1  0
 83 84  2  0
 84 85  1  0
 85 86  2  0
 86 87  1  0
 87 88  2  0
 88 89  1  0
 89 90  2  0
 90 91  1  0
 91 92  1  0
 92 93  1  0
 90 94  1  0
 86 95  1  0
 95 96  2  0
 96 97  1  0
 97 98  1  0
 98 99  2  0
 99100  1  0
100101  2  0
101102  1  0
102103  1  0
103104  1  0
101105  1  0
 97106  2  0
106107  1  0
 96108  1  0
108109  2  0
109110  1  0
109111  1  0
111112  2  3
112113  1  0
113114  2  0
113115  1  0
115116  2  0
116117  1  0
117118  2  0
118119  1  0
119120  2  0
120121  1  0
121122  2  3
122123  1  0
123124  3  0
122125  1  0
125126  3  0
118127  1  0
127128  1  0
128129  1  0
129130  2  0
130131  1  0
131132  1  0
131133  1  0
 11  2  1  0
 23 17  1  0
 32 24  1  0
 78 36  1  0
107 83  1  0
121112  1  0
133127  1  0
 10  5  1  0
 22 18  1  0
 45 38  1  0
 77 46  2  0
106 85  1  0
120115  1  0
132128  1  0
 23  7  1  0
 76 48  2  0
 94 87  1  0
110 95  1  0
133117  1  0
 74 49  2  0
105 98  1  0
 54 50  2  0
 73 55  2  0
 71 56  2  0
 70 58  2  0
 67 60  1  0
  1134  1  0
  6135  1  0
  9136  1  0
 17137  1  0
 18138  1  0
 19139  1  0
 20140  1  0
 21141  1  0
 22142  1  0
 22143  1  0
 23144  1  0
 25145  1  0
 28146  1  0
 28147  1  0
 29148  1  0
 29149  1  0
 29150  1  0
 31151  1  0
 34152  1  0
 34153  1  0
 35154  1  0
 35155  1  0
 35156  1  0
 39157  1  0
 40158  1  0
 41159  1  0
 43160  1  0
 43161  1  0
 44162  1  0
 44163  1  0
 44164  1  0
 45165  1  0
 61166  1  0
 62167  1  0
 63168  1  0
 65169  1  0
 65170  1  0
 66171  1  0
 66172  1  0
 66173  1  0
 67174  1  0
 79175  1  0
 79176  1  0
 80177  1  0
 80178  1  0
 80179  1  0
 81180  1  0
 81181  1  0
 82182  1  0
 82183  1  0
 82184  1  0
 84185  1  0
 88186  1  0
 89187  1  0
 92188  1  0
 92189  1  0
 93190  1  0
 93191  1  0
 93192  1  0
 99193  1  0
100194  1  0
103195  1  0
103196  1  0
104197  1  0
104198  1  0
104199  1  0
108200  1  0
111201  1  0
116202  1  0
119203  1  0
127204  1  0
128205  1  0
129206  1  0
130207  1  0
131208  1  0
132209  1  0
132210  1  0
133211  1  0
M  END

