
     RDKit          3D

191214  0  0  0  0  0  0  0  0999 V2000
    1.8085    5.3980   -7.5755 C   0  0  0  0  0  0  0  0  0  0  0  0
    1.8053    6.0743   -6.4084 C   0  0  0  0  0  0  0  0  0  0  0  0
    1.5595    7.5140   -6.3284 C   0  0  0  0  0  0  0  0  0  0  0  0
    1.6579    8.3338   -7.2767 O   0  0  0  0  0  0  0  0  0  0  0  0
    1.0958    7.8317   -4.9889 C   0  0  0  0  0  0  0  0  0  0  0  0
    0.6926    9.0938   -4.4930 C   0  0  0  0  0  0  0  0  0  0  0  0
    0.2672    9.0669   -3.1767 C   0  0  0  0  0  0  0  0  0  0  0  0
    0.2130    7.8698   -2.3947 C   0  0  0  0  0  0  0  0  0  0  0  0
    0.6003    6.6321   -2.8720 C   0  0  0  0  0  0  0  0  0  0  0  0
    1.0722    6.6405   -4.2154 C   0  0  0  0  0  0  0  0  0  0  0  0
    1.6580    5.5395   -5.0215 C   0  0  0  0  0  0  0  0  0  0  0  0
    2.3033    4.4585   -4.5082 C   0  0  0  0  0  0  0  0  0  0  0  0
    3.4247    3.8601   -5.1827 C   0  0  0  0  0  0  0  0  0  0  0  0
    4.3501    3.3852   -5.6881 N   0  0  0  0  0  0  0  0  0  0  0  0
    2.0434    3.9460   -3.1845 C   0  0  0  0  0  0  0  0  0  0  0  0
    1.8332    3.5219   -2.1266 N   0  0  0  0  0  0  0  0  0  0  0  0
   -0.3437    8.6299   -1.2287 C   0  0  0  0  0  0  0  0  0  0  0  0
   -1.8658    8.4836   -0.9158 C   0  0  0  0  0  0  0  0  0  0  0  0
   -2.6353    8.2231   -2.1904 C   0  0  0  0  0  0  0  0  0  0  0  0
   -2.5704    9.3460   -2.9085 C   0  0  0  0  0  0  0  0  0  0  0  0
   -1.7571   10.3314   -2.1005 C   0  0  0  0  0  0  0  0  0  0  0  0
   -2.2270    9.9430   -0.7099 C   0  0  0  0  0  0  0  0  0  0  0  0
   -0.2753    9.8609   -2.0236 C   0  0  0  0  0  0  0  0  0  0  0  0
    1.6156    3.9355   -7.6610 C   0  0  0  0  0  0  0  0  0  0  0  0
    2.6235    3.1410   -8.2280 C   0  0  0  0  0  0  0  0  0  0  0  0
    3.6759    3.7192   -8.8627 F   0  0  0  0  0  0  0  0  0  0  0  0
    2.6495    1.7634   -7.9813 C   0  0  0  0  0  0  0  0  0  0  0  0
    3.7423    1.0469   -8.3435 F   0  0  0  0  0  0  0  0  0  0  0  0
    1.6308    1.1615   -7.2235 C   0  0  0  0  0  0  0  0  0  0  0  0
    0.5019    1.9197   -6.8705 C   0  0  0  0  0  0  0  0  0  0  0  0
   -0.5563    1.3409   -6.2437 N   0  0  0  0  0  0  0  0  0  0  0  0
   -1.6265    2.0676   -5.8233 C   0  0  0  0  0  0  0  0  0  0  0  0
   -2.7187    1.4320   -5.2207 O   0  0  0  0  0  0  0  0  0  0  0  0
   -2.7943    0.0179   -5.0768 C   0  0  0  0  0  0  0  0  0  0  0  0
   -4.1010   -0.3641   -4.4035 C   0  0  0  0  0  0  0  0  0  0  0  0
   -1.6270    3.4582   -6.0180 C   0  0  0  0  0  0  0  0  0  0  0  0
   -0.5633    4.0429   -6.6344 N   0  0  0  0  0  0  0  0  0  0  0  0
    0.4982    3.3127   -7.0734 C   0  0  0  0  0  0  0  0  0  0  0  0
   -2.7674    4.3064   -5.5574 C   0  0  0  0  0  0  0  0  0  0  0  0
    1.9467   -0.0305   -6.4226 C   0  0  0  0  0  0  0  0  0  0  0  0
    1.5042   -1.3570   -6.6183 C   0  0  0  0  0  0  0  0  0  0  0  0
    0.6795   -1.7956   -7.7575 C   0  0  0  0  0  0  0  0  0  0  0  0
   -0.5422   -2.4511   -7.5357 C   0  0  0  0  0  0  0  0  0  0  0  0
   -1.3667   -2.7878   -8.6146 C   0  0  0  0  0  0  0  0  0  0  0  0
   -0.9842   -2.4677   -9.9226 C   0  0  0  0  0  0  0  0  0  0  0  0
    0.2409   -1.8188  -10.1584 C   0  0  0  0  0  0  0  0  0  0  0  0
    0.6635   -1.4681  -11.5599 C   0  0  0  0  0  0  0  0  0  0  0  0
    0.2413   -0.0468  -11.9128 C   0  0  0  0  0  0  0  0  0  0  0  0
    1.0656   -1.4807   -9.0712 C   0  0  0  0  0  0  0  0  0  0  0  0
    1.8141   -2.1435   -5.4978 C   0  0  0  0  0  0  0  0  0  0  0  0
    1.5658   -3.7811   -5.0419 S   0  0  0  0  0  0  0  0  0  0  0  0
    2.1999   -3.4847   -3.4815 C   0  0  0  0  0  0  0  0  0  0  0  0
    2.4661   -4.1072   -2.2815 C   0  0  0  0  0  0  0  0  0  0  0  0
    2.4709   -5.4476   -1.8582 C   0  0  0  0  0  0  0  0  0  0  0  0
    2.9043   -5.7459   -0.5197 C   0  0  0  0  0  0  0  0  0  0  0  0
    2.8908   -7.0494   -0.1487 N   0  0  0  0  0  0  0  0  0  0  0  0
    2.3461   -7.7345   -1.5561 S   0  0  0  0  0  0  0  0  0  0  0  0
    2.1035   -6.4962   -2.6325 N   0  0  0  0  0  0  0  0  0  0  0  0
    3.2406   -4.6830    0.3427 C   0  0  0  0  0  0  0  0  0  0  0  0
    3.3505   -4.6126    1.7139 C   0  0  0  0  0  0  0  0  0  0  0  0
    3.2091   -5.6484    3.0587 S   0  0  0  0  0  0  0  0  0  0  0  0
    2.8865   -4.3358    4.1138 C   0  0  0  0  0  0  0  0  0  0  0  0
    2.5270   -4.2022    5.4692 C   0  0  0  0  0  0  0  0  0  0  0  0
    2.7270   -5.2409    6.5154 C   0  0  0  0  0  0  0  0  0  0  0  0
    3.1838   -4.8507    7.7898 C   0  0  0  0  0  0  0  0  0  0  0  0
    3.4390   -5.8042    8.7798 C   0  0  0  0  0  0  0  0  0  0  0  0
    3.2385   -7.1567    8.5179 C   0  0  0  0  0  0  0  0  0  0  0  0
    2.7677   -7.5694    7.2601 C   0  0  0  0  0  0  0  0  0  0  0  0
    2.6325   -9.0403    6.9680 C   0  0  0  0  0  0  0  0  0  0  0  0
    3.9525   -9.6019    6.4415 C   0  0  0  0  0  0  0  0  0  0  0  0
    2.5073   -6.6089    6.2619 C   0  0  0  0  0  0  0  0  0  0  0  0
    2.1212   -2.8683    5.7405 C   0  0  0  0  0  0  0  0  0  0  0  0
    2.2831   -1.9106    4.3463 S   0  0  0  0  0  0  0  0  0  0  0  0
    2.8354   -3.1674    3.3982 C   0  0  0  0  0  0  0  0  0  0  0  0
    3.1418   -3.3115    2.0571 C   0  0  0  0  0  0  0  0  0  0  0  0
    2.9208   -2.5110    0.9858 N   0  0  0  0  0  0  0  0  0  0  0  0
    3.1151   -3.3517   -0.0750 C   0  0  0  0  0  0  0  0  0  0  0  0
    2.8792   -3.0765   -1.4309 C   0  0  0  0  0  0  0  0  0  0  0  0
    3.0216   -1.8938   -2.0949 N   0  0  0  0  0  0  0  0  0  0  0  0
    2.5683   -2.1902   -3.3329 C   0  0  0  0  0  0  0  0  0  0  0  0
    2.3997   -1.4461   -4.4766 C   0  0  0  0  0  0  0  0  0  0  0  0
    2.6155    0.1541   -4.8705 S   0  0  0  0  0  0  0  0  0  0  0  0
    3.8929   -0.7605   -1.7490 C   0  0  0  0  0  0  0  0  0  0  0  0
    5.2465   -0.8803   -2.4575 C   0  0  0  0  0  0  0  0  0  0  0  0
    1.9882   -1.3701    0.9972 C   0  0  0  0  0  0  0  0  0  0  0  0
    0.5357   -1.8563    1.1197 C   0  0  0  0  0  0  0  0  0  0  0  0
    1.3697   -2.3639    6.9188 C   0  0  0  0  0  0  0  0  0  0  0  0
    1.6233   -1.0545    7.3753 C   0  0  0  0  0  0  0  0  0  0  0  0
    2.7170   -0.3746    6.9452 F   0  0  0  0  0  0  0  0  0  0  0  0
    0.6894   -0.3880    8.1773 C   0  0  0  0  0  0  0  0  0  0  0  0
    0.8802    0.9267    8.4588 F   0  0  0  0  0  0  0  0  0  0  0  0
   -0.5029   -1.0233    8.5442 C   0  0  0  0  0  0  0  0  0  0  0  0
   -0.6802   -2.3860    8.2513 C   0  0  0  0  0  0  0  0  0  0  0  0
   -1.8078   -3.0362    8.6505 N   0  0  0  0  0  0  0  0  0  0  0  0
   -2.0875   -4.3007    8.2422 C   0  0  0  0  0  0  0  0  0  0  0  0
   -3.2550   -4.9447    8.6676 O   0  0  0  0  0  0  0  0  0  0  0  0
   -4.0300   -4.4887    9.7783 C   0  0  0  0  0  0  0  0  0  0  0  0
   -5.2603   -5.3660    9.9198 C   0  0  0  0  0  0  0  0  0  0  0  0
   -1.2036   -4.9422    7.3615 C   0  0  0  0  0  0  0  0  0  0  0  0
   -0.0729   -4.2994    6.9744 N   0  0  0  0  0  0  0  0  0  0  0  0
    0.2315   -3.0438    7.4017 C   0  0  0  0  0  0  0  0  0  0  0  0
   -1.4567   -6.3392    6.8923 C   0  0  0  0  0  0  0  0  0  0  0  0
   -1.6582   -0.1982    8.9342 C   0  0  0  0  0  0  0  0  0  0  0  0
   -2.6689    0.0408    8.0716 C   0  0  0  0  0  0  0  0  0  0  0  0
   -2.6750   -0.3176    6.6411 C   0  0  0  0  0  0  0  0  0  0  0  0
   -1.8552   -1.0669    6.0437 O   0  0  0  0  0  0  0  0  0  0  0  0
   -3.7244    0.4117    5.9808 C   0  0  0  0  0  0  0  0  0  0  0  0
   -4.0000    0.4027    4.5957 C   0  0  0  0  0  0  0  0  0  0  0  0
   -4.9827    1.2950    4.2256 C   0  0  0  0  0  0  0  0  0  0  0  0
   -5.6548    2.1582    5.1500 C   0  0  0  0  0  0  0  0  0  0  0  0
   -5.3908    2.1604    6.5135 C   0  0  0  0  0  0  0  0  0  0  0  0
   -4.3948    1.2288    6.9253 C   0  0  0  0  0  0  0  0  0  0  0  0
   -3.8439    0.9393    8.2849 C   0  0  0  0  0  0  0  0  0  0  0  0
   -4.4505    1.1862    9.4721 C   0  0  0  0  0  0  0  0  0  0  0  0
   -4.0620    0.5007   10.6782 C   0  0  0  0  0  0  0  0  0  0  0  0
   -3.7687   -0.0815   11.6324 N   0  0  0  0  0  0  0  0  0  0  0  0
   -5.6406    1.9913    9.5830 C   0  0  0  0  0  0  0  0  0  0  0  0
   -6.5962    2.6354    9.6862 N   0  0  0  0  0  0  0  0  0  0  0  0
   -6.4100    2.7969    4.0195 C   0  0  0  0  0  0  0  0  0  0  0  0
   -5.9420    4.2163    3.5810 C   0  0  0  0  0  0  0  0  0  0  0  0
   -6.5421    4.4546    2.2117 C   0  0  0  0  0  0  0  0  0  0  0  0
   -5.8963    3.6410    1.3670 C   0  0  0  0  0  0  0  0  0  0  0  0
   -4.8890    2.8817    2.1936 C   0  0  0  0  0  0  0  0  0  0  0  0
   -4.4984    3.9869    3.1620 C   0  0  0  0  0  0  0  0  0  0  0  0
   -5.7178    1.9094    3.0805 C   0  0  0  0  0  0  0  0  0  0  0  0
    1.8958    5.9442   -8.5031 H   0  0  0  0  0  0  0  0  0  0  0  0
    0.7045   10.0007   -5.0845 H   0  0  0  0  0  0  0  0  0  0  0  0
    0.5170    5.7552   -2.2534 H   0  0  0  0  0  0  0  0  0  0  0  0
    0.3212    8.6310   -0.3344 H   0  0  0  0  0  0  0  0  0  0  0  0
   -2.1170    7.8068   -0.0728 H   0  0  0  0  0  0  0  0  0  0  0  0
   -3.2004    7.3318   -2.4505 H   0  0  0  0  0  0  0  0  0  0  0  0
   -3.0649    9.5244   -3.8581 H   0  0  0  0  0  0  0  0  0  0  0  0
   -1.9091   11.3956   -2.3792 H   0  0  0  0  0  0  0  0  0  0  0  0
   -1.6456   10.4331    0.1056 H   0  0  0  0  0  0  0  0  0  0  0  0
   -3.3196   10.1145   -0.5469 H   0  0  0  0  0  0  0  0  0  0  0  0
    0.4370   10.6109   -1.6184 H   0  0  0  0  0  0  0  0  0  0  0  0
   -1.9416   -0.3460   -4.4595 H   0  0  0  0  0  0  0  0  0  0  0  0
   -2.7372   -0.4640   -6.0806 H   0  0  0  0  0  0  0  0  0  0  0  0
   -4.1583    0.0948   -3.3927 H   0  0  0  0  0  0  0  0  0  0  0  0
   -4.1667   -1.4681   -4.3038 H   0  0  0  0  0  0  0  0  0  0  0  0
   -4.9583   -0.0084   -5.0136 H   0  0  0  0  0  0  0  0  0  0  0  0
   -3.7007    3.9992   -6.0762 H   0  0  0  0  0  0  0  0  0  0  0  0
   -2.8964    4.1879   -4.4619 H   0  0  0  0  0  0  0  0  0  0  0  0
   -2.5745    5.3797   -5.7770 H   0  0  0  0  0  0  0  0  0  0  0  0
   -0.8796   -2.6639   -6.5333 H   0  0  0  0  0  0  0  0  0  0  0  0
   -2.3195   -3.2640   -8.4369 H   0  0  0  0  0  0  0  0  0  0  0  0
   -1.6425   -2.7098  -10.7472 H   0  0  0  0  0  0  0  0  0  0  0  0
    1.7679   -1.5568  -11.6594 H   0  0  0  0  0  0  0  0  0  0  0  0
    0.2061   -2.1729  -12.2863 H   0  0  0  0  0  0  0  0  0  0  0  0
   -0.8647    0.0485  -11.8645 H   0  0  0  0  0  0  0  0  0  0  0  0
    0.5773    0.1877  -12.9436 H   0  0  0  0  0  0  0  0  0  0  0  0
    0.6994    0.6844  -11.2121 H   0  0  0  0  0  0  0  0  0  0  0  0
    2.0020   -0.9665   -9.2506 H   0  0  0  0  0  0  0  0  0  0  0  0
    3.3855   -3.8101    8.0143 H   0  0  0  0  0  0  0  0  0  0  0  0
    3.7997   -5.4856    9.7517 H   0  0  0  0  0  0  0  0  0  0  0  0
    3.4570   -7.8822    9.2923 H   0  0  0  0  0  0  0  0  0  0  0  0
    2.3462   -9.5915    7.8930 H   0  0  0  0  0  0  0  0  0  0  0  0
    1.8296   -9.2156    6.2178 H   0  0  0  0  0  0  0  0  0  0  0  0
    4.1954   -9.1470    5.4575 H   0  0  0  0  0  0  0  0  0  0  0  0
    3.8676  -10.7032    6.3145 H   0  0  0  0  0  0  0  0  0  0  0  0
    4.7734   -9.3900    7.1607 H   0  0  0  0  0  0  0  0  0  0  0  0
    2.1455   -6.9380    5.2994 H   0  0  0  0  0  0  0  0  0  0  0  0
    3.4019    0.1897   -2.0391 H   0  0  0  0  0  0  0  0  0  0  0  0
    4.1005   -0.7302   -0.6624 H   0  0  0  0  0  0  0  0  0  0  0  0
    5.1136   -0.8851   -3.5577 H   0  0  0  0  0  0  0  0  0  0  0  0
    5.8854   -0.0095   -2.1833 H   0  0  0  0  0  0  0  0  0  0  0  0
    5.7569   -1.8142   -2.1406 H   0  0  0  0  0  0  0  0  0  0  0  0
    2.0480   -0.7784    0.0708 H   0  0  0  0  0  0  0  0  0  0  0  0
    2.2328   -0.6798    1.8275 H   0  0  0  0  0  0  0  0  0  0  0  0
    0.3642   -2.3207    2.1110 H   0  0  0  0  0  0  0  0  0  0  0  0
    0.3188   -2.6001    0.3253 H   0  0  0  0  0  0  0  0  0  0  0  0
   -0.1546   -0.9950    1.0042 H   0  0  0  0  0  0  0  0  0  0  0  0
   -4.3454   -3.4339    9.6184 H   0  0  0  0  0  0  0  0  0  0  0  0
   -3.4252   -4.5664   10.7094 H   0  0  0  0  0  0  0  0  0  0  0  0
   -5.8493   -5.0392   10.8043 H   0  0  0  0  0  0  0  0  0  0  0  0
   -4.9534   -6.4245   10.0681 H   0  0  0  0  0  0  0  0  0  0  0  0
   -5.8919   -5.2854    9.0086 H   0  0  0  0  0  0  0  0  0  0  0  0
   -1.2207   -7.0516    7.7119 H   0  0  0  0  0  0  0  0  0  0  0  0
   -2.5178   -6.4639    6.5831 H   0  0  0  0  0  0  0  0  0  0  0  0
   -0.8132   -6.5682    6.0175 H   0  0  0  0  0  0  0  0  0  0  0  0
   -1.6146    0.3122    9.8880 H   0  0  0  0  0  0  0  0  0  0  0  0
   -3.4552   -0.2043    3.8792 H   0  0  0  0  0  0  0  0  0  0  0  0
   -5.8741    2.8633    7.1701 H   0  0  0  0  0  0  0  0  0  0  0  0
   -7.5127    2.6457    4.0682 H   0  0  0  0  0  0  0  0  0  0  0  0
   -6.1126    5.0322    4.3131 H   0  0  0  0  0  0  0  0  0  0  0  0
   -7.2689    5.2096    1.9282 H   0  0  0  0  0  0  0  0  0  0  0  0
   -6.0125    3.6199    0.2876 H   0  0  0  0  0  0  0  0  0  0  0  0
   -4.0547    2.4227    1.6203 H   0  0  0  0  0  0  0  0  0  0  0  0
   -3.8285    3.6593    3.9853 H   0  0  0  0  0  0  0  0  0  0  0  0
   -4.0393    4.8725    2.6626 H   0  0  0  0  0  0  0  0  0  0  0  0
   -6.3776    1.1949    2.5384 H   0  0  0  0  0  0  0  0  0  0  0  0
  1  2  2  3
  2  3  1  0
  3  4  2  0
  3  5  1  0
  5  6  2  0
  6  7  1  0
  7  8  2  0
  8  9  1  0
  9 10  2  0
 10 11  1  0
 11 12  2  3
 12 13  1  0
 13 14  3  0
 12 15  1  0
 15 16  3  0
  8 17  1  0
 17 18  1  0
 18 19  1  0
 19 20  2  0
 20 21  1  0
 21 22  1  0
 21 23  1  0
  1 24  1  0
 24 25  2  0
 25 26  1  0
 25 27  1  0
 27 28  1  0
 27 29  2  0
 29 30  1  0
 30 31  2  0
 31 32  1  0
 32 33  1  0
 33 34  1  0
 34 35  1  0
 32 36  2  0
 36 37  1  0
 37 38  2  0
 36 39  1  0
 29 40  1  0
 40 41  2  0
 41 42  1  0
 42 43  2  0
 43 44  1  0
 44 45  2  0
 45 46  1  0
 46 47  1  0
 47 48  1  0
 46 49  2  0
 41 50  1  0
 50 51  1  0
 51 52  1  0
 52 53  1  0
 53 54  1  0
 54 55  1  0
 55 56  2  0
 56 57  1  0
 57 58  1  0
 55 59  1  0
 59 60  1  0
 60 61  1  0
 61 62  1  0
 62 63  1  0
 63 64  1  0
 64 65  2  0
 65 66  1  0
 66 67  2  0
 67 68  1  0
 68 69  1  0
 69 70  1  0
 68 71  2  0
 63 72  2  0
 72 73  1  0
 73 74  1  0
 74 75  1  0
 75 76  1  0
 76 77  1  0
 77 78  1  0
 78 79  1  0
 79 80  1  0
 80 81  1  0
 81 82  1  0
 79 83  1  0
 83 84  1  0
 76 85  1  0
 85 86  1  0
 72 87  1  0
 87 88  2  0
 88 89  1  0
 88 90  1  0
 90 91  1  0
 90 92  2  0
 92 93  1  0
 93 94  2  0
 94 95  1  0
 95 96  1  0
 96 97  1  0
 97 98  1  0
 95 99  2  0
 99100  1  0
100101  2  0
 99102  1  0
 92103  1  0
103104  2  3
104105  1  0
105106  2  0
105107  1  0
107108  2  0
108109  1  0
109110  2  0
110111  1  0
111112  2  0
112113  1  0
113114  2  3
114115  1  0
115116  3  0
114117  1  0
117118  3  0
110119  1  0
119120  1  0
120121  1  0
121122  2  0
122123  1  0
123124  1  0
123125  1  0
 11  2  1  0
 23 17  1  0
 38 24  1  0
 82 40  1  0
101 87  1  0
113104  1  0
125119  1  0
 10  5  1  0
 22 18  1  0
 38 30  1  0
 49 42  1  0
 81 50  2  0
101 93  1  0
112107  1  0
124120  1  0
 23  7  1  0
 80 52  2  0
125109  1  0
 78 53  2  0
 58 54  2  0
 77 59  2  0
 75 60  2  0
 74 62  2  0
 71 64  1  0
  1126  1  0
  6127  1  0
  9128  1  0
 17129  1  0
 18130  1  0
 19131  1  0
 20132  1  0
 21133  1  0
 22134  1  0
 22135  1  0
 23136  1  0
 34137  1  0
 34138  1  0
 35139  1  0
 35140  1  0
 35141  1  0
 39142  1  0
 39143  1  0
 39144  1  0
 43145  1  0
 44146  1  0
 45147  1  0
 47148  1  0
 47149  1  0
 48150  1  0
 48151  1  0
 48152  1  0
 49153  1  0
 65154  1  0
 66155  1  0
 67156  1  0
 69157  1  0
 69158  1  0
 70159  1  0
 70160  1  0
 70161  1  0
 71162  1  0
 83163  1  0
 83164  1  0
 84165  1  0
 84166  1  0
 84167  1  0
 85168  1  0
 85169  1  0
 86170  1  0
 86171  1  0
 86172  1  0
 97173  1  0
 97174  1  0
 98175  1  0
 98176  1  0
 98177  1  0
102178  1  0
102179  1  0
102180  1  0
103181  1  0
108182  1  0
111183  1  0
119184  1  0
120185  1  0
121186  1  0
122187  1  0
123188  1  0
124189  1  0
124190  1  0
125191  1  0
M  END

