
     RDKit          3D

236264  0  0  0  0  0  0  0  0999 V2000
  -12.6345    4.4019    6.3922 C   0  0  0  0  0  0  0  0  0  0  0  0
  -12.7171    3.9818    5.1130 C   0  0  0  0  0  0  0  0  0  0  0  0
  -11.6718    3.2485    4.3904 C   0  0  0  0  0  0  0  0  0  0  0  0
  -10.7383    2.5755    4.9029 O   0  0  0  0  0  0  0  0  0  0  0  0
  -11.9375    3.3400    2.9747 C   0  0  0  0  0  0  0  0  0  0  0  0
  -11.0971    2.9013    1.9262 C   0  0  0  0  0  0  0  0  0  0  0  0
  -11.6133    3.1368    0.6668 C   0  0  0  0  0  0  0  0  0  0  0  0
  -12.8797    3.7686    0.4454 C   0  0  0  0  0  0  0  0  0  0  0  0
  -13.6910    4.2301    1.4668 C   0  0  0  0  0  0  0  0  0  0  0  0
  -13.1868    3.9858    2.7760 C   0  0  0  0  0  0  0  0  0  0  0  0
  -13.7766    4.3175    4.1042 C   0  0  0  0  0  0  0  0  0  0  0  0
  -15.0805    4.6035    4.3707 C   0  0  0  0  0  0  0  0  0  0  0  0
  -15.6045    4.6401    5.7106 C   0  0  0  0  0  0  0  0  0  0  0  0
  -16.0210    4.6829    6.7893 N   0  0  0  0  0  0  0  0  0  0  0  0
  -16.0692    4.7758    3.3378 C   0  0  0  0  0  0  0  0  0  0  0  0
  -16.8821    4.9033    2.5269 N   0  0  0  0  0  0  0  0  0  0  0  0
  -12.7207    3.6062   -1.0341 C   0  0  0  0  0  0  0  0  0  0  0  0
  -13.5492    2.4808   -1.7296 C   0  0  0  0  0  0  0  0  0  0  0  0
  -13.7603    1.3224   -0.7788 C   0  0  0  0  0  0  0  0  0  0  0  0
  -12.5668    0.7572   -0.5935 C   0  0  0  0  0  0  0  0  0  0  0  0
  -11.5798    1.5507   -1.4170 C   0  0  0  0  0  0  0  0  0  0  0  0
  -12.4694    1.8718   -2.6048 C   0  0  0  0  0  0  0  0  0  0  0  0
  -11.4141    2.9809   -0.8117 C   0  0  0  0  0  0  0  0  0  0  0  0
  -11.5294    4.0285    7.2816 C   0  0  0  0  0  0  0  0  0  0  0  0
   -9.9178    4.5034    7.0633 S   0  0  0  0  0  0  0  0  0  0  0  0
   -9.3243    3.4296    8.2089 C   0  0  0  0  0  0  0  0  0  0  0  0
   -8.0980    2.6868    8.2723 C   0  0  0  0  0  0  0  0  0  0  0  0
   -8.3524    1.4546    8.8168 C   0  0  0  0  0  0  0  0  0  0  0  0
   -9.8066    1.3242    9.2713 C   0  0  0  0  0  0  0  0  0  0  0  0
   -9.8840    1.3525   10.8238 C   0  0  0  0  0  0  0  0  0  0  0  0
  -11.3099    1.5278   11.3556 C   0  0  0  0  0  0  0  0  0  0  0  0
  -10.5139    0.0989    8.6072 C   0  0  0  0  0  0  0  0  0  0  0  0
  -10.3250   -1.2367    9.3399 C   0  0  0  0  0  0  0  0  0  0  0  0
  -10.3289    2.6395    8.6942 C   0  0  0  0  0  0  0  0  0  0  0  0
  -11.5942    2.9791    8.1996 C   0  0  0  0  0  0  0  0  0  0  0  0
   -7.4166    0.4800    8.4418 C   0  0  0  0  0  0  0  0  0  0  0  0
   -6.4477    0.9898    7.5713 C   0  0  0  0  0  0  0  0  0  0  0  0
   -6.7993    2.6115    7.2243 S   0  0  0  0  0  0  0  0  0  0  0  0
   -5.4228    0.2066    6.8543 C   0  0  0  0  0  0  0  0  0  0  0  0
   -4.8772   -1.0442    7.2203 C   0  0  0  0  0  0  0  0  0  0  0  0
   -5.1383   -1.7688    8.4770 C   0  0  0  0  0  0  0  0  0  0  0  0
   -4.9054   -1.1526    9.7155 C   0  0  0  0  0  0  0  0  0  0  0  0
   -5.1453   -1.8501   10.9013 C   0  0  0  0  0  0  0  0  0  0  0  0
   -5.6249   -3.1640   10.8595 C   0  0  0  0  0  0  0  0  0  0  0  0
   -5.8745   -3.7866    9.6293 C   0  0  0  0  0  0  0  0  0  0  0  0
   -6.3840   -5.2023    9.5832 C   0  0  0  0  0  0  0  0  0  0  0  0
   -5.2307   -6.1946    9.5151 C   0  0  0  0  0  0  0  0  0  0  0  0
   -5.6086   -3.0914    8.4398 C   0  0  0  0  0  0  0  0  0  0  0  0
   -3.9431   -1.4750    6.2752 C   0  0  0  0  0  0  0  0  0  0  0  0
   -2.7539   -2.6937    6.3104 S   0  0  0  0  0  0  0  0  0  0  0  0
   -2.0655   -2.1208    4.8672 C   0  0  0  0  0  0  0  0  0  0  0  0
   -0.8084   -2.1314    4.3287 C   0  0  0  0  0  0  0  0  0  0  0  0
    0.3641   -2.7606    4.7739 C   0  0  0  0  0  0  0  0  0  0  0  0
    1.6240   -2.2949    4.2859 C   0  0  0  0  0  0  0  0  0  0  0  0
    2.7355   -2.9245    4.7462 N   0  0  0  0  0  0  0  0  0  0  0  0
    2.0297   -4.0186    5.7720 S   0  0  0  0  0  0  0  0  0  0  0  0
    0.3923   -3.7672    5.6814 N   0  0  0  0  0  0  0  0  0  0  0  0
    1.6382   -1.2452    3.3627 C   0  0  0  0  0  0  0  0  0  0  0  0
    2.6386   -0.6931    2.6174 C   0  0  0  0  0  0  0  0  0  0  0  0
    4.2911   -0.9436    2.3483 S   0  0  0  0  0  0  0  0  0  0  0  0
    4.2269    0.0134    0.9333 C   0  0  0  0  0  0  0  0  0  0  0  0
    5.1570    0.2650   -0.0731 C   0  0  0  0  0  0  0  0  0  0  0  0
    6.5641   -0.1978    0.0016 C   0  0  0  0  0  0  0  0  0  0  0  0
    7.3140    0.0673    1.1559 C   0  0  0  0  0  0  0  0  0  0  0  0
    8.5848   -0.4848    1.3153 C   0  0  0  0  0  0  0  0  0  0  0  0
    9.1221   -1.3132    0.3280 C   0  0  0  0  0  0  0  0  0  0  0  0
    8.4053   -1.5602   -0.8590 C   0  0  0  0  0  0  0  0  0  0  0  0
    8.9122   -2.5428   -1.8886 C   0  0  0  0  0  0  0  0  0  0  0  0
   10.3961   -2.3648   -2.2109 C   0  0  0  0  0  0  0  0  0  0  0  0
    7.1270   -0.9969   -1.0107 C   0  0  0  0  0  0  0  0  0  0  0  0
    4.5376    0.8979   -1.1724 C   0  0  0  0  0  0  0  0  0  0  0  0
    2.8739    1.1264   -0.8592 S   0  0  0  0  0  0  0  0  0  0  0  0
    2.9498    0.4363    0.6683 C   0  0  0  0  0  0  0  0  0  0  0  0
    2.0482    0.0615    1.6517 C   0  0  0  0  0  0  0  0  0  0  0  0
    0.6938    0.0492    1.7311 N   0  0  0  0  0  0  0  0  0  0  0  0
    0.4595   -0.6851    2.8593 C   0  0  0  0  0  0  0  0  0  0  0  0
   -0.7696   -1.0450    3.4423 C   0  0  0  0  0  0  0  0  0  0  0  0
   -1.8995   -0.2754    3.5579 N   0  0  0  0  0  0  0  0  0  0  0  0
   -2.6835   -0.9960    4.4005 C   0  0  0  0  0  0  0  0  0  0  0  0
   -3.7466   -0.6251    5.2161 C   0  0  0  0  0  0  0  0  0  0  0  0
   -4.7133    0.7295    5.3904 S   0  0  0  0  0  0  0  0  0  0  0  0
   -1.9530    1.1917    3.4332 C   0  0  0  0  0  0  0  0  0  0  0  0
   -1.3550    1.8610    4.6695 C   0  0  0  0  0  0  0  0  0  0  0  0
   -0.2136    0.1884    0.5809 C   0  0  0  0  0  0  0  0  0  0  0  0
   -0.0825   -1.0050   -0.3622 C   0  0  0  0  0  0  0  0  0  0  0  0
    5.1654    1.1323   -2.4734 C   0  0  0  0  0  0  0  0  0  0  0  0
    4.8842    0.3842   -3.6272 C   0  0  0  0  0  0  0  0  0  0  0  0
    3.7772   -0.5186   -3.7697 N   0  0  0  0  0  0  0  0  0  0  0  0
    4.0479   -1.9276   -3.8092 C   0  0  0  0  0  0  0  0  0  0  0  0
    4.3218   -2.6272   -2.6267 C   0  0  0  0  0  0  0  0  0  0  0  0
    4.5808   -3.9992   -2.6656 C   0  0  0  0  0  0  0  0  0  0  0  0
    4.5639   -4.6884   -3.8876 C   0  0  0  0  0  0  0  0  0  0  0  0
    4.8082   -6.1666   -3.9168 C   0  0  0  0  0  0  0  0  0  0  0  0
    4.2531   -3.9936   -5.0675 C   0  0  0  0  0  0  0  0  0  0  0  0
    3.9906   -2.6217   -5.0268 C   0  0  0  0  0  0  0  0  0  0  0  0
    2.4554   -0.0301   -4.0951 C   0  0  0  0  0  0  0  0  0  0  0  0
    1.3203   -0.8138   -3.8130 C   0  0  0  0  0  0  0  0  0  0  0  0
    0.0432   -0.3690   -4.1620 C   0  0  0  0  0  0  0  0  0  0  0  0
   -0.1245    0.8615   -4.8094 C   0  0  0  0  0  0  0  0  0  0  0  0
   -1.4963    1.3436   -5.1768 C   0  0  0  0  0  0  0  0  0  0  0  0
    0.9963    1.6650   -5.0635 C   0  0  0  0  0  0  0  0  0  0  0  0
    2.2759    1.2236   -4.7113 C   0  0  0  0  0  0  0  0  0  0  0  0
    5.8791    0.5450   -4.5791 C   0  0  0  0  0  0  0  0  0  0  0  0
    6.2089   -0.1784   -6.0514 S   0  0  0  0  0  0  0  0  0  0  0  0
    7.6930    0.6342   -6.2507 C   0  0  0  0  0  0  0  0  0  0  0  0
    7.9081    1.4999   -5.1701 C   0  0  0  0  0  0  0  0  0  0  0  0
    9.0124    2.4139   -5.0642 N   0  0  0  0  0  0  0  0  0  0  0  0
    8.7193    3.8247   -5.0403 C   0  0  0  0  0  0  0  0  0  0  0  0
    9.3700    4.6797   -4.1363 C   0  0  0  0  0  0  0  0  0  0  0  0
    9.0721    6.0450   -4.1153 C   0  0  0  0  0  0  0  0  0  0  0  0
    8.1314    6.5766   -5.0128 C   0  0  0  0  0  0  0  0  0  0  0  0
    7.7972    8.0400   -4.9982 C   0  0  0  0  0  0  0  0  0  0  0  0
    7.4687    5.7224   -5.9051 C   0  0  0  0  0  0  0  0  0  0  0  0
    7.7616    4.3590   -5.9197 C   0  0  0  0  0  0  0  0  0  0  0  0
   10.3709    1.9162   -5.0981 C   0  0  0  0  0  0  0  0  0  0  0  0
   10.6719    0.6290   -4.6141 C   0  0  0  0  0  0  0  0  0  0  0  0
   11.9789    0.1382   -4.6574 C   0  0  0  0  0  0  0  0  0  0  0  0
   13.0114    0.9211   -5.1949 C   0  0  0  0  0  0  0  0  0  0  0  0
   14.4227    0.4128   -5.2156 C   0  0  0  0  0  0  0  0  0  0  0  0
   12.7225    2.2064   -5.6719 C   0  0  0  0  0  0  0  0  0  0  0  0
   11.4144    2.6957   -5.6339 C   0  0  0  0  0  0  0  0  0  0  0  0
    6.8725    1.4076   -4.2470 C   0  0  0  0  0  0  0  0  0  0  0  0
    6.6226    1.9939   -2.6946 S   0  0  0  0  0  0  0  0  0  0  0  0
    8.5261    0.5143   -7.4525 C   0  0  0  0  0  0  0  0  0  0  0  0
    8.9836   -0.6757   -7.8787 C   0  0  0  0  0  0  0  0  0  0  0  0
    8.8786   -1.9357   -7.1311 C   0  0  0  0  0  0  0  0  0  0  0  0
    8.7785   -2.0556   -5.8807 O   0  0  0  0  0  0  0  0  0  0  0  0
    8.8932   -3.0310   -8.0718 C   0  0  0  0  0  0  0  0  0  0  0  0
    8.5981   -4.3844   -7.7974 C   0  0  0  0  0  0  0  0  0  0  0  0
    8.4273   -5.1563   -8.9318 C   0  0  0  0  0  0  0  0  0  0  0  0
    8.5269   -4.6295  -10.2603 C   0  0  0  0  0  0  0  0  0  0  0  0
    8.8409   -3.3073  -10.5333 C   0  0  0  0  0  0  0  0  0  0  0  0
    9.0606   -2.5065   -9.3793 C   0  0  0  0  0  0  0  0  0  0  0  0
    9.2940   -1.0387   -9.2887 C   0  0  0  0  0  0  0  0  0  0  0  0
    9.8596   -0.2461  -10.2337 C   0  0  0  0  0  0  0  0  0  0  0  0
   10.2531   -0.7574  -11.5196 C   0  0  0  0  0  0  0  0  0  0  0  0
   10.5746   -1.1614  -12.5561 N   0  0  0  0  0  0  0  0  0  0  0  0
   10.2382    1.1176   -9.9605 C   0  0  0  0  0  0  0  0  0  0  0  0
   10.5403    2.2135   -9.7435 N   0  0  0  0  0  0  0  0  0  0  0  0
    8.1099   -5.9495  -10.8331 C   0  0  0  0  0  0  0  0  0  0  0  0
    6.6440   -6.0900  -11.3527 C   0  0  0  0  0  0  0  0  0  0  0  0
    5.7160   -5.2054  -10.5499 C   0  0  0  0  0  0  0  0  0  0  0  0
    5.6584   -5.7218   -9.3239 C   0  0  0  0  0  0  0  0  0  0  0  0
    6.5539   -6.9400   -9.3311 C   0  0  0  0  0  0  0  0  0  0  0  0
    6.2817   -7.4273  -10.7417 C   0  0  0  0  0  0  0  0  0  0  0  0
    8.0412   -6.5013   -9.4769 C   0  0  0  0  0  0  0  0  0  0  0  0
  -13.3908    5.0385    6.8218 H   0  0  0  0  0  0  0  0  0  0  0  0
  -10.1428    2.4163    2.0891 H   0  0  0  0  0  0  0  0  0  0  0  0
  -14.6121    4.7409    1.2515 H   0  0  0  0  0  0  0  0  0  0  0  0
  -12.6680    4.5666   -1.5967 H   0  0  0  0  0  0  0  0  0  0  0  0
  -14.4605    2.8239   -2.2604 H   0  0  0  0  0  0  0  0  0  0  0  0
  -14.7027    0.9605   -0.3848 H   0  0  0  0  0  0  0  0  0  0  0  0
  -12.3752   -0.1478   -0.0283 H   0  0  0  0  0  0  0  0  0  0  0  0
  -10.6336    1.0240   -1.6540 H   0  0  0  0  0  0  0  0  0  0  0  0
  -12.0158    2.5959   -3.3227 H   0  0  0  0  0  0  0  0  0  0  0  0
  -12.8161    0.9661   -3.1552 H   0  0  0  0  0  0  0  0  0  0  0  0
  -10.5625    3.5759   -1.2233 H   0  0  0  0  0  0  0  0  0  0  0  0
   -9.4434    0.4270   11.2474 H   0  0  0  0  0  0  0  0  0  0  0  0
   -9.2726    2.1945   11.2148 H   0  0  0  0  0  0  0  0  0  0  0  0
  -11.3021    1.4433   12.4627 H   0  0  0  0  0  0  0  0  0  0  0  0
  -11.7049    2.5316   11.0899 H   0  0  0  0  0  0  0  0  0  0  0  0
  -11.9902    0.7505   10.9519 H   0  0  0  0  0  0  0  0  0  0  0  0
  -11.6064    0.2772    8.5525 H   0  0  0  0  0  0  0  0  0  0  0  0
  -10.1573   -0.0102    7.5611 H   0  0  0  0  0  0  0  0  0  0  0  0
  -10.6208   -2.0706    8.6730 H   0  0  0  0  0  0  0  0  0  0  0  0
   -9.2807   -1.3947    9.6617 H   0  0  0  0  0  0  0  0  0  0  0  0
  -10.9714   -1.2761   10.2383 H   0  0  0  0  0  0  0  0  0  0  0  0
  -12.4904    2.4056    8.3832 H   0  0  0  0  0  0  0  0  0  0  0  0
   -7.5125   -0.5651    8.6699 H   0  0  0  0  0  0  0  0  0  0  0  0
   -4.5342   -0.1362    9.7592 H   0  0  0  0  0  0  0  0  0  0  0  0
   -4.9610   -1.3750   11.8561 H   0  0  0  0  0  0  0  0  0  0  0  0
   -5.8010   -3.6910   11.7907 H   0  0  0  0  0  0  0  0  0  0  0  0
   -6.9947   -5.4187   10.4897 H   0  0  0  0  0  0  0  0  0  0  0  0
   -7.0396   -5.3399    8.6976 H   0  0  0  0  0  0  0  0  0  0  0  0
   -5.6317   -7.2274    9.4629 H   0  0  0  0  0  0  0  0  0  0  0  0
   -4.6135   -6.0065    8.6125 H   0  0  0  0  0  0  0  0  0  0  0  0
   -4.5866   -6.1079   10.4163 H   0  0  0  0  0  0  0  0  0  0  0  0
   -5.7839   -3.5737    7.4848 H   0  0  0  0  0  0  0  0  0  0  0  0
    6.9051    0.6848    1.9458 H   0  0  0  0  0  0  0  0  0  0  0  0
    9.1427   -0.2985    2.2274 H   0  0  0  0  0  0  0  0  0  0  0  0
   10.0892   -1.7632    0.4977 H   0  0  0  0  0  0  0  0  0  0  0  0
    8.7394   -3.5739   -1.5181 H   0  0  0  0  0  0  0  0  0  0  0  0
    8.3401   -2.4251   -2.8346 H   0  0  0  0  0  0  0  0  0  0  0  0
   11.0265   -2.7745   -1.3949 H   0  0  0  0  0  0  0  0  0  0  0  0
   10.6376   -1.2916   -2.3500 H   0  0  0  0  0  0  0  0  0  0  0  0
   10.6381   -2.9141   -3.1454 H   0  0  0  0  0  0  0  0  0  0  0  0
    6.5530   -1.2237   -1.8968 H   0  0  0  0  0  0  0  0  0  0  0  0
   -1.3885    1.5553    2.5631 H   0  0  0  0  0  0  0  0  0  0  0  0
   -3.0062    1.5148    3.2899 H   0  0  0  0  0  0  0  0  0  0  0  0
   -1.5333    2.9564    4.6277 H   0  0  0  0  0  0  0  0  0  0  0  0
   -1.8046    1.4583    5.6000 H   0  0  0  0  0  0  0  0  0  0  0  0
   -0.2584    1.6833    4.6990 H   0  0  0  0  0  0  0  0  0  0  0  0
    0.0107    1.1303    0.0377 H   0  0  0  0  0  0  0  0  0  0  0  0
   -1.2728    0.2184    0.9050 H   0  0  0  0  0  0  0  0  0  0  0  0
    0.9529   -1.0997   -0.7423 H   0  0  0  0  0  0  0  0  0  0  0  0
   -0.3568   -1.9388    0.1742 H   0  0  0  0  0  0  0  0  0  0  0  0
   -0.7665   -0.8726   -1.2244 H   0  0  0  0  0  0  0  0  0  0  0  0
    4.3187   -2.1082   -1.6767 H   0  0  0  0  0  0  0  0  0  0  0  0
    4.7887   -4.5248   -1.7417 H   0  0  0  0  0  0  0  0  0  0  0  0
    3.9063   -6.6972   -3.5474 H   0  0  0  0  0  0  0  0  0  0  0  0
    5.0339   -6.5172   -4.9474 H   0  0  0  0  0  0  0  0  0  0  0  0
    5.6730   -6.4213   -3.2672 H   0  0  0  0  0  0  0  0  0  0  0  0
    4.2112   -4.5102   -6.0178 H   0  0  0  0  0  0  0  0  0  0  0  0
    3.7539   -2.0953   -5.9433 H   0  0  0  0  0  0  0  0  0  0  0  0
    1.4177   -1.7701   -3.3175 H   0  0  0  0  0  0  0  0  0  0  0  0
   -0.8159   -0.9889   -3.9304 H   0  0  0  0  0  0  0  0  0  0  0  0
   -2.1803    0.4847   -5.3498 H   0  0  0  0  0  0  0  0  0  0  0  0
   -1.9013    1.9706   -4.3558 H   0  0  0  0  0  0  0  0  0  0  0  0
   -1.4578    1.9433   -6.1115 H   0  0  0  0  0  0  0  0  0  0  0  0
    0.8814    2.6304   -5.5418 H   0  0  0  0  0  0  0  0  0  0  0  0
    3.1244    1.8538   -4.9410 H   0  0  0  0  0  0  0  0  0  0  0  0
   10.0950    4.2825   -3.4358 H   0  0  0  0  0  0  0  0  0  0  0  0
    9.5832    6.6864   -3.4084 H   0  0  0  0  0  0  0  0  0  0  0  0
    6.8095    8.1849   -4.5150 H   0  0  0  0  0  0  0  0  0  0  0  0
    7.7543    8.4257   -6.0382 H   0  0  0  0  0  0  0  0  0  0  0  0
    8.5615    8.6240   -4.4422 H   0  0  0  0  0  0  0  0  0  0  0  0
    6.7245    6.1136   -6.5870 H   0  0  0  0  0  0  0  0  0  0  0  0
    7.2452    3.7183   -6.6234 H   0  0  0  0  0  0  0  0  0  0  0  0
    9.8916    0.0066   -4.1965 H   0  0  0  0  0  0  0  0  0  0  0  0
   12.1860   -0.8518   -4.2768 H   0  0  0  0  0  0  0  0  0  0  0  0
   14.9847    0.8478   -4.3613 H   0  0  0  0  0  0  0  0  0  0  0  0
   14.4508   -0.6940   -5.1368 H   0  0  0  0  0  0  0  0  0  0  0  0
   14.9189    0.7070   -6.1622 H   0  0  0  0  0  0  0  0  0  0  0  0
   13.5096    2.8292   -6.0781 H   0  0  0  0  0  0  0  0  0  0  0  0
   11.2168    3.6815   -6.0346 H   0  0  0  0  0  0  0  0  0  0  0  0
    8.5644    1.3874   -8.0824 H   0  0  0  0  0  0  0  0  0  0  0  0
    8.4282   -4.7668   -6.7993 H   0  0  0  0  0  0  0  0  0  0  0  0
    8.8284   -2.9282  -11.5426 H   0  0  0  0  0  0  0  0  0  0  0  0
    8.8828   -6.4291  -11.4737 H   0  0  0  0  0  0  0  0  0  0  0  0
    6.5186   -6.0206  -12.4536 H   0  0  0  0  0  0  0  0  0  0  0  0
    5.1352   -4.3606  -10.9080 H   0  0  0  0  0  0  0  0  0  0  0  0
    5.0390   -5.3656   -8.5073 H   0  0  0  0  0  0  0  0  0  0  0  0
    6.3510   -7.6748   -8.5228 H   0  0  0  0  0  0  0  0  0  0  0  0
    5.2150   -7.7203  -10.9117 H   0  0  0  0  0  0  0  0  0  0  0  0
    6.9491   -8.2621  -11.0632 H   0  0  0  0  0  0  0  0  0  0  0  0
    8.7911   -7.3012   -9.2776 H   0  0  0  0  0  0  0  0  0  0  0  0
  1  2  2  3
  2  3  1  0
  3  4  2  0
  3  5  1  0
  5  6  2  0
  6  7  1  0
  7  8  2  0
  8  9  1  0
  9 10  2  0
 10 11  1  0
 11 12  2  3
 12 13  1  0
 13 14  3  0
 12 15  1  0
 15 16  3  0
  8 17  1  0
 17 18  1  0
 18 19  1  0
 19 20  2  0
 20 21  1  0
 21 22  1  0
 21 23  1  0
  1 24  1  0
 24 25  1  0
 25 26  1  0
 26 27  1  0
 27 28  2  0
 28 29  1  0
 29 30  1  0
 30 31  1  0
 29 32  1  0
 32 33  1  0
 29 34  1  0
 34 35  1  0
 28 36  1  0
 36 37  2  0
 37 38  1  0
 37 39  1  0
 39 40  2  0
 40 41  1  0
 41 42  2  0
 42 43  1  0
 43 44  2  0
 44 45  1  0
 45 46  1  0
 46 47  1  0
 45 48  2  0
 40 49  1  0
 49 50  1  0
 50 51  1  0
 51 52  1  0
 52 53  1  0
 53 54  1  0
 54 55  2  0
 55 56  1  0
 56 57  1  0
 54 58  1  0
 58 59  1  0
 59 60  1  0
 60 61  1  0
 61 62  1  0
 62 63  1  0
 63 64  2  0
 64 65  1  0
 65 66  2  0
 66 67  1  0
 67 68  1  0
 68 69  1  0
 67 70  2  0
 62 71  2  0
 71 72  1  0
 72 73  1  0
 73 74  1  0
 74 75  1  0
 75 76  1  0
 76 77  1  0
 77 78  1  0
 78 79  1  0
 79 80  1  0
 80 81  1  0
 78 82  1  0
 82 83  1  0
 75 84  1  0
 84 85  1  0
 71 86  1  0
 86 87  2  0
 87 88  1  0
 88 89  1  0
 89 90  2  0
 90 91  1  0
 91 92  2  0
 92 93  1  0
 92 94  1  0
 94 95  2  0
 88 96  1  0
 96 97  2  0
 97 98  1  0
 98 99  2  0
 99100  1  0
 99101  1  0
101102  2  0
 87103  1  0
103104  1  0
104105  1  0
105106  2  0
106107  1  0
107108  1  0
108109  2  0
109110  1  0
110111  2  0
111112  1  0
111113  1  0
113114  2  0
107115  1  0
115116  2  0
116117  1  0
117118  2  0
118119  1  0
118120  1  0
120121  2  0
106122  1  0
122123  1  0
105124  1  0
124125  2  3
125126  1  0
126127  2  0
126128  1  0
128129  2  0
129130  1  0
130131  2  0
131132  1  0
132133  2  0
133134  1  0
134135  2  3
135136  1  0
136137  3  0
135138  1  0
138139  3  0
131140  1  0
140141  1  0
141142  1  0
142143  2  0
143144  1  0
144145  1  0
144146  1  0
 11  2  1  0
 23 17  1  0
 35 24  2  0
 81 39  1  0
123 86  1  0
134125  1  0
146140  1  0
 10  5  1  0
 22 18  1  0
 34 26  2  0
 48 41  1  0
 80 49  2  0
 95 89  1  0
102 96  1  0
122103  2  0
133128  1  0
145141  1  0
 23  7  1  0
 38 27  1  0
 79 51  2  0
114108  1  0
121115  1  0
146130  1  0
 77 52  2  0
 57 53  2  0
 76 58  2  0
 74 59  2  0
 73 61  2  0
 70 63  1  0
  1147  1  0
  6148  1  0
  9149  1  0
 17150  1  0
 18151  1  0
 19152  1  0
 20153  1  0
 21154  1  0
 22155  1  0
 22156  1  0
 23157  1  0
 30158  1  0
 30159  1  0
 31160  1  0
 31161  1  0
 31162  1  0
 32163  1  0
 32164  1  0
 33165  1  0
 33166  1  0
 33167  1  0
 35168  1  0
 36169  1  0
 42170  1  0
 43171  1  0
 44172  1  0
 46173  1  0
 46174  1  0
 47175  1  0
 47176  1  0
 47177  1  0
 48178  1  0
 64179  1  0
 65180  1  0
 66181  1  0
 68182  1  0
 68183  1  0
 69184  1  0
 69185  1  0
 69186  1  0
 70187  1  0
 82188  1  0
 82189  1  0
 83190  1  0
 83191  1  0
 83192  1  0
 84193  1  0
 84194  1  0
 85195  1  0
 85196  1  0
 85197  1  0
 90198  1  0
 91199  1  0
 93200  1  0
 93201  1  0
 93202  1  0
 94203  1  0
 95204  1  0
 97205  1  0
 98206  1  0
100207  1  0
100208  1  0
100209  1  0
101210  1  0
102211  1  0
109212  1  0
110213  1  0
112214  1  0
112215  1  0
112216  1  0
113217  1  0
114218  1  0
116219  1  0
117220  1  0
119221  1  0
119222  1  0
119223  1  0
120224  1  0
121225  1  0
124226  1  0
129227  1  0
132228  1  0
140229  1  0
141230  1  0
142231  1  0
143232  1  0
144233  1  0
145234  1  0
145235  1  0
146236  1  0
M  END

