
     RDKit          3D

251281  0  0  0  0  0  0  0  0999 V2000
    6.4003   -7.3243   -1.0921 C   0  0  0  0  0  0  0  0  0  0  0  0
    6.7231   -7.0131    0.1810 C   0  0  0  0  0  0  0  0  0  0  0  0
    7.0891   -5.6662    0.6432 C   0  0  0  0  0  0  0  0  0  0  0  0
    7.8932   -4.8701    0.0876 O   0  0  0  0  0  0  0  0  0  0  0  0
    6.4407   -5.4273    1.9090 C   0  0  0  0  0  0  0  0  0  0  0  0
    6.2189   -4.1688    2.5078 C   0  0  0  0  0  0  0  0  0  0  0  0
    5.3310   -4.2005    3.5599 C   0  0  0  0  0  0  0  0  0  0  0  0
    4.7057   -5.4004    4.0268 C   0  0  0  0  0  0  0  0  0  0  0  0
    4.9354   -6.6422    3.4510 C   0  0  0  0  0  0  0  0  0  0  0  0
    5.8388   -6.6273    2.3525 C   0  0  0  0  0  0  0  0  0  0  0  0
    6.1385   -7.7005    1.3674 C   0  0  0  0  0  0  0  0  0  0  0  0
    6.0663   -9.0329    1.5675 C   0  0  0  0  0  0  0  0  0  0  0  0
    5.6668   -9.6006    2.8298 C   0  0  0  0  0  0  0  0  0  0  0  0
    5.3703  -10.0644    3.8456 N   0  0  0  0  0  0  0  0  0  0  0  0
    6.5329   -9.9699    0.5799 C   0  0  0  0  0  0  0  0  0  0  0  0
    6.9114  -10.7353   -0.2070 N   0  0  0  0  0  0  0  0  0  0  0  0
    3.9184   -4.6163    5.0360 C   0  0  0  0  0  0  0  0  0  0  0  0
    4.3868   -4.7045    6.5186 C   0  0  0  0  0  0  0  0  0  0  0  0
    3.7144   -3.5569    7.2311 C   0  0  0  0  0  0  0  0  0  0  0  0
    4.3051   -2.4377    6.7895 C   0  0  0  0  0  0  0  0  0  0  0  0
    5.3452   -2.8667    5.7879 C   0  0  0  0  0  0  0  0  0  0  0  0
    5.8016   -4.1480    6.4641 C   0  0  0  0  0  0  0  0  0  0  0  0
    4.5571   -3.3879    4.5512 C   0  0  0  0  0  0  0  0  0  0  0  0
    6.3366   -6.2989   -2.1463 C   0  0  0  0  0  0  0  0  0  0  0  0
    5.2075   -6.0386   -2.9110 C   0  0  0  0  0  0  0  0  0  0  0  0
    5.4757   -4.8354   -3.5341 C   0  0  0  0  0  0  0  0  0  0  0  0
    4.6405   -3.9533   -4.2486 C   0  0  0  0  0  0  0  0  0  0  0  0
    3.2078   -4.2010   -4.4911 C   0  0  0  0  0  0  0  0  0  0  0  0
    2.2899   -4.6659   -3.5502 C   0  0  0  0  0  0  0  0  0  0  0  0
    0.9564   -4.5490   -3.9718 C   0  0  0  0  0  0  0  0  0  0  0  0
   -0.3976   -4.9673   -2.9369 Cl  0  0  0  0  0  0  0  0  0  0  0  0
    0.8204   -4.0022   -5.2465 C   0  0  0  0  0  0  0  0  0  0  0  0
   -0.4591   -3.5890   -5.9142 C   0  0  0  0  0  0  0  0  0  0  0  0
   -0.7684   -2.1245   -5.6297 C   0  0  0  0  0  0  0  0  0  0  0  0
    2.3526   -3.6288   -5.8294 S   0  0  0  0  0  0  0  0  0  0  0  0
    5.2111   -2.7066   -4.5602 C   0  0  0  0  0  0  0  0  0  0  0  0
    6.5114   -2.3758   -4.2266 C   0  0  0  0  0  0  0  0  0  0  0  0
    7.3524   -3.2555   -3.5143 C   0  0  0  0  0  0  0  0  0  0  0  0
    8.6836   -2.8646   -3.0069 C   0  0  0  0  0  0  0  0  0  0  0  0
   10.0393   -3.8689   -2.9678 S   0  0  0  0  0  0  0  0  0  0  0  0
   11.0698   -2.7541   -2.2464 C   0  0  0  0  0  0  0  0  0  0  0  0
   12.5187   -2.9897   -1.9540 C   0  0  0  0  0  0  0  0  0  0  0  0
   13.4001   -2.4296   -3.0684 C   0  0  0  0  0  0  0  0  0  0  0  0
   10.3614   -1.5714   -2.0272 C   0  0  0  0  0  0  0  0  0  0  0  0
    9.0255   -1.6386   -2.4344 C   0  0  0  0  0  0  0  0  0  0  0  0
   11.0526   -0.1273   -1.3079 Cl  0  0  0  0  0  0  0  0  0  0  0  0
    6.7692   -4.4879   -3.1642 C   0  0  0  0  0  0  0  0  0  0  0  0
    7.2633   -5.3878   -2.3547 O   0  0  0  0  0  0  0  0  0  0  0  0
    6.6861   -1.0569   -4.6026 C   0  0  0  0  0  0  0  0  0  0  0  0
    5.4488   -0.6557   -5.1036 C   0  0  0  0  0  0  0  0  0  0  0  0
    4.6073   -1.6703   -5.0840 O   0  0  0  0  0  0  0  0  0  0  0  0
    5.0027    0.7051   -5.4606 C   0  0  0  0  0  0  0  0  0  0  0  0
    5.7014    1.9250   -5.3049 C   0  0  0  0  0  0  0  0  0  0  0  0
    7.1139    2.0544   -4.9087 C   0  0  0  0  0  0  0  0  0  0  0  0
    8.1346    1.6802   -5.7938 C   0  0  0  0  0  0  0  0  0  0  0  0
    9.4709    1.7470   -5.3895 C   0  0  0  0  0  0  0  0  0  0  0  0
    9.7960    2.2131   -4.1101 C   0  0  0  0  0  0  0  0  0  0  0  0
    8.7821    2.6129   -3.2274 C   0  0  0  0  0  0  0  0  0  0  0  0
    9.1267    3.1720   -1.8718 C   0  0  0  0  0  0  0  0  0  0  0  0
    9.0497    4.6969   -1.8814 C   0  0  0  0  0  0  0  0  0  0  0  0
    7.4421    2.5256   -3.6301 C   0  0  0  0  0  0  0  0  0  0  0  0
    4.8255    3.0194   -5.3587 C   0  0  0  0  0  0  0  0  0  0  0  0
    4.9658    4.6077   -4.7414 S   0  0  0  0  0  0  0  0  0  0  0  0
    3.2822    4.8243   -4.7808 C   0  0  0  0  0  0  0  0  0  0  0  0
    2.4044    5.5023   -3.9739 C   0  0  0  0  0  0  0  0  0  0  0  0
    2.5239    6.6841   -3.2357 C   0  0  0  0  0  0  0  0  0  0  0  0
    1.4199    7.1099   -2.4358 C   0  0  0  0  0  0  0  0  0  0  0  0
    1.5806    8.2583   -1.7331 N   0  0  0  0  0  0  0  0  0  0  0  0
    3.1112    8.6694   -2.2145 S   0  0  0  0  0  0  0  0  0  0  0  0
    3.6204    7.4792   -3.2457 N   0  0  0  0  0  0  0  0  0  0  0  0
    0.2867    6.2835   -2.3573 C   0  0  0  0  0  0  0  0  0  0  0  0
   -0.7596    6.2864   -1.4731 C   0  0  0  0  0  0  0  0  0  0  0  0
   -1.1432    7.1035   -0.0234 S   0  0  0  0  0  0  0  0  0  0  0  0
   -2.1468    5.8210    0.4779 C   0  0  0  0  0  0  0  0  0  0  0  0
   -2.8062    5.5194    1.6749 C   0  0  0  0  0  0  0  0  0  0  0  0
   -2.8935    6.4308    2.8187 C   0  0  0  0  0  0  0  0  0  0  0  0
   -4.0732    7.1511    3.0507 C   0  0  0  0  0  0  0  0  0  0  0  0
   -4.1597    8.0167    4.1434 C   0  0  0  0  0  0  0  0  0  0  0  0
   -3.0665    8.1804    5.0000 C   0  0  0  0  0  0  0  0  0  0  0  0
   -1.8678    7.4882    4.7554 C   0  0  0  0  0  0  0  0  0  0  0  0
   -0.6862    7.6663    5.6694 C   0  0  0  0  0  0  0  0  0  0  0  0
   -0.7443    6.6718    6.8261 C   0  0  0  0  0  0  0  0  0  0  0  0
   -1.7925    6.6000    3.6679 C   0  0  0  0  0  0  0  0  0  0  0  0
   -3.2874    4.1971    1.6577 C   0  0  0  0  0  0  0  0  0  0  0  0
   -2.8870    3.4526    0.1826 S   0  0  0  0  0  0  0  0  0  0  0  0
   -2.1190    4.7967   -0.4310 C   0  0  0  0  0  0  0  0  0  0  0  0
   -1.3217    5.0502   -1.5343 C   0  0  0  0  0  0  0  0  0  0  0  0
   -0.6809    4.2138   -2.3903 N   0  0  0  0  0  0  0  0  0  0  0  0
    0.2398    5.0347   -2.9912 C   0  0  0  0  0  0  0  0  0  0  0  0
    1.2590    4.7038   -3.9138 C   0  0  0  0  0  0  0  0  0  0  0  0
    1.3725    3.6196   -4.7329 N   0  0  0  0  0  0  0  0  0  0  0  0
    2.6325    3.7048   -5.2114 C   0  0  0  0  0  0  0  0  0  0  0  0
    3.5073    2.6908   -5.5643 C   0  0  0  0  0  0  0  0  0  0  0  0
    3.3403    1.0324   -5.6484 S   0  0  0  0  0  0  0  0  0  0  0  0
    0.2818    2.8612   -5.3745 C   0  0  0  0  0  0  0  0  0  0  0  0
    0.0987    3.2818   -6.8297 C   0  0  0  0  0  0  0  0  0  0  0  0
   -0.5141    2.7687   -2.1246 C   0  0  0  0  0  0  0  0  0  0  0  0
    0.3853    2.5283   -0.9080 C   0  0  0  0  0  0  0  0  0  0  0  0
   -3.8101    3.4020    2.7733 C   0  0  0  0  0  0  0  0  0  0  0  0
   -5.1750    3.0681    2.8355 C   0  0  0  0  0  0  0  0  0  0  0  0
   -6.2435    4.0215    2.7267 N   0  0  0  0  0  0  0  0  0  0  0  0
   -6.4824    4.9570    3.8171 C   0  0  0  0  0  0  0  0  0  0  0  0
   -5.8656    4.7746    5.0778 C   0  0  0  0  0  0  0  0  0  0  0  0
   -6.0687    5.6912    6.1129 C   0  0  0  0  0  0  0  0  0  0  0  0
   -6.8847    6.8125    5.9204 C   0  0  0  0  0  0  0  0  0  0  0  0
   -7.0930    7.7901    7.0372 C   0  0  0  0  0  0  0  0  0  0  0  0
   -7.5294    6.9866    4.6888 C   0  0  0  0  0  0  0  0  0  0  0  0
   -7.3146    6.0823    3.6416 C   0  0  0  0  0  0  0  0  0  0  0  0
   -7.1980    3.8643    1.6574 C   0  0  0  0  0  0  0  0  0  0  0  0
   -8.5626    3.6887    1.9409 C   0  0  0  0  0  0  0  0  0  0  0  0
   -9.4921    3.5782    0.9031 C   0  0  0  0  0  0  0  0  0  0  0  0
   -9.0710    3.6304   -0.4355 C   0  0  0  0  0  0  0  0  0  0  0  0
  -10.0821    3.5623   -1.5415 C   0  0  0  0  0  0  0  0  0  0  0  0
   -7.7073    3.8048   -0.7209 C   0  0  0  0  0  0  0  0  0  0  0  0
   -6.7775    3.9113    0.3196 C   0  0  0  0  0  0  0  0  0  0  0  0
   -5.3733    1.7460    3.2173 C   0  0  0  0  0  0  0  0  0  0  0  0
   -6.6744    0.6992    3.0593 S   0  0  0  0  0  0  0  0  0  0  0  0
   -5.7502   -0.7003    3.3627 C   0  0  0  0  0  0  0  0  0  0  0  0
   -4.4143   -0.3341    3.5887 C   0  0  0  0  0  0  0  0  0  0  0  0
   -3.3972   -1.2529    4.0060 N   0  0  0  0  0  0  0  0  0  0  0  0
   -2.5851   -1.9591    3.0567 C   0  0  0  0  0  0  0  0  0  0  0  0
   -1.4448   -1.3476    2.5179 C   0  0  0  0  0  0  0  0  0  0  0  0
   -0.5746   -2.0757    1.6936 C   0  0  0  0  0  0  0  0  0  0  0  0
   -0.8499   -3.4152    1.3870 C   0  0  0  0  0  0  0  0  0  0  0  0
    0.1219   -4.2148    0.5702 C   0  0  0  0  0  0  0  0  0  0  0  0
   -1.9913   -4.0275    1.9269 C   0  0  0  0  0  0  0  0  0  0  0  0
   -2.8618   -3.2996    2.7459 C   0  0  0  0  0  0  0  0  0  0  0  0
   -3.2856   -1.5385    5.4043 C   0  0  0  0  0  0  0  0  0  0  0  0
   -3.9063   -2.6733    5.9485 C   0  0  0  0  0  0  0  0  0  0  0  0
   -3.9024   -2.8858    7.3299 C   0  0  0  0  0  0  0  0  0  0  0  0
   -3.2826   -1.9629    8.1865 C   0  0  0  0  0  0  0  0  0  0  0  0
   -3.3406   -2.1441    9.6717 C   0  0  0  0  0  0  0  0  0  0  0  0
   -2.6725   -0.8215    7.6431 C   0  0  0  0  0  0  0  0  0  0  0  0
   -2.6819   -0.6074    6.2609 C   0  0  0  0  0  0  0  0  0  0  0  0
   -4.2465    1.0435    3.4981 C   0  0  0  0  0  0  0  0  0  0  0  0
   -2.9164    2.0250    3.2597 S   0  0  0  0  0  0  0  0  0  0  0  0
   -6.1666   -2.0256    2.8930 C   0  0  0  0  0  0  0  0  0  0  0  0
   -6.0290   -2.3891    1.6010 C   0  0  0  0  0  0  0  0  0  0  0  0
   -5.5208   -1.5240    0.5214 C   0  0  0  0  0  0  0  0  0  0  0  0
   -4.8216   -0.4863    0.6584 O   0  0  0  0  0  0  0  0  0  0  0  0
   -5.9645   -2.0481   -0.7468 C   0  0  0  0  0  0  0  0  0  0  0  0
   -5.8649   -1.4156   -2.0081 C   0  0  0  0  0  0  0  0  0  0  0  0
   -6.5458   -2.0705   -3.0156 C   0  0  0  0  0  0  0  0  0  0  0  0
   -7.2939   -3.2733   -2.7965 C   0  0  0  0  0  0  0  0  0  0  0  0
   -7.3938   -3.8946   -1.5614 C   0  0  0  0  0  0  0  0  0  0  0  0
   -6.6666   -3.2587   -0.5204 C   0  0  0  0  0  0  0  0  0  0  0  0
   -6.6091   -3.5915    0.9317 C   0  0  0  0  0  0  0  0  0  0  0  0
   -6.8204   -4.8147    1.4865 C   0  0  0  0  0  0  0  0  0  0  0  0
   -7.1363   -5.9687    0.6855 C   0  0  0  0  0  0  0  0  0  0  0  0
   -7.3909   -6.9016    0.0439 N   0  0  0  0  0  0  0  0  0  0  0  0
   -6.6082   -5.0819    2.8793 C   0  0  0  0  0  0  0  0  0  0  0  0
   -6.4582   -5.3147    4.0086 N   0  0  0  0  0  0  0  0  0  0  0  0
   -7.7159   -3.2927   -4.2339 C   0  0  0  0  0  0  0  0  0  0  0  0
   -7.0321   -4.3247   -5.1812 C   0  0  0  0  0  0  0  0  0  0  0  0
   -5.6214   -4.6014   -4.7143 C   0  0  0  0  0  0  0  0  0  0  0  0
   -4.9251   -3.4812   -4.9227 C   0  0  0  0  0  0  0  0  0  0  0  0
   -5.8869   -2.4822   -5.5222 C   0  0  0  0  0  0  0  0  0  0  0  0
   -6.7216   -3.4293   -6.3662 C   0  0  0  0  0  0  0  0  0  0  0  0
   -6.9475   -2.0612   -4.4602 C   0  0  0  0  0  0  0  0  0  0  0  0
    5.8640   -8.2417   -1.2918 H   0  0  0  0  0  0  0  0  0  0  0  0
    6.6302   -3.2437    2.1197 H   0  0  0  0  0  0  0  0  0  0  0  0
    4.3691   -7.5093    3.7520 H   0  0  0  0  0  0  0  0  0  0  0  0
    2.8174   -4.6523    4.8759 H   0  0  0  0  0  0  0  0  0  0  0  0
    4.2694   -5.6997    7.0055 H   0  0  0  0  0  0  0  0  0  0  0  0
    2.9540   -3.6141    8.0030 H   0  0  0  0  0  0  0  0  0  0  0  0
    4.1098   -1.4301    7.1434 H   0  0  0  0  0  0  0  0  0  0  0  0
    6.1405   -2.1206    5.5754 H   0  0  0  0  0  0  0  0  0  0  0  0
    6.5037   -4.7575    5.8587 H   0  0  0  0  0  0  0  0  0  0  0  0
    6.2531   -3.9827    7.4715 H   0  0  0  0  0  0  0  0  0  0  0  0
    3.8627   -2.6597    4.0778 H   0  0  0  0  0  0  0  0  0  0  0  0
    4.2714   -6.5782   -2.8908 H   0  0  0  0  0  0  0  0  0  0  0  0
    2.5630   -4.9971   -2.5567 H   0  0  0  0  0  0  0  0  0  0  0  0
   -0.3590   -3.7342   -7.0094 H   0  0  0  0  0  0  0  0  0  0  0  0
   -1.2951   -4.2220   -5.5554 H   0  0  0  0  0  0  0  0  0  0  0  0
    0.0492   -1.4729   -6.0124 H   0  0  0  0  0  0  0  0  0  0  0  0
   -1.7130   -1.8313   -6.1312 H   0  0  0  0  0  0  0  0  0  0  0  0
   -0.8792   -1.9596   -4.5363 H   0  0  0  0  0  0  0  0  0  0  0  0
   12.6990   -4.0815   -1.8557 H   0  0  0  0  0  0  0  0  0  0  0  0
   12.7874   -2.5100   -0.9864 H   0  0  0  0  0  0  0  0  0  0  0  0
   13.1818   -2.9541   -4.0238 H   0  0  0  0  0  0  0  0  0  0  0  0
   14.4692   -2.5904   -2.8083 H   0  0  0  0  0  0  0  0  0  0  0  0
   13.2208   -1.3393   -3.1993 H   0  0  0  0  0  0  0  0  0  0  0  0
    8.3290   -0.8229   -2.2892 H   0  0  0  0  0  0  0  0  0  0  0  0
    7.5650   -0.4640   -4.4406 H   0  0  0  0  0  0  0  0  0  0  0  0
    7.8976    1.3108   -6.7865 H   0  0  0  0  0  0  0  0  0  0  0  0
   10.2604    1.4344   -6.0645 H   0  0  0  0  0  0  0  0  0  0  0  0
   10.8333    2.2621   -3.8131 H   0  0  0  0  0  0  0  0  0  0  0  0
   10.1530    2.8619   -1.5718 H   0  0  0  0  0  0  0  0  0  0  0  0
    8.4251    2.7666   -1.1080 H   0  0  0  0  0  0  0  0  0  0  0  0
    9.7547    5.1150   -2.6336 H   0  0  0  0  0  0  0  0  0  0  0  0
    9.3283    5.0869   -0.8794 H   0  0  0  0  0  0  0  0  0  0  0  0
    8.0154    5.0356   -2.1216 H   0  0  0  0  0  0  0  0  0  0  0  0
    6.6540    2.8164   -2.9462 H   0  0  0  0  0  0  0  0  0  0  0  0
   -4.9173    7.0449    2.3804 H   0  0  0  0  0  0  0  0  0  0  0  0
   -5.0743    8.5662    4.3232 H   0  0  0  0  0  0  0  0  0  0  0  0
   -3.1541    8.8521    5.8465 H   0  0  0  0  0  0  0  0  0  0  0  0
   -0.6691    8.7008    6.0728 H   0  0  0  0  0  0  0  0  0  0  0  0
    0.2607    7.5135    5.1078 H   0  0  0  0  0  0  0  0  0  0  0  0
   -0.7642    5.6306    6.4386 H   0  0  0  0  0  0  0  0  0  0  0  0
   -1.6539    6.8486    7.4402 H   0  0  0  0  0  0  0  0  0  0  0  0
    0.1575    6.8065    7.4645 H   0  0  0  0  0  0  0  0  0  0  0  0
   -0.8744    6.0589    3.4738 H   0  0  0  0  0  0  0  0  0  0  0  0
   -0.6845    3.0499   -4.8648 H   0  0  0  0  0  0  0  0  0  0  0  0
    0.5065    1.7715   -5.3270 H   0  0  0  0  0  0  0  0  0  0  0  0
   -0.7315    2.6953   -7.2817 H   0  0  0  0  0  0  0  0  0  0  0  0
   -0.1517    4.3641   -6.8882 H   0  0  0  0  0  0  0  0  0  0  0  0
    1.0202    3.0868   -7.4139 H   0  0  0  0  0  0  0  0  0  0  0  0
   -1.5085    2.2932   -1.9678 H   0  0  0  0  0  0  0  0  0  0  0  0
   -0.0341    2.2439   -2.9595 H   0  0  0  0  0  0  0  0  0  0  0  0
   -0.0447    2.9777    0.0134 H   0  0  0  0  0  0  0  0  0  0  0  0
    1.3901    2.9674   -1.0876 H   0  0  0  0  0  0  0  0  0  0  0  0
    0.4937    1.4305   -0.7475 H   0  0  0  0  0  0  0  0  0  0  0  0
   -5.2307    3.9186    5.2748 H   0  0  0  0  0  0  0  0  0  0  0  0
   -5.5794    5.5244    7.0638 H   0  0  0  0  0  0  0  0  0  0  0  0
   -6.1641    7.8923    7.6385 H   0  0  0  0  0  0  0  0  0  0  0  0
   -7.3492    8.7945    6.6416 H   0  0  0  0  0  0  0  0  0  0  0  0
   -7.9140    7.4368    7.6962 H   0  0  0  0  0  0  0  0  0  0  0  0
   -8.1796    7.8372    4.5273 H   0  0  0  0  0  0  0  0  0  0  0  0
   -7.7926    6.2712    2.6891 H   0  0  0  0  0  0  0  0  0  0  0  0
   -8.9037    3.6478    2.9677 H   0  0  0  0  0  0  0  0  0  0  0  0
  -10.5432    3.4653    1.1419 H   0  0  0  0  0  0  0  0  0  0  0  0
  -10.5270    4.5696   -1.6923 H   0  0  0  0  0  0  0  0  0  0  0  0
  -10.8923    2.8443   -1.2803 H   0  0  0  0  0  0  0  0  0  0  0  0
   -9.6137    3.2266   -2.4911 H   0  0  0  0  0  0  0  0  0  0  0  0
   -7.3648    3.8713   -1.7466 H   0  0  0  0  0  0  0  0  0  0  0  0
   -5.7348    4.0626    0.0839 H   0  0  0  0  0  0  0  0  0  0  0  0
   -1.2032   -0.3262    2.7699 H   0  0  0  0  0  0  0  0  0  0  0  0
    0.3187   -1.5974    1.3128 H   0  0  0  0  0  0  0  0  0  0  0  0
    0.5749   -3.5845   -0.2271 H   0  0  0  0  0  0  0  0  0  0  0  0
   -0.3865   -5.0773    0.0883 H   0  0  0  0  0  0  0  0  0  0  0  0
    0.9319   -4.5967    1.2295 H   0  0  0  0  0  0  0  0  0  0  0  0
   -2.2031   -5.0696    1.7259 H   0  0  0  0  0  0  0  0  0  0  0  0
   -3.7368   -3.7895    3.1484 H   0  0  0  0  0  0  0  0  0  0  0  0
   -4.4297   -3.3694    5.3087 H   0  0  0  0  0  0  0  0  0  0  0  0
   -4.4070   -3.7577    7.7329 H   0  0  0  0  0  0  0  0  0  0  0  0
   -3.6900   -3.1631    9.9459 H   0  0  0  0  0  0  0  0  0  0  0  0
   -4.0424   -1.4027   10.1073 H   0  0  0  0  0  0  0  0  0  0  0  0
   -2.3333   -1.9926   10.1149 H   0  0  0  0  0  0  0  0  0  0  0  0
   -2.2205   -0.0835    8.2908 H   0  0  0  0  0  0  0  0  0  0  0  0
   -2.2414    0.2955    5.8572 H   0  0  0  0  0  0  0  0  0  0  0  0
   -6.7161   -2.6371    3.5904 H   0  0  0  0  0  0  0  0  0  0  0  0
   -5.3543   -0.4738   -2.1624 H   0  0  0  0  0  0  0  0  0  0  0  0
   -8.0252   -4.7581   -1.4246 H   0  0  0  0  0  0  0  0  0  0  0  0
   -8.8122   -3.1692   -4.3873 H   0  0  0  0  0  0  0  0  0  0  0  0
   -7.6358   -5.2283   -5.4053 H   0  0  0  0  0  0  0  0  0  0  0  0
   -5.2180   -5.5411   -4.3482 H   0  0  0  0  0  0  0  0  0  0  0  0
   -3.8604   -3.3533   -4.7578 H   0  0  0  0  0  0  0  0  0  0  0  0
   -5.4105   -1.6450   -6.0777 H   0  0  0  0  0  0  0  0  0  0  0  0
   -6.1397   -3.9387   -7.1706 H   0  0  0  0  0  0  0  0  0  0  0  0
   -7.6266   -2.9493   -6.8093 H   0  0  0  0  0  0  0  0  0  0  0  0
   -7.5783   -1.1877   -4.7441 H   0  0  0  0  0  0  0  0  0  0  0  0
  1  2  2  3
  2  3  1  0
  3  4  2  0
  3  5  1  0
  5  6  2  0
  6  7  1  0
  7  8  2  0
  8  9  1  0
  9 10  2  0
 10 11  1  0
 11 12  2  3
 12 13  1  0
 13 14  3  0
 12 15  1  0
 15 16  3  0
  8 17  1  0
 17 18  1  0
 18 19  1  0
 19 20  2  0
 20 21  1  0
 21 22  1  0
 21 23  1  0
  1 24  1  0
 24 25  2  0
 25 26  1  0
 26 27  2  0
 27 28  1  0
 28 29  2  0
 29 30  1  0
 30 31  1  0
 30 32  2  0
 32 33  1  0
 33 34  1  0
 32 35  1  0
 27 36  1  0
 36 37  2  0
 37 38  1  0
 38 39  1  0
 39 40  1  0
 40 41  1  0
 41 42  1  0
 42 43  1  0
 41 44  2  0
 44 45  1  0
 44 46  1  0
 38 47  2  0
 47 48  1  0
 37 49  1  0
 49 50  2  0
 50 51  1  0
 50 52  1  0
 52 53  2  0
 53 54  1  0
 54 55  2  0
 55 56  1  0
 56 57  2  0
 57 58  1  0
 58 59  1  0
 59 60  1  0
 58 61  2  0
 53 62  1  0
 62 63  1  0
 63 64  1  0
 64 65  1  0
 65 66  1  0
 66 67  1  0
 67 68  2  0
 68 69  1  0
 69 70  1  0
 67 71  1  0
 71 72  1  0
 72 73  1  0
 73 74  1  0
 74 75  1  0
 75 76  1  0
 76 77  2  0
 77 78  1  0
 78 79  2  0
 79 80  1  0
 80 81  1  0
 81 82  1  0
 80 83  2  0
 75 84  2  0
 84 85  1  0
 85 86  1  0
 86 87  1  0
 87 88  1  0
 88 89  1  0
 89 90  1  0
 90 91  1  0
 91 92  1  0
 92 93  1  0
 93 94  1  0
 91 95  1  0
 95 96  1  0
 88 97  1  0
 97 98  1  0
 84 99  1  0
 99100  2  0
100101  1  0
101102  1  0
102103  2  0
103104  1  0
104105  2  0
105106  1  0
105107  1  0
107108  2  0
101109  1  0
109110  2  0
110111  1  0
111112  2  0
112113  1  0
112114  1  0
114115  2  0
100116  1  0
116117  1  0
117118  1  0
118119  2  0
119120  1  0
120121  1  0
121122  2  0
122123  1  0
123124  2  0
124125  1  0
124126  1  0
126127  2  0
120128  1  0
128129  2  0
129130  1  0
130131  2  0
131132  1  0
131133  1  0
133134  2  0
119135  1  0
135136  1  0
118137  1  0
137138  2  3
138139  1  0
139140  2  0
139141  1  0
141142  2  0
142143  1  0
143144  2  0
144145  1  0
145146  2  0
146147  1  0
147148  2  3
148149  1  0
149150  3  0
148151  1  0
151152  3  0
144153  1  0
153154  1  0
154155  1  0
155156  2  0
156157  1  0
157158  1  0
157159  1  0
 11  2  1  0
 23 17  1  0
 48 24  1  0
 94 52  1  0
136 99  1  0
147138  1  0
159153  1  0
 10  5  1  0
 22 18  1  0
 47 26  1  0
 61 54  1  0
 93 62  2  0
108102  1  0
115109  1  0
135116  2  0
146141  1  0
158154  1  0
 23  7  1  0
 35 28  1  0
 51 36  1  0
 92 64  2  0
127121  1  0
134128  1  0
159143  1  0
 45 39  2  0
 90 65  2  0
 70 66  2  0
 89 71  2  0
 87 72  2  0
 86 74  2  0
 83 76  1  0
  1160  1  0
  6161  1  0
  9162  1  0
 17163  1  0
 18164  1  0
 19165  1  0
 20166  1  0
 21167  1  0
 22168  1  0
 22169  1  0
 23170  1  0
 25171  1  0
 29172  1  0
 33173  1  0
 33174  1  0
 34175  1  0
 34176  1  0
 34177  1  0
 42178  1  0
 42179  1  0
 43180  1  0
 43181  1  0
 43182  1  0
 45183  1  0
 49184  1  0
 55185  1  0
 56186  1  0
 57187  1  0
 59188  1  0
 59189  1  0
 60190  1  0
 60191  1  0
 60192  1  0
 61193  1  0
 77194  1  0
 78195  1  0
 79196  1  0
 81197  1  0
 81198  1  0
 82199  1  0
 82200  1  0
 82201  1  0
 83202  1  0
 95203  1  0
 95204  1  0
 96205  1  0
 96206  1  0
 96207  1  0
 97208  1  0
 97209  1  0
 98210  1  0
 98211  1  0
 98212  1  0
103213  1  0
104214  1  0
106215  1  0
106216  1  0
106217  1  0
107218  1  0
108219  1  0
110220  1  0
111221  1  0
113222  1  0
113223  1  0
113224  1  0
114225  1  0
115226  1  0
122227  1  0
123228  1  0
125229  1  0
125230  1  0
125231  1  0
126232  1  0
127233  1  0
129234  1  0
130235  1  0
132236  1  0
132237  1  0
132238  1  0
133239  1  0
134240  1  0
137241  1  0
142242  1  0
145243  1  0
153244  1  0
154245  1  0
155246  1  0
156247  1  0
157248  1  0
158249  1  0
158250  1  0
159251  1  0
M  END

