
     RDKit          3D

191212  0  0  0  0  0  0  0  0999 V2000
    7.0171   -0.0150    5.5694 C   0  0  0  0  0  0  0  0  0  0  0  0
    6.1829    1.0391    5.7087 C   0  0  0  0  0  0  0  0  0  0  0  0
    5.5678    1.7796    4.5956 C   0  0  0  0  0  0  0  0  0  0  0  0
    6.0276    1.9005    3.4281 O   0  0  0  0  0  0  0  0  0  0  0  0
    4.3332    2.3672    5.0502 C   0  0  0  0  0  0  0  0  0  0  0  0
    3.3600    3.0036    4.2496 C   0  0  0  0  0  0  0  0  0  0  0  0
    2.2003    3.3154    4.9245 C   0  0  0  0  0  0  0  0  0  0  0  0
    1.9962    3.0206    6.3129 C   0  0  0  0  0  0  0  0  0  0  0  0
    2.9531    2.4053    7.1070 C   0  0  0  0  0  0  0  0  0  0  0  0
    4.1671    2.0888    6.4328 C   0  0  0  0  0  0  0  0  0  0  0  0
    5.3796    1.3720    6.9275 C   0  0  0  0  0  0  0  0  0  0  0  0
    5.7703    1.2236    8.2198 C   0  0  0  0  0  0  0  0  0  0  0  0
    7.0713    0.7104    8.5670 C   0  0  0  0  0  0  0  0  0  0  0  0
    8.1143    0.2998    8.8623 N   0  0  0  0  0  0  0  0  0  0  0  0
    4.9745    1.6775    9.3258 C   0  0  0  0  0  0  0  0  0  0  0  0
    4.3356    2.0325   10.2283 N   0  0  0  0  0  0  0  0  0  0  0  0
    0.6093    3.5915    6.2442 C   0  0  0  0  0  0  0  0  0  0  0  0
    0.3959    4.9942    6.8859 C   0  0  0  0  0  0  0  0  0  0  0  0
   -0.9198    5.5022    6.3446 C   0  0  0  0  0  0  0  0  0  0  0  0
   -0.7125    5.7827    5.0498 C   0  0  0  0  0  0  0  0  0  0  0  0
    0.7300    5.4479    4.7641 C   0  0  0  0  0  0  0  0  0  0  0  0
    1.3354    5.8844    6.0879 C   0  0  0  0  0  0  0  0  0  0  0  0
    0.8238    3.8949    4.8246 C   0  0  0  0  0  0  0  0  0  0  0  0
    7.3159   -0.5675    4.2363 C   0  0  0  0  0  0  0  0  0  0  0  0
    8.2365    0.0781    3.3992 C   0  0  0  0  0  0  0  0  0  0  0  0
    8.1987   -0.1424    2.0127 C   0  0  0  0  0  0  0  0  0  0  0  0
    9.0165    0.5887    1.1431 O   0  0  0  0  0  0  0  0  0  0  0  0
   10.4207    0.7504    1.3284 C   0  0  0  0  0  0  0  0  0  0  0  0
   10.8965    1.9897    0.5857 C   0  0  0  0  0  0  0  0  0  0  0  0
    7.2628   -1.0438    1.4835 C   0  0  0  0  0  0  0  0  0  0  0  0
    6.4638   -1.8105    2.3410 C   0  0  0  0  0  0  0  0  0  0  0  0
    6.4822   -1.5729    3.7261 C   0  0  0  0  0  0  0  0  0  0  0  0
    5.6544   -2.2746    4.6220 O   0  0  0  0  0  0  0  0  0  0  0  0
    4.6851   -3.2627    4.2690 C   0  0  0  0  0  0  0  0  0  0  0  0
    3.4102   -2.6048    3.7495 C   0  0  0  0  0  0  0  0  0  0  0  0
    6.9337   -1.0129    0.0528 C   0  0  0  0  0  0  0  0  0  0  0  0
    7.1994   -2.0039   -0.9018 C   0  0  0  0  0  0  0  0  0  0  0  0
    7.9076   -3.2549   -0.6065 C   0  0  0  0  0  0  0  0  0  0  0  0
    9.2773   -3.3647   -0.8672 C   0  0  0  0  0  0  0  0  0  0  0  0
    9.9660   -4.5218   -0.4908 C   0  0  0  0  0  0  0  0  0  0  0  0
    9.2942   -5.5618    0.1602 C   0  0  0  0  0  0  0  0  0  0  0  0
    7.9208   -5.4508    0.4369 C   0  0  0  0  0  0  0  0  0  0  0  0
    7.1916   -6.5680    1.1312 C   0  0  0  0  0  0  0  0  0  0  0  0
    6.6471   -7.5721    0.1199 C   0  0  0  0  0  0  0  0  0  0  0  0
    7.2268   -4.3016    0.0312 C   0  0  0  0  0  0  0  0  0  0  0  0
    6.5685   -1.7080   -2.1151 C   0  0  0  0  0  0  0  0  0  0  0  0
    6.2941   -2.6111   -3.5286 S   0  0  0  0  0  0  0  0  0  0  0  0
    5.2413   -1.4223   -4.1399 C   0  0  0  0  0  0  0  0  0  0  0  0
    4.1496   -1.4592   -4.9627 C   0  0  0  0  0  0  0  0  0  0  0  0
    3.6561   -2.5168   -5.7453 C   0  0  0  0  0  0  0  0  0  0  0  0
    2.3011   -2.4754   -6.1950 C   0  0  0  0  0  0  0  0  0  0  0  0
    1.8457   -3.5424   -6.8970 N   0  0  0  0  0  0  0  0  0  0  0  0
    3.2157   -4.4723   -6.8993 S   0  0  0  0  0  0  0  0  0  0  0  0
    4.3632   -3.6312   -6.0522 N   0  0  0  0  0  0  0  0  0  0  0  0
    1.5287   -1.3543   -5.8838 C   0  0  0  0  0  0  0  0  0  0  0  0
    0.2097   -1.0527   -6.1092 C   0  0  0  0  0  0  0  0  0  0  0  0
   -1.2363   -1.8232   -6.5632 S   0  0  0  0  0  0  0  0  0  0  0  0
   -2.1533   -0.4780   -6.0246 C   0  0  0  0  0  0  0  0  0  0  0  0
   -3.5054   -0.3278   -5.7004 C   0  0  0  0  0  0  0  0  0  0  0  0
   -4.5620   -1.2819   -6.0711 C   0  0  0  0  0  0  0  0  0  0  0  0
   -5.2130   -1.1375   -7.3049 C   0  0  0  0  0  0  0  0  0  0  0  0
   -6.2709   -1.9860   -7.6461 C   0  0  0  0  0  0  0  0  0  0  0  0
   -6.6896   -2.9752   -6.7526 C   0  0  0  0  0  0  0  0  0  0  0  0
   -6.0505   -3.1285   -5.5114 C   0  0  0  0  0  0  0  0  0  0  0  0
   -6.4760   -4.2344   -4.5807 C   0  0  0  0  0  0  0  0  0  0  0  0
   -5.8174   -5.5560   -4.9672 C   0  0  0  0  0  0  0  0  0  0  0  0
   -4.9765   -2.2820   -5.1765 C   0  0  0  0  0  0  0  0  0  0  0  0
   -3.7082    0.7932   -4.8754 C   0  0  0  0  0  0  0  0  0  0  0  0
   -2.2207    1.5719   -4.5738 S   0  0  0  0  0  0  0  0  0  0  0  0
   -1.3411    0.5036   -5.5126 C   0  0  0  0  0  0  0  0  0  0  0  0
   -0.0049    0.1649   -5.5618 C   0  0  0  0  0  0  0  0  0  0  0  0
    1.0941    0.7016   -4.9907 N   0  0  0  0  0  0  0  0  0  0  0  0
    2.0374   -0.2785   -5.1334 C   0  0  0  0  0  0  0  0  0  0  0  0
    3.3412   -0.3737   -4.5786 C   0  0  0  0  0  0  0  0  0  0  0  0
    3.8584    0.2534   -3.4644 N   0  0  0  0  0  0  0  0  0  0  0  0
    5.0408   -0.3967   -3.2592 C   0  0  0  0  0  0  0  0  0  0  0  0
    5.8149   -0.5607   -2.1101 C   0  0  0  0  0  0  0  0  0  0  0  0
    5.8924    0.1546   -0.6002 S   0  0  0  0  0  0  0  0  0  0  0  0
    3.0782    0.8665   -2.3785 C   0  0  0  0  0  0  0  0  0  0  0  0
    3.5616    2.2840   -2.0446 C   0  0  0  0  0  0  0  0  0  0  0  0
    1.3192    2.1499   -4.8715 C   0  0  0  0  0  0  0  0  0  0  0  0
    1.3261    2.8110   -6.2435 C   0  0  0  0  0  0  0  0  0  0  0  0
   -4.8989    1.0108   -4.0420 C   0  0  0  0  0  0  0  0  0  0  0  0
   -6.1107    1.4186   -4.6226 C   0  0  0  0  0  0  0  0  0  0  0  0
   -7.2628    1.5943   -3.8272 C   0  0  0  0  0  0  0  0  0  0  0  0
   -8.4995    1.9890   -4.3709 O   0  0  0  0  0  0  0  0  0  0  0  0
   -8.7003    2.5340   -5.6775 C   0  0  0  0  0  0  0  0  0  0  0  0
   -8.2333    3.9824   -5.7257 C   0  0  0  0  0  0  0  0  0  0  0  0
   -7.1842    1.3511   -2.4451 C   0  0  0  0  0  0  0  0  0  0  0  0
   -5.9533    0.9995   -1.8684 C   0  0  0  0  0  0  0  0  0  0  0  0
   -4.8255    0.7676   -2.6614 C   0  0  0  0  0  0  0  0  0  0  0  0
   -3.6252    0.2652   -2.1239 O   0  0  0  0  0  0  0  0  0  0  0  0
   -3.4270   -0.1583   -0.7735 C   0  0  0  0  0  0  0  0  0  0  0  0
   -3.0680    1.0259    0.1157 C   0  0  0  0  0  0  0  0  0  0  0  0
   -8.3491    1.6082   -1.5667 C   0  0  0  0  0  0  0  0  0  0  0  0
   -8.7061    0.8009   -0.5422 C   0  0  0  0  0  0  0  0  0  0  0  0
   -8.1032   -0.5010   -0.2285 C   0  0  0  0  0  0  0  0  0  0  0  0
   -7.5810   -1.2980   -1.0528 O   0  0  0  0  0  0  0  0  0  0  0  0
   -8.2313   -0.7361    1.1921 C   0  0  0  0  0  0  0  0  0  0  0  0
   -7.5770   -1.7353    1.9503 C   0  0  0  0  0  0  0  0  0  0  0  0
   -7.7299   -1.5895    3.3165 C   0  0  0  0  0  0  0  0  0  0  0  0
   -8.4752   -0.5186    3.9110 C   0  0  0  0  0  0  0  0  0  0  0  0
   -9.1211    0.4613    3.1712 C   0  0  0  0  0  0  0  0  0  0  0  0
   -8.9988    0.3117    1.7627 C   0  0  0  0  0  0  0  0  0  0  0  0
   -9.4600    1.2191    0.6778 C   0  0  0  0  0  0  0  0  0  0  0  0
  -10.4949    2.0936    0.7353 C   0  0  0  0  0  0  0  0  0  0  0  0
  -10.9969    2.7622   -0.4329 C   0  0  0  0  0  0  0  0  0  0  0  0
  -11.4076    3.3168   -1.3667 N   0  0  0  0  0  0  0  0  0  0  0  0
  -11.2534    2.2970    1.9419 C   0  0  0  0  0  0  0  0  0  0  0  0
  -11.8731    2.4721    2.9015 N   0  0  0  0  0  0  0  0  0  0  0  0
   -8.1031   -0.9992    5.2842 C   0  0  0  0  0  0  0  0  0  0  0  0
   -7.0113   -0.2051    6.0662 C   0  0  0  0  0  0  0  0  0  0  0  0
   -6.0227    0.4145    5.1036 C   0  0  0  0  0  0  0  0  0  0  0  0
   -5.3430   -0.5953    4.5565 C   0  0  0  0  0  0  0  0  0  0  0  0
   -5.8908   -1.8665    5.1639 C   0  0  0  0  0  0  0  0  0  0  0  0
   -6.1654   -1.3588    6.5691 C   0  0  0  0  0  0  0  0  0  0  0  0
   -7.3522   -2.1045    4.6770 C   0  0  0  0  0  0  0  0  0  0  0  0
    7.2227   -0.6564    6.4145 H   0  0  0  0  0  0  0  0  0  0  0  0
    3.4834    3.1995    3.1934 H   0  0  0  0  0  0  0  0  0  0  0  0
    2.7403    2.1530    8.1343 H   0  0  0  0  0  0  0  0  0  0  0  0
   -0.1919    2.8439    6.4401 H   0  0  0  0  0  0  0  0  0  0  0  0
    0.5087    5.0393    7.9892 H   0  0  0  0  0  0  0  0  0  0  0  0
   -1.8328    5.6943    6.8955 H   0  0  0  0  0  0  0  0  0  0  0  0
   -1.4259    6.2428    4.3770 H   0  0  0  0  0  0  0  0  0  0  0  0
    1.1584    5.9205    3.8536 H   0  0  0  0  0  0  0  0  0  0  0  0
    1.2004    6.9744    6.2993 H   0  0  0  0  0  0  0  0  0  0  0  0
    2.4127    5.6313    6.1973 H   0  0  0  0  0  0  0  0  0  0  0  0
    0.1611    3.3431    4.1221 H   0  0  0  0  0  0  0  0  0  0  0  0
    8.8680    0.8558    3.8029 H   0  0  0  0  0  0  0  0  0  0  0  0
   10.9524   -0.1465    0.9421 H   0  0  0  0  0  0  0  0  0  0  0  0
   10.6745    0.8572    2.4041 H   0  0  0  0  0  0  0  0  0  0  0  0
   12.0049    2.0116    0.5695 H   0  0  0  0  0  0  0  0  0  0  0  0
   10.5294    2.9034    1.1065 H   0  0  0  0  0  0  0  0  0  0  0  0
   10.5139    1.9864   -0.4579 H   0  0  0  0  0  0  0  0  0  0  0  0
    5.7579   -2.5044    1.9173 H   0  0  0  0  0  0  0  0  0  0  0  0
    4.4303   -3.8381    5.1876 H   0  0  0  0  0  0  0  0  0  0  0  0
    5.1014   -3.9815    3.5304 H   0  0  0  0  0  0  0  0  0  0  0  0
    3.0420   -1.8679    4.4918 H   0  0  0  0  0  0  0  0  0  0  0  0
    3.6025   -2.0915    2.7864 H   0  0  0  0  0  0  0  0  0  0  0  0
    2.6338   -3.3833    3.5858 H   0  0  0  0  0  0  0  0  0  0  0  0
    9.8112   -2.5512   -1.3461 H   0  0  0  0  0  0  0  0  0  0  0  0
   11.0267   -4.6048   -0.6842 H   0  0  0  0  0  0  0  0  0  0  0  0
    9.8414   -6.4477    0.4589 H   0  0  0  0  0  0  0  0  0  0  0  0
    7.8759   -7.0891    1.8368 H   0  0  0  0  0  0  0  0  0  0  0  0
    6.3506   -6.1556    1.7296 H   0  0  0  0  0  0  0  0  0  0  0  0
    5.9655   -7.0668   -0.5978 H   0  0  0  0  0  0  0  0  0  0  0  0
    7.4818   -8.0472   -0.4380 H   0  0  0  0  0  0  0  0  0  0  0  0
    6.0789   -8.3611    0.6573 H   0  0  0  0  0  0  0  0  0  0  0  0
    6.1632   -4.2141    0.2316 H   0  0  0  0  0  0  0  0  0  0  0  0
   -4.9058   -0.3575   -7.9964 H   0  0  0  0  0  0  0  0  0  0  0  0
   -6.7724   -1.8720   -8.6003 H   0  0  0  0  0  0  0  0  0  0  0  0
   -7.5098   -3.6280   -7.0306 H   0  0  0  0  0  0  0  0  0  0  0  0
   -6.2089   -3.9817   -3.5300 H   0  0  0  0  0  0  0  0  0  0  0  0
   -7.5815   -4.3503   -4.6189 H   0  0  0  0  0  0  0  0  0  0  0  0
   -6.1653   -6.3566   -4.2797 H   0  0  0  0  0  0  0  0  0  0  0  0
   -4.7118   -5.4709   -4.8945 H   0  0  0  0  0  0  0  0  0  0  0  0
   -6.0947   -5.8326   -6.0077 H   0  0  0  0  0  0  0  0  0  0  0  0
   -4.4703   -2.3918   -4.2259 H   0  0  0  0  0  0  0  0  0  0  0  0
    1.9982    0.9030   -2.6243 H   0  0  0  0  0  0  0  0  0  0  0  0
    3.1339    0.2324   -1.4731 H   0  0  0  0  0  0  0  0  0  0  0  0
    2.7535    2.8251   -1.5122 H   0  0  0  0  0  0  0  0  0  0  0  0
    4.4470    2.2675   -1.3836 H   0  0  0  0  0  0  0  0  0  0  0  0
    3.8409    2.8514   -2.9553 H   0  0  0  0  0  0  0  0  0  0  0  0
    0.5286    2.6039   -4.2415 H   0  0  0  0  0  0  0  0  0  0  0  0
    2.2927    2.3531   -4.4177 H   0  0  0  0  0  0  0  0  0  0  0  0
    0.3255    2.7300   -6.7166 H   0  0  0  0  0  0  0  0  0  0  0  0
    1.5808    3.8909   -6.1431 H   0  0  0  0  0  0  0  0  0  0  0  0
    2.0797    2.3228   -6.8999 H   0  0  0  0  0  0  0  0  0  0  0  0
   -6.1405    1.5929   -5.6854 H   0  0  0  0  0  0  0  0  0  0  0  0
   -8.1968    1.9222   -6.4543 H   0  0  0  0  0  0  0  0  0  0  0  0
   -9.7852    2.5065   -5.8983 H   0  0  0  0  0  0  0  0  0  0  0  0
   -8.3530    4.3849   -6.7558 H   0  0  0  0  0  0  0  0  0  0  0  0
   -7.1632    4.0553   -5.4372 H   0  0  0  0  0  0  0  0  0  0  0  0
   -8.8400    4.5980   -5.0242 H   0  0  0  0  0  0  0  0  0  0  0  0
   -5.8865    0.8977   -0.7956 H   0  0  0  0  0  0  0  0  0  0  0  0
   -2.5795   -0.8790   -0.7591 H   0  0  0  0  0  0  0  0  0  0  0  0
   -4.3163   -0.6999   -0.3871 H   0  0  0  0  0  0  0  0  0  0  0  0
   -2.9077    0.6753    1.1561 H   0  0  0  0  0  0  0  0  0  0  0  0
   -2.1338    1.4986   -0.2557 H   0  0  0  0  0  0  0  0  0  0  0  0
   -3.8868    1.7730    0.1160 H   0  0  0  0  0  0  0  0  0  0  0  0
   -8.8042    2.5802   -1.6782 H   0  0  0  0  0  0  0  0  0  0  0  0
   -6.9543   -2.5029    1.5072 H   0  0  0  0  0  0  0  0  0  0  0  0
   -9.6017    1.2952    3.6594 H   0  0  0  0  0  0  0  0  0  0  0  0
   -8.9753   -1.3276    5.8953 H   0  0  0  0  0  0  0  0  0  0  0  0
   -7.3980    0.4810    6.8480 H   0  0  0  0  0  0  0  0  0  0  0  0
   -5.8309    1.4686    4.9410 H   0  0  0  0  0  0  0  0  0  0  0  0
   -4.5099   -0.4998    3.8670 H   0  0  0  0  0  0  0  0  0  0  0  0
   -5.2186   -2.7475    5.0969 H   0  0  0  0  0  0  0  0  0  0  0  0
   -5.2429   -1.0299    7.1090 H   0  0  0  0  0  0  0  0  0  0  0  0
   -6.7272   -2.0837    7.2026 H   0  0  0  0  0  0  0  0  0  0  0  0
   -7.7683   -3.1104    4.9130 H   0  0  0  0  0  0  0  0  0  0  0  0
  1  2  2  3
  2  3  1  0
  3  4  2  0
  3  5  1  0
  5  6  2  0
  6  7  1  0
  7  8  2  0
  8  9  1  0
  9 10  2  0
 10 11  1  0
 11 12  2  3
 12 13  1  0
 13 14  3  0
 12 15  1  0
 15 16  3  0
  8 17  1  0
 17 18  1  0
 18 19  1  0
 19 20  2  0
 20 21  1  0
 21 22  1  0
 21 23  1  0
  1 24  1  0
 24 25  2  0
 25 26  1  0
 26 27  1  0
 27 28  1  0
 28 29  1  0
 26 30  2  0
 30 31  1  0
 31 32  2  0
 32 33  1  0
 33 34  1  0
 34 35  1  0
 30 36  1  0
 36 37  2  0
 37 38  1  0
 38 39  2  0
 39 40  1  0
 40 41  2  0
 41 42  1  0
 42 43  1  0
 43 44  1  0
 42 45  2  0
 37 46  1  0
 46 47  1  0
 47 48  1  0
 48 49  1  0
 49 50  1  0
 50 51  1  0
 51 52  2  0
 52 53  1  0
 53 54  1  0
 51 55  1  0
 55 56  1  0
 56 57  1  0
 57 58  1  0
 58 59  1  0
 59 60  1  0
 60 61  2  0
 61 62  1  0
 62 63  2  0
 63 64  1  0
 64 65  1  0
 65 66  1  0
 64 67  2  0
 59 68  2  0
 68 69  1  0
 69 70  1  0
 70 71  1  0
 71 72  1  0
 72 73  1  0
 73 74  1  0
 74 75  1  0
 75 76  1  0
 76 77  1  0
 77 78  1  0
 75 79  1  0
 79 80  1  0
 72 81  1  0
 81 82  1  0
 68 83  1  0
 83 84  2  0
 84 85  1  0
 85 86  1  0
 86 87  1  0
 87 88  1  0
 85 89  2  0
 89 90  1  0
 90 91  2  0
 91 92  1  0
 92 93  1  0
 93 94  1  0
 89 95  1  0
 95 96  2  3
 96 97  1  0
 97 98  2  0
 97 99  1  0
 99100  2  0
100101  1  0
101102  2  0
102103  1  0
103104  2  0
104105  1  0
105106  2  3
106107  1  0
107108  3  0
106109  1  0
109110  3  0
102111  1  0
111112  1  0
112113  1  0
113114  2  0
114115  1  0
115116  1  0
115117  1  0
 11  2  1  0
 23 17  1  0
 32 24  1  0
 78 36  1  0
 91 83  1  0
105 96  1  0
117111  1  0
 10  5  1  0
 22 18  1  0
 45 38  1  0
 77 46  2  0
104 99  1  0
116112  1  0
 23  7  1  0
 76 48  2  0
117101  1  0
 74 49  2  0
 54 50  2  0
 73 55  2  0
 71 56  2  0
 70 58  2  0
 67 60  1  0
  1118  1  0
  6119  1  0
  9120  1  0
 17121  1  0
 18122  1  0
 19123  1  0
 20124  1  0
 21125  1  0
 22126  1  0
 22127  1  0
 23128  1  0
 25129  1  0
 28130  1  0
 28131  1  0
 29132  1  0
 29133  1  0
 29134  1  0
 31135  1  0
 34136  1  0
 34137  1  0
 35138  1  0
 35139  1  0
 35140  1  0
 39141  1  0
 40142  1  0
 41143  1  0
 43144  1  0
 43145  1  0
 44146  1  0
 44147  1  0
 44148  1  0
 45149  1  0
 61150  1  0
 62151  1  0
 63152  1  0
 65153  1  0
 65154  1  0
 66155  1  0
 66156  1  0
 66157  1  0
 67158  1  0
 79159  1  0
 79160  1  0
 80161  1  0
 80162  1  0
 80163  1  0
 81164  1  0
 81165  1  0
 82166  1  0
 82167  1  0
 82168  1  0
 84169  1  0
 87170  1  0
 87171  1  0
 88172  1  0
 88173  1  0
 88174  1  0
 90175  1  0
 93176  1  0
 93177  1  0
 94178  1  0
 94179  1  0
 94180  1  0
 95181  1  0
100182  1  0
103183  1  0
111184  1  0
112185  1  0
113186  1  0
114187  1  0
115188  1  0
116189  1  0
116190  1  0
117191  1  0
M  END

