
     RDKit          3D

247273  0  0  0  0  0  0  0  0999 V2000
   -8.3603    1.7701   -1.2940 C   0  0  0  0  0  0  0  0  0  0  0  0
   -8.7605    0.7162   -2.0261 C   0  0  0  0  0  0  0  0  0  0  0  0
   -7.8929   -0.3004   -2.6343 C   0  0  0  0  0  0  0  0  0  0  0  0
   -6.7228   -0.6008   -2.2676 O   0  0  0  0  0  0  0  0  0  0  0  0
   -8.6044   -0.9191   -3.7303 C   0  0  0  0  0  0  0  0  0  0  0  0
   -8.0645   -1.7613   -4.7324 C   0  0  0  0  0  0  0  0  0  0  0  0
   -8.9116   -1.9637   -5.8048 C   0  0  0  0  0  0  0  0  0  0  0  0
  -10.2085   -1.3645   -5.8998 C   0  0  0  0  0  0  0  0  0  0  0  0
  -10.7515   -0.5636   -4.9123 C   0  0  0  0  0  0  0  0  0  0  0  0
   -9.9107   -0.3748   -3.7839 C   0  0  0  0  0  0  0  0  0  0  0  0
  -10.1125    0.5266   -2.6214 C   0  0  0  0  0  0  0  0  0  0  0  0
  -11.3077    0.8777   -2.0778 C   0  0  0  0  0  0  0  0  0  0  0  0
  -12.5582    0.4619   -2.6507 C   0  0  0  0  0  0  0  0  0  0  0  0
  -13.5727    0.1304   -3.1060 N   0  0  0  0  0  0  0  0  0  0  0  0
  -11.4015    1.5460   -0.8044 C   0  0  0  0  0  0  0  0  0  0  0  0
  -11.4872    2.0815    0.2172 N   0  0  0  0  0  0  0  0  0  0  0  0
  -10.3667   -1.8865   -7.2948 C   0  0  0  0  0  0  0  0  0  0  0  0
  -10.1760   -0.8723   -8.4675 C   0  0  0  0  0  0  0  0  0  0  0  0
   -9.1680    0.1856   -8.0812 C   0  0  0  0  0  0  0  0  0  0  0  0
   -7.9847   -0.4216   -8.0026 C   0  0  0  0  0  0  0  0  0  0  0  0
   -8.2283   -1.8769   -8.3277 C   0  0  0  0  0  0  0  0  0  0  0  0
   -9.3033   -1.7088   -9.3857 C   0  0  0  0  0  0  0  0  0  0  0  0
   -9.0586   -2.5351   -7.1883 C   0  0  0  0  0  0  0  0  0  0  0  0
   -6.9507    2.1052   -1.0233 C   0  0  0  0  0  0  0  0  0  0  0  0
   -5.7820    2.3068   -2.2174 S   0  0  0  0  0  0  0  0  0  0  0  0
   -4.5775    2.9438   -1.2344 C   0  0  0  0  0  0  0  0  0  0  0  0
   -5.0833    3.0071    0.0778 C   0  0  0  0  0  0  0  0  0  0  0  0
   -4.3358    3.3733    1.3048 C   0  0  0  0  0  0  0  0  0  0  0  0
   -3.0823    3.4313    1.3008 O   0  0  0  0  0  0  0  0  0  0  0  0
   -5.0893    3.5682    2.5684 C   0  0  0  0  0  0  0  0  0  0  0  0
   -4.5647    4.0495    3.7742 C   0  0  0  0  0  0  0  0  0  0  0  0
   -3.1378    4.4068    4.0852 C   0  0  0  0  0  0  0  0  0  0  0  0
   -2.3243    3.1609    4.4222 C   0  0  0  0  0  0  0  0  0  0  0  0
   -5.7982    4.0640    4.9141 S   0  0  0  0  0  0  0  0  0  0  0  0
   -7.0162    3.4955    3.9023 C   0  0  0  0  0  0  0  0  0  0  0  0
   -8.4158    3.2265    4.3743 C   0  0  0  0  0  0  0  0  0  0  0  0
   -8.5454    1.7980    4.8831 C   0  0  0  0  0  0  0  0  0  0  0  0
   -6.4594    3.2466    2.6419 C   0  0  0  0  0  0  0  0  0  0  0  0
   -7.1563    2.6622    1.4689 C   0  0  0  0  0  0  0  0  0  0  0  0
   -8.3329    2.2224    1.5695 O   0  0  0  0  0  0  0  0  0  0  0  0
   -6.4245    2.5850    0.1794 C   0  0  0  0  0  0  0  0  0  0  0  0
   -3.2771    3.4141   -1.7577 C   0  0  0  0  0  0  0  0  0  0  0  0
   -2.5347    4.5048   -1.2919 C   0  0  0  0  0  0  0  0  0  0  0  0
   -1.2927    4.6027   -1.9283 C   0  0  0  0  0  0  0  0  0  0  0  0
    0.0462    5.1018   -1.3826 C   0  0  0  0  0  0  0  0  0  0  0  0
    0.2237    6.6266   -1.5822 C   0  0  0  0  0  0  0  0  0  0  0  0
   -0.1238    7.1184   -2.9971 C   0  0  0  0  0  0  0  0  0  0  0  0
    0.1578    4.7247    0.1209 C   0  0  0  0  0  0  0  0  0  0  0  0
    0.0653    3.2149    0.3988 C   0  0  0  0  0  0  0  0  0  0  0  0
    1.0060    4.3115   -2.2894 C   0  0  0  0  0  0  0  0  0  0  0  0
    2.3889    4.0448   -2.3902 C   0  0  0  0  0  0  0  0  0  0  0  0
    3.6695    4.3214   -1.5893 C   0  0  0  0  0  0  0  0  0  0  0  0
    4.4697    5.4777   -2.2135 C   0  0  0  0  0  0  0  0  0  0  0  0
    3.9010    6.3823   -3.1374 C   0  0  0  0  0  0  0  0  0  0  0  0
    4.7108    7.2497   -3.8758 C   0  0  0  0  0  0  0  0  0  0  0  0
    6.1015    7.2391   -3.7029 C   0  0  0  0  0  0  0  0  0  0  0  0
    6.9875    8.0397   -4.6170 C   0  0  0  0  0  0  0  0  0  0  0  0
    6.9768    9.5193   -4.2512 C   0  0  0  0  0  0  0  0  0  0  0  0
    6.6602    6.4439   -2.6934 C   0  0  0  0  0  0  0  0  0  0  0  0
    5.8510    5.5842   -1.9463 C   0  0  0  0  0  0  0  0  0  0  0  0
    3.4915    4.4546   -0.0675 C   0  0  0  0  0  0  0  0  0  0  0  0
    3.1617    3.3288    0.7209 C   0  0  0  0  0  0  0  0  0  0  0  0
    3.1001    3.4193    2.1180 C   0  0  0  0  0  0  0  0  0  0  0  0
    3.3579    4.6342    2.7610 C   0  0  0  0  0  0  0  0  0  0  0  0
    3.2806    4.7357    4.2656 C   0  0  0  0  0  0  0  0  0  0  0  0
    1.9116    5.2458    4.7026 C   0  0  0  0  0  0  0  0  0  0  0  0
    3.6403    5.7719    1.9898 C   0  0  0  0  0  0  0  0  0  0  0  0
    3.7064    5.6854    0.5944 C   0  0  0  0  0  0  0  0  0  0  0  0
    4.4212    3.0391   -1.9811 C   0  0  0  0  0  0  0  0  0  0  0  0
    3.9383    2.5225   -3.1818 C   0  0  0  0  0  0  0  0  0  0  0  0
    2.6492    3.1279   -3.3930 C   0  0  0  0  0  0  0  0  0  0  0  0
    1.2383    2.4874   -4.0761 S   0  0  0  0  0  0  0  0  0  0  0  0
    0.2855    3.5494   -3.1776 C   0  0  0  0  0  0  0  0  0  0  0  0
   -1.1222    3.7044   -2.9414 C   0  0  0  0  0  0  0  0  0  0  0  0
   -2.4056    2.6308   -2.9932 S   0  0  0  0  0  0  0  0  0  0  0  0
    4.3935    1.3160   -3.7127 C   0  0  0  0  0  0  0  0  0  0  0  0
    5.1337    0.4767   -2.8587 C   0  0  0  0  0  0  0  0  0  0  0  0
    5.3607   -1.0430   -2.9717 C   0  0  0  0  0  0  0  0  0  0  0  0
    6.8488   -1.2525   -3.3272 C   0  0  0  0  0  0  0  0  0  0  0  0
    7.4985   -0.4120   -4.2602 C   0  0  0  0  0  0  0  0  0  0  0  0
    8.8827   -0.4888   -4.4573 C   0  0  0  0  0  0  0  0  0  0  0  0
    9.6436   -1.4462   -3.7718 C   0  0  0  0  0  0  0  0  0  0  0  0
   11.1416   -1.4778   -3.9101 C   0  0  0  0  0  0  0  0  0  0  0  0
   11.8095   -0.7644   -2.7355 C   0  0  0  0  0  0  0  0  0  0  0  0
    8.9981   -2.3435   -2.9122 C   0  0  0  0  0  0  0  0  0  0  0  0
    7.6172   -2.2631   -2.7072 C   0  0  0  0  0  0  0  0  0  0  0  0
    4.4300   -1.7793   -3.9528 C   0  0  0  0  0  0  0  0  0  0  0  0
    4.8989   -2.8880   -4.6939 C   0  0  0  0  0  0  0  0  0  0  0  0
    4.1062   -3.4977   -5.6694 C   0  0  0  0  0  0  0  0  0  0  0  0
    2.8119   -3.0318   -5.9219 C   0  0  0  0  0  0  0  0  0  0  0  0
    1.9817   -3.6656   -7.0091 C   0  0  0  0  0  0  0  0  0  0  0  0
    1.4873   -5.0487   -6.5957 C   0  0  0  0  0  0  0  0  0  0  0  0
    2.3050   -1.9765   -5.1533 C   0  0  0  0  0  0  0  0  0  0  0  0
    3.0987   -1.3656   -4.1781 C   0  0  0  0  0  0  0  0  0  0  0  0
    5.1764   -1.3561   -1.4841 C   0  0  0  0  0  0  0  0  0  0  0  0
    5.5120   -0.2451   -0.7369 C   0  0  0  0  0  0  0  0  0  0  0  0
    5.4708    0.9242   -1.5793 C   0  0  0  0  0  0  0  0  0  0  0  0
    5.2385    2.2376   -1.1635 C   0  0  0  0  0  0  0  0  0  0  0  0
    5.1709   -0.4316    0.9101 S   0  0  0  0  0  0  0  0  0  0  0  0
    4.7254   -2.0406    0.6654 C   0  0  0  0  0  0  0  0  0  0  0  0
    3.9623   -2.9632    1.4479 C   0  0  0  0  0  0  0  0  0  0  0  0
    3.3540   -3.8422    0.6095 C   0  0  0  0  0  0  0  0  0  0  0  0
    3.7642   -3.6257   -0.8461 C   0  0  0  0  0  0  0  0  0  0  0  0
    4.6551   -2.3837   -0.6686 C   0  0  0  0  0  0  0  0  0  0  0  0
    2.4986   -3.3969   -1.7200 C   0  0  0  0  0  0  0  0  0  0  0  0
    1.7047   -2.1285   -1.3683 C   0  0  0  0  0  0  0  0  0  0  0  0
    4.6340   -4.7972   -1.3619 C   0  0  0  0  0  0  0  0  0  0  0  0
    3.9083   -6.1431   -1.4238 C   0  0  0  0  0  0  0  0  0  0  0  0
    2.1697   -4.3932    1.1369 C   0  0  0  0  0  0  0  0  0  0  0  0
    1.9112   -3.9516    2.4415 C   0  0  0  0  0  0  0  0  0  0  0  0
    3.0819   -2.7890    2.8550 S   0  0  0  0  0  0  0  0  0  0  0  0
    0.7072   -4.2108    3.2725 C   0  0  0  0  0  0  0  0  0  0  0  0
    0.3974   -3.3645    4.6918 S   0  0  0  0  0  0  0  0  0  0  0  0
   -1.0578   -4.0903    5.0959 C   0  0  0  0  0  0  0  0  0  0  0  0
   -1.3443   -5.0309    4.1080 C   0  0  0  0  0  0  0  0  0  0  0  0
   -2.5611   -5.8770    4.0604 C   0  0  0  0  0  0  0  0  0  0  0  0
   -3.3862   -5.8777    5.0108 O   0  0  0  0  0  0  0  0  0  0  0  0
   -2.7990   -6.6771    2.8328 C   0  0  0  0  0  0  0  0  0  0  0  0
   -3.9920   -7.3162    2.4677 C   0  0  0  0  0  0  0  0  0  0  0  0
   -5.2900   -7.3632    3.2210 C   0  0  0  0  0  0  0  0  0  0  0  0
   -6.0754   -6.0674    3.0391 C   0  0  0  0  0  0  0  0  0  0  0  0
   -3.7875   -7.9415    0.9150 S   0  0  0  0  0  0  0  0  0  0  0  0
   -2.1941   -7.4495    0.6987 C   0  0  0  0  0  0  0  0  0  0  0  0
   -1.4107   -7.6211   -0.5699 C   0  0  0  0  0  0  0  0  0  0  0  0
   -0.7373   -8.9872   -0.6131 C   0  0  0  0  0  0  0  0  0  0  0  0
   -1.7891   -6.7870    1.8597 C   0  0  0  0  0  0  0  0  0  0  0  0
   -0.4520   -6.2128    2.1063 C   0  0  0  0  0  0  0  0  0  0  0  0
    0.5678   -6.7666    1.6273 O   0  0  0  0  0  0  0  0  0  0  0  0
   -0.3447   -5.1324    3.1128 C   0  0  0  0  0  0  0  0  0  0  0  0
   -1.5638   -4.0634    6.4788 C   0  0  0  0  0  0  0  0  0  0  0  0
   -0.9377   -4.8036    7.4102 C   0  0  0  0  0  0  0  0  0  0  0  0
   -0.0032   -5.8830    7.0672 C   0  0  0  0  0  0  0  0  0  0  0  0
   -0.2079   -6.7943    6.2191 O   0  0  0  0  0  0  0  0  0  0  0  0
    1.2150   -5.6973    7.8223 C   0  0  0  0  0  0  0  0  0  0  0  0
    2.4752   -6.2069    7.5173 C   0  0  0  0  0  0  0  0  0  0  0  0
    3.5955   -5.6593    8.1574 C   0  0  0  0  0  0  0  0  0  0  0  0
    4.8845   -6.0830    7.8161 C   0  0  0  0  0  0  0  0  0  0  0  0
    5.9986   -5.4922    8.4128 C   0  0  0  0  0  0  0  0  0  0  0  0
    5.8373   -4.4783    9.3578 C   0  0  0  0  0  0  0  0  0  0  0  0
    6.9290   -3.9108    9.9307 F   0  0  0  0  0  0  0  0  0  0  0  0
    4.5582   -4.0337    9.7046 C   0  0  0  0  0  0  0  0  0  0  0  0
    3.4253   -4.6093    9.1080 C   0  0  0  0  0  0  0  0  0  0  0  0
    2.1317   -4.1212    9.3974 C   0  0  0  0  0  0  0  0  0  0  0  0
    1.0274   -4.6794    8.7369 C   0  0  0  0  0  0  0  0  0  0  0  0
   -0.3762   -4.1973    8.6471 C   0  0  0  0  0  0  0  0  0  0  0  0
   -1.0581   -3.4563    9.5454 C   0  0  0  0  0  0  0  0  0  0  0  0
   -0.4574   -2.9879   10.7662 C   0  0  0  0  0  0  0  0  0  0  0  0
    0.0175   -2.6088   11.7534 N   0  0  0  0  0  0  0  0  0  0  0  0
   -2.4687   -3.1966    9.3912 C   0  0  0  0  0  0  0  0  0  0  0  0
   -3.6004   -2.9864    9.2724 N   0  0  0  0  0  0  0  0  0  0  0  0
   -9.0768    2.5056   -0.9699 H   0  0  0  0  0  0  0  0  0  0  0  0
   -7.0434   -2.1261   -4.7173 H   0  0  0  0  0  0  0  0  0  0  0  0
  -11.6921   -0.0586   -5.0601 H   0  0  0  0  0  0  0  0  0  0  0  0
  -11.2190   -2.5879   -7.4138 H   0  0  0  0  0  0  0  0  0  0  0  0
  -11.1167   -0.4897   -8.9157 H   0  0  0  0  0  0  0  0  0  0  0  0
   -9.3387    1.2513   -7.9674 H   0  0  0  0  0  0  0  0  0  0  0  0
   -7.0302    0.0610   -7.8113 H   0  0  0  0  0  0  0  0  0  0  0  0
   -7.3214   -2.4357   -8.6509 H   0  0  0  0  0  0  0  0  0  0  0  0
   -9.7803   -2.6656   -9.6947 H   0  0  0  0  0  0  0  0  0  0  0  0
   -8.9569   -1.1562  -10.2912 H   0  0  0  0  0  0  0  0  0  0  0  0
   -9.1047   -3.6455   -7.2217 H   0  0  0  0  0  0  0  0  0  0  0  0
   -2.6736    4.9498    3.2348 H   0  0  0  0  0  0  0  0  0  0  0  0
   -3.1213    5.0958    4.9601 H   0  0  0  0  0  0  0  0  0  0  0  0
   -1.2802    3.4512    4.6601 H   0  0  0  0  0  0  0  0  0  0  0  0
   -2.3047    2.4556    3.5637 H   0  0  0  0  0  0  0  0  0  0  0  0
   -2.7596    2.6465    5.3086 H   0  0  0  0  0  0  0  0  0  0  0  0
   -9.1471    3.4183    3.5669 H   0  0  0  0  0  0  0  0  0  0  0  0
   -8.6597    3.9268    5.2005 H   0  0  0  0  0  0  0  0  0  0  0  0
   -9.5686    1.6364    5.2856 H   0  0  0  0  0  0  0  0  0  0  0  0
   -8.3609    1.0724    4.0641 H   0  0  0  0  0  0  0  0  0  0  0  0
   -7.8154    1.6109    5.6992 H   0  0  0  0  0  0  0  0  0  0  0  0
   -2.8249    5.1338   -0.4620 H   0  0  0  0  0  0  0  0  0  0  0  0
    1.2773    6.9002   -1.3629 H   0  0  0  0  0  0  0  0  0  0  0  0
   -0.4187    7.1753   -0.8618 H   0  0  0  0  0  0  0  0  0  0  0  0
    0.3328    6.4802   -3.7767 H   0  0  0  0  0  0  0  0  0  0  0  0
   -1.2249    7.1182   -3.1401 H   0  0  0  0  0  0  0  0  0  0  0  0
    0.2430    8.1574   -3.1331 H   0  0  0  0  0  0  0  0  0  0  0  0
   -0.6554    5.2279    0.6874 H   0  0  0  0  0  0  0  0  0  0  0  0
    1.0876    5.1313    0.5434 H   0  0  0  0  0  0  0  0  0  0  0  0
   -0.9534    2.8290    0.2042 H   0  0  0  0  0  0  0  0  0  0  0  0
    0.7565    2.6395   -0.2435 H   0  0  0  0  0  0  0  0  0  0  0  0
    0.3163    3.0187    1.4635 H   0  0  0  0  0  0  0  0  0  0  0  0
    2.8395    6.3962   -3.3257 H   0  0  0  0  0  0  0  0  0  0  0  0
    4.2609    7.9039   -4.6092 H   0  0  0  0  0  0  0  0  0  0  0  0
    6.6453    7.9190   -5.6698 H   0  0  0  0  0  0  0  0  0  0  0  0
    8.0327    7.6620   -4.5727 H   0  0  0  0  0  0  0  0  0  0  0  0
    7.6652   10.0637   -4.9274 H   0  0  0  0  0  0  0  0  0  0  0  0
    5.9514    9.9325   -4.3688 H   0  0  0  0  0  0  0  0  0  0  0  0
    7.3180    9.6564   -3.2013 H   0  0  0  0  0  0  0  0  0  0  0  0
    7.7278    6.4478   -2.5173 H   0  0  0  0  0  0  0  0  0  0  0  0
    6.3165    4.9430   -1.2118 H   0  0  0  0  0  0  0  0  0  0  0  0
    2.9663    2.3710    0.2580 H   0  0  0  0  0  0  0  0  0  0  0  0
    2.8460    2.5350    2.6901 H   0  0  0  0  0  0  0  0  0  0  0  0
    4.0663    5.4272    4.6326 H   0  0  0  0  0  0  0  0  0  0  0  0
    3.4644    3.7423    4.7311 H   0  0  0  0  0  0  0  0  0  0  0  0
    1.6911    6.2261    4.2279 H   0  0  0  0  0  0  0  0  0  0  0  0
    1.1151    4.5207    4.4276 H   0  0  0  0  0  0  0  0  0  0  0  0
    1.9084    5.3861    5.8082 H   0  0  0  0  0  0  0  0  0  0  0  0
    3.8250    6.7230    2.4736 H   0  0  0  0  0  0  0  0  0  0  0  0
    3.9424    6.5865    0.0457 H   0  0  0  0  0  0  0  0  0  0  0  0
    4.0254    0.9745   -4.6716 H   0  0  0  0  0  0  0  0  0  0  0  0
    6.9427    0.3430   -4.8016 H   0  0  0  0  0  0  0  0  0  0  0  0
    9.3598    0.2090   -5.1314 H   0  0  0  0  0  0  0  0  0  0  0  0
   11.4590   -0.9896   -4.8563 H   0  0  0  0  0  0  0  0  0  0  0  0
   11.4974   -2.5305   -3.9466 H   0  0  0  0  0  0  0  0  0  0  0  0
   12.9147   -0.8059   -2.8500 H   0  0  0  0  0  0  0  0  0  0  0  0
   11.4910    0.3001   -2.7055 H   0  0  0  0  0  0  0  0  0  0  0  0
   11.5332   -1.2581   -1.7773 H   0  0  0  0  0  0  0  0  0  0  0  0
    9.5688   -3.0952   -2.3805 H   0  0  0  0  0  0  0  0  0  0  0  0
    7.1619   -2.9681   -2.0247 H   0  0  0  0  0  0  0  0  0  0  0  0
    5.8919   -3.2878   -4.5455 H   0  0  0  0  0  0  0  0  0  0  0  0
    4.5105   -4.3275   -6.2346 H   0  0  0  0  0  0  0  0  0  0  0  0
    2.5977   -3.7565   -7.9291 H   0  0  0  0  0  0  0  0  0  0  0  0
    1.1074   -3.0260   -7.2548 H   0  0  0  0  0  0  0  0  0  0  0  0
    0.8975   -5.4943   -7.4247 H   0  0  0  0  0  0  0  0  0  0  0  0
    2.3434   -5.7189   -6.3759 H   0  0  0  0  0  0  0  0  0  0  0  0
    0.8384   -4.9740   -5.6975 H   0  0  0  0  0  0  0  0  0  0  0  0
    1.2940   -1.6242   -5.3085 H   0  0  0  0  0  0  0  0  0  0  0  0
    2.6570   -0.5766   -3.5906 H   0  0  0  0  0  0  0  0  0  0  0  0
    5.5080    2.5440   -0.1580 H   0  0  0  0  0  0  0  0  0  0  0  0
    2.7735   -3.4116   -2.7793 H   0  0  0  0  0  0  0  0  0  0  0  0
    1.8056   -4.2570   -1.6215 H   0  0  0  0  0  0  0  0  0  0  0  0
    2.3508   -1.2290   -1.3667 H   0  0  0  0  0  0  0  0  0  0  0  0
    1.2237   -2.2226   -0.3717 H   0  0  0  0  0  0  0  0  0  0  0  0
    0.9044   -1.9793   -2.1250 H   0  0  0  0  0  0  0  0  0  0  0  0
    5.5219   -4.9177   -0.7014 H   0  0  0  0  0  0  0  0  0  0  0  0
    5.0100   -4.5550   -2.3765 H   0  0  0  0  0  0  0  0  0  0  0  0
    4.6217   -6.9297   -1.7471 H   0  0  0  0  0  0  0  0  0  0  0  0
    3.0805   -6.1117   -2.1693 H   0  0  0  0  0  0  0  0  0  0  0  0
    3.4986   -6.4289   -0.4325 H   0  0  0  0  0  0  0  0  0  0  0  0
    1.4715   -4.9336    0.5268 H   0  0  0  0  0  0  0  0  0  0  0  0
   -5.1014   -7.5501    4.2981 H   0  0  0  0  0  0  0  0  0  0  0  0
   -5.8995   -8.2084    2.8404 H   0  0  0  0  0  0  0  0  0  0  0  0
   -5.4933   -5.1961    3.4094 H   0  0  0  0  0  0  0  0  0  0  0  0
   -7.0259   -6.1274    3.6093 H   0  0  0  0  0  0  0  0  0  0  0  0
   -6.3136   -5.9134    1.9649 H   0  0  0  0  0  0  0  0  0  0  0  0
   -0.6436   -6.8244   -0.6634 H   0  0  0  0  0  0  0  0  0  0  0  0
   -2.0996   -7.5271   -1.4388 H   0  0  0  0  0  0  0  0  0  0  0  0
   -0.0856   -9.1268    0.2738 H   0  0  0  0  0  0  0  0  0  0  0  0
   -0.1123   -9.0634   -1.5281 H   0  0  0  0  0  0  0  0  0  0  0  0
   -1.5048   -9.7907   -0.6349 H   0  0  0  0  0  0  0  0  0  0  0  0
   -2.0377   -3.1378    6.7770 H   0  0  0  0  0  0  0  0  0  0  0  0
    2.5849   -6.9542    6.7408 H   0  0  0  0  0  0  0  0  0  0  0  0
    5.0312   -6.8558    7.0699 H   0  0  0  0  0  0  0  0  0  0  0  0
    6.9927   -5.8230    8.1345 H   0  0  0  0  0  0  0  0  0  0  0  0
    4.4539   -3.2354   10.4271 H   0  0  0  0  0  0  0  0  0  0  0  0
    2.0173   -3.2704   10.0553 H   0  0  0  0  0  0  0  0  0  0  0  0
  1  2  2  3
  2  3  1  0
  3  4  2  0
  3  5  1  0
  5  6  2  0
  6  7  1  0
  7  8  2  0
  8  9  1  0
  9 10  2  0
 10 11  1  0
 11 12  2  3
 12 13  1  0
 13 14  3  0
 12 15  1  0
 15 16  3  0
  8 17  1  0
 17 18  1  0
 18 19  1  0
 19 20  2  0
 20 21  1  0
 21 22  1  0
 21 23  1  0
  1 24  1  0
 24 25  1  0
 25 26  1  0
 26 27  2  0
 27 28  1  0
 28 29  2  0
 28 30  1  0
 30 31  2  0
 31 32  1  0
 32 33  1  0
 31 34  1  0
 34 35  1  0
 35 36  1  0
 36 37  1  0
 35 38  2  0
 38 39  1  0
 39 40  2  0
 39 41  1  0
 26 42  1  0
 42 43  2  0
 43 44  1  0
 44 45  1  0
 45 46  1  0
 46 47  1  0
 45 48  1  0
 48 49  1  0
 45 50  1  0
 50 51  1  0
 51 52  1  0
 52 53  1  0
 53 54  2  0
 54 55  1  0
 55 56  2  0
 56 57  1  0
 57 58  1  0
 56 59  1  0
 59 60  2  0
 52 61  1  0
 61 62  2  0
 62 63  1  0
 63 64  2  0
 64 65  1  0
 65 66  1  0
 64 67  1  0
 67 68  2  0
 52 69  1  0
 69 70  2  0
 70 71  1  0
 71 72  1  0
 72 73  1  0
 73 74  1  0
 74 75  1  0
 70 76  1  0
 76 77  2  0
 77 78  1  0
 78 79  1  0
 79 80  2  0
 80 81  1  0
 81 82  2  0
 82 83  1  0
 83 84  1  0
 82 85  1  0
 85 86  2  0
 78 87  1  0
 87 88  2  0
 88 89  1  0
 89 90  2  0
 90 91  1  0
 91 92  1  0
 90 93  1  0
 93 94  2  0
 78 95  1  0
 95 96  2  0
 96 97  1  0
 97 98  2  0
 96 99  1  0
 99100  1  0
100101  1  0
101102  2  0
102103  1  0
103104  1  0
103105  1  0
105106  1  0
103107  1  0
107108  1  0
102109  1  0
109110  2  0
110111  1  0
110112  1  0
112113  1  0
113114  1  0
114115  2  0
115116  1  0
116117  2  0
116118  1  0
118119  2  0
119120  1  0
120121  1  0
119122  1  0
122123  1  0
123124  1  0
124125  1  0
123126  2  0
126127  1  0
127128  2  0
127129  1  0
114130  1  0
130131  2  3
131132  1  0
132133  2  0
132134  1  0
134135  2  0
135136  1  0
136137  2  0
137138  1  0
138139  2  0
139140  1  0
139141  1  0
141142  2  0
142143  1  0
143144  2  0
144145  1  0
145146  2  3
146147  1  0
147148  3  0
146149  1  0
149150  3  0
 11  2  1  0
 23 17  1  0
 41 24  2  0
 75 42  1  0
 97 77  1  0
104100  2  0
129112  2  0
145131  1  0
 10  5  1  0
 22 18  1  0
 41 27  1  0
 74 44  2  0
 86 79  1  0
 94 87  1  0
104 95  1  0
129115  1  0
144134  1  0
 23  7  1  0
 38 30  1  0
 73 50  2  0
111101  1  0
126118  1  0
142136  1  0
 71 51  2  0
 60 53  1  0
 68 61  1  0
 98 69  1  0
  1151  1  0
  6152  1  0
  9153  1  0
 17154  1  0
 18155  1  0
 19156  1  0
 20157  1  0
 21158  1  0
 22159  1  0
 22160  1  0
 23161  1  0
 32162  1  0
 32163  1  0
 33164  1  0
 33165  1  0
 33166  1  0
 36167  1  0
 36168  1  0
 37169  1  0
 37170  1  0
 37171  1  0
 43172  1  0
 46173  1  0
 46174  1  0
 47175  1  0
 47176  1  0
 47177  1  0
 48178  1  0
 48179  1  0
 49180  1  0
 49181  1  0
 49182  1  0
 54183  1  0
 55184  1  0
 57185  1  0
 57186  1  0
 58187  1  0
 58188  1  0
 58189  1  0
 59190  1  0
 60191  1  0
 62192  1  0
 63193  1  0
 65194  1  0
 65195  1  0
 66196  1  0
 66197  1  0
 66198  1  0
 67199  1  0
 68200  1  0
 76201  1  0
 80202  1  0
 81203  1  0
 83204  1  0
 83205  1  0
 84206  1  0
 84207  1  0
 84208  1  0
 85209  1  0
 86210  1  0
 88211  1  0
 89212  1  0
 91213  1  0
 91214  1  0
 92215  1  0
 92216  1  0
 92217  1  0
 93218  1  0
 94219  1  0
 98220  1  0
105221  1  0
105222  1  0
106223  1  0
106224  1  0
106225  1  0
107226  1  0
107227  1  0
108228  1  0
108229  1  0
108230  1  0
109231  1  0
120232  1  0
120233  1  0
121234  1  0
121235  1  0
121236  1  0
124237  1  0
124238  1  0
125239  1  0
125240  1  0
125241  1  0
130242  1  0
135243  1  0
137244  1  0
138245  1  0
141246  1  0
143247  1  0
M  END

