
     RDKit          3D

180201  0  0  0  0  0  0  0  0999 V2000
    3.5497   -9.6916    1.4712 C   0  0  0  0  0  0  0  0  0  0  0  0
    3.6274  -10.5124    2.5364 C   0  0  0  0  0  0  0  0  0  0  0  0
    4.2858  -10.1910    3.8081 C   0  0  0  0  0  0  0  0  0  0  0  0
    5.3326   -9.5004    3.9461 O   0  0  0  0  0  0  0  0  0  0  0  0
    3.5303  -10.7930    4.8833 C   0  0  0  0  0  0  0  0  0  0  0  0
    3.6092  -10.4675    6.2561 C   0  0  0  0  0  0  0  0  0  0  0  0
    2.5486  -10.9473    7.0025 C   0  0  0  0  0  0  0  0  0  0  0  0
    1.4749  -11.7133    6.4403 C   0  0  0  0  0  0  0  0  0  0  0  0
    1.4082  -12.0607    5.1000 C   0  0  0  0  0  0  0  0  0  0  0  0
    2.4960  -11.5853    4.3170 C   0  0  0  0  0  0  0  0  0  0  0  0
    2.6419  -11.5846    2.8390 C   0  0  0  0  0  0  0  0  0  0  0  0
    2.1438  -12.4941    1.9717 C   0  0  0  0  0  0  0  0  0  0  0  0
    2.5390  -12.5148    0.5851 C   0  0  0  0  0  0  0  0  0  0  0  0
    2.8504  -12.5369   -0.5291 N   0  0  0  0  0  0  0  0  0  0  0  0
    1.2943  -13.5786    2.3968 C   0  0  0  0  0  0  0  0  0  0  0  0
    0.6151  -14.4550    2.7310 N   0  0  0  0  0  0  0  0  0  0  0  0
    0.7576  -11.7046    7.7586 C   0  0  0  0  0  0  0  0  0  0  0  0
   -0.4714  -10.7525    7.9110 C   0  0  0  0  0  0  0  0  0  0  0  0
   -0.2929   -9.5330    7.0337 C   0  0  0  0  0  0  0  0  0  0  0  0
    0.7095   -8.8283    7.5594 C   0  0  0  0  0  0  0  0  0  0  0  0
    1.1812   -9.5930    8.7750 C   0  0  0  0  0  0  0  0  0  0  0  0
   -0.1546  -10.1273    9.2563 C   0  0  0  0  0  0  0  0  0  0  0  0
    1.8604  -10.9273    8.3360 C   0  0  0  0  0  0  0  0  0  0  0  0
    3.9249   -8.2626    1.5313 C   0  0  0  0  0  0  0  0  0  0  0  0
    3.5623   -7.2671    2.8444 S   0  0  0  0  0  0  0  0  0  0  0  0
    3.9292   -5.8085    2.1196 C   0  0  0  0  0  0  0  0  0  0  0  0
    4.2704   -6.0586    0.7882 C   0  0  0  0  0  0  0  0  0  0  0  0
    4.5090   -5.0247   -0.2421 C   0  0  0  0  0  0  0  0  0  0  0  0
    4.5829   -3.8068    0.0740 O   0  0  0  0  0  0  0  0  0  0  0  0
    4.6487   -5.4549   -1.6532 C   0  0  0  0  0  0  0  0  0  0  0  0
    4.7575   -4.5980   -2.7577 C   0  0  0  0  0  0  0  0  0  0  0  0
    4.7617   -3.0884   -2.7238 C   0  0  0  0  0  0  0  0  0  0  0  0
    4.7506   -2.4418   -4.1073 C   0  0  0  0  0  0  0  0  0  0  0  0
    4.8548   -5.5591   -4.1379 S   0  0  0  0  0  0  0  0  0  0  0  0
    4.7691   -7.0509   -3.3711 C   0  0  0  0  0  0  0  0  0  0  0  0
    4.6919   -8.3531   -4.1118 C   0  0  0  0  0  0  0  0  0  0  0  0
    3.2407   -8.7838   -4.2956 C   0  0  0  0  0  0  0  0  0  0  0  0
    4.6474   -6.8272   -1.9935 C   0  0  0  0  0  0  0  0  0  0  0  0
    4.4912   -7.8667   -0.9428 C   0  0  0  0  0  0  0  0  0  0  0  0
    4.5585   -9.0935   -1.2259 O   0  0  0  0  0  0  0  0  0  0  0  0
    4.2572   -7.4296    0.4532 C   0  0  0  0  0  0  0  0  0  0  0  0
    3.5857   -4.5125    2.7072 C   0  0  0  0  0  0  0  0  0  0  0  0
    4.4901   -3.5119    3.1120 C   0  0  0  0  0  0  0  0  0  0  0  0
    5.9617   -3.6789    3.1154 C   0  0  0  0  0  0  0  0  0  0  0  0
    6.5333   -4.8526    3.6338 C   0  0  0  0  0  0  0  0  0  0  0  0
    7.9105   -5.0617    3.5531 C   0  0  0  0  0  0  0  0  0  0  0  0
    8.7352   -4.0948    2.9713 C   0  0  0  0  0  0  0  0  0  0  0  0
    8.1833   -2.9052    2.4712 C   0  0  0  0  0  0  0  0  0  0  0  0
    9.0617   -1.8773    1.8096 C   0  0  0  0  0  0  0  0  0  0  0  0
    9.0051   -2.0131    0.2931 C   0  0  0  0  0  0  0  0  0  0  0  0
    6.7939   -2.7095    2.5321 C   0  0  0  0  0  0  0  0  0  0  0  0
    3.8024   -2.3190    3.3783 C   0  0  0  0  0  0  0  0  0  0  0  0
    4.2909   -0.7149    3.6809 S   0  0  0  0  0  0  0  0  0  0  0  0
    2.6923   -0.1467    3.5708 C   0  0  0  0  0  0  0  0  0  0  0  0
    2.1327    1.0282    3.1455 C   0  0  0  0  0  0  0  0  0  0  0  0
    2.7443    2.2588    2.8569 C   0  0  0  0  0  0  0  0  0  0  0  0
    2.0431    3.2092    2.0590 C   0  0  0  0  0  0  0  0  0  0  0  0
    2.6889    4.3614    1.7573 N   0  0  0  0  0  0  0  0  0  0  0  0
    4.1279    4.0793    2.5265 S   0  0  0  0  0  0  0  0  0  0  0  0
    4.0075    2.5843    3.2280 N   0  0  0  0  0  0  0  0  0  0  0  0
    0.7603    2.8862    1.6142 C   0  0  0  0  0  0  0  0  0  0  0  0
   -0.1401    3.5718    0.8571 C   0  0  0  0  0  0  0  0  0  0  0  0
   -0.2770    5.0626    0.0546 S   0  0  0  0  0  0  0  0  0  0  0  0
   -1.8692    4.6636   -0.4151 C   0  0  0  0  0  0  0  0  0  0  0  0
   -2.8059    5.2920   -1.2257 C   0  0  0  0  0  0  0  0  0  0  0  0
   -2.6496    6.6328   -1.8126 C   0  0  0  0  0  0  0  0  0  0  0  0
   -2.4518    6.7748   -3.1926 C   0  0  0  0  0  0  0  0  0  0  0  0
   -2.4502    8.0454   -3.7716 C   0  0  0  0  0  0  0  0  0  0  0  0
   -2.6736    9.1782   -2.9821 C   0  0  0  0  0  0  0  0  0  0  0  0
   -2.8914    9.0457   -1.6028 C   0  0  0  0  0  0  0  0  0  0  0  0
   -3.1651   10.2575   -0.7554 C   0  0  0  0  0  0  0  0  0  0  0  0
   -1.9004   10.7159   -0.0415 C   0  0  0  0  0  0  0  0  0  0  0  0
   -2.8510    7.7701   -1.0173 C   0  0  0  0  0  0  0  0  0  0  0  0
   -3.9478    4.4908   -1.3906 C   0  0  0  0  0  0  0  0  0  0  0  0
   -3.7813    3.0316   -0.5306 S   0  0  0  0  0  0  0  0  0  0  0  0
   -2.2585    3.4343    0.0562 C   0  0  0  0  0  0  0  0  0  0  0  0
   -1.2587    2.8124    0.7836 C   0  0  0  0  0  0  0  0  0  0  0  0
   -1.1688    1.6525    1.4828 N   0  0  0  0  0  0  0  0  0  0  0  0
    0.1273    1.6771    1.9372 C   0  0  0  0  0  0  0  0  0  0  0  0
    0.8626    0.6899    2.6433 C   0  0  0  0  0  0  0  0  0  0  0  0
    0.6964   -0.6716    2.6345 N   0  0  0  0  0  0  0  0  0  0  0  0
    1.8168   -1.1387    3.2485 C   0  0  0  0  0  0  0  0  0  0  0  0
    2.4482   -2.3759    3.1666 C   0  0  0  0  0  0  0  0  0  0  0  0
    2.0068   -3.9030    2.6443 S   0  0  0  0  0  0  0  0  0  0  0  0
   -0.0546   -1.4491    1.6384 C   0  0  0  0  0  0  0  0  0  0  0  0
    0.6370   -1.4182    0.2736 C   0  0  0  0  0  0  0  0  0  0  0  0
   -2.3102    1.0376    2.1801 C   0  0  0  0  0  0  0  0  0  0  0  0
   -3.2320    0.2671    1.2257 C   0  0  0  0  0  0  0  0  0  0  0  0
   -5.1247    4.8873   -2.1669 C   0  0  0  0  0  0  0  0  0  0  0  0
   -5.2626    4.5745   -3.8099 S   0  0  0  0  0  0  0  0  0  0  0  0
   -6.3421    5.8122   -4.1726 C   0  0  0  0  0  0  0  0  0  0  0  0
   -6.5639    6.5497   -2.9995 C   0  0  0  0  0  0  0  0  0  0  0  0
   -7.2124    7.8822   -2.9055 C   0  0  0  0  0  0  0  0  0  0  0  0
   -7.7652    8.3996   -3.9086 O   0  0  0  0  0  0  0  0  0  0  0  0
   -7.1560    8.6154   -1.6158 C   0  0  0  0  0  0  0  0  0  0  0  0
   -7.6114    9.9220   -1.3862 C   0  0  0  0  0  0  0  0  0  0  0  0
   -8.1878   10.8942   -2.3712 C   0  0  0  0  0  0  0  0  0  0  0  0
   -7.0890   11.5374   -3.2119 C   0  0  0  0  0  0  0  0  0  0  0  0
   -7.2427   10.3299    0.1989 S   0  0  0  0  0  0  0  0  0  0  0  0
   -6.5476    8.8616    0.6505 C   0  0  0  0  0  0  0  0  0  0  0  0
   -5.8768    8.5864    1.9755 C   0  0  0  0  0  0  0  0  0  0  0  0
   -6.3701    9.4986    3.0948 C   0  0  0  0  0  0  0  0  0  0  0  0
   -6.5526    8.0311   -0.4800 C   0  0  0  0  0  0  0  0  0  0  0  0
   -5.9478    6.6833   -0.5667 C   0  0  0  0  0  0  0  0  0  0  0  0
   -5.4711    6.1163    0.4515 O   0  0  0  0  0  0  0  0  0  0  0  0
   -5.9042    6.0093   -1.8805 C   0  0  0  0  0  0  0  0  0  0  0  0
   -6.7120    6.1806   -5.5471 C   0  0  0  0  0  0  0  0  0  0  0  0
   -7.9855    6.4875   -6.0106 C   0  0  0  0  0  0  0  0  0  0  0  0
   -8.0062    6.8850   -7.3543 C   0  0  0  0  0  0  0  0  0  0  0  0
   -6.7503    6.8649   -7.9623 C   0  0  0  0  0  0  0  0  0  0  0  0
   -6.4020    7.3264   -9.3310 C   0  0  0  0  0  0  0  0  0  0  0  0
   -7.1948    7.1279  -10.4103 C   0  0  0  0  0  0  0  0  0  0  0  0
   -8.4166    6.3668  -10.3466 C   0  0  0  0  0  0  0  0  0  0  0  0
   -9.3989    5.7554  -10.3076 N   0  0  0  0  0  0  0  0  0  0  0  0
   -6.8205    7.6258  -11.7154 C   0  0  0  0  0  0  0  0  0  0  0  0
   -6.5220    8.0245  -12.7592 N   0  0  0  0  0  0  0  0  0  0  0  0
   -5.1307    8.0028   -9.4828 C   0  0  0  0  0  0  0  0  0  0  0  0
   -4.1103    8.5392   -9.5939 N   0  0  0  0  0  0  0  0  0  0  0  0
   -5.6206    6.3785   -6.8077 S   0  0  0  0  0  0  0  0  0  0  0  0
    2.9605   -9.9825    0.6118 H   0  0  0  0  0  0  0  0  0  0  0  0
    4.3625   -9.8089    6.6714 H   0  0  0  0  0  0  0  0  0  0  0  0
    0.5384  -12.5531    4.6922 H   0  0  0  0  0  0  0  0  0  0  0  0
    0.6317  -12.7123    8.2137 H   0  0  0  0  0  0  0  0  0  0  0  0
   -1.4621  -11.2442    7.8367 H   0  0  0  0  0  0  0  0  0  0  0  0
   -0.8961   -9.2416    6.1826 H   0  0  0  0  0  0  0  0  0  0  0  0
    1.0606   -7.8596    7.2113 H   0  0  0  0  0  0  0  0  0  0  0  0
    1.7503   -8.9912    9.5162 H   0  0  0  0  0  0  0  0  0  0  0  0
   -0.8689   -9.3220    9.5497 H   0  0  0  0  0  0  0  0  0  0  0  0
   -0.0654  -10.8687   10.0844 H   0  0  0  0  0  0  0  0  0  0  0  0
    2.4149  -11.4610    9.1394 H   0  0  0  0  0  0  0  0  0  0  0  0
    3.8603   -2.7382   -2.1758 H   0  0  0  0  0  0  0  0  0  0  0  0
    5.6650   -2.7443   -2.1762 H   0  0  0  0  0  0  0  0  0  0  0  0
    3.8513   -2.7615   -4.6767 H   0  0  0  0  0  0  0  0  0  0  0  0
    5.6682   -2.7109   -4.6742 H   0  0  0  0  0  0  0  0  0  0  0  0
    4.7212   -1.3366   -3.9963 H   0  0  0  0  0  0  0  0  0  0  0  0
    5.2689   -9.1412   -3.5866 H   0  0  0  0  0  0  0  0  0  0  0  0
    5.1546   -8.2272   -5.1141 H   0  0  0  0  0  0  0  0  0  0  0  0
    2.7600   -8.9716   -3.3110 H   0  0  0  0  0  0  0  0  0  0  0  0
    2.6729   -7.9950   -4.8359 H   0  0  0  0  0  0  0  0  0  0  0  0
    3.2013   -9.7157   -4.8975 H   0  0  0  0  0  0  0  0  0  0  0  0
    5.9127   -5.6138    4.0923 H   0  0  0  0  0  0  0  0  0  0  0  0
    8.3392   -5.9794    3.9353 H   0  0  0  0  0  0  0  0  0  0  0  0
    9.7985   -4.2801    2.9063 H   0  0  0  0  0  0  0  0  0  0  0  0
    8.7269   -0.8591    2.0999 H   0  0  0  0  0  0  0  0  0  0  0  0
   10.1169   -1.9887    2.1500 H   0  0  0  0  0  0  0  0  0  0  0  0
    7.9706   -1.8311   -0.0724 H   0  0  0  0  0  0  0  0  0  0  0  0
    9.6807   -1.2634   -0.1741 H   0  0  0  0  0  0  0  0  0  0  0  0
    9.3251   -3.0306   -0.0123 H   0  0  0  0  0  0  0  0  0  0  0  0
    6.3636   -1.8233    2.0833 H   0  0  0  0  0  0  0  0  0  0  0  0
   -2.3084    5.9029   -3.8185 H   0  0  0  0  0  0  0  0  0  0  0  0
   -2.2917    8.1511   -4.8386 H   0  0  0  0  0  0  0  0  0  0  0  0
   -2.6810   10.1581   -3.4437 H   0  0  0  0  0  0  0  0  0  0  0  0
   -3.9469   10.0237   -0.0023 H   0  0  0  0  0  0  0  0  0  0  0  0
   -3.5541   11.0890   -1.3816 H   0  0  0  0  0  0  0  0  0  0  0  0
   -1.5281    9.9119    0.6294 H   0  0  0  0  0  0  0  0  0  0  0  0
   -2.1209   11.6114    0.5739 H   0  0  0  0  0  0  0  0  0  0  0  0
   -1.1144   10.9767   -0.7804 H   0  0  0  0  0  0  0  0  0  0  0  0
   -3.0265    7.6572    0.0480 H   0  0  0  0  0  0  0  0  0  0  0  0
   -0.1864   -2.4949    1.9777 H   0  0  0  0  0  0  0  0  0  0  0  0
   -1.0706   -1.0753    1.5207 H   0  0  0  0  0  0  0  0  0  0  0  0
    0.6847   -0.3754   -0.1039 H   0  0  0  0  0  0  0  0  0  0  0  0
    1.6693   -1.8240    0.3462 H   0  0  0  0  0  0  0  0  0  0  0  0
    0.0570   -2.0311   -0.4467 H   0  0  0  0  0  0  0  0  0  0  0  0
   -1.9518    0.3629    2.9867 H   0  0  0  0  0  0  0  0  0  0  0  0
   -2.8930    1.8294    2.6974 H   0  0  0  0  0  0  0  0  0  0  0  0
   -3.4420   -0.7430    1.6391 H   0  0  0  0  0  0  0  0  0  0  0  0
   -4.2041    0.7894    1.1269 H   0  0  0  0  0  0  0  0  0  0  0  0
   -2.7727    0.1492    0.2218 H   0  0  0  0  0  0  0  0  0  0  0  0
   -8.7347   11.6907   -1.8225 H   0  0  0  0  0  0  0  0  0  0  0  0
   -8.9277   10.3858   -3.0244 H   0  0  0  0  0  0  0  0  0  0  0  0
   -7.5479   12.2373   -3.9404 H   0  0  0  0  0  0  0  0  0  0  0  0
   -6.3885   12.1026   -2.5610 H   0  0  0  0  0  0  0  0  0  0  0  0
   -6.5216   10.7650   -3.7705 H   0  0  0  0  0  0  0  0  0  0  0  0
   -4.7780    8.7144    1.8614 H   0  0  0  0  0  0  0  0  0  0  0  0
   -6.0767    7.5454    2.2892 H   0  0  0  0  0  0  0  0  0  0  0  0
   -6.1437   10.5577    2.8690 H   0  0  0  0  0  0  0  0  0  0  0  0
   -5.8629    9.2262    4.0450 H   0  0  0  0  0  0  0  0  0  0  0  0
   -7.4656    9.3763    3.2320 H   0  0  0  0  0  0  0  0  0  0  0  0
   -8.8711    6.4452   -5.3887 H   0  0  0  0  0  0  0  0  0  0  0  0
   -8.9104    7.2232   -7.8416 H   0  0  0  0  0  0  0  0  0  0  0  0
  1  2  2  3
  2  3  1  0
  3  4  2  0
  3  5  1  0
  5  6  2  0
  6  7  1  0
  7  8  2  0
  8  9  1  0
  9 10  2  0
 10 11  1  0
 11 12  2  3
 12 13  1  0
 13 14  3  0
 12 15  1  0
 15 16  3  0
  8 17  1  0
 17 18  1  0
 18 19  1  0
 19 20  2  0
 20 21  1  0
 21 22  1  0
 21 23  1  0
  1 24  1  0
 24 25  1  0
 25 26  1  0
 26 27  2  0
 27 28  1  0
 28 29  2  0
 28 30  1  0
 30 31  2  0
 31 32  1  0
 32 33  1  0
 31 34  1  0
 34 35  1  0
 35 36  1  0
 36 37  1  0
 35 38  2  0
 38 39  1  0
 39 40  2  0
 39 41  1  0
 26 42  1  0
 42 43  2  0
 43 44  1  0
 44 45  2  0
 45 46  1  0
 46 47  2  0
 47 48  1  0
 48 49  1  0
 49 50  1  0
 48 51  2  0
 43 52  1  0
 52 53  1  0
 53 54  1  0
 54 55  1  0
 55 56  1  0
 56 57  1  0
 57 58  2  0
 58 59  1  0
 59 60  1  0
 57 61  1  0
 61 62  1  0
 62 63  1  0
 63 64  1  0
 64 65  1  0
 65 66  1  0
 66 67  2  0
 67 68  1  0
 68 69  2  0
 69 70  1  0
 70 71  1  0
 71 72  1  0
 70 73  2  0
 65 74  2  0
 74 75  1  0
 75 76  1  0
 76 77  1  0
 77 78  1  0
 78 79  1  0
 79 80  1  0
 80 81  1  0
 81 82  1  0
 82 83  1  0
 83 84  1  0
 81 85  1  0
 85 86  1  0
 78 87  1  0
 87 88  1  0
 74 89  1  0
 89 90  1  0
 90 91  1  0
 91 92  2  0
 92 93  1  0
 93 94  2  0
 93 95  1  0
 95 96  2  0
 96 97  1  0
 97 98  1  0
 96 99  1  0
 99100  1  0
100101  1  0
101102  1  0
100103  2  0
103104  1  0
104105  2  0
104106  1  0
 91107  1  0
107108  2  0
108109  1  0
109110  2  0
110111  1  0
111112  2  3
112113  1  0
113114  3  0
112115  1  0
115116  3  0
111117  1  0
117118  3  0
110119  1  0
 11  2  1  0
 23 17  1  0
 41 24  2  0
 84 42  1  0
106 89  2  0
119107  1  0
 10  5  1  0
 22 18  1  0
 41 27  1  0
 51 44  1  0
 83 52  2  0
106 92  1  0
 23  7  1  0
 38 30  1  0
 82 54  2  0
103 95  1  0
 80 55  2  0
 60 56  2  0
 79 61  2  0
 77 62  2  0
 76 64  2  0
 73 66  1  0
  1120  1  0
  6121  1  0
  9122  1  0
 17123  1  0
 18124  1  0
 19125  1  0
 20126  1  0
 21127  1  0
 22128  1  0
 22129  1  0
 23130  1  0
 32131  1  0
 32132  1  0
 33133  1  0
 33134  1  0
 33135  1  0
 36136  1  0
 36137  1  0
 37138  1  0
 37139  1  0
 37140  1  0
 45141  1  0
 46142  1  0
 47143  1  0
 49144  1  0
 49145  1  0
 50146  1  0
 50147  1  0
 50148  1  0
 51149  1  0
 67150  1  0
 68151  1  0
 69152  1  0
 71153  1  0
 71154  1  0
 72155  1  0
 72156  1  0
 72157  1  0
 73158  1  0
 85159  1  0
 85160  1  0
 86161  1  0
 86162  1  0
 86163  1  0
 87164  1  0
 87165  1  0
 88166  1  0
 88167  1  0
 88168  1  0
 97169  1  0
 97170  1  0
 98171  1  0
 98172  1  0
 98173  1  0
101174  1  0
101175  1  0
102176  1  0
102177  1  0
102178  1  0
108179  1  0
109180  1  0
M  END

