
     RDKit          3D

196219  0  0  0  0  0  0  0  0999 V2000
    0.4932    3.0491  -10.5060 C   0  0  0  0  0  0  0  0  0  0  0  0
   -0.2437    2.0369   -9.9969 C   0  0  0  0  0  0  0  0  0  0  0  0
    0.0976    1.2124   -8.8287 C   0  0  0  0  0  0  0  0  0  0  0  0
    0.7608    1.5799   -7.8211 O   0  0  0  0  0  0  0  0  0  0  0  0
   -0.5544   -0.0700   -8.9629 C   0  0  0  0  0  0  0  0  0  0  0  0
   -0.2699   -1.2467   -8.2343 C   0  0  0  0  0  0  0  0  0  0  0  0
   -0.9176   -2.3682   -8.7169 C   0  0  0  0  0  0  0  0  0  0  0  0
   -1.8059   -2.3380   -9.8415 C   0  0  0  0  0  0  0  0  0  0  0  0
   -2.0843   -1.1885  -10.5633 C   0  0  0  0  0  0  0  0  0  0  0  0
   -1.4267   -0.0215  -10.0812 C   0  0  0  0  0  0  0  0  0  0  0  0
   -1.3781    1.3406  -10.6755 C   0  0  0  0  0  0  0  0  0  0  0  0
   -2.3351    1.9168  -11.4467 C   0  0  0  0  0  0  0  0  0  0  0  0
   -2.3241    3.3205  -11.7667 C   0  0  0  0  0  0  0  0  0  0  0  0
   -2.3177    4.4475  -12.0271 N   0  0  0  0  0  0  0  0  0  0  0  0
   -3.5093    1.2008  -11.8701 C   0  0  0  0  0  0  0  0  0  0  0  0
   -4.4610    0.6369  -12.2124 N   0  0  0  0  0  0  0  0  0  0  0  0
   -1.9922   -3.8252   -9.7524 C   0  0  0  0  0  0  0  0  0  0  0  0
   -1.2842   -4.7088  -10.8270 C   0  0  0  0  0  0  0  0  0  0  0  0
   -0.0196   -4.0278  -11.2992 C   0  0  0  0  0  0  0  0  0  0  0  0
    0.8267   -4.0442  -10.2691 C   0  0  0  0  0  0  0  0  0  0  0  0
    0.1111   -4.7406   -9.1292 C   0  0  0  0  0  0  0  0  0  0  0  0
   -0.6652   -5.7679   -9.9310 C   0  0  0  0  0  0  0  0  0  0  0  0
   -1.0665   -3.8557   -8.6132 C   0  0  0  0  0  0  0  0  0  0  0  0
    1.7562    3.5426   -9.9134 C   0  0  0  0  0  0  0  0  0  0  0  0
    2.7622    2.6471   -9.4972 C   0  0  0  0  0  0  0  0  0  0  0  0
    3.8571    3.1506   -8.8031 C   0  0  0  0  0  0  0  0  0  0  0  0
    4.7985    2.4337   -7.9543 C   0  0  0  0  0  0  0  0  0  0  0  0
    4.9096    1.1830   -7.8416 O   0  0  0  0  0  0  0  0  0  0  0  0
    5.5095    3.4403   -7.1791 C   0  0  0  0  0  0  0  0  0  0  0  0
    5.0688    4.6906   -7.5824 C   0  0  0  0  0  0  0  0  0  0  0  0
    4.0147    4.5075   -8.5854 C   0  0  0  0  0  0  0  0  0  0  0  0
    3.0742    5.4232   -9.0586 C   0  0  0  0  0  0  0  0  0  0  0  0
    1.9445    4.9338   -9.7375 C   0  0  0  0  0  0  0  0  0  0  0  0
    5.4379    5.8408   -6.8874 C   0  0  0  0  0  0  0  0  0  0  0  0
    6.2213    5.7004   -5.7286 C   0  0  0  0  0  0  0  0  0  0  0  0
    6.5855    4.4185   -5.2580 C   0  0  0  0  0  0  0  0  0  0  0  0
    6.2272    3.2738   -5.9977 C   0  0  0  0  0  0  0  0  0  0  0  0
    6.9158    4.2613   -3.8364 C   0  0  0  0  0  0  0  0  0  0  0  0
    8.1114    3.7928   -3.2381 C   0  0  0  0  0  0  0  0  0  0  0  0
    9.4087    3.6043   -3.9316 C   0  0  0  0  0  0  0  0  0  0  0  0
   10.5695    4.2037   -3.4123 C   0  0  0  0  0  0  0  0  0  0  0  0
   11.7791    4.1255   -4.1083 C   0  0  0  0  0  0  0  0  0  0  0  0
   11.8433    3.4601   -5.3357 C   0  0  0  0  0  0  0  0  0  0  0  0
   10.6974    2.8554   -5.8687 C   0  0  0  0  0  0  0  0  0  0  0  0
   10.7539    2.1671   -7.2077 C   0  0  0  0  0  0  0  0  0  0  0  0
   11.3362    0.7656   -7.0844 C   0  0  0  0  0  0  0  0  0  0  0  0
    9.4942    2.9003   -5.1450 C   0  0  0  0  0  0  0  0  0  0  0  0
    7.9424    3.6952   -1.8477 C   0  0  0  0  0  0  0  0  0  0  0  0
    8.8597    3.0183   -0.5780 S   0  0  0  0  0  0  0  0  0  0  0  0
    7.6155    3.3094    0.5497 C   0  0  0  0  0  0  0  0  0  0  0  0
    7.1998    2.7793    1.7482 C   0  0  0  0  0  0  0  0  0  0  0  0
    7.7476    1.7589    2.5461 C   0  0  0  0  0  0  0  0  0  0  0  0
    6.9204    1.1348    3.5356 C   0  0  0  0  0  0  0  0  0  0  0  0
    7.4631    0.1115    4.2388 N   0  0  0  0  0  0  0  0  0  0  0  0
    8.9660    0.0634    3.5383 S   0  0  0  0  0  0  0  0  0  0  0  0
    8.9960    1.2533    2.3850 N   0  0  0  0  0  0  0  0  0  0  0  0
    5.6151    1.6068    3.7136 C   0  0  0  0  0  0  0  0  0  0  0  0
    4.5798    1.2270    4.5332 C   0  0  0  0  0  0  0  0  0  0  0  0
    4.1265   -0.0444    5.5683 S   0  0  0  0  0  0  0  0  0  0  0  0
    2.5306    0.5757    5.6784 C   0  0  0  0  0  0  0  0  0  0  0  0
    1.3268    0.0758    6.1825 C   0  0  0  0  0  0  0  0  0  0  0  0
    1.1696   -1.2164    6.8804 C   0  0  0  0  0  0  0  0  0  0  0  0
    1.7082   -2.3960    6.3408 C   0  0  0  0  0  0  0  0  0  0  0  0
    1.4786   -3.6243    6.9658 C   0  0  0  0  0  0  0  0  0  0  0  0
    0.7036   -3.6900    8.1280 C   0  0  0  0  0  0  0  0  0  0  0  0
    0.1605   -2.5193    8.6817 C   0  0  0  0  0  0  0  0  0  0  0  0
   -0.7110   -2.5823    9.9097 C   0  0  0  0  0  0  0  0  0  0  0  0
   -2.1723   -2.3216    9.5557 C   0  0  0  0  0  0  0  0  0  0  0  0
    0.4034   -1.2855    8.0544 C   0  0  0  0  0  0  0  0  0  0  0  0
    0.2443    0.9012    5.8126 C   0  0  0  0  0  0  0  0  0  0  0  0
    0.7905    2.1844    4.8350 S   0  0  0  0  0  0  0  0  0  0  0  0
    2.3955    1.7276    4.9470 C   0  0  0  0  0  0  0  0  0  0  0  0
    3.5550    2.0786    4.2880 C   0  0  0  0  0  0  0  0  0  0  0  0
    3.8399    3.0059    3.3483 N   0  0  0  0  0  0  0  0  0  0  0  0
    5.0969    2.6555    2.9432 C   0  0  0  0  0  0  0  0  0  0  0  0
    5.8530    3.1597    1.8671 C   0  0  0  0  0  0  0  0  0  0  0  0
    5.3895    3.7156    0.7059 N   0  0  0  0  0  0  0  0  0  0  0  0
    6.5173    3.8574   -0.0359 C   0  0  0  0  0  0  0  0  0  0  0  0
    6.7016    4.0580   -1.3920 C   0  0  0  0  0  0  0  0  0  0  0  0
    5.7268    4.5224   -2.6557 S   0  0  0  0  0  0  0  0  0  0  0  0
    4.0683    3.4448    0.1097 C   0  0  0  0  0  0  0  0  0  0  0  0
    4.0385    2.0620   -0.5480 C   0  0  0  0  0  0  0  0  0  0  0  0
    3.1958    4.3231    3.2335 C   0  0  0  0  0  0  0  0  0  0  0  0
    3.3186    5.1081    4.5370 C   0  0  0  0  0  0  0  0  0  0  0  0
   -1.1545    0.4740    5.8130 C   0  0  0  0  0  0  0  0  0  0  0  0
   -1.7151   -0.3448    4.8430 C   0  0  0  0  0  0  0  0  0  0  0  0
   -3.0707   -0.6123    5.0734 C   0  0  0  0  0  0  0  0  0  0  0  0
   -3.9163   -1.3717    4.2412 C   0  0  0  0  0  0  0  0  0  0  0  0
   -3.4284   -1.9991    3.0032 C   0  0  0  0  0  0  0  0  0  0  0  0
   -3.9604   -1.6172    1.4527 S   0  0  0  0  0  0  0  0  0  0  0  0
   -2.9336   -2.6805    0.6485 C   0  0  0  0  0  0  0  0  0  0  0  0
   -2.9020   -2.8868   -0.8326 C   0  0  0  0  0  0  0  0  0  0  0  0
   -4.0030   -3.8473   -1.2610 C   0  0  0  0  0  0  0  0  0  0  0  0
   -2.1740   -3.3647    1.5922 C   0  0  0  0  0  0  0  0  0  0  0  0
   -1.2629   -4.3154    1.2738 F   0  0  0  0  0  0  0  0  0  0  0  0
   -2.4427   -2.9765    2.9078 C   0  0  0  0  0  0  0  0  0  0  0  0
   -1.8185   -3.5146    3.9833 F   0  0  0  0  0  0  0  0  0  0  0  0
   -5.2552   -1.4917    4.6347 C   0  0  0  0  0  0  0  0  0  0  0  0
   -5.7502   -0.9139    5.8103 C   0  0  0  0  0  0  0  0  0  0  0  0
   -4.9132   -0.1278    6.6357 C   0  0  0  0  0  0  0  0  0  0  0  0
   -5.4224    0.5463    7.8505 C   0  0  0  0  0  0  0  0  0  0  0  0
   -4.7218    0.4708    9.3823 S   0  0  0  0  0  0  0  0  0  0  0  0
   -5.8516    1.4504   10.1536 C   0  0  0  0  0  0  0  0  0  0  0  0
   -5.7787    1.9014   11.5805 C   0  0  0  0  0  0  0  0  0  0  0  0
   -5.0906    3.2565   11.6719 C   0  0  0  0  0  0  0  0  0  0  0  0
   -6.7870    1.8640    9.2139 C   0  0  0  0  0  0  0  0  0  0  0  0
   -6.5486    1.3616    7.9300 C   0  0  0  0  0  0  0  0  0  0  0  0
   -7.3166    1.6868    6.8615 F   0  0  0  0  0  0  0  0  0  0  0  0
   -7.8129    2.7012    9.5000 F   0  0  0  0  0  0  0  0  0  0  0  0
   -3.5680   -0.0035    6.2331 C   0  0  0  0  0  0  0  0  0  0  0  0
   -2.3255    0.8849    6.9544 S   0  0  0  0  0  0  0  0  0  0  0  0
   -7.0919   -1.2541    6.0586 C   0  0  0  0  0  0  0  0  0  0  0  0
   -7.6291   -2.0741    5.0710 C   0  0  0  0  0  0  0  0  0  0  0  0
   -6.4676   -2.4003    3.8982 S   0  0  0  0  0  0  0  0  0  0  0  0
   -8.9602   -2.6893    5.1189 C   0  0  0  0  0  0  0  0  0  0  0  0
   -9.1854   -3.9147    5.6358 C   0  0  0  0  0  0  0  0  0  0  0  0
  -10.5492   -4.4967    5.6154 C   0  0  0  0  0  0  0  0  0  0  0  0
  -11.4687   -3.9312    4.9592 O   0  0  0  0  0  0  0  0  0  0  0  0
  -10.8188   -5.7230    6.3261 N   0  0  0  0  0  0  0  0  0  0  0  0
  -12.0081   -6.5215    5.9905 C   0  0  0  0  0  0  0  0  0  0  0  0
  -11.7081   -7.4338    4.8031 C   0  0  0  0  0  0  0  0  0  0  0  0
   -9.8313   -6.2500    7.2361 C   0  0  0  0  0  0  0  0  0  0  0  0
  -10.0538   -7.3101    7.8786 O   0  0  0  0  0  0  0  0  0  0  0  0
   -8.5457   -5.5107    7.4826 C   0  0  0  0  0  0  0  0  0  0  0  0
   -8.7389   -4.5555    8.5863 C   0  0  0  0  0  0  0  0  0  0  0  0
   -8.8795   -3.8012    9.4525 N   0  0  0  0  0  0  0  0  0  0  0  0
   -8.0680   -4.7759    6.2110 C   0  0  0  0  0  0  0  0  0  0  0  0
   -7.5774   -5.7722    5.1492 C   0  0  0  0  0  0  0  0  0  0  0  0
    0.1818    3.5359  -11.4176 H   0  0  0  0  0  0  0  0  0  0  0  0
    0.4408   -1.2854   -7.4208 H   0  0  0  0  0  0  0  0  0  0  0  0
   -2.6806   -1.2244  -11.4606 H   0  0  0  0  0  0  0  0  0  0  0  0
   -3.0285   -4.1424   -9.4940 H   0  0  0  0  0  0  0  0  0  0  0  0
   -1.9415   -5.0920  -11.6340 H   0  0  0  0  0  0  0  0  0  0  0  0
    0.1990   -3.6616  -12.2981 H   0  0  0  0  0  0  0  0  0  0  0  0
    1.8557   -3.6976  -10.2859 H   0  0  0  0  0  0  0  0  0  0  0  0
    0.7776   -5.1541   -8.3422 H   0  0  0  0  0  0  0  0  0  0  0  0
   -1.4142   -6.3328   -9.3256 H   0  0  0  0  0  0  0  0  0  0  0  0
   -0.0138   -6.4882  -10.4833 H   0  0  0  0  0  0  0  0  0  0  0  0
   -1.5326   -4.2017   -7.6648 H   0  0  0  0  0  0  0  0  0  0  0  0
    2.6572    1.5793   -9.6297 H   0  0  0  0  0  0  0  0  0  0  0  0
    3.1742    6.4790   -8.8503 H   0  0  0  0  0  0  0  0  0  0  0  0
    1.1890    5.6337  -10.0721 H   0  0  0  0  0  0  0  0  0  0  0  0
    5.0555    6.8107   -7.1767 H   0  0  0  0  0  0  0  0  0  0  0  0
    6.4361    6.5784   -5.1305 H   0  0  0  0  0  0  0  0  0  0  0  0
    6.3764    2.2781   -5.5959 H   0  0  0  0  0  0  0  0  0  0  0  0
   10.5319    4.7609   -2.4869 H   0  0  0  0  0  0  0  0  0  0  0  0
   12.6649    4.5961   -3.7041 H   0  0  0  0  0  0  0  0  0  0  0  0
   12.7816    3.4280   -5.8751 H   0  0  0  0  0  0  0  0  0  0  0  0
   11.3741    2.7644   -7.9080 H   0  0  0  0  0  0  0  0  0  0  0  0
    9.7370    2.0974   -7.6501 H   0  0  0  0  0  0  0  0  0  0  0  0
   11.3938    0.3015   -8.0914 H   0  0  0  0  0  0  0  0  0  0  0  0
   12.3612    0.8050   -6.6543 H   0  0  0  0  0  0  0  0  0  0  0  0
   10.6865    0.1348   -6.4388 H   0  0  0  0  0  0  0  0  0  0  0  0
    8.6359    2.3786   -5.5342 H   0  0  0  0  0  0  0  0  0  0  0  0
    2.2813   -2.3730    5.4212 H   0  0  0  0  0  0  0  0  0  0  0  0
    1.8889   -4.5354    6.5430 H   0  0  0  0  0  0  0  0  0  0  0  0
    0.5218   -4.6513    8.5900 H   0  0  0  0  0  0  0  0  0  0  0  0
   -0.3732   -1.8209   10.6451 H   0  0  0  0  0  0  0  0  0  0  0  0
   -0.6310   -3.5767   10.3966 H   0  0  0  0  0  0  0  0  0  0  0  0
   -2.2866   -1.3034    9.1343 H   0  0  0  0  0  0  0  0  0  0  0  0
   -2.7987   -2.3940   10.4693 H   0  0  0  0  0  0  0  0  0  0  0  0
   -2.5324   -3.0668    8.8166 H   0  0  0  0  0  0  0  0  0  0  0  0
   -0.0099   -0.3805    8.4793 H   0  0  0  0  0  0  0  0  0  0  0  0
    3.8146    4.2234   -0.6372 H   0  0  0  0  0  0  0  0  0  0  0  0
    3.2636    3.4594    0.8555 H   0  0  0  0  0  0  0  0  0  0  0  0
    4.5021    1.3105    0.1235 H   0  0  0  0  0  0  0  0  0  0  0  0
    4.5918    2.0727   -1.5066 H   0  0  0  0  0  0  0  0  0  0  0  0
    2.9911    1.7596   -0.7434 H   0  0  0  0  0  0  0  0  0  0  0  0
    2.1265    4.1940    2.9677 H   0  0  0  0  0  0  0  0  0  0  0  0
    3.6858    4.9317    2.4492 H   0  0  0  0  0  0  0  0  0  0  0  0
    2.8981    6.1274    4.3990 H   0  0  0  0  0  0  0  0  0  0  0  0
    2.7600    4.6036    5.3513 H   0  0  0  0  0  0  0  0  0  0  0  0
    4.3870    5.1982    4.8274 H   0  0  0  0  0  0  0  0  0  0  0  0
   -1.1582   -0.7099    3.9902 H   0  0  0  0  0  0  0  0  0  0  0  0
   -3.0481   -1.9109   -1.3391 H   0  0  0  0  0  0  0  0  0  0  0  0
   -1.9170   -3.2976   -1.1392 H   0  0  0  0  0  0  0  0  0  0  0  0
   -3.9872   -3.9649   -2.3650 H   0  0  0  0  0  0  0  0  0  0  0  0
   -3.8453   -4.8432   -0.7938 H   0  0  0  0  0  0  0  0  0  0  0  0
   -4.9998   -3.4552   -0.9589 H   0  0  0  0  0  0  0  0  0  0  0  0
   -6.8022    1.9767   12.0010 H   0  0  0  0  0  0  0  0  0  0  0  0
   -5.2111    1.1585   12.1792 H   0  0  0  0  0  0  0  0  0  0  0  0
   -5.0731    3.5952   12.7306 H   0  0  0  0  0  0  0  0  0  0  0  0
   -5.6383    4.0146   11.0705 H   0  0  0  0  0  0  0  0  0  0  0  0
   -4.0439    3.1844   11.3059 H   0  0  0  0  0  0  0  0  0  0  0  0
   -7.6463   -0.9645    6.9427 H   0  0  0  0  0  0  0  0  0  0  0  0
   -9.7857   -2.0988    4.7334 H   0  0  0  0  0  0  0  0  0  0  0  0
  -12.3289   -7.1390    6.8561 H   0  0  0  0  0  0  0  0  0  0  0  0
  -12.8634   -5.8557    5.7501 H   0  0  0  0  0  0  0  0  0  0  0  0
  -12.6107   -8.0321    4.5549 H   0  0  0  0  0  0  0  0  0  0  0  0
  -11.4197   -6.8303    3.9128 H   0  0  0  0  0  0  0  0  0  0  0  0
  -10.8717   -8.1234    5.0548 H   0  0  0  0  0  0  0  0  0  0  0  0
   -7.7624   -6.2335    7.7979 H   0  0  0  0  0  0  0  0  0  0  0  0
   -7.1919   -4.1547    6.4999 H   0  0  0  0  0  0  0  0  0  0  0  0
   -8.4022   -6.4312    4.8054 H   0  0  0  0  0  0  0  0  0  0  0  0
   -6.7696   -6.4069    5.5687 H   0  0  0  0  0  0  0  0  0  0  0  0
   -7.1712   -5.2298    4.2685 H   0  0  0  0  0  0  0  0  0  0  0  0
  1  2  2  3
  2  3  1  0
  3  4  2  0
  3  5  1  0
  5  6  2  0
  6  7  1  0
  7  8  2  0
  8  9  1  0
  9 10  2  0
 10 11  1  0
 11 12  2  3
 12 13  1  0
 13 14  3  0
 12 15  1  0
 15 16  3  0
  8 17  1  0
 17 18  1  0
 18 19  1  0
 19 20  2  0
 20 21  1  0
 21 22  1  0
 21 23  1  0
  1 24  1  0
 24 25  2  0
 25 26  1  0
 26 27  1  0
 27 28  2  0
 27 29  1  0
 29 30  2  0
 30 31  1  0
 31 32  1  0
 32 33  2  0
 30 34  1  0
 34 35  2  0
 35 36  1  0
 36 37  2  0
 36 38  1  0
 38 39  2  0
 39 40  1  0
 40 41  2  0
 41 42  1  0
 42 43  2  0
 43 44  1  0
 44 45  1  0
 45 46  1  0
 44 47  2  0
 39 48  1  0
 48 49  1  0
 49 50  1  0
 50 51  1  0
 51 52  1  0
 52 53  1  0
 53 54  2  0
 54 55  1  0
 55 56  1  0
 53 57  1  0
 57 58  1  0
 58 59  1  0
 59 60  1  0
 60 61  1  0
 61 62  1  0
 62 63  2  0
 63 64  1  0
 64 65  2  0
 65 66  1  0
 66 67  1  0
 67 68  1  0
 66 69  2  0
 61 70  2  0
 70 71  1  0
 71 72  1  0
 72 73  1  0
 73 74  1  0
 74 75  1  0
 75 76  1  0
 76 77  1  0
 77 78  1  0
 78 79  1  0
 79 80  1  0
 77 81  1  0
 81 82  1  0
 74 83  1  0
 83 84  1  0
 70 85  1  0
 85 86  2  0
 86 87  1  0
 87 88  2  0
 88 89  1  0
 89 90  1  0
 90 91  1  0
 91 92  1  0
 92 93  1  0
 91 94  2  0
 94 95  1  0
 94 96  1  0
 96 97  1  0
 88 98  1  0
 98 99  2  0
 99100  1  0
100101  1  0
101102  1  0
102103  1  0
103104  1  0
104105  1  0
103106  2  0
106107  1  0
107108  1  0
106109  1  0
100110  2  0
110111  1  0
 99112  1  0
112113  2  0
113114  1  0
113115  1  0
115116  2  3
116117  1  0
117118  2  0
117119  1  0
119120  1  0
120121  1  0
119122  1  0
122123  2  0
122124  1  0
124125  1  0
125126  3  0
124127  1  0
127128  1  0
 11  2  1  0
 23 17  1  0
 33 24  1  0
 80 38  1  0
111 85  1  0
127116  1  0
 10  5  1  0
 22 18  1  0
 31 26  2  0
 47 40  1  0
 79 48  2  0
110 87  1  0
 23  7  1  0
 37 29  1  0
 78 50  2  0
 96 89  2  0
114 98  1  0
 76 51  2  0
107101  2  0
 56 52  2  0
 75 57  2  0
 73 58  2  0
 72 60  2  0
 69 62  1  0
  1129  1  0
  6130  1  0
  9131  1  0
 17132  1  0
 18133  1  0
 19134  1  0
 20135  1  0
 21136  1  0
 22137  1  0
 22138  1  0
 23139  1  0
 25140  1  0
 32141  1  0
 33142  1  0
 34143  1  0
 35144  1  0
 37145  1  0
 41146  1  0
 42147  1  0
 43148  1  0
 45149  1  0
 45150  1  0
 46151  1  0
 46152  1  0
 46153  1  0
 47154  1  0
 63155  1  0
 64156  1  0
 65157  1  0
 67158  1  0
 67159  1  0
 68160  1  0
 68161  1  0
 68162  1  0
 69163  1  0
 81164  1  0
 81165  1  0
 82166  1  0
 82167  1  0
 82168  1  0
 83169  1  0
 83170  1  0
 84171  1  0
 84172  1  0
 84173  1  0
 86174  1  0
 92175  1  0
 92176  1  0
 93177  1  0
 93178  1  0
 93179  1  0
104180  1  0
104181  1  0
105182  1  0
105183  1  0
105184  1  0
112185  1  0
115186  1  0
120187  1  0
120188  1  0
121189  1  0
121190  1  0
121191  1  0
124192  1  0
127193  1  0
128194  1  0
128195  1  0
128196  1  0
M  END

