
     RDKit          3D

249281  0  0  0  0  0  0  0  0999 V2000
   -7.8092    5.7382   -5.6422 C   0  0  0  0  0  0  0  0  0  0  0  0
   -7.1492    5.2635   -6.6897 C   0  0  0  0  0  0  0  0  0  0  0  0
   -5.7983    4.9419   -6.8576 C   0  0  0  0  0  0  0  0  0  0  0  0
   -4.9040    5.0053   -5.9596 O   0  0  0  0  0  0  0  0  0  0  0  0
   -5.5479    4.5162   -8.2311 C   0  0  0  0  0  0  0  0  0  0  0  0
   -4.4037    3.9746   -8.7902 C   0  0  0  0  0  0  0  0  0  0  0  0
   -4.3683    3.4652  -10.0596 C   0  0  0  0  0  0  0  0  0  0  0  0
   -5.5484    3.5261  -10.7345 C   0  0  0  0  0  0  0  0  0  0  0  0
   -6.7152    4.0568  -10.2230 C   0  0  0  0  0  0  0  0  0  0  0  0
   -6.7301    4.5717   -8.9353 C   0  0  0  0  0  0  0  0  0  0  0  0
   -7.8340    5.0290   -8.0865 C   0  0  0  0  0  0  0  0  0  0  0  0
   -9.0853    5.0078   -8.0038 C   0  0  0  0  0  0  0  0  0  0  0  0
   -9.3128    4.8603   -9.8556 C   0  0  0  0  0  0  0  0  0  0  0  0
   -9.4616    4.7759  -10.9191 N   0  0  0  0  0  0  0  0  0  0  0  0
  -10.4430    4.9845   -7.9186 C   0  0  0  0  0  0  0  0  0  0  0  0
  -11.4987    4.9593   -7.8524 N   0  0  0  0  0  0  0  0  0  0  0  0
   -4.8962    2.8120  -11.8774 C   0  0  0  0  0  0  0  0  0  0  0  0
   -4.5148    3.5850  -13.0617 C   0  0  0  0  0  0  0  0  0  0  0  0
   -4.1931    4.9728  -12.6364 C   0  0  0  0  0  0  0  0  0  0  0  0
   -3.0903    4.9731  -11.9257 C   0  0  0  0  0  0  0  0  0  0  0  0
   -2.6320    3.5526  -11.9024 C   0  0  0  0  0  0  0  0  0  0  0  0
   -3.1026    3.0927  -13.2988 C   0  0  0  0  0  0  0  0  0  0  0  0
   -3.5948    2.7788  -11.0816 C   0  0  0  0  0  0  0  0  0  0  0  0
   -7.1239    6.0182   -4.3600 C   0  0  0  0  0  0  0  0  0  0  0  0
   -6.4422    5.0601   -3.6292 C   0  0  0  0  0  0  0  0  0  0  0  0
   -5.8039    5.4515   -2.5164 C   0  0  0  0  0  0  0  0  0  0  0  0
   -5.0267    4.6603   -1.6565 C   0  0  0  0  0  0  0  0  0  0  0  0
   -4.7742    3.2710   -1.9004 C   0  0  0  0  0  0  0  0  0  0  0  0
   -4.3488    2.1675   -1.2818 C   0  0  0  0  0  0  0  0  0  0  0  0
   -4.1327    0.9939   -1.8705 C   0  0  0  0  0  0  0  0  0  0  0  0
   -4.3181    0.7580   -3.1695 C   0  0  0  0  0  0  0  0  0  0  0  0
   -4.2254   -0.5738   -4.3271 S   0  0  0  0  0  0  0  0  0  0  0  0
   -5.9522   -1.1479   -4.5810 C   0  0  0  0  0  0  0  0  0  0  0  0
   -5.9310   -2.0892   -5.7328 C   0  0  0  0  0  0  0  0  0  0  0  0
   -4.9229    2.5457   -3.7325 Se  0  0  0  0  0  2  0  0  0  0  0  0
   -4.3903    5.2575   -0.5606 C   0  0  0  0  0  0  0  0  0  0  0  0
   -4.4527    6.5881   -0.2368 C   0  0  0  0  0  0  0  0  0  0  0  0
   -5.2522    7.3608   -1.0901 C   0  0  0  0  0  0  0  0  0  0  0  0
   -5.6399    8.6881   -0.7199 C   0  0  0  0  0  0  0  0  0  0  0  0
   -6.1680    9.7756   -1.2349 C   0  0  0  0  0  0  0  0  0  0  0  0
   -6.5799   10.8504   -0.5458 C   0  0  0  0  0  0  0  0  0  0  0  0
   -6.5025   10.9357    0.7884 C   0  0  0  0  0  0  0  0  0  0  0  0
   -6.8837   12.1343    2.0347 S   0  0  0  0  0  0  0  0  0  0  0  0
   -6.5726   11.3961    3.6955 C   0  0  0  0  0  0  0  0  0  0  0  0
   -5.1096   11.1173    3.8858 C   0  0  0  0  0  0  0  0  0  0  0  0
   -5.6925    9.1838    1.2012 Se  0  0  0  0  0  2  0  0  0  0  0  0
   -5.8753    6.7664   -2.1768 C   0  0  0  0  0  0  0  0  0  0  0  0
   -6.8531    7.4289   -3.4524 S   0  0  0  0  0  0  0  0  0  0  0  0
   -3.6697    7.0009    0.7919 C   0  0  0  0  0  0  0  0  0  0  0  0
   -2.9147    6.1280    1.4187 C   0  0  0  0  0  0  0  0  0  0  0  0
   -3.2743    4.6353    0.5843 S   0  0  0  0  0  0  0  0  0  0  0  0
   -1.7240    6.2391    2.3137 C   0  0  0  0  0  0  0  0  0  0  0  0
   -1.2544    5.3915    3.6725 S   0  0  0  0  0  0  0  0  0  0  0  0
    0.4582    5.6879    3.6382 C   0  0  0  0  0  0  0  0  0  0  0  0
    1.5289    5.0518    4.2632 C   0  0  0  0  0  0  0  0  0  0  0  0
    1.5508    3.9084    5.5256 S   0  0  0  0  0  0  0  0  0  0  0  0
    3.2270    3.5153    5.4498 C   0  0  0  0  0  0  0  0  0  0  0  0
    4.0920    2.4354    5.8185 C   0  0  0  0  0  0  0  0  0  0  0  0
    3.8305    1.3440    6.5708 C   0  0  0  0  0  0  0  0  0  0  0  0
    4.6697    0.2773    6.4174 C   0  0  0  0  0  0  0  0  0  0  0  0
    4.4341   -0.7693    7.1823 N   0  0  0  0  0  0  0  0  0  0  0  0
    3.1009   -0.3442    8.1147 S   0  0  0  0  0  0  0  0  0  0  0  0
    2.8648    1.1880    7.4919 N   0  0  0  0  0  0  0  0  0  0  0  0
    5.7214    0.4302    5.4620 C   0  0  0  0  0  0  0  0  0  0  0  0
    6.2505   -0.6442    4.6757 C   0  0  0  0  0  0  0  0  0  0  0  0
    6.0794   -2.3552    4.5552 S   0  0  0  0  0  0  0  0  0  0  0  0
    6.7061   -2.5005    2.9947 C   0  0  0  0  0  0  0  0  0  0  0  0
    6.5117   -3.6245    2.1721 C   0  0  0  0  0  0  0  0  0  0  0  0
    6.6694   -3.5984    0.8387 C   0  0  0  0  0  0  0  0  0  0  0  0
    7.0914   -2.3168    0.3597 C   0  0  0  0  0  0  0  0  0  0  0  0
    7.3257   -1.9283   -0.9098 N   0  0  0  0  0  0  0  0  0  0  0  0
    7.6586   -0.6252   -0.8970 N   0  0  0  0  0  0  0  0  0  0  0  0
    7.9685    0.1833   -2.1047 C   0  0  0  0  0  0  0  0  0  0  0  0
    9.4182    0.1627   -2.4930 C   0  0  0  0  0  0  0  0  0  0  0  0
    7.6316   -0.2143    0.3407 N   0  0  0  0  0  0  0  0  0  0  0  0
    7.2874   -1.2207    1.1546 C   0  0  0  0  0  0  0  0  0  0  0  0
    7.0612   -1.2943    2.5876 C   0  0  0  0  0  0  0  0  0  0  0  0
    6.8087   -0.2388    3.5307 C   0  0  0  0  0  0  0  0  0  0  0  0
    6.6904    1.1552    3.5769 N   0  0  0  0  0  0  0  0  0  0  0  0
    6.0173    1.4952    4.7368 C   0  0  0  0  0  0  0  0  0  0  0  0
    5.1404    2.6338    4.9318 C   0  0  0  0  0  0  0  0  0  0  0  0
    4.9443    3.6996    4.1896 N   0  0  0  0  0  0  0  0  0  0  0  0
    3.7041    4.2890    4.4732 C   0  0  0  0  0  0  0  0  0  0  0  0
    2.8327    5.1233    3.8324 C   0  0  0  0  0  0  0  0  0  0  0  0
    2.9581    5.9398    2.7227 C   0  0  0  0  0  0  0  0  0  0  0  0
    1.9234    6.5876    2.1094 C   0  0  0  0  0  0  0  0  0  0  0  0
    0.5920    6.4574    2.5616 C   0  0  0  0  0  0  0  0  0  0  0  0
   -0.5159    6.7911    1.8297 C   0  0  0  0  0  0  0  0  0  0  0  0
    2.4196    7.3202    1.0808 N   0  0  0  0  0  0  0  0  0  0  0  0
    3.6997    7.1652    1.0233 N   0  0  0  0  0  0  0  0  0  0  0  0
    4.5787    7.8326    0.0463 C   0  0  0  0  0  0  0  0  0  0  0  0
    5.0298    9.2133    0.5550 C   0  0  0  0  0  0  0  0  0  0  0  0
    4.0396    6.3566    1.9713 N   0  0  0  0  0  0  0  0  0  0  0  0
    5.9966    4.4375    3.5104 C   0  0  0  0  0  0  0  0  0  0  0  0
    6.1851    5.8022    4.3146 C   0  0  0  0  0  0  0  0  0  0  0  0
    7.3475    1.9388    2.5770 C   0  0  0  0  0  0  0  0  0  0  0  0
    8.7400    2.3816    3.0291 C   0  0  0  0  0  0  0  0  0  0  0  0
    6.1588   -4.6546    0.1186 C   0  0  0  0  0  0  0  0  0  0  0  0
    5.5459   -5.6317    0.7448 C   0  0  0  0  0  0  0  0  0  0  0  0
    5.6951   -5.0989    2.4124 S   0  0  0  0  0  0  0  0  0  0  0  0
    4.3732   -6.5649    0.4402 C   0  0  0  0  0  0  0  0  0  0  0  0
    3.8137   -7.4849    1.1929 C   0  0  0  0  0  0  0  0  0  0  0  0
    4.5206   -8.3496    2.1592 N   0  0  0  0  0  0  0  0  0  0  0  0
    5.7590   -8.1801    2.6714 C   0  0  0  0  0  0  0  0  0  0  0  0
    6.8426   -8.0247    1.8354 C   0  0  0  0  0  0  0  0  0  0  0  0
    8.0937   -7.8065    2.3015 C   0  0  0  0  0  0  0  0  0  0  0  0
    8.3036   -7.7291    3.6518 C   0  0  0  0  0  0  0  0  0  0  0  0
    9.6875   -7.4822    4.1888 C   0  0  0  0  0  0  0  0  0  0  0  0
    7.2742   -7.8767    4.5739 C   0  0  0  0  0  0  0  0  0  0  0  0
    6.0263   -8.0981    4.0091 C   0  0  0  0  0  0  0  0  0  0  0  0
    3.8572   -9.6111    2.4084 C   0  0  0  0  0  0  0  0  0  0  0  0
    3.5241  -10.2844    1.2482 C   0  0  0  0  0  0  0  0  0  0  0  0
    2.7768  -11.4573    1.2764 C   0  0  0  0  0  0  0  0  0  0  0  0
    2.3427  -11.9919    2.4645 C   0  0  0  0  0  0  0  0  0  0  0  0
    1.5109  -13.2141    2.5051 C   0  0  0  0  0  0  0  0  0  0  0  0
    2.6921  -11.3037    3.6183 C   0  0  0  0  0  0  0  0  0  0  0  0
    3.4600  -10.1017    3.5735 C   0  0  0  0  0  0  0  0  0  0  0  0
    2.4516   -7.7206    0.9500 C   0  0  0  0  0  0  0  0  0  0  0  0
    1.1750   -8.4624    1.8476 S   0  0  0  0  0  0  0  0  0  0  0  0
   -0.1829   -7.8407    0.9300 C   0  0  0  0  0  0  0  0  0  0  0  0
    0.4190   -7.1207   -0.0156 C   0  0  0  0  0  0  0  0  0  0  0  0
   -0.3248   -6.4360   -1.0245 N   0  0  0  0  0  0  0  0  0  0  0  0
    0.1658   -5.2658   -1.7205 C   0  0  0  0  0  0  0  0  0  0  0  0
    0.0150   -5.2014   -3.1047 C   0  0  0  0  0  0  0  0  0  0  0  0
    0.4444   -4.0829   -3.8054 C   0  0  0  0  0  0  0  0  0  0  0  0
    1.0308   -3.0303   -3.1569 C   0  0  0  0  0  0  0  0  0  0  0  0
    1.4724   -1.8227   -3.8976 C   0  0  0  0  0  0  0  0  0  0  0  0
    1.1842   -3.0874   -1.7884 C   0  0  0  0  0  0  0  0  0  0  0  0
    0.7450   -4.2158   -1.0958 C   0  0  0  0  0  0  0  0  0  0  0  0
   -1.6221   -6.8010   -1.4141 C   0  0  0  0  0  0  0  0  0  0  0  0
   -2.5421   -5.7575   -1.5418 C   0  0  0  0  0  0  0  0  0  0  0  0
   -3.8440   -5.9789   -1.9140 C   0  0  0  0  0  0  0  0  0  0  0  0
   -4.2416   -7.2663   -2.1557 C   0  0  0  0  0  0  0  0  0  0  0  0
   -5.6672   -7.5305   -2.5243 C   0  0  0  0  0  0  0  0  0  0  0  0
   -3.3416   -8.3093   -2.0336 C   0  0  0  0  0  0  0  0  0  0  0  0
   -2.0160   -8.1002   -1.6638 C   0  0  0  0  0  0  0  0  0  0  0  0
    1.8135   -7.0691    0.0242 C   0  0  0  0  0  0  0  0  0  0  0  0
    3.0753   -6.0599   -0.6273 S   0  0  0  0  0  0  0  0  0  0  0  0
   -1.5693   -7.9866    1.5060 C   0  0  0  0  0  0  0  0  0  0  0  0
   -1.7105   -7.2636    2.6584 C   0  0  0  0  0  0  0  0  0  0  0  0
   -0.6667   -6.4096    3.2282 C   0  0  0  0  0  0  0  0  0  0  0  0
    0.4196   -6.0685    2.6829 O   0  0  0  0  0  0  0  0  0  0  0  0
   -1.0445   -5.9869    4.5613 C   0  0  0  0  0  0  0  0  0  0  0  0
   -0.3465   -5.2754    5.5205 C   0  0  0  0  0  0  0  0  0  0  0  0
   -0.7914   -5.0643    6.7863 C   0  0  0  0  0  0  0  0  0  0  0  0
   -2.0180   -5.6079    7.0894 C   0  0  0  0  0  0  0  0  0  0  0  0
   -2.7774   -6.3274    6.1532 C   0  0  0  0  0  0  0  0  0  0  0  0
   -2.2703   -6.5111    4.8799 C   0  0  0  0  0  0  0  0  0  0  0  0
   -2.7513   -7.3376    3.6908 C   0  0  0  0  0  0  0  0  0  0  0  0
   -3.7836   -8.0705    3.7288 C   0  0  0  0  0  0  0  0  0  0  0  0
   -4.4256   -9.0224    3.0531 C   0  0  0  0  0  0  0  0  0  0  0  0
   -5.0209   -9.9184    2.4347 N   0  0  0  0  0  0  0  0  0  0  0  0
   -4.8869   -7.2705    4.6220 C   0  0  0  0  0  0  0  0  0  0  0  0
   -5.6503   -6.7278    5.2151 N   0  0  0  0  0  0  0  0  0  0  0  0
   -1.9424   -5.1294    8.5171 C   0  0  0  0  0  0  0  0  0  0  0  0
   -2.7760   -3.9515    8.8141 C   0  0  0  0  0  0  0  0  0  0  0  0
   -3.0205   -3.2156    7.5611 C   0  0  0  0  0  0  0  0  0  0  0  0
   -1.8652   -2.6373    7.1858 C   0  0  0  0  0  0  0  0  0  0  0  0
   -0.8475   -3.0181    8.1970 C   0  0  0  0  0  0  0  0  0  0  0  0
   -1.7300   -3.0093    9.4654 C   0  0  0  0  0  0  0  0  0  0  0  0
   -0.6005   -4.4782    8.1375 C   0  0  0  0  0  0  0  0  0  0  0  0
   -8.8487    5.9489   -5.7075 H   0  0  0  0  0  0  0  0  0  0  0  0
   -3.5083    3.9883   -8.1695 H   0  0  0  0  0  0  0  0  0  0  0  0
   -7.5550    4.0215  -10.8530 H   0  0  0  0  0  0  0  0  0  0  0  0
   -5.3164    1.8160  -12.0457 H   0  0  0  0  0  0  0  0  0  0  0  0
   -5.1516    3.4869  -13.9283 H   0  0  0  0  0  0  0  0  0  0  0  0
   -4.7205    5.9022  -12.8589 H   0  0  0  0  0  0  0  0  0  0  0  0
   -2.5194    5.7289  -11.4278 H   0  0  0  0  0  0  0  0  0  0  0  0
   -1.5596    3.4363  -11.7566 H   0  0  0  0  0  0  0  0  0  0  0  0
   -3.0159    1.9986  -13.3785 H   0  0  0  0  0  0  0  0  0  0  0  0
   -2.5865    3.6440  -14.0719 H   0  0  0  0  0  0  0  0  0  0  0  0
   -3.2436    1.7399  -10.7958 H   0  0  0  0  0  0  0  0  0  0  0  0
   -6.5345    4.0189   -4.0145 H   0  0  0  0  0  0  0  0  0  0  0  0
   -4.1641    2.2667   -0.1517 H   0  0  0  0  0  0  0  0  0  0  0  0
   -3.7588    0.0903   -1.2547 H   0  0  0  0  0  0  0  0  0  0  0  0
   -6.6148   -0.3204   -4.8122 H   0  0  0  0  0  0  0  0  0  0  0  0
   -6.2698   -1.6780   -3.6608 H   0  0  0  0  0  0  0  0  0  0  0  0
   -4.9714   -2.5836   -5.9280 H   0  0  0  0  0  0  0  0  0  0  0  0
   -6.7181   -2.9109   -5.6559 H   0  0  0  0  0  0  0  0  0  0  0  0
   -6.2961   -1.5813   -6.7038 H   0  0  0  0  0  0  0  0  0  0  0  0
   -6.2875    9.8048   -2.3680 H   0  0  0  0  0  0  0  0  0  0  0  0
   -7.0168   11.7718   -1.0670 H   0  0  0  0  0  0  0  0  0  0  0  0
   -7.1383   10.4092    3.6780 H   0  0  0  0  0  0  0  0  0  0  0  0
   -7.0038   11.9808    4.5132 H   0  0  0  0  0  0  0  0  0  0  0  0
   -4.8345   10.0448    3.6634 H   0  0  0  0  0  0  0  0  0  0  0  0
   -4.4585   11.6916    3.2050 H   0  0  0  0  0  0  0  0  0  0  0  0
   -4.7842   11.3382    4.9460 H   0  0  0  0  0  0  0  0  0  0  0  0
   -3.6315    8.0942    1.0863 H   0  0  0  0  0  0  0  0  0  0  0  0
    7.4093   -0.2472   -2.9434 H   0  0  0  0  0  0  0  0  0  0  0  0
    7.6566    1.2301   -1.8583 H   0  0  0  0  0  0  0  0  0  0  0  0
    9.8772    1.0475   -1.9451 H   0  0  0  0  0  0  0  0  0  0  0  0
    9.5339    0.2939   -3.5968 H   0  0  0  0  0  0  0  0  0  0  0  0
    9.9947   -0.6872   -2.0767 H   0  0  0  0  0  0  0  0  0  0  0  0
   -0.5573    7.4360    0.9337 H   0  0  0  0  0  0  0  0  0  0  0  0
    5.3935    7.1725   -0.2702 H   0  0  0  0  0  0  0  0  0  0  0  0
    3.9755    8.0630   -0.8797 H   0  0  0  0  0  0  0  0  0  0  0  0
    6.0953    9.2402    0.8154 H   0  0  0  0  0  0  0  0  0  0  0  0
    4.4303    9.5145    1.4350 H   0  0  0  0  0  0  0  0  0  0  0  0
    4.8054    9.9768   -0.2107 H   0  0  0  0  0  0  0  0  0  0  0  0
    6.9937    4.0474    3.8577 H   0  0  0  0  0  0  0  0  0  0  0  0
    5.8662    4.7206    2.5082 H   0  0  0  0  0  0  0  0  0  0  0  0
    6.7050    5.6202    5.2525 H   0  0  0  0  0  0  0  0  0  0  0  0
    6.6489    6.5274    3.6629 H   0  0  0  0  0  0  0  0  0  0  0  0
    5.1462    6.0722    4.5866 H   0  0  0  0  0  0  0  0  0  0  0  0
    6.7524    2.5963    2.0001 H   0  0  0  0  0  0  0  0  0  0  0  0
    7.7080    1.2885    1.7264 H   0  0  0  0  0  0  0  0  0  0  0  0
    8.9835    3.3870    2.6665 H   0  0  0  0  0  0  0  0  0  0  0  0
    8.6407    2.3819    4.1675 H   0  0  0  0  0  0  0  0  0  0  0  0
    9.5309    1.6800    2.8100 H   0  0  0  0  0  0  0  0  0  0  0  0
    6.2640   -4.6616   -1.0058 H   0  0  0  0  0  0  0  0  0  0  0  0
    6.6944   -8.1177    0.7493 H   0  0  0  0  0  0  0  0  0  0  0  0
    8.9075   -7.7051    1.5769 H   0  0  0  0  0  0  0  0  0  0  0  0
   10.4438   -7.9684    3.5561 H   0  0  0  0  0  0  0  0  0  0  0  0
    9.8892   -6.3781    4.2438 H   0  0  0  0  0  0  0  0  0  0  0  0
    9.7027   -7.8723    5.2398 H   0  0  0  0  0  0  0  0  0  0  0  0
    7.4278   -7.8281    5.6096 H   0  0  0  0  0  0  0  0  0  0  0  0
    5.2366   -8.1856    4.7680 H   0  0  0  0  0  0  0  0  0  0  0  0
    3.7984   -9.9533    0.2616 H   0  0  0  0  0  0  0  0  0  0  0  0
    2.5130  -11.9952    0.3569 H   0  0  0  0  0  0  0  0  0  0  0  0
    1.1675  -13.4929    3.5189 H   0  0  0  0  0  0  0  0  0  0  0  0
    2.1324  -14.1097    2.1491 H   0  0  0  0  0  0  0  0  0  0  0  0
    0.6175  -13.1239    1.8920 H   0  0  0  0  0  0  0  0  0  0  0  0
    2.3903  -11.6698    4.5920 H   0  0  0  0  0  0  0  0  0  0  0  0
    3.6113   -9.6917    4.5470 H   0  0  0  0  0  0  0  0  0  0  0  0
   -0.4268   -6.0198   -3.6195 H   0  0  0  0  0  0  0  0  0  0  0  0
    0.3325   -4.0456   -4.8625 H   0  0  0  0  0  0  0  0  0  0  0  0
    1.8494   -1.0426   -3.2582 H   0  0  0  0  0  0  0  0  0  0  0  0
    0.6272   -1.4044   -4.4981 H   0  0  0  0  0  0  0  0  0  0  0  0
    2.2698   -2.1726   -4.5861 H   0  0  0  0  0  0  0  0  0  0  0  0
    1.6493   -2.2503   -1.2635 H   0  0  0  0  0  0  0  0  0  0  0  0
    0.8876   -4.1728   -0.0173 H   0  0  0  0  0  0  0  0  0  0  0  0
   -2.2509   -4.7387   -1.3431 H   0  0  0  0  0  0  0  0  0  0  0  0
   -4.5292   -5.1410   -2.0049 H   0  0  0  0  0  0  0  0  0  0  0  0
   -5.9744   -8.4491   -2.0230 H   0  0  0  0  0  0  0  0  0  0  0  0
   -6.3160   -6.7270   -2.1511 H   0  0  0  0  0  0  0  0  0  0  0  0
   -5.7110   -7.6000   -3.6601 H   0  0  0  0  0  0  0  0  0  0  0  0
   -3.6275   -9.3544   -2.2255 H   0  0  0  0  0  0  0  0  0  0  0  0
   -1.3546   -8.9334   -1.5672 H   0  0  0  0  0  0  0  0  0  0  0  0
   -2.3383   -8.5469    1.1365 H   0  0  0  0  0  0  0  0  0  0  0  0
    0.6180   -4.8567    5.2285 H   0  0  0  0  0  0  0  0  0  0  0  0
   -3.6941   -6.7308    6.4847 H   0  0  0  0  0  0  0  0  0  0  0  0
   -1.8594   -5.9218    9.2453 H   0  0  0  0  0  0  0  0  0  0  0  0
   -3.6126   -4.0863    9.4499 H   0  0  0  0  0  0  0  0  0  0  0  0
   -3.9656   -3.1285    7.0183 H   0  0  0  0  0  0  0  0  0  0  0  0
   -1.6456   -2.0164    6.3216 H   0  0  0  0  0  0  0  0  0  0  0  0
    0.0142   -2.4054    8.2791 H   0  0  0  0  0  0  0  0  0  0  0  0
   -1.2419   -3.5168   10.3044 H   0  0  0  0  0  0  0  0  0  0  0  0
   -2.1357   -2.0045    9.6592 H   0  0  0  0  0  0  0  0  0  0  0  0
    0.2475   -4.8650    8.6926 H   0  0  0  0  0  0  0  0  0  0  0  0
  1  2  2  3
  2  3  1  0
  3  4  2  0
  3  5  1  0
  5  6  2  0
  6  7  1  0
  7  8  2  0
  8  9  1  0
  9 10  2  0
 10 11  1  0
 11 12  2  3
 12 13  1  0
 13 14  3  0
 12 15  1  0
 15 16  3  0
  8 17  1  0
 17 18  1  0
 18 19  1  0
 19 20  2  0
 20 21  1  0
 21 22  1  0
 21 23  1  0
  1 24  1  0
 24 25  2  0
 25 26  1  0
 26 27  2  0
 27 28  1  0
 28 29  2  0
 29 30  1  0
 30 31  2  0
 31 32  1  0
 32 33  1  0
 33 34  1  0
 31 35  1  0
 27 36  1  0
 36 37  2  0
 37 38  1  0
 38 39  1  0
 39 40  2  0
 40 41  1  0
 41 42  2  0
 42 43  1  0
 43 44  1  0
 44 45  1  0
 42 46  1  0
 38 47  2  0
 47 48  1  0
 37 49  1  0
 49 50  2  0
 50 51  1  0
 50 52  1  0
 52 53  1  0
 53 54  1  0
 54 55  1  0
 55 56  1  0
 56 57  1  0
 57 58  1  0
 58 59  1  0
 59 60  1  0
 60 61  2  0
 61 62  1  0
 62 63  1  0
 60 64  1  0
 64 65  1  0
 65 66  1  0
 66 67  1  0
 67 68  1  0
 68 69  2  0
 69 70  1  0
 70 71  2  0
 71 72  1  0
 72 73  1  0
 73 74  1  0
 72 75  1  0
 75 76  2  0
 76 77  1  0
 77 78  1  0
 78 79  1  0
 79 80  1  0
 80 81  1  0
 81 82  1  0
 82 83  1  0
 83 84  1  0
 84 85  1  0
 85 86  1  0
 86 87  1  0
 87 88  1  0
 86 89  2  0
 89 90  1  0
 90 91  1  0
 91 92  1  0
 90 93  1  0
 82 94  1  0
 94 95  1  0
 79 96  1  0
 96 97  1  0
 69 98  1  0
 98 99  2  0
 99100  1  0
 99101  1  0
101102  2  0
102103  1  0
103104  1  0
104105  2  0
105106  1  0
106107  2  0
107108  1  0
107109  1  0
109110  2  0
103111  1  0
111112  2  0
112113  1  0
113114  2  0
114115  1  0
114116  1  0
116117  2  0
102118  1  0
118119  1  0
119120  1  0
120121  2  0
121122  1  0
122123  1  0
123124  2  0
124125  1  0
125126  2  0
126127  1  0
126128  1  0
128129  2  0
122130  1  0
130131  2  0
131132  1  0
132133  2  0
133134  1  0
133135  1  0
135136  2  0
121137  1  0
137138  1  0
120139  1  0
139140  2  3
140141  1  0
141142  2  0
141143  1  0
143144  2  0
144145  1  0
145146  2  0
146147  1  0
147148  2  0
148149  1  0
149150  2  3
150151  1  0
151152  3  0
150153  1  0
153154  3  0
146155  1  0
155156  1  0
156157  1  0
157158  2  0
158159  1  0
159160  1  0
159161  1  0
 11  2  1  0
 23 17  1  0
 48 24  1  0
 88 52  2  0
138101  1  0
149140  1  0
161155  1  0
 10  5  1  0
 22 18  1  0
 47 26  1  0
 87 54  2  0
110104  1  0
117111  1  0
137118  2  0
148143  1  0
160156  1  0
 23  7  1  0
 35 28  1  0
 51 36  1  0
 84 55  2  0
 93 85  2  0
129123  1  0
136130  1  0
161145  1  0
 46 39  1  0
 83 57  2  0
 81 58  2  0
 63 59  2  0
 80 64  2  0
 78 65  2  0
 77 67  2  0
100 68  1  0
 76 70  1  0
  1162  1  0
  6163  1  0
  9164  1  0
 17165  1  0
 18166  1  0
 19167  1  0
 20168  1  0
 21169  1  0
 22170  1  0
 22171  1  0
 23172  1  0
 25173  1  0
 29174  1  0
 30175  1  0
 33176  1  0
 33177  1  0
 34178  1  0
 34179  1  0
 34180  1  0
 40181  1  0
 41182  1  0
 44183  1  0
 44184  1  0
 45185  1  0
 45186  1  0
 45187  1  0
 49188  1  0
 73189  1  0
 73190  1  0
 74191  1  0
 74192  1  0
 74193  1  0
 88194  1  0
 91195  1  0
 91196  1  0
 92197  1  0
 92198  1  0
 92199  1  0
 94200  1  0
 94201  1  0
 95202  1  0
 95203  1  0
 95204  1  0
 96205  1  0
 96206  1  0
 97207  1  0
 97208  1  0
 97209  1  0
 98210  1  0
105211  1  0
106212  1  0
108213  1  0
108214  1  0
108215  1  0
109216  1  0
110217  1  0
112218  1  0
113219  1  0
115220  1  0
115221  1  0
115222  1  0
116223  1  0
117224  1  0
124225  1  0
125226  1  0
127227  1  0
127228  1  0
127229  1  0
128230  1  0
129231  1  0
131232  1  0
132233  1  0
134234  1  0
134235  1  0
134236  1  0
135237  1  0
136238  1  0
139239  1  0
144240  1  0
147241  1  0
155242  1  0
156243  1  0
157244  1  0
158245  1  0
159246  1  0
160247  1  0
160248  1  0
161249  1  0
M  END

