
     RDKit          3D

188210  0  0  0  0  0  0  0  0999 V2000
   -4.2052    4.3517   -3.4220 C   0  0  0  0  0  0  0  0  0  0  0  0
   -2.8601    4.2552   -3.4296 C   0  0  0  0  0  0  0  0  0  0  0  0
   -2.0918    3.2143   -2.7271 C   0  0  0  0  0  0  0  0  0  0  0  0
   -2.4919    2.0563   -2.4355 O   0  0  0  0  0  0  0  0  0  0  0  0
   -0.7965    3.7451   -2.3813 C   0  0  0  0  0  0  0  0  0  0  0  0
    0.1642    3.1460   -1.5359 C   0  0  0  0  0  0  0  0  0  0  0  0
    1.2250    3.9714   -1.2226 C   0  0  0  0  0  0  0  0  0  0  0  0
    1.3344    5.3190   -1.6978 C   0  0  0  0  0  0  0  0  0  0  0  0
    0.3966    5.9093   -2.5338 C   0  0  0  0  0  0  0  0  0  0  0  0
   -0.6850    5.0615   -2.9004 C   0  0  0  0  0  0  0  0  0  0  0  0
   -1.9044    5.3710   -3.7009 C   0  0  0  0  0  0  0  0  0  0  0  0
   -2.0509    6.3547   -4.6196 C   0  0  0  0  0  0  0  0  0  0  0  0
   -3.2050    6.4341   -5.4789 C   0  0  0  0  0  0  0  0  0  0  0  0
   -4.1312    6.5076   -6.1723 N   0  0  0  0  0  0  0  0  0  0  0  0
   -1.0161    7.3196   -4.8901 C   0  0  0  0  0  0  0  0  0  0  0  0
   -0.1946    8.1012   -5.1154 N   0  0  0  0  0  0  0  0  0  0  0  0
    2.5910    5.5128   -0.9022 C   0  0  0  0  0  0  0  0  0  0  0  0
    2.4683    6.3479    0.4074 C   0  0  0  0  0  0  0  0  0  0  0  0
    3.7285    6.0757    1.1904 C   0  0  0  0  0  0  0  0  0  0  0  0
    3.6422    4.8081    1.6165 C   0  0  0  0  0  0  0  0  0  0  0  0
    2.3251    4.2731    1.1118 C   0  0  0  0  0  0  0  0  0  0  0  0
    1.4932    5.5376    1.2451 C   0  0  0  0  0  0  0  0  0  0  0  0
    2.4893    4.1269   -0.4317 C   0  0  0  0  0  0  0  0  0  0  0  0
   -5.0095    3.4779   -2.5652 C   0  0  0  0  0  0  0  0  0  0  0  0
   -5.4365    2.1967   -2.8876 C   0  0  0  0  0  0  0  0  0  0  0  0
   -5.7358    1.4052   -1.7593 C   0  0  0  0  0  0  0  0  0  0  0  0
   -6.1578   -0.0126   -1.8597 C   0  0  0  0  0  0  0  0  0  0  0  0
   -7.2982   -0.4506   -1.1506 C   0  0  0  0  0  0  0  0  0  0  0  0
   -8.0325    0.4890   -0.4005 O   0  0  0  0  0  0  0  0  0  0  0  0
   -9.0678    0.1880    0.5347 C   0  0  0  0  0  0  0  0  0  0  0  0
   -8.4851   -0.4111    1.8127 C   0  0  0  0  0  0  0  0  0  0  0  0
   -7.6788   -1.8025   -1.2224 C   0  0  0  0  0  0  0  0  0  0  0  0
   -6.9480   -2.7022   -1.9926 C   0  0  0  0  0  0  0  0  0  0  0  0
   -5.8277   -2.2745   -2.6992 C   0  0  0  0  0  0  0  0  0  0  0  0
   -5.4151   -0.9287   -2.6391 C   0  0  0  0  0  0  0  0  0  0  0  0
   -4.2723   -0.4813   -3.3237 O   0  0  0  0  0  0  0  0  0  0  0  0
   -3.4628   -1.2962   -4.1676 C   0  0  0  0  0  0  0  0  0  0  0  0
   -2.3593   -0.4542   -4.7911 C   0  0  0  0  0  0  0  0  0  0  0  0
   -5.5393    2.0790   -0.5427 C   0  0  0  0  0  0  0  0  0  0  0  0
   -4.9911    3.6277   -0.8959 S   0  0  0  0  0  0  0  0  0  0  0  0
   -5.3754    1.4664    0.7924 C   0  0  0  0  0  0  0  0  0  0  0  0
   -5.4231    2.1593    2.0190 C   0  0  0  0  0  0  0  0  0  0  0  0
   -5.9135    3.5392    2.1822 C   0  0  0  0  0  0  0  0  0  0  0  0
   -7.2270    3.8653    1.8119 C   0  0  0  0  0  0  0  0  0  0  0  0
   -7.6959    5.1725    1.9665 C   0  0  0  0  0  0  0  0  0  0  0  0
   -6.8576    6.1622    2.4880 C   0  0  0  0  0  0  0  0  0  0  0  0
   -5.5324    5.8548    2.8421 C   0  0  0  0  0  0  0  0  0  0  0  0
   -4.6251    6.9101    3.4144 C   0  0  0  0  0  0  0  0  0  0  0  0
   -4.4762    6.7396    4.9235 C   0  0  0  0  0  0  0  0  0  0  0  0
   -5.0683    4.5380    2.6888 C   0  0  0  0  0  0  0  0  0  0  0  0
   -4.8388    1.4127    3.0494 C   0  0  0  0  0  0  0  0  0  0  0  0
   -4.2754    1.8537    4.5892 S   0  0  0  0  0  0  0  0  0  0  0  0
   -3.4393    0.3864    4.7610 C   0  0  0  0  0  0  0  0  0  0  0  0
   -2.2617    0.0520    5.3765 C   0  0  0  0  0  0  0  0  0  0  0  0
   -1.4417    0.8397    6.2066 C   0  0  0  0  0  0  0  0  0  0  0  0
   -0.0777    0.4616    6.3868 C   0  0  0  0  0  0  0  0  0  0  0  0
    0.6961    1.2780    7.1427 N   0  0  0  0  0  0  0  0  0  0  0  0
   -0.4208    2.4426    7.5201 S   0  0  0  0  0  0  0  0  0  0  0  0
   -1.8387    1.9954    6.7926 N   0  0  0  0  0  0  0  0  0  0  0  0
    0.3724   -0.7160    5.7907 C   0  0  0  0  0  0  0  0  0  0  0  0
    1.6098   -1.3099    5.7505 C   0  0  0  0  0  0  0  0  0  0  0  0
    3.2172   -0.7613    5.7957 S   0  0  0  0  0  0  0  0  0  0  0  0
    3.7457   -2.0988    4.8695 C   0  0  0  0  0  0  0  0  0  0  0  0
    4.8930   -2.2908    4.0911 C   0  0  0  0  0  0  0  0  0  0  0  0
    6.0430   -1.3626    4.0997 C   0  0  0  0  0  0  0  0  0  0  0  0
    6.7327   -1.1073    5.2954 C   0  0  0  0  0  0  0  0  0  0  0  0
    7.7878   -0.1917    5.3157 C   0  0  0  0  0  0  0  0  0  0  0  0
    8.1547    0.4858    4.1491 C   0  0  0  0  0  0  0  0  0  0  0  0
    7.4799    0.2366    2.9453 C   0  0  0  0  0  0  0  0  0  0  0  0
    7.8242    1.0108    1.7012 C   0  0  0  0  0  0  0  0  0  0  0  0
    6.9387    2.2471    1.5750 C   0  0  0  0  0  0  0  0  0  0  0  0
    6.4193   -0.6828    2.9303 C   0  0  0  0  0  0  0  0  0  0  0  0
    4.6770   -3.2968    3.1269 C   0  0  0  0  0  0  0  0  0  0  0  0
    3.0767   -3.8623    3.2200 S   0  0  0  0  0  0  0  0  0  0  0  0
    2.6854   -2.9021    4.5241 C   0  0  0  0  0  0  0  0  0  0  0  0
    1.4767   -2.4400    5.0105 C   0  0  0  0  0  0  0  0  0  0  0  0
    0.2158   -2.6250    4.5578 N   0  0  0  0  0  0  0  0  0  0  0  0
   -0.4564   -1.5165    4.9921 C   0  0  0  0  0  0  0  0  0  0  0  0
   -1.7603   -1.0573    4.6722 C   0  0  0  0  0  0  0  0  0  0  0  0
   -2.5217   -1.2957    3.5511 N   0  0  0  0  0  0  0  0  0  0  0  0
   -3.5492   -0.4114    3.6559 C   0  0  0  0  0  0  0  0  0  0  0  0
   -4.3518    0.1855    2.6790 C   0  0  0  0  0  0  0  0  0  0  0  0
   -4.5901   -0.0258    1.0323 S   0  0  0  0  0  0  0  0  0  0  0  0
   -2.0777   -1.8720    2.2689 C   0  0  0  0  0  0  0  0  0  0  0  0
   -3.0143   -2.9882    1.8000 C   0  0  0  0  0  0  0  0  0  0  0  0
   -0.3448   -3.9064    4.1094 C   0  0  0  0  0  0  0  0  0  0  0  0
    0.0139   -5.0396    5.0679 C   0  0  0  0  0  0  0  0  0  0  0  0
    5.5320   -3.6030    1.9803 C   0  0  0  0  0  0  0  0  0  0  0  0
    6.7515   -4.2662    1.9987 C   0  0  0  0  0  0  0  0  0  0  0  0
    7.2156   -4.5927    0.7133 C   0  0  0  0  0  0  0  0  0  0  0  0
    8.6808   -5.5927    0.4447 S   0  0  0  0  0  0  0  0  0  0  0  0
    9.8714   -4.2110    0.5527 C   0  0  0  0  0  0  0  0  0  0  0  0
   10.0130   -3.5133   -0.7922 C   0  0  0  0  0  0  0  0  0  0  0  0
    6.3492   -4.1932   -0.3055 C   0  0  0  0  0  0  0  0  0  0  0  0
    5.0353   -3.4110    0.3929 S   0  0  0  0  0  0  0  0  0  0  0  0
    6.4989   -4.3975   -1.7570 C   0  0  0  0  0  0  0  0  0  0  0  0
    5.4864   -4.8568   -2.5184 C   0  0  0  0  0  0  0  0  0  0  0  0
    4.2356   -5.4281   -2.0060 C   0  0  0  0  0  0  0  0  0  0  0  0
    4.0904   -6.0401   -0.9138 O   0  0  0  0  0  0  0  0  0  0  0  0
    3.1946   -5.2161   -2.9874 C   0  0  0  0  0  0  0  0  0  0  0  0
    1.8077   -5.4321   -2.8209 C   0  0  0  0  0  0  0  0  0  0  0  0
    1.0414   -4.9641   -3.8713 C   0  0  0  0  0  0  0  0  0  0  0  0
    1.6005   -4.3215   -5.0255 C   0  0  0  0  0  0  0  0  0  0  0  0
    2.9594   -4.1287   -5.2042 C   0  0  0  0  0  0  0  0  0  0  0  0
    3.7714   -4.6270   -4.1438 C   0  0  0  0  0  0  0  0  0  0  0  0
    5.2482   -4.5360   -3.9535 C   0  0  0  0  0  0  0  0  0  0  0  0
    6.1899   -4.3918   -4.9212 C   0  0  0  0  0  0  0  0  0  0  0  0
    5.8344   -4.2553   -6.3064 C   0  0  0  0  0  0  0  0  0  0  0  0
    5.5608   -4.1637   -7.4301 N   0  0  0  0  0  0  0  0  0  0  0  0
    7.5889   -4.6070   -4.6550 C   0  0  0  0  0  0  0  0  0  0  0  0
    8.7144   -4.7883   -4.4513 N   0  0  0  0  0  0  0  0  0  0  0  0
    0.2233   -4.1103   -5.5914 C   0  0  0  0  0  0  0  0  0  0  0  0
   -0.2247   -5.0121   -6.7812 C   0  0  0  0  0  0  0  0  0  0  0  0
    0.4603   -6.3564   -6.6960 C   0  0  0  0  0  0  0  0  0  0  0  0
   -0.0425   -6.9736   -5.6244 C   0  0  0  0  0  0  0  0  0  0  0  0
   -1.0588   -6.0303   -5.0205 C   0  0  0  0  0  0  0  0  0  0  0  0
   -1.6064   -5.4195   -6.2992 C   0  0  0  0  0  0  0  0  0  0  0  0
   -0.3430   -4.7854   -4.4168 C   0  0  0  0  0  0  0  0  0  0  0  0
   -4.6897    5.2464   -3.7757 H   0  0  0  0  0  0  0  0  0  0  0  0
    0.0542    2.1510   -1.1238 H   0  0  0  0  0  0  0  0  0  0  0  0
    0.4735    6.9487   -2.8084 H   0  0  0  0  0  0  0  0  0  0  0  0
    3.4848    5.7266   -1.5318 H   0  0  0  0  0  0  0  0  0  0  0  0
    2.2160    7.4210    0.2723 H   0  0  0  0  0  0  0  0  0  0  0  0
    4.5092    6.7828    1.4488 H   0  0  0  0  0  0  0  0  0  0  0  0
    4.3451    4.3092    2.2787 H   0  0  0  0  0  0  0  0  0  0  0  0
    1.9413    3.3799    1.6443 H   0  0  0  0  0  0  0  0  0  0  0  0
    0.4721    5.4615    0.8145 H   0  0  0  0  0  0  0  0  0  0  0  0
    1.4017    5.9004    2.2979 H   0  0  0  0  0  0  0  0  0  0  0  0
    3.3130    3.4578   -0.7680 H   0  0  0  0  0  0  0  0  0  0  0  0
   -5.4535    1.8199   -3.9022 H   0  0  0  0  0  0  0  0  0  0  0  0
   -9.8226   -0.4887    0.0840 H   0  0  0  0  0  0  0  0  0  0  0  0
   -9.5873    1.1342    0.7961 H   0  0  0  0  0  0  0  0  0  0  0  0
   -7.8753   -1.3084    1.5807 H   0  0  0  0  0  0  0  0  0  0  0  0
   -9.3102   -0.7056    2.4948 H   0  0  0  0  0  0  0  0  0  0  0  0
   -7.8461    0.3400    2.3229 H   0  0  0  0  0  0  0  0  0  0  0  0
   -8.5428   -2.1743   -0.6902 H   0  0  0  0  0  0  0  0  0  0  0  0
   -7.2523   -3.7380   -2.0455 H   0  0  0  0  0  0  0  0  0  0  0  0
   -5.2791   -3.0017   -3.2845 H   0  0  0  0  0  0  0  0  0  0  0  0
   -3.0034   -2.1206   -3.5774 H   0  0  0  0  0  0  0  0  0  0  0  0
   -4.0849   -1.7292   -4.9837 H   0  0  0  0  0  0  0  0  0  0  0  0
   -1.7249   -1.0885   -5.4454 H   0  0  0  0  0  0  0  0  0  0  0  0
   -2.8058    0.3597   -5.4018 H   0  0  0  0  0  0  0  0  0  0  0  0
   -1.7249   -0.0127   -3.9964 H   0  0  0  0  0  0  0  0  0  0  0  0
   -7.8867    3.1061    1.4112 H   0  0  0  0  0  0  0  0  0  0  0  0
   -8.7140    5.4132    1.6842 H   0  0  0  0  0  0  0  0  0  0  0  0
   -7.2392    7.1677    2.6070 H   0  0  0  0  0  0  0  0  0  0  0  0
   -3.6237    6.8400    2.9367 H   0  0  0  0  0  0  0  0  0  0  0  0
   -5.0232    7.9266    3.1995 H   0  0  0  0  0  0  0  0  0  0  0  0
   -5.4714    6.7592    5.4138 H   0  0  0  0  0  0  0  0  0  0  0  0
   -3.8597    7.5669    5.3329 H   0  0  0  0  0  0  0  0  0  0  0  0
   -3.9721    5.7763    5.1522 H   0  0  0  0  0  0  0  0  0  0  0  0
   -4.0433    4.3001    2.9490 H   0  0  0  0  0  0  0  0  0  0  0  0
    6.4499   -1.6150    6.2097 H   0  0  0  0  0  0  0  0  0  0  0  0
    8.3144    0.0025    6.2418 H   0  0  0  0  0  0  0  0  0  0  0  0
    8.9573    1.2112    4.1896 H   0  0  0  0  0  0  0  0  0  0  0  0
    7.6870    0.3668    0.8067 H   0  0  0  0  0  0  0  0  0  0  0  0
    8.8908    1.3210    1.7239 H   0  0  0  0  0  0  0  0  0  0  0  0
    7.1806    2.7806    0.6310 H   0  0  0  0  0  0  0  0  0  0  0  0
    7.1152    2.9351    2.4294 H   0  0  0  0  0  0  0  0  0  0  0  0
    5.8662    1.9556    1.5505 H   0  0  0  0  0  0  0  0  0  0  0  0
    5.8593   -0.8341    2.0146 H   0  0  0  0  0  0  0  0  0  0  0  0
   -2.0443   -1.0707    1.5045 H   0  0  0  0  0  0  0  0  0  0  0  0
   -1.0392   -2.2322    2.3156 H   0  0  0  0  0  0  0  0  0  0  0  0
   -2.8783   -3.9091    2.3961 H   0  0  0  0  0  0  0  0  0  0  0  0
   -4.0782   -2.6828    1.8818 H   0  0  0  0  0  0  0  0  0  0  0  0
   -2.8001   -3.2282    0.7395 H   0  0  0  0  0  0  0  0  0  0  0  0
    0.0301   -4.1451    3.0917 H   0  0  0  0  0  0  0  0  0  0  0  0
   -1.4480   -3.8412    4.0894 H   0  0  0  0  0  0  0  0  0  0  0  0
    1.1059   -5.2368    5.0559 H   0  0  0  0  0  0  0  0  0  0  0  0
   -0.5067   -5.9710    4.7532 H   0  0  0  0  0  0  0  0  0  0  0  0
   -0.3095   -4.7785    6.0982 H   0  0  0  0  0  0  0  0  0  0  0  0
    7.2558   -4.5611    2.9102 H   0  0  0  0  0  0  0  0  0  0  0  0
    9.5715   -3.4810    1.3332 H   0  0  0  0  0  0  0  0  0  0  0  0
   10.8560   -4.6324    0.8378 H   0  0  0  0  0  0  0  0  0  0  0  0
    9.1079   -2.9073   -1.0048 H   0  0  0  0  0  0  0  0  0  0  0  0
   10.8898   -2.8318   -0.7687 H   0  0  0  0  0  0  0  0  0  0  0  0
   10.1621   -4.2640   -1.5982 H   0  0  0  0  0  0  0  0  0  0  0  0
    7.3600   -3.9393   -2.2100 H   0  0  0  0  0  0  0  0  0  0  0  0
    1.3760   -5.8755   -1.9342 H   0  0  0  0  0  0  0  0  0  0  0  0
    3.3413   -3.6034   -6.0642 H   0  0  0  0  0  0  0  0  0  0  0  0
   -0.0797   -3.0433   -5.6700 H   0  0  0  0  0  0  0  0  0  0  0  0
   -0.1909   -4.5314   -7.7797 H   0  0  0  0  0  0  0  0  0  0  0  0
    1.1722   -6.7765   -7.3983 H   0  0  0  0  0  0  0  0  0  0  0  0
    0.1868   -7.9859   -5.3079 H   0  0  0  0  0  0  0  0  0  0  0  0
   -1.8097   -6.5114   -4.3578 H   0  0  0  0  0  0  0  0  0  0  0  0
   -2.1048   -6.1637   -6.9652 H   0  0  0  0  0  0  0  0  0  0  0  0
   -2.2919   -4.5553   -6.1242 H   0  0  0  0  0  0  0  0  0  0  0  0
   -0.9902   -4.1289   -3.7923 H   0  0  0  0  0  0  0  0  0  0  0  0
  1  2  2  3
  2  3  1  0
  3  4  2  0
  3  5  1  0
  5  6  2  0
  6  7  1  0
  7  8  2  0
  8  9  1  0
  9 10  2  0
 10 11  1  0
 11 12  2  3
 12 13  1  0
 13 14  3  0
 12 15  1  0
 15 16  3  0
  8 17  1  0
 17 18  1  0
 18 19  1  0
 19 20  2  0
 20 21  1  0
 21 22  1  0
 21 23  1  0
  1 24  1  0
 24 25  2  0
 25 26  1  0
 26 27  1  0
 27 28  2  0
 28 29  1  0
 29 30  1  0
 30 31  1  0
 28 32  1  0
 32 33  2  0
 33 34  1  0
 34 35  2  0
 35 36  1  0
 36 37  1  0
 37 38  1  0
 26 39  2  0
 39 40  1  0
 39 41  1  0
 41 42  2  0
 42 43  1  0
 43 44  2  0
 44 45  1  0
 45 46  2  0
 46 47  1  0
 47 48  1  0
 48 49  1  0
 47 50  2  0
 42 51  1  0
 51 52  1  0
 52 53  1  0
 53 54  1  0
 54 55  1  0
 55 56  1  0
 56 57  2  0
 57 58  1  0
 58 59  1  0
 56 60  1  0
 60 61  1  0
 61 62  1  0
 62 63  1  0
 63 64  1  0
 64 65  1  0
 65 66  2  0
 66 67  1  0
 67 68  2  0
 68 69  1  0
 69 70  1  0
 70 71  1  0
 69 72  2  0
 64 73  2  0
 73 74  1  0
 74 75  1  0
 75 76  1  0
 76 77  1  0
 77 78  1  0
 78 79  1  0
 79 80  1  0
 80 81  1  0
 81 82  1  0
 82 83  1  0
 80 84  1  0
 84 85  1  0
 77 86  1  0
 86 87  1  0
 73 88  1  0
 88 89  2  0
 89 90  1  0
 90 91  1  0
 91 92  1  0
 92 93  1  0
 90 94  2  0
 94 95  1  0
 94 96  1  0
 96 97  2  3
 97 98  1  0
 98 99  2  0
 98100  1  0
100101  2  0
101102  1  0
102103  2  0
103104  1  0
104105  2  0
105106  1  0
106107  2  3
107108  1  0
108109  3  0
107110  1  0
110111  3  0
103112  1  0
112113  1  0
113114  1  0
114115  2  0
115116  1  0
116117  1  0
116118  1  0
 11  2  1  0
 23 17  1  0
 40 24  1  0
 83 41  1  0
 95 88  1  0
106 97  1  0
118112  1  0
 10  5  1  0
 22 18  1  0
 35 27  1  0
 50 43  1  0
 82 51  2  0
105100  1  0
117113  1  0
 23  7  1  0
 81 53  2  0
118102  1  0
 79 54  2  0
 59 55  2  0
 78 60  2  0
 76 61  2  0
 75 63  2  0
 72 65  1  0
  1119  1  0
  6120  1  0
  9121  1  0
 17122  1  0
 18123  1  0
 19124  1  0
 20125  1  0
 21126  1  0
 22127  1  0
 22128  1  0
 23129  1  0
 25130  1  0
 30131  1  0
 30132  1  0
 31133  1  0
 31134  1  0
 31135  1  0
 32136  1  0
 33137  1  0
 34138  1  0
 37139  1  0
 37140  1  0
 38141  1  0
 38142  1  0
 38143  1  0
 44144  1  0
 45145  1  0
 46146  1  0
 48147  1  0
 48148  1  0
 49149  1  0
 49150  1  0
 49151  1  0
 50152  1  0
 66153  1  0
 67154  1  0
 68155  1  0
 70156  1  0
 70157  1  0
 71158  1  0
 71159  1  0
 71160  1  0
 72161  1  0
 84162  1  0
 84163  1  0
 85164  1  0
 85165  1  0
 85166  1  0
 86167  1  0
 86168  1  0
 87169  1  0
 87170  1  0
 87171  1  0
 89172  1  0
 92173  1  0
 92174  1  0
 93175  1  0
 93176  1  0
 93177  1  0
 96178  1  0
101179  1  0
104180  1  0
112181  1  0
113182  1  0
114183  1  0
115184  1  0
116185  1  0
117186  1  0
117187  1  0
118188  1  0
M  END

