
     RDKit          3D

187211  0  0  0  0  0  0  0  0999 V2000
    0.0801    3.3374   -7.7866 C   0  0  0  0  0  0  0  0  0  0  0  0
    0.0037    4.1568   -6.7187 C   0  0  0  0  0  0  0  0  0  0  0  0
   -0.0529    3.7241   -5.3134 C   0  0  0  0  0  0  0  0  0  0  0  0
    0.2509    2.5844   -4.8646 O   0  0  0  0  0  0  0  0  0  0  0  0
   -0.5587    4.8135   -4.5109 C   0  0  0  0  0  0  0  0  0  0  0  0
   -0.8909    4.7775   -3.1381 C   0  0  0  0  0  0  0  0  0  0  0  0
   -1.4721    5.9414   -2.6738 C   0  0  0  0  0  0  0  0  0  0  0  0
   -1.7331    7.0741   -3.5113 C   0  0  0  0  0  0  0  0  0  0  0  0
   -1.4058    7.1180   -4.8555 C   0  0  0  0  0  0  0  0  0  0  0  0
   -0.7701    5.9421   -5.3453 C   0  0  0  0  0  0  0  0  0  0  0  0
   -0.3086    5.6198   -6.7257 C   0  0  0  0  0  0  0  0  0  0  0  0
    0.0168    6.5104   -7.6959 C   0  0  0  0  0  0  0  0  0  0  0  0
    0.6821    6.1137   -8.9098 C   0  0  0  0  0  0  0  0  0  0  0  0
    1.2210    5.8090   -9.8904 N   0  0  0  0  0  0  0  0  0  0  0  0
   -0.1246    7.9306   -7.5166 C   0  0  0  0  0  0  0  0  0  0  0  0
   -0.2250    9.0785   -7.3861 N   0  0  0  0  0  0  0  0  0  0  0  0
   -2.3523    7.8039   -2.3567 C   0  0  0  0  0  0  0  0  0  0  0  0
   -1.5331    8.9593   -1.7044 C   0  0  0  0  0  0  0  0  0  0  0  0
   -0.0540    8.6823   -1.8365 C   0  0  0  0  0  0  0  0  0  0  0  0
    0.2104    7.6329   -1.0563 C   0  0  0  0  0  0  0  0  0  0  0  0
   -1.1012    7.2293   -0.4186 C   0  0  0  0  0  0  0  0  0  0  0  0
   -1.7096    8.6103   -0.2368 C   0  0  0  0  0  0  0  0  0  0  0  0
   -2.0702    6.6522   -1.4967 C   0  0  0  0  0  0  0  0  0  0  0  0
    0.2461    1.8853   -7.6465 C   0  0  0  0  0  0  0  0  0  0  0  0
   -1.0330    0.8465   -7.3414 S   0  0  0  0  0  0  0  0  0  0  0  0
   -0.1187   -0.4730   -6.8293 C   0  0  0  0  0  0  0  0  0  0  0  0
    1.2286   -0.1044   -6.8883 C   0  0  0  0  0  0  0  0  0  0  0  0
    2.3724   -0.9353   -6.4608 C   0  0  0  0  0  0  0  0  0  0  0  0
    2.2274   -2.1727   -6.2564 O   0  0  0  0  0  0  0  0  0  0  0  0
    3.6982   -0.2886   -6.3222 C   0  0  0  0  0  0  0  0  0  0  0  0
    4.8412   -0.8643   -5.7508 C   0  0  0  0  0  0  0  0  0  0  0  0
    4.9737   -2.2146   -5.1062 C   0  0  0  0  0  0  0  0  0  0  0  0
    4.3763   -2.2127   -3.7025 C   0  0  0  0  0  0  0  0  0  0  0  0
    6.0682    0.2857   -5.7685 S   0  0  0  0  0  0  0  0  0  0  0  0
    5.2002    1.5114   -6.5249 C   0  0  0  0  0  0  0  0  0  0  0  0
    5.7506    2.8835   -6.7868 C   0  0  0  0  0  0  0  0  0  0  0  0
    5.2819    3.8711   -5.7228 C   0  0  0  0  0  0  0  0  0  0  0  0
    3.8982    1.0413   -6.7521 C   0  0  0  0  0  0  0  0  0  0  0  0
    2.7804    1.8146   -7.3449 C   0  0  0  0  0  0  0  0  0  0  0  0
    2.9685    2.9541   -7.8471 O   0  0  0  0  0  0  0  0  0  0  0  0
    1.4311    1.2145   -7.3394 C   0  0  0  0  0  0  0  0  0  0  0  0
   -0.6989   -1.5385   -5.9943 C   0  0  0  0  0  0  0  0  0  0  0  0
   -1.9899   -2.0911   -6.1759 C   0  0  0  0  0  0  0  0  0  0  0  0
   -2.7438   -2.0359   -7.4486 C   0  0  0  0  0  0  0  0  0  0  0  0
   -4.1014   -1.6742   -7.4793 C   0  0  0  0  0  0  0  0  0  0  0  0
   -4.7921   -1.6318   -8.6941 C   0  0  0  0  0  0  0  0  0  0  0  0
   -4.1346   -1.9415   -9.8880 C   0  0  0  0  0  0  0  0  0  0  0  0
   -2.7768   -2.2864   -9.8773 C   0  0  0  0  0  0  0  0  0  0  0  0
   -2.0676   -2.6400  -11.1561 C   0  0  0  0  0  0  0  0  0  0  0  0
   -2.0405   -4.1530  -11.3609 C   0  0  0  0  0  0  0  0  0  0  0  0
   -2.0893   -2.3425   -8.6537 C   0  0  0  0  0  0  0  0  0  0  0  0
   -2.4466   -2.6842   -4.9948 C   0  0  0  0  0  0  0  0  0  0  0  0
   -3.9696   -3.2714   -4.4655 S   0  0  0  0  0  0  0  0  0  0  0  0
   -3.3906   -3.4096   -2.8729 C   0  0  0  0  0  0  0  0  0  0  0  0
   -3.8225   -3.7145   -1.6129 C   0  0  0  0  0  0  0  0  0  0  0  0
   -5.0462   -4.1802   -1.1197 C   0  0  0  0  0  0  0  0  0  0  0  0
   -5.1670   -4.4361    0.2800 C   0  0  0  0  0  0  0  0  0  0  0  0
   -6.3703   -4.8748    0.7228 N   0  0  0  0  0  0  0  0  0  0  0  0
   -7.1970   -4.9156   -0.7128 S   0  0  0  0  0  0  0  0  0  0  0  0
   -6.1422   -4.4076   -1.8852 N   0  0  0  0  0  0  0  0  0  0  0  0
   -4.0649   -4.1819    1.1103 C   0  0  0  0  0  0  0  0  0  0  0  0
   -3.9544   -4.1235    2.4719 C   0  0  0  0  0  0  0  0  0  0  0  0
   -5.0368   -4.0627    3.7815 S   0  0  0  0  0  0  0  0  0  0  0  0
   -3.8633   -3.3052    4.7626 C   0  0  0  0  0  0  0  0  0  0  0  0
   -3.8948   -2.7159    6.0314 C   0  0  0  0  0  0  0  0  0  0  0  0
   -5.0890   -2.6483    6.8862 C   0  0  0  0  0  0  0  0  0  0  0  0
   -6.2703   -2.0705    6.4018 C   0  0  0  0  0  0  0  0  0  0  0  0
   -7.4102   -2.0164    7.2095 C   0  0  0  0  0  0  0  0  0  0  0  0
   -7.3772   -2.5487    8.5033 C   0  0  0  0  0  0  0  0  0  0  0  0
   -6.1956   -3.1201    9.0034 C   0  0  0  0  0  0  0  0  0  0  0  0
   -6.1747   -3.7292   10.3805 C   0  0  0  0  0  0  0  0  0  0  0  0
   -6.5526   -5.2063   10.3252 C   0  0  0  0  0  0  0  0  0  0  0  0
   -5.0514   -3.1667    8.1900 C   0  0  0  0  0  0  0  0  0  0  0  0
   -2.6765   -2.0751    6.3121 C   0  0  0  0  0  0  0  0  0  0  0  0
   -1.6265   -2.2051    4.9798 S   0  0  0  0  0  0  0  0  0  0  0  0
   -2.7037   -3.0929    4.0662 C   0  0  0  0  0  0  0  0  0  0  0  0
   -2.7682   -3.5164    2.7491 C   0  0  0  0  0  0  0  0  0  0  0  0
   -2.1189   -3.0958    1.6337 N   0  0  0  0  0  0  0  0  0  0  0  0
   -2.8748   -3.6237    0.6204 C   0  0  0  0  0  0  0  0  0  0  0  0
   -2.7195   -3.4758   -0.7760 C   0  0  0  0  0  0  0  0  0  0  0  0
   -1.6094   -3.1350   -1.4997 N   0  0  0  0  0  0  0  0  0  0  0  0
   -2.0919   -3.0521   -2.7628 C   0  0  0  0  0  0  0  0  0  0  0  0
   -1.5497   -2.6433   -3.9590 C   0  0  0  0  0  0  0  0  0  0  0  0
   -0.1716   -1.8148   -4.3951 S   0  0  0  0  0  0  0  0  0  0  0  0
   -0.1985   -3.3819   -1.1593 C   0  0  0  0  0  0  0  0  0  0  0  0
    0.3215   -4.6453   -1.8451 C   0  0  0  0  0  0  0  0  0  0  0  0
   -1.3659   -1.8261    1.5658 C   0  0  0  0  0  0  0  0  0  0  0  0
   -2.2781   -0.6193    1.8257 C   0  0  0  0  0  0  0  0  0  0  0  0
   -2.4422   -1.0529    7.3350 C   0  0  0  0  0  0  0  0  0  0  0  0
   -2.5057    0.3173    7.0184 C   0  0  0  0  0  0  0  0  0  0  0  0
   -3.3247    0.8995    5.8927 C   0  0  0  0  0  0  0  0  0  0  0  0
   -4.5007    1.6893    6.4564 C   0  0  0  0  0  0  0  0  0  0  0  0
   -1.5542    1.0519    7.7317 C   0  0  0  0  0  0  0  0  0  0  0  0
   -0.7915    0.3263    8.6017 C   0  0  0  0  0  0  0  0  0  0  0  0
   -1.2266   -1.2849    8.4993 S   0  0  0  0  0  0  0  0  0  0  0  0
    0.4473    0.8733    8.9144 C   0  0  0  0  0  0  0  0  0  0  0  0
    0.6648    2.0604    8.2053 C   0  0  0  0  0  0  0  0  0  0  0  0
   -0.7061    2.4249    7.2720 S   0  0  0  0  0  0  0  0  0  0  0  0
    1.9880    2.6483    7.9385 C   0  0  0  0  0  0  0  0  0  0  0  0
    3.0209    1.9507    7.4159 C   0  0  0  0  0  0  0  0  0  0  0  0
    2.9337    0.5940    6.8363 C   0  0  0  0  0  0  0  0  0  0  0  0
    1.9194   -0.1489    6.8068 O   0  0  0  0  0  0  0  0  0  0  0  0
    4.1620    0.3013    6.1382 C   0  0  0  0  0  0  0  0  0  0  0  0
    4.4634   -0.8833    5.4277 C   0  0  0  0  0  0  0  0  0  0  0  0
    5.6960   -0.8692    4.8111 C   0  0  0  0  0  0  0  0  0  0  0  0
    6.5883    0.2471    4.8760 C   0  0  0  0  0  0  0  0  0  0  0  0
    6.2977    1.4139    5.5685 C   0  0  0  0  0  0  0  0  0  0  0  0
    5.0317    1.4179    6.2250 C   0  0  0  0  0  0  0  0  0  0  0  0
    4.3901    2.4664    7.0790 C   0  0  0  0  0  0  0  0  0  0  0  0
    4.9853    3.5806    7.5864 C   0  0  0  0  0  0  0  0  0  0  0  0
    4.3951    4.3535    8.6486 C   0  0  0  0  0  0  0  0  0  0  0  0
    3.9342    4.9833    9.5039 N   0  0  0  0  0  0  0  0  0  0  0  0
    6.2843    4.0365    7.1694 C   0  0  0  0  0  0  0  0  0  0  0  0
    7.3261    4.4275    6.8432 N   0  0  0  0  0  0  0  0  0  0  0  0
    7.5711   -0.4682    3.9964 C   0  0  0  0  0  0  0  0  0  0  0  0
    7.6540    0.0077    2.5153 C   0  0  0  0  0  0  0  0  0  0  0  0
    8.3836   -1.0853    1.7690 C   0  0  0  0  0  0  0  0  0  0  0  0
    7.5502   -2.1318    1.7188 C   0  0  0  0  0  0  0  0  0  0  0  0
    6.2870   -1.7072    2.4281 C   0  0  0  0  0  0  0  0  0  0  0  0
    6.2505   -0.2529    1.9912 C   0  0  0  0  0  0  0  0  0  0  0  0
    6.6585   -1.6130    3.9388 C   0  0  0  0  0  0  0  0  0  0  0  0
   -0.0929    3.7079   -8.7824 H   0  0  0  0  0  0  0  0  0  0  0  0
   -0.7421    3.9081   -2.5123 H   0  0  0  0  0  0  0  0  0  0  0  0
   -1.6612    7.9747   -5.4586 H   0  0  0  0  0  0  0  0  0  0  0  0
   -3.4390    8.0073   -2.4813 H   0  0  0  0  0  0  0  0  0  0  0  0
   -1.8467    9.9844   -1.9925 H   0  0  0  0  0  0  0  0  0  0  0  0
    0.6755    9.2666   -2.3862 H   0  0  0  0  0  0  0  0  0  0  0  0
    1.1916    7.2152   -0.8616 H   0  0  0  0  0  0  0  0  0  0  0  0
   -1.0076    6.6243    0.5081 H   0  0  0  0  0  0  0  0  0  0  0  0
   -2.7761    8.5880    0.0904 H   0  0  0  0  0  0  0  0  0  0  0  0
   -1.1215    9.2663    0.4511 H   0  0  0  0  0  0  0  0  0  0  0  0
   -2.9817    6.1587   -1.0912 H   0  0  0  0  0  0  0  0  0  0  0  0
    4.4804   -2.9911   -5.7274 H   0  0  0  0  0  0  0  0  0  0  0  0
    6.0500   -2.4873   -5.0403 H   0  0  0  0  0  0  0  0  0  0  0  0
    3.2966   -1.9417   -3.7316 H   0  0  0  0  0  0  0  0  0  0  0  0
    4.4720   -3.2243   -3.2542 H   0  0  0  0  0  0  0  0  0  0  0  0
    4.9142   -1.4842   -3.0583 H   0  0  0  0  0  0  0  0  0  0  0  0
    5.4500    3.2305   -7.7980 H   0  0  0  0  0  0  0  0  0  0  0  0
    6.8604    2.8389   -6.7724 H   0  0  0  0  0  0  0  0  0  0  0  0
    5.5887    3.5229   -4.7153 H   0  0  0  0  0  0  0  0  0  0  0  0
    4.1758    3.9796   -5.7442 H   0  0  0  0  0  0  0  0  0  0  0  0
    5.7382    4.8650   -5.9153 H   0  0  0  0  0  0  0  0  0  0  0  0
   -4.6204   -1.4045   -6.5679 H   0  0  0  0  0  0  0  0  0  0  0  0
   -5.8390   -1.3496   -8.7114 H   0  0  0  0  0  0  0  0  0  0  0  0
   -4.6848   -1.9088  -10.8191 H   0  0  0  0  0  0  0  0  0  0  0  0
   -2.5708   -2.1643  -12.0269 H   0  0  0  0  0  0  0  0  0  0  0  0
   -1.0252   -2.2563  -11.1270 H   0  0  0  0  0  0  0  0  0  0  0  0
   -1.5570   -4.6508  -10.4915 H   0  0  0  0  0  0  0  0  0  0  0  0
   -3.0751   -4.5430  -11.4796 H   0  0  0  0  0  0  0  0  0  0  0  0
   -1.4600   -4.3963  -12.2761 H   0  0  0  0  0  0  0  0  0  0  0  0
   -1.0452   -2.6350   -8.6419 H   0  0  0  0  0  0  0  0  0  0  0  0
   -6.3053   -1.6506    5.4038 H   0  0  0  0  0  0  0  0  0  0  0  0
   -8.3201   -1.5719    6.8293 H   0  0  0  0  0  0  0  0  0  0  0  0
   -8.2688   -2.5089    9.1133 H   0  0  0  0  0  0  0  0  0  0  0  0
   -6.8884   -3.1953   11.0438 H   0  0  0  0  0  0  0  0  0  0  0  0
   -5.1635   -3.6258   10.8303 H   0  0  0  0  0  0  0  0  0  0  0  0
   -6.5407   -5.6331   11.3511 H   0  0  0  0  0  0  0  0  0  0  0  0
   -7.5749   -5.3284    9.9055 H   0  0  0  0  0  0  0  0  0  0  0  0
   -5.8289   -5.7701    9.6972 H   0  0  0  0  0  0  0  0  0  0  0  0
   -4.1404   -3.6178    8.5621 H   0  0  0  0  0  0  0  0  0  0  0  0
   -0.0769   -3.5441   -0.0714 H   0  0  0  0  0  0  0  0  0  0  0  0
    0.4186   -2.5111   -1.4655 H   0  0  0  0  0  0  0  0  0  0  0  0
   -0.3256   -5.5130   -1.5902 H   0  0  0  0  0  0  0  0  0  0  0  0
    1.3538   -4.8580   -1.4961 H   0  0  0  0  0  0  0  0  0  0  0  0
    0.3453   -4.5155   -2.9478 H   0  0  0  0  0  0  0  0  0  0  0  0
   -0.5273   -1.8384    2.2891 H   0  0  0  0  0  0  0  0  0  0  0  0
   -0.9369   -1.6593    0.5682 H   0  0  0  0  0  0  0  0  0  0  0  0
   -3.1925   -0.6863    1.2017 H   0  0  0  0  0  0  0  0  0  0  0  0
   -1.7377    0.3183    1.5732 H   0  0  0  0  0  0  0  0  0  0  0  0
   -2.5718   -0.5666    2.8896 H   0  0  0  0  0  0  0  0  0  0  0  0
   -2.6957    1.5661    5.2633 H   0  0  0  0  0  0  0  0  0  0  0  0
   -3.7214    0.0990    5.2351 H   0  0  0  0  0  0  0  0  0  0  0  0
   -5.1134    2.0991    5.6238 H   0  0  0  0  0  0  0  0  0  0  0  0
   -5.1412    1.0237    7.0786 H   0  0  0  0  0  0  0  0  0  0  0  0
   -4.1339    2.5356    7.0796 H   0  0  0  0  0  0  0  0  0  0  0  0
    1.2249    0.3362    9.4348 H   0  0  0  0  0  0  0  0  0  0  0  0
    2.0571    3.7177    8.0601 H   0  0  0  0  0  0  0  0  0  0  0  0
    3.7815   -1.7205    5.3482 H   0  0  0  0  0  0  0  0  0  0  0  0
    6.9964    2.2315    5.5593 H   0  0  0  0  0  0  0  0  0  0  0  0
    8.5468   -0.6756    4.4931 H   0  0  0  0  0  0  0  0  0  0  0  0
    8.0478    1.0351    2.3550 H   0  0  0  0  0  0  0  0  0  0  0  0
    9.3539   -1.0202    1.2868 H   0  0  0  0  0  0  0  0  0  0  0  0
    7.7255   -3.0577    1.1841 H   0  0  0  0  0  0  0  0  0  0  0  0
    5.3853   -2.3089    2.1928 H   0  0  0  0  0  0  0  0  0  0  0  0
    5.4601    0.3567    2.4803 H   0  0  0  0  0  0  0  0  0  0  0  0
    6.1561   -0.1290    0.8835 H   0  0  0  0  0  0  0  0  0  0  0  0
    7.0530   -2.5484    4.3959 H   0  0  0  0  0  0  0  0  0  0  0  0
  1  2  2  3
  2  3  1  0
  3  4  2  0
  3  5  1  0
  5  6  2  0
  6  7  1  0
  7  8  2  0
  8  9  1  0
  9 10  2  0
 10 11  1  0
 11 12  2  3
 12 13  1  0
 13 14  3  0
 12 15  1  0
 15 16  3  0
  8 17  1  0
 17 18  1  0
 18 19  1  0
 19 20  2  0
 20 21  1  0
 21 22  1  0
 21 23  1  0
  1 24  1  0
 24 25  1  0
 25 26  1  0
 26 27  2  0
 27 28  1  0
 28 29  2  0
 28 30  1  0
 30 31  2  0
 31 32  1  0
 32 33  1  0
 31 34  1  0
 34 35  1  0
 35 36  1  0
 36 37  1  0
 35 38  2  0
 38 39  1  0
 39 40  2  0
 39 41  1  0
 26 42  1  0
 42 43  2  0
 43 44  1  0
 44 45  2  0
 45 46  1  0
 46 47  2  0
 47 48  1  0
 48 49  1  0
 49 50  1  0
 48 51  2  0
 43 52  1  0
 52 53  1  0
 53 54  1  0
 54 55  1  0
 55 56  1  0
 56 57  1  0
 57 58  2  0
 58 59  1  0
 59 60  1  0
 57 61  1  0
 61 62  1  0
 62 63  1  0
 63 64  1  0
 64 65  1  0
 65 66  1  0
 66 67  2  0
 67 68  1  0
 68 69  2  0
 69 70  1  0
 70 71  1  0
 71 72  1  0
 70 73  2  0
 65 74  2  0
 74 75  1  0
 75 76  1  0
 76 77  1  0
 77 78  1  0
 78 79  1  0
 79 80  1  0
 80 81  1  0
 81 82  1  0
 82 83  1  0
 83 84  1  0
 81 85  1  0
 85 86  1  0
 78 87  1  0
 87 88  1  0
 74 89  1  0
 89 90  2  0
 90 91  1  0
 91 92  1  0
 90 93  1  0
 93 94  2  0
 94 95  1  0
 94 96  1  0
 96 97  2  0
 97 98  1  0
 97 99  1  0
 99100  2  3
100101  1  0
101102  2  0
101103  1  0
103104  2  0
104105  1  0
105106  2  0
106107  1  0
107108  2  0
108109  1  0
109110  2  3
110111  1  0
111112  3  0
110113  1  0
113114  3  0
106115  1  0
115116  1  0
116117  1  0
117118  2  0
118119  1  0
119120  1  0
119121  1  0
 11  2  1  0
 23 17  1  0
 41 24  2  0
 84 42  1  0
 95 89  1  0
109100  1  0
121115  1  0
 10  5  1  0
 22 18  1  0
 41 27  1  0
 51 44  1  0
 83 52  2  0
 98 93  1  0
108103  1  0
120116  1  0
 23  7  1  0
 38 30  1  0
 82 54  2  0
121105  1  0
 80 55  2  0
 60 56  2  0
 79 61  2  0
 77 62  2  0
 76 64  2  0
 73 66  1  0
  1122  1  0
  6123  1  0
  9124  1  0
 17125  1  0
 18126  1  0
 19127  1  0
 20128  1  0
 21129  1  0
 22130  1  0
 22131  1  0
 23132  1  0
 32133  1  0
 32134  1  0
 33135  1  0
 33136  1  0
 33137  1  0
 36138  1  0
 36139  1  0
 37140  1  0
 37141  1  0
 37142  1  0
 45143  1  0
 46144  1  0
 47145  1  0
 49146  1  0
 49147  1  0
 50148  1  0
 50149  1  0
 50150  1  0
 51151  1  0
 67152  1  0
 68153  1  0
 69154  1  0
 71155  1  0
 71156  1  0
 72157  1  0
 72158  1  0
 72159  1  0
 73160  1  0
 85161  1  0
 85162  1  0
 86163  1  0
 86164  1  0
 86165  1  0
 87166  1  0
 87167  1  0
 88168  1  0
 88169  1  0
 88170  1  0
 91171  1  0
 91172  1  0
 92173  1  0
 92174  1  0
 92175  1  0
 96176  1  0
 99177  1  0
104178  1  0
107179  1  0
115180  1  0
116181  1  0
117182  1  0
118183  1  0
119184  1  0
120185  1  0
120186  1  0
121187  1  0
M  END

