
     RDKit          3D

203229  0  0  0  0  0  0  0  0999 V2000
    7.5532   -4.3549   -0.2645 C   0  0  0  0  0  0  0  0  0  0  0  0
    7.4193   -3.8818   -1.5247 C   0  0  0  0  0  0  0  0  0  0  0  0
    6.2345   -4.0676   -2.3731 C   0  0  0  0  0  0  0  0  0  0  0  0
    5.4659   -5.0641   -2.3628 O   0  0  0  0  0  0  0  0  0  0  0  0
    6.0661   -2.8945   -3.1949 C   0  0  0  0  0  0  0  0  0  0  0  0
    4.8868   -2.4969   -3.8649 C   0  0  0  0  0  0  0  0  0  0  0  0
    4.9055   -1.1840   -4.3069 C   0  0  0  0  0  0  0  0  0  0  0  0
    6.0275   -0.3149   -4.1163 C   0  0  0  0  0  0  0  0  0  0  0  0
    7.1913   -0.7064   -3.4687 C   0  0  0  0  0  0  0  0  0  0  0  0
    7.1851   -2.0499   -3.0077 C   0  0  0  0  0  0  0  0  0  0  0  0
    8.1478   -2.7181   -2.0956 C   0  0  0  0  0  0  0  0  0  0  0  0
    9.4740   -2.4653   -1.9894 C   0  0  0  0  0  0  0  0  0  0  0  0
   10.3510   -3.3342   -1.2455 C   0  0  0  0  0  0  0  0  0  0  0  0
   11.0660   -4.0362   -0.6619 N   0  0  0  0  0  0  0  0  0  0  0  0
   10.1202   -1.4444   -2.7775 C   0  0  0  0  0  0  0  0  0  0  0  0
   10.6490   -0.6448   -3.4189 N   0  0  0  0  0  0  0  0  0  0  0  0
    5.2748    0.8193   -4.7497 C   0  0  0  0  0  0  0  0  0  0  0  0
    5.6524    1.2313   -6.2041 C   0  0  0  0  0  0  0  0  0  0  0  0
    6.1327    0.0246   -6.9810 C   0  0  0  0  0  0  0  0  0  0  0  0
    5.0798   -0.7759   -7.1416 C   0  0  0  0  0  0  0  0  0  0  0  0
    3.9139   -0.0882   -6.4720 C   0  0  0  0  0  0  0  0  0  0  0  0
    4.2574    1.3519   -6.8025 C   0  0  0  0  0  0  0  0  0  0  0  0
    4.1252   -0.0679   -4.9340 C   0  0  0  0  0  0  0  0  0  0  0  0
    6.4734   -5.0883    0.4440 C   0  0  0  0  0  0  0  0  0  0  0  0
    6.7599   -6.3162    1.0646 C   0  0  0  0  0  0  0  0  0  0  0  0
    8.0315   -6.7929    1.0642 F   0  0  0  0  0  0  0  0  0  0  0  0
    5.7433   -7.0566    1.6842 C   0  0  0  0  0  0  0  0  0  0  0  0
    6.0567   -8.2059    2.3291 F   0  0  0  0  0  0  0  0  0  0  0  0
    4.4133   -6.5965    1.6492 C   0  0  0  0  0  0  0  0  0  0  0  0
    4.1281   -5.3592    1.0406 C   0  0  0  0  0  0  0  0  0  0  0  0
    2.8520   -4.8907    0.9647 N   0  0  0  0  0  0  0  0  0  0  0  0
    2.5541   -3.6634    0.4678 C   0  0  0  0  0  0  0  0  0  0  0  0
    1.1486   -3.2406    0.4669 C   0  0  0  0  0  0  0  0  0  0  0  0
   -0.0836   -4.0117   -0.3921 S   0  0  0  0  0  0  0  0  0  0  0  0
   -1.3073   -2.9626    0.0889 C   0  0  0  0  0  0  0  0  0  0  0  0
   -2.7218   -3.0113   -0.3910 C   0  0  0  0  0  0  0  0  0  0  0  0
   -2.9861   -1.9281   -1.4356 C   0  0  0  0  0  0  0  0  0  0  0  0
   -0.7663   -2.0019    0.9403 C   0  0  0  0  0  0  0  0  0  0  0  0
    0.6082   -2.1556    1.1512 C   0  0  0  0  0  0  0  0  0  0  0  0
    1.3370   -1.3366    1.9548 F   0  0  0  0  0  0  0  0  0  0  0  0
   -1.5006   -1.0136    1.5152 F   0  0  0  0  0  0  0  0  0  0  0  0
    3.6071   -2.8291    0.0353 C   0  0  0  0  0  0  0  0  0  0  0  0
    4.8805   -3.3105    0.0804 N   0  0  0  0  0  0  0  0  0  0  0  0
    5.1671   -4.5683    0.5218 C   0  0  0  0  0  0  0  0  0  0  0  0
    3.3994   -1.4411   -0.4225 C   0  0  0  0  0  0  0  0  0  0  0  0
    4.1958   -0.0981    0.2147 S   0  0  0  0  0  0  0  0  0  0  0  0
    3.3468    1.0601   -0.6657 C   0  0  0  0  0  0  0  0  0  0  0  0
    3.5034    2.5433   -0.5134 C   0  0  0  0  0  0  0  0  0  0  0  0
    4.6333    3.0783   -1.3885 C   0  0  0  0  0  0  0  0  0  0  0  0
    2.4494    0.4029   -1.5087 C   0  0  0  0  0  0  0  0  0  0  0  0
    1.6012    1.0540   -2.3451 F   0  0  0  0  0  0  0  0  0  0  0  0
    2.4747   -0.9915   -1.3695 C   0  0  0  0  0  0  0  0  0  0  0  0
    1.6884   -1.8166   -2.1044 F   0  0  0  0  0  0  0  0  0  0  0  0
    3.3247   -7.3383    2.3130 C   0  0  0  0  0  0  0  0  0  0  0  0
    2.6318   -8.4118    1.7256 C   0  0  0  0  0  0  0  0  0  0  0  0
    3.0661   -9.0897    0.4913 C   0  0  0  0  0  0  0  0  0  0  0  0
    4.1377   -9.9920    0.5231 C   0  0  0  0  0  0  0  0  0  0  0  0
    4.5201  -10.6665   -0.6388 C   0  0  0  0  0  0  0  0  0  0  0  0
    3.8413  -10.4400   -1.8380 C   0  0  0  0  0  0  0  0  0  0  0  0
    2.7767   -9.5277   -1.8862 C   0  0  0  0  0  0  0  0  0  0  0  0
    1.9943   -9.3380   -3.1566 C   0  0  0  0  0  0  0  0  0  0  0  0
    0.7666  -10.2418   -3.1720 C   0  0  0  0  0  0  0  0  0  0  0  0
    2.3912   -8.8554   -0.7160 C   0  0  0  0  0  0  0  0  0  0  0  0
    1.3386   -8.5364    2.2540 C   0  0  0  0  0  0  0  0  0  0  0  0
   -0.0395   -9.3233    1.6560 S   0  0  0  0  0  0  0  0  0  0  0  0
   -1.0696   -8.4243    2.6605 C   0  0  0  0  0  0  0  0  0  0  0  0
   -2.3250   -7.9246    2.4453 C   0  0  0  0  0  0  0  0  0  0  0  0
   -3.2174   -8.2191    1.4014 C   0  0  0  0  0  0  0  0  0  0  0  0
   -4.2521   -7.2873    1.0921 C   0  0  0  0  0  0  0  0  0  0  0  0
   -5.0619   -7.5803    0.0438 N   0  0  0  0  0  0  0  0  0  0  0  0
   -4.3828   -9.0157   -0.4341 S   0  0  0  0  0  0  0  0  0  0  0  0
   -3.1184   -9.3094    0.6019 N   0  0  0  0  0  0  0  0  0  0  0  0
   -4.3703   -6.1382    1.8763 C   0  0  0  0  0  0  0  0  0  0  0  0
   -5.1882   -5.0433    1.7811 C   0  0  0  0  0  0  0  0  0  0  0  0
   -6.0832   -4.2540    0.5690 S   0  0  0  0  0  0  0  0  0  0  0  0
   -6.0738   -2.7977    1.4683 C   0  0  0  0  0  0  0  0  0  0  0  0
   -6.3353   -1.4725    1.1133 C   0  0  0  0  0  0  0  0  0  0  0  0
   -6.7983   -1.0603   -0.2366 C   0  0  0  0  0  0  0  0  0  0  0  0
   -7.9076   -1.6737   -0.8397 C   0  0  0  0  0  0  0  0  0  0  0  0
   -8.3622   -1.2320   -2.0868 C   0  0  0  0  0  0  0  0  0  0  0  0
   -7.7165   -0.1741   -2.7470 C   0  0  0  0  0  0  0  0  0  0  0  0
   -6.5977    0.4416   -2.1586 C   0  0  0  0  0  0  0  0  0  0  0  0
   -5.9387    1.6302   -2.8083 C   0  0  0  0  0  0  0  0  0  0  0  0
   -4.5455    1.2838   -3.3225 C   0  0  0  0  0  0  0  0  0  0  0  0
   -6.1266   -0.0327   -0.9256 C   0  0  0  0  0  0  0  0  0  0  0  0
   -5.8472   -0.5812    2.0984 C   0  0  0  0  0  0  0  0  0  0  0  0
   -5.0135   -1.4410    3.3103 S   0  0  0  0  0  0  0  0  0  0  0  0
   -5.3673   -2.9390    2.6413 C   0  0  0  0  0  0  0  0  0  0  0  0
   -4.8567   -4.2135    2.7994 C   0  0  0  0  0  0  0  0  0  0  0  0
   -3.8606   -4.7047    3.5704 N   0  0  0  0  0  0  0  0  0  0  0  0
   -3.5107   -5.8704    2.9483 C   0  0  0  0  0  0  0  0  0  0  0  0
   -2.3874   -6.7145    3.1550 C   0  0  0  0  0  0  0  0  0  0  0  0
   -1.1564   -6.4006    3.6797 N   0  0  0  0  0  0  0  0  0  0  0  0
   -0.3890   -7.4942    3.3961 C   0  0  0  0  0  0  0  0  0  0  0  0
    0.9918   -7.5958    3.1946 C   0  0  0  0  0  0  0  0  0  0  0  0
    2.3002   -6.5818    3.4442 S   0  0  0  0  0  0  0  0  0  0  0  0
   -0.6012   -5.0442    3.8480 C   0  0  0  0  0  0  0  0  0  0  0  0
    0.0202   -4.8584    5.2328 C   0  0  0  0  0  0  0  0  0  0  0  0
   -3.5612   -4.2885    4.9469 C   0  0  0  0  0  0  0  0  0  0  0  0
   -4.8096   -4.3189    5.8199 C   0  0  0  0  0  0  0  0  0  0  0  0
   -5.8931    0.8908    2.0013 C   0  0  0  0  0  0  0  0  0  0  0  0
   -4.6888    1.6182    1.8880 C   0  0  0  0  0  0  0  0  0  0  0  0
   -4.7592    2.9462    1.4698 C   0  0  0  0  0  0  0  0  0  0  0  0
   -3.6967    3.8337    1.0208 C   0  0  0  0  0  0  0  0  0  0  0  0
   -2.4611    3.5970    1.0481 O   0  0  0  0  0  0  0  0  0  0  0  0
   -4.3438    5.0131    0.4532 C   0  0  0  0  0  0  0  0  0  0  0  0
   -5.7138    4.8655    0.5887 C   0  0  0  0  0  0  0  0  0  0  0  0
   -5.9742    3.5647    1.2052 C   0  0  0  0  0  0  0  0  0  0  0  0
   -7.1817    2.8872    1.3715 C   0  0  0  0  0  0  0  0  0  0  0  0
   -7.1325    1.5402    1.7763 C   0  0  0  0  0  0  0  0  0  0  0  0
   -6.6028    5.7966    0.0582 C   0  0  0  0  0  0  0  0  0  0  0  0
   -6.0700    6.9071   -0.6186 C   0  0  0  0  0  0  0  0  0  0  0  0
   -4.6739    7.0618   -0.7733 C   0  0  0  0  0  0  0  0  0  0  0  0
   -3.7949    6.0937   -0.2357 C   0  0  0  0  0  0  0  0  0  0  0  0
   -4.1189    8.1709   -1.5609 C   0  0  0  0  0  0  0  0  0  0  0  0
   -4.1364    9.4554   -1.1668 C   0  0  0  0  0  0  0  0  0  0  0  0
   -4.5733    9.9480    0.1486 C   0  0  0  0  0  0  0  0  0  0  0  0
   -5.3197    9.3466    0.9702 O   0  0  0  0  0  0  0  0  0  0  0  0
   -3.9289   11.2196    0.3899 C   0  0  0  0  0  0  0  0  0  0  0  0
   -3.9106   11.9437    1.6044 C   0  0  0  0  0  0  0  0  0  0  0  0
   -3.0255   13.0065    1.6059 C   0  0  0  0  0  0  0  0  0  0  0  0
   -2.1912   13.3353    0.4878 C   0  0  0  0  0  0  0  0  0  0  0  0
   -2.2175   12.6398   -0.7093 C   0  0  0  0  0  0  0  0  0  0  0  0
   -3.1407   11.5669   -0.7405 C   0  0  0  0  0  0  0  0  0  0  0  0
   -3.3721   10.5592   -1.8084 C   0  0  0  0  0  0  0  0  0  0  0  0
   -3.1566   10.7216   -3.1393 C   0  0  0  0  0  0  0  0  0  0  0  0
   -2.5101   11.8871   -3.6798 C   0  0  0  0  0  0  0  0  0  0  0  0
   -1.9881   12.8221   -4.1201 N   0  0  0  0  0  0  0  0  0  0  0  0
   -3.7142    9.8212   -4.1164 C   0  0  0  0  0  0  0  0  0  0  0  0
   -4.1679    9.1048   -4.9059 N   0  0  0  0  0  0  0  0  0  0  0  0
   -1.4984   14.3981    1.2948 C   0  0  0  0  0  0  0  0  0  0  0  0
   -0.0706   14.0839    1.8424 C   0  0  0  0  0  0  0  0  0  0  0  0
    0.0675   12.5964    2.1055 C   0  0  0  0  0  0  0  0  0  0  0  0
   -0.7270   12.3179    3.1361 C   0  0  0  0  0  0  0  0  0  0  0  0
   -1.3821   13.6162    3.5408 C   0  0  0  0  0  0  0  0  0  0  0  0
   -0.2288   14.5618    3.2730 C   0  0  0  0  0  0  0  0  0  0  0  0
   -2.3762   14.0769    2.4275 C   0  0  0  0  0  0  0  0  0  0  0  0
    8.4208   -4.0844    0.3183 H   0  0  0  0  0  0  0  0  0  0  0  0
    4.0121   -3.1289   -3.9439 H   0  0  0  0  0  0  0  0  0  0  0  0
    7.9844   -0.0080   -3.2603 H   0  0  0  0  0  0  0  0  0  0  0  0
    5.0810    1.6640   -4.0629 H   0  0  0  0  0  0  0  0  0  0  0  0
    6.2933    2.1381   -6.2844 H   0  0  0  0  0  0  0  0  0  0  0  0
    7.1182   -0.1394   -7.4015 H   0  0  0  0  0  0  0  0  0  0  0  0
    5.0582   -1.7002   -7.7058 H   0  0  0  0  0  0  0  0  0  0  0  0
    2.9164   -0.4428   -6.8086 H   0  0  0  0  0  0  0  0  0  0  0  0
    3.6049    2.0949   -6.2816 H   0  0  0  0  0  0  0  0  0  0  0  0
    4.2554    1.5618   -7.9025 H   0  0  0  0  0  0  0  0  0  0  0  0
    3.2279    0.2377   -4.3509 H   0  0  0  0  0  0  0  0  0  0  0  0
   -2.9344   -4.0121   -0.8332 H   0  0  0  0  0  0  0  0  0  0  0  0
   -3.4068   -2.8644    0.4685 H   0  0  0  0  0  0  0  0  0  0  0  0
   -2.8722   -0.9245   -0.9695 H   0  0  0  0  0  0  0  0  0  0  0  0
   -4.0226   -2.0222   -1.8244 H   0  0  0  0  0  0  0  0  0  0  0  0
   -2.2705   -2.0177   -2.2860 H   0  0  0  0  0  0  0  0  0  0  0  0
    3.7239    2.7797    0.5497 H   0  0  0  0  0  0  0  0  0  0  0  0
    2.5585    3.0599   -0.7810 H   0  0  0  0  0  0  0  0  0  0  0  0
    5.5621    2.4868   -1.2201 H   0  0  0  0  0  0  0  0  0  0  0  0
    4.3384    3.0335   -2.4524 H   0  0  0  0  0  0  0  0  0  0  0  0
    4.8377    4.1386   -1.1216 H   0  0  0  0  0  0  0  0  0  0  0  0
    4.6593  -10.1952    1.4526 H   0  0  0  0  0  0  0  0  0  0  0  0
    5.3441  -11.3713   -0.6104 H   0  0  0  0  0  0  0  0  0  0  0  0
    4.1392  -10.9845   -2.7269 H   0  0  0  0  0  0  0  0  0  0  0  0
    2.6282   -9.5698   -4.0415 H   0  0  0  0  0  0  0  0  0  0  0  0
    1.6744   -8.2769   -3.2496 H   0  0  0  0  0  0  0  0  0  0  0  0
    0.1839  -10.0662   -4.1029 H   0  0  0  0  0  0  0  0  0  0  0  0
    0.1083  -10.0231   -2.3054 H   0  0  0  0  0  0  0  0  0  0  0  0
    1.0725  -11.3080   -3.1389 H   0  0  0  0  0  0  0  0  0  0  0  0
    1.5600   -8.1584   -0.7411 H   0  0  0  0  0  0  0  0  0  0  0  0
   -8.4403   -2.4730   -0.3341 H   0  0  0  0  0  0  0  0  0  0  0  0
   -9.2328   -1.6906   -2.5423 H   0  0  0  0  0  0  0  0  0  0  0  0
   -8.0938    0.1675   -3.7074 H   0  0  0  0  0  0  0  0  0  0  0  0
   -5.8618    2.4594   -2.0735 H   0  0  0  0  0  0  0  0  0  0  0  0
   -6.5529    2.0007   -3.6598 H   0  0  0  0  0  0  0  0  0  0  0  0
   -3.8926    0.9556   -2.4836 H   0  0  0  0  0  0  0  0  0  0  0  0
   -4.0851    2.1780   -3.7852 H   0  0  0  0  0  0  0  0  0  0  0  0
   -4.6039    0.4782   -4.0813 H   0  0  0  0  0  0  0  0  0  0  0  0
   -5.2334    0.4145   -0.5058 H   0  0  0  0  0  0  0  0  0  0  0  0
    0.1708   -4.8696    3.0653 H   0  0  0  0  0  0  0  0  0  0  0  0
   -1.3474   -4.2554    3.6485 H   0  0  0  0  0  0  0  0  0  0  0  0
    0.5393   -5.7834    5.5661 H   0  0  0  0  0  0  0  0  0  0  0  0
   -0.7453   -4.5892    5.9813 H   0  0  0  0  0  0  0  0  0  0  0  0
    0.7691   -4.0451    5.1951 H   0  0  0  0  0  0  0  0  0  0  0  0
   -2.8460   -4.9915    5.4052 H   0  0  0  0  0  0  0  0  0  0  0  0
   -3.1300   -3.2653    4.9465 H   0  0  0  0  0  0  0  0  0  0  0  0
   -5.2098   -5.3594    5.8735 H   0  0  0  0  0  0  0  0  0  0  0  0
   -4.5585   -3.9745    6.8465 H   0  0  0  0  0  0  0  0  0  0  0  0
   -5.6016   -3.6501    5.4169 H   0  0  0  0  0  0  0  0  0  0  0  0
   -3.7328    1.1276    2.0050 H   0  0  0  0  0  0  0  0  0  0  0  0
   -8.1236    3.3560    1.1292 H   0  0  0  0  0  0  0  0  0  0  0  0
   -8.0577    0.9821    1.8322 H   0  0  0  0  0  0  0  0  0  0  0  0
   -7.6754    5.6720    0.1524 H   0  0  0  0  0  0  0  0  0  0  0  0
   -6.7475    7.6371   -1.0449 H   0  0  0  0  0  0  0  0  0  0  0  0
   -2.7207    6.1759   -0.3673 H   0  0  0  0  0  0  0  0  0  0  0  0
   -3.5328    7.8845   -2.4258 H   0  0  0  0  0  0  0  0  0  0  0  0
   -4.4674   11.6615    2.4885 H   0  0  0  0  0  0  0  0  0  0  0  0
   -1.5088   12.8711   -1.4908 H   0  0  0  0  0  0  0  0  0  0  0  0
   -1.6345   15.4314    0.8976 H   0  0  0  0  0  0  0  0  0  0  0  0
    0.7677   14.5345    1.2655 H   0  0  0  0  0  0  0  0  0  0  0  0
    0.7104   11.8894    1.5963 H   0  0  0  0  0  0  0  0  0  0  0  0
   -0.8182   11.3568    3.6268 H   0  0  0  0  0  0  0  0  0  0  0  0
   -1.7908   13.6427    4.5755 H   0  0  0  0  0  0  0  0  0  0  0  0
   -0.4946   15.6473    3.3460 H   0  0  0  0  0  0  0  0  0  0  0  0
    0.6687   14.3520    3.9087 H   0  0  0  0  0  0  0  0  0  0  0  0
   -3.0585   14.9031    2.7216 H   0  0  0  0  0  0  0  0  0  0  0  0
  1  2  2  3
  2  3  1  0
  3  4  2  0
  3  5  1  0
  5  6  2  0
  6  7  1  0
  7  8  2  0
  8  9  1  0
  9 10  2  0
 10 11  1  0
 11 12  2  3
 12 13  1  0
 13 14  3  0
 12 15  1  0
 15 16  3  0
  8 17  1  0
 17 18  1  0
 18 19  1  0
 19 20  2  0
 20 21  1  0
 21 22  1  0
 21 23  1  0
  1 24  1  0
 24 25  2  0
 25 26  1  0
 25 27  1  0
 27 28  1  0
 27 29  2  0
 29 30  1  0
 30 31  2  0
 31 32  1  0
 32 33  1  0
 33 34  1  0
 34 35  1  0
 35 36  1  0
 36 37  1  0
 35 38  2  0
 38 39  1  0
 39 40  1  0
 38 41  1  0
 32 42  2  0
 42 43  1  0
 43 44  2  0
 42 45  1  0
 45 46  1  0
 46 47  1  0
 47 48  1  0
 48 49  1  0
 47 50  2  0
 50 51  1  0
 50 52  1  0
 52 53  1  0
 29 54  1  0
 54 55  2  0
 55 56  1  0
 56 57  2  0
 57 58  1  0
 58 59  2  0
 59 60  1  0
 60 61  1  0
 61 62  1  0
 60 63  2  0
 55 64  1  0
 64 65  1  0
 65 66  1  0
 66 67  1  0
 67 68  1  0
 68 69  1  0
 69 70  2  0
 70 71  1  0
 71 72  1  0
 69 73  1  0
 73 74  1  0
 74 75  1  0
 75 76  1  0
 76 77  1  0
 77 78  1  0
 78 79  2  0
 79 80  1  0
 80 81  2  0
 81 82  1  0
 82 83  1  0
 83 84  1  0
 82 85  2  0
 77 86  2  0
 86 87  1  0
 87 88  1  0
 88 89  1  0
 89 90  1  0
 90 91  1  0
 91 92  1  0
 92 93  1  0
 93 94  1  0
 94 95  1  0
 95 96  1  0
 93 97  1  0
 97 98  1  0
 90 99  1  0
 99100  1  0
 86101  1  0
101102  2  0
102103  1  0
103104  1  0
104105  2  0
104106  1  0
106107  2  0
107108  1  0
108109  1  0
109110  2  0
107111  1  0
111112  2  0
112113  1  0
113114  2  0
113115  1  0
115116  2  3
116117  1  0
117118  2  0
117119  1  0
119120  2  0
120121  1  0
121122  2  0
122123  1  0
123124  2  0
124125  1  0
125126  2  3
126127  1  0
127128  3  0
126129  1  0
129130  3  0
122131  1  0
131132  1  0
132133  1  0
133134  2  0
134135  1  0
135136  1  0
135137  1  0
 11  2  1  0
 23 17  1  0
 44 24  1  0
 52 45  2  0
 96 54  1  0
110101  1  0
125116  1  0
137131  1  0
 10  5  1  0
 22 18  1  0
 44 30  1  0
 63 56  1  0
 95 64  2  0
108103  2  0
124119  1  0
136132  1  0
 23  7  1  0
 39 33  2  0
 94 66  2  0
114106  1  0
137121  1  0
 92 67  2  0
 72 68  2  0
 91 73  2  0
 89 74  2  0
 88 76  2  0
 85 78  1  0
  1138  1  0
  6139  1  0
  9140  1  0
 17141  1  0
 18142  1  0
 19143  1  0
 20144  1  0
 21145  1  0
 22146  1  0
 22147  1  0
 23148  1  0
 36149  1  0
 36150  1  0
 37151  1  0
 37152  1  0
 37153  1  0
 48154  1  0
 48155  1  0
 49156  1  0
 49157  1  0
 49158  1  0
 57159  1  0
 58160  1  0
 59161  1  0
 61162  1  0
 61163  1  0
 62164  1  0
 62165  1  0
 62166  1  0
 63167  1  0
 79168  1  0
 80169  1  0
 81170  1  0
 83171  1  0
 83172  1  0
 84173  1  0
 84174  1  0
 84175  1  0
 85176  1  0
 97177  1  0
 97178  1  0
 98179  1  0
 98180  1  0
 98181  1  0
 99182  1  0
 99183  1  0
100184  1  0
100185  1  0
100186  1  0
102187  1  0
109188  1  0
110189  1  0
111190  1  0
112191  1  0
114192  1  0
115193  1  0
120194  1  0
123195  1  0
131196  1  0
132197  1  0
133198  1  0
134199  1  0
135200  1  0
136201  1  0
136202  1  0
137203  1  0
M  END

