
     RDKit          3D

185208  0  0  0  0  0  0  0  0999 V2000
   -5.7620   -0.3649    7.3831 C   0  0  0  0  0  0  0  0  0  0  0  0
   -4.5942   -0.4384    8.0496 C   0  0  0  0  0  0  0  0  0  0  0  0
   -3.2791   -0.0203    7.5199 C   0  0  0  0  0  0  0  0  0  0  0  0
   -3.0681    0.6716    6.4855 O   0  0  0  0  0  0  0  0  0  0  0  0
   -2.2433   -0.5637    8.3726 C   0  0  0  0  0  0  0  0  0  0  0  0
   -0.8421   -0.5134    8.1620 C   0  0  0  0  0  0  0  0  0  0  0  0
   -0.1132   -1.2442    9.0795 C   0  0  0  0  0  0  0  0  0  0  0  0
   -0.7154   -1.9894   10.1430 C   0  0  0  0  0  0  0  0  0  0  0  0
   -2.0825   -2.0341   10.3640 C   0  0  0  0  0  0  0  0  0  0  0  0
   -2.8538   -1.2603    9.4515 C   0  0  0  0  0  0  0  0  0  0  0  0
   -4.3314   -1.0996    9.3660 C   0  0  0  0  0  0  0  0  0  0  0  0
   -5.2150   -1.2688   10.3865 C   0  0  0  0  0  0  0  0  0  0  0  0
   -4.7914   -1.5913   11.7288 C   0  0  0  0  0  0  0  0  0  0  0  0
   -4.4737   -1.8152   12.8170 N   0  0  0  0  0  0  0  0  0  0  0  0
   -6.6149   -0.9399   10.2676 C   0  0  0  0  0  0  0  0  0  0  0  0
   -7.7413   -0.6851   10.1854 N   0  0  0  0  0  0  0  0  0  0  0  0
    0.6336   -2.4651   10.6013 C   0  0  0  0  0  0  0  0  0  0  0  0
    1.2365   -1.8282   11.8910 C   0  0  0  0  0  0  0  0  0  0  0  0
    0.7442   -0.4079   12.0404 C   0  0  0  0  0  0  0  0  0  0  0  0
    1.3039    0.2919   11.0551 C   0  0  0  0  0  0  0  0  0  0  0  0
    2.1594   -0.6785   10.2706 C   0  0  0  0  0  0  0  0  0  0  0  0
    2.6474   -1.5542   11.4113 C   0  0  0  0  0  0  0  0  0  0  0  0
    1.2515   -1.6946    9.5155 C   0  0  0  0  0  0  0  0  0  0  0  0
   -5.8543    0.2868    6.0661 C   0  0  0  0  0  0  0  0  0  0  0  0
   -5.5451   -0.4386    4.9162 C   0  0  0  0  0  0  0  0  0  0  0  0
   -5.3443   -1.7797    4.9822 F   0  0  0  0  0  0  0  0  0  0  0  0
   -5.3628    0.2200    3.7057 C   0  0  0  0  0  0  0  0  0  0  0  0
   -5.4409    1.6327    3.6029 C   0  0  0  0  0  0  0  0  0  0  0  0
   -5.9793    2.3226    4.7274 C   0  0  0  0  0  0  0  0  0  0  0  0
   -6.3335    3.6281    4.6650 N   0  0  0  0  0  0  0  0  0  0  0  0
   -6.8236    4.2977    5.7350 C   0  0  0  0  0  0  0  0  0  0  0  0
   -6.9789    3.6420    6.9473 C   0  0  0  0  0  0  0  0  0  0  0  0
   -7.4968    4.3432    8.0466 O   0  0  0  0  0  0  0  0  0  0  0  0
   -7.7260    3.7503    9.3278 C   0  0  0  0  0  0  0  0  0  0  0  0
   -8.9552    2.8424    9.2955 C   0  0  0  0  0  0  0  0  0  0  0  0
   -6.6358    2.3303    7.0390 N   0  0  0  0  0  0  0  0  0  0  0  0
   -6.1628    1.6462    5.9606 C   0  0  0  0  0  0  0  0  0  0  0  0
   -4.8268    2.2687    2.3661 C   0  0  0  0  0  0  0  0  0  0  0  0
   -4.5871    3.6296    1.9793 C   0  0  0  0  0  0  0  0  0  0  0  0
   -5.0422    4.8570    2.6367 C   0  0  0  0  0  0  0  0  0  0  0  0
   -4.1821    5.5596    3.4896 C   0  0  0  0  0  0  0  0  0  0  0  0
   -4.6047    6.7513    4.0801 C   0  0  0  0  0  0  0  0  0  0  0  0
   -5.8834    7.2499    3.8268 C   0  0  0  0  0  0  0  0  0  0  0  0
   -6.7535    6.5633    2.9627 C   0  0  0  0  0  0  0  0  0  0  0  0
   -8.1608    7.0516    2.7555 C   0  0  0  0  0  0  0  0  0  0  0  0
   -9.0579    6.6197    3.9120 C   0  0  0  0  0  0  0  0  0  0  0  0
   -6.3188    5.3732    2.3530 C   0  0  0  0  0  0  0  0  0  0  0  0
   -3.7060    3.7207    0.8846 C   0  0  0  0  0  0  0  0  0  0  0  0
   -2.8079    5.0198    0.2415 S   0  0  0  0  0  0  0  0  0  0  0  0
   -1.8619    3.9705   -0.7032 C   0  0  0  0  0  0  0  0  0  0  0  0
   -0.5766    3.9875   -1.1728 C   0  0  0  0  0  0  0  0  0  0  0  0
    0.3261    5.0524   -1.2703 C   0  0  0  0  0  0  0  0  0  0  0  0
    1.6899    4.7722   -1.5648 C   0  0  0  0  0  0  0  0  0  0  0  0
    2.5293    5.8340   -1.6574 N   0  0  0  0  0  0  0  0  0  0  0  0
    1.4639    7.0618   -1.3369 S   0  0  0  0  0  0  0  0  0  0  0  0
   -0.0120    6.3542   -1.0910 N   0  0  0  0  0  0  0  0  0  0  0  0
    2.0810    3.4443   -1.7419 C   0  0  0  0  0  0  0  0  0  0  0  0
    3.2694    2.9181   -2.1660 C   0  0  0  0  0  0  0  0  0  0  0  0
    4.7657    3.4554   -2.7812 S   0  0  0  0  0  0  0  0  0  0  0  0
    5.1425    1.8911   -3.3582 C   0  0  0  0  0  0  0  0  0  0  0  0
    6.1956    1.3312   -4.1110 C   0  0  0  0  0  0  0  0  0  0  0  0
    7.4162    2.0373   -4.5496 C   0  0  0  0  0  0  0  0  0  0  0  0
    7.3555    3.3346   -5.0848 C   0  0  0  0  0  0  0  0  0  0  0  0
    8.5138    3.9483   -5.5753 C   0  0  0  0  0  0  0  0  0  0  0  0
    9.7341    3.2741   -5.5469 C   0  0  0  0  0  0  0  0  0  0  0  0
    9.8104    1.9756   -5.0178 C   0  0  0  0  0  0  0  0  0  0  0  0
   11.1280    1.2456   -4.9697 C   0  0  0  0  0  0  0  0  0  0  0  0
   11.7740    1.3744   -3.5909 C   0  0  0  0  0  0  0  0  0  0  0  0
    8.6548    1.3722   -4.5086 C   0  0  0  0  0  0  0  0  0  0  0  0
    5.9197   -0.0221   -4.3940 C   0  0  0  0  0  0  0  0  0  0  0  0
    4.4078   -0.4564   -3.7502 S   0  0  0  0  0  0  0  0  0  0  0  0
    4.1144    1.0251   -3.0710 C   0  0  0  0  0  0  0  0  0  0  0  0
    3.0577    1.6021   -2.3920 C   0  0  0  0  0  0  0  0  0  0  0  0
    1.7822    1.2126   -2.1399 N   0  0  0  0  0  0  0  0  0  0  0  0
    1.1726    2.3635   -1.6779 C   0  0  0  0  0  0  0  0  0  0  0  0
   -0.1869    2.6383   -1.3141 C   0  0  0  0  0  0  0  0  0  0  0  0
   -1.1899    1.8197   -0.8391 N   0  0  0  0  0  0  0  0  0  0  0  0
   -2.1929    2.6691   -0.5037 C   0  0  0  0  0  0  0  0  0  0  0  0
   -3.2540    2.5377    0.3812 C   0  0  0  0  0  0  0  0  0  0  0  0
   -3.8996    1.3084    1.2882 S   0  0  0  0  0  0  0  0  0  0  0  0
   -1.1334    0.4141   -0.4063 C   0  0  0  0  0  0  0  0  0  0  0  0
   -2.0953   -0.4502   -1.2283 C   0  0  0  0  0  0  0  0  0  0  0  0
    1.1826   -0.0099   -2.6931 C   0  0  0  0  0  0  0  0  0  0  0  0
    1.5853   -1.2450   -1.8762 C   0  0  0  0  0  0  0  0  0  0  0  0
    6.5766   -0.9212   -5.3640 C   0  0  0  0  0  0  0  0  0  0  0  0
    6.6555   -0.5368   -6.7144 C   0  0  0  0  0  0  0  0  0  0  0  0
    6.5797    0.7701   -7.0699 F   0  0  0  0  0  0  0  0  0  0  0  0
    6.5502   -1.5110   -7.7165 C   0  0  0  0  0  0  0  0  0  0  0  0
    6.3335   -2.8554   -7.3744 C   0  0  0  0  0  0  0  0  0  0  0  0
    6.5051   -3.2595   -6.0412 C   0  0  0  0  0  0  0  0  0  0  0  0
    6.4035   -4.5713   -5.6844 N   0  0  0  0  0  0  0  0  0  0  0  0
    6.4786   -4.9610   -4.3850 C   0  0  0  0  0  0  0  0  0  0  0  0
    6.6379   -3.9962   -3.3857 C   0  0  0  0  0  0  0  0  0  0  0  0
    6.6668   -4.3868   -2.0401 O   0  0  0  0  0  0  0  0  0  0  0  0
    6.9186   -3.4852   -0.9617 C   0  0  0  0  0  0  0  0  0  0  0  0
    8.4055   -3.4252   -0.6533 C   0  0  0  0  0  0  0  0  0  0  0  0
    6.7162   -2.6847   -3.7361 N   0  0  0  0  0  0  0  0  0  0  0  0
    6.6673   -2.2870   -5.0374 C   0  0  0  0  0  0  0  0  0  0  0  0
    5.6356   -3.7480   -8.3203 C   0  0  0  0  0  0  0  0  0  0  0  0
    4.3158   -3.6136   -8.5769 C   0  0  0  0  0  0  0  0  0  0  0  0
    3.4227   -2.6310   -7.9355 C   0  0  0  0  0  0  0  0  0  0  0  0
    3.7666   -1.5748   -7.3389 O   0  0  0  0  0  0  0  0  0  0  0  0
    2.0575   -3.0571   -8.0990 C   0  0  0  0  0  0  0  0  0  0  0  0
    0.9115   -2.4580   -7.5275 C   0  0  0  0  0  0  0  0  0  0  0  0
   -0.2528   -3.1588   -7.7490 C   0  0  0  0  0  0  0  0  0  0  0  0
   -0.2983   -4.3813   -8.4888 C   0  0  0  0  0  0  0  0  0  0  0  0
    0.8222   -4.9781   -9.0558 C   0  0  0  0  0  0  0  0  0  0  0  0
    2.0320   -4.2552   -8.8600 C   0  0  0  0  0  0  0  0  0  0  0  0
    3.4251   -4.5865   -9.2837 C   0  0  0  0  0  0  0  0  0  0  0  0
    3.7888   -5.4630  -10.2650 C   0  0  0  0  0  0  0  0  0  0  0  0
    2.8222   -6.2102  -11.0255 C   0  0  0  0  0  0  0  0  0  0  0  0
    2.0609   -6.8081  -11.6584 N   0  0  0  0  0  0  0  0  0  0  0  0
    5.1457   -5.5807  -10.7339 C   0  0  0  0  0  0  0  0  0  0  0  0
    6.2342   -5.6790  -11.1168 N   0  0  0  0  0  0  0  0  0  0  0  0
   -1.7800   -4.4803   -8.2637 C   0  0  0  0  0  0  0  0  0  0  0  0
   -2.7275   -4.1444   -9.4548 C   0  0  0  0  0  0  0  0  0  0  0  0
   -2.0762   -3.1258  -10.3651 C   0  0  0  0  0  0  0  0  0  0  0  0
   -2.0222   -1.9857   -9.6782 C   0  0  0  0  0  0  0  0  0  0  0  0
   -2.6440   -2.2622   -8.3281 C   0  0  0  0  0  0  0  0  0  0  0  0
   -3.7244   -3.2378   -8.7507 C   0  0  0  0  0  0  0  0  0  0  0  0
   -1.7294   -3.2230   -7.5057 C   0  0  0  0  0  0  0  0  0  0  0  0
   -6.6522   -0.8374    7.7595 H   0  0  0  0  0  0  0  0  0  0  0  0
   -0.3852    0.0234    7.3382 H   0  0  0  0  0  0  0  0  0  0  0  0
   -2.4978   -2.6467   11.1491 H   0  0  0  0  0  0  0  0  0  0  0  0
    0.7737   -3.5675   10.5058 H   0  0  0  0  0  0  0  0  0  0  0  0
    1.1614   -2.4544   12.8062 H   0  0  0  0  0  0  0  0  0  0  0  0
    0.1302    0.0030   12.8334 H   0  0  0  0  0  0  0  0  0  0  0  0
    1.2333    1.3650   10.9183 H   0  0  0  0  0  0  0  0  0  0  0  0
    2.9579   -0.2097    9.6531 H   0  0  0  0  0  0  0  0  0  0  0  0
    3.2667   -1.0045   12.1514 H   0  0  0  0  0  0  0  0  0  0  0  0
    3.1816   -2.4708   11.0807 H   0  0  0  0  0  0  0  0  0  0  0  0
    1.7792   -2.3276    8.7651 H   0  0  0  0  0  0  0  0  0  0  0  0
   -5.0806   -0.3955    2.8646 H   0  0  0  0  0  0  0  0  0  0  0  0
   -7.0830    5.3445    5.6522 H   0  0  0  0  0  0  0  0  0  0  0  0
   -7.9032    4.5630   10.0709 H   0  0  0  0  0  0  0  0  0  0  0  0
   -6.8318    3.1718    9.6587 H   0  0  0  0  0  0  0  0  0  0  0  0
   -9.1515    2.4536   10.3247 H   0  0  0  0  0  0  0  0  0  0  0  0
   -8.7773    1.9739    8.6157 H   0  0  0  0  0  0  0  0  0  0  0  0
   -9.8545    3.4077    8.9404 H   0  0  0  0  0  0  0  0  0  0  0  0
   -3.1868    5.1863    3.6926 H   0  0  0  0  0  0  0  0  0  0  0  0
   -3.9381    7.2860    4.7480 H   0  0  0  0  0  0  0  0  0  0  0  0
   -6.2051    8.1607    4.3188 H   0  0  0  0  0  0  0  0  0  0  0  0
   -8.5780    6.6486    1.8068 H   0  0  0  0  0  0  0  0  0  0  0  0
   -8.1685    8.1601    2.6802 H   0  0  0  0  0  0  0  0  0  0  0  0
   -8.7093    7.0736    4.8662 H   0  0  0  0  0  0  0  0  0  0  0  0
   -9.0505    5.5107    4.0125 H   0  0  0  0  0  0  0  0  0  0  0  0
  -10.1011    6.9472    3.7275 H   0  0  0  0  0  0  0  0  0  0  0  0
   -6.9772    4.8283    1.6817 H   0  0  0  0  0  0  0  0  0  0  0  0
    6.4105    3.8610   -5.1575 H   0  0  0  0  0  0  0  0  0  0  0  0
    8.4586    4.9410   -6.0061 H   0  0  0  0  0  0  0  0  0  0  0  0
   10.6193    3.7540   -5.9468 H   0  0  0  0  0  0  0  0  0  0  0  0
   10.9709    0.1702   -5.2040 H   0  0  0  0  0  0  0  0  0  0  0  0
   11.8242    1.6519   -5.7356 H   0  0  0  0  0  0  0  0  0  0  0  0
   11.0959    0.9808   -2.8016 H   0  0  0  0  0  0  0  0  0  0  0  0
   12.0080    2.4400   -3.3773 H   0  0  0  0  0  0  0  0  0  0  0  0
   12.7172    0.7854   -3.5714 H   0  0  0  0  0  0  0  0  0  0  0  0
    8.7188    0.3765   -4.0816 H   0  0  0  0  0  0  0  0  0  0  0  0
   -0.1128    0.0433   -0.4466 H   0  0  0  0  0  0  0  0  0  0  0  0
   -1.4004    0.3384    0.6694 H   0  0  0  0  0  0  0  0  0  0  0  0
   -2.0248   -0.2162   -2.3109 H   0  0  0  0  0  0  0  0  0  0  0  0
   -3.1462   -0.2680   -0.9235 H   0  0  0  0  0  0  0  0  0  0  0  0
   -1.8625   -1.5311   -1.0772 H   0  0  0  0  0  0  0  0  0  0  0  0
    1.5022   -0.1470   -3.7462 H   0  0  0  0  0  0  0  0  0  0  0  0
    0.0940    0.0961   -2.7401 H   0  0  0  0  0  0  0  0  0  0  0  0
    1.7747   -0.9938   -0.8107 H   0  0  0  0  0  0  0  0  0  0  0  0
    2.5255   -1.6943   -2.2602 H   0  0  0  0  0  0  0  0  0  0  0  0
    0.7888   -2.0179   -1.9376 H   0  0  0  0  0  0  0  0  0  0  0  0
    6.4254   -1.1855   -8.7394 H   0  0  0  0  0  0  0  0  0  0  0  0
    6.3870   -6.0079   -4.1325 H   0  0  0  0  0  0  0  0  0  0  0  0
    6.3771   -3.8422   -0.0587 H   0  0  0  0  0  0  0  0  0  0  0  0
    6.5407   -2.4683   -1.1981 H   0  0  0  0  0  0  0  0  0  0  0  0
    9.0015   -3.3194   -1.5848 H   0  0  0  0  0  0  0  0  0  0  0  0
    8.6067   -2.5577    0.0100 H   0  0  0  0  0  0  0  0  0  0  0  0
    8.7071   -4.3543   -0.1259 H   0  0  0  0  0  0  0  0  0  0  0  0
    6.1671   -4.6393   -8.6203 H   0  0  0  0  0  0  0  0  0  0  0  0
    0.9452   -1.5471   -6.9425 H   0  0  0  0  0  0  0  0  0  0  0  0
    0.7437   -5.9382   -9.5402 H   0  0  0  0  0  0  0  0  0  0  0  0
   -2.0948   -5.3544   -7.6520 H   0  0  0  0  0  0  0  0  0  0  0  0
   -3.1700   -5.0229   -9.9697 H   0  0  0  0  0  0  0  0  0  0  0  0
   -1.7768   -3.2612  -11.3998 H   0  0  0  0  0  0  0  0  0  0  0  0
   -1.6859   -1.0306  -10.0635 H   0  0  0  0  0  0  0  0  0  0  0  0
   -2.9942   -1.3621   -7.7821 H   0  0  0  0  0  0  0  0  0  0  0  0
   -4.4783   -2.7847   -9.4331 H   0  0  0  0  0  0  0  0  0  0  0  0
   -4.2438   -3.7240   -7.8939 H   0  0  0  0  0  0  0  0  0  0  0  0
   -2.0113   -3.3327   -6.4328 H   0  0  0  0  0  0  0  0  0  0  0  0
  1  2  2  3
  2  3  1  0
  3  4  2  0
  3  5  1  0
  5  6  2  0
  6  7  1  0
  7  8  2  0
  8  9  1  0
  9 10  2  0
 10 11  1  0
 11 12  2  3
 12 13  1  0
 13 14  3  0
 12 15  1  0
 15 16  3  0
  8 17  1  0
 17 18  1  0
 18 19  1  0
 19 20  2  0
 20 21  1  0
 21 22  1  0
 21 23  1  0
  1 24  1  0
 24 25  2  0
 25 26  1  0
 25 27  1  0
 27 28  2  0
 28 29  1  0
 29 30  2  0
 30 31  1  0
 31 32  2  0
 32 33  1  0
 33 34  1  0
 34 35  1  0
 32 36  1  0
 36 37  2  0
 28 38  1  0
 38 39  2  0
 39 40  1  0
 40 41  2  0
 41 42  1  0
 42 43  2  0
 43 44  1  0
 44 45  1  0
 45 46  1  0
 44 47  2  0
 39 48  1  0
 48 49  1  0
 49 50  1  0
 50 51  1  0
 51 52  1  0
 52 53  1  0
 53 54  2  0
 54 55  1  0
 55 56  1  0
 53 57  1  0
 57 58  1  0
 58 59  1  0
 59 60  1  0
 60 61  1  0
 61 62  1  0
 62 63  2  0
 63 64  1  0
 64 65  2  0
 65 66  1  0
 66 67  1  0
 67 68  1  0
 66 69  2  0
 61 70  2  0
 70 71  1  0
 71 72  1  0
 72 73  1  0
 73 74  1  0
 74 75  1  0
 75 76  1  0
 76 77  1  0
 77 78  1  0
 78 79  1  0
 79 80  1  0
 77 81  1  0
 81 82  1  0
 74 83  1  0
 83 84  1  0
 70 85  1  0
 85 86  2  0
 86 87  1  0
 86 88  1  0
 88 89  2  0
 89 90  1  0
 90 91  2  0
 91 92  1  0
 92 93  2  0
 93 94  1  0
 94 95  1  0
 95 96  1  0
 93 97  1  0
 97 98  2  0
 89 99  1  0
 99100  2  3
100101  1  0
101102  2  0
101103  1  0
103104  2  0
104105  1  0
105106  2  0
106107  1  0
107108  2  0
108109  1  0
109110  2  3
110111  1  0
111112  3  0
110113  1  0
113114  3  0
106115  1  0
115116  1  0
116117  1  0
117118  2  0
118119  1  0
119120  1  0
119121  1  0
 11  2  1  0
 23 17  1  0
 37 24  1  0
 80 38  1  0
 98 85  1  0
109100  1  0
121115  1  0
 10  5  1  0
 22 18  1  0
 37 29  1  0
 47 40  1  0
 79 48  2  0
 98 90  1  0
108103  1  0
120116  1  0
 23  7  1  0
 78 50  2  0
121105  1  0
 76 51  2  0
 56 52  2  0
 75 57  2  0
 73 58  2  0
 72 60  2  0
 69 62  1  0
  1122  1  0
  6123  1  0
  9124  1  0
 17125  1  0
 18126  1  0
 19127  1  0
 20128  1  0
 21129  1  0
 22130  1  0
 22131  1  0
 23132  1  0
 27133  1  0
 31134  1  0
 34135  1  0
 34136  1  0
 35137  1  0
 35138  1  0
 35139  1  0
 41140  1  0
 42141  1  0
 43142  1  0
 45143  1  0
 45144  1  0
 46145  1  0
 46146  1  0
 46147  1  0
 47148  1  0
 63149  1  0
 64150  1  0
 65151  1  0
 67152  1  0
 67153  1  0
 68154  1  0
 68155  1  0
 68156  1  0
 69157  1  0
 81158  1  0
 81159  1  0
 82160  1  0
 82161  1  0
 82162  1  0
 83163  1  0
 83164  1  0
 84165  1  0
 84166  1  0
 84167  1  0
 88168  1  0
 92169  1  0
 95170  1  0
 95171  1  0
 96172  1  0
 96173  1  0
 96174  1  0
 99175  1  0
104176  1  0
107177  1  0
115178  1  0
116179  1  0
117180  1  0
118181  1  0
119182  1  0
120183  1  0
120184  1  0
121185  1  0
M  END

