
     RDKit          3D

201226  0  0  0  0  0  0  0  0999 V2000
   -4.7970   -4.4615    3.8900 C   0  0  0  0  0  0  0  0  0  0  0  0
   -4.8928   -5.7957    3.7181 C   0  0  0  0  0  0  0  0  0  0  0  0
   -5.7580   -6.4482    2.7155 C   0  0  0  0  0  0  0  0  0  0  0  0
   -6.6415   -5.8849    2.0118 O   0  0  0  0  0  0  0  0  0  0  0  0
   -5.3667   -7.8301    2.5762 C   0  0  0  0  0  0  0  0  0  0  0  0
   -5.7879   -8.7214    1.5636 C   0  0  0  0  0  0  0  0  0  0  0  0
   -4.9927   -9.8426    1.4310 C   0  0  0  0  0  0  0  0  0  0  0  0
   -3.8565  -10.0961    2.2634 C   0  0  0  0  0  0  0  0  0  0  0  0
   -3.4624   -9.2477    3.2888 C   0  0  0  0  0  0  0  0  0  0  0  0
   -4.2809   -8.0872    3.4516 C   0  0  0  0  0  0  0  0  0  0  0  0
   -4.0207   -6.8774    4.2874 C   0  0  0  0  0  0  0  0  0  0  0  0
   -3.1933   -6.8150    5.3630 C   0  0  0  0  0  0  0  0  0  0  0  0
   -2.8584   -5.5915    6.0446 C   0  0  0  0  0  0  0  0  0  0  0  0
   -2.5783   -4.6123    6.6004 N   0  0  0  0  0  0  0  0  0  0  0  0
   -2.5708   -7.9902    5.9226 C   0  0  0  0  0  0  0  0  0  0  0  0
   -2.0627   -8.9164    6.3931 N   0  0  0  0  0  0  0  0  0  0  0  0
   -3.5193  -11.3194    1.4577 C   0  0  0  0  0  0  0  0  0  0  0  0
   -3.8172  -12.7179    2.0816 C   0  0  0  0  0  0  0  0  0  0  0  0
   -4.9959  -12.6218    3.0229 C   0  0  0  0  0  0  0  0  0  0  0  0
   -6.0657  -12.3858    2.2669 C   0  0  0  0  0  0  0  0  0  0  0  0
   -5.5854  -12.3285    0.8349 C   0  0  0  0  0  0  0  0  0  0  0  0
   -4.5061  -13.3896    0.9056 C   0  0  0  0  0  0  0  0  0  0  0  0
   -4.6959  -11.0652    0.6178 C   0  0  0  0  0  0  0  0  0  0  0  0
   -5.2617   -3.5253    2.8573 C   0  0  0  0  0  0  0  0  0  0  0  0
   -6.5371   -2.9771    2.7046 C   0  0  0  0  0  0  0  0  0  0  0  0
   -7.5694   -3.0658    3.7012 C   0  0  0  0  0  0  0  0  0  0  0  0
   -8.3985   -3.1422    4.5031 N   0  0  0  0  0  0  0  0  0  0  0  0
   -6.7416   -2.3876    1.4433 C   0  0  0  0  0  0  0  0  0  0  0  0
   -5.6287   -2.4896    0.6128 C   0  0  0  0  0  0  0  0  0  0  0  0
   -4.4020   -3.2830    1.4418 S   0  0  0  0  0  0  0  0  0  0  0  0
   -5.5894   -2.2101   -0.8252 C   0  0  0  0  0  0  0  0  0  0  0  0
   -5.3372   -3.1632   -1.8296 C   0  0  0  0  0  0  0  0  0  0  0  0
   -5.0183   -4.5757   -1.5779 C   0  0  0  0  0  0  0  0  0  0  0  0
   -6.0136   -5.5560   -1.6473 C   0  0  0  0  0  0  0  0  0  0  0  0
   -5.6898   -6.8983   -1.4113 C   0  0  0  0  0  0  0  0  0  0  0  0
   -4.3800   -7.2552   -1.0793 C   0  0  0  0  0  0  0  0  0  0  0  0
   -3.3775   -6.2782   -0.9963 C   0  0  0  0  0  0  0  0  0  0  0  0
   -1.9853   -6.6409   -0.5475 C   0  0  0  0  0  0  0  0  0  0  0  0
   -1.8265   -6.4091    0.9516 C   0  0  0  0  0  0  0  0  0  0  0  0
   -3.6970   -4.9410   -1.2720 C   0  0  0  0  0  0  0  0  0  0  0  0
   -5.1151   -2.5540   -3.0604 C   0  0  0  0  0  0  0  0  0  0  0  0
   -4.4472   -3.1572   -4.4919 S   0  0  0  0  0  0  0  0  0  0  0  0
   -4.2080   -1.5943   -5.1008 C   0  0  0  0  0  0  0  0  0  0  0  0
   -3.2132   -1.0763   -5.8871 C   0  0  0  0  0  0  0  0  0  0  0  0
   -2.2072   -1.7691   -6.5806 C   0  0  0  0  0  0  0  0  0  0  0  0
   -1.0135   -1.0801   -6.9348 C   0  0  0  0  0  0  0  0  0  0  0  0
   -0.0399   -1.7993   -7.5420 N   0  0  0  0  0  0  0  0  0  0  0  0
   -0.7672   -3.2861   -7.5682 S   0  0  0  0  0  0  0  0  0  0  0  0
   -2.2515   -3.0955   -6.8593 N   0  0  0  0  0  0  0  0  0  0  0  0
   -0.9213    0.2817   -6.6486 C   0  0  0  0  0  0  0  0  0  0  0  0
    0.1105    1.1668   -6.7962 C   0  0  0  0  0  0  0  0  0  0  0  0
    1.8053    1.0373   -6.7918 S   0  0  0  0  0  0  0  0  0  0  0  0
    1.9613    2.6096   -6.1457 C   0  0  0  0  0  0  0  0  0  0  0  0
    3.0157    3.2630   -5.5027 C   0  0  0  0  0  0  0  0  0  0  0  0
    4.4168    2.8024   -5.4770 C   0  0  0  0  0  0  0  0  0  0  0  0
    5.4398    3.6968   -5.8147 C   0  0  0  0  0  0  0  0  0  0  0  0
    6.7781    3.3174   -5.7009 C   0  0  0  0  0  0  0  0  0  0  0  0
    7.1063    2.0458   -5.2227 C   0  0  0  0  0  0  0  0  0  0  0  0
    6.0926    1.1373   -4.8786 C   0  0  0  0  0  0  0  0  0  0  0  0
    6.4510   -0.1779   -4.2470 C   0  0  0  0  0  0  0  0  0  0  0  0
    6.6301   -0.0108   -2.7404 C   0  0  0  0  0  0  0  0  0  0  0  0
    4.7452    1.5200   -5.0051 C   0  0  0  0  0  0  0  0  0  0  0  0
    2.5525    4.3760   -4.7741 C   0  0  0  0  0  0  0  0  0  0  0  0
    0.8592    4.4992   -4.9257 S   0  0  0  0  0  0  0  0  0  0  0  0
    0.7269    3.1835   -5.9428 C   0  0  0  0  0  0  0  0  0  0  0  0
   -0.3213    2.3516   -6.2915 C   0  0  0  0  0  0  0  0  0  0  0  0
   -1.5869    2.2941   -5.8137 N   0  0  0  0  0  0  0  0  0  0  0  0
   -1.9424    0.9851   -5.9890 C   0  0  0  0  0  0  0  0  0  0  0  0
   -3.0585    0.2620   -5.4869 C   0  0  0  0  0  0  0  0  0  0  0  0
   -3.8501    0.5249   -4.3913 N   0  0  0  0  0  0  0  0  0  0  0  0
   -4.5628   -0.6220   -4.2051 C   0  0  0  0  0  0  0  0  0  0  0  0
   -5.1105   -1.1811   -3.0449 C   0  0  0  0  0  0  0  0  0  0  0  0
   -5.4376   -0.6475   -1.4812 S   0  0  0  0  0  0  0  0  0  0  0  0
   -3.5934    1.5065   -3.3261 C   0  0  0  0  0  0  0  0  0  0  0  0
   -4.8003    2.4220   -3.1264 C   0  0  0  0  0  0  0  0  0  0  0  0
   -2.4794    3.4534   -5.7250 C   0  0  0  0  0  0  0  0  0  0  0  0
   -2.6140    4.1457   -7.0831 C   0  0  0  0  0  0  0  0  0  0  0  0
    3.2567    5.0125   -3.6508 C   0  0  0  0  0  0  0  0  0  0  0  0
    3.8532    4.2894   -2.6142 C   0  0  0  0  0  0  0  0  0  0  0  0
    3.9466    5.0165   -1.4212 C   0  0  0  0  0  0  0  0  0  0  0  0
    4.3203    4.5046   -0.1603 C   0  0  0  0  0  0  0  0  0  0  0  0
    4.7776    3.1143    0.0297 C   0  0  0  0  0  0  0  0  0  0  0  0
    3.8839    2.0416   -0.1163 C   0  0  0  0  0  0  0  0  0  0  0  0
    4.3007    0.7387    0.1625 C   0  0  0  0  0  0  0  0  0  0  0  0
    5.6142    0.4964    0.5831 C   0  0  0  0  0  0  0  0  0  0  0  0
    6.5105    1.5610    0.7292 C   0  0  0  0  0  0  0  0  0  0  0  0
    8.2081    1.2435    1.2295 S   0  0  0  0  0  0  0  0  0  0  0  0
    7.8757    1.3473    3.0236 C   0  0  0  0  0  0  0  0  0  0  0  0
    7.9817    2.7852    3.5128 C   0  0  0  0  0  0  0  0  0  0  0  0
    6.0946    2.8666    0.4445 C   0  0  0  0  0  0  0  0  0  0  0  0
    4.0958    5.3370    0.9505 C   0  0  0  0  0  0  0  0  0  0  0  0
    3.5610    6.6257    0.8355 C   0  0  0  0  0  0  0  0  0  0  0  0
    3.2985    7.1720   -0.4325 C   0  0  0  0  0  0  0  0  0  0  0  0
    2.8497    8.5652   -0.6197 C   0  0  0  0  0  0  0  0  0  0  0  0
    1.5450    8.9559   -0.2804 C   0  0  0  0  0  0  0  0  0  0  0  0
    1.1305   10.2714   -0.5113 C   0  0  0  0  0  0  0  0  0  0  0  0
    2.0034   11.1933   -1.0993 C   0  0  0  0  0  0  0  0  0  0  0  0
    3.3012   10.8038   -1.4500 C   0  0  0  0  0  0  0  0  0  0  0  0
    4.4351   11.9899   -2.1840 S   0  0  0  0  0  0  0  0  0  0  0  0
    4.2567   11.3711   -3.8980 C   0  0  0  0  0  0  0  0  0  0  0  0
    2.9686   11.8751   -4.5354 C   0  0  0  0  0  0  0  0  0  0  0  0
    3.7266    9.4944   -1.1955 C   0  0  0  0  0  0  0  0  0  0  0  0
    3.4724    6.3252   -1.5395 C   0  0  0  0  0  0  0  0  0  0  0  0
    2.8950    6.5664   -3.0969 S   0  0  0  0  0  0  0  0  0  0  0  0
    3.2180    7.1922    2.0742 C   0  0  0  0  0  0  0  0  0  0  0  0
    3.4542    6.3337    3.1417 C   0  0  0  0  0  0  0  0  0  0  0  0
    4.1566    4.9059    2.5710 S   0  0  0  0  0  0  0  0  0  0  0  0
    2.8929    6.5075    4.4923 C   0  0  0  0  0  0  0  0  0  0  0  0
    1.9076    5.7203    4.9738 C   0  0  0  0  0  0  0  0  0  0  0  0
    1.2858    4.5936    4.2626 C   0  0  0  0  0  0  0  0  0  0  0  0
    1.2430    4.4268    3.0185 O   0  0  0  0  0  0  0  0  0  0  0  0
    0.6813    3.7130    5.2346 C   0  0  0  0  0  0  0  0  0  0  0  0
    0.1456    2.4277    4.9948 C   0  0  0  0  0  0  0  0  0  0  0  0
   -0.2420    1.7663    6.1460 C   0  0  0  0  0  0  0  0  0  0  0  0
   -0.1078    2.3267    7.4569 C   0  0  0  0  0  0  0  0  0  0  0  0
    0.4218    3.5850    7.6944 C   0  0  0  0  0  0  0  0  0  0  0  0
    0.8100    4.2913    6.5202 C   0  0  0  0  0  0  0  0  0  0  0  0
    1.4408    5.6356    6.3857 C   0  0  0  0  0  0  0  0  0  0  0  0
    1.3604    6.6588    7.2680 C   0  0  0  0  0  0  0  0  0  0  0  0
    1.7305    8.0038    6.9114 C   0  0  0  0  0  0  0  0  0  0  0  0
    2.0170    9.0863    6.6284 N   0  0  0  0  0  0  0  0  0  0  0  0
    0.7575    6.5230    8.5678 C   0  0  0  0  0  0  0  0  0  0  0  0
    0.2758    6.4344    9.6169 N   0  0  0  0  0  0  0  0  0  0  0  0
   -0.6572    1.0657    8.0654 C   0  0  0  0  0  0  0  0  0  0  0  0
    0.3469    0.0981    8.7677 C   0  0  0  0  0  0  0  0  0  0  0  0
    1.7074    0.2018    8.1170 C   0  0  0  0  0  0  0  0  0  0  0  0
    1.5859   -0.3145    6.8961 C   0  0  0  0  0  0  0  0  0  0  0  0
    0.1409   -0.7489    6.7485 C   0  0  0  0  0  0  0  0  0  0  0  0
   -0.1034   -1.2222    8.1718 C   0  0  0  0  0  0  0  0  0  0  0  0
   -0.7944    0.4969    6.7193 C   0  0  0  0  0  0  0  0  0  0  0  0
   -4.1457   -4.0335    4.6225 H   0  0  0  0  0  0  0  0  0  0  0  0
   -6.5854   -8.4947    0.8748 H   0  0  0  0  0  0  0  0  0  0  0  0
   -2.5435   -9.4258    3.8211 H   0  0  0  0  0  0  0  0  0  0  0  0
   -2.5526  -11.2470    0.9077 H   0  0  0  0  0  0  0  0  0  0  0  0
   -2.9321  -13.2500    2.4819 H   0  0  0  0  0  0  0  0  0  0  0  0
   -4.9944  -12.7991    4.0912 H   0  0  0  0  0  0  0  0  0  0  0  0
   -7.0911  -12.3392    2.6148 H   0  0  0  0  0  0  0  0  0  0  0  0
   -6.3751  -12.4914    0.0738 H   0  0  0  0  0  0  0  0  0  0  0  0
   -3.8733  -13.4500   -0.0111 H   0  0  0  0  0  0  0  0  0  0  0  0
   -4.8989  -14.4083    1.1430 H   0  0  0  0  0  0  0  0  0  0  0  0
   -4.4440  -10.8439   -0.4429 H   0  0  0  0  0  0  0  0  0  0  0  0
   -7.6843   -1.9576    1.1292 H   0  0  0  0  0  0  0  0  0  0  0  0
   -7.0330   -5.2875   -1.8940 H   0  0  0  0  0  0  0  0  0  0  0  0
   -6.4590   -7.6567   -1.4747 H   0  0  0  0  0  0  0  0  0  0  0  0
   -4.1416   -8.2906   -0.8764 H   0  0  0  0  0  0  0  0  0  0  0  0
   -1.2372   -6.0276   -1.0930 H   0  0  0  0  0  0  0  0  0  0  0  0
   -1.7705   -7.7084   -0.7762 H   0  0  0  0  0  0  0  0  0  0  0  0
   -0.7903   -6.6541    1.2596 H   0  0  0  0  0  0  0  0  0  0  0  0
   -2.0285   -5.3433    1.1992 H   0  0  0  0  0  0  0  0  0  0  0  0
   -2.5334   -7.0511    1.5153 H   0  0  0  0  0  0  0  0  0  0  0  0
   -2.9293   -4.1775   -1.2102 H   0  0  0  0  0  0  0  0  0  0  0  0
    5.2029    4.6943   -6.1629 H   0  0  0  0  0  0  0  0  0  0  0  0
    7.5631    4.0172   -5.9473 H   0  0  0  0  0  0  0  0  0  0  0  0
    8.1470    1.7776   -5.1026 H   0  0  0  0  0  0  0  0  0  0  0  0
    7.3937   -0.5679   -4.6886 H   0  0  0  0  0  0  0  0  0  0  0  0
    5.6515   -0.9266   -4.4394 H   0  0  0  0  0  0  0  0  0  0  0  0
    6.8054   -0.9991   -2.2676 H   0  0  0  0  0  0  0  0  0  0  0  0
    5.7180    0.4447   -2.2950 H   0  0  0  0  0  0  0  0  0  0  0  0
    7.5034    0.6468   -2.5266 H   0  0  0  0  0  0  0  0  0  0  0  0
    3.9613    0.8410   -4.6905 H   0  0  0  0  0  0  0  0  0  0  0  0
   -3.3689    0.9800   -2.3693 H   0  0  0  0  0  0  0  0  0  0  0  0
   -2.6827    2.1014   -3.5254 H   0  0  0  0  0  0  0  0  0  0  0  0
   -5.6104    1.8987   -2.5821 H   0  0  0  0  0  0  0  0  0  0  0  0
   -4.5045    3.3178   -2.5375 H   0  0  0  0  0  0  0  0  0  0  0  0
   -5.2168    2.7529   -4.0979 H   0  0  0  0  0  0  0  0  0  0  0  0
   -3.4906    3.1371   -5.4296 H   0  0  0  0  0  0  0  0  0  0  0  0
   -2.0937    4.1706   -4.9714 H   0  0  0  0  0  0  0  0  0  0  0  0
   -1.6463    4.5920   -7.3856 H   0  0  0  0  0  0  0  0  0  0  0  0
   -3.3718    4.9574   -7.0120 H   0  0  0  0  0  0  0  0  0  0  0  0
   -2.9459    3.4103   -7.8505 H   0  0  0  0  0  0  0  0  0  0  0  0
    4.0735    3.2309   -2.6867 H   0  0  0  0  0  0  0  0  0  0  0  0
    2.8606    2.2187   -0.4298 H   0  0  0  0  0  0  0  0  0  0  0  0
    3.6142   -0.0868    0.0488 H   0  0  0  0  0  0  0  0  0  0  0  0
    5.9307   -0.5167    0.7872 H   0  0  0  0  0  0  0  0  0  0  0  0
    8.6370    0.7331    3.5505 H   0  0  0  0  0  0  0  0  0  0  0  0
    6.8754    0.9313    3.2746 H   0  0  0  0  0  0  0  0  0  0  0  0
    8.9821    3.1966    3.2661 H   0  0  0  0  0  0  0  0  0  0  0  0
    7.8387    2.8147    4.6133 H   0  0  0  0  0  0  0  0  0  0  0  0
    7.2034    3.4153    3.0358 H   0  0  0  0  0  0  0  0  0  0  0  0
    6.7961    3.6891    0.5510 H   0  0  0  0  0  0  0  0  0  0  0  0
    0.8510    8.2414    0.1473 H   0  0  0  0  0  0  0  0  0  0  0  0
    0.1266   10.5775   -0.2373 H   0  0  0  0  0  0  0  0  0  0  0  0
    1.6708   12.2077   -1.2785 H   0  0  0  0  0  0  0  0  0  0  0  0
    5.1200   11.7471   -4.4903 H   0  0  0  0  0  0  0  0  0  0  0  0
    4.2878   10.2600   -3.9197 H   0  0  0  0  0  0  0  0  0  0  0  0
    2.9423   12.9854   -4.5218 H   0  0  0  0  0  0  0  0  0  0  0  0
    2.0927   11.4764   -3.9882 H   0  0  0  0  0  0  0  0  0  0  0  0
    2.9201   11.5318   -5.5918 H   0  0  0  0  0  0  0  0  0  0  0  0
    4.7341    9.1949   -1.4633 H   0  0  0  0  0  0  0  0  0  0  0  0
    2.6941    8.1322    2.1850 H   0  0  0  0  0  0  0  0  0  0  0  0
    3.3654    7.2539    5.1130 H   0  0  0  0  0  0  0  0  0  0  0  0
    0.0786    1.9783    4.0158 H   0  0  0  0  0  0  0  0  0  0  0  0
    0.5605    3.9495    8.6965 H   0  0  0  0  0  0  0  0  0  0  0  0
   -1.6199    1.2063    8.6006 H   0  0  0  0  0  0  0  0  0  0  0  0
    0.3530    0.1510    9.8748 H   0  0  0  0  0  0  0  0  0  0  0  0
    2.6338    0.5186    8.5769 H   0  0  0  0  0  0  0  0  0  0  0  0
    2.3959   -0.4750    6.1889 H   0  0  0  0  0  0  0  0  0  0  0  0
   -0.0457   -1.5031    5.9576 H   0  0  0  0  0  0  0  0  0  0  0  0
    0.5392   -2.0849    8.4745 H   0  0  0  0  0  0  0  0  0  0  0  0
   -1.1722   -1.4658    8.3834 H   0  0  0  0  0  0  0  0  0  0  0  0
   -1.8458    0.2828    6.4256 H   0  0  0  0  0  0  0  0  0  0  0  0
  1  2  2  3
  2  3  1  0
  3  4  2  0
  3  5  1  0
  5  6  2  0
  6  7  1  0
  7  8  2  0
  8  9  1  0
  9 10  2  0
 10 11  1  0
 11 12  2  3
 12 13  1  0
 13 14  3  0
 12 15  1  0
 15 16  3  0
  8 17  1  0
 17 18  1  0
 18 19  1  0
 19 20  2  0
 20 21  1  0
 21 22  1  0
 21 23  1  0
  1 24  1  0
 24 25  2  0
 25 26  1  0
 26 27  3  0
 25 28  1  0
 28 29  2  0
 29 30  1  0
 29 31  1  0
 31 32  2  0
 32 33  1  0
 33 34  2  0
 34 35  1  0
 35 36  2  0
 36 37  1  0
 37 38  1  0
 38 39  1  0
 37 40  2  0
 32 41  1  0
 41 42  1  0
 42 43  1  0
 43 44  1  0
 44 45  1  0
 45 46  1  0
 46 47  2  0
 47 48  1  0
 48 49  1  0
 46 50  1  0
 50 51  1  0
 51 52  1  0
 52 53  1  0
 53 54  1  0
 54 55  1  0
 55 56  2  0
 56 57  1  0
 57 58  2  0
 58 59  1  0
 59 60  1  0
 60 61  1  0
 59 62  2  0
 54 63  2  0
 63 64  1  0
 64 65  1  0
 65 66  1  0
 66 67  1  0
 67 68  1  0
 68 69  1  0
 69 70  1  0
 70 71  1  0
 71 72  1  0
 72 73  1  0
 70 74  1  0
 74 75  1  0
 67 76  1  0
 76 77  1  0
 63 78  1  0
 78 79  2  0
 79 80  1  0
 80 81  2  0
 81 82  1  0
 82 83  2  0
 83 84  1  0
 84 85  2  0
 85 86  1  0
 86 87  1  0
 87 88  1  0
 88 89  1  0
 86 90  2  0
 81 91  1  0
 91 92  2  0
 92 93  1  0
 93 94  1  0
 94 95  2  0
 95 96  1  0
 96 97  2  0
 97 98  1  0
 98 99  1  0
 99100  1  0
100101  1  0
 98102  2  0
 93103  2  0
103104  1  0
 92105  1  0
105106  2  0
106107  1  0
106108  1  0
108109  2  3
109110  1  0
110111  2  0
110112  1  0
112113  2  0
113114  1  0
114115  2  0
115116  1  0
116117  2  0
117118  1  0
118119  2  3
119120  1  0
120121  3  0
119122  1  0
122123  3  0
115124  1  0
124125  1  0
125126  1  0
126127  2  0
127128  1  0
128129  1  0
128130  1  0
 11  2  1  0
 23 17  1  0
 30 24  1  0
 73 31  1  0
104 78  1  0
118109  1  0
130124  1  0
 10  5  1  0
 22 18  1  0
 40 33  1  0
 72 41  2  0
103 80  1  0
117112  1  0
129125  1  0
 23  7  1  0
 71 43  2  0
 90 82  1  0
107 91  1  0
130114  1  0
 69 44  2  0
102 94  1  0
 49 45  2  0
 68 50  2  0
 66 51  2  0
 65 53  2  0
 62 55  1  0
  1131  1  0
  6132  1  0
  9133  1  0
 17134  1  0
 18135  1  0
 19136  1  0
 20137  1  0
 21138  1  0
 22139  1  0
 22140  1  0
 23141  1  0
 28142  1  0
 34143  1  0
 35144  1  0
 36145  1  0
 38146  1  0
 38147  1  0
 39148  1  0
 39149  1  0
 39150  1  0
 40151  1  0
 56152  1  0
 57153  1  0
 58154  1  0
 60155  1  0
 60156  1  0
 61157  1  0
 61158  1  0
 61159  1  0
 62160  1  0
 74161  1  0
 74162  1  0
 75163  1  0
 75164  1  0
 75165  1  0
 76166  1  0
 76167  1  0
 77168  1  0
 77169  1  0
 77170  1  0
 79171  1  0
 83172  1  0
 84173  1  0
 85174  1  0
 88175  1  0
 88176  1  0
 89177  1  0
 89178  1  0
 89179  1  0
 90180  1  0
 95181  1  0
 96182  1  0
 97183  1  0
100184  1  0
100185  1  0
101186  1  0
101187  1  0
101188  1  0
102189  1  0
105190  1  0
108191  1  0
113192  1  0
116193  1  0
124194  1  0
125195  1  0
126196  1  0
127197  1  0
128198  1  0
129199  1  0
129200  1  0
130201  1  0
M  END

