
     RDKit          3D

167189  0  0  0  0  0  0  0  0999 V2000
   -0.0240    5.3565   -4.7677 C   0  0  0  0  0  0  0  0  0  0  0  0
   -0.7881    6.3482   -4.2573 C   0  0  0  0  0  0  0  0  0  0  0  0
   -2.2116    6.2409   -3.9059 C   0  0  0  0  0  0  0  0  0  0  0  0
   -3.0239    5.3847   -4.3462 O   0  0  0  0  0  0  0  0  0  0  0  0
   -2.5556    7.3260   -3.0149 C   0  0  0  0  0  0  0  0  0  0  0  0
   -3.7744    7.5020   -2.3224 C   0  0  0  0  0  0  0  0  0  0  0  0
   -3.7689    8.5716   -1.4475 C   0  0  0  0  0  0  0  0  0  0  0  0
   -2.6310    9.4177   -1.2558 C   0  0  0  0  0  0  0  0  0  0  0  0
   -1.4327    9.2479   -1.9283 C   0  0  0  0  0  0  0  0  0  0  0  0
   -1.4252    8.1682   -2.8566 C   0  0  0  0  0  0  0  0  0  0  0  0
   -0.3218    7.6726   -3.7320 C   0  0  0  0  0  0  0  0  0  0  0  0
    0.7741    8.3753   -4.1245 C   0  0  0  0  0  0  0  0  0  0  0  0
    1.0506    9.7044   -3.6481 C   0  0  0  0  0  0  0  0  0  0  0  0
    1.2866   10.7761   -3.2721 N   0  0  0  0  0  0  0  0  0  0  0  0
    1.6777    7.9063   -5.1400 C   0  0  0  0  0  0  0  0  0  0  0  0
    2.4106    7.5382   -5.9576 N   0  0  0  0  0  0  0  0  0  0  0  0
   -3.3750   10.2122   -0.2229 C   0  0  0  0  0  0  0  0  0  0  0  0
   -3.0051    9.9895    1.2747 C   0  0  0  0  0  0  0  0  0  0  0  0
   -2.5309    8.5702    1.4881 C   0  0  0  0  0  0  0  0  0  0  0  0
   -3.5919    7.7824    1.3086 C   0  0  0  0  0  0  0  0  0  0  0  0
   -4.7532    8.6926    0.9804 C   0  0  0  0  0  0  0  0  0  0  0  0
   -4.3955    9.8672    1.8719 C   0  0  0  0  0  0  0  0  0  0  0  0
   -4.5418    9.3474   -0.4198 C   0  0  0  0  0  0  0  0  0  0  0  0
   -0.4880    3.9687   -4.9751 C   0  0  0  0  0  0  0  0  0  0  0  0
   -1.1138    3.2655   -3.9252 C   0  0  0  0  0  0  0  0  0  0  0  0
   -1.4659    1.9370   -4.1316 C   0  0  0  0  0  0  0  0  0  0  0  0
   -2.1475    1.0107   -3.2423 C   0  0  0  0  0  0  0  0  0  0  0  0
   -2.5915    1.2591   -2.0906 O   0  0  0  0  0  0  0  0  0  0  0  0
   -2.2605   -0.2470   -3.9692 C   0  0  0  0  0  0  0  0  0  0  0  0
   -1.6795   -0.0940   -5.2150 C   0  0  0  0  0  0  0  0  0  0  0  0
   -1.1828    1.2838   -5.3184 C   0  0  0  0  0  0  0  0  0  0  0  0
   -0.5369    1.9433   -6.3639 C   0  0  0  0  0  0  0  0  0  0  0  0
   -0.1805    3.2938   -6.1820 C   0  0  0  0  0  0  0  0  0  0  0  0
   -1.6458   -1.1504   -6.1286 C   0  0  0  0  0  0  0  0  0  0  0  0
   -2.2412   -2.3759   -5.7593 C   0  0  0  0  0  0  0  0  0  0  0  0
   -2.8641   -2.5140   -4.4975 C   0  0  0  0  0  0  0  0  0  0  0  0
   -2.8517   -1.4403   -3.5824 C   0  0  0  0  0  0  0  0  0  0  0  0
   -3.5300   -3.7691   -4.1044 C   0  0  0  0  0  0  0  0  0  0  0  0
   -4.8371   -3.8143   -3.5851 C   0  0  0  0  0  0  0  0  0  0  0  0
   -5.7823   -2.6842   -3.6787 C   0  0  0  0  0  0  0  0  0  0  0  0
   -6.2159   -2.2390   -4.9376 C   0  0  0  0  0  0  0  0  0  0  0  0
   -7.0758   -1.1418   -5.0394 C   0  0  0  0  0  0  0  0  0  0  0  0
   -7.5027   -0.4780   -3.8870 C   0  0  0  0  0  0  0  0  0  0  0  0
   -7.0711   -0.9058   -2.6214 C   0  0  0  0  0  0  0  0  0  0  0  0
   -7.4863   -0.1605   -1.3811 C   0  0  0  0  0  0  0  0  0  0  0  0
   -6.6305    1.0857   -1.1876 C   0  0  0  0  0  0  0  0  0  0  0  0
   -6.1965   -1.9980   -2.5253 C   0  0  0  0  0  0  0  0  0  0  0  0
   -5.0276   -4.9362   -2.7687 C   0  0  0  0  0  0  0  0  0  0  0  0
   -6.0233   -5.0921   -1.4060 S   0  0  0  0  0  0  0  0  0  0  0  0
   -5.0022   -6.2341   -0.6910 C   0  0  0  0  0  0  0  0  0  0  0  0
   -4.5276   -6.2508    0.5974 C   0  0  0  0  0  0  0  0  0  0  0  0
   -5.0942   -5.7221    1.7643 C   0  0  0  0  0  0  0  0  0  0  0  0
   -4.2660   -5.5335    2.9078 C   0  0  0  0  0  0  0  0  0  0  0  0
   -4.8429   -4.9684    3.9979 N   0  0  0  0  0  0  0  0  0  0  0  0
   -6.3829   -4.7612    3.4234 S   0  0  0  0  0  0  0  0  0  0  0  0
   -6.3867   -5.3227    1.8665 N   0  0  0  0  0  0  0  0  0  0  0  0
   -2.9058   -5.8459    2.8135 C   0  0  0  0  0  0  0  0  0  0  0  0
   -1.8683   -5.4550    3.6132 C   0  0  0  0  0  0  0  0  0  0  0  0
   -1.6835   -4.2683    4.8156 S   0  0  0  0  0  0  0  0  0  0  0  0
   -0.0200   -4.1307    4.4834 C   0  0  0  0  0  0  0  0  0  0  0  0
    0.9704   -3.2493    4.9219 C   0  0  0  0  0  0  0  0  0  0  0  0
    0.6925   -2.1316    5.8333 C   0  0  0  0  0  0  0  0  0  0  0  0
    1.0943   -2.1740    7.1762 C   0  0  0  0  0  0  0  0  0  0  0  0
    0.8097   -1.0964    8.0234 C   0  0  0  0  0  0  0  0  0  0  0  0
    0.1347    0.0275    7.5322 C   0  0  0  0  0  0  0  0  0  0  0  0
   -0.2587    0.0834    6.1835 C   0  0  0  0  0  0  0  0  0  0  0  0
   -0.9999    1.2808    5.6488 C   0  0  0  0  0  0  0  0  0  0  0  0
   -2.4909    0.9844    5.5139 C   0  0  0  0  0  0  0  0  0  0  0  0
    0.0044   -1.0096    5.3463 C   0  0  0  0  0  0  0  0  0  0  0  0
    2.1784   -3.4472    4.2187 C   0  0  0  0  0  0  0  0  0  0  0  0
    1.9403   -4.6476    3.0314 S   0  0  0  0  0  0  0  0  0  0  0  0
    0.3449   -4.9455    3.4462 C   0  0  0  0  0  0  0  0  0  0  0  0
   -0.7181   -5.6742    2.9210 C   0  0  0  0  0  0  0  0  0  0  0  0
   -0.9481   -6.1670    1.6764 N   0  0  0  0  0  0  0  0  0  0  0  0
   -2.3180   -6.3210    1.6244 C   0  0  0  0  0  0  0  0  0  0  0  0
   -3.1697   -6.5894    0.5129 C   0  0  0  0  0  0  0  0  0  0  0  0
   -2.8254   -6.8604   -0.7769 N   0  0  0  0  0  0  0  0  0  0  0  0
   -3.9258   -6.5288   -1.4944 C   0  0  0  0  0  0  0  0  0  0  0  0
   -3.9387   -5.7726   -2.6647 C   0  0  0  0  0  0  0  0  0  0  0  0
   -2.6598   -5.1077   -3.5258 S   0  0  0  0  0  0  0  0  0  0  0  0
   -1.9830   -7.9953   -1.1735 C   0  0  0  0  0  0  0  0  0  0  0  0
   -2.8184   -9.2551   -1.4278 C   0  0  0  0  0  0  0  0  0  0  0  0
    0.0233   -6.0773    0.5744 C   0  0  0  0  0  0  0  0  0  0  0  0
    1.0701   -7.1879    0.6750 C   0  0  0  0  0  0  0  0  0  0  0  0
    3.4507   -2.7037    4.3617 C   0  0  0  0  0  0  0  0  0  0  0  0
    4.6724   -3.4038    4.2558 C   0  0  0  0  0  0  0  0  0  0  0  0
    5.8638   -2.6817    4.2881 C   0  0  0  0  0  0  0  0  0  0  0  0
    7.2382   -3.1321    4.0817 C   0  0  0  0  0  0  0  0  0  0  0  0
    7.6282   -4.3178    3.9181 O   0  0  0  0  0  0  0  0  0  0  0  0
    8.0646   -1.9311    4.0543 C   0  0  0  0  0  0  0  0  0  0  0  0
    7.2471   -0.8322    4.2615 C   0  0  0  0  0  0  0  0  0  0  0  0
    5.8677   -1.3039    4.4061 C   0  0  0  0  0  0  0  0  0  0  0  0
    4.6813   -0.5852    4.5060 C   0  0  0  0  0  0  0  0  0  0  0  0
    3.4667   -1.2908    4.4880 C   0  0  0  0  0  0  0  0  0  0  0  0
    7.7531    0.4655    4.2037 C   0  0  0  0  0  0  0  0  0  0  0  0
    9.1201    0.6332    3.9197 C   0  0  0  0  0  0  0  0  0  0  0  0
    9.9490   -0.4826    3.6592 C   0  0  0  0  0  0  0  0  0  0  0  0
    9.4202   -1.7877    3.7644 C   0  0  0  0  0  0  0  0  0  0  0  0
   11.3645   -0.2669    3.3056 C   0  0  0  0  0  0  0  0  0  0  0  0
   11.9528   -0.7841    2.2083 C   0  0  0  0  0  0  0  0  0  0  0  0
   11.2475   -1.4231    1.0733 C   0  0  0  0  0  0  0  0  0  0  0  0
   10.0196   -1.6836    0.9792 O   0  0  0  0  0  0  0  0  0  0  0  0
   12.2071   -1.5665    0.0120 C   0  0  0  0  0  0  0  0  0  0  0  0
   12.1824   -2.1073   -1.5740 S   0  0  0  0  0  0  0  0  0  0  0  0
   13.8173   -1.7126   -1.8128 C   0  0  0  0  0  0  0  0  0  0  0  0
   14.7526   -1.9815   -3.4537 Br  0  0  0  0  0  0  0  0  0  0  0  0
   14.3690   -1.1538   -0.6543 C   0  0  0  0  0  0  0  0  0  0  0  0
   13.4153   -1.0787    0.3680 C   0  0  0  0  0  0  0  0  0  0  0  0
   13.3839   -0.6061    1.7702 C   0  0  0  0  0  0  0  0  0  0  0  0
   14.4580   -0.2524    2.5175 C   0  0  0  0  0  0  0  0  0  0  0  0
   15.7815   -0.1715    1.9589 C   0  0  0  0  0  0  0  0  0  0  0  0
   16.8515   -0.1053    1.5201 N   0  0  0  0  0  0  0  0  0  0  0  0
   14.3752   -0.0153    3.9343 C   0  0  0  0  0  0  0  0  0  0  0  0
   14.3196    0.1767    5.0745 N   0  0  0  0  0  0  0  0  0  0  0  0
    1.0231    5.5128   -4.9571 H   0  0  0  0  0  0  0  0  0  0  0  0
   -4.6267    6.8433   -2.4391 H   0  0  0  0  0  0  0  0  0  0  0  0
   -0.5864    9.8736   -1.7045 H   0  0  0  0  0  0  0  0  0  0  0  0
   -3.5516   11.2743   -0.5079 H   0  0  0  0  0  0  0  0  0  0  0  0
   -2.3609   10.7730    1.7245 H   0  0  0  0  0  0  0  0  0  0  0  0
   -1.5450    8.2446    1.8060 H   0  0  0  0  0  0  0  0  0  0  0  0
   -3.6174    6.7090    1.4556 H   0  0  0  0  0  0  0  0  0  0  0  0
   -5.7588    8.2533    1.1515 H   0  0  0  0  0  0  0  0  0  0  0  0
   -5.0333   10.7647    1.7036 H   0  0  0  0  0  0  0  0  0  0  0  0
   -4.3911    9.6155    2.9588 H   0  0  0  0  0  0  0  0  0  0  0  0
   -5.4312    9.8750   -0.8303 H   0  0  0  0  0  0  0  0  0  0  0  0
   -1.3101    3.7339   -2.9694 H   0  0  0  0  0  0  0  0  0  0  0  0
   -0.3149    1.4348   -7.2920 H   0  0  0  0  0  0  0  0  0  0  0  0
    0.3279    3.8200   -6.9820 H   0  0  0  0  0  0  0  0  0  0  0  0
   -1.1810   -1.0330   -7.0977 H   0  0  0  0  0  0  0  0  0  0  0  0
   -2.2419   -3.1994   -6.4618 H   0  0  0  0  0  0  0  0  0  0  0  0
   -3.2963   -1.5315   -2.5999 H   0  0  0  0  0  0  0  0  0  0  0  0
   -5.8823   -2.7411   -5.8376 H   0  0  0  0  0  0  0  0  0  0  0  0
   -7.4082   -0.8075   -6.0143 H   0  0  0  0  0  0  0  0  0  0  0  0
   -8.1627    0.3761   -3.9803 H   0  0  0  0  0  0  0  0  0  0  0  0
   -8.5570    0.1299   -1.4551 H   0  0  0  0  0  0  0  0  0  0  0  0
   -7.3827   -0.8132   -0.4893 H   0  0  0  0  0  0  0  0  0  0  0  0
   -5.5520    0.8256   -1.2070 H   0  0  0  0  0  0  0  0  0  0  0  0
   -6.8700    1.5509   -0.2073 H   0  0  0  0  0  0  0  0  0  0  0  0
   -6.8409    1.8209   -1.9928 H   0  0  0  0  0  0  0  0  0  0  0  0
   -5.8125   -2.2888   -1.5556 H   0  0  0  0  0  0  0  0  0  0  0  0
    1.6130   -3.0431    7.5673 H   0  0  0  0  0  0  0  0  0  0  0  0
    1.1105   -1.1363    9.0634 H   0  0  0  0  0  0  0  0  0  0  0  0
   -0.0813    0.8496    8.2043 H   0  0  0  0  0  0  0  0  0  0  0  0
   -0.5919    1.5591    4.6544 H   0  0  0  0  0  0  0  0  0  0  0  0
   -0.8593    2.1574    6.3182 H   0  0  0  0  0  0  0  0  0  0  0  0
   -2.9073    0.6671    6.4930 H   0  0  0  0  0  0  0  0  0  0  0  0
   -3.0245    1.8951    5.1783 H   0  0  0  0  0  0  0  0  0  0  0  0
   -2.6582    0.1798    4.7663 H   0  0  0  0  0  0  0  0  0  0  0  0
   -0.3125   -0.9811    4.3098 H   0  0  0  0  0  0  0  0  0  0  0  0
   -1.4183   -7.7432   -2.0932 H   0  0  0  0  0  0  0  0  0  0  0  0
   -1.2731   -8.2475   -0.3696 H   0  0  0  0  0  0  0  0  0  0  0  0
   -3.4707   -9.1165   -2.3179 H   0  0  0  0  0  0  0  0  0  0  0  0
   -3.4490   -9.4730   -0.5395 H   0  0  0  0  0  0  0  0  0  0  0  0
   -2.1424  -10.1161   -1.6117 H   0  0  0  0  0  0  0  0  0  0  0  0
    0.5300   -5.0913    0.5993 H   0  0  0  0  0  0  0  0  0  0  0  0
   -0.4669   -6.0953   -0.4114 H   0  0  0  0  0  0  0  0  0  0  0  0
    0.5987   -8.1811    0.7976 H   0  0  0  0  0  0  0  0  0  0  0  0
    1.7011   -7.2007   -0.2402 H   0  0  0  0  0  0  0  0  0  0  0  0
    1.7293   -7.0246    1.5504 H   0  0  0  0  0  0  0  0  0  0  0  0
    4.6953   -4.4775    4.1177 H   0  0  0  0  0  0  0  0  0  0  0  0
    4.6934    0.4970    4.5537 H   0  0  0  0  0  0  0  0  0  0  0  0
    2.5514   -0.7224    4.5042 H   0  0  0  0  0  0  0  0  0  0  0  0
    7.1089    1.3225    4.3485 H   0  0  0  0  0  0  0  0  0  0  0  0
    9.5236    1.6356    3.8597 H   0  0  0  0  0  0  0  0  0  0  0  0
   10.0392   -2.6602    3.5878 H   0  0  0  0  0  0  0  0  0  0  0  0
   11.9023    0.4297    3.9245 H   0  0  0  0  0  0  0  0  0  0  0  0
   15.3852   -0.8095   -0.5914 H   0  0  0  0  0  0  0  0  0  0  0  0
  1  2  2  3
  2  3  1  0
  3  4  2  0
  3  5  1  0
  5  6  2  0
  6  7  1  0
  7  8  2  0
  8  9  1  0
  9 10  2  0
 10 11  1  0
 11 12  2  3
 12 13  1  0
 13 14  3  0
 12 15  1  0
 15 16  3  0
  8 17  1  0
 17 18  1  0
 18 19  1  0
 19 20  2  0
 20 21  1  0
 21 22  1  0
 21 23  1  0
  1 24  1  0
 24 25  2  0
 25 26  1  0
 26 27  1  0
 27 28  2  0
 27 29  1  0
 29 30  2  0
 30 31  1  0
 31 32  1  0
 32 33  2  0
 30 34  1  0
 34 35  2  0
 35 36  1  0
 36 37  2  0
 36 38  1  0
 38 39  2  0
 39 40  1  0
 40 41  2  0
 41 42  1  0
 42 43  2  0
 43 44  1  0
 44 45  1  0
 45 46  1  0
 44 47  2  0
 39 48  1  0
 48 49  1  0
 49 50  1  0
 50 51  1  0
 51 52  1  0
 52 53  1  0
 53 54  2  0
 54 55  1  0
 55 56  1  0
 53 57  1  0
 57 58  1  0
 58 59  1  0
 59 60  1  0
 60 61  1  0
 61 62  1  0
 62 63  2  0
 63 64  1  0
 64 65  2  0
 65 66  1  0
 66 67  1  0
 67 68  1  0
 66 69  2  0
 61 70  2  0
 70 71  1  0
 71 72  1  0
 72 73  1  0
 73 74  1  0
 74 75  1  0
 75 76  1  0
 76 77  1  0
 77 78  1  0
 78 79  1  0
 79 80  1  0
 77 81  1  0
 81 82  1  0
 74 83  1  0
 83 84  1  0
 70 85  1  0
 85 86  2  0
 86 87  1  0
 87 88  1  0
 88 89  2  0
 88 90  1  0
 90 91  2  0
 91 92  1  0
 92 93  1  0
 93 94  2  0
 91 95  1  0
 95 96  2  0
 96 97  1  0
 97 98  2  0
 97 99  1  0
 99100  2  3
100101  1  0
101102  2  0
101103  1  0
103104  1  0
104105  1  0
105106  1  0
105107  2  0
107108  1  0
108109  1  0
109110  2  3
110111  1  0
111112  3  0
110113  1  0
113114  3  0
 11  2  1  0
 23 17  1  0
 33 24  1  0
 80 38  1  0
 94 85  1  0
109100  1  0
 10  5  1  0
 22 18  1  0
 31 26  2  0
 47 40  1  0
 79 48  2  0
 92 87  2  0
108103  2  0
 23  7  1  0
 37 29  1  0
 78 50  2  0
 98 90  1  0
 76 51  2  0
 56 52  2  0
 75 57  2  0
 73 58  2  0
 72 60  2  0
 69 62  1  0
  1115  1  0
  6116  1  0
  9117  1  0
 17118  1  0
 18119  1  0
 19120  1  0
 20121  1  0
 21122  1  0
 22123  1  0
 22124  1  0
 23125  1  0
 25126  1  0
 32127  1  0
 33128  1  0
 34129  1  0
 35130  1  0
 37131  1  0
 41132  1  0
 42133  1  0
 43134  1  0
 45135  1  0
 45136  1  0
 46137  1  0
 46138  1  0
 46139  1  0
 47140  1  0
 63141  1  0
 64142  1  0
 65143  1  0
 67144  1  0
 67145  1  0
 68146  1  0
 68147  1  0
 68148  1  0
 69149  1  0
 81150  1  0
 81151  1  0
 82152  1  0
 82153  1  0
 82154  1  0
 83155  1  0
 83156  1  0
 84157  1  0
 84158  1  0
 84159  1  0
 86160  1  0
 93161  1  0
 94162  1  0
 95163  1  0
 96164  1  0
 98165  1  0
 99166  1  0
107167  1  0
M  END

