
     RDKit          3D

194218  0  0  0  0  0  0  0  0999 V2000
    6.5958   -5.4912    2.0793 C   0  0  0  0  0  0  0  0  0  0  0  0
    6.6686   -4.2466    1.5688 C   0  0  0  0  0  0  0  0  0  0  0  0
    7.9484   -3.6004    1.2840 C   0  0  0  0  0  0  0  0  0  0  0  0
    9.0744   -4.1660    1.2688 O   0  0  0  0  0  0  0  0  0  0  0  0
    7.7211   -2.1903    1.0643 C   0  0  0  0  0  0  0  0  0  0  0  0
    8.6875   -1.2267    0.6988 C   0  0  0  0  0  0  0  0  0  0  0  0
    8.1609    0.0192    0.4274 C   0  0  0  0  0  0  0  0  0  0  0  0
    6.7629    0.3123    0.5132 C   0  0  0  0  0  0  0  0  0  0  0  0
    5.8125   -0.6231    0.8810 C   0  0  0  0  0  0  0  0  0  0  0  0
    6.3300   -1.9193    1.1672 C   0  0  0  0  0  0  0  0  0  0  0  0
    5.6027   -3.2044    1.4027 C   0  0  0  0  0  0  0  0  0  0  0  0
    4.2953   -3.4223    1.1171 C   0  0  0  0  0  0  0  0  0  0  0  0
    3.8406   -4.6660    0.5518 C   0  0  0  0  0  0  0  0  0  0  0  0
    3.4663   -5.6477    0.0694 N   0  0  0  0  0  0  0  0  0  0  0  0
    3.3017   -2.3842    1.1846 C   0  0  0  0  0  0  0  0  0  0  0  0
    2.4911   -1.5584    1.2472 N   0  0  0  0  0  0  0  0  0  0  0  0
    7.0074    1.7094    0.0252 C   0  0  0  0  0  0  0  0  0  0  0  0
    6.6083    2.0056   -1.4524 C   0  0  0  0  0  0  0  0  0  0  0  0
    7.3020    3.2961   -1.8195 C   0  0  0  0  0  0  0  0  0  0  0  0
    8.6085    3.0167   -1.8983 C   0  0  0  0  0  0  0  0  0  0  0  0
    8.7501    1.5473   -1.5813 C   0  0  0  0  0  0  0  0  0  0  0  0
    7.4779    1.0426   -2.2425 C   0  0  0  0  0  0  0  0  0  0  0  0
    8.4399    1.4073   -0.0619 C   0  0  0  0  0  0  0  0  0  0  0  0
    5.3969   -6.0927    2.6798 C   0  0  0  0  0  0  0  0  0  0  0  0
    4.9049   -7.2959    2.1426 C   0  0  0  0  0  0  0  0  0  0  0  0
    3.6816   -7.7727    2.6020 C   0  0  0  0  0  0  0  0  0  0  0  0
    2.7617   -8.6688    1.9168 C   0  0  0  0  0  0  0  0  0  0  0  0
    3.0094   -9.3578    0.8920 O   0  0  0  0  0  0  0  0  0  0  0  0
    1.4630   -8.5051    2.5586 C   0  0  0  0  0  0  0  0  0  0  0  0
    1.6120   -7.6365    3.6238 C   0  0  0  0  0  0  0  0  0  0  0  0
    2.9917   -7.1383    3.6239 C   0  0  0  0  0  0  0  0  0  0  0  0
    3.4954   -5.9783    4.2161 C   0  0  0  0  0  0  0  0  0  0  0  0
    4.7098   -5.4550    3.7403 C   0  0  0  0  0  0  0  0  0  0  0  0
    0.5073   -7.1649    4.3242 C   0  0  0  0  0  0  0  0  0  0  0  0
   -0.7713   -7.5223    3.8716 C   0  0  0  0  0  0  0  0  0  0  0  0
   -0.9444   -8.2650    2.6704 C   0  0  0  0  0  0  0  0  0  0  0  0
    0.2049   -8.7965    2.0349 C   0  0  0  0  0  0  0  0  0  0  0  0
   -2.2653   -8.2003    1.9720 C   0  0  0  0  0  0  0  0  0  0  0  0
   -2.6618   -8.8458    0.7672 C   0  0  0  0  0  0  0  0  0  0  0  0
   -2.0359  -10.0527    0.1919 C   0  0  0  0  0  0  0  0  0  0  0  0
   -1.5923  -10.0693   -1.1406 C   0  0  0  0  0  0  0  0  0  0  0  0
   -0.9479  -11.1994   -1.6494 C   0  0  0  0  0  0  0  0  0  0  0  0
   -0.7340  -12.3144   -0.8345 C   0  0  0  0  0  0  0  0  0  0  0  0
   -1.1840  -12.3129    0.4948 C   0  0  0  0  0  0  0  0  0  0  0  0
   -0.9066  -13.4886    1.3910 C   0  0  0  0  0  0  0  0  0  0  0  0
    0.3886  -13.2831    2.1685 C   0  0  0  0  0  0  0  0  0  0  0  0
   -1.8331  -11.1802    1.0037 C   0  0  0  0  0  0  0  0  0  0  0  0
   -3.7553   -8.1930    0.1744 C   0  0  0  0  0  0  0  0  0  0  0  0
   -4.4041   -8.2141   -1.4022 S   0  0  0  0  0  0  0  0  0  0  0  0
   -5.3499   -6.8335   -1.1027 C   0  0  0  0  0  0  0  0  0  0  0  0
   -5.7632   -5.7787   -1.8804 C   0  0  0  0  0  0  0  0  0  0  0  0
   -5.6382   -5.5697   -3.2662 C   0  0  0  0  0  0  0  0  0  0  0  0
   -5.7201   -4.2318   -3.7776 C   0  0  0  0  0  0  0  0  0  0  0  0
   -5.5273   -4.0671   -5.1065 N   0  0  0  0  0  0  0  0  0  0  0  0
   -5.2517   -5.6414   -5.5435 S   0  0  0  0  0  0  0  0  0  0  0  0
   -5.3513   -6.5477   -4.1596 N   0  0  0  0  0  0  0  0  0  0  0  0
   -5.9980   -3.1886   -2.8867 C   0  0  0  0  0  0  0  0  0  0  0  0
   -6.0545   -1.8223   -3.0261 C   0  0  0  0  0  0  0  0  0  0  0  0
   -5.3766   -0.6559   -4.0607 S   0  0  0  0  0  0  0  0  0  0  0  0
   -5.4675    0.5410   -2.8405 C   0  0  0  0  0  0  0  0  0  0  0  0
   -4.8408    1.7829   -2.6909 C   0  0  0  0  0  0  0  0  0  0  0  0
   -4.1376    2.4713   -3.7834 C   0  0  0  0  0  0  0  0  0  0  0  0
   -4.7276    3.5841   -4.3970 C   0  0  0  0  0  0  0  0  0  0  0  0
   -4.0424    4.2756   -5.3998 C   0  0  0  0  0  0  0  0  0  0  0  0
   -2.7744    3.8509   -5.8054 C   0  0  0  0  0  0  0  0  0  0  0  0
   -2.1797    2.7264   -5.2090 C   0  0  0  0  0  0  0  0  0  0  0  0
   -0.8364    2.2389   -5.6850 C   0  0  0  0  0  0  0  0  0  0  0  0
   -0.9931    1.3495   -6.9135 C   0  0  0  0  0  0  0  0  0  0  0  0
   -2.8731    2.0325   -4.2015 C   0  0  0  0  0  0  0  0  0  0  0  0
   -4.8318    2.1864   -1.3341 C   0  0  0  0  0  0  0  0  0  0  0  0
   -5.6074    1.0018   -0.3827 S   0  0  0  0  0  0  0  0  0  0  0  0
   -5.9808    0.0191   -1.6802 C   0  0  0  0  0  0  0  0  0  0  0  0
   -6.3149   -1.3158   -1.7909 C   0  0  0  0  0  0  0  0  0  0  0  0
   -6.4387   -2.2664   -0.8428 N   0  0  0  0  0  0  0  0  0  0  0  0
   -6.1761   -3.4205   -1.5195 C   0  0  0  0  0  0  0  0  0  0  0  0
   -5.9152   -4.7019   -0.9929 C   0  0  0  0  0  0  0  0  0  0  0  0
   -5.4146   -5.0075    0.2441 N   0  0  0  0  0  0  0  0  0  0  0  0
   -5.1387   -6.3362    0.1556 C   0  0  0  0  0  0  0  0  0  0  0  0
   -4.2433   -7.1231    0.8745 C   0  0  0  0  0  0  0  0  0  0  0  0
   -3.3291   -6.8982    2.2479 S   0  0  0  0  0  0  0  0  0  0  0  0
   -4.6469   -4.0815    1.0999 C   0  0  0  0  0  0  0  0  0  0  0  0
   -3.2624   -3.8160    0.5041 C   0  0  0  0  0  0  0  0  0  0  0  0
   -7.2945   -2.1351    0.3460 C   0  0  0  0  0  0  0  0  0  0  0  0
   -8.7374   -1.8485   -0.0540 C   0  0  0  0  0  0  0  0  0  0  0  0
   -4.0683    3.3046   -0.7457 C   0  0  0  0  0  0  0  0  0  0  0  0
   -3.5418    3.3188    0.5474 C   0  0  0  0  0  0  0  0  0  0  0  0
   -2.7930    4.4731    0.8295 C   0  0  0  0  0  0  0  0  0  0  0  0
   -2.1116    4.7516    2.0284 C   0  0  0  0  0  0  0  0  0  0  0  0
   -2.0032    3.7620    3.1122 C   0  0  0  0  0  0  0  0  0  0  0  0
   -1.2580    2.5899    3.0480 C   0  0  0  0  0  0  0  0  0  0  0  0
   -1.2122    1.9029    4.2647 C   0  0  0  0  0  0  0  0  0  0  0  0
   -0.3037    0.4176    4.4846 Cl  0  0  0  0  0  0  0  0  0  0  0  0
   -1.9219    2.5324    5.2794 C   0  0  0  0  0  0  0  0  0  0  0  0
   -2.0269    1.9926    6.9859 S   0  0  0  0  0  0  0  0  0  0  0  0
   -3.4607    0.9020    6.7053 C   0  0  0  0  0  0  0  0  0  0  0  0
   -3.6313   -0.0350    7.8933 C   0  0  0  0  0  0  0  0  0  0  0  0
   -2.5988    3.9490    4.6773 S   0  0  0  0  0  0  0  0  0  0  0  0
   -1.4092    5.9672    2.0937 C   0  0  0  0  0  0  0  0  0  0  0  0
   -1.3610    6.8667    1.0226 C   0  0  0  0  0  0  0  0  0  0  0  0
   -2.0460    6.5876   -0.1777 C   0  0  0  0  0  0  0  0  0  0  0  0
   -1.9695    7.4851   -1.3447 C   0  0  0  0  0  0  0  0  0  0  0  0
   -1.3770    7.0529   -2.8605 S   0  0  0  0  0  0  0  0  0  0  0  0
   -1.4902    8.5898   -3.5298 C   0  0  0  0  0  0  0  0  0  0  0  0
   -1.0237    9.0107   -5.2104 S   0  0  0  0  0  0  0  0  0  0  0  0
    0.6758    9.5365   -4.7835 C   0  0  0  0  0  0  0  0  0  0  0  0
    1.6101    8.3386   -4.6839 C   0  0  0  0  0  0  0  0  0  0  0  0
   -2.0088    9.4593   -2.5790 C   0  0  0  0  0  0  0  0  0  0  0  0
   -2.2757    8.8421   -1.3507 C   0  0  0  0  0  0  0  0  0  0  0  0
   -2.2966   11.1639   -2.8622 Cl  0  0  0  0  0  0  0  0  0  0  0  0
   -2.7485    5.3723   -0.2393 C   0  0  0  0  0  0  0  0  0  0  0  0
   -3.6227    4.7331   -1.5272 S   0  0  0  0  0  0  0  0  0  0  0  0
   -0.5292    7.9732    1.2707 C   0  0  0  0  0  0  0  0  0  0  0  0
    0.0903    7.9216    2.5148 C   0  0  0  0  0  0  0  0  0  0  0  0
   -0.4362    6.5451    3.3412 S   0  0  0  0  0  0  0  0  0  0  0  0
    0.9212    9.0012    3.0681 C   0  0  0  0  0  0  0  0  0  0  0  0
    2.0451    8.8229    3.7859 C   0  0  0  0  0  0  0  0  0  0  0  0
    2.8512    7.5939    3.8332 C   0  0  0  0  0  0  0  0  0  0  0  0
    2.5180    6.4663    3.3824 O   0  0  0  0  0  0  0  0  0  0  0  0
    4.1595    7.9177    4.3712 C   0  0  0  0  0  0  0  0  0  0  0  0
    5.2729    7.0792    4.5398 C   0  0  0  0  0  0  0  0  0  0  0  0
    5.2209    5.3678    4.1485 Cl  0  0  0  0  0  0  0  0  0  0  0  0
    6.4567    7.6382    5.0365 C   0  0  0  0  0  0  0  0  0  0  0  0
    6.5262    9.0092    5.3318 C   0  0  0  0  0  0  0  0  0  0  0  0
    8.1617    9.7572    5.9780 Br  0  0  0  0  0  0  0  0  0  0  0  0
    5.4055    9.8343    5.1483 C   0  0  0  0  0  0  0  0  0  0  0  0
    4.2094    9.2721    4.6733 C   0  0  0  0  0  0  0  0  0  0  0  0
    2.8827    9.8981    4.4041 C   0  0  0  0  0  0  0  0  0  0  0  0
    2.4496   11.1210    4.8205 C   0  0  0  0  0  0  0  0  0  0  0  0
    1.0633   11.5071    4.7603 C   0  0  0  0  0  0  0  0  0  0  0  0
   -0.0494   11.8225    4.7210 N   0  0  0  0  0  0  0  0  0  0  0  0
    3.3056   12.0844    5.4607 C   0  0  0  0  0  0  0  0  0  0  0  0
    3.9746   12.8735    5.9793 N   0  0  0  0  0  0  0  0  0  0  0  0
    7.4900   -6.1041    2.0823 H   0  0  0  0  0  0  0  0  0  0  0  0
    9.7367   -1.4550    0.5782 H   0  0  0  0  0  0  0  0  0  0  0  0
    4.7731   -0.3571    0.8928 H   0  0  0  0  0  0  0  0  0  0  0  0
    6.7413    2.4986    0.7637 H   0  0  0  0  0  0  0  0  0  0  0  0
    5.5220    1.9700   -1.6777 H   0  0  0  0  0  0  0  0  0  0  0  0
    6.8394    4.2455   -2.0694 H   0  0  0  0  0  0  0  0  0  0  0  0
    9.3882    3.6965   -2.2278 H   0  0  0  0  0  0  0  0  0  0  0  0
    9.6936    1.0742   -1.9242 H   0  0  0  0  0  0  0  0  0  0  0  0
    7.2588   -0.0328   -2.0575 H   0  0  0  0  0  0  0  0  0  0  0  0
    7.4486    1.2223   -3.3445 H   0  0  0  0  0  0  0  0  0  0  0  0
    9.0846    2.0047    0.6210 H   0  0  0  0  0  0  0  0  0  0  0  0
    5.3869   -7.7605    1.2899 H   0  0  0  0  0  0  0  0  0  0  0  0
    2.9277   -5.4419    4.9633 H   0  0  0  0  0  0  0  0  0  0  0  0
    5.0860   -4.5291    4.1556 H   0  0  0  0  0  0  0  0  0  0  0  0
    0.6251   -6.4747    5.1480 H   0  0  0  0  0  0  0  0  0  0  0  0
   -1.6256   -7.1126    4.3948 H   0  0  0  0  0  0  0  0  0  0  0  0
    0.1658   -9.2891    1.0793 H   0  0  0  0  0  0  0  0  0  0  0  0
   -1.7053   -9.1988   -1.7731 H   0  0  0  0  0  0  0  0  0  0  0  0
   -0.5929  -11.2039   -2.6706 H   0  0  0  0  0  0  0  0  0  0  0  0
   -0.2109  -13.1739   -1.2373 H   0  0  0  0  0  0  0  0  0  0  0  0
   -0.8338  -14.4225    0.7924 H   0  0  0  0  0  0  0  0  0  0  0  0
   -1.7461  -13.6198    2.1099 H   0  0  0  0  0  0  0  0  0  0  0  0
    0.3253  -12.3678    2.7947 H   0  0  0  0  0  0  0  0  0  0  0  0
    0.5638  -14.1576    2.8315 H   0  0  0  0  0  0  0  0  0  0  0  0
    1.2468  -13.1920    1.4681 H   0  0  0  0  0  0  0  0  0  0  0  0
   -2.1531  -11.1619    2.0383 H   0  0  0  0  0  0  0  0  0  0  0  0
   -5.7051    3.9289   -4.0820 H   0  0  0  0  0  0  0  0  0  0  0  0
   -4.4952    5.1440   -5.8612 H   0  0  0  0  0  0  0  0  0  0  0  0
   -2.2597    4.3951   -6.5890 H   0  0  0  0  0  0  0  0  0  0  0  0
   -0.3304    1.6629   -4.8803 H   0  0  0  0  0  0  0  0  0  0  0  0
   -0.1830    3.1032   -5.9332 H   0  0  0  0  0  0  0  0  0  0  0  0
   -0.0052    0.9334   -7.2001 H   0  0  0  0  0  0  0  0  0  0  0  0
   -1.6846    0.5080   -6.6937 H   0  0  0  0  0  0  0  0  0  0  0  0
   -1.3928    1.9392   -7.7662 H   0  0  0  0  0  0  0  0  0  0  0  0
   -2.4262    1.1633   -3.7348 H   0  0  0  0  0  0  0  0  0  0  0  0
   -4.5565   -4.4880    2.1256 H   0  0  0  0  0  0  0  0  0  0  0  0
   -5.1369   -3.1075    1.2136 H   0  0  0  0  0  0  0  0  0  0  0  0
   -2.7063   -3.1003    1.1452 H   0  0  0  0  0  0  0  0  0  0  0  0
   -3.3610   -3.3819   -0.5137 H   0  0  0  0  0  0  0  0  0  0  0  0
   -2.6784   -4.7519    0.4304 H   0  0  0  0  0  0  0  0  0  0  0  0
   -7.3013   -3.0772    0.9322 H   0  0  0  0  0  0  0  0  0  0  0  0
   -6.9190   -1.3154    0.9899 H   0  0  0  0  0  0  0  0  0  0  0  0
   -9.1212   -2.6612   -0.7115 H   0  0  0  0  0  0  0  0  0  0  0  0
   -8.8010   -0.8815   -0.5978 H   0  0  0  0  0  0  0  0  0  0  0  0
   -9.3735   -1.7880    0.8548 H   0  0  0  0  0  0  0  0  0  0  0  0
   -3.6718    2.5087    1.2509 H   0  0  0  0  0  0  0  0  0  0  0  0
   -0.7302    2.2660    2.1624 H   0  0  0  0  0  0  0  0  0  0  0  0
   -4.3771    1.5177    6.5783 H   0  0  0  0  0  0  0  0  0  0  0  0
   -3.2978    0.2886    5.7902 H   0  0  0  0  0  0  0  0  0  0  0  0
   -3.7562    0.5458    8.8305 H   0  0  0  0  0  0  0  0  0  0  0  0
   -4.5215   -0.6853    7.7392 H   0  0  0  0  0  0  0  0  0  0  0  0
   -2.7382   -0.6895    7.9867 H   0  0  0  0  0  0  0  0  0  0  0  0
    1.0385   10.2118   -5.5872 H   0  0  0  0  0  0  0  0  0  0  0  0
    0.6854   10.1050   -3.8303 H   0  0  0  0  0  0  0  0  0  0  0  0
    2.6505    8.6971   -4.5252 H   0  0  0  0  0  0  0  0  0  0  0  0
    1.5709    7.7451   -5.6241 H   0  0  0  0  0  0  0  0  0  0  0  0
    1.3276    7.6945   -3.8237 H   0  0  0  0  0  0  0  0  0  0  0  0
   -2.6679    9.3681   -0.4941 H   0  0  0  0  0  0  0  0  0  0  0  0
   -0.3536    8.7737    0.5666 H   0  0  0  0  0  0  0  0  0  0  0  0
    0.6114   10.0019    2.8044 H   0  0  0  0  0  0  0  0  0  0  0  0
    7.3291    7.0133    5.1801 H   0  0  0  0  0  0  0  0  0  0  0  0
    5.5042   10.8840    5.3554 H   0  0  0  0  0  0  0  0  0  0  0  0
  1  2  2  3
  2  3  1  0
  3  4  2  0
  3  5  1  0
  5  6  2  0
  6  7  1  0
  7  8  2  0
  8  9  1  0
  9 10  2  0
 10 11  1  0
 11 12  2  3
 12 13  1  0
 13 14  3  0
 12 15  1  0
 15 16  3  0
  8 17  1  0
 17 18  1  0
 18 19  1  0
 19 20  2  0
 20 21  1  0
 21 22  1  0
 21 23  1  0
  1 24  1  0
 24 25  2  0
 25 26  1  0
 26 27  1  0
 27 28  2  0
 27 29  1  0
 29 30  2  0
 30 31  1  0
 31 32  1  0
 32 33  2  0
 30 34  1  0
 34 35  2  0
 35 36  1  0
 36 37  2  0
 36 38  1  0
 38 39  2  0
 39 40  1  0
 40 41  2  0
 41 42  1  0
 42 43  2  0
 43 44  1  0
 44 45  1  0
 45 46  1  0
 44 47  2  0
 39 48  1  0
 48 49  1  0
 49 50  1  0
 50 51  1  0
 51 52  1  0
 52 53  1  0
 53 54  2  0
 54 55  1  0
 55 56  1  0
 53 57  1  0
 57 58  1  0
 58 59  1  0
 59 60  1  0
 60 61  1  0
 61 62  1  0
 62 63  2  0
 63 64  1  0
 64 65  2  0
 65 66  1  0
 66 67  1  0
 67 68  1  0
 66 69  2  0
 61 70  2  0
 70 71  1  0
 71 72  1  0
 72 73  1  0
 73 74  1  0
 74 75  1  0
 75 76  1  0
 76 77  1  0
 77 78  1  0
 78 79  1  0
 79 80  1  0
 77 81  1  0
 81 82  1  0
 74 83  1  0
 83 84  1  0
 70 85  1  0
 85 86  2  0
 86 87  1  0
 87 88  2  0
 88 89  1  0
 89 90  2  0
 90 91  1  0
 91 92  1  0
 91 93  2  0
 93 94  1  0
 94 95  1  0
 95 96  1  0
 93 97  1  0
 88 98  1  0
 98 99  2  0
 99100  1  0
100101  1  0
101102  1  0
102103  1  0
103104  1  0
104105  1  0
105106  1  0
103107  2  0
107108  1  0
107109  1  0
100110  2  0
110111  1  0
 99112  1  0
112113  2  0
113114  1  0
113115  1  0
115116  2  3
116117  1  0
117118  2  0
117119  1  0
119120  2  0
120121  1  0
120122  1  0
122123  2  0
123124  1  0
123125  1  0
125126  2  0
126127  1  0
127128  2  3
128129  1  0
129130  3  0
128131  1  0
131132  3  0
 11  2  1  0
 23 17  1  0
 33 24  1  0
 80 38  1  0
111 85  1  0
127116  1  0
 10  5  1  0
 22 18  1  0
 31 26  2  0
 47 40  1  0
 79 48  2  0
110 87  1  0
126119  1  0
 23  7  1  0
 37 29  1  0
 78 50  2  0
 97 89  1  0
114 98  1  0
 76 51  2  0
108101  2  0
 56 52  2  0
 75 57  2  0
 73 58  2  0
 72 60  2  0
 69 62  1  0
  1133  1  0
  6134  1  0
  9135  1  0
 17136  1  0
 18137  1  0
 19138  1  0
 20139  1  0
 21140  1  0
 22141  1  0
 22142  1  0
 23143  1  0
 25144  1  0
 32145  1  0
 33146  1  0
 34147  1  0
 35148  1  0
 37149  1  0
 41150  1  0
 42151  1  0
 43152  1  0
 45153  1  0
 45154  1  0
 46155  1  0
 46156  1  0
 46157  1  0
 47158  1  0
 63159  1  0
 64160  1  0
 65161  1  0
 67162  1  0
 67163  1  0
 68164  1  0
 68165  1  0
 68166  1  0
 69167  1  0
 81168  1  0
 81169  1  0
 82170  1  0
 82171  1  0
 82172  1  0
 83173  1  0
 83174  1  0
 84175  1  0
 84176  1  0
 84177  1  0
 86178  1  0
 90179  1  0
 95180  1  0
 95181  1  0
 96182  1  0
 96183  1  0
 96184  1  0
105185  1  0
105186  1  0
106187  1  0
106188  1  0
106189  1  0
108190  1  0
112191  1  0
115192  1  0
122193  1  0
125194  1  0
M  END

