
     RDKit          3D

175198  0  0  0  0  0  0  0  0999 V2000
   -0.5035    2.4952    6.2035 C   0  0  0  0  0  0  0  0  0  0  0  0
    0.3350    1.7205    5.4854 C   0  0  0  0  0  0  0  0  0  0  0  0
    0.6477    1.8901    4.0595 C   0  0  0  0  0  0  0  0  0  0  0  0
   -0.0550    2.4987    3.2073 O   0  0  0  0  0  0  0  0  0  0  0  0
    1.9133    1.2532    3.7875 C   0  0  0  0  0  0  0  0  0  0  0  0
    2.6888    1.3771    2.6131 C   0  0  0  0  0  0  0  0  0  0  0  0
    3.9474    0.8154    2.7172 C   0  0  0  0  0  0  0  0  0  0  0  0
    4.4227    0.1634    3.9014 C   0  0  0  0  0  0  0  0  0  0  0  0
    3.6620    0.0301    5.0528 C   0  0  0  0  0  0  0  0  0  0  0  0
    2.3582    0.5945    4.9639 C   0  0  0  0  0  0  0  0  0  0  0  0
    1.3240    0.7407    6.0240 C   0  0  0  0  0  0  0  0  0  0  0  0
    1.1542   -0.0675    7.0984 C   0  0  0  0  0  0  0  0  0  0  0  0
    2.0635   -1.1450    7.4020 C   0  0  0  0  0  0  0  0  0  0  0  0
    2.7796   -2.0165    7.6534 N   0  0  0  0  0  0  0  0  0  0  0  0
   -0.0386   -0.0230    7.9082 C   0  0  0  0  0  0  0  0  0  0  0  0
   -0.9978    0.0109    8.5547 N   0  0  0  0  0  0  0  0  0  0  0  0
    5.7629   -0.0551    3.2622 C   0  0  0  0  0  0  0  0  0  0  0  0
    6.9218    0.8681    3.7450 C   0  0  0  0  0  0  0  0  0  0  0  0
    8.0138    0.7483    2.7056 C   0  0  0  0  0  0  0  0  0  0  0  0
    7.5647    1.3696    1.6098 C   0  0  0  0  0  0  0  0  0  0  0  0
    6.1866    1.8814    1.9452 C   0  0  0  0  0  0  0  0  0  0  0  0
    6.4214    2.2601    3.3981 C   0  0  0  0  0  0  0  0  0  0  0  0
    5.2767    0.6175    2.0522 C   0  0  0  0  0  0  0  0  0  0  0  0
   -1.3175    3.5505    5.5842 C   0  0  0  0  0  0  0  0  0  0  0  0
   -0.8270    4.7455    5.0145 C   0  0  0  0  0  0  0  0  0  0  0  0
    0.5916    5.2396    5.1245 C   0  0  0  0  0  0  0  0  0  0  0  0
    0.8051    5.9754    6.4382 C   0  0  0  0  0  0  0  0  0  0  0  0
   -1.8102    5.3473    4.2266 C   0  0  0  0  0  0  0  0  0  0  0  0
   -2.9970    4.6876    4.1661 C   0  0  0  0  0  0  0  0  0  0  0  0
   -2.9203    3.2864    5.0788 S   0  0  0  0  0  0  0  0  0  0  0  0
   -3.8709    5.1025    3.1699 C   0  0  0  0  0  0  0  0  0  0  0  0
   -3.3204    6.1594    2.4250 C   0  0  0  0  0  0  0  0  0  0  0  0
   -1.7594    6.5113    3.0216 S   0  0  0  0  0  0  0  0  0  0  0  0
   -3.7965    6.5791    1.0936 C   0  0  0  0  0  0  0  0  0  0  0  0
   -5.1276    6.5192    0.6211 C   0  0  0  0  0  0  0  0  0  0  0  0
   -6.3111    6.2894    1.4778 C   0  0  0  0  0  0  0  0  0  0  0  0
   -7.2326    5.2717    1.1848 C   0  0  0  0  0  0  0  0  0  0  0  0
   -8.3159    5.0362    2.0362 C   0  0  0  0  0  0  0  0  0  0  0  0
   -8.4878    5.8095    3.1854 C   0  0  0  0  0  0  0  0  0  0  0  0
   -7.5800    6.8340    3.4892 C   0  0  0  0  0  0  0  0  0  0  0  0
   -7.7338    7.6470    4.7481 C   0  0  0  0  0  0  0  0  0  0  0  0
   -6.9952    6.9930    5.9096 C   0  0  0  0  0  0  0  0  0  0  0  0
   -6.4893    7.0638    2.6350 C   0  0  0  0  0  0  0  0  0  0  0  0
   -5.1660    6.6430   -0.7762 C   0  0  0  0  0  0  0  0  0  0  0  0
   -6.3445    6.2246   -1.9370 S   0  0  0  0  0  0  0  0  0  0  0  0
   -5.2134    6.2980   -3.2034 C   0  0  0  0  0  0  0  0  0  0  0  0
   -5.0405    5.5498   -4.3393 C   0  0  0  0  0  0  0  0  0  0  0  0
   -5.9493    4.8997   -5.1778 C   0  0  0  0  0  0  0  0  0  0  0  0
   -5.4403    4.0669   -6.2192 C   0  0  0  0  0  0  0  0  0  0  0  0
   -6.3589    3.4428   -7.0005 N   0  0  0  0  0  0  0  0  0  0  0  0
   -7.7529    4.0148   -6.3149 S   0  0  0  0  0  0  0  0  0  0  0  0
   -7.2961    5.0035   -5.0698 N   0  0  0  0  0  0  0  0  0  0  0  0
   -4.0541    3.8634   -6.3193 C   0  0  0  0  0  0  0  0  0  0  0  0
   -3.3775    2.8180   -6.8942 C   0  0  0  0  0  0  0  0  0  0  0  0
   -3.9359    1.2912   -7.3796 S   0  0  0  0  0  0  0  0  0  0  0  0
   -2.5268    0.5128   -6.8566 C   0  0  0  0  0  0  0  0  0  0  0  0
   -2.3095   -0.8282   -6.5001 C   0  0  0  0  0  0  0  0  0  0  0  0
   -3.3690   -1.8047   -6.7334 C   0  0  0  0  0  0  0  0  0  0  0  0
   -3.4864   -2.4155   -7.9903 C   0  0  0  0  0  0  0  0  0  0  0  0
   -4.5563   -3.2738   -8.2554 C   0  0  0  0  0  0  0  0  0  0  0  0
   -5.5262   -3.5045   -7.2765 C   0  0  0  0  0  0  0  0  0  0  0  0
   -5.4473   -2.8557   -6.0327 C   0  0  0  0  0  0  0  0  0  0  0  0
   -6.4630   -3.1415   -4.9608 C   0  0  0  0  0  0  0  0  0  0  0  0
   -5.9592   -4.2366   -4.0256 C   0  0  0  0  0  0  0  0  0  0  0  0
   -4.3702   -1.9940   -5.7700 C   0  0  0  0  0  0  0  0  0  0  0  0
   -1.1645   -0.9805   -5.6690 C   0  0  0  0  0  0  0  0  0  0  0  0
   -0.5133    0.5800   -5.4495 S   0  0  0  0  0  0  0  0  0  0  0  0
   -1.6574    1.4200   -6.3198 C   0  0  0  0  0  0  0  0  0  0  0  0
   -2.1633    2.7257   -6.2611 C   0  0  0  0  0  0  0  0  0  0  0  0
   -2.0354    3.6613   -5.2724 N   0  0  0  0  0  0  0  0  0  0  0  0
   -3.1621    4.4355   -5.3999 C   0  0  0  0  0  0  0  0  0  0  0  0
   -3.6597    5.3956   -4.4855 C   0  0  0  0  0  0  0  0  0  0  0  0
   -2.9862    6.1043   -3.5386 N   0  0  0  0  0  0  0  0  0  0  0  0
   -3.9631    6.6055   -2.7467 C   0  0  0  0  0  0  0  0  0  0  0  0
   -3.9422    6.8124   -1.3751 C   0  0  0  0  0  0  0  0  0  0  0  0
   -2.7307    6.7654   -0.2269 S   0  0  0  0  0  0  0  0  0  0  0  0
   -1.6519    6.7131   -3.6861 C   0  0  0  0  0  0  0  0  0  0  0  0
   -1.7650    8.1709   -4.1158 C   0  0  0  0  0  0  0  0  0  0  0  0
   -1.3499    3.3836   -3.9920 C   0  0  0  0  0  0  0  0  0  0  0  0
   -2.2063    2.4866   -3.0905 C   0  0  0  0  0  0  0  0  0  0  0  0
   -0.7230   -2.0803   -4.7441 C   0  0  0  0  0  0  0  0  0  0  0  0
   -1.0888   -3.4585   -4.6089 C   0  0  0  0  0  0  0  0  0  0  0  0
   -1.7899   -4.3441   -5.6063 C   0  0  0  0  0  0  0  0  0  0  0  0
   -1.0331   -4.4091   -6.9286 C   0  0  0  0  0  0  0  0  0  0  0  0
   -0.5667   -3.9878   -3.4177 C   0  0  0  0  0  0  0  0  0  0  0  0
    0.2343   -3.1646   -2.7011 C   0  0  0  0  0  0  0  0  0  0  0  0
    0.3062   -1.6865   -3.4294 S   0  0  0  0  0  0  0  0  0  0  0  0
    0.6893   -3.6397   -1.4811 C   0  0  0  0  0  0  0  0  0  0  0  0
    0.1845   -4.9211   -1.2315 C   0  0  0  0  0  0  0  0  0  0  0  0
   -0.8071   -5.4098   -2.5376 S   0  0  0  0  0  0  0  0  0  0  0  0
    0.2069   -5.5497    0.0967 C   0  0  0  0  0  0  0  0  0  0  0  0
    1.3130   -5.5935    0.8560 C   0  0  0  0  0  0  0  0  0  0  0  0
    2.6839   -5.6860    0.3401 C   0  0  0  0  0  0  0  0  0  0  0  0
    3.0419   -5.5160   -0.8574 O   0  0  0  0  0  0  0  0  0  0  0  0
    3.5456   -6.1456    1.4090 C   0  0  0  0  0  0  0  0  0  0  0  0
    4.9050   -6.5230    1.3022 C   0  0  0  0  0  0  0  0  0  0  0  0
    5.4414   -7.0204    2.4736 C   0  0  0  0  0  0  0  0  0  0  0  0
    4.6935   -7.1356    3.6902 C   0  0  0  0  0  0  0  0  0  0  0  0
    3.3582   -6.7881    3.8015 C   0  0  0  0  0  0  0  0  0  0  0  0
    2.7810   -6.2801    2.5996 C   0  0  0  0  0  0  0  0  0  0  0  0
    1.3783   -5.8630    2.3218 C   0  0  0  0  0  0  0  0  0  0  0  0
    0.4424   -5.4886    3.2359 C   0  0  0  0  0  0  0  0  0  0  0  0
   -0.7576   -4.7797    2.8522 C   0  0  0  0  0  0  0  0  0  0  0  0
   -1.7134   -4.1993    2.5414 N   0  0  0  0  0  0  0  0  0  0  0  0
    0.6405   -5.6263    4.6546 C   0  0  0  0  0  0  0  0  0  0  0  0
    0.7876   -5.7357    5.7964 N   0  0  0  0  0  0  0  0  0  0  0  0
    5.8827   -7.7239    4.3837 C   0  0  0  0  0  0  0  0  0  0  0  0
    6.6613   -6.7941    5.3631 C   0  0  0  0  0  0  0  0  0  0  0  0
    7.9871   -7.4739    5.6135 C   0  0  0  0  0  0  0  0  0  0  0  0
    8.6831   -7.3807    4.4720 C   0  0  0  0  0  0  0  0  0  0  0  0
    7.8043   -6.6409    3.4920 C   0  0  0  0  0  0  0  0  0  0  0  0
    7.1452   -5.6725    4.4583 C   0  0  0  0  0  0  0  0  0  0  0  0
    6.6452   -7.6182    3.1356 C   0  0  0  0  0  0  0  0  0  0  0  0
   -0.5720    2.3935    7.2766 H   0  0  0  0  0  0  0  0  0  0  0  0
    2.3601    1.9257    1.7404 H   0  0  0  0  0  0  0  0  0  0  0  0
    4.0804   -0.4017    5.9498 H   0  0  0  0  0  0  0  0  0  0  0  0
    6.0220   -1.1301    3.1292 H   0  0  0  0  0  0  0  0  0  0  0  0
    7.2501    0.7213    4.7947 H   0  0  0  0  0  0  0  0  0  0  0  0
    9.0075    0.3366    2.8419 H   0  0  0  0  0  0  0  0  0  0  0  0
    8.1339    1.5532    0.7051 H   0  0  0  0  0  0  0  0  0  0  0  0
    5.8057    2.6898    1.2869 H   0  0  0  0  0  0  0  0  0  0  0  0
    5.5014    2.5640    3.9481 H   0  0  0  0  0  0  0  0  0  0  0  0
    7.1936    3.0567    3.5289 H   0  0  0  0  0  0  0  0  0  0  0  0
    5.2321   -0.0280    1.1471 H   0  0  0  0  0  0  0  0  0  0  0  0
    1.3015    4.3895    5.0651 H   0  0  0  0  0  0  0  0  0  0  0  0
    0.8286    5.9218    4.2790 H   0  0  0  0  0  0  0  0  0  0  0  0
    1.8395    6.3787    6.4743 H   0  0  0  0  0  0  0  0  0  0  0  0
    0.6588    5.2839    7.2971 H   0  0  0  0  0  0  0  0  0  0  0  0
    0.0867    6.8194    6.5223 H   0  0  0  0  0  0  0  0  0  0  0  0
   -4.7708    4.5638    2.9052 H   0  0  0  0  0  0  0  0  0  0  0  0
   -7.0967    4.6372    0.3206 H   0  0  0  0  0  0  0  0  0  0  0  0
   -9.0165    4.2428    1.8095 H   0  0  0  0  0  0  0  0  0  0  0  0
   -9.3266    5.6109    3.8414 H   0  0  0  0  0  0  0  0  0  0  0  0
   -8.8094    7.7504    5.0099 H   0  0  0  0  0  0  0  0  0  0  0  0
   -7.3314    8.6720    4.5903 H   0  0  0  0  0  0  0  0  0  0  0  0
   -5.9162    6.8777    5.6702 H   0  0  0  0  0  0  0  0  0  0  0  0
   -7.0897    7.6256    6.8177 H   0  0  0  0  0  0  0  0  0  0  0  0
   -7.4289    5.9941    6.1301 H   0  0  0  0  0  0  0  0  0  0  0  0
   -5.7688    7.8358    2.8812 H   0  0  0  0  0  0  0  0  0  0  0  0
   -2.7462   -2.2316   -8.7587 H   0  0  0  0  0  0  0  0  0  0  0  0
   -4.6274   -3.7651   -9.2158 H   0  0  0  0  0  0  0  0  0  0  0  0
   -6.3416   -4.1838   -7.4930 H   0  0  0  0  0  0  0  0  0  0  0  0
   -6.6662   -2.2204   -4.3728 H   0  0  0  0  0  0  0  0  0  0  0  0
   -7.4252   -3.4636   -5.4148 H   0  0  0  0  0  0  0  0  0  0  0  0
   -6.7409   -4.4689   -3.2713 H   0  0  0  0  0  0  0  0  0  0  0  0
   -5.0406   -3.9004   -3.4978 H   0  0  0  0  0  0  0  0  0  0  0  0
   -5.7351   -5.1618   -4.6001 H   0  0  0  0  0  0  0  0  0  0  0  0
   -4.3030   -1.4874   -4.8129 H   0  0  0  0  0  0  0  0  0  0  0  0
   -1.0685    6.1872   -4.4676 H   0  0  0  0  0  0  0  0  0  0  0  0
   -1.1006    6.6539   -2.7233 H   0  0  0  0  0  0  0  0  0  0  0  0
   -0.7520    8.5832   -4.2991 H   0  0  0  0  0  0  0  0  0  0  0  0
   -2.2547    8.7782   -3.3268 H   0  0  0  0  0  0  0  0  0  0  0  0
   -2.3521    8.2477   -5.0564 H   0  0  0  0  0  0  0  0  0  0  0  0
   -0.3584    2.9242   -4.1738 H   0  0  0  0  0  0  0  0  0  0  0  0
   -1.1361    4.2886   -3.4198 H   0  0  0  0  0  0  0  0  0  0  0  0
   -3.1072    3.0421   -2.7515 H   0  0  0  0  0  0  0  0  0  0  0  0
   -2.5372    1.5716   -3.6230 H   0  0  0  0  0  0  0  0  0  0  0  0
   -1.6169    2.1877   -2.1967 H   0  0  0  0  0  0  0  0  0  0  0  0
   -2.8371   -4.0470   -5.7470 H   0  0  0  0  0  0  0  0  0  0  0  0
   -1.8541   -5.3817   -5.2108 H   0  0  0  0  0  0  0  0  0  0  0  0
   -0.8716   -3.3955   -7.3486 H   0  0  0  0  0  0  0  0  0  0  0  0
   -0.0459   -4.8915   -6.7741 H   0  0  0  0  0  0  0  0  0  0  0  0
   -1.6177   -5.0087   -7.6604 H   0  0  0  0  0  0  0  0  0  0  0  0
    1.2621   -3.0543   -0.7738 H   0  0  0  0  0  0  0  0  0  0  0  0
   -0.7465   -5.8634    0.5002 H   0  0  0  0  0  0  0  0  0  0  0  0
    5.4685   -6.4616    0.3804 H   0  0  0  0  0  0  0  0  0  0  0  0
    2.8175   -6.9695    4.7106 H   0  0  0  0  0  0  0  0  0  0  0  0
    5.7156   -8.7645    4.7495 H   0  0  0  0  0  0  0  0  0  0  0  0
    6.1031   -6.4798    6.2701 H   0  0  0  0  0  0  0  0  0  0  0  0
    8.3503   -7.8889    6.5459 H   0  0  0  0  0  0  0  0  0  0  0  0
    9.7076   -7.7032    4.3223 H   0  0  0  0  0  0  0  0  0  0  0  0
    8.3329   -6.1875    2.6271 H   0  0  0  0  0  0  0  0  0  0  0  0
    7.8723   -4.9847    4.9546 H   0  0  0  0  0  0  0  0  0  0  0  0
    6.3338   -5.0607    4.0064 H   0  0  0  0  0  0  0  0  0  0  0  0
    6.9561   -8.6001    2.7076 H   0  0  0  0  0  0  0  0  0  0  0  0
  1  2  2  3
  2  3  1  0
  3  4  2  0
  3  5  1  0
  5  6  2  0
  6  7  1  0
  7  8  2  0
  8  9  1  0
  9 10  2  0
 10 11  1  0
 11 12  2  3
 12 13  1  0
 13 14  3  0
 12 15  1  0
 15 16  3  0
  8 17  1  0
 17 18  1  0
 18 19  1  0
 19 20  2  0
 20 21  1  0
 21 22  1  0
 21 23  1  0
  1 24  1  0
 24 25  2  0
 25 26  1  0
 26 27  1  0
 25 28  1  0
 28 29  2  0
 29 30  1  0
 29 31  1  0
 31 32  2  0
 32 33  1  0
 32 34  1  0
 34 35  2  0
 35 36  1  0
 36 37  2  0
 37 38  1  0
 38 39  2  0
 39 40  1  0
 40 41  1  0
 41 42  1  0
 40 43  2  0
 35 44  1  0
 44 45  1  0
 45 46  1  0
 46 47  1  0
 47 48  1  0
 48 49  1  0
 49 50  2  0
 50 51  1  0
 51 52  1  0
 49 53  1  0
 53 54  1  0
 54 55  1  0
 55 56  1  0
 56 57  1  0
 57 58  1  0
 58 59  2  0
 59 60  1  0
 60 61  2  0
 61 62  1  0
 62 63  1  0
 63 64  1  0
 62 65  2  0
 57 66  2  0
 66 67  1  0
 67 68  1  0
 68 69  1  0
 69 70  1  0
 70 71  1  0
 71 72  1  0
 72 73  1  0
 73 74  1  0
 74 75  1  0
 75 76  1  0
 73 77  1  0
 77 78  1  0
 70 79  1  0
 79 80  1  0
 66 81  1  0
 81 82  2  0
 82 83  1  0
 83 84  1  0
 82 85  1  0
 85 86  2  0
 86 87  1  0
 86 88  1  0
 88 89  2  0
 89 90  1  0
 89 91  1  0
 91 92  2  3
 92 93  1  0
 93 94  2  0
 93 95  1  0
 95 96  2  0
 96 97  1  0
 97 98  2  0
 98 99  1  0
 99100  2  0
100101  1  0
101102  2  3
102103  1  0
103104  3  0
102105  1  0
105106  3  0
 98107  1  0
107108  1  0
108109  1  0
109110  2  0
110111  1  0
111112  1  0
111113  1  0
 11  2  1  0
 23 17  1  0
 30 24  1  0
 76 34  1  0
 87 81  1  0
101 92  1  0
113107  1  0
 10  5  1  0
 22 18  1  0
 33 28  1  0
 43 36  1  0
 75 44  2  0
 90 85  1  0
100 95  1  0
112108  1  0
 23  7  1  0
 74 46  2  0
113 97  1  0
 72 47  2  0
 52 48  2  0
 71 53  2  0
 69 54  2  0
 68 56  2  0
 65 58  1  0
  1114  1  0
  6115  1  0
  9116  1  0
 17117  1  0
 18118  1  0
 19119  1  0
 20120  1  0
 21121  1  0
 22122  1  0
 22123  1  0
 23124  1  0
 26125  1  0
 26126  1  0
 27127  1  0
 27128  1  0
 27129  1  0
 31130  1  0
 37131  1  0
 38132  1  0
 39133  1  0
 41134  1  0
 41135  1  0
 42136  1  0
 42137  1  0
 42138  1  0
 43139  1  0
 59140  1  0
 60141  1  0
 61142  1  0
 63143  1  0
 63144  1  0
 64145  1  0
 64146  1  0
 64147  1  0
 65148  1  0
 77149  1  0
 77150  1  0
 78151  1  0
 78152  1  0
 78153  1  0
 79154  1  0
 79155  1  0
 80156  1  0
 80157  1  0
 80158  1  0
 83159  1  0
 83160  1  0
 84161  1  0
 84162  1  0
 84163  1  0
 88164  1  0
 91165  1  0
 96166  1  0
 99167  1  0
107168  1  0
108169  1  0
109170  1  0
110171  1  0
111172  1  0
112173  1  0
112174  1  0
113175  1  0
M  END

