
     RDKit          3D

236264  0  0  0  0  0  0  0  0999 V2000
   -6.6739    9.1846    2.5591 C   0  0  0  0  0  0  0  0  0  0  0  0
   -5.9041    9.4712    1.4930 C   0  0  0  0  0  0  0  0  0  0  0  0
   -4.6355    8.7996    1.1613 C   0  0  0  0  0  0  0  0  0  0  0  0
   -3.9562    8.0606    1.9252 O   0  0  0  0  0  0  0  0  0  0  0  0
   -4.3280    9.0494   -0.2275 C   0  0  0  0  0  0  0  0  0  0  0  0
   -3.2842    8.4691   -0.9820 C   0  0  0  0  0  0  0  0  0  0  0  0
   -3.3180    8.7900   -2.3235 C   0  0  0  0  0  0  0  0  0  0  0  0
   -4.3222    9.6308   -2.9023 C   0  0  0  0  0  0  0  0  0  0  0  0
   -5.3473   10.2065   -2.1674 C   0  0  0  0  0  0  0  0  0  0  0  0
   -5.3229    9.9020   -0.7773 C   0  0  0  0  0  0  0  0  0  0  0  0
   -6.2850   10.2859    0.2971 C   0  0  0  0  0  0  0  0  0  0  0  0
   -7.1643   11.3210    0.2705 C   0  0  0  0  0  0  0  0  0  0  0  0
   -7.3437   12.1595   -0.8876 C   0  0  0  0  0  0  0  0  0  0  0  0
   -7.5001   12.8489   -1.8043 N   0  0  0  0  0  0  0  0  0  0  0  0
   -7.8806   11.7502    1.4458 C   0  0  0  0  0  0  0  0  0  0  0  0
   -8.4557   12.1033    2.3850 N   0  0  0  0  0  0  0  0  0  0  0  0
   -3.7066    9.4591   -4.2602 C   0  0  0  0  0  0  0  0  0  0  0  0
   -2.8925   10.6526   -4.8447 C   0  0  0  0  0  0  0  0  0  0  0  0
   -2.2621   11.4482   -3.7259 C   0  0  0  0  0  0  0  0  0  0  0  0
   -1.3246   10.6679   -3.1852 C   0  0  0  0  0  0  0  0  0  0  0  0
   -1.3503    9.3683   -3.9562 C   0  0  0  0  0  0  0  0  0  0  0  0
   -1.6621    9.9162   -5.3380 C   0  0  0  0  0  0  0  0  0  0  0  0
   -2.6754    8.6038   -3.6652 C   0  0  0  0  0  0  0  0  0  0  0  0
   -6.1983    8.3683    3.6800 C   0  0  0  0  0  0  0  0  0  0  0  0
   -6.4897    6.7025    3.8444 S   0  0  0  0  0  0  0  0  0  0  0  0
   -5.4317    6.5278    5.1354 C   0  0  0  0  0  0  0  0  0  0  0  0
   -4.7566    5.3724    5.7111 C   0  0  0  0  0  0  0  0  0  0  0  0
   -3.6274    5.6881    6.4182 C   0  0  0  0  0  0  0  0  0  0  0  0
   -3.3320    7.4997    6.4669 Si  0  0  0  0  0  4  0  0  0  0  0  0
   -3.4922    8.2145    8.1953 C   0  0  0  0  0  0  0  0  0  0  0  0
   -4.9136    8.0728    8.7277 C   0  0  0  0  0  0  0  0  0  0  0  0
   -1.7107    7.8926    5.6078 C   0  0  0  0  0  0  0  0  0  0  0  0
   -1.5608    9.3851    5.3438 C   0  0  0  0  0  0  0  0  0  0  0  0
   -4.8183    7.7260    5.4045 C   0  0  0  0  0  0  0  0  0  0  0  0
   -5.2330    8.7804    4.6007 C   0  0  0  0  0  0  0  0  0  0  0  0
   -2.7599    4.6238    6.6271 C   0  0  0  0  0  0  0  0  0  0  0  0
   -3.2427    3.4351    6.0718 C   0  0  0  0  0  0  0  0  0  0  0  0
   -4.7226    3.7485    5.2901 S   0  0  0  0  0  0  0  0  0  0  0  0
   -2.4873    2.1666    6.0657 C   0  0  0  0  0  0  0  0  0  0  0  0
   -2.9994    0.8535    5.9538 C   0  0  0  0  0  0  0  0  0  0  0  0
   -4.3670    0.4822    5.5700 C   0  0  0  0  0  0  0  0  0  0  0  0
   -4.7845    0.6397    4.2388 C   0  0  0  0  0  0  0  0  0  0  0  0
   -6.0603    0.2278    3.8517 C   0  0  0  0  0  0  0  0  0  0  0  0
   -6.9196   -0.3581    4.7861 C   0  0  0  0  0  0  0  0  0  0  0  0
   -6.5037   -0.5384    6.1145 C   0  0  0  0  0  0  0  0  0  0  0  0
   -7.4400   -1.1346    7.1272 C   0  0  0  0  0  0  0  0  0  0  0  0
   -8.2565   -0.0410    7.8031 C   0  0  0  0  0  0  0  0  0  0  0  0
   -5.2243   -0.1096    6.5041 C   0  0  0  0  0  0  0  0  0  0  0  0
   -1.9881   -0.0949    6.1263 C   0  0  0  0  0  0  0  0  0  0  0  0
   -1.9428   -1.8016    6.0223 S   0  0  0  0  0  0  0  0  0  0  0  0
   -0.2548   -1.7884    6.1979 C   0  0  0  0  0  0  0  0  0  0  0  0
    0.8079   -2.6322    6.0222 C   0  0  0  0  0  0  0  0  0  0  0  0
    0.8943   -4.0175    5.8927 C   0  0  0  0  0  0  0  0  0  0  0  0
    2.1702   -4.5908    5.6004 C   0  0  0  0  0  0  0  0  0  0  0  0
    2.2041   -5.9397    5.4504 N   0  0  0  0  0  0  0  0  0  0  0  0
    0.6112   -6.3008    5.7257 S   0  0  0  0  0  0  0  0  0  0  0  0
   -0.1564   -4.8609    6.0096 N   0  0  0  0  0  0  0  0  0  0  0  0
    3.2658   -3.7418    5.3444 C   0  0  0  0  0  0  0  0  0  0  0  0
    4.3395   -4.0045    4.5307 C   0  0  0  0  0  0  0  0  0  0  0  0
    4.6715   -5.3366    3.5373 S   0  0  0  0  0  0  0  0  0  0  0  0
    5.2632   -4.3748    2.2793 C   0  0  0  0  0  0  0  0  0  0  0  0
    5.3763   -4.6367    0.9003 C   0  0  0  0  0  0  0  0  0  0  0  0
    5.5505   -5.9742    0.2843 C   0  0  0  0  0  0  0  0  0  0  0  0
    6.4769   -6.1185   -0.7674 C   0  0  0  0  0  0  0  0  0  0  0  0
    6.7012   -7.3638   -1.3538 C   0  0  0  0  0  0  0  0  0  0  0  0
    6.0156   -8.4862   -0.8927 C   0  0  0  0  0  0  0  0  0  0  0  0
    5.0909   -8.3680    0.1565 C   0  0  0  0  0  0  0  0  0  0  0  0
    4.4060   -9.5963    0.6936 C   0  0  0  0  0  0  0  0  0  0  0  0
    5.2447  -10.2461    1.7883 C   0  0  0  0  0  0  0  0  0  0  0  0
    4.8523   -7.1089    0.7353 C   0  0  0  0  0  0  0  0  0  0  0  0
    5.3099   -3.4422    0.1583 C   0  0  0  0  0  0  0  0  0  0  0  0
    5.1512   -2.1338    1.2215 S   0  0  0  0  0  0  0  0  0  0  0  0
    5.1712   -3.0429    2.6276 C   0  0  0  0  0  0  0  0  0  0  0  0
    4.6628   -2.8223    3.9189 C   0  0  0  0  0  0  0  0  0  0  0  0
    3.9387   -1.7739    4.4052 N   0  0  0  0  0  0  0  0  0  0  0  0
    3.1150   -2.3425    5.3468 C   0  0  0  0  0  0  0  0  0  0  0  0
    1.9207   -1.7984    5.8808 C   0  0  0  0  0  0  0  0  0  0  0  0
    1.5895   -0.4921    6.1171 N   0  0  0  0  0  0  0  0  0  0  0  0
    0.2488   -0.5341    6.2792 C   0  0  0  0  0  0  0  0  0  0  0  0
   -0.7361    0.4326    6.2849 C   0  0  0  0  0  0  0  0  0  0  0  0
   -0.7911    2.1000    6.2748 S   0  0  0  0  0  0  0  0  0  0  0  0
    2.4692    0.6105    6.5257 C   0  0  0  0  0  0  0  0  0  0  0  0
    2.3862    0.8402    8.0349 C   0  0  0  0  0  0  0  0  0  0  0  0
    3.7207   -0.5127    3.6805 C   0  0  0  0  0  0  0  0  0  0  0  0
    4.9722    0.3604    3.7130 C   0  0  0  0  0  0  0  0  0  0  0  0
    4.7818   -3.3616   -1.2056 C   0  0  0  0  0  0  0  0  0  0  0  0
    3.4224   -3.4492   -1.5441 C   0  0  0  0  0  0  0  0  0  0  0  0
    2.3878   -3.9262   -0.6630 N   0  0  0  0  0  0  0  0  0  0  0  0
    2.0355   -5.3377   -0.6383 C   0  0  0  0  0  0  0  0  0  0  0  0
    2.6029   -6.2434   -1.5650 C   0  0  0  0  0  0  0  0  0  0  0  0
    2.2552   -7.5984   -1.5499 C   0  0  0  0  0  0  0  0  0  0  0  0
    1.3584   -8.0897   -0.5917 C   0  0  0  0  0  0  0  0  0  0  0  0
    0.9772   -9.5405   -0.5702 C   0  0  0  0  0  0  0  0  0  0  0  0
    0.7772   -7.2016    0.3200 C   0  0  0  0  0  0  0  0  0  0  0  0
    1.1004   -5.8427    0.2876 C   0  0  0  0  0  0  0  0  0  0  0  0
    1.6322   -2.9562    0.0897 C   0  0  0  0  0  0  0  0  0  0  0  0
    0.6998   -2.1287   -0.5518 C   0  0  0  0  0  0  0  0  0  0  0  0
   -0.1257   -1.2749    0.1923 C   0  0  0  0  0  0  0  0  0  0  0  0
   -0.0189   -1.2341    1.5903 C   0  0  0  0  0  0  0  0  0  0  0  0
   -0.9508   -0.3885    2.4097 C   0  0  0  0  0  0  0  0  0  0  0  0
    0.9193   -2.0554    2.2286 C   0  0  0  0  0  0  0  0  0  0  0  0
    1.7454   -2.9033    1.4853 C   0  0  0  0  0  0  0  0  0  0  0  0
    3.2380   -3.2510   -2.9057 C   0  0  0  0  0  0  0  0  0  0  0  0
    1.9011   -3.2687   -3.8944 S   0  0  0  0  0  0  0  0  0  0  0  0
    2.7865   -3.0030   -5.3310 C   0  0  0  0  0  0  0  0  0  0  0  0
    4.1612   -2.8933   -5.0180 C   0  0  0  0  0  0  0  0  0  0  0  0
    5.2201   -2.7424   -5.9929 N   0  0  0  0  0  0  0  0  0  0  0  0
    6.4635   -2.1104   -5.6280 C   0  0  0  0  0  0  0  0  0  0  0  0
    6.4671   -0.8653   -4.9802 C   0  0  0  0  0  0  0  0  0  0  0  0
    7.6689   -0.3066   -4.5341 C   0  0  0  0  0  0  0  0  0  0  0  0
    8.8824   -0.9788   -4.7417 C   0  0  0  0  0  0  0  0  0  0  0  0
   10.1753   -0.3954   -4.2547 C   0  0  0  0  0  0  0  0  0  0  0  0
    8.8840   -2.2047   -5.4213 C   0  0  0  0  0  0  0  0  0  0  0  0
    7.6813   -2.7665   -5.8609 C   0  0  0  0  0  0  0  0  0  0  0  0
    5.0736   -3.2829   -7.3226 C   0  0  0  0  0  0  0  0  0  0  0  0
    4.5668   -4.5794   -7.5144 C   0  0  0  0  0  0  0  0  0  0  0  0
    4.3518   -5.0698   -8.8061 C   0  0  0  0  0  0  0  0  0  0  0  0
    4.6674   -4.2806   -9.9234 C   0  0  0  0  0  0  0  0  0  0  0  0
    4.3608   -4.7755  -11.3061 C   0  0  0  0  0  0  0  0  0  0  0  0
    5.1941   -2.9958   -9.7328 C   0  0  0  0  0  0  0  0  0  0  0  0
    5.4012   -2.5021   -8.4421 C   0  0  0  0  0  0  0  0  0  0  0  0
    4.3649   -3.0355   -3.6340 C   0  0  0  0  0  0  0  0  0  0  0  0
    5.6998   -3.0556   -2.6068 S   0  0  0  0  0  0  0  0  0  0  0  0
    2.1490   -2.6583   -6.6166 C   0  0  0  0  0  0  0  0  0  0  0  0
    1.0090   -3.2290   -7.0521 C   0  0  0  0  0  0  0  0  0  0  0  0
    0.3593   -4.3907   -6.4422 C   0  0  0  0  0  0  0  0  0  0  0  0
    0.9444   -5.3544   -5.8754 O   0  0  0  0  0  0  0  0  0  0  0  0
   -1.0646   -4.2833   -6.6456 C   0  0  0  0  0  0  0  0  0  0  0  0
   -2.0711   -5.0566   -6.0225 C   0  0  0  0  0  0  0  0  0  0  0  0
   -3.3504   -4.5889   -6.2553 C   0  0  0  0  0  0  0  0  0  0  0  0
   -3.6324   -3.4282   -7.0446 C   0  0  0  0  0  0  0  0  0  0  0  0
   -2.6509   -2.6724   -7.6689 C   0  0  0  0  0  0  0  0  0  0  0  0
   -1.3264   -3.1515   -7.4659 C   0  0  0  0  0  0  0  0  0  0  0  0
   -0.0291   -2.5505   -7.8821 C   0  0  0  0  0  0  0  0  0  0  0  0
    0.1823   -1.6986   -8.9186 C   0  0  0  0  0  0  0  0  0  0  0  0
   -0.8952   -1.1716   -9.7169 C   0  0  0  0  0  0  0  0  0  0  0  0
   -1.7496   -0.7402  -10.3670 N   0  0  0  0  0  0  0  0  0  0  0  0
    1.5046   -1.3600   -9.3752 C   0  0  0  0  0  0  0  0  0  0  0  0
    2.5629   -1.0801   -9.7569 N   0  0  0  0  0  0  0  0  0  0  0  0
   -5.0919   -3.5486   -6.7300 C   0  0  0  0  0  0  0  0  0  0  0  0
   -5.6573   -2.5419   -5.6862 C   0  0  0  0  0  0  0  0  0  0  0  0
   -6.9915   -3.1024   -5.2601 C   0  0  0  0  0  0  0  0  0  0  0  0
   -6.7320   -4.1948   -4.5302 C   0  0  0  0  0  0  0  0  0  0  0  0
   -5.2285   -4.3328   -4.4924 C   0  0  0  0  0  0  0  0  0  0  0  0
   -4.8620   -2.8583   -4.4300 C   0  0  0  0  0  0  0  0  0  0  0  0
   -4.8016   -4.7422   -5.9317 C   0  0  0  0  0  0  0  0  0  0  0  0
   -7.7045    9.4958    2.5962 H   0  0  0  0  0  0  0  0  0  0  0  0
   -2.5439    7.8040   -0.5576 H   0  0  0  0  0  0  0  0  0  0  0  0
   -6.1010   10.8015   -2.6547 H   0  0  0  0  0  0  0  0  0  0  0  0
   -4.3607    8.9311   -4.9885 H   0  0  0  0  0  0  0  0  0  0  0  0
   -3.4219   11.2603   -5.6090 H   0  0  0  0  0  0  0  0  0  0  0  0
   -2.4712   12.4757   -3.4532 H   0  0  0  0  0  0  0  0  0  0  0  0
   -0.6342   10.9597   -2.4027 H   0  0  0  0  0  0  0  0  0  0  0  0
   -0.4242    8.7592   -3.8821 H   0  0  0  0  0  0  0  0  0  0  0  0
   -0.8699   10.5952   -5.7346 H   0  0  0  0  0  0  0  0  0  0  0  0
   -1.8821    9.1256   -6.0927 H   0  0  0  0  0  0  0  0  0  0  0  0
   -2.6986    7.5522   -4.0313 H   0  0  0  0  0  0  0  0  0  0  0  0
   -3.2106    9.2911    8.1673 H   0  0  0  0  0  0  0  0  0  0  0  0
   -2.7916    7.6771    8.8714 H   0  0  0  0  0  0  0  0  0  0  0  0
   -4.9574    8.4509    9.7716 H   0  0  0  0  0  0  0  0  0  0  0  0
   -5.6170    8.6707    8.1060 H   0  0  0  0  0  0  0  0  0  0  0  0
   -5.2333    7.0058    8.7213 H   0  0  0  0  0  0  0  0  0  0  0  0
   -0.8743    7.5442    6.2487 H   0  0  0  0  0  0  0  0  0  0  0  0
   -1.6767    7.3420    4.6441 H   0  0  0  0  0  0  0  0  0  0  0  0
   -2.3700    9.7466    4.6775 H   0  0  0  0  0  0  0  0  0  0  0  0
   -0.5889    9.5721    4.8435 H   0  0  0  0  0  0  0  0  0  0  0  0
   -1.5817    9.9526    6.2983 H   0  0  0  0  0  0  0  0  0  0  0  0
   -4.7896    9.7654    4.6170 H   0  0  0  0  0  0  0  0  0  0  0  0
   -1.7848    4.7365    7.0791 H   0  0  0  0  0  0  0  0  0  0  0  0
   -4.1201    1.0806    3.5049 H   0  0  0  0  0  0  0  0  0  0  0  0
   -6.3839    0.3594    2.8278 H   0  0  0  0  0  0  0  0  0  0  0  0
   -7.9082   -0.6722    4.4726 H   0  0  0  0  0  0  0  0  0  0  0  0
   -8.1268   -1.8599    6.6360 H   0  0  0  0  0  0  0  0  0  0  0  0
   -6.8629   -1.6926    7.8957 H   0  0  0  0  0  0  0  0  0  0  0  0
   -8.8614    0.5123    7.0515 H   0  0  0  0  0  0  0  0  0  0  0  0
   -8.9472   -0.4994    8.5436 H   0  0  0  0  0  0  0  0  0  0  0  0
   -7.5894    0.6760    8.3266 H   0  0  0  0  0  0  0  0  0  0  0  0
   -4.8968   -0.2402    7.5279 H   0  0  0  0  0  0  0  0  0  0  0  0
    7.0484   -5.2715   -1.1142 H   0  0  0  0  0  0  0  0  0  0  0  0
    7.4226   -7.4623   -2.1533 H   0  0  0  0  0  0  0  0  0  0  0  0
    6.2135   -9.4511   -1.3458 H   0  0  0  0  0  0  0  0  0  0  0  0
    4.2472  -10.3249   -0.1323 H   0  0  0  0  0  0  0  0  0  0  0  0
    3.4069   -9.3354    1.1028 H   0  0  0  0  0  0  0  0  0  0  0  0
    6.2921  -10.3803    1.4449 H   0  0  0  0  0  0  0  0  0  0  0  0
    5.2306   -9.6170    2.7025 H   0  0  0  0  0  0  0  0  0  0  0  0
    4.8273  -11.2426    2.0341 H   0  0  0  0  0  0  0  0  0  0  0  0
    4.1041   -7.0243    1.5067 H   0  0  0  0  0  0  0  0  0  0  0  0
    2.1805    1.5388    5.9884 H   0  0  0  0  0  0  0  0  0  0  0  0
    3.5210    0.3726    6.2841 H   0  0  0  0  0  0  0  0  0  0  0  0
    1.3461    1.0652    8.3412 H   0  0  0  0  0  0  0  0  0  0  0  0
    3.0320    1.6945    8.3136 H   0  0  0  0  0  0  0  0  0  0  0  0
    2.7321   -0.0675    8.5718 H   0  0  0  0  0  0  0  0  0  0  0  0
    2.8677    0.0570    4.0754 H   0  0  0  0  0  0  0  0  0  0  0  0
    3.4234   -0.7153    2.6360 H   0  0  0  0  0  0  0  0  0  0  0  0
    5.8267   -0.1635    3.2376 H   0  0  0  0  0  0  0  0  0  0  0  0
    4.7815    1.3036    3.1604 H   0  0  0  0  0  0  0  0  0  0  0  0
    5.2510    0.6057    4.7594 H   0  0  0  0  0  0  0  0  0  0  0  0
    3.3203   -5.9193   -2.3033 H   0  0  0  0  0  0  0  0  0  0  0  0
    2.7056   -8.2662   -2.2738 H   0  0  0  0  0  0  0  0  0  0  0  0
    1.7174  -10.1576   -1.1258 H   0  0  0  0  0  0  0  0  0  0  0  0
   -0.0219   -9.6700   -1.0358 H   0  0  0  0  0  0  0  0  0  0  0  0
    0.9406   -9.9071    0.4765 H   0  0  0  0  0  0  0  0  0  0  0  0
    0.0698   -7.5603    1.0582 H   0  0  0  0  0  0  0  0  0  0  0  0
    0.6088   -5.1974    1.0016 H   0  0  0  0  0  0  0  0  0  0  0  0
    0.5762   -2.1725   -1.6215 H   0  0  0  0  0  0  0  0  0  0  0  0
   -0.8617   -0.6691   -0.3216 H   0  0  0  0  0  0  0  0  0  0  0  0
   -1.6958   -1.0423    2.9096 H   0  0  0  0  0  0  0  0  0  0  0  0
   -0.3828    0.1736    3.1800 H   0  0  0  0  0  0  0  0  0  0  0  0
   -1.4957    0.3428    1.7762 H   0  0  0  0  0  0  0  0  0  0  0  0
    0.9936   -2.0547    3.3039 H   0  0  0  0  0  0  0  0  0  0  0  0
    2.4353   -3.5545    2.0008 H   0  0  0  0  0  0  0  0  0  0  0  0
    5.5360   -0.3422   -4.8056 H   0  0  0  0  0  0  0  0  0  0  0  0
    7.6448    0.6456   -4.0159 H   0  0  0  0  0  0  0  0  0  0  0  0
   10.8037   -0.1124   -5.1258 H   0  0  0  0  0  0  0  0  0  0  0  0
   10.7243   -1.1447   -3.6435 H   0  0  0  0  0  0  0  0  0  0  0  0
   10.0083    0.5078   -3.6290 H   0  0  0  0  0  0  0  0  0  0  0  0
    9.8144   -2.7348   -5.5948 H   0  0  0  0  0  0  0  0  0  0  0  0
    7.6950   -3.7325   -6.3488 H   0  0  0  0  0  0  0  0  0  0  0  0
    4.3205   -5.2033   -6.6625 H   0  0  0  0  0  0  0  0  0  0  0  0
    3.9303   -6.0587   -8.9337 H   0  0  0  0  0  0  0  0  0  0  0  0
    4.4145   -5.8837  -11.3522 H   0  0  0  0  0  0  0  0  0  0  0  0
    3.3389   -4.4471  -11.5960 H   0  0  0  0  0  0  0  0  0  0  0  0
    5.0891   -4.3620  -12.0371 H   0  0  0  0  0  0  0  0  0  0  0  0
    5.4233   -2.3659  -10.5853 H   0  0  0  0  0  0  0  0  0  0  0  0
    5.7806   -1.4949   -8.3154 H   0  0  0  0  0  0  0  0  0  0  0  0
    2.5346   -1.7689   -7.0923 H   0  0  0  0  0  0  0  0  0  0  0  0
   -1.8594   -5.8879   -5.3618 H   0  0  0  0  0  0  0  0  0  0  0  0
   -2.8952   -1.7603   -8.1906 H   0  0  0  0  0  0  0  0  0  0  0  0
   -5.7277   -3.7299   -7.6242 H   0  0  0  0  0  0  0  0  0  0  0  0
   -5.6658   -1.4784   -6.0012 H   0  0  0  0  0  0  0  0  0  0  0  0
   -7.9690   -2.6600   -5.4213 H   0  0  0  0  0  0  0  0  0  0  0  0
   -7.4616   -4.7986   -4.0010 H   0  0  0  0  0  0  0  0  0  0  0  0
   -4.8278   -4.9663   -3.6730 H   0  0  0  0  0  0  0  0  0  0  0  0
   -5.2468   -2.3387   -3.5189 H   0  0  0  0  0  0  0  0  0  0  0  0
   -3.7722   -2.6540   -4.5168 H   0  0  0  0  0  0  0  0  0  0  0  0
   -5.2443   -5.6854   -6.3234 H   0  0  0  0  0  0  0  0  0  0  0  0
  1  2  2  3
  2  3  1  0
  3  4  2  0
  3  5  1  0
  5  6  2  0
  6  7  1  0
  7  8  2  0
  8  9  1  0
  9 10  2  0
 10 11  1  0
 11 12  2  3
 12 13  1  0
 13 14  3  0
 12 15  1  0
 15 16  3  0
  8 17  1  0
 17 18  1  0
 18 19  1  0
 19 20  2  0
 20 21  1  0
 21 22  1  0
 21 23  1  0
  1 24  1  0
 24 25  1  0
 25 26  1  0
 26 27  1  0
 27 28  2  0
 28 29  1  0
 29 30  1  0
 30 31  1  0
 29 32  1  0
 32 33  1  0
 29 34  1  0
 34 35  1  0
 28 36  1  0
 36 37  2  0
 37 38  1  0
 37 39  1  0
 39 40  2  0
 40 41  1  0
 41 42  2  0
 42 43  1  0
 43 44  2  0
 44 45  1  0
 45 46  1  0
 46 47  1  0
 45 48  2  0
 40 49  1  0
 49 50  1  0
 50 51  1  0
 51 52  1  0
 52 53  1  0
 53 54  1  0
 54 55  2  0
 55 56  1  0
 56 57  1  0
 54 58  1  0
 58 59  1  0
 59 60  1  0
 60 61  1  0
 61 62  1  0
 62 63  1  0
 63 64  2  0
 64 65  1  0
 65 66  2  0
 66 67  1  0
 67 68  1  0
 68 69  1  0
 67 70  2  0
 62 71  2  0
 71 72  1  0
 72 73  1  0
 73 74  1  0
 74 75  1  0
 75 76  1  0
 76 77  1  0
 77 78  1  0
 78 79  1  0
 79 80  1  0
 80 81  1  0
 78 82  1  0
 82 83  1  0
 75 84  1  0
 84 85  1  0
 71 86  1  0
 86 87  2  0
 87 88  1  0
 88 89  1  0
 89 90  2  0
 90 91  1  0
 91 92  2  0
 92 93  1  0
 92 94  1  0
 94 95  2  0
 88 96  1  0
 96 97  2  0
 97 98  1  0
 98 99  2  0
 99100  1  0
 99101  1  0
101102  2  0
 87103  1  0
103104  1  0
104105  1  0
105106  2  0
106107  1  0
107108  1  0
108109  2  0
109110  1  0
110111  2  0
111112  1  0
111113  1  0
113114  2  0
107115  1  0
115116  2  0
116117  1  0
117118  2  0
118119  1  0
118120  1  0
120121  2  0
106122  1  0
122123  1  0
105124  1  0
124125  2  3
125126  1  0
126127  2  0
126128  1  0
128129  2  0
129130  1  0
130131  2  0
131132  1  0
132133  2  0
133134  1  0
134135  2  3
135136  1  0
136137  3  0
135138  1  0
138139  3  0
131140  1  0
140141  1  0
141142  1  0
142143  2  0
143144  1  0
144145  1  0
144146  1  0
 11  2  1  0
 23 17  1  0
 35 24  2  0
 81 39  1  0
123 86  1  0
134125  1  0
146140  1  0
 10  5  1  0
 22 18  1  0
 34 26  2  0
 48 41  1  0
 80 49  2  0
 95 89  1  0
102 96  1  0
122103  2  0
133128  1  0
145141  1  0
 23  7  1  0
 38 27  1  0
 79 51  2  0
114108  1  0
121115  1  0
146130  1  0
 77 52  2  0
 57 53  2  0
 76 58  2  0
 74 59  2  0
 73 61  2  0
 70 63  1  0
  1147  1  0
  6148  1  0
  9149  1  0
 17150  1  0
 18151  1  0
 19152  1  0
 20153  1  0
 21154  1  0
 22155  1  0
 22156  1  0
 23157  1  0
 30158  1  0
 30159  1  0
 31160  1  0
 31161  1  0
 31162  1  0
 32163  1  0
 32164  1  0
 33165  1  0
 33166  1  0
 33167  1  0
 35168  1  0
 36169  1  0
 42170  1  0
 43171  1  0
 44172  1  0
 46173  1  0
 46174  1  0
 47175  1  0
 47176  1  0
 47177  1  0
 48178  1  0
 64179  1  0
 65180  1  0
 66181  1  0
 68182  1  0
 68183  1  0
 69184  1  0
 69185  1  0
 69186  1  0
 70187  1  0
 82188  1  0
 82189  1  0
 83190  1  0
 83191  1  0
 83192  1  0
 84193  1  0
 84194  1  0
 85195  1  0
 85196  1  0
 85197  1  0
 90198  1  0
 91199  1  0
 93200  1  0
 93201  1  0
 93202  1  0
 94203  1  0
 95204  1  0
 97205  1  0
 98206  1  0
100207  1  0
100208  1  0
100209  1  0
101210  1  0
102211  1  0
109212  1  0
110213  1  0
112214  1  0
112215  1  0
112216  1  0
113217  1  0
114218  1  0
116219  1  0
117220  1  0
119221  1  0
119222  1  0
119223  1  0
120224  1  0
121225  1  0
124226  1  0
129227  1  0
132228  1  0
140229  1  0
141230  1  0
142231  1  0
143232  1  0
144233  1  0
145234  1  0
145235  1  0
146236  1  0
M  END

