
     RDKit          3D

219246  0  0  0  0  0  0  0  0999 V2000
   -2.8738   -4.9367    7.1191 C   0  0  0  0  0  0  0  0  0  0  0  0
   -1.8114   -4.6711    6.3342 C   0  0  0  0  0  0  0  0  0  0  0  0
   -1.8267   -3.7851    5.1609 C   0  0  0  0  0  0  0  0  0  0  0  0
   -2.7280   -2.9575    4.8563 O   0  0  0  0  0  0  0  0  0  0  0  0
   -0.6659   -4.0583    4.3483 C   0  0  0  0  0  0  0  0  0  0  0  0
   -0.3676   -3.4944    3.0880 C   0  0  0  0  0  0  0  0  0  0  0  0
    0.7826   -3.9945    2.5111 C   0  0  0  0  0  0  0  0  0  0  0  0
    1.6006   -4.9915    3.1318 C   0  0  0  0  0  0  0  0  0  0  0  0
    1.3057   -5.5593    4.3596 C   0  0  0  0  0  0  0  0  0  0  0  0
    0.1227   -5.0593    4.9796 C   0  0  0  0  0  0  0  0  0  0  0  0
   -0.5159   -5.4277    6.2814 C   0  0  0  0  0  0  0  0  0  0  0  0
    0.0327   -6.1709    7.2806 C   0  0  0  0  0  0  0  0  0  0  0  0
   -0.5393   -6.2260    8.6001 C   0  0  0  0  0  0  0  0  0  0  0  0
   -0.9848   -6.2733    9.6700 N   0  0  0  0  0  0  0  0  0  0  0  0
    1.2536   -6.9144    7.1222 C   0  0  0  0  0  0  0  0  0  0  0  0
    2.2299   -7.5271    7.0097 N   0  0  0  0  0  0  0  0  0  0  0  0
    2.5329   -4.9824    1.9530 C   0  0  0  0  0  0  0  0  0  0  0  0
    2.4743   -6.1906    0.9688 C   0  0  0  0  0  0  0  0  0  0  0  0
    1.0782   -6.7663    0.9531 C   0  0  0  0  0  0  0  0  0  0  0  0
    0.2931   -5.8550    0.3776 C   0  0  0  0  0  0  0  0  0  0  0  0
    1.1850   -4.6876    0.0178 C   0  0  0  0  0  0  0  0  0  0  0  0
    2.4412   -5.4527   -0.3556 C   0  0  0  0  0  0  0  0  0  0  0  0
    1.6811   -3.9743    1.3131 C   0  0  0  0  0  0  0  0  0  0  0  0
   -4.1590   -4.2329    6.9820 C   0  0  0  0  0  0  0  0  0  0  0  0
   -4.4084   -2.6215    7.3946 S   0  0  0  0  0  0  0  0  0  0  0  0
   -5.9251   -2.4549    6.6801 C   0  0  0  0  0  0  0  0  0  0  0  0
   -6.2581   -3.6830    6.0947 C   0  0  0  0  0  0  0  0  0  0  0  0
   -7.4803   -3.9631    5.3077 C   0  0  0  0  0  0  0  0  0  0  0  0
   -8.4349   -3.1425    5.3002 O   0  0  0  0  0  0  0  0  0  0  0  0
   -7.5744   -5.2497    4.5803 C   0  0  0  0  0  0  0  0  0  0  0  0
   -8.5887   -5.6241    3.6883 C   0  0  0  0  0  0  0  0  0  0  0  0
   -9.7376   -4.7938    3.1956 C   0  0  0  0  0  0  0  0  0  0  0  0
   -9.2715   -3.7945    2.1400 C   0  0  0  0  0  0  0  0  0  0  0  0
   -8.2473   -7.1672    3.1175 S   0  0  0  0  0  0  0  0  0  0  0  0
   -6.8228   -7.3941    3.9846 C   0  0  0  0  0  0  0  0  0  0  0  0
   -6.0322   -8.6729    3.9583 C   0  0  0  0  0  0  0  0  0  0  0  0
   -6.4145   -9.5705    5.1293 C   0  0  0  0  0  0  0  0  0  0  0  0
   -6.5828   -6.2426    4.7452 C   0  0  0  0  0  0  0  0  0  0  0  0
   -5.4196   -6.0102    5.6370 C   0  0  0  0  0  0  0  0  0  0  0  0
   -4.5742   -6.9154    5.8546 O   0  0  0  0  0  0  0  0  0  0  0  0
   -5.2739   -4.6773    6.2668 C   0  0  0  0  0  0  0  0  0  0  0  0
   -6.4982   -1.1413    6.3385 C   0  0  0  0  0  0  0  0  0  0  0  0
   -6.4862   -0.0019    7.1691 C   0  0  0  0  0  0  0  0  0  0  0  0
   -6.1848   -0.0386    8.6166 C   0  0  0  0  0  0  0  0  0  0  0  0
   -5.1738    0.7667    9.1653 C   0  0  0  0  0  0  0  0  0  0  0  0
   -4.8816    0.7019   10.5301 C   0  0  0  0  0  0  0  0  0  0  0  0
   -5.5874   -0.1751   11.3593 C   0  0  0  0  0  0  0  0  0  0  0  0
   -6.5961   -0.9921   10.8248 C   0  0  0  0  0  0  0  0  0  0  0  0
   -7.3099   -1.9837   11.6981 C   0  0  0  0  0  0  0  0  0  0  0  0
   -6.5873   -3.3264   11.6821 C   0  0  0  0  0  0  0  0  0  0  0  0
   -6.8822   -0.9271    9.4512 C   0  0  0  0  0  0  0  0  0  0  0  0
   -6.6576    1.1718    6.4215 C   0  0  0  0  0  0  0  0  0  0  0  0
   -6.3197    2.7894    6.7845 S   0  0  0  0  0  0  0  0  0  0  0  0
   -6.3383    3.2428    5.1496 C   0  0  0  0  0  0  0  0  0  0  0  0
   -5.5160    4.0989    4.4663 C   0  0  0  0  0  0  0  0  0  0  0  0
   -4.5563    4.9760    5.0021 C   0  0  0  0  0  0  0  0  0  0  0  0
   -3.4377    5.3514    4.2015 C   0  0  0  0  0  0  0  0  0  0  0  0
   -2.4920    6.1304    4.7800 N   0  0  0  0  0  0  0  0  0  0  0  0
   -3.1468    6.2797    6.2947 S   0  0  0  0  0  0  0  0  0  0  0  0
   -4.5620    5.4195    6.2846 N   0  0  0  0  0  0  0  0  0  0  0  0
   -3.3861    4.9024    2.8840 C   0  0  0  0  0  0  0  0  0  0  0  0
   -2.4503    5.0606    1.9079 C   0  0  0  0  0  0  0  0  0  0  0  0
   -0.7955    5.4117    1.8296 S   0  0  0  0  0  0  0  0  0  0  0  0
   -0.7454    4.8374    0.2243 C   0  0  0  0  0  0  0  0  0  0  0  0
    0.3099    4.5681   -0.6444 C   0  0  0  0  0  0  0  0  0  0  0  0
    1.7179    4.6248   -0.2180 C   0  0  0  0  0  0  0  0  0  0  0  0
    2.3673    5.8503   -0.0236 C   0  0  0  0  0  0  0  0  0  0  0  0
    3.6754    5.8765    0.4712 C   0  0  0  0  0  0  0  0  0  0  0  0
    4.3436    4.6803    0.7617 C   0  0  0  0  0  0  0  0  0  0  0  0
    3.7061    3.4467    0.5541 C   0  0  0  0  0  0  0  0  0  0  0  0
    4.4179    2.1516    0.8386 C   0  0  0  0  0  0  0  0  0  0  0  0
    4.0413    1.6113    2.2147 C   0  0  0  0  0  0  0  0  0  0  0  0
    2.3799    3.4286    0.1026 C   0  0  0  0  0  0  0  0  0  0  0  0
   -0.1615    3.9780   -1.8347 C   0  0  0  0  0  0  0  0  0  0  0  0
   -1.8420    3.7439   -1.7450 S   0  0  0  0  0  0  0  0  0  0  0  0
   -1.9746    4.4013   -0.2099 C   0  0  0  0  0  0  0  0  0  0  0  0
   -2.9369    4.4786    0.7845 C   0  0  0  0  0  0  0  0  0  0  0  0
   -4.1371    3.8741    0.9852 N   0  0  0  0  0  0  0  0  0  0  0  0
   -4.3812    4.0987    2.3169 C   0  0  0  0  0  0  0  0  0  0  0  0
   -5.3876    3.5678    3.1684 C   0  0  0  0  0  0  0  0  0  0  0  0
   -5.9913    2.3352    3.0987 N   0  0  0  0  0  0  0  0  0  0  0  0
   -6.5656    2.1703    4.3238 C   0  0  0  0  0  0  0  0  0  0  0  0
   -6.7725    0.9980    5.0632 C   0  0  0  0  0  0  0  0  0  0  0  0
   -6.6671   -0.6399    4.7220 S   0  0  0  0  0  0  0  0  0  0  0  0
   -5.5887    1.2198    2.2319 C   0  0  0  0  0  0  0  0  0  0  0  0
   -6.7882    0.6463    1.4793 C   0  0  0  0  0  0  0  0  0  0  0  0
   -5.1458    3.6088   -0.0525 C   0  0  0  0  0  0  0  0  0  0  0  0
   -4.7614    2.4420   -0.9709 C   0  0  0  0  0  0  0  0  0  0  0  0
    0.6259    3.7673   -3.0530 C   0  0  0  0  0  0  0  0  0  0  0  0
    0.3568    4.6057   -4.4937 S   0  0  0  0  0  0  0  0  0  0  0  0
    1.7925    4.1158   -5.2094 C   0  0  0  0  0  0  0  0  0  0  0  0
    2.3946    4.5822   -6.4395 C   0  0  0  0  0  0  0  0  0  0  0  0
    3.6694    4.1843   -6.7548 C   0  0  0  0  0  0  0  0  0  0  0  0
    4.4044    3.3287   -5.9228 O   0  0  0  0  0  0  0  0  0  0  0  0
    3.9502    2.8680   -4.6287 C   0  0  0  0  0  0  0  0  0  0  0  0
    3.9553    1.3366   -4.6295 C   0  0  0  0  0  0  0  0  0  0  0  0
    3.7208    0.6361   -5.8322 C   0  0  0  0  0  0  0  0  0  0  0  0
    3.6248   -0.7584   -5.8422 C   0  0  0  0  0  0  0  0  0  0  0  0
    3.7548   -1.4869   -4.6536 C   0  0  0  0  0  0  0  0  0  0  0  0
    3.6284   -2.9877   -4.6579 C   0  0  0  0  0  0  0  0  0  0  0  0
    2.2026   -3.4094   -4.3140 C   0  0  0  0  0  0  0  0  0  0  0  0
    3.9488   -0.7992   -3.4473 C   0  0  0  0  0  0  0  0  0  0  0  0
    4.0289    0.5969   -3.4329 C   0  0  0  0  0  0  0  0  0  0  0  0
    4.9049    3.5050   -3.6094 C   0  0  0  0  0  0  0  0  0  0  0  0
    4.6691    4.8189   -3.1476 C   0  0  0  0  0  0  0  0  0  0  0  0
    5.5639    5.4500   -2.2835 C   0  0  0  0  0  0  0  0  0  0  0  0
    6.7255    4.7928   -1.8658 C   0  0  0  0  0  0  0  0  0  0  0  0
    7.6873    5.4864   -0.9382 C   0  0  0  0  0  0  0  0  0  0  0  0
    8.5650    6.4754   -1.7007 C   0  0  0  0  0  0  0  0  0  0  0  0
    7.0090    3.5149   -2.3660 C   0  0  0  0  0  0  0  0  0  0  0  0
    6.1230    2.8901   -3.2506 C   0  0  0  0  0  0  0  0  0  0  0  0
    2.5081    3.3024   -4.3446 C   0  0  0  0  0  0  0  0  0  0  0  0
    1.8406    3.0962   -3.1316 C   0  0  0  0  0  0  0  0  0  0  0  0
    4.1340    4.7066   -7.9548 C   0  0  0  0  0  0  0  0  0  0  0  0
    3.1940    5.5310   -8.5731 C   0  0  0  0  0  0  0  0  0  0  0  0
    1.7971    5.6215   -7.6234 S   0  0  0  0  0  0  0  0  0  0  0  0
    3.4024    6.1674   -9.8802 C   0  0  0  0  0  0  0  0  0  0  0  0
    3.6959    5.4283  -10.9676 C   0  0  0  0  0  0  0  0  0  0  0  0
    3.5810    3.9668  -11.0195 C   0  0  0  0  0  0  0  0  0  0  0  0
    2.7736    3.2613  -10.3544 O   0  0  0  0  0  0  0  0  0  0  0  0
    4.5610    3.4548  -11.9428 C   0  0  0  0  0  0  0  0  0  0  0  0
    4.9666    2.1073  -12.0750 C   0  0  0  0  0  0  0  0  0  0  0  0
    6.1218    1.9472  -12.8154 C   0  0  0  0  0  0  0  0  0  0  0  0
    6.8420    3.0430  -13.3923 C   0  0  0  0  0  0  0  0  0  0  0  0
    6.4402    4.3630  -13.2787 C   0  0  0  0  0  0  0  0  0  0  0  0
    5.2416    4.5504  -12.5375 C   0  0  0  0  0  0  0  0  0  0  0  0
    4.6182    5.8220  -12.0717 C   0  0  0  0  0  0  0  0  0  0  0  0
    4.7475    7.0500  -12.6308 C   0  0  0  0  0  0  0  0  0  0  0  0
    3.9488    8.1708  -12.2084 C   0  0  0  0  0  0  0  0  0  0  0  0
    3.3113    9.0820  -11.8794 N   0  0  0  0  0  0  0  0  0  0  0  0
    5.6015    7.2873  -13.7622 C   0  0  0  0  0  0  0  0  0  0  0  0
    6.2964    7.4846  -14.6705 N   0  0  0  0  0  0  0  0  0  0  0  0
    7.9214    2.1113  -13.8481 C   0  0  0  0  0  0  0  0  0  0  0  0
    9.2427    2.1389  -13.0240 C   0  0  0  0  0  0  0  0  0  0  0  0
    9.9939    0.8840  -13.3997 C   0  0  0  0  0  0  0  0  0  0  0  0
    9.3153   -0.1395  -12.8676 C   0  0  0  0  0  0  0  0  0  0  0  0
    8.1324    0.4606  -12.1484 C   0  0  0  0  0  0  0  0  0  0  0  0
    8.7917    1.7265  -11.6315 C   0  0  0  0  0  0  0  0  0  0  0  0
    7.1792    0.9895  -13.2614 C   0  0  0  0  0  0  0  0  0  0  0  0
   -2.8663   -5.7807    7.7875 H   0  0  0  0  0  0  0  0  0  0  0  0
   -0.9998   -2.7604    2.6019 H   0  0  0  0  0  0  0  0  0  0  0  0
    1.9375   -6.3320    4.7575 H   0  0  0  0  0  0  0  0  0  0  0  0
    3.5599   -4.6177    2.1880 H   0  0  0  0  0  0  0  0  0  0  0  0
    3.2902   -6.9341    1.0828 H   0  0  0  0  0  0  0  0  0  0  0  0
    0.7683   -7.7509    1.2858 H   0  0  0  0  0  0  0  0  0  0  0  0
   -0.7639   -5.9729    0.1590 H   0  0  0  0  0  0  0  0  0  0  0  0
    0.7850   -4.0189   -0.7735 H   0  0  0  0  0  0  0  0  0  0  0  0
    3.3273   -4.7943   -0.5231 H   0  0  0  0  0  0  0  0  0  0  0  0
    2.3053   -6.1249   -1.2378 H   0  0  0  0  0  0  0  0  0  0  0  0
    2.1883   -2.9973    1.1470 H   0  0  0  0  0  0  0  0  0  0  0  0
  -10.5000   -5.4599    2.7431 H   0  0  0  0  0  0  0  0  0  0  0  0
  -10.2316   -4.2643    4.0351 H   0  0  0  0  0  0  0  0  0  0  0  0
   -8.7699   -4.3259    1.3021 H   0  0  0  0  0  0  0  0  0  0  0  0
   -8.5586   -3.0638    2.5810 H   0  0  0  0  0  0  0  0  0  0  0  0
  -10.1478   -3.2354    1.7383 H   0  0  0  0  0  0  0  0  0  0  0  0
   -6.2389   -9.2145    3.0101 H   0  0  0  0  0  0  0  0  0  0  0  0
   -4.9423   -8.4616    3.9754 H   0  0  0  0  0  0  0  0  0  0  0  0
   -6.2500   -9.0476    6.0935 H   0  0  0  0  0  0  0  0  0  0  0  0
   -7.4846   -9.8607    5.0525 H   0  0  0  0  0  0  0  0  0  0  0  0
   -5.7931  -10.4913    5.1071 H   0  0  0  0  0  0  0  0  0  0  0  0
   -4.5847    1.4242    8.5339 H   0  0  0  0  0  0  0  0  0  0  0  0
   -4.0940    1.3222   10.9430 H   0  0  0  0  0  0  0  0  0  0  0  0
   -5.3420   -0.2205   12.4116 H   0  0  0  0  0  0  0  0  0  0  0  0
   -7.3668   -1.6104   12.7429 H   0  0  0  0  0  0  0  0  0  0  0  0
   -8.3526   -2.1271   11.3419 H   0  0  0  0  0  0  0  0  0  0  0  0
   -6.5397   -3.7300   10.6457 H   0  0  0  0  0  0  0  0  0  0  0  0
   -5.5551   -3.2166   12.0814 H   0  0  0  0  0  0  0  0  0  0  0  0
   -7.1381   -4.0518   12.3213 H   0  0  0  0  0  0  0  0  0  0  0  0
   -7.6480   -1.5683    9.0316 H   0  0  0  0  0  0  0  0  0  0  0  0
    1.8614    6.7802   -0.2469 H   0  0  0  0  0  0  0  0  0  0  0  0
    4.1791    6.8213    0.6137 H   0  0  0  0  0  0  0  0  0  0  0  0
    5.3599    4.7128    1.1317 H   0  0  0  0  0  0  0  0  0  0  0  0
    4.1463    1.3985    0.0645 H   0  0  0  0  0  0  0  0  0  0  0  0
    5.5196    2.2931    0.7816 H   0  0  0  0  0  0  0  0  0  0  0  0
    2.9427    1.4697    2.2878 H   0  0  0  0  0  0  0  0  0  0  0  0
    4.5360    0.6287    2.3757 H   0  0  0  0  0  0  0  0  0  0  0  0
    4.3764    2.3155    3.0038 H   0  0  0  0  0  0  0  0  0  0  0  0
    1.8574    2.4829   -0.0044 H   0  0  0  0  0  0  0  0  0  0  0  0
   -4.8120    1.5190    1.5179 H   0  0  0  0  0  0  0  0  0  0  0  0
   -5.0935    0.4270    2.8280 H   0  0  0  0  0  0  0  0  0  0  0  0
   -7.2178    1.4073    0.7981 H   0  0  0  0  0  0  0  0  0  0  0  0
   -7.5823    0.3246    2.1809 H   0  0  0  0  0  0  0  0  0  0  0  0
   -6.4610   -0.2305    0.8839 H   0  0  0  0  0  0  0  0  0  0  0  0
   -6.1252    3.4047    0.4227 H   0  0  0  0  0  0  0  0  0  0  0  0
   -5.2870    4.5277   -0.6632 H   0  0  0  0  0  0  0  0  0  0  0  0
   -4.4821    2.8227   -1.9717 H   0  0  0  0  0  0  0  0  0  0  0  0
   -3.9123    1.8582   -0.5577 H   0  0  0  0  0  0  0  0  0  0  0  0
   -5.6284    1.7639   -1.1077 H   0  0  0  0  0  0  0  0  0  0  0  0
    3.5836    1.1645   -6.7669 H   0  0  0  0  0  0  0  0  0  0  0  0
    3.4381   -1.2653   -6.7810 H   0  0  0  0  0  0  0  0  0  0  0  0
    3.9008   -3.3983   -5.6540 H   0  0  0  0  0  0  0  0  0  0  0  0
    4.3301   -3.4249   -3.9157 H   0  0  0  0  0  0  0  0  0  0  0  0
    1.8818   -2.9593   -3.3496 H   0  0  0  0  0  0  0  0  0  0  0  0
    2.1565   -4.5138   -4.2152 H   0  0  0  0  0  0  0  0  0  0  0  0
    1.5038   -3.0912   -5.1189 H   0  0  0  0  0  0  0  0  0  0  0  0
    4.0167   -1.3442   -2.5147 H   0  0  0  0  0  0  0  0  0  0  0  0
    4.1465    1.0952   -2.4800 H   0  0  0  0  0  0  0  0  0  0  0  0
    3.7956    5.3761   -3.4592 H   0  0  0  0  0  0  0  0  0  0  0  0
    5.3510    6.4559   -1.9430 H   0  0  0  0  0  0  0  0  0  0  0  0
    7.1196    6.0346   -0.1546 H   0  0  0  0  0  0  0  0  0  0  0  0
    8.3338    4.7432   -0.4224 H   0  0  0  0  0  0  0  0  0  0  0  0
    9.1853    5.9409   -2.4491 H   0  0  0  0  0  0  0  0  0  0  0  0
    7.9356    7.2298   -2.2186 H   0  0  0  0  0  0  0  0  0  0  0  0
    9.2382    6.9989   -0.9885 H   0  0  0  0  0  0  0  0  0  0  0  0
    7.9248    3.0083   -2.0890 H   0  0  0  0  0  0  0  0  0  0  0  0
    6.3987    1.9232   -3.6541 H   0  0  0  0  0  0  0  0  0  0  0  0
    2.2555    2.5164   -2.3267 H   0  0  0  0  0  0  0  0  0  0  0  0
    5.1115    4.4871   -8.3661 H   0  0  0  0  0  0  0  0  0  0  0  0
    3.5993    7.2270   -9.8581 H   0  0  0  0  0  0  0  0  0  0  0  0
    4.4776    1.2889  -11.5653 H   0  0  0  0  0  0  0  0  0  0  0  0
    7.0644    5.1628  -13.6456 H   0  0  0  0  0  0  0  0  0  0  0  0
    8.0425    2.0670  -14.9526 H   0  0  0  0  0  0  0  0  0  0  0  0
    9.8298    3.0804  -13.0827 H   0  0  0  0  0  0  0  0  0  0  0  0
   10.9478    0.8225  -13.9141 H   0  0  0  0  0  0  0  0  0  0  0  0
    9.6267   -1.1791  -12.8666 H   0  0  0  0  0  0  0  0  0  0  0  0
    7.6620   -0.1881  -11.3801 H   0  0  0  0  0  0  0  0  0  0  0  0
    8.0891    2.4445  -11.1512 H   0  0  0  0  0  0  0  0  0  0  0  0
    9.6373    1.5337  -10.9276 H   0  0  0  0  0  0  0  0  0  0  0  0
    6.8231    0.2313  -13.9923 H   0  0  0  0  0  0  0  0  0  0  0  0
  1  2  2  3
  2  3  1  0
  3  4  2  0
  3  5  1  0
  5  6  2  0
  6  7  1  0
  7  8  2  0
  8  9  1  0
  9 10  2  0
 10 11  1  0
 11 12  2  3
 12 13  1  0
 13 14  3  0
 12 15  1  0
 15 16  3  0
  8 17  1  0
 17 18  1  0
 18 19  1  0
 19 20  2  0
 20 21  1  0
 21 22  1  0
 21 23  1  0
  1 24  1  0
 24 25  1  0
 25 26  1  0
 26 27  2  0
 27 28  1  0
 28 29  2  0
 28 30  1  0
 30 31  2  0
 31 32  1  0
 32 33  1  0
 31 34  1  0
 34 35  1  0
 35 36  1  0
 36 37  1  0
 35 38  2  0
 38 39  1  0
 39 40  2  0
 39 41  1  0
 26 42  1  0
 42 43  2  0
 43 44  1  0
 44 45  2  0
 45 46  1  0
 46 47  2  0
 47 48  1  0
 48 49  1  0
 49 50  1  0
 48 51  2  0
 43 52  1  0
 52 53  1  0
 53 54  1  0
 54 55  1  0
 55 56  1  0
 56 57  1  0
 57 58  2  0
 58 59  1  0
 59 60  1  0
 57 61  1  0
 61 62  1  0
 62 63  1  0
 63 64  1  0
 64 65  1  0
 65 66  1  0
 66 67  2  0
 67 68  1  0
 68 69  2  0
 69 70  1  0
 70 71  1  0
 71 72  1  0
 70 73  2  0
 65 74  2  0
 74 75  1  0
 75 76  1  0
 76 77  1  0
 77 78  1  0
 78 79  1  0
 79 80  1  0
 80 81  1  0
 81 82  1  0
 82 83  1  0
 83 84  1  0
 81 85  1  0
 85 86  1  0
 78 87  1  0
 87 88  1  0
 74 89  1  0
 89 90  1  0
 90 91  1  0
 91 92  1  0
 92 93  2  0
 93 94  1  0
 94 95  1  0
 95 96  1  0
 96 97  2  0
 97 98  1  0
 98 99  2  0
 99100  1  0
100101  1  0
 99102  1  0
102103  2  0
 95104  1  0
104105  2  0
105106  1  0
106107  2  0
107108  1  0
108109  1  0
107110  1  0
110111  2  0
 95112  1  0
112113  1  0
 93114  1  0
114115  2  0
115116  1  0
115117  1  0
117118  2  3
118119  1  0
119120  2  0
119121  1  0
121122  2  0
122123  1  0
123124  2  0
124125  1  0
125126  2  0
126127  1  0
127128  2  3
128129  1  0
129130  3  0
128131  1  0
131132  3  0
124133  1  0
133134  1  0
134135  1  0
135136  2  0
136137  1  0
137138  1  0
137139  1  0
 11  2  1  0
 23 17  1  0
 41 24  2  0
 84 42  1  0
113 89  2  0
127118  1  0
139133  1  0
 10  5  1  0
 22 18  1  0
 41 27  1  0
 51 44  1  0
 83 52  2  0
112 91  2  0
126121  1  0
138134  1  0
 23  7  1  0
 38 30  1  0
 82 54  2  0
116 92  1  0
139123  1  0
 80 55  2  0
103 96  1  0
111104  1  0
 60 56  2  0
 79 61  2  0
 77 62  2  0
 76 64  2  0
 73 66  1  0
  1140  1  0
  6141  1  0
  9142  1  0
 17143  1  0
 18144  1  0
 19145  1  0
 20146  1  0
 21147  1  0
 22148  1  0
 22149  1  0
 23150  1  0
 32151  1  0
 32152  1  0
 33153  1  0
 33154  1  0
 33155  1  0
 36156  1  0
 36157  1  0
 37158  1  0
 37159  1  0
 37160  1  0
 45161  1  0
 46162  1  0
 47163  1  0
 49164  1  0
 49165  1  0
 50166  1  0
 50167  1  0
 50168  1  0
 51169  1  0
 67170  1  0
 68171  1  0
 69172  1  0
 71173  1  0
 71174  1  0
 72175  1  0
 72176  1  0
 72177  1  0
 73178  1  0
 85179  1  0
 85180  1  0
 86181  1  0
 86182  1  0
 86183  1  0
 87184  1  0
 87185  1  0
 88186  1  0
 88187  1  0
 88188  1  0
 97189  1  0
 98190  1  0
100191  1  0
100192  1  0
101193  1  0
101194  1  0
101195  1  0
102196  1  0
103197  1  0
105198  1  0
106199  1  0
108200  1  0
108201  1  0
109202  1  0
109203  1  0
109204  1  0
110205  1  0
111206  1  0
113207  1  0
114208  1  0
117209  1  0
122210  1  0
125211  1  0
133212  1  0
134213  1  0
135214  1  0
136215  1  0
137216  1  0
138217  1  0
138218  1  0
139219  1  0
M  END

