
     RDKit          3D

274302  0  0  0  0  0  0  0  0999 V2000
  -10.0537   -9.4098    0.4436 C   0  0  0  0  0  0  0  0  0  0  0  0
   -9.7230  -10.7059    0.6874 C   0  0  0  0  0  0  0  0  0  0  0  0
   -8.5235  -11.1135    1.4224 C   0  0  0  0  0  0  0  0  0  0  0  0
   -8.2148  -10.7960    2.6148 O   0  0  0  0  0  0  0  0  0  0  0  0
   -7.6570  -11.8988    0.5943 C   0  0  0  0  0  0  0  0  0  0  0  0
   -6.3354  -12.2423    0.8563 C   0  0  0  0  0  0  0  0  0  0  0  0
   -5.8341  -13.1282   -0.0815 C   0  0  0  0  0  0  0  0  0  0  0  0
   -6.6005  -13.6336   -1.2013 C   0  0  0  0  0  0  0  0  0  0  0  0
   -7.9246  -13.3279   -1.4508 C   0  0  0  0  0  0  0  0  0  0  0  0
   -8.4452  -12.3320   -0.5414 C   0  0  0  0  0  0  0  0  0  0  0  0
   -9.8217  -11.7240   -0.4185 C   0  0  0  0  0  0  0  0  0  0  0  0
  -10.9951  -12.0909   -1.0345 C   0  0  0  0  0  0  0  0  0  0  0  0
  -12.2625  -11.7457   -0.5451 C   0  0  0  0  0  0  0  0  0  0  0  0
  -13.3154  -11.7990   -0.0065 N   0  0  0  0  0  0  0  0  0  0  0  0
  -10.9273  -13.1314   -2.0567 C   0  0  0  0  0  0  0  0  0  0  0  0
  -10.9400  -14.0053   -2.8026 N   0  0  0  0  0  0  0  0  0  0  0  0
   -5.3583  -14.2204   -1.7993 C   0  0  0  0  0  0  0  0  0  0  0  0
   -4.6885  -13.4207   -2.9673 C   0  0  0  0  0  0  0  0  0  0  0  0
   -4.8777  -11.9316   -2.8096 C   0  0  0  0  0  0  0  0  0  0  0  0
   -4.1866  -11.5759   -1.7362 C   0  0  0  0  0  0  0  0  0  0  0  0
   -3.5383  -12.8293   -1.1990 C   0  0  0  0  0  0  0  0  0  0  0  0
   -3.2566  -13.5361   -2.4947 C   0  0  0  0  0  0  0  0  0  0  0  0
   -4.6056  -13.7829   -0.6267 C   0  0  0  0  0  0  0  0  0  0  0  0
   -9.4606   -8.1203    1.0635 C   0  0  0  0  0  0  0  0  0  0  0  0
   -8.5096   -8.1410    2.0872 C   0  0  0  0  0  0  0  0  0  0  0  0
   -7.3125   -7.4140    1.9578 C   0  0  0  0  0  0  0  0  0  0  0  0
   -6.0861   -7.8832    2.5323 O   0  0  0  0  0  0  0  0  0  0  0  0
   -5.1728   -7.0735    3.3203 C   0  0  0  0  0  0  0  0  0  0  0  0
   -5.9316   -6.0767    4.2430 C   0  0  0  0  0  0  0  0  0  0  0  0
   -7.3424   -6.2314    1.1040 C   0  0  0  0  0  0  0  0  0  0  0  0
   -8.5498   -5.9440    0.4527 C   0  0  0  0  0  0  0  0  0  0  0  0
   -9.5730   -6.9373    0.3553 C   0  0  0  0  0  0  0  0  0  0  0  0
  -10.5247   -6.8112   -0.6503 O   0  0  0  0  0  0  0  0  0  0  0  0
  -11.9854   -6.7727   -0.4832 C   0  0  0  0  0  0  0  0  0  0  0  0
  -12.4687   -7.4494    0.8435 C   0  0  0  0  0  0  0  0  0  0  0  0
   -6.2150   -5.3233    0.8808 C   0  0  0  0  0  0  0  0  0  0  0  0
   -6.2789   -3.9297    1.1253 C   0  0  0  0  0  0  0  0  0  0  0  0
   -5.0674   -3.3254    0.8889 C   0  0  0  0  0  0  0  0  0  0  0  0
   -4.4472   -1.7714    1.2342 S   0  0  0  0  0  0  0  0  0  0  0  0
   -2.8778   -2.1991    0.7148 C   0  0  0  0  0  0  0  0  0  0  0  0
   -1.5479   -1.7673    1.0978 C   0  0  0  0  0  0  0  0  0  0  0  0
   -1.1491   -0.5853    1.6774 C   0  0  0  0  0  0  0  0  0  0  0  0
   -2.0476    0.4689    1.7477 O   0  0  0  0  0  0  0  0  0  0  0  0
   -1.9515    1.5306    0.7996 C   0  0  0  0  0  0  0  0  0  0  0  0
   -3.1843    2.4175    0.8642 C   0  0  0  0  0  0  0  0  0  0  0  0
    0.2100   -0.4312    2.0669 C   0  0  0  0  0  0  0  0  0  0  0  0
    1.1563   -1.4802    1.8043 C   0  0  0  0  0  0  0  0  0  0  0  0
    0.7016   -2.6983    1.2377 C   0  0  0  0  0  0  0  0  0  0  0  0
   -0.6613   -2.8118    0.8535 C   0  0  0  0  0  0  0  0  0  0  0  0
   -1.4072   -4.0651    0.3647 C   0  0  0  0  0  0  0  0  0  0  0  0
   -1.2897   -5.1262    1.4573 C   0  0  0  0  0  0  0  0  0  0  0  0
   -0.8219   -6.4432    1.2316 C   0  0  0  0  0  0  0  0  0  0  0  0
   -0.8372   -7.3934    2.2571 C   0  0  0  0  0  0  0  0  0  0  0  0
   -1.3755   -7.0472    3.5129 C   0  0  0  0  0  0  0  0  0  0  0  0
   -1.3482   -8.0204    4.6533 C   0  0  0  0  0  0  0  0  0  0  0  0
   -0.1536   -7.7127    5.5583 C   0  0  0  0  0  0  0  0  0  0  0  0
   -1.7994   -5.7384    3.7601 C   0  0  0  0  0  0  0  0  0  0  0  0
   -1.7437   -4.7855    2.7621 C   0  0  0  0  0  0  0  0  0  0  0  0
   -0.9488   -4.4671   -1.0376 C   0  0  0  0  0  0  0  0  0  0  0  0
    0.3943   -4.8785   -1.2638 C   0  0  0  0  0  0  0  0  0  0  0  0
    0.8017   -5.3234   -2.5152 C   0  0  0  0  0  0  0  0  0  0  0  0
   -0.1147   -5.3597   -3.5818 C   0  0  0  0  0  0  0  0  0  0  0  0
    0.3372   -5.8501   -4.9243 C   0  0  0  0  0  0  0  0  0  0  0  0
    0.8404   -4.6849   -5.7786 C   0  0  0  0  0  0  0  0  0  0  0  0
   -1.4286   -4.9015   -3.3939 C   0  0  0  0  0  0  0  0  0  0  0  0
   -1.8436   -4.4683   -2.1420 C   0  0  0  0  0  0  0  0  0  0  0  0
   -2.8287   -3.5148    0.3461 C   0  0  0  0  0  0  0  0  0  0  0  0
   -4.0783   -4.1253    0.4172 C   0  0  0  0  0  0  0  0  0  0  0  0
   -4.6334   -5.7043    0.2454 S   0  0  0  0  0  0  0  0  0  0  0  0
    2.5655   -1.2250    2.0713 C   0  0  0  0  0  0  0  0  0  0  0  0
    3.5254   -2.1921    1.8374 O   0  0  0  0  0  0  0  0  0  0  0  0
    3.9969   -2.3971    0.5165 C   0  0  0  0  0  0  0  0  0  0  0  0
    5.0778   -3.4518    0.5146 C   0  0  0  0  0  0  0  0  0  0  0  0
    2.9600    0.0382    2.5739 C   0  0  0  0  0  0  0  0  0  0  0  0
    4.2652    0.6526    2.9011 C   0  0  0  0  0  0  0  0  0  0  0  0
    4.0014    1.8992    3.4400 C   0  0  0  0  0  0  0  0  0  0  0  0
    2.5786    1.9295    3.9844 C   0  0  0  0  0  0  0  0  0  0  0  0
    1.9951    0.9111    3.0270 C   0  0  0  0  0  0  0  0  0  0  0  0
    0.6354    0.7233    2.7285 C   0  0  0  0  0  0  0  0  0  0  0  0
    2.5894    1.2796    5.3887 C   0  0  0  0  0  0  0  0  0  0  0  0
    3.6542    1.5081    6.2981 C   0  0  0  0  0  0  0  0  0  0  0  0
    3.7476    0.7851    7.4925 C   0  0  0  0  0  0  0  0  0  0  0  0
    2.7473   -0.1699    7.7971 C   0  0  0  0  0  0  0  0  0  0  0  0
    2.8507   -1.1031    8.9645 C   0  0  0  0  0  0  0  0  0  0  0  0
    3.4096   -2.4599    8.5094 C   0  0  0  0  0  0  0  0  0  0  0  0
    1.6538   -0.3409    6.9439 C   0  0  0  0  0  0  0  0  0  0  0  0
    1.5443    0.4018    5.7846 C   0  0  0  0  0  0  0  0  0  0  0  0
    1.8027    3.2388    3.9176 C   0  0  0  0  0  0  0  0  0  0  0  0
    1.5801    3.8475    2.6682 C   0  0  0  0  0  0  0  0  0  0  0  0
    0.6158    4.8437    2.5161 C   0  0  0  0  0  0  0  0  0  0  0  0
   -0.1677    5.2194    3.6245 C   0  0  0  0  0  0  0  0  0  0  0  0
   -1.3540    6.1053    3.4280 C   0  0  0  0  0  0  0  0  0  0  0  0
   -2.5900    5.2703    3.0654 C   0  0  0  0  0  0  0  0  0  0  0  0
    0.0452    4.6304    4.8830 C   0  0  0  0  0  0  0  0  0  0  0  0
    1.0298    3.6545    5.0258 C   0  0  0  0  0  0  0  0  0  0  0  0
    4.9150    2.8773    2.9685 C   0  0  0  0  0  0  0  0  0  0  0  0
    5.9698    2.3801    2.2699 C   0  0  0  0  0  0  0  0  0  0  0  0
    5.7144    0.7174    1.9954 S   0  0  0  0  0  0  0  0  0  0  0  0
    6.7683    3.2973    1.6207 C   0  0  0  0  0  0  0  0  0  0  0  0
    6.2553    4.5952    1.7074 C   0  0  0  0  0  0  0  0  0  0  0  0
    4.8228    4.5181    2.6489 S   0  0  0  0  0  0  0  0  0  0  0  0
    6.3592    5.6090    0.5860 C   0  0  0  0  0  0  0  0  0  0  0  0
    5.4925    5.5164   -0.5302 C   0  0  0  0  0  0  0  0  0  0  0  0
    4.9783    4.2847   -1.0276 N   0  0  0  0  0  0  0  0  0  0  0  0
    5.8915    3.1932   -1.2945 C   0  0  0  0  0  0  0  0  0  0  0  0
    5.5021    1.8700   -1.0507 C   0  0  0  0  0  0  0  0  0  0  0  0
    6.4223    0.8308   -1.2088 C   0  0  0  0  0  0  0  0  0  0  0  0
    7.7345    1.1084   -1.6110 C   0  0  0  0  0  0  0  0  0  0  0  0
    8.7290   -0.0052   -1.7326 C   0  0  0  0  0  0  0  0  0  0  0  0
    8.1049    2.4308   -1.9163 C   0  0  0  0  0  0  0  0  0  0  0  0
    7.1878    3.4623   -1.7676 C   0  0  0  0  0  0  0  0  0  0  0  0
    3.6323    4.1606   -1.5762 C   0  0  0  0  0  0  0  0  0  0  0  0
    2.5476    4.7334   -0.8929 C   0  0  0  0  0  0  0  0  0  0  0  0
    1.2805    4.7525   -1.4664 C   0  0  0  0  0  0  0  0  0  0  0  0
    1.0603    4.1492   -2.7139 C   0  0  0  0  0  0  0  0  0  0  0  0
   -0.2764    4.2129   -3.3577 C   0  0  0  0  0  0  0  0  0  0  0  0
    2.1259    3.4857   -3.3480 C   0  0  0  0  0  0  0  0  0  0  0  0
    3.4056    3.5064   -2.7982 C   0  0  0  0  0  0  0  0  0  0  0  0
    5.2574    6.7254   -1.1155 C   0  0  0  0  0  0  0  0  0  0  0  0
    3.8961    7.2540   -1.9243 S   0  0  0  0  0  0  0  0  0  0  0  0
    4.3622    8.8370   -2.1290 C   0  0  0  0  0  0  0  0  0  0  0  0
    5.6221    8.9728   -1.4027 C   0  0  0  0  0  0  0  0  0  0  0  0
    6.4625   10.1636   -1.4973 N   0  0  0  0  0  0  0  0  0  0  0  0
    6.9954   10.4540   -2.8150 C   0  0  0  0  0  0  0  0  0  0  0  0
    6.2586   11.1872   -3.7516 C   0  0  0  0  0  0  0  0  0  0  0  0
    6.5459   11.0948   -5.1244 C   0  0  0  0  0  0  0  0  0  0  0  0
    7.6511   10.3198   -5.5543 C   0  0  0  0  0  0  0  0  0  0  0  0
    7.9126   10.1660   -7.0270 C   0  0  0  0  0  0  0  0  0  0  0  0
    8.4686    9.6875   -4.6151 C   0  0  0  0  0  0  0  0  0  0  0  0
    8.1110    9.6986   -3.2627 C   0  0  0  0  0  0  0  0  0  0  0  0
    7.0598   10.6896   -0.2899 C   0  0  0  0  0  0  0  0  0  0  0  0
    8.4385   11.0376   -0.2542 C   0  0  0  0  0  0  0  0  0  0  0  0
    9.0373   11.3881    0.9440 C   0  0  0  0  0  0  0  0  0  0  0  0
    8.2806   11.4321    2.1269 C   0  0  0  0  0  0  0  0  0  0  0  0
    8.9381   11.8088    3.4070 C   0  0  0  0  0  0  0  0  0  0  0  0
    6.9132   11.0803    2.0941 C   0  0  0  0  0  0  0  0  0  0  0  0
    6.3195   10.7034    0.8976 C   0  0  0  0  0  0  0  0  0  0  0  0
    6.0785    7.7462   -0.7895 C   0  0  0  0  0  0  0  0  0  0  0  0
    6.9240    7.2483    0.6594 S   0  0  0  0  0  0  0  0  0  0  0  0
    3.5398    9.8280   -2.8776 C   0  0  0  0  0  0  0  0  0  0  0  0
    2.6320    9.5975   -3.8740 C   0  0  0  0  0  0  0  0  0  0  0  0
    2.3401    8.2732   -4.4918 C   0  0  0  0  0  0  0  0  0  0  0  0
    3.2135    7.4656   -4.8744 O   0  0  0  0  0  0  0  0  0  0  0  0
    1.0097    8.3242   -5.0268 C   0  0  0  0  0  0  0  0  0  0  0  0
    0.3501    7.2838   -5.7251 C   0  0  0  0  0  0  0  0  0  0  0  0
   -0.8032    7.6918   -6.3917 C   0  0  0  0  0  0  0  0  0  0  0  0
   -1.2512    9.0735   -6.4148 C   0  0  0  0  0  0  0  0  0  0  0  0
   -0.5815   10.1287   -5.8165 C   0  0  0  0  0  0  0  0  0  0  0  0
    0.5855    9.7059   -5.0699 C   0  0  0  0  0  0  0  0  0  0  0  0
    1.5346   10.5760   -4.3449 C   0  0  0  0  0  0  0  0  0  0  0  0
    1.1061   11.7055   -3.6753 C   0  0  0  0  0  0  0  0  0  0  0  0
    1.9913   12.8541   -3.4543 C   0  0  0  0  0  0  0  0  0  0  0  0
    2.6019   13.8547   -3.2630 N   0  0  0  0  0  0  0  0  0  0  0  0
   -0.3049   11.9411   -3.3809 C   0  0  0  0  0  0  0  0  0  0  0  0
   -1.4569   12.1318   -3.1560 N   0  0  0  0  0  0  0  0  0  0  0  0
   -2.4959    8.6576   -7.1048 C   0  0  0  0  0  0  0  0  0  0  0  0
   -3.7756    8.5711   -6.2456 C   0  0  0  0  0  0  0  0  0  0  0  0
   -3.4742    8.1566   -4.8196 C   0  0  0  0  0  0  0  0  0  0  0  0
   -3.0727    6.8885   -4.8650 C   0  0  0  0  0  0  0  0  0  0  0  0
   -3.0977    6.4882   -6.3227 C   0  0  0  0  0  0  0  0  0  0  0  0
   -4.3349    7.2422   -6.7653 C   0  0  0  0  0  0  0  0  0  0  0  0
   -2.0123    7.2808   -7.1300 C   0  0  0  0  0  0  0  0  0  0  0  0
  -10.7488   -9.2998   -0.4298 H   0  0  0  0  0  0  0  0  0  0  0  0
   -5.6784  -11.6832    1.5594 H   0  0  0  0  0  0  0  0  0  0  0  0
   -8.4849  -13.6849   -2.3292 H   0  0  0  0  0  0  0  0  0  0  0  0
   -5.4521  -15.2827   -1.9049 H   0  0  0  0  0  0  0  0  0  0  0  0
   -4.8970  -13.8352   -3.9790 H   0  0  0  0  0  0  0  0  0  0  0  0
   -5.4944  -11.2461   -3.3944 H   0  0  0  0  0  0  0  0  0  0  0  0
   -4.1260  -10.5604   -1.3401 H   0  0  0  0  0  0  0  0  0  0  0  0
   -2.6809  -12.6733   -0.5064 H   0  0  0  0  0  0  0  0  0  0  0  0
   -2.5247  -13.0013   -3.1478 H   0  0  0  0  0  0  0  0  0  0  0  0
   -2.8961  -14.5834   -2.3591 H   0  0  0  0  0  0  0  0  0  0  0  0
   -4.3220  -14.6012    0.0452 H   0  0  0  0  0  0  0  0  0  0  0  0
   -8.6818   -8.7113    2.9759 H   0  0  0  0  0  0  0  0  0  0  0  0
   -4.4899   -6.4413    2.6673 H   0  0  0  0  0  0  0  0  0  0  0  0
   -4.4200   -7.7227    3.8676 H   0  0  0  0  0  0  0  0  0  0  0  0
   -5.2163   -5.3545    4.6757 H   0  0  0  0  0  0  0  0  0  0  0  0
   -6.4519   -6.6309    5.0790 H   0  0  0  0  0  0  0  0  0  0  0  0
   -6.7464   -5.5362    3.6972 H   0  0  0  0  0  0  0  0  0  0  0  0
   -8.6287   -5.0626   -0.2291 H   0  0  0  0  0  0  0  0  0  0  0  0
  -12.4790   -7.2562   -1.3451 H   0  0  0  0  0  0  0  0  0  0  0  0
  -12.3552   -5.6614   -0.4539 H   0  0  0  0  0  0  0  0  0  0  0  0
  -12.5504   -8.5551    0.7043 H   0  0  0  0  0  0  0  0  0  0  0  0
  -11.8334   -7.2170    1.7104 H   0  0  0  0  0  0  0  0  0  0  0  0
  -13.5046   -7.1606    1.0754 H   0  0  0  0  0  0  0  0  0  0  0  0
   -7.1375   -3.3873    1.5065 H   0  0  0  0  0  0  0  0  0  0  0  0
   -1.0289    2.1348    1.0082 H   0  0  0  0  0  0  0  0  0  0  0  0
   -1.8731    1.0902   -0.2299 H   0  0  0  0  0  0  0  0  0  0  0  0
   -3.4945    2.5508    1.9221 H   0  0  0  0  0  0  0  0  0  0  0  0
   -2.9667    3.4097    0.4097 H   0  0  0  0  0  0  0  0  0  0  0  0
   -4.0086    1.9196    0.3147 H   0  0  0  0  0  0  0  0  0  0  0  0
    1.3695   -3.5373    1.1274 H   0  0  0  0  0  0  0  0  0  0  0  0
   -0.4575   -6.7781    0.2648 H   0  0  0  0  0  0  0  0  0  0  0  0
   -0.4306   -8.3892    2.0588 H   0  0  0  0  0  0  0  0  0  0  0  0
   -2.3110   -7.8948    5.2108 H   0  0  0  0  0  0  0  0  0  0  0  0
   -1.3258   -9.0709    4.2519 H   0  0  0  0  0  0  0  0  0  0  0  0
   -0.3317   -6.7395    6.0943 H   0  0  0  0  0  0  0  0  0  0  0  0
    0.7548   -7.6303    4.9273 H   0  0  0  0  0  0  0  0  0  0  0  0
   -0.0616   -8.5341    6.3008 H   0  0  0  0  0  0  0  0  0  0  0  0
   -2.1841   -5.4272    4.7358 H   0  0  0  0  0  0  0  0  0  0  0  0
   -2.1197   -3.8011    3.0098 H   0  0  0  0  0  0  0  0  0  0  0  0
    1.1240   -4.9400   -0.4651 H   0  0  0  0  0  0  0  0  0  0  0  0
    1.8161   -5.7025   -2.6273 H   0  0  0  0  0  0  0  0  0  0  0  0
    1.1396   -6.6079   -4.8150 H   0  0  0  0  0  0  0  0  0  0  0  0
   -0.5285   -6.3353   -5.4392 H   0  0  0  0  0  0  0  0  0  0  0  0
    0.1600   -3.8115   -5.7079 H   0  0  0  0  0  0  0  0  0  0  0  0
    0.9248   -5.0050   -6.8335 H   0  0  0  0  0  0  0  0  0  0  0  0
    1.8361   -4.3665   -5.4120 H   0  0  0  0  0  0  0  0  0  0  0  0
   -2.1535   -4.8923   -4.1904 H   0  0  0  0  0  0  0  0  0  0  0  0
   -2.8728   -4.1470   -2.0519 H   0  0  0  0  0  0  0  0  0  0  0  0
    3.1613   -2.6990   -0.1367 H   0  0  0  0  0  0  0  0  0  0  0  0
    4.4022   -1.4314    0.1444 H   0  0  0  0  0  0  0  0  0  0  0  0
    4.6864   -4.3525    1.0414 H   0  0  0  0  0  0  0  0  0  0  0  0
    5.3105   -3.7128   -0.5354 H   0  0  0  0  0  0  0  0  0  0  0  0
    5.9713   -3.0657    1.0399 H   0  0  0  0  0  0  0  0  0  0  0  0
   -0.0712    1.4588    3.0683 H   0  0  0  0  0  0  0  0  0  0  0  0
    4.4593    2.1886    6.0543 H   0  0  0  0  0  0  0  0  0  0  0  0
    4.6100    0.9228    8.1474 H   0  0  0  0  0  0  0  0  0  0  0  0
    1.8383   -1.2379    9.4029 H   0  0  0  0  0  0  0  0  0  0  0  0
    3.4997   -0.6520    9.7469 H   0  0  0  0  0  0  0  0  0  0  0  0
    4.5157   -2.4089    8.3657 H   0  0  0  0  0  0  0  0  0  0  0  0
    3.1357   -3.2445    9.2388 H   0  0  0  0  0  0  0  0  0  0  0  0
    2.9170   -2.7584    7.5536 H   0  0  0  0  0  0  0  0  0  0  0  0
    0.9053   -1.1050    7.1349 H   0  0  0  0  0  0  0  0  0  0  0  0
    0.6652    0.2040    5.1874 H   0  0  0  0  0  0  0  0  0  0  0  0
    2.0578    3.4659    1.7785 H   0  0  0  0  0  0  0  0  0  0  0  0
    0.4131    5.2291    1.5190 H   0  0  0  0  0  0  0  0  0  0  0  0
   -1.1272    6.8460    2.6285 H   0  0  0  0  0  0  0  0  0  0  0  0
   -1.5260    6.6965    4.3540 H   0  0  0  0  0  0  0  0  0  0  0  0
   -3.0002    5.6034    2.0870 H   0  0  0  0  0  0  0  0  0  0  0  0
   -3.3677    5.3835    3.8499 H   0  0  0  0  0  0  0  0  0  0  0  0
   -2.3592    4.1847    2.9627 H   0  0  0  0  0  0  0  0  0  0  0  0
   -0.5910    4.8485    5.7361 H   0  0  0  0  0  0  0  0  0  0  0  0
    1.0819    3.1848    5.9979 H   0  0  0  0  0  0  0  0  0  0  0  0
    7.5692    2.9924    0.9505 H   0  0  0  0  0  0  0  0  0  0  0  0
    4.5136    1.6518   -0.6699 H   0  0  0  0  0  0  0  0  0  0  0  0
    6.1123   -0.1935   -0.9605 H   0  0  0  0  0  0  0  0  0  0  0  0
    9.7528    0.3848   -1.8243 H   0  0  0  0  0  0  0  0  0  0  0  0
    8.4706   -0.5965   -2.6351 H   0  0  0  0  0  0  0  0  0  0  0  0
    8.6651   -0.6478   -0.8236 H   0  0  0  0  0  0  0  0  0  0  0  0
    9.0947    2.6901   -2.2565 H   0  0  0  0  0  0  0  0  0  0  0  0
    7.5073    4.4728   -1.9948 H   0  0  0  0  0  0  0  0  0  0  0  0
    2.7110    5.2606    0.0265 H   0  0  0  0  0  0  0  0  0  0  0  0
    0.4838    5.2903   -0.9309 H   0  0  0  0  0  0  0  0  0  0  0  0
   -0.7499    5.1854   -3.1064 H   0  0  0  0  0  0  0  0  0  0  0  0
   -0.2052    4.1122   -4.4648 H   0  0  0  0  0  0  0  0  0  0  0  0
   -0.8981    3.4016   -2.9243 H   0  0  0  0  0  0  0  0  0  0  0  0
    1.9648    2.9683   -4.3076 H   0  0  0  0  0  0  0  0  0  0  0  0
    4.2050    3.0287   -3.3529 H   0  0  0  0  0  0  0  0  0  0  0  0
    5.3924   11.7675   -3.4561 H   0  0  0  0  0  0  0  0  0  0  0  0
    5.8822   11.5930   -5.8345 H   0  0  0  0  0  0  0  0  0  0  0  0
    6.9580   10.1985   -7.5969 H   0  0  0  0  0  0  0  0  0  0  0  0
    8.5491   11.0127   -7.3667 H   0  0  0  0  0  0  0  0  0  0  0  0
    8.4142    9.1970   -7.2236 H   0  0  0  0  0  0  0  0  0  0  0  0
    9.3643    9.1397   -4.9221 H   0  0  0  0  0  0  0  0  0  0  0  0
    8.6831    9.1088   -2.5700 H   0  0  0  0  0  0  0  0  0  0  0  0
    9.0422   10.9985   -1.1547 H   0  0  0  0  0  0  0  0  0  0  0  0
   10.0973   11.6141    0.9497 H   0  0  0  0  0  0  0  0  0  0  0  0
    8.1940   11.9178    4.2243 H   0  0  0  0  0  0  0  0  0  0  0  0
    9.4592   12.7788    3.2660 H   0  0  0  0  0  0  0  0  0  0  0  0
    9.6842   11.0350    3.6801 H   0  0  0  0  0  0  0  0  0  0  0  0
    6.3095   11.1014    3.0033 H   0  0  0  0  0  0  0  0  0  0  0  0
    5.2760   10.4064    0.9129 H   0  0  0  0  0  0  0  0  0  0  0  0
    3.6092   10.7806   -2.4465 H   0  0  0  0  0  0  0  0  0  0  0  0
    0.7002    6.2479   -5.7308 H   0  0  0  0  0  0  0  0  0  0  0  0
   -0.9757   11.1589   -5.8326 H   0  0  0  0  0  0  0  0  0  0  0  0
   -2.5641    9.1324   -8.0917 H   0  0  0  0  0  0  0  0  0  0  0  0
   -4.4608    9.4432   -6.3464 H   0  0  0  0  0  0  0  0  0  0  0  0
   -3.5110    8.7667   -3.9197 H   0  0  0  0  0  0  0  0  0  0  0  0
   -2.7319    6.2973   -4.0103 H   0  0  0  0  0  0  0  0  0  0  0  0
   -3.1131    5.3901   -6.5302 H   0  0  0  0  0  0  0  0  0  0  0  0
   -4.5189    7.2364   -7.8656 H   0  0  0  0  0  0  0  0  0  0  0  0
   -5.2605    6.9294   -6.2465 H   0  0  0  0  0  0  0  0  0  0  0  0
   -1.7679    6.9019   -8.1528 H   0  0  0  0  0  0  0  0  0  0  0  0
  1  2  2  3
  2  3  1  0
  3  4  2  0
  3  5  1  0
  5  6  2  0
  6  7  1  0
  7  8  2  0
  8  9  1  0
  9 10  2  0
 10 11  1  0
 11 12  2  3
 12 13  1  0
 13 14  3  0
 12 15  1  0
 15 16  3  0
  8 17  1  0
 17 18  1  0
 18 19  1  0
 19 20  2  0
 20 21  1  0
 21 22  1  0
 21 23  1  0
  1 24  1  0
 24 25  2  0
 25 26  1  0
 26 27  1  0
 27 28  1  0
 28 29  1  0
 26 30  2  0
 30 31  1  0
 31 32  2  0
 32 33  1  0
 33 34  1  0
 34 35  1  0
 30 36  1  0
 36 37  2  0
 37 38  1  0
 38 39  1  0
 39 40  1  0
 40 41  1  0
 41 42  2  0
 42 43  1  0
 43 44  1  0
 44 45  1  0
 42 46  1  0
 46 47  2  0
 47 48  1  0
 48 49  2  0
 49 50  1  0
 50 51  1  0
 51 52  2  0
 52 53  1  0
 53 54  2  0
 54 55  1  0
 55 56  1  0
 54 57  1  0
 57 58  2  0
 50 59  1  0
 59 60  2  0
 60 61  1  0
 61 62  2  0
 62 63  1  0
 63 64  1  0
 62 65  1  0
 65 66  2  0
 50 67  1  0
 67 68  1  0
 68 69  1  0
 47 70  1  0
 70 71  1  0
 71 72  1  0
 72 73  1  0
 70 74  2  0
 74 75  1  0
 75 76  2  0
 76 77  1  0
 77 78  1  0
 78 79  2  0
 77 80  1  0
 80 81  2  0
 81 82  1  0
 82 83  2  0
 83 84  1  0
 84 85  1  0
 83 86  1  0
 86 87  2  0
 77 88  1  0
 88 89  2  0
 89 90  1  0
 90 91  2  0
 91 92  1  0
 92 93  1  0
 91 94  1  0
 94 95  2  0
 76 96  1  0
 96 97  2  0
 97 98  1  0
 97 99  1  0
 99100  2  0
100101  1  0
100102  1  0
102103  2  0
103104  1  0
104105  1  0
105106  2  0
106107  1  0
107108  2  0
108109  1  0
108110  1  0
110111  2  0
104112  1  0
112113  2  0
113114  1  0
114115  2  0
115116  1  0
115117  1  0
117118  2  0
103119  1  0
119120  1  0
120121  1  0
121122  2  0
122123  1  0
123124  1  0
124125  2  0
125126  1  0
126127  2  0
127128  1  0
127129  1  0
129130  2  0
123131  1  0
131132  2  0
132133  1  0
133134  2  0
134135  1  0
134136  1  0
136137  2  0
122138  1  0
138139  1  0
121140  1  0
140141  2  3
141142  1  0
142143  2  0
142144  1  0
144145  2  0
145146  1  0
146147  2  0
147148  1  0
148149  2  0
149150  1  0
150151  2  3
151152  1  0
152153  3  0
151154  1  0
154155  3  0
147156  1  0
156157  1  0
157158  1  0
158159  2  0
159160  1  0
160161  1  0
160162  1  0
 11  2  1  0
 23 17  1  0
 32 24  1  0
 69 36  1  0
 78 74  1  0
 87 80  1  0
 95 88  1  0
101 96  1  0
139102  1  0
150141  1  0
162156  1  0
 10  5  1  0
 22 18  1  0
 68 38  2  0
 98 75  1  0
111105  1  0
118112  1  0
138119  2  0
149144  1  0
161157  1  0
 23  7  1  0
 67 40  2  0
130124  1  0
137131  1  0
162146  1  0
 49 41  1  0
 58 51  1  0
 66 59  1  0
 79 46  1  0
  1163  1  0
  6164  1  0
  9165  1  0
 17166  1  0
 18167  1  0
 19168  1  0
 20169  1  0
 21170  1  0
 22171  1  0
 22172  1  0
 23173  1  0
 25174  1  0
 28175  1  0
 28176  1  0
 29177  1  0
 29178  1  0
 29179  1  0
 31180  1  0
 34181  1  0
 34182  1  0
 35183  1  0
 35184  1  0
 35185  1  0
 37186  1  0
 44187  1  0
 44188  1  0
 45189  1  0
 45190  1  0
 45191  1  0
 48192  1  0
 52193  1  0
 53194  1  0
 55195  1  0
 55196  1  0
 56197  1  0
 56198  1  0
 56199  1  0
 57200  1  0
 58201  1  0
 60202  1  0
 61203  1  0
 63204  1  0
 63205  1  0
 64206  1  0
 64207  1  0
 64208  1  0
 65209  1  0
 66210  1  0
 72211  1  0
 72212  1  0
 73213  1  0
 73214  1  0
 73215  1  0
 79216  1  0
 81217  1  0
 82218  1  0
 84219  1  0
 84220  1  0
 85221  1  0
 85222  1  0
 85223  1  0
 86224  1  0
 87225  1  0
 89226  1  0
 90227  1  0
 92228  1  0
 92229  1  0
 93230  1  0
 93231  1  0
 93232  1  0
 94233  1  0
 95234  1  0
 99235  1  0
106236  1  0
107237  1  0
109238  1  0
109239  1  0
109240  1  0
110241  1  0
111242  1  0
113243  1  0
114244  1  0
116245  1  0
116246  1  0
116247  1  0
117248  1  0
118249  1  0
125250  1  0
126251  1  0
128252  1  0
128253  1  0
128254  1  0
129255  1  0
130256  1  0
132257  1  0
133258  1  0
135259  1  0
135260  1  0
135261  1  0
136262  1  0
137263  1  0
140264  1  0
145265  1  0
148266  1  0
156267  1  0
157268  1  0
158269  1  0
159270  1  0
160271  1  0
161272  1  0
161273  1  0
162274  1  0
M  END

