
     RDKit          3D

180201  0  0  0  0  0  0  0  0999 V2000
   -5.7841   -1.4805    6.8250 C   0  0  0  0  0  0  0  0  0  0  0  0
   -5.2121   -2.5598    7.3898 C   0  0  0  0  0  0  0  0  0  0  0  0
   -5.6758   -3.1080    8.6633 C   0  0  0  0  0  0  0  0  0  0  0  0
   -6.2239   -2.4550    9.5896 O   0  0  0  0  0  0  0  0  0  0  0  0
   -5.5128   -4.5533    8.6191 C   0  0  0  0  0  0  0  0  0  0  0  0
   -6.0574   -5.5051    9.5114 C   0  0  0  0  0  0  0  0  0  0  0  0
   -5.9341   -6.8146    9.0757 C   0  0  0  0  0  0  0  0  0  0  0  0
   -5.3175   -7.1738    7.8314 C   0  0  0  0  0  0  0  0  0  0  0  0
   -4.7719   -6.2481    6.9593 C   0  0  0  0  0  0  0  0  0  0  0  0
   -4.8646   -4.8999    7.4049 C   0  0  0  0  0  0  0  0  0  0  0  0
   -4.5020   -3.6618    6.6839 C   0  0  0  0  0  0  0  0  0  0  0  0
   -3.4899   -3.5122    5.7970 C   0  0  0  0  0  0  0  0  0  0  0  0
   -2.9675   -2.2097    5.4699 C   0  0  0  0  0  0  0  0  0  0  0  0
   -2.5270   -1.1664    5.2190 N   0  0  0  0  0  0  0  0  0  0  0  0
   -2.7353   -4.6346    5.2998 C   0  0  0  0  0  0  0  0  0  0  0  0
   -2.1154   -5.5284    4.9080 N   0  0  0  0  0  0  0  0  0  0  0  0
   -5.6349   -8.6199    8.0728 C   0  0  0  0  0  0  0  0  0  0  0  0
   -4.4465   -9.5324    8.4952 C   0  0  0  0  0  0  0  0  0  0  0  0
   -5.0716  -10.7904    9.0430 C   0  0  0  0  0  0  0  0  0  0  0  0
   -5.6394  -10.4558   10.2093 C   0  0  0  0  0  0  0  0  0  0  0  0
   -5.3786   -8.9810   10.4051 C   0  0  0  0  0  0  0  0  0  0  0  0
   -3.9866   -8.9090    9.8024 C   0  0  0  0  0  0  0  0  0  0  0  0
   -6.2606   -8.2520    9.3478 C   0  0  0  0  0  0  0  0  0  0  0  0
   -5.9301   -1.3434    5.3570 C   0  0  0  0  0  0  0  0  0  0  0  0
   -6.3850   -2.4408    4.6021 C   0  0  0  0  0  0  0  0  0  0  0  0
   -6.3036   -2.4283    3.2055 C   0  0  0  0  0  0  0  0  0  0  0  0
   -6.6494   -3.5451    2.4267 O   0  0  0  0  0  0  0  0  0  0  0  0
   -7.1646   -4.7722    2.9389 C   0  0  0  0  0  0  0  0  0  0  0  0
   -7.5267   -5.6830    1.7781 C   0  0  0  0  0  0  0  0  0  0  0  0
   -5.8503   -1.2727    2.5623 C   0  0  0  0  0  0  0  0  0  0  0  0
   -5.5271   -0.1273    3.3001 C   0  0  0  0  0  0  0  0  0  0  0  0
   -5.5512   -0.1554    4.7091 C   0  0  0  0  0  0  0  0  0  0  0  0
   -5.1477    0.9507    5.4769 O   0  0  0  0  0  0  0  0  0  0  0  0
   -4.5668    2.1380    4.9311 C   0  0  0  0  0  0  0  0  0  0  0  0
   -4.2076    3.0956    6.0531 C   0  0  0  0  0  0  0  0  0  0  0  0
   -5.4771   -1.3387    1.1482 C   0  0  0  0  0  0  0  0  0  0  0  0
   -6.2244   -0.8759    0.0449 C   0  0  0  0  0  0  0  0  0  0  0  0
   -7.5783   -0.2899    0.1317 C   0  0  0  0  0  0  0  0  0  0  0  0
   -8.5843   -0.9429    0.8609 C   0  0  0  0  0  0  0  0  0  0  0  0
   -9.8514   -0.3711    0.9903 C   0  0  0  0  0  0  0  0  0  0  0  0
  -10.1274    0.8601    0.3926 C   0  0  0  0  0  0  0  0  0  0  0  0
   -9.1307    1.5338   -0.3320 C   0  0  0  0  0  0  0  0  0  0  0  0
   -9.4318    2.8556   -0.9865 C   0  0  0  0  0  0  0  0  0  0  0  0
   -9.6440    2.6853   -2.4880 C   0  0  0  0  0  0  0  0  0  0  0  0
   -7.8611    0.9485   -0.4675 C   0  0  0  0  0  0  0  0  0  0  0  0
   -5.4677   -0.9988   -1.1281 C   0  0  0  0  0  0  0  0  0  0  0  0
   -5.6809   -0.5083   -2.7556 S   0  0  0  0  0  0  0  0  0  0  0  0
   -4.0952   -0.9941   -3.1358 C   0  0  0  0  0  0  0  0  0  0  0  0
   -3.1783   -0.9155   -4.1506 C   0  0  0  0  0  0  0  0  0  0  0  0
   -3.2851   -0.4965   -5.4771 C   0  0  0  0  0  0  0  0  0  0  0  0
   -2.1055   -0.4803   -6.2819 C   0  0  0  0  0  0  0  0  0  0  0  0
   -2.2436   -0.0374   -7.5599 N   0  0  0  0  0  0  0  0  0  0  0  0
   -3.8689    0.2862   -7.5733 S   0  0  0  0  0  0  0  0  0  0  0  0
   -4.4379   -0.0844   -6.0598 N   0  0  0  0  0  0  0  0  0  0  0  0
   -0.8775   -0.8377   -5.6960 C   0  0  0  0  0  0  0  0  0  0  0  0
    0.3866   -0.5294   -6.1115 C   0  0  0  0  0  0  0  0  0  0  0  0
    0.9660    0.5347   -7.3000 S   0  0  0  0  0  0  0  0  0  0  0  0
    2.3489    0.8788   -6.3790 C   0  0  0  0  0  0  0  0  0  0  0  0
    3.3602    1.8324   -6.5155 C   0  0  0  0  0  0  0  0  0  0  0  0
    3.4374    2.7960   -7.6275 C   0  0  0  0  0  0  0  0  0  0  0  0
    4.6403    2.9961   -8.3200 C   0  0  0  0  0  0  0  0  0  0  0  0
    4.6974    3.9058   -9.3782 C   0  0  0  0  0  0  0  0  0  0  0  0
    3.5577    4.6273   -9.7502 C   0  0  0  0  0  0  0  0  0  0  0  0
    2.3473    4.4424   -9.0579 C   0  0  0  0  0  0  0  0  0  0  0  0
    1.1205    5.2357   -9.4215 C   0  0  0  0  0  0  0  0  0  0  0  0
    0.9244    6.3978   -8.4520 C   0  0  0  0  0  0  0  0  0  0  0  0
    2.3000    3.5311   -7.9953 C   0  0  0  0  0  0  0  0  0  0  0  0
    4.1910    1.8403   -5.3831 C   0  0  0  0  0  0  0  0  0  0  0  0
    3.5994    0.7465   -4.2221 S   0  0  0  0  0  0  0  0  0  0  0  0
    2.3309    0.2092   -5.1825 C   0  0  0  0  0  0  0  0  0  0  0  0
    1.1953   -0.5835   -5.0133 C   0  0  0  0  0  0  0  0  0  0  0  0
    0.5192   -0.9471   -3.8878 N   0  0  0  0  0  0  0  0  0  0  0  0
   -0.7627   -1.1721   -4.3379 C   0  0  0  0  0  0  0  0  0  0  0  0
   -1.9597   -1.3323   -3.5889 C   0  0  0  0  0  0  0  0  0  0  0  0
   -2.1397   -1.7777   -2.3119 N   0  0  0  0  0  0  0  0  0  0  0  0
   -3.4412   -1.5051   -2.0682 C   0  0  0  0  0  0  0  0  0  0  0  0
   -4.2169   -1.5291   -0.9354 C   0  0  0  0  0  0  0  0  0  0  0  0
   -3.9295   -1.8588    0.6732 S   0  0  0  0  0  0  0  0  0  0  0  0
   -1.3070   -2.7183   -1.5543 C   0  0  0  0  0  0  0  0  0  0  0  0
   -1.9409   -4.1095   -1.4856 C   0  0  0  0  0  0  0  0  0  0  0  0
    0.9129   -0.5094   -2.5358 C   0  0  0  0  0  0  0  0  0  0  0  0
    2.0655   -1.3492   -1.9806 C   0  0  0  0  0  0  0  0  0  0  0  0
    5.2622    2.8001   -5.1108 C   0  0  0  0  0  0  0  0  0  0  0  0
    6.8831    2.3565   -4.7949 S   0  0  0  0  0  0  0  0  0  0  0  0
    7.3263    3.9357   -4.4547 C   0  0  0  0  0  0  0  0  0  0  0  0
    8.2849    4.5576   -3.7079 C   0  0  0  0  0  0  0  0  0  0  0  0
    7.7470    5.7358   -3.2959 C   0  0  0  0  0  0  0  0  0  0  0  0
    6.4767    5.9013   -3.7513 N   0  0  0  0  0  0  0  0  0  0  0  0
    5.5065    6.9067   -3.3193 C   0  0  0  0  0  0  0  0  0  0  0  0
    5.7021    8.1957   -4.1060 C   0  0  0  0  0  0  0  0  0  0  0  0
    6.2489    4.7690   -4.4722 C   0  0  0  0  0  0  0  0  0  0  0  0
    5.0557    4.1639   -4.8587 C   0  0  0  0  0  0  0  0  0  0  0  0
    8.4176    6.3385   -2.2324 C   0  0  0  0  0  0  0  0  0  0  0  0
    9.5181    5.5572   -1.8480 C   0  0  0  0  0  0  0  0  0  0  0  0
    9.5965    4.1157   -2.7670 S   0  0  0  0  0  0  0  0  0  0  0  0
   10.3576    5.8213   -0.6757 C   0  0  0  0  0  0  0  0  0  0  0  0
   10.0397    5.3784    0.5542 C   0  0  0  0  0  0  0  0  0  0  0  0
    8.9087    4.5007    0.8741 C   0  0  0  0  0  0  0  0  0  0  0  0
    7.8939    4.2884    0.1543 O   0  0  0  0  0  0  0  0  0  0  0  0
    9.1727    3.8606    2.1443 C   0  0  0  0  0  0  0  0  0  0  0  0
    8.4522    2.8293    2.7463 C   0  0  0  0  0  0  0  0  0  0  0  0
    8.9719    2.2357    3.9085 C   0  0  0  0  0  0  0  0  0  0  0  0
    8.2937    1.1768    4.5323 C   0  0  0  0  0  0  0  0  0  0  0  0
    8.8346    0.5669    5.6671 C   0  0  0  0  0  0  0  0  0  0  0  0
   10.0518    1.0092    6.1898 C   0  0  0  0  0  0  0  0  0  0  0  0
   10.5724    0.4073    7.2878 F   0  0  0  0  0  0  0  0  0  0  0  0
   10.7398    2.0626    5.5820 C   0  0  0  0  0  0  0  0  0  0  0  0
   10.2139    2.6848    4.4382 C   0  0  0  0  0  0  0  0  0  0  0  0
   10.9178    3.7305    3.8048 C   0  0  0  0  0  0  0  0  0  0  0  0
   10.3677    4.3312    2.6603 C   0  0  0  0  0  0  0  0  0  0  0  0
   10.9154    5.3936    1.7668 C   0  0  0  0  0  0  0  0  0  0  0  0
   11.8618    6.3145    2.0778 C   0  0  0  0  0  0  0  0  0  0  0  0
   12.5659    6.3123    3.3343 C   0  0  0  0  0  0  0  0  0  0  0  0
   13.1347    6.3187    4.3423 N   0  0  0  0  0  0  0  0  0  0  0  0
   12.1477    7.4388    1.2228 C   0  0  0  0  0  0  0  0  0  0  0  0
   12.3865    8.3393    0.5382 N   0  0  0  0  0  0  0  0  0  0  0  0
   -6.3201   -0.7705    7.4441 H   0  0  0  0  0  0  0  0  0  0  0  0
   -6.5802   -5.2333   10.4176 H   0  0  0  0  0  0  0  0  0  0  0  0
   -4.3799   -6.5431    5.9980 H   0  0  0  0  0  0  0  0  0  0  0  0
   -6.3282   -9.0537    7.3184 H   0  0  0  0  0  0  0  0  0  0  0  0
   -3.6590   -9.6903    7.7261 H   0  0  0  0  0  0  0  0  0  0  0  0
   -5.0014  -11.7933    8.6343 H   0  0  0  0  0  0  0  0  0  0  0  0
   -6.1063  -11.1407   10.9132 H   0  0  0  0  0  0  0  0  0  0  0  0
   -5.4762   -8.6195   11.4517 H   0  0  0  0  0  0  0  0  0  0  0  0
   -3.5859   -7.8768    9.6987 H   0  0  0  0  0  0  0  0  0  0  0  0
   -3.2373   -9.5332   10.3469 H   0  0  0  0  0  0  0  0  0  0  0  0
   -7.3490   -8.4639    9.4001 H   0  0  0  0  0  0  0  0  0  0  0  0
   -6.7233   -3.3312    5.1142 H   0  0  0  0  0  0  0  0  0  0  0  0
   -6.3955   -5.2642    3.5713 H   0  0  0  0  0  0  0  0  0  0  0  0
   -8.0775   -4.5737    3.5435 H   0  0  0  0  0  0  0  0  0  0  0  0
   -8.2724   -5.1850    1.1243 H   0  0  0  0  0  0  0  0  0  0  0  0
   -6.6207   -5.9179    1.1775 H   0  0  0  0  0  0  0  0  0  0  0  0
   -7.9571   -6.6315    2.1680 H   0  0  0  0  0  0  0  0  0  0  0  0
   -5.1857    0.7500    2.7732 H   0  0  0  0  0  0  0  0  0  0  0  0
   -3.6449    1.8779    4.3615 H   0  0  0  0  0  0  0  0  0  0  0  0
   -5.2939    2.6323    4.2503 H   0  0  0  0  0  0  0  0  0  0  0  0
   -5.1219    3.3792    6.6195 H   0  0  0  0  0  0  0  0  0  0  0  0
   -3.4775    2.6146    6.7411 H   0  0  0  0  0  0  0  0  0  0  0  0
   -3.7517    4.0178    5.6264 H   0  0  0  0  0  0  0  0  0  0  0  0
   -8.3993   -1.9037    1.3170 H   0  0  0  0  0  0  0  0  0  0  0  0
  -10.6198   -0.8829    1.5533 H   0  0  0  0  0  0  0  0  0  0  0  0
  -11.1155    1.2915    0.5008 H   0  0  0  0  0  0  0  0  0  0  0  0
  -10.3428    3.3127   -0.5416 H   0  0  0  0  0  0  0  0  0  0  0  0
   -8.5894    3.5598   -0.8130 H   0  0  0  0  0  0  0  0  0  0  0  0
   -8.7032    2.3436   -2.9726 H   0  0  0  0  0  0  0  0  0  0  0  0
   -9.9390    3.6593   -2.9350 H   0  0  0  0  0  0  0  0  0  0  0  0
  -10.4490    1.9422   -2.6849 H   0  0  0  0  0  0  0  0  0  0  0  0
   -7.0882    1.4713   -1.0158 H   0  0  0  0  0  0  0  0  0  0  0  0
    5.5286    2.4422   -8.0488 H   0  0  0  0  0  0  0  0  0  0  0  0
    5.6244    4.0534   -9.9166 H   0  0  0  0  0  0  0  0  0  0  0  0
    3.6161    5.3321  -10.5683 H   0  0  0  0  0  0  0  0  0  0  0  0
    1.2029    5.6314  -10.4544 H   0  0  0  0  0  0  0  0  0  0  0  0
    0.2248    4.5772   -9.3896 H   0  0  0  0  0  0  0  0  0  0  0  0
    1.8226    7.0521   -8.4489 H   0  0  0  0  0  0  0  0  0  0  0  0
    0.0473    6.9993   -8.7631 H   0  0  0  0  0  0  0  0  0  0  0  0
    0.7450    6.0199   -7.4222 H   0  0  0  0  0  0  0  0  0  0  0  0
    1.3784    3.4126   -7.4368 H   0  0  0  0  0  0  0  0  0  0  0  0
   -1.1436   -2.3289   -0.5236 H   0  0  0  0  0  0  0  0  0  0  0  0
   -0.3356   -2.8556   -2.0561 H   0  0  0  0  0  0  0  0  0  0  0  0
   -2.9729   -4.0667   -1.0961 H   0  0  0  0  0  0  0  0  0  0  0  0
   -1.9570   -4.5600   -2.4981 H   0  0  0  0  0  0  0  0  0  0  0  0
   -1.3409   -4.7536   -0.8149 H   0  0  0  0  0  0  0  0  0  0  0  0
    1.2245    0.5563   -2.5726 H   0  0  0  0  0  0  0  0  0  0  0  0
    0.0664   -0.5274   -1.8310 H   0  0  0  0  0  0  0  0  0  0  0  0
    1.7346   -2.3661   -1.6904 H   0  0  0  0  0  0  0  0  0  0  0  0
    2.8823   -1.4642   -2.7215 H   0  0  0  0  0  0  0  0  0  0  0  0
    2.4771   -0.8552   -1.0721 H   0  0  0  0  0  0  0  0  0  0  0  0
    4.4680    6.5373   -3.4694 H   0  0  0  0  0  0  0  0  0  0  0  0
    5.6316    7.1128   -2.2334 H   0  0  0  0  0  0  0  0  0  0  0  0
    5.5662    8.0031   -5.1914 H   0  0  0  0  0  0  0  0  0  0  0  0
    6.7225    8.5988   -3.9312 H   0  0  0  0  0  0  0  0  0  0  0  0
    4.9580    8.9515   -3.7799 H   0  0  0  0  0  0  0  0  0  0  0  0
    4.0863    4.6416   -4.8516 H   0  0  0  0  0  0  0  0  0  0  0  0
    8.0755    7.2198   -1.7033 H   0  0  0  0  0  0  0  0  0  0  0  0
   11.3129    6.2811   -0.8648 H   0  0  0  0  0  0  0  0  0  0  0  0
    7.5282    2.4797    2.3016 H   0  0  0  0  0  0  0  0  0  0  0  0
    7.3513    0.8164    4.1351 H   0  0  0  0  0  0  0  0  0  0  0  0
    8.3092   -0.2551    6.1365 H   0  0  0  0  0  0  0  0  0  0  0  0
   11.6857    2.3892    6.0005 H   0  0  0  0  0  0  0  0  0  0  0  0
   11.8844    4.0169    4.1809 H   0  0  0  0  0  0  0  0  0  0  0  0
  1  2  2  3
  2  3  1  0
  3  4  2  0
  3  5  1  0
  5  6  2  0
  6  7  1  0
  7  8  2  0
  8  9  1  0
  9 10  2  0
 10 11  1  0
 11 12  2  3
 12 13  1  0
 13 14  3  0
 12 15  1  0
 15 16  3  0
  8 17  1  0
 17 18  1  0
 18 19  1  0
 19 20  2  0
 20 21  1  0
 21 22  1  0
 21 23  1  0
  1 24  1  0
 24 25  2  0
 25 26  1  0
 26 27  1  0
 27 28  1  0
 28 29  1  0
 26 30  2  0
 30 31  1  0
 31 32  2  0
 32 33  1  0
 33 34  1  0
 34 35  1  0
 30 36  1  0
 36 37  2  0
 37 38  1  0
 38 39  2  0
 39 40  1  0
 40 41  2  0
 41 42  1  0
 42 43  1  0
 43 44  1  0
 42 45  2  0
 37 46  1  0
 46 47  1  0
 47 48  1  0
 48 49  1  0
 49 50  1  0
 50 51  1  0
 51 52  2  0
 52 53  1  0
 53 54  1  0
 51 55  1  0
 55 56  1  0
 56 57  1  0
 57 58  1  0
 58 59  1  0
 59 60  1  0
 60 61  2  0
 61 62  1  0
 62 63  2  0
 63 64  1  0
 64 65  1  0
 65 66  1  0
 64 67  2  0
 59 68  2  0
 68 69  1  0
 69 70  1  0
 70 71  1  0
 71 72  1  0
 72 73  1  0
 73 74  1  0
 74 75  1  0
 75 76  1  0
 76 77  1  0
 77 78  1  0
 75 79  1  0
 79 80  1  0
 72 81  1  0
 81 82  1  0
 68 83  1  0
 83 84  1  0
 84 85  1  0
 85 86  1  0
 86 87  2  0
 87 88  1  0
 88 89  1  0
 89 90  1  0
 88 91  1  0
 91 92  1  0
 87 93  1  0
 93 94  2  0
 94 95  1  0
 94 96  1  0
 96 97  2  3
 97 98  1  0
 98 99  2  0
 98100  1  0
100101  2  0
101102  1  0
102103  2  0
103104  1  0
104105  2  0
105106  1  0
105107  1  0
107108  2  0
108109  1  0
109110  2  0
110111  1  0
111112  2  3
112113  1  0
113114  3  0
112115  1  0
115116  3  0
 11  2  1  0
 23 17  1  0
 32 24  1  0
 78 36  1  0
 92 83  2  0
111 97  1  0
 10  5  1  0
 22 18  1  0
 45 38  1  0
 77 46  2  0
 91 85  2  0
110100  1  0
 23  7  1  0
 76 48  2  0
 95 86  1  0
108102  1  0
 74 49  2  0
 54 50  2  0
 73 55  2  0
 71 56  2  0
 70 58  2  0
 67 60  1  0
  1117  1  0
  6118  1  0
  9119  1  0
 17120  1  0
 18121  1  0
 19122  1  0
 20123  1  0
 21124  1  0
 22125  1  0
 22126  1  0
 23127  1  0
 25128  1  0
 28129  1  0
 28130  1  0
 29131  1  0
 29132  1  0
 29133  1  0
 31134  1  0
 34135  1  0
 34136  1  0
 35137  1  0
 35138  1  0
 35139  1  0
 39140  1  0
 40141  1  0
 41142  1  0
 43143  1  0
 43144  1  0
 44145  1  0
 44146  1  0
 44147  1  0
 45148  1  0
 61149  1  0
 62150  1  0
 63151  1  0
 65152  1  0
 65153  1  0
 66154  1  0
 66155  1  0
 66156  1  0
 67157  1  0
 79158  1  0
 79159  1  0
 80160  1  0
 80161  1  0
 80162  1  0
 81163  1  0
 81164  1  0
 82165  1  0
 82166  1  0
 82167  1  0
 89168  1  0
 89169  1  0
 90170  1  0
 90171  1  0
 90172  1  0
 92173  1  0
 93174  1  0
 96175  1  0
101176  1  0
103177  1  0
104178  1  0
107179  1  0
109180  1  0
M  END

