
     RDKit          3D

260290  0  0  0  0  0  0  0  0999 V2000
   -0.2585  -11.6506   -2.2722 C   0  0  0  0  0  0  0  0  0  0  0  0
    0.9591  -11.3100   -1.8069 C   0  0  0  0  0  0  0  0  0  0  0  0
    1.3111   -9.9842   -1.2877 C   0  0  0  0  0  0  0  0  0  0  0  0
    0.8593   -8.8819   -1.7020 O   0  0  0  0  0  0  0  0  0  0  0  0
    2.2829  -10.1435   -0.2347 C   0  0  0  0  0  0  0  0  0  0  0  0
    2.6215   -9.1857    0.7445 C   0  0  0  0  0  0  0  0  0  0  0  0
    3.3662   -9.6960    1.7866 C   0  0  0  0  0  0  0  0  0  0  0  0
    3.7733  -11.0644    1.8651 C   0  0  0  0  0  0  0  0  0  0  0  0
    3.4520  -12.0133    0.9052 C   0  0  0  0  0  0  0  0  0  0  0  0
    2.6759  -11.5090   -0.1778 C   0  0  0  0  0  0  0  0  0  0  0  0
    1.9831  -12.2524   -1.2702 C   0  0  0  0  0  0  0  0  0  0  0  0
    2.3214  -13.4537   -1.7875 C   0  0  0  0  0  0  0  0  0  0  0  0
    1.7057  -13.9607   -2.9907 C   0  0  0  0  0  0  0  0  0  0  0  0
    1.2064  -14.3679   -3.9503 N   0  0  0  0  0  0  0  0  0  0  0  0
    3.4201  -14.2275   -1.2725 C   0  0  0  0  0  0  0  0  0  0  0  0
    4.2902  -14.8645   -0.8477 N   0  0  0  0  0  0  0  0  0  0  0  0
    4.3765  -10.8221    3.2194 C   0  0  0  0  0  0  0  0  0  0  0  0
    3.5858  -11.3860    4.4332 C   0  0  0  0  0  0  0  0  0  0  0  0
    4.1468  -10.6847    5.6499 C   0  0  0  0  0  0  0  0  0  0  0  0
    3.7420   -9.4143    5.5761 C   0  0  0  0  0  0  0  0  0  0  0  0
    2.9267   -9.2941    4.3139 C   0  0  0  0  0  0  0  0  0  0  0  0
    2.2530  -10.6573    4.3373 C   0  0  0  0  0  0  0  0  0  0  0  0
    3.9472   -9.4237    3.1406 C   0  0  0  0  0  0  0  0  0  0  0  0
   -1.4062  -10.7371   -2.1589 C   0  0  0  0  0  0  0  0  0  0  0  0
   -1.8439   -9.9692   -0.7278 S   0  0  0  0  0  0  0  0  0  0  0  0
   -2.9447   -8.8921   -1.3902 C   0  0  0  0  0  0  0  0  0  0  0  0
   -3.0280   -9.1658   -2.7658 C   0  0  0  0  0  0  0  0  0  0  0  0
   -3.9163   -8.4742   -3.7244 C   0  0  0  0  0  0  0  0  0  0  0  0
   -4.8181   -7.6935   -3.3119 O   0  0  0  0  0  0  0  0  0  0  0  0
   -3.7742   -8.7850   -5.1712 C   0  0  0  0  0  0  0  0  0  0  0  0
   -4.4989   -8.1951   -6.2171 C   0  0  0  0  0  0  0  0  0  0  0  0
   -5.5131   -7.0893   -6.1486 C   0  0  0  0  0  0  0  0  0  0  0  0
   -4.8301   -5.7340   -6.0161 C   0  0  0  0  0  0  0  0  0  0  0  0
   -3.9660   -8.8631   -7.6690 S   0  0  0  0  0  0  0  0  0  0  0  0
   -2.8324   -9.9118   -7.0056 C   0  0  0  0  0  0  0  0  0  0  0  0
   -2.0038  -10.8557   -7.8258 C   0  0  0  0  0  0  0  0  0  0  0  0
   -2.6278  -12.2460   -7.8609 C   0  0  0  0  0  0  0  0  0  0  0  0
   -2.8562   -9.7643   -5.6103 C   0  0  0  0  0  0  0  0  0  0  0  0
   -2.0297  -10.5174   -4.6299 C   0  0  0  0  0  0  0  0  0  0  0  0
   -1.2352  -11.4193   -5.0108 O   0  0  0  0  0  0  0  0  0  0  0  0
   -2.1579  -10.1848   -3.1969 C   0  0  0  0  0  0  0  0  0  0  0  0
   -3.1998   -7.5952   -0.7449 C   0  0  0  0  0  0  0  0  0  0  0  0
   -3.2457   -7.3881    0.6489 C   0  0  0  0  0  0  0  0  0  0  0  0
   -3.0437   -6.0404    0.9573 C   0  0  0  0  0  0  0  0  0  0  0  0
   -2.7909   -5.1661    2.3967 S   0  0  0  0  0  0  0  0  0  0  0  0
   -2.3805   -3.7362    1.5609 C   0  0  0  0  0  0  0  0  0  0  0  0
   -2.0584   -2.3786    2.0119 C   0  0  0  0  0  0  0  0  0  0  0  0
   -1.7964   -1.4186    1.0333 C   0  0  0  0  0  0  0  0  0  0  0  0
   -1.2442   -1.8776   -0.3238 C   0  0  0  0  0  0  0  0  0  0  0  0
   -2.0520   -2.9961   -0.7517 O   0  0  0  0  0  0  0  0  0  0  0  0
   -2.4304   -3.9701    0.1829 C   0  0  0  0  0  0  0  0  0  0  0  0
   -2.8306   -5.2466   -0.1202 C   0  0  0  0  0  0  0  0  0  0  0  0
   -2.8665   -6.1202   -1.5341 S   0  0  0  0  0  0  0  0  0  0  0  0
    0.1950   -2.4192   -0.1851 C   0  0  0  0  0  0  0  0  0  0  0  0
    0.7468   -3.1643   -1.2487 C   0  0  0  0  0  0  0  0  0  0  0  0
    2.0394   -3.6938   -1.1557 C   0  0  0  0  0  0  0  0  0  0  0  0
    2.8092   -3.4877   -0.0008 C   0  0  0  0  0  0  0  0  0  0  0  0
    4.1837   -4.0838    0.1158 C   0  0  0  0  0  0  0  0  0  0  0  0
    4.1198   -5.4995    0.6783 C   0  0  0  0  0  0  0  0  0  0  0  0
    2.2674   -2.7553    1.0624 C   0  0  0  0  0  0  0  0  0  0  0  0
    0.9864   -2.2049    0.9631 C   0  0  0  0  0  0  0  0  0  0  0  0
   -1.2648   -0.7777   -1.3907 C   0  0  0  0  0  0  0  0  0  0  0  0
   -2.3496   -0.6613   -2.2837 C   0  0  0  0  0  0  0  0  0  0  0  0
   -2.2968    0.2483   -3.3467 C   0  0  0  0  0  0  0  0  0  0  0  0
   -1.1764    1.0781   -3.5184 C   0  0  0  0  0  0  0  0  0  0  0  0
   -1.0437    1.9438   -4.7411 C   0  0  0  0  0  0  0  0  0  0  0  0
   -0.2837    1.2147   -5.8440 C   0  0  0  0  0  0  0  0  0  0  0  0
   -0.1341    1.0248   -2.5875 C   0  0  0  0  0  0  0  0  0  0  0  0
   -0.1801    0.1177   -1.5326 C   0  0  0  0  0  0  0  0  0  0  0  0
   -1.8435   -0.1467    1.5679 C   0  0  0  0  0  0  0  0  0  0  0  0
   -1.9295    1.3646    0.8831 S   0  0  0  0  0  0  0  0  0  0  0  0
   -2.0066    2.1322    2.3860 C   0  0  0  0  0  0  0  0  0  0  0  0
   -1.7798    3.5343    2.5638 C   0  0  0  0  0  0  0  0  0  0  0  0
   -1.0561    3.9311    3.6725 C   0  0  0  0  0  0  0  0  0  0  0  0
   -0.9049    3.0793    4.7799 O   0  0  0  0  0  0  0  0  0  0  0  0
   -1.5165    1.7584    4.8575 C   0  0  0  0  0  0  0  0  0  0  0  0
   -0.4730    0.8725    5.5515 C   0  0  0  0  0  0  0  0  0  0  0  0
    0.5907    0.3132    4.8146 C   0  0  0  0  0  0  0  0  0  0  0  0
    1.5727   -0.4534    5.4425 C   0  0  0  0  0  0  0  0  0  0  0  0
    1.5458   -0.6408    6.8296 C   0  0  0  0  0  0  0  0  0  0  0  0
    2.5606   -1.5179    7.5100 C   0  0  0  0  0  0  0  0  0  0  0  0
    2.0041   -2.9282    7.6790 C   0  0  0  0  0  0  0  0  0  0  0  0
    0.5464   -0.0152    7.5848 C   0  0  0  0  0  0  0  0  0  0  0  0
   -0.4401    0.7533    6.9610 C   0  0  0  0  0  0  0  0  0  0  0  0
   -2.8343    1.8369    5.6432 C   0  0  0  0  0  0  0  0  0  0  0  0
   -3.4774    3.0676    5.8832 C   0  0  0  0  0  0  0  0  0  0  0  0
   -4.6681    3.1207    6.6082 C   0  0  0  0  0  0  0  0  0  0  0  0
   -5.2602    1.9409    7.0892 C   0  0  0  0  0  0  0  0  0  0  0  0
   -6.5683    1.9898    7.8339 C   0  0  0  0  0  0  0  0  0  0  0  0
   -7.7400    1.8994    6.8626 C   0  0  0  0  0  0  0  0  0  0  0  0
   -4.6517    0.7096    6.8114 C   0  0  0  0  0  0  0  0  0  0  0  0
   -3.4578    0.6588    6.0889 C   0  0  0  0  0  0  0  0  0  0  0  0
   -1.8699    1.2358    3.4419 C   0  0  0  0  0  0  0  0  0  0  0  0
   -1.9272   -0.0791    2.9353 C   0  0  0  0  0  0  0  0  0  0  0  0
   -2.1278   -1.6490    3.5592 S   0  0  0  0  0  0  0  0  0  0  0  0
   -0.3719    5.1157    3.4043 C   0  0  0  0  0  0  0  0  0  0  0  0
   -0.7063    5.6561    2.1989 C   0  0  0  0  0  0  0  0  0  0  0  0
   -1.6983    4.6599    1.3162 S   0  0  0  0  0  0  0  0  0  0  0  0
   -0.0332    6.7803    1.8211 C   0  0  0  0  0  0  0  0  0  0  0  0
    0.8908    7.1795    2.7861 C   0  0  0  0  0  0  0  0  0  0  0  0
    0.7726    6.1280    4.1345 S   0  0  0  0  0  0  0  0  0  0  0  0
    2.0859    7.9028    2.3148 C   0  0  0  0  0  0  0  0  0  0  0  0
    2.9889    7.1099    1.5712 C   0  0  0  0  0  0  0  0  0  0  0  0
    3.8667    6.1402    2.1588 N   0  0  0  0  0  0  0  0  0  0  0  0
    3.5404    4.7290    2.1975 C   0  0  0  0  0  0  0  0  0  0  0  0
    2.5020    4.1935    1.4158 C   0  0  0  0  0  0  0  0  0  0  0  0
    2.3432    2.8137    1.2841 C   0  0  0  0  0  0  0  0  0  0  0  0
    3.2300    1.9401    1.9319 C   0  0  0  0  0  0  0  0  0  0  0  0
    3.1600    0.4657    1.6952 C   0  0  0  0  0  0  0  0  0  0  0  0
    4.1917    2.4567    2.8105 C   0  0  0  0  0  0  0  0  0  0  0  0
    4.3369    3.8400    2.9521 C   0  0  0  0  0  0  0  0  0  0  0  0
    5.2464    6.5632    2.2408 C   0  0  0  0  0  0  0  0  0  0  0  0
    6.2357    5.9388    1.4587 C   0  0  0  0  0  0  0  0  0  0  0  0
    7.5348    6.4429    1.4183 C   0  0  0  0  0  0  0  0  0  0  0  0
    7.8718    7.5793    2.1624 C   0  0  0  0  0  0  0  0  0  0  0  0
    9.2518    8.1644    2.0439 C   0  0  0  0  0  0  0  0  0  0  0  0
    6.8956    8.2067    2.9467 C   0  0  0  0  0  0  0  0  0  0  0  0
    5.5925    7.7004    2.9908 C   0  0  0  0  0  0  0  0  0  0  0  0
    3.0921    7.4847    0.2383 C   0  0  0  0  0  0  0  0  0  0  0  0
    3.1748    6.4837   -1.1111 S   0  0  0  0  0  0  0  0  0  0  0  0
    2.2718    7.5151   -2.1141 C   0  0  0  0  0  0  0  0  0  0  0  0
    1.9545    8.6743   -1.3916 C   0  0  0  0  0  0  0  0  0  0  0  0
    1.2667    9.8054   -1.9470 N   0  0  0  0  0  0  0  0  0  0  0  0
    2.1160   10.7676   -2.6034 C   0  0  0  0  0  0  0  0  0  0  0  0
    3.1610   11.3756   -1.8916 C   0  0  0  0  0  0  0  0  0  0  0  0
    4.1012   12.1734   -2.5557 C   0  0  0  0  0  0  0  0  0  0  0  0
    4.0011   12.3793   -3.9388 C   0  0  0  0  0  0  0  0  0  0  0  0
    5.0680   13.1538   -4.6514 C   0  0  0  0  0  0  0  0  0  0  0  0
    2.9532   11.7771   -4.6527 C   0  0  0  0  0  0  0  0  0  0  0  0
    2.0220   10.9721   -3.9922 C   0  0  0  0  0  0  0  0  0  0  0  0
   -0.1743    9.7962   -2.1392 C   0  0  0  0  0  0  0  0  0  0  0  0
   -0.9448    8.6495   -1.8496 C   0  0  0  0  0  0  0  0  0  0  0  0
   -2.3106    8.6145   -2.1537 C   0  0  0  0  0  0  0  0  0  0  0  0
   -2.9402    9.7242   -2.7223 C   0  0  0  0  0  0  0  0  0  0  0  0
   -4.3907    9.6679   -3.0758 C   0  0  0  0  0  0  0  0  0  0  0  0
   -2.1987   10.9009   -2.9285 C   0  0  0  0  0  0  0  0  0  0  0  0
   -0.8408   10.9371   -2.6339 C   0  0  0  0  0  0  0  0  0  0  0  0
    2.4216    8.6248   -0.0770 C   0  0  0  0  0  0  0  0  0  0  0  0
    1.7114    9.2296    1.3107 S   0  0  0  0  0  0  0  0  0  0  0  0
    1.6492    7.1759   -3.4110 C   0  0  0  0  0  0  0  0  0  0  0  0
    0.6826    6.2384   -3.5637 C   0  0  0  0  0  0  0  0  0  0  0  0
    0.1969    5.2849   -2.5484 C   0  0  0  0  0  0  0  0  0  0  0  0
    0.8575    4.7992   -1.5958 O   0  0  0  0  0  0  0  0  0  0  0  0
   -1.1829    4.9528   -2.8400 C   0  0  0  0  0  0  0  0  0  0  0  0
   -2.0397    4.1128   -2.0968 C   0  0  0  0  0  0  0  0  0  0  0  0
   -3.3495    4.1078   -2.5448 C   0  0  0  0  0  0  0  0  0  0  0  0
   -3.8026    4.8894   -3.6566 C   0  0  0  0  0  0  0  0  0  0  0  0
   -2.9489    5.6680   -4.4239 C   0  0  0  0  0  0  0  0  0  0  0  0
   -1.5874    5.6420   -4.0054 C   0  0  0  0  0  0  0  0  0  0  0  0
   -0.3941    6.3084   -4.5953 C   0  0  0  0  0  0  0  0  0  0  0  0
   -0.2269    6.6429   -5.8992 C   0  0  0  0  0  0  0  0  0  0  0  0
   -1.2932    6.5460   -6.8652 C   0  0  0  0  0  0  0  0  0  0  0  0
   -2.1439    6.4785   -7.6453 N   0  0  0  0  0  0  0  0  0  0  0  0
    1.0797    6.9449   -6.4374 C   0  0  0  0  0  0  0  0  0  0  0  0
    2.1277    7.1780   -6.8730 N   0  0  0  0  0  0  0  0  0  0  0  0
   -5.2091    4.4156   -3.4294 C   0  0  0  0  0  0  0  0  0  0  0  0
   -6.2147    5.3955   -2.7542 C   0  0  0  0  0  0  0  0  0  0  0  0
   -5.4988    6.3043   -1.7872 C   0  0  0  0  0  0  0  0  0  0  0  0
   -5.0839    5.5412   -0.7734 C   0  0  0  0  0  0  0  0  0  0  0  0
   -5.5321    4.1387   -1.0914 C   0  0  0  0  0  0  0  0  0  0  0  0
   -6.8608    4.4532   -1.7564 C   0  0  0  0  0  0  0  0  0  0  0  0
   -4.7365    3.5862   -2.3150 C   0  0  0  0  0  0  0  0  0  0  0  0
   -0.4834  -12.6710   -2.5458 H   0  0  0  0  0  0  0  0  0  0  0  0
    2.2380   -8.1725    0.7418 H   0  0  0  0  0  0  0  0  0  0  0  0
    3.6886  -13.0524    1.0483 H   0  0  0  0  0  0  0  0  0  0  0  0
    5.4784  -10.9637    3.2486 H   0  0  0  0  0  0  0  0  0  0  0  0
    3.5316  -12.4881    4.5085 H   0  0  0  0  0  0  0  0  0  0  0  0
    4.6909  -11.1335    6.4712 H   0  0  0  0  0  0  0  0  0  0  0  0
    3.8989   -8.6490    6.3317 H   0  0  0  0  0  0  0  0  0  0  0  0
    2.2438   -8.4171    4.2670 H   0  0  0  0  0  0  0  0  0  0  0  0
    1.6707  -10.8964    3.4208 H   0  0  0  0  0  0  0  0  0  0  0  0
    1.5997  -10.8146    5.2304 H   0  0  0  0  0  0  0  0  0  0  0  0
    4.7739   -8.6785    3.1303 H   0  0  0  0  0  0  0  0  0  0  0  0
   -6.1170   -7.0863   -7.0813 H   0  0  0  0  0  0  0  0  0  0  0  0
   -6.2161   -7.2533   -5.3111 H   0  0  0  0  0  0  0  0  0  0  0  0
   -4.0761   -5.5953   -6.8183 H   0  0  0  0  0  0  0  0  0  0  0  0
   -5.5830   -4.9241   -6.1060 H   0  0  0  0  0  0  0  0  0  0  0  0
   -4.3288   -5.6427   -5.0305 H   0  0  0  0  0  0  0  0  0  0  0  0
   -0.9719  -10.9118   -7.4244 H   0  0  0  0  0  0  0  0  0  0  0  0
   -1.9272  -10.4766   -8.8677 H   0  0  0  0  0  0  0  0  0  0  0  0
   -1.9628  -12.9423   -8.4107 H   0  0  0  0  0  0  0  0  0  0  0  0
   -3.6086  -12.2129   -8.3821 H   0  0  0  0  0  0  0  0  0  0  0  0
   -2.7769  -12.6362   -6.8332 H   0  0  0  0  0  0  0  0  0  0  0  0
   -3.3117   -8.1745    1.3915 H   0  0  0  0  0  0  0  0  0  0  0  0
    0.1772   -3.3357   -2.1493 H   0  0  0  0  0  0  0  0  0  0  0  0
    2.4330   -4.2767   -1.9749 H   0  0  0  0  0  0  0  0  0  0  0  0
    4.6743   -4.1058   -0.8835 H   0  0  0  0  0  0  0  0  0  0  0  0
    4.8182   -3.4575    0.7769 H   0  0  0  0  0  0  0  0  0  0  0  0
    5.1337   -5.9451    0.6808 H   0  0  0  0  0  0  0  0  0  0  0  0
    3.7310   -5.4818    1.7158 H   0  0  0  0  0  0  0  0  0  0  0  0
    3.4600   -6.1316    0.0437 H   0  0  0  0  0  0  0  0  0  0  0  0
    2.8445   -2.6007    1.9680 H   0  0  0  0  0  0  0  0  0  0  0  0
    0.6357   -1.6074    1.7901 H   0  0  0  0  0  0  0  0  0  0  0  0
   -3.2140   -1.2984   -2.1912 H   0  0  0  0  0  0  0  0  0  0  0  0
   -3.1188    0.2916   -4.0471 H   0  0  0  0  0  0  0  0  0  0  0  0
   -0.4928    2.8752   -4.4929 H   0  0  0  0  0  0  0  0  0  0  0  0
   -2.0480    2.2403   -5.1195 H   0  0  0  0  0  0  0  0  0  0  0  0
    0.7537    0.9854   -5.5081 H   0  0  0  0  0  0  0  0  0  0  0  0
   -0.2278    1.8555   -6.7482 H   0  0  0  0  0  0  0  0  0  0  0  0
   -0.7961    0.2669   -6.1052 H   0  0  0  0  0  0  0  0  0  0  0  0
    0.7357    1.6638   -2.6958 H   0  0  0  0  0  0  0  0  0  0  0  0
    0.6463    0.0938   -0.8281 H   0  0  0  0  0  0  0  0  0  0  0  0
    0.6674    0.4771    3.7477 H   0  0  0  0  0  0  0  0  0  0  0  0
    2.3579   -0.9053    4.8457 H   0  0  0  0  0  0  0  0  0  0  0  0
    2.8242   -1.1052    8.5088 H   0  0  0  0  0  0  0  0  0  0  0  0
    3.5008   -1.5701    6.9167 H   0  0  0  0  0  0  0  0  0  0  0  0
    1.8419   -3.3994    6.6876 H   0  0  0  0  0  0  0  0  0  0  0  0
    1.0445   -2.9005    8.2481 H   0  0  0  0  0  0  0  0  0  0  0  0
    2.7275   -3.5486    8.2521 H   0  0  0  0  0  0  0  0  0  0  0  0
    0.5317   -0.1135    8.6624 H   0  0  0  0  0  0  0  0  0  0  0  0
   -1.1726    1.2412    7.5818 H   0  0  0  0  0  0  0  0  0  0  0  0
   -3.0711    3.9972    5.5069 H   0  0  0  0  0  0  0  0  0  0  0  0
   -5.1444    4.0842    6.7804 H   0  0  0  0  0  0  0  0  0  0  0  0
   -6.6446    2.9293    8.4225 H   0  0  0  0  0  0  0  0  0  0  0  0
   -6.6250    1.1421    8.5516 H   0  0  0  0  0  0  0  0  0  0  0  0
   -7.7059    0.9321    6.3111 H   0  0  0  0  0  0  0  0  0  0  0  0
   -8.6960    1.9458    7.4252 H   0  0  0  0  0  0  0  0  0  0  0  0
   -7.7092    2.7353    6.1350 H   0  0  0  0  0  0  0  0  0  0  0  0
   -5.1121   -0.2109    7.1503 H   0  0  0  0  0  0  0  0  0  0  0  0
   -3.0044   -0.3015    5.9124 H   0  0  0  0  0  0  0  0  0  0  0  0
   -0.0878    7.1650    0.8091 H   0  0  0  0  0  0  0  0  0  0  0  0
    1.8370    4.8465    0.8775 H   0  0  0  0  0  0  0  0  0  0  0  0
    1.5579    2.4253    0.6462 H   0  0  0  0  0  0  0  0  0  0  0  0
    4.1864    0.0449    1.5892 H   0  0  0  0  0  0  0  0  0  0  0  0
    2.6578   -0.0264    2.5526 H   0  0  0  0  0  0  0  0  0  0  0  0
    2.6013    0.2361    0.7566 H   0  0  0  0  0  0  0  0  0  0  0  0
    4.8620    1.7929    3.3478 H   0  0  0  0  0  0  0  0  0  0  0  0
    5.1054    4.2216    3.6108 H   0  0  0  0  0  0  0  0  0  0  0  0
    5.9753    5.0865    0.8367 H   0  0  0  0  0  0  0  0  0  0  0  0
    8.2673    5.9636    0.7830 H   0  0  0  0  0  0  0  0  0  0  0  0
   10.0071    7.3639    1.9314 H   0  0  0  0  0  0  0  0  0  0  0  0
    9.5111    8.7609    2.9479 H   0  0  0  0  0  0  0  0  0  0  0  0
    9.2921    8.8266    1.1561 H   0  0  0  0  0  0  0  0  0  0  0  0
    7.1342    9.1058    3.5008 H   0  0  0  0  0  0  0  0  0  0  0  0
    4.8419    8.2160    3.5825 H   0  0  0  0  0  0  0  0  0  0  0  0
    3.2661   11.2062   -0.8283 H   0  0  0  0  0  0  0  0  0  0  0  0
    4.9146   12.6078   -1.9897 H   0  0  0  0  0  0  0  0  0  0  0  0
    4.7397   13.4420   -5.6753 H   0  0  0  0  0  0  0  0  0  0  0  0
    5.3120   14.0764   -4.0880 H   0  0  0  0  0  0  0  0  0  0  0  0
    5.9772   12.5221   -4.7317 H   0  0  0  0  0  0  0  0  0  0  0  0
    2.8661   11.9100   -5.7230 H   0  0  0  0  0  0  0  0  0  0  0  0
    1.2502   10.4757   -4.5679 H   0  0  0  0  0  0  0  0  0  0  0  0
   -0.4990    7.7692   -1.4166 H   0  0  0  0  0  0  0  0  0  0  0  0
   -2.8722    7.7045   -1.9532 H   0  0  0  0  0  0  0  0  0  0  0  0
   -4.9938    9.6934   -2.1363 H   0  0  0  0  0  0  0  0  0  0  0  0
   -4.6164    8.7367   -3.6326 H   0  0  0  0  0  0  0  0  0  0  0  0
   -4.6960   10.5310   -3.7080 H   0  0  0  0  0  0  0  0  0  0  0  0
   -2.6803   11.7889   -3.3203 H   0  0  0  0  0  0  0  0  0  0  0  0
   -0.3044   11.8678   -2.7921 H   0  0  0  0  0  0  0  0  0  0  0  0
    1.7270    7.9544   -4.1596 H   0  0  0  0  0  0  0  0  0  0  0  0
   -1.7072    3.5317   -1.2527 H   0  0  0  0  0  0  0  0  0  0  0  0
   -3.3220    6.2653   -5.2389 H   0  0  0  0  0  0  0  0  0  0  0  0
   -5.6341    3.8278   -4.2756 H   0  0  0  0  0  0  0  0  0  0  0  0
   -6.9239    5.9077   -3.4448 H   0  0  0  0  0  0  0  0  0  0  0  0
   -5.4580    7.3864   -1.8165 H   0  0  0  0  0  0  0  0  0  0  0  0
   -4.6392    5.8974    0.1433 H   0  0  0  0  0  0  0  0  0  0  0  0
   -5.5873    3.4555   -0.2173 H   0  0  0  0  0  0  0  0  0  0  0  0
   -7.3496    3.5645   -2.2241 H   0  0  0  0  0  0  0  0  0  0  0  0
   -7.5875    4.9607   -1.0731 H   0  0  0  0  0  0  0  0  0  0  0  0
   -4.8520    2.4957   -2.5004 H   0  0  0  0  0  0  0  0  0  0  0  0
  1  2  2  3
  2  3  1  0
  3  4  2  0
  3  5  1  0
  5  6  2  0
  6  7  1  0
  7  8  2  0
  8  9  1  0
  9 10  2  0
 10 11  1  0
 11 12  2  3
 12 13  1  0
 13 14  3  0
 12 15  1  0
 15 16  3  0
  8 17  1  0
 17 18  1  0
 18 19  1  0
 19 20  2  0
 20 21  1  0
 21 22  1  0
 21 23  1  0
  1 24  1  0
 24 25  1  0
 25 26  1  0
 26 27  2  0
 27 28  1  0
 28 29  2  0
 28 30  1  0
 30 31  2  0
 31 32  1  0
 32 33  1  0
 31 34  1  0
 34 35  1  0
 35 36  1  0
 36 37  1  0
 35 38  2  0
 38 39  1  0
 39 40  2  0
 39 41  1  0
 26 42  1  0
 42 43  2  0
 43 44  1  0
 44 45  1  0
 45 46  1  0
 46 47  1  0
 47 48  2  0
 48 49  1  0
 49 50  1  0
 50 51  1  0
 51 52  1  0
 52 53  1  0
 49 54  1  0
 54 55  2  0
 55 56  1  0
 56 57  2  0
 57 58  1  0
 58 59  1  0
 57 60  1  0
 60 61  2  0
 49 62  1  0
 62 63  2  0
 63 64  1  0
 64 65  2  0
 65 66  1  0
 66 67  1  0
 65 68  1  0
 68 69  2  0
 48 70  1  0
 70 71  1  0
 71 72  1  0
 72 73  1  0
 73 74  2  0
 74 75  1  0
 75 76  1  0
 76 77  1  0
 77 78  2  0
 78 79  1  0
 79 80  2  0
 80 81  1  0
 81 82  1  0
 80 83  1  0
 83 84  2  0
 76 85  1  0
 85 86  2  0
 86 87  1  0
 87 88  2  0
 88 89  1  0
 89 90  1  0
 88 91  1  0
 91 92  2  0
 76 93  1  0
 93 94  1  0
 94 95  1  0
 74 96  1  0
 96 97  2  0
 97 98  1  0
 97 99  1  0
 99100  2  0
100101  1  0
100102  1  0
102103  2  0
103104  1  0
104105  1  0
105106  2  0
106107  1  0
107108  2  0
108109  1  0
108110  1  0
110111  2  0
104112  1  0
112113  2  0
113114  1  0
114115  2  0
115116  1  0
115117  1  0
117118  2  0
103119  1  0
119120  1  0
120121  1  0
121122  2  0
122123  1  0
123124  1  0
124125  2  0
125126  1  0
126127  2  0
127128  1  0
127129  1  0
129130  2  0
123131  1  0
131132  2  0
132133  1  0
133134  2  0
134135  1  0
134136  1  0
136137  2  0
122138  1  0
138139  1  0
121140  1  0
140141  2  3
141142  1  0
142143  2  0
142144  1  0
144145  2  0
145146  1  0
146147  2  0
147148  1  0
148149  2  0
149150  1  0
150151  2  3
151152  1  0
152153  3  0
151154  1  0
154155  3  0
147156  1  0
156157  1  0
157158  1  0
158159  2  0
159160  1  0
160161  1  0
160162  1  0
 11  2  1  0
 23 17  1  0
 41 24  2  0
 53 42  1  0
 61 54  1  0
 69 62  1  0
 94 70  2  0
101 96  1  0
139102  1  0
150141  1  0
162156  1  0
 10  5  1  0
 22 18  1  0
 41 27  1  0
 52 44  2  0
 93 72  2  0
111105  1  0
118112  1  0
138119  2  0
149144  1  0
161157  1  0
 23  7  1  0
 38 30  1  0
 51 46  2  0
 98 73  1  0
130124  1  0
137131  1  0
162146  1  0
 95 47  1  0
 84 77  1  0
 92 85  1  0
  1163  1  0
  6164  1  0
  9165  1  0
 17166  1  0
 18167  1  0
 19168  1  0
 20169  1  0
 21170  1  0
 22171  1  0
 22172  1  0
 23173  1  0
 32174  1  0
 32175  1  0
 33176  1  0
 33177  1  0
 33178  1  0
 36179  1  0
 36180  1  0
 37181  1  0
 37182  1  0
 37183  1  0
 43184  1  0
 55185  1  0
 56186  1  0
 58187  1  0
 58188  1  0
 59189  1  0
 59190  1  0
 59191  1  0
 60192  1  0
 61193  1  0
 63194  1  0
 64195  1  0
 66196  1  0
 66197  1  0
 67198  1  0
 67199  1  0
 67200  1  0
 68201  1  0
 69202  1  0
 78203  1  0
 79204  1  0
 81205  1  0
 81206  1  0
 82207  1  0
 82208  1  0
 82209  1  0
 83210  1  0
 84211  1  0
 86212  1  0
 87213  1  0
 89214  1  0
 89215  1  0
 90216  1  0
 90217  1  0
 90218  1  0
 91219  1  0
 92220  1  0
 99221  1  0
106222  1  0
107223  1  0
109224  1  0
109225  1  0
109226  1  0
110227  1  0
111228  1  0
113229  1  0
114230  1  0
116231  1  0
116232  1  0
116233  1  0
117234  1  0
118235  1  0
125236  1  0
126237  1  0
128238  1  0
128239  1  0
128240  1  0
129241  1  0
130242  1  0
132243  1  0
133244  1  0
135245  1  0
135246  1  0
135247  1  0
136248  1  0
137249  1  0
140250  1  0
145251  1  0
148252  1  0
156253  1  0
157254  1  0
158255  1  0
159256  1  0
160257  1  0
161258  1  0
161259  1  0
162260  1  0
M  END

