
     RDKit          3D

195220  0  0  0  0  0  0  0  0999 V2000
    6.3067    5.6005   -5.1276 C   0  0  0  0  0  0  0  0  0  0  0  0
    7.5107    5.0075   -5.2536 C   0  0  0  0  0  0  0  0  0  0  0  0
    7.8554    3.6672   -4.7488 C   0  0  0  0  0  0  0  0  0  0  0  0
    7.0490    2.7773   -4.3655 O   0  0  0  0  0  0  0  0  0  0  0  0
    9.2948    3.5406   -4.7122 C   0  0  0  0  0  0  0  0  0  0  0  0
   10.0375    2.4650   -4.1751 C   0  0  0  0  0  0  0  0  0  0  0  0
   11.4018    2.6765   -4.1653 C   0  0  0  0  0  0  0  0  0  0  0  0
   12.0105    3.8780   -4.6525 C   0  0  0  0  0  0  0  0  0  0  0  0
   11.2891    4.9344   -5.1850 C   0  0  0  0  0  0  0  0  0  0  0  0
    9.8788    4.7278   -5.2239 C   0  0  0  0  0  0  0  0  0  0  0  0
    8.7933    5.6416   -5.6911 C   0  0  0  0  0  0  0  0  0  0  0  0
    8.9304    6.6862   -6.5495 C   0  0  0  0  0  0  0  0  0  0  0  0
   10.2103    7.1213   -7.0449 C   0  0  0  0  0  0  0  0  0  0  0  0
   11.2318    7.4803   -7.4574 N   0  0  0  0  0  0  0  0  0  0  0  0
    7.7967    7.3474   -7.1438 C   0  0  0  0  0  0  0  0  0  0  0  0
    6.8929    7.8823   -7.6294 N   0  0  0  0  0  0  0  0  0  0  0  0
   13.3679    3.3591   -4.2826 C   0  0  0  0  0  0  0  0  0  0  0  0
   14.2702    2.8674   -5.4518 C   0  0  0  0  0  0  0  0  0  0  0  0
   15.3671    2.0520   -4.8123 C   0  0  0  0  0  0  0  0  0  0  0  0
   14.7931    0.9265   -4.3689 C   0  0  0  0  0  0  0  0  0  0  0  0
   13.3285    1.0239   -4.7217 C   0  0  0  0  0  0  0  0  0  0  0  0
   13.4600    1.7342   -6.0581 C   0  0  0  0  0  0  0  0  0  0  0  0
   12.7432    2.1257   -3.7906 C   0  0  0  0  0  0  0  0  0  0  0  0
    5.1446    4.8932   -4.5823 C   0  0  0  0  0  0  0  0  0  0  0  0
    4.8988    4.7150   -3.2244 C   0  0  0  0  0  0  0  0  0  0  0  0
    3.9283    3.7321   -2.9717 C   0  0  0  0  0  0  0  0  0  0  0  0
    3.5477    3.2448   -1.7030 C   0  0  0  0  0  0  0  0  0  0  0  0
    3.9964    3.8858   -0.4481 C   0  0  0  0  0  0  0  0  0  0  0  0
    4.5272    3.2403    0.6666 C   0  0  0  0  0  0  0  0  0  0  0  0
    4.7323    4.0954    1.7560 C   0  0  0  0  0  0  0  0  0  0  0  0
    4.3691    5.4124    1.4995 C   0  0  0  0  0  0  0  0  0  0  0  0
    4.4340    6.5453    2.4769 C   0  0  0  0  0  0  0  0  0  0  0  0
    3.0325    7.0169    2.8586 C   0  0  0  0  0  0  0  0  0  0  0  0
    3.7846    5.5149   -0.0756 S   0  0  0  0  0  0  0  0  0  0  0  0
    2.7052    2.1190   -1.6904 C   0  0  0  0  0  0  0  0  0  0  0  0
    2.1994    1.5354   -2.8568 C   0  0  0  0  0  0  0  0  0  0  0  0
    2.5283    2.0633   -4.1206 C   0  0  0  0  0  0  0  0  0  0  0  0
    2.0041    1.4690   -5.3657 C   0  0  0  0  0  0  0  0  0  0  0  0
    0.6616    1.2509   -5.6564 C   0  0  0  0  0  0  0  0  0  0  0  0
    0.4591    0.5743   -6.8627 C   0  0  0  0  0  0  0  0  0  0  0  0
    1.6423    0.2705   -7.5264 C   0  0  0  0  0  0  0  0  0  0  0  0
    1.7583   -0.5476   -8.7739 C   0  0  0  0  0  0  0  0  0  0  0  0
    1.9518   -2.0204   -8.4308 C   0  0  0  0  0  0  0  0  0  0  0  0
    2.9384    0.8167   -6.6031 S   0  0  0  0  0  0  0  0  0  0  0  0
    3.4250    3.1443   -4.1399 C   0  0  0  0  0  0  0  0  0  0  0  0
    4.1671    3.8511   -5.4750 S   0  0  0  0  0  0  0  0  0  0  0  0
    1.4528    0.3701   -2.6150 C   0  0  0  0  0  0  0  0  0  0  0  0
    1.3854    0.0328   -1.2636 C   0  0  0  0  0  0  0  0  0  0  0  0
    2.2161    1.1977   -0.3731 S   0  0  0  0  0  0  0  0  0  0  0  0
    0.7875   -1.2100   -0.7414 C   0  0  0  0  0  0  0  0  0  0  0  0
    1.1277   -1.8894    0.4496 C   0  0  0  0  0  0  0  0  0  0  0  0
    2.0666   -1.4031    1.4719 C   0  0  0  0  0  0  0  0  0  0  0  0
    1.6526   -0.4430    2.4054 C   0  0  0  0  0  0  0  0  0  0  0  0
    2.5630    0.0754    3.3278 C   0  0  0  0  0  0  0  0  0  0  0  0
    3.8837   -0.3762    3.3378 C   0  0  0  0  0  0  0  0  0  0  0  0
    4.2997   -1.3670    2.4344 C   0  0  0  0  0  0  0  0  0  0  0  0
    5.7294   -1.8442    2.4336 C   0  0  0  0  0  0  0  0  0  0  0  0
    6.5472   -1.1018    1.3815 C   0  0  0  0  0  0  0  0  0  0  0  0
    3.3872   -1.8721    1.4957 C   0  0  0  0  0  0  0  0  0  0  0  0
    0.3978   -3.0693    0.5803 C   0  0  0  0  0  0  0  0  0  0  0  0
    0.1959   -4.1892    1.8598 S   0  0  0  0  0  0  0  0  0  0  0  0
   -1.0609   -4.9570    1.0119 C   0  0  0  0  0  0  0  0  0  0  0  0
   -2.1039   -5.8044    1.2717 C   0  0  0  0  0  0  0  0  0  0  0  0
   -2.3813   -6.6472    2.3474 C   0  0  0  0  0  0  0  0  0  0  0  0
   -3.6335   -7.3312    2.3708 C   0  0  0  0  0  0  0  0  0  0  0  0
   -3.8781   -8.1152    3.4506 N   0  0  0  0  0  0  0  0  0  0  0  0
   -2.4642   -7.8975    4.2867 S   0  0  0  0  0  0  0  0  0  0  0  0
   -1.5426   -6.8527    3.3917 N   0  0  0  0  0  0  0  0  0  0  0  0
   -4.5776   -7.0661    1.3616 C   0  0  0  0  0  0  0  0  0  0  0  0
   -5.9433   -7.1951    1.4275 C   0  0  0  0  0  0  0  0  0  0  0  0
   -6.9654   -7.5241    2.7423 S   0  0  0  0  0  0  0  0  0  0  0  0
   -8.1351   -6.4129    2.2233 C   0  0  0  0  0  0  0  0  0  0  0  0
   -9.1724   -5.7605    2.9161 C   0  0  0  0  0  0  0  0  0  0  0  0
   -9.7750   -6.2412    4.1829 C   0  0  0  0  0  0  0  0  0  0  0  0
   -8.9778   -6.6919    5.2487 C   0  0  0  0  0  0  0  0  0  0  0  0
   -9.5686   -7.1624    6.4203 C   0  0  0  0  0  0  0  0  0  0  0  0
  -10.9588   -7.1848    6.5468 C   0  0  0  0  0  0  0  0  0  0  0  0
  -11.7701   -6.7335    5.4965 C   0  0  0  0  0  0  0  0  0  0  0  0
  -13.2683   -6.7242    5.6458 C   0  0  0  0  0  0  0  0  0  0  0  0
  -13.7385   -5.4285    6.2994 C   0  0  0  0  0  0  0  0  0  0  0  0
  -11.1720   -6.2454    4.3237 C   0  0  0  0  0  0  0  0  0  0  0  0
   -9.5481   -4.5680    2.2586 C   0  0  0  0  0  0  0  0  0  0  0  0
   -8.6095   -4.4028    0.8534 S   0  0  0  0  0  0  0  0  0  0  0  0
   -7.7219   -5.8033    1.0621 C   0  0  0  0  0  0  0  0  0  0  0  0
   -6.4697   -6.2360    0.6029 C   0  0  0  0  0  0  0  0  0  0  0  0
   -5.5038   -5.5544   -0.0765 N   0  0  0  0  0  0  0  0  0  0  0  0
   -4.3264   -6.1207    0.3524 C   0  0  0  0  0  0  0  0  0  0  0  0
   -3.0128   -5.6063    0.2243 C   0  0  0  0  0  0  0  0  0  0  0  0
   -2.4907   -4.7675   -0.7223 N   0  0  0  0  0  0  0  0  0  0  0  0
   -1.3210   -4.3691   -0.1793 C   0  0  0  0  0  0  0  0  0  0  0  0
   -0.4830   -3.3058   -0.4391 C   0  0  0  0  0  0  0  0  0  0  0  0
   -0.4270   -2.0772   -1.5719 S   0  0  0  0  0  0  0  0  0  0  0  0
   -2.8331   -4.6970   -2.1493 C   0  0  0  0  0  0  0  0  0  0  0  0
   -1.7630   -5.3707   -3.0056 C   0  0  0  0  0  0  0  0  0  0  0  0
   -5.6891   -4.2035   -0.6353 C   0  0  0  0  0  0  0  0  0  0  0  0
   -6.4998   -4.2497   -1.9289 C   0  0  0  0  0  0  0  0  0  0  0  0
  -10.1275   -3.3581    2.8805 C   0  0  0  0  0  0  0  0  0  0  0  0
   -9.6421   -2.8948    4.1206 C   0  0  0  0  0  0  0  0  0  0  0  0
   -8.8524   -3.6684    4.9027 F   0  0  0  0  0  0  0  0  0  0  0  0
   -9.8051   -1.5584    4.4810 C   0  0  0  0  0  0  0  0  0  0  0  0
  -10.4064   -0.6530    3.5940 C   0  0  0  0  0  0  0  0  0  0  0  0
  -11.0204   -1.1350    2.4293 C   0  0  0  0  0  0  0  0  0  0  0  0
  -11.6364   -0.2826    1.5745 F   0  0  0  0  0  0  0  0  0  0  0  0
  -10.8793   -2.4821    2.0753 C   0  0  0  0  0  0  0  0  0  0  0  0
  -10.2596    0.7979    3.8242 C   0  0  0  0  0  0  0  0  0  0  0  0
   -9.0502    1.3906    3.9550 C   0  0  0  0  0  0  0  0  0  0  0  0
   -7.7696    0.7690    3.5708 C   0  0  0  0  0  0  0  0  0  0  0  0
   -7.6095   -0.3806    3.0783 O   0  0  0  0  0  0  0  0  0  0  0  0
   -6.7097    1.7318    3.7233 C   0  0  0  0  0  0  0  0  0  0  0  0
   -5.3342    1.5140    3.4745 C   0  0  0  0  0  0  0  0  0  0  0  0
   -4.5410    2.6150    3.7184 C   0  0  0  0  0  0  0  0  0  0  0  0
   -5.0624    3.8715    4.1639 C   0  0  0  0  0  0  0  0  0  0  0  0
   -6.4122    4.0964    4.3912 C   0  0  0  0  0  0  0  0  0  0  0  0
   -7.2546    2.9637    4.1711 C   0  0  0  0  0  0  0  0  0  0  0  0
   -8.7355    2.8037    4.3646 C   0  0  0  0  0  0  0  0  0  0  0  0
   -9.5807    3.6933    4.9542 C   0  0  0  0  0  0  0  0  0  0  0  0
  -10.9520    3.3838    5.2643 C   0  0  0  0  0  0  0  0  0  0  0  0
  -12.0575    3.1499    5.5134 N   0  0  0  0  0  0  0  0  0  0  0  0
   -9.1734    5.0087    5.3670 C   0  0  0  0  0  0  0  0  0  0  0  0
   -8.8683    6.0737    5.7041 N   0  0  0  0  0  0  0  0  0  0  0  0
   -3.6795    4.4559    4.1870 C   0  0  0  0  0  0  0  0  0  0  0  0
   -3.2778    5.4408    3.0450 C   0  0  0  0  0  0  0  0  0  0  0  0
   -4.0212    5.0898    1.7750 C   0  0  0  0  0  0  0  0  0  0  0  0
   -3.5336    3.9192    1.3604 C   0  0  0  0  0  0  0  0  0  0  0  0
   -2.4779    3.5121    2.3625 C   0  0  0  0  0  0  0  0  0  0  0  0
   -1.9132    4.8834    2.6874 C   0  0  0  0  0  0  0  0  0  0  0  0
   -3.1450    3.1669    3.7290 C   0  0  0  0  0  0  0  0  0  0  0  0
    6.1753    6.6482   -5.3424 H   0  0  0  0  0  0  0  0  0  0  0  0
    9.5808    1.5696   -3.7748 H   0  0  0  0  0  0  0  0  0  0  0  0
   11.7861    5.8403   -5.4919 H   0  0  0  0  0  0  0  0  0  0  0  0
   13.8765    3.9630   -3.4993 H   0  0  0  0  0  0  0  0  0  0  0  0
   14.6134    3.6515   -6.1584 H   0  0  0  0  0  0  0  0  0  0  0  0
   16.4288    2.2732   -4.7912 H   0  0  0  0  0  0  0  0  0  0  0  0
   15.3081    0.0818   -3.9255 H   0  0  0  0  0  0  0  0  0  0  0  0
   12.7777    0.0586   -4.7335 H   0  0  0  0  0  0  0  0  0  0  0  0
   12.4917    2.0511   -6.5009 H   0  0  0  0  0  0  0  0  0  0  0  0
   14.0263    1.1415   -6.8205 H   0  0  0  0  0  0  0  0  0  0  0  0
   12.8616    1.9500   -2.6987 H   0  0  0  0  0  0  0  0  0  0  0  0
    5.4765    5.2108   -2.4542 H   0  0  0  0  0  0  0  0  0  0  0  0
    4.7464    2.1807    0.7007 H   0  0  0  0  0  0  0  0  0  0  0  0
    5.1247    3.7576    2.7053 H   0  0  0  0  0  0  0  0  0  0  0  0
    4.9702    6.2216    3.3979 H   0  0  0  0  0  0  0  0  0  0  0  0
    4.9975    7.3887    2.0230 H   0  0  0  0  0  0  0  0  0  0  0  0
    2.4140    6.1613    3.2071 H   0  0  0  0  0  0  0  0  0  0  0  0
    3.0990    7.7602    3.6762 H   0  0  0  0  0  0  0  0  0  0  0  0
    2.5360    7.4918    1.9840 H   0  0  0  0  0  0  0  0  0  0  0  0
   -0.1492    1.5519   -5.0018 H   0  0  0  0  0  0  0  0  0  0  0  0
   -0.5200    0.2980   -7.2292 H   0  0  0  0  0  0  0  0  0  0  0  0
    0.8382   -0.4295   -9.3871 H   0  0  0  0  0  0  0  0  0  0  0  0
    2.6236   -0.1873   -9.3703 H   0  0  0  0  0  0  0  0  0  0  0  0
    2.8797   -2.1586   -7.8327 H   0  0  0  0  0  0  0  0  0  0  0  0
    2.0410   -2.6107   -9.3652 H   0  0  0  0  0  0  0  0  0  0  0  0
    1.0842   -2.3998   -7.8496 H   0  0  0  0  0  0  0  0  0  0  0  0
    1.0357   -0.2519   -3.3942 H   0  0  0  0  0  0  0  0  0  0  0  0
    0.6334   -0.0720    2.3932 H   0  0  0  0  0  0  0  0  0  0  0  0
    2.2459    0.8377    4.0281 H   0  0  0  0  0  0  0  0  0  0  0  0
    4.5812    0.0444    4.0503 H   0  0  0  0  0  0  0  0  0  0  0  0
    5.7634   -2.9357    2.2243 H   0  0  0  0  0  0  0  0  0  0  0  0
    6.1907   -1.6846    3.4332 H   0  0  0  0  0  0  0  0  0  0  0  0
    7.6017   -1.4483    1.4188 H   0  0  0  0  0  0  0  0  0  0  0  0
    6.1447   -1.3046    0.3660 H   0  0  0  0  0  0  0  0  0  0  0  0
    6.5253   -0.0084    1.5738 H   0  0  0  0  0  0  0  0  0  0  0  0
    3.7066   -2.6132    0.7712 H   0  0  0  0  0  0  0  0  0  0  0  0
   -7.9002   -6.6496    5.1908 H   0  0  0  0  0  0  0  0  0  0  0  0
   -8.9492   -7.5029    7.2397 H   0  0  0  0  0  0  0  0  0  0  0  0
  -11.4031   -7.5464    7.4657 H   0  0  0  0  0  0  0  0  0  0  0  0
  -13.7563   -6.8311    4.6515 H   0  0  0  0  0  0  0  0  0  0  0  0
  -13.5930   -7.5874    6.2649 H   0  0  0  0  0  0  0  0  0  0  0  0
  -14.8420   -5.4453    6.4029 H   0  0  0  0  0  0  0  0  0  0  0  0
  -13.4519   -4.5575    5.6733 H   0  0  0  0  0  0  0  0  0  0  0  0
  -13.2850   -5.3188    7.3094 H   0  0  0  0  0  0  0  0  0  0  0  0
  -11.7970   -5.8854    3.5130 H   0  0  0  0  0  0  0  0  0  0  0  0
   -2.9436   -3.6356   -2.4592 H   0  0  0  0  0  0  0  0  0  0  0  0
   -3.7830   -5.2310   -2.3379 H   0  0  0  0  0  0  0  0  0  0  0  0
   -1.5875   -6.4092   -2.6500 H   0  0  0  0  0  0  0  0  0  0  0  0
   -0.8117   -4.8010   -2.9619 H   0  0  0  0  0  0  0  0  0  0  0  0
   -2.1027   -5.4067   -4.0638 H   0  0  0  0  0  0  0  0  0  0  0  0
   -6.1887   -3.5515    0.1078 H   0  0  0  0  0  0  0  0  0  0  0  0
   -4.7335   -3.6891   -0.8151 H   0  0  0  0  0  0  0  0  0  0  0  0
   -7.4984   -4.7005   -1.7548 H   0  0  0  0  0  0  0  0  0  0  0  0
   -5.9831   -4.8552   -2.6995 H   0  0  0  0  0  0  0  0  0  0  0  0
   -6.6376   -3.2198   -2.3170 H   0  0  0  0  0  0  0  0  0  0  0  0
   -9.3471   -1.1980    5.3927 H   0  0  0  0  0  0  0  0  0  0  0  0
  -11.2548   -2.8142    1.1166 H   0  0  0  0  0  0  0  0  0  0  0  0
  -11.1659    1.3743    3.8315 H   0  0  0  0  0  0  0  0  0  0  0  0
   -4.9353    0.5669    3.1382 H   0  0  0  0  0  0  0  0  0  0  0  0
   -6.7459    5.0681    4.6989 H   0  0  0  0  0  0  0  0  0  0  0  0
   -3.3268    4.7452    5.2022 H   0  0  0  0  0  0  0  0  0  0  0  0
   -3.2975    6.5167    3.3213 H   0  0  0  0  0  0  0  0  0  0  0  0
   -4.7502    5.6961    1.2503 H   0  0  0  0  0  0  0  0  0  0  0  0
   -3.7953    3.4106    0.4392 H   0  0  0  0  0  0  0  0  0  0  0  0
   -1.7408    2.7689    1.9926 H   0  0  0  0  0  0  0  0  0  0  0  0
   -1.4445    5.3895    1.8076 H   0  0  0  0  0  0  0  0  0  0  0  0
   -1.1940    4.8781    3.5413 H   0  0  0  0  0  0  0  0  0  0  0  0
   -2.4723    2.6737    4.4670 H   0  0  0  0  0  0  0  0  0  0  0  0
  1  2  2  3
  2  3  1  0
  3  4  2  0
  3  5  1  0
  5  6  2  0
  6  7  1  0
  7  8  2  0
  8  9  1  0
  9 10  2  0
 10 11  1  0
 11 12  2  3
 12 13  1  0
 13 14  3  0
 12 15  1  0
 15 16  3  0
  8 17  1  0
 17 18  1  0
 18 19  1  0
 19 20  2  0
 20 21  1  0
 21 22  1  0
 21 23  1  0
  1 24  1  0
 24 25  2  0
 25 26  1  0
 26 27  2  0
 27 28  1  0
 28 29  2  0
 29 30  1  0
 30 31  2  0
 31 32  1  0
 32 33  1  0
 31 34  1  0
 27 35  1  0
 35 36  2  0
 36 37  1  0
 37 38  1  0
 38 39  2  0
 39 40  1  0
 40 41  2  0
 41 42  1  0
 42 43  1  0
 41 44  1  0
 37 45  2  0
 45 46  1  0
 36 47  1  0
 47 48  2  0
 48 49  1  0
 48 50  1  0
 50 51  2  0
 51 52  1  0
 52 53  2  0
 53 54  1  0
 54 55  2  0
 55 56  1  0
 56 57  1  0
 57 58  1  0
 56 59  2  0
 51 60  1  0
 60 61  1  0
 61 62  1  0
 62 63  1  0
 63 64  1  0
 64 65  1  0
 65 66  2  0
 66 67  1  0
 67 68  1  0
 65 69  1  0
 69 70  1  0
 70 71  1  0
 71 72  1  0
 72 73  1  0
 73 74  1  0
 74 75  2  0
 75 76  1  0
 76 77  2  0
 77 78  1  0
 78 79  1  0
 79 80  1  0
 78 81  2  0
 73 82  2  0
 82 83  1  0
 83 84  1  0
 84 85  1  0
 85 86  1  0
 86 87  1  0
 87 88  1  0
 88 89  1  0
 89 90  1  0
 90 91  1  0
 91 92  1  0
 89 93  1  0
 93 94  1  0
 86 95  1  0
 95 96  1  0
 82 97  1  0
 97 98  2  0
 98 99  1  0
 98100  1  0
100101  2  0
101102  1  0
102103  1  0
102104  2  0
101105  1  0
105106  2  3
106107  1  0
107108  2  0
107109  1  0
109110  2  0
110111  1  0
111112  2  0
112113  1  0
113114  2  0
114115  1  0
115116  2  3
116117  1  0
117118  3  0
116119  1  0
119120  3  0
112121  1  0
121122  1  0
122123  1  0
123124  2  0
124125  1  0
125126  1  0
125127  1  0
 11  2  1  0
 23 17  1  0
 46 24  1  0
 92 50  1  0
104 97  1  0
115106  1  0
127121  1  0
 10  5  1  0
 22 18  1  0
 45 26  1  0
 59 52  1  0
 91 60  2  0
114109  1  0
126122  1  0
 23  7  1  0
 34 28  1  0
 49 35  1  0
 90 62  2  0
127111  1  0
 44 38  1  0
 88 63  2  0
 68 64  2  0
 87 69  2  0
 85 70  2  0
 84 72  2  0
 81 74  1  0
  1128  1  0
  6129  1  0
  9130  1  0
 17131  1  0
 18132  1  0
 19133  1  0
 20134  1  0
 21135  1  0
 22136  1  0
 22137  1  0
 23138  1  0
 25139  1  0
 29140  1  0
 30141  1  0
 32142  1  0
 32143  1  0
 33144  1  0
 33145  1  0
 33146  1  0
 39147  1  0
 40148  1  0
 42149  1  0
 42150  1  0
 43151  1  0
 43152  1  0
 43153  1  0
 47154  1  0
 53155  1  0
 54156  1  0
 55157  1  0
 57158  1  0
 57159  1  0
 58160  1  0
 58161  1  0
 58162  1  0
 59163  1  0
 75164  1  0
 76165  1  0
 77166  1  0
 79167  1  0
 79168  1  0
 80169  1  0
 80170  1  0
 80171  1  0
 81172  1  0
 93173  1  0
 93174  1  0
 94175  1  0
 94176  1  0
 94177  1  0
 95178  1  0
 95179  1  0
 96180  1  0
 96181  1  0
 96182  1  0
100183  1  0
104184  1  0
105185  1  0
110186  1  0
113187  1  0
121188  1  0
122189  1  0
123190  1  0
124191  1  0
125192  1  0
126193  1  0
126194  1  0
127195  1  0
M  END

