
     RDKit          3D

175198  0  0  0  0  0  0  0  0999 V2000
   -1.3900   10.7424   -2.9121 C   0  0  0  0  0  0  0  0  0  0  0  0
   -0.4386    9.9687   -3.4289 C   0  0  0  0  0  0  0  0  0  0  0  0
   -0.0907    8.6243   -3.0239 C   0  0  0  0  0  0  0  0  0  0  0  0
   -0.3407    7.9736   -1.9769 O   0  0  0  0  0  0  0  0  0  0  0  0
    0.7275    7.9592   -4.0660 C   0  0  0  0  0  0  0  0  0  0  0  0
    1.1796    6.6857   -4.1261 C   0  0  0  0  0  0  0  0  0  0  0  0
    1.8577    6.2153   -5.2614 C   0  0  0  0  0  0  0  0  0  0  0  0
    2.0244    7.1465   -6.2564 C   0  0  0  0  0  0  0  0  0  0  0  0
    1.5763    8.4187   -6.2006 C   0  0  0  0  0  0  0  0  0  0  0  0
    0.8792    8.9014   -5.0671 C   0  0  0  0  0  0  0  0  0  0  0  0
    0.2082   10.1519   -4.7587 C   0  0  0  0  0  0  0  0  0  0  0  0
    0.2727   11.3147   -5.4121 C   0  0  0  0  0  0  0  0  0  0  0  0
   -0.2147   12.4854   -4.9416 C   0  0  0  0  0  0  0  0  0  0  0  0
   -0.6623   13.6062   -4.4784 N   0  0  0  0  0  0  0  0  0  0  0  0
    0.8340   11.2920   -6.7628 C   0  0  0  0  0  0  0  0  0  0  0  0
    1.3136   11.2889   -7.8858 N   0  0  0  0  0  0  0  0  0  0  0  0
    2.7514    6.0767   -7.0643 C   0  0  0  0  0  0  0  0  0  0  0  0
    4.2196    6.0626   -7.0449 C   0  0  0  0  0  0  0  0  0  0  0  0
    4.6086    4.6983   -7.5740 C   0  0  0  0  0  0  0  0  0  0  0  0
    4.2872    3.7942   -6.6723 C   0  0  0  0  0  0  0  0  0  0  0  0
    3.7240    4.5389   -5.4899 C   0  0  0  0  0  0  0  0  0  0  0  0
    4.5578    5.8115   -5.5792 C   0  0  0  0  0  0  0  0  0  0  0  0
    2.4133    5.0726   -5.9353 C   0  0  0  0  0  0  0  0  0  0  0  0
   -2.2160   10.1968   -1.8248 C   0  0  0  0  0  0  0  0  0  0  0  0
   -2.4014    8.3659   -1.4816 Se  0  0  0  0  0  2  0  0  0  0  0  0
   -3.7174    8.7366    0.0288 C   0  0  0  0  0  0  0  0  0  0  0  0
   -3.7711   10.0715   -0.0155 C   0  0  0  0  0  0  0  0  0  0  0  0
   -4.6050   10.8901    0.7772 C   0  0  0  0  0  0  0  0  0  0  0  0
   -4.6125   12.2098    0.5864 C   0  0  0  0  0  0  0  0  0  0  0  0
   -5.3927   13.3278    1.2301 C   0  0  0  0  0  0  0  0  0  0  0  0
   -5.0304   14.6076    0.4967 C   0  0  0  0  0  0  0  0  0  0  0  0
   -3.4862   12.3950   -0.6713 S   0  0  0  0  0  0  0  0  0  0  0  0
   -3.0416   10.7219   -0.9100 C   0  0  0  0  0  0  0  0  0  0  0  0
   -4.0913    7.4664    0.6819 C   0  0  0  0  0  0  0  0  0  0  0  0
   -4.9564    6.5333    0.3018 C   0  0  0  0  0  0  0  0  0  0  0  0
   -6.0536    6.8286   -0.6527 C   0  0  0  0  0  0  0  0  0  0  0  0
   -5.8312    6.4121   -1.9670 C   0  0  0  0  0  0  0  0  0  0  0  0
   -6.8070    6.6214   -2.9417 C   0  0  0  0  0  0  0  0  0  0  0  0
   -7.9733    7.2475   -2.5608 C   0  0  0  0  0  0  0  0  0  0  0  0
   -8.2185    7.6699   -1.2795 C   0  0  0  0  0  0  0  0  0  0  0  0
   -9.5191    8.2579   -0.9450 C   0  0  0  0  0  0  0  0  0  0  0  0
   -9.6146    9.7403   -1.0687 C   0  0  0  0  0  0  0  0  0  0  0  0
   -7.2143    7.4367   -0.3483 C   0  0  0  0  0  0  0  0  0  0  0  0
   -4.8063    5.2614    0.8275 C   0  0  0  0  0  0  0  0  0  0  0  0
   -5.4052    3.6611    0.4124 S   0  0  0  0  0  0  0  0  0  0  0  0
   -4.3259    2.7688    1.3805 C   0  0  0  0  0  0  0  0  0  0  0  0
   -3.8474    1.4765    1.5693 C   0  0  0  0  0  0  0  0  0  0  0  0
   -4.2375    0.3350    0.8506 C   0  0  0  0  0  0  0  0  0  0  0  0
   -3.4105   -0.7274    0.9301 C   0  0  0  0  0  0  0  0  0  0  0  0
   -3.7920   -1.8161    0.2438 N   0  0  0  0  0  0  0  0  0  0  0  0
   -5.2439   -1.3875   -0.4683 S   0  0  0  0  0  0  0  0  0  0  0  0
   -5.3406    0.1821    0.1147 N   0  0  0  0  0  0  0  0  0  0  0  0
   -2.2704   -0.6194    1.7074 C   0  0  0  0  0  0  0  0  0  0  0  0
   -1.2164   -1.4863    1.8791 C   0  0  0  0  0  0  0  0  0  0  0  0
   -0.5428   -2.9474    1.3065 S   0  0  0  0  0  0  0  0  0  0  0  0
    0.9837   -2.8473    2.1657 C   0  0  0  0  0  0  0  0  0  0  0  0
    2.0719   -3.6677    2.3298 C   0  0  0  0  0  0  0  0  0  0  0  0
    2.3004   -4.7269    1.3011 C   0  0  0  0  0  0  0  0  0  0  0  0
    2.0768   -5.9989    1.4466 C   0  0  0  0  0  0  0  0  0  0  0  0
    2.1900   -6.9221    0.3944 C   0  0  0  0  0  0  0  0  0  0  0  0
    2.5433   -6.4705   -0.8431 C   0  0  0  0  0  0  0  0  0  0  0  0
    2.7925   -5.1148   -1.0643 C   0  0  0  0  0  0  0  0  0  0  0  0
    3.0377   -4.6998   -2.4574 C   0  0  0  0  0  0  0  0  0  0  0  0
    4.4300   -4.9419   -2.9688 C   0  0  0  0  0  0  0  0  0  0  0  0
    2.6706   -4.2552    0.0175 C   0  0  0  0  0  0  0  0  0  0  0  0
    3.0190   -3.2775    3.2492 C   0  0  0  0  0  0  0  0  0  0  0  0
    2.3892   -1.8232    3.7867 S   0  0  0  0  0  0  0  0  0  0  0  0
    0.8999   -1.7344    2.8290 C   0  0  0  0  0  0  0  0  0  0  0  0
   -0.2707   -0.9662    2.6900 C   0  0  0  0  0  0  0  0  0  0  0  0
   -0.7531    0.2939    3.0238 N   0  0  0  0  0  0  0  0  0  0  0  0
   -1.9074    0.4945    2.4467 C   0  0  0  0  0  0  0  0  0  0  0  0
   -2.7438    1.6341    2.3664 C   0  0  0  0  0  0  0  0  0  0  0  0
   -2.5631    2.9386    2.6561 N   0  0  0  0  0  0  0  0  0  0  0  0
   -3.5560    3.6788    2.0140 C   0  0  0  0  0  0  0  0  0  0  0  0
   -3.8547    5.0081    1.6744 C   0  0  0  0  0  0  0  0  0  0  0  0
   -3.0822    6.5919    1.8060 S   0  0  0  0  0  0  0  0  0  0  0  0
   -1.6388    3.6001    3.5126 C   0  0  0  0  0  0  0  0  0  0  0  0
   -2.2478    3.7096    4.9101 C   0  0  0  0  0  0  0  0  0  0  0  0
    0.0187    1.1333    3.9065 C   0  0  0  0  0  0  0  0  0  0  0  0
    1.1076    1.8040    3.0560 C   0  0  0  0  0  0  0  0  0  0  0  0
    4.0711   -4.1989    3.6967 C   0  0  0  0  0  0  0  0  0  0  0  0
    3.9275   -5.2233    5.3761 Se  0  0  0  0  0  2  0  0  0  0  0  0
    5.1502   -6.4306    4.9025 C   0  0  0  0  0  0  0  0  0  0  0  0
    5.5901   -5.9885    3.5786 C   0  0  0  0  0  0  0  0  0  0  0  0
    6.4844   -6.6383    2.7536 C   0  0  0  0  0  0  0  0  0  0  0  0
    6.6941   -6.1272    1.5076 C   0  0  0  0  0  0  0  0  0  0  0  0
    7.5070   -6.7840    0.3878 C   0  0  0  0  0  0  0  0  0  0  0  0
    6.3912   -7.5999   -0.3116 C   0  0  0  0  0  0  0  0  0  0  0  0
    5.6900   -4.7724    1.4905 S   0  0  0  0  0  0  0  0  0  0  0  0
    5.0087   -4.9177    3.1079 C   0  0  0  0  0  0  0  0  0  0  0  0
    5.4156   -7.8292    5.3694 C   0  0  0  0  0  0  0  0  0  0  0  0
    4.3297   -8.6196    5.0298 C   0  0  0  0  0  0  0  0  0  0  0  0
    3.1248   -8.1730    4.3912 C   0  0  0  0  0  0  0  0  0  0  0  0
    2.6673   -6.9981    4.4933 O   0  0  0  0  0  0  0  0  0  0  0  0
    2.4961   -9.2301    3.6374 C   0  0  0  0  0  0  0  0  0  0  0  0
    1.3045   -9.2074    2.9475 C   0  0  0  0  0  0  0  0  0  0  0  0
    0.8602  -10.3717    2.3583 C   0  0  0  0  0  0  0  0  0  0  0  0
    1.5768  -11.4857    2.4577 C   0  0  0  0  0  0  0  0  0  0  0  0
    2.8097  -11.5250    3.1677 C   0  0  0  0  0  0  0  0  0  0  0  0
    3.2513  -10.3612    3.7619 C   0  0  0  0  0  0  0  0  0  0  0  0
    4.4534  -10.0234    4.6722 C   0  0  0  0  0  0  0  0  0  0  0  0
    5.0550  -11.0453    5.2257 C   0  0  0  0  0  0  0  0  0  0  0  0
    5.7650  -10.8626    6.5729 C   0  0  0  0  0  0  0  0  0  0  0  0
    6.2766  -10.7187    7.5187 N   0  0  0  0  0  0  0  0  0  0  0  0
    5.1784  -12.1982    4.6857 C   0  0  0  0  0  0  0  0  0  0  0  0
    5.3434  -13.5028    4.0746 N   0  0  0  0  0  0  0  0  0  0  0  0
    0.6201  -12.3081    1.6212 C   0  0  0  0  0  0  0  0  0  0  0  0
   -0.1747  -13.3129    2.3685 C   0  0  0  0  0  0  0  0  0  0  0  0
   -0.0478  -12.9032    3.8211 C   0  0  0  0  0  0  0  0  0  0  0  0
   -0.6268  -11.7137    3.9135 C   0  0  0  0  0  0  0  0  0  0  0  0
   -1.3541  -11.4363    2.6419 C   0  0  0  0  0  0  0  0  0  0  0  0
   -1.6073  -12.8602    2.1747 C   0  0  0  0  0  0  0  0  0  0  0  0
   -0.2574  -11.0656    1.6249 C   0  0  0  0  0  0  0  0  0  0  0  0
   -1.6432   11.7201   -3.2139 H   0  0  0  0  0  0  0  0  0  0  0  0
    1.0364    5.9781   -3.3026 H   0  0  0  0  0  0  0  0  0  0  0  0
    1.7563    9.1059   -6.9989 H   0  0  0  0  0  0  0  0  0  0  0  0
    2.2126    5.8428   -8.0009 H   0  0  0  0  0  0  0  0  0  0  0  0
    4.7520    6.8905   -7.4971 H   0  0  0  0  0  0  0  0  0  0  0  0
    5.0672    4.4973   -8.5259 H   0  0  0  0  0  0  0  0  0  0  0  0
    4.3647    2.7192   -6.7218 H   0  0  0  0  0  0  0  0  0  0  0  0
    3.7811    4.0210   -4.5589 H   0  0  0  0  0  0  0  0  0  0  0  0
    5.6462    5.5799   -5.4496 H   0  0  0  0  0  0  0  0  0  0  0  0
    4.2290    6.6054   -4.9139 H   0  0  0  0  0  0  0  0  0  0  0  0
    1.6641    4.3041   -6.2222 H   0  0  0  0  0  0  0  0  0  0  0  0
   -5.2787   10.4638    1.5710 H   0  0  0  0  0  0  0  0  0  0  0  0
   -5.1632   13.3839    2.2992 H   0  0  0  0  0  0  0  0  0  0  0  0
   -6.4805   13.1698    0.9991 H   0  0  0  0  0  0  0  0  0  0  0  0
   -4.0929   14.5054   -0.0976 H   0  0  0  0  0  0  0  0  0  0  0  0
   -5.8412   14.8795   -0.1808 H   0  0  0  0  0  0  0  0  0  0  0  0
   -4.9033   15.4268    1.2239 H   0  0  0  0  0  0  0  0  0  0  0  0
   -4.9324    5.9178   -2.2797 H   0  0  0  0  0  0  0  0  0  0  0  0
   -6.6756    6.3139   -3.9581 H   0  0  0  0  0  0  0  0  0  0  0  0
   -8.7272    7.4073   -3.3483 H   0  0  0  0  0  0  0  0  0  0  0  0
  -10.3298    7.8264   -1.6104 H   0  0  0  0  0  0  0  0  0  0  0  0
   -9.7416    7.9524    0.1145 H   0  0  0  0  0  0  0  0  0  0  0  0
   -9.0529   10.1471   -1.9399 H   0  0  0  0  0  0  0  0  0  0  0  0
  -10.6743    9.9970   -1.2633 H   0  0  0  0  0  0  0  0  0  0  0  0
   -9.3284   10.2282   -0.1401 H   0  0  0  0  0  0  0  0  0  0  0  0
   -7.3668    7.7794    0.6953 H   0  0  0  0  0  0  0  0  0  0  0  0
    1.7678   -6.4009    2.3852 H   0  0  0  0  0  0  0  0  0  0  0  0
    2.0085   -7.9503    0.5413 H   0  0  0  0  0  0  0  0  0  0  0  0
    2.6419   -7.1688   -1.7075 H   0  0  0  0  0  0  0  0  0  0  0  0
    2.3166   -5.2283   -3.1262 H   0  0  0  0  0  0  0  0  0  0  0  0
    2.8695   -3.5838   -2.5421 H   0  0  0  0  0  0  0  0  0  0  0  0
    4.6715   -4.1663   -3.7242 H   0  0  0  0  0  0  0  0  0  0  0  0
    4.4662   -5.9605   -3.4828 H   0  0  0  0  0  0  0  0  0  0  0  0
    5.1926   -4.9045   -2.1864 H   0  0  0  0  0  0  0  0  0  0  0  0
    2.8674   -3.2101   -0.1178 H   0  0  0  0  0  0  0  0  0  0  0  0
   -1.6594    4.7555    3.2273 H   0  0  0  0  0  0  0  0  0  0  0  0
   -0.5876    3.5212    3.4341 H   0  0  0  0  0  0  0  0  0  0  0  0
   -2.6391    4.7278    5.1299 H   0  0  0  0  0  0  0  0  0  0  0  0
   -1.4954    3.4819    5.6796 H   0  0  0  0  0  0  0  0  0  0  0  0
   -3.1607    3.0663    4.9757 H   0  0  0  0  0  0  0  0  0  0  0  0
   -0.4997    1.6492    4.6425 H   0  0  0  0  0  0  0  0  0  0  0  0
    0.6593    0.4213    4.5416 H   0  0  0  0  0  0  0  0  0  0  0  0
    1.9103    1.0714    2.7938 H   0  0  0  0  0  0  0  0  0  0  0  0
    0.6804    2.0905    2.0695 H   0  0  0  0  0  0  0  0  0  0  0  0
    1.5338    2.6117    3.6343 H   0  0  0  0  0  0  0  0  0  0  0  0
    7.0888   -7.5585    2.9930 H   0  0  0  0  0  0  0  0  0  0  0  0
    7.8433   -6.0024   -0.2858 H   0  0  0  0  0  0  0  0  0  0  0  0
    8.2586   -7.4131    0.8373 H   0  0  0  0  0  0  0  0  0  0  0  0
    6.1049   -8.4503    0.3332 H   0  0  0  0  0  0  0  0  0  0  0  0
    5.4739   -6.9353   -0.3214 H   0  0  0  0  0  0  0  0  0  0  0  0
    6.6172   -7.8721   -1.3258 H   0  0  0  0  0  0  0  0  0  0  0  0
    6.2286   -8.1687    5.8516 H   0  0  0  0  0  0  0  0  0  0  0  0
    0.7074   -8.3319    2.8571 H   0  0  0  0  0  0  0  0  0  0  0  0
    3.3274  -12.4395    3.2099 H   0  0  0  0  0  0  0  0  0  0  0  0
    1.0130  -12.5792    0.6300 H   0  0  0  0  0  0  0  0  0  0  0  0
    0.0346  -14.3650    2.1880 H   0  0  0  0  0  0  0  0  0  0  0  0
    0.4485  -13.5022    4.5636 H   0  0  0  0  0  0  0  0  0  0  0  0
   -0.5862  -11.0497    4.7656 H   0  0  0  0  0  0  0  0  0  0  0  0
   -2.1911  -10.7898    2.6710 H   0  0  0  0  0  0  0  0  0  0  0  0
   -2.3034  -13.3725    2.8967 H   0  0  0  0  0  0  0  0  0  0  0  0
   -1.9636  -12.9077    1.1490 H   0  0  0  0  0  0  0  0  0  0  0  0
   -0.5401  -10.6198    0.7099 H   0  0  0  0  0  0  0  0  0  0  0  0
  1  2  2  3
  2  3  1  0
  3  4  2  0
  3  5  1  0
  5  6  2  0
  6  7  1  0
  7  8  2  0
  8  9  1  0
  9 10  2  0
 10 11  1  0
 11 12  2  3
 12 13  1  0
 13 14  3  0
 12 15  1  0
 15 16  3  0
  8 17  1  0
 17 18  1  0
 18 19  1  0
 19 20  2  0
 20 21  1  0
 21 22  1  0
 21 23  1  0
  1 24  1  0
 24 25  1  0
 25 26  1  0
 26 27  2  0
 27 28  1  0
 28 29  2  0
 29 30  1  0
 30 31  1  0
 29 32  1  0
 32 33  1  0
 26 34  1  0
 34 35  2  0
 35 36  1  0
 36 37  2  0
 37 38  1  0
 38 39  2  0
 39 40  1  0
 40 41  1  0
 41 42  1  0
 40 43  2  0
 35 44  1  0
 44 45  1  0
 45 46  1  0
 46 47  1  0
 47 48  1  0
 48 49  1  0
 49 50  2  0
 50 51  1  0
 51 52  1  0
 49 53  1  0
 53 54  1  0
 54 55  1  0
 55 56  1  0
 56 57  1  0
 57 58  1  0
 58 59  2  0
 59 60  1  0
 60 61  2  0
 61 62  1  0
 62 63  1  0
 63 64  1  0
 62 65  2  0
 57 66  2  0
 66 67  1  0
 67 68  1  0
 68 69  1  0
 69 70  1  0
 70 71  1  0
 71 72  1  0
 72 73  1  0
 73 74  1  0
 74 75  1  0
 75 76  1  0
 73 77  1  0
 77 78  1  0
 70 79  1  0
 79 80  1  0
 66 81  1  0
 81 82  1  0
 82 83  1  0
 83 84  2  0
 84 85  1  0
 85 86  2  0
 86 87  1  0
 87 88  1  0
 86 89  1  0
 89 90  1  0
 83 91  1  0
 91 92  2  3
 92 93  1  0
 93 94  2  0
 93 95  1  0
 95 96  2  0
 96 97  1  0
 97 98  2  0
 98 99  1  0
 99100  2  0
100101  1  0
101102  2  3
102103  1  0
103104  3  0
102105  1  0
105106  3  0
 98107  1  0
107108  1  0
108109  1  0
109110  2  0
110111  1  0
111112  1  0
111113  1  0
 11  2  1  0
 23 17  1  0
 33 24  2  0
 76 34  1  0
 90 81  2  0
101 92  1  0
113107  1  0
 10  5  1  0
 22 18  1  0
 33 27  1  0
 43 36  1  0
 75 44  2  0
 90 84  1  0
100 95  1  0
112108  1  0
 23  7  1  0
 74 46  2  0
113 97  1  0
 72 47  2  0
 52 48  2  0
 71 53  2  0
 69 54  2  0
 68 56  2  0
 65 58  1  0
  1114  1  0
  6115  1  0
  9116  1  0
 17117  1  0
 18118  1  0
 19119  1  0
 20120  1  0
 21121  1  0
 22122  1  0
 22123  1  0
 23124  1  0
 28125  1  0
 30126  1  0
 30127  1  0
 31128  1  0
 31129  1  0
 31130  1  0
 37131  1  0
 38132  1  0
 39133  1  0
 41134  1  0
 41135  1  0
 42136  1  0
 42137  1  0
 42138  1  0
 43139  1  0
 59140  1  0
 60141  1  0
 61142  1  0
 63143  1  0
 63144  1  0
 64145  1  0
 64146  1  0
 64147  1  0
 65148  1  0
 77149  1  0
 77150  1  0
 78151  1  0
 78152  1  0
 78153  1  0
 79154  1  0
 79155  1  0
 80156  1  0
 80157  1  0
 80158  1  0
 85159  1  0
 87160  1  0
 87161  1  0
 88162  1  0
 88163  1  0
 88164  1  0
 91165  1  0
 96166  1  0
 99167  1  0
107168  1  0
108169  1  0
109170  1  0
110171  1  0
111172  1  0
112173  1  0
112174  1  0
113175  1  0
M  END

