
     RDKit          3D

253283  0  0  0  0  0  0  0  0999 V2000
  -12.1938   -6.3052   -2.2793 C   0  0  0  0  0  0  0  0  0  0  0  0
  -11.9682   -5.7364   -3.5612 C   0  0  0  0  0  0  0  0  0  0  0  0
  -11.2927   -4.6560   -3.8467 C   0  0  0  0  0  0  0  0  0  0  0  0
  -11.0025   -3.6557   -3.0408 O   0  0  0  0  0  0  0  0  0  0  0  0
  -10.9024   -4.7205   -5.2169 C   0  0  0  0  0  0  0  0  0  0  0  0
  -10.0998   -3.7905   -5.8998 C   0  0  0  0  0  0  0  0  0  0  0  0
   -9.7629   -4.1154   -7.1748 C   0  0  0  0  0  0  0  0  0  0  0  0
  -10.1683   -5.2539   -7.7347 C   0  0  0  0  0  0  0  0  0  0  0  0
  -10.9986   -6.1591   -6.9927 C   0  0  0  0  0  0  0  0  0  0  0  0
  -11.3354   -5.8243   -5.7412 C   0  0  0  0  0  0  0  0  0  0  0  0
  -12.2756   -6.8639   -4.5919 C   0  0  0  0  0  0  0  0  0  0  0  0
  -12.4886   -7.5780   -5.3384 C   0  0  0  0  0  0  0  0  0  0  0  0
  -12.4909   -9.0998   -4.8633 C   0  0  0  0  0  0  0  0  0  0  0  0
  -12.5009  -10.2294   -4.5269 N   0  0  0  0  0  0  0  0  0  0  0  0
  -13.0360   -7.6798   -6.6919 C   0  0  0  0  0  0  0  0  0  0  0  0
  -13.4870   -7.7471   -7.8225 N   0  0  0  0  0  0  0  0  0  0  0  0
   -9.4107   -5.1003   -8.9830 C   0  0  0  0  0  0  0  0  0  0  0  0
   -8.0348   -5.7478   -8.9339 C   0  0  0  0  0  0  0  0  0  0  0  0
   -7.5989   -5.7072   -7.5159 C   0  0  0  0  0  0  0  0  0  0  0  0
   -7.2458   -4.4576   -7.2142 C   0  0  0  0  0  0  0  0  0  0  0  0
   -7.6286   -3.6128   -8.3934 C   0  0  0  0  0  0  0  0  0  0  0  0
   -7.2055   -4.5725   -9.4951 C   0  0  0  0  0  0  0  0  0  0  0  0
   -9.1112   -3.7157   -8.4658 C   0  0  0  0  0  0  0  0  0  0  0  0
  -11.4557   -5.4585   -1.2764 C   0  0  0  0  0  0  0  0  0  0  0  0
  -10.0459   -5.6001   -1.2809 C   0  0  0  0  0  0  0  0  0  0  0  0
   -9.3235   -4.7231   -0.5836 C   0  0  0  0  0  0  0  0  0  0  0  0
   -7.9232   -4.5714   -0.6323 C   0  0  0  0  0  0  0  0  0  0  0  0
   -7.0784   -5.5918   -1.2338 C   0  0  0  0  0  0  0  0  0  0  0  0
   -5.8099   -5.6589   -1.6567 C   0  0  0  0  0  0  0  0  0  0  0  0
   -5.2620   -6.7827   -2.1219 C   0  0  0  0  0  0  0  0  0  0  0  0
   -5.8896   -7.9435   -2.2151 C   0  0  0  0  0  0  0  0  0  0  0  0
   -5.5983   -9.5840   -2.7591 S   0  0  0  0  0  0  0  0  0  0  0  0
   -6.2098   -9.8178   -4.4293 C   0  0  0  0  0  0  0  0  0  0  0  0
   -5.4487   -9.0787   -5.4772 C   0  0  0  0  0  0  0  0  0  0  0  0
   -7.6598   -7.3929   -1.5071 Se  0  0  0  0  0  2  0  0  0  0  0  0
   -7.3423   -3.4704   -0.0385 C   0  0  0  0  0  0  0  0  0  0  0  0
   -8.0205   -2.4864    0.6225 C   0  0  0  0  0  0  0  0  0  0  0  0
   -9.4189   -2.6636    0.6864 C   0  0  0  0  0  0  0  0  0  0  0  0
  -10.3022   -1.7900    1.4516 C   0  0  0  0  0  0  0  0  0  0  0  0
  -11.6076   -1.8503    1.7376 C   0  0  0  0  0  0  0  0  0  0  0  0
  -12.2157   -0.9338    2.4978 C   0  0  0  0  0  0  0  0  0  0  0  0
  -11.5622    0.1125    3.0277 C   0  0  0  0  0  0  0  0  0  0  0  0
  -11.9762    1.4425    4.1252 S   0  0  0  0  0  0  0  0  0  0  0  0
  -13.6448    1.1483    4.7162 C   0  0  0  0  0  0  0  0  0  0  0  0
  -14.7217    1.3223    3.6970 C   0  0  0  0  0  0  0  0  0  0  0  0
   -9.8183   -0.2046    2.3763 Se  0  0  0  0  0  2  0  0  0  0  0  0
  -10.0089   -3.7516    0.0871 C   0  0  0  0  0  0  0  0  0  0  0  0
  -11.6565   -4.1537   -0.3093 S   0  0  0  0  0  0  0  0  0  0  0  0
   -7.2706   -1.3878    0.9758 C   0  0  0  0  0  0  0  0  0  0  0  0
   -5.9671   -1.3445    0.6718 C   0  0  0  0  0  0  0  0  0  0  0  0
   -5.7389   -2.8698   -0.1234 S   0  0  0  0  0  0  0  0  0  0  0  0
   -5.0022   -0.2252    0.5617 C   0  0  0  0  0  0  0  0  0  0  0  0
   -4.7758    0.9781    1.0373 C   0  0  0  0  0  0  0  0  0  0  0  0
   -5.1247    1.3695    2.4635 C   0  0  0  0  0  0  0  0  0  0  0  0
   -3.9785    1.6570    3.2590 C   0  0  0  0  0  0  0  0  0  0  0  0
   -4.0225    1.9283    4.5975 C   0  0  0  0  0  0  0  0  0  0  0  0
   -5.2615    1.9170    5.2012 C   0  0  0  0  0  0  0  0  0  0  0  0
   -6.3675    1.6384    4.4262 C   0  0  0  0  0  0  0  0  0  0  0  0
   -7.6563    1.5349    5.1759 C   0  0  0  0  0  0  0  0  0  0  0  0
   -7.7774    0.0839    5.6398 C   0  0  0  0  0  0  0  0  0  0  0  0
   -6.2940    1.3743    3.0755 C   0  0  0  0  0  0  0  0  0  0  0  0
   -3.8334    1.7882    0.3748 C   0  0  0  0  0  0  0  0  0  0  0  0
   -3.2602    3.4400    0.4045 S   0  0  0  0  0  0  0  0  0  0  0  0
   -2.1790    3.3707   -0.9413 C   0  0  0  0  0  0  0  0  0  0  0  0
   -1.1537    4.0279   -1.5747 C   0  0  0  0  0  0  0  0  0  0  0  0
   -0.6619    5.3035   -1.4811 C   0  0  0  0  0  0  0  0  0  0  0  0
    0.4337    5.6645   -2.1818 C   0  0  0  0  0  0  0  0  0  0  0  0
    0.8334    6.9209   -2.0791 N   0  0  0  0  0  0  0  0  0  0  0  0
   -0.2616    7.6336   -1.0305 S   0  0  0  0  0  0  0  0  0  0  0  0
   -1.2275    6.3031   -0.7335 N   0  0  0  0  0  0  0  0  0  0  0  0
    1.0343    4.6349   -2.9681 C   0  0  0  0  0  0  0  0  0  0  0  0
    2.4282    4.5899   -3.2681 C   0  0  0  0  0  0  0  0  0  0  0  0
    3.8586    5.4899   -3.1590 S   0  0  0  0  0  0  0  0  0  0  0  0
    4.9892    4.1284   -3.4061 C   0  0  0  0  0  0  0  0  0  0  0  0
    6.2855    3.9802   -3.0064 C   0  0  0  0  0  0  0  0  0  0  0  0
    7.3780    4.9744   -3.0259 C   0  0  0  0  0  0  0  0  0  0  0  0
    7.5332    6.0340   -2.1802 C   0  0  0  0  0  0  0  0  0  0  0  0
    8.6740    6.8444   -2.2869 C   0  0  0  0  0  0  0  0  0  0  0  0
    9.6430    6.6036   -3.2188 C   0  0  0  0  0  0  0  0  0  0  0  0
    9.5176    5.5373   -4.0954 C   0  0  0  0  0  0  0  0  0  0  0  0
   10.5463    5.2101   -5.1425 C   0  0  0  0  0  0  0  0  0  0  0  0
   11.5473    4.2069   -4.6944 C   0  0  0  0  0  0  0  0  0  0  0  0
    8.4027    4.7778   -3.9641 C   0  0  0  0  0  0  0  0  0  0  0  0
    6.6444    2.6559   -2.7385 C   0  0  0  0  0  0  0  0  0  0  0  0
    5.2796    1.7756   -3.1059 S   0  0  0  0  0  0  0  0  0  0  0  0
    4.1926    3.1625   -3.5606 C   0  0  0  0  0  0  0  0  0  0  0  0
    2.7860    3.3081   -3.5183 C   0  0  0  0  0  0  0  0  0  0  0  0
    1.6420    2.5454   -3.4481 N   0  0  0  0  0  0  0  0  0  0  0  0
    0.5944    3.3833   -3.0954 C   0  0  0  0  0  0  0  0  0  0  0  0
   -0.5892    3.0307   -2.4029 C   0  0  0  0  0  0  0  0  0  0  0  0
   -1.2725    1.9042   -2.2899 N   0  0  0  0  0  0  0  0  0  0  0  0
   -2.3020    2.1004   -1.3520 C   0  0  0  0  0  0  0  0  0  0  0  0
   -3.1848    1.3108   -0.6474 C   0  0  0  0  0  0  0  0  0  0  0  0
   -3.8698   -0.2759   -0.7933 S   0  0  0  0  0  0  0  0  0  0  0  0
   -1.1640    0.7472   -3.1169 C   0  0  0  0  0  0  0  0  0  0  0  0
   -2.0140    0.9507   -4.4143 C   0  0  0  0  0  0  0  0  0  0  0  0
    1.6686    1.1681   -3.8066 C   0  0  0  0  0  0  0  0  0  0  0  0
    1.2715    0.9594   -5.2546 C   0  0  0  0  0  0  0  0  0  0  0  0
    7.6549    2.4318   -1.5470 C   0  0  0  0  0  0  0  0  0  0  0  0
    7.4517    1.5816   -0.5301 C   0  0  0  0  0  0  0  0  0  0  0  0
    6.7713    0.3128   -0.6754 N   0  0  0  0  0  0  0  0  0  0  0  0
    7.3803   -0.6883   -1.4639 C   0  0  0  0  0  0  0  0  0  0  0  0
    6.7300   -1.4384   -2.3892 C   0  0  0  0  0  0  0  0  0  0  0  0
    7.3610   -2.4170   -3.1463 C   0  0  0  0  0  0  0  0  0  0  0  0
    8.7340   -2.6378   -2.9509 C   0  0  0  0  0  0  0  0  0  0  0  0
    9.3990   -3.6764   -3.8097 C   0  0  0  0  0  0  0  0  0  0  0  0
    9.3978   -1.8928   -2.0183 C   0  0  0  0  0  0  0  0  0  0  0  0
    8.7303   -0.9352   -1.2932 C   0  0  0  0  0  0  0  0  0  0  0  0
    5.5612    0.0318    0.0152 C   0  0  0  0  0  0  0  0  0  0  0  0
    4.4932    0.8574    0.1636 C   0  0  0  0  0  0  0  0  0  0  0  0
    3.3521    0.5148    0.8449 C   0  0  0  0  0  0  0  0  0  0  0  0
    3.2072   -0.7382    1.4553 C   0  0  0  0  0  0  0  0  0  0  0  0
    1.9939   -1.1428    2.2005 C   0  0  0  0  0  0  0  0  0  0  0  0
    4.2823   -1.5686    1.3095 C   0  0  0  0  0  0  0  0  0  0  0  0
    5.4194   -1.2374    0.6302 C   0  0  0  0  0  0  0  0  0  0  0  0
    8.0260    1.9456    0.6945 C   0  0  0  0  0  0  0  0  0  0  0  0
    7.9294    1.4594    2.3694 S   0  0  0  0  0  0  0  0  0  0  0  0
    8.7897    2.7303    3.0970 C   0  0  0  0  0  0  0  0  0  0  0  0
    9.1490    3.5056    2.0024 C   0  0  0  0  0  0  0  0  0  0  0  0
    9.9985    4.6479    2.1998 N   0  0  0  0  0  0  0  0  0  0  0  0
    9.5472    5.9160    2.5995 C   0  0  0  0  0  0  0  0  0  0  0  0
    8.4366    6.5426    2.0605 C   0  0  0  0  0  0  0  0  0  0  0  0
    8.0518    7.7923    2.4954 C   0  0  0  0  0  0  0  0  0  0  0  0
    8.7750    8.4505    3.4839 C   0  0  0  0  0  0  0  0  0  0  0  0
    8.3485    9.8168    3.9382 C   0  0  0  0  0  0  0  0  0  0  0  0
    9.8776    7.8211    4.0165 C   0  0  0  0  0  0  0  0  0  0  0  0
   10.2616    6.6034    3.6044 C   0  0  0  0  0  0  0  0  0  0  0  0
   11.4135    4.4808    1.9858 C   0  0  0  0  0  0  0  0  0  0  0  0
   12.0451    3.3534    2.5093 C   0  0  0  0  0  0  0  0  0  0  0  0
   13.3878    3.1060    2.3532 C   0  0  0  0  0  0  0  0  0  0  0  0
   14.1671    3.9964    1.6467 C   0  0  0  0  0  0  0  0  0  0  0  0
   15.6312    3.7278    1.4774 C   0  0  0  0  0  0  0  0  0  0  0  0
   13.5445    5.1287    1.1173 C   0  0  0  0  0  0  0  0  0  0  0  0
   12.1907    5.3503    1.2932 C   0  0  0  0  0  0  0  0  0  0  0  0
    8.7225    3.0557    0.7749 C   0  0  0  0  0  0  0  0  0  0  0  0
    8.6249    3.6602   -0.8735 S   0  0  0  0  0  0  0  0  0  0  0  0
    9.0343    3.0842    4.5007 C   0  0  0  0  0  0  0  0  0  0  0  0
    8.1355    3.0173    5.4489 C   0  0  0  0  0  0  0  0  0  0  0  0
    8.4402    3.3701    6.8424 C   0  0  0  0  0  0  0  0  0  0  0  0
    9.5113    3.8579    7.2783 O   0  0  0  0  0  0  0  0  0  0  0  0
    7.2847    3.0606    7.6690 C   0  0  0  0  0  0  0  0  0  0  0  0
    7.0283    3.3063    8.9969 C   0  0  0  0  0  0  0  0  0  0  0  0
    5.7905    3.0449    9.5538 C   0  0  0  0  0  0  0  0  0  0  0  0
    4.8186    2.5248    8.7531 C   0  0  0  0  0  0  0  0  0  0  0  0
    5.0608    2.2608    7.3838 C   0  0  0  0  0  0  0  0  0  0  0  0
    6.3020    2.5434    6.8759 C   0  0  0  0  0  0  0  0  0  0  0  0
    6.8174    2.5060    5.3972 C   0  0  0  0  0  0  0  0  0  0  0  0
    5.8031    2.5115    4.5528 C   0  0  0  0  0  0  0  0  0  0  0  0
    5.4236    2.9972    3.4021 C   0  0  0  0  0  0  0  0  0  0  0  0
    5.0614    3.4371    2.3234 N   0  0  0  0  0  0  0  0  0  0  0  0
    5.2108    1.0280    4.7340 C   0  0  0  0  0  0  0  0  0  0  0  0
    4.7742   -0.0196    4.8704 N   0  0  0  0  0  0  0  0  0  0  0  0
    3.7949    2.4782    9.8079 C   0  0  0  0  0  0  0  0  0  0  0  0
    3.5577    1.1523   10.4540 C   0  0  0  0  0  0  0  0  0  0  0  0
    2.9010    1.4002   11.7753 C   0  0  0  0  0  0  0  0  0  0  0  0
    3.8153    2.0033   12.5380 C   0  0  0  0  0  0  0  0  0  0  0  0
    5.0917    2.1191   11.7663 C   0  0  0  0  0  0  0  0  0  0  0  0
    4.9826    0.8118   10.9446 C   0  0  0  0  0  0  0  0  0  0  0  0
    4.8662    3.1195   10.6946 C   0  0  0  0  0  0  0  0  0  0  0  0
  -12.7570   -7.1160   -2.1081 H   0  0  0  0  0  0  0  0  0  0  0  0
   -9.7630   -2.8901   -5.4538 H   0  0  0  0  0  0  0  0  0  0  0  0
  -11.1910   -7.0687   -7.5169 H   0  0  0  0  0  0  0  0  0  0  0  0
   -9.9554   -5.2017   -9.8971 H   0  0  0  0  0  0  0  0  0  0  0  0
   -7.9319   -6.6617   -9.4656 H   0  0  0  0  0  0  0  0  0  0  0  0
   -7.5819   -6.5605   -6.8650 H   0  0  0  0  0  0  0  0  0  0  0  0
   -6.7897   -4.0507   -6.3435 H   0  0  0  0  0  0  0  0  0  0  0  0
   -7.1799   -2.6540   -8.4284 H   0  0  0  0  0  0  0  0  0  0  0  0
   -7.5532   -4.2632  -10.4708 H   0  0  0  0  0  0  0  0  0  0  0  0
   -6.1090   -4.7830   -9.4512 H   0  0  0  0  0  0  0  0  0  0  0  0
   -9.5897   -2.8976   -8.9822 H   0  0  0  0  0  0  0  0  0  0  0  0
   -9.6644   -6.4382   -1.8954 H   0  0  0  0  0  0  0  0  0  0  0  0
   -5.1997   -4.6946   -1.6073 H   0  0  0  0  0  0  0  0  0  0  0  0
   -4.1616   -6.7639   -2.4764 H   0  0  0  0  0  0  0  0  0  0  0  0
   -7.3073   -9.5473   -4.4319 H   0  0  0  0  0  0  0  0  0  0  0  0
   -6.2149  -10.9322   -4.6752 H   0  0  0  0  0  0  0  0  0  0  0  0
   -6.0433   -9.1349   -6.4317 H   0  0  0  0  0  0  0  0  0  0  0  0
   -4.4895   -9.6116   -5.7133 H   0  0  0  0  0  0  0  0  0  0  0  0
   -5.2437   -8.0411   -5.2424 H   0  0  0  0  0  0  0  0  0  0  0  0
  -12.2168   -2.7170    1.3355 H   0  0  0  0  0  0  0  0  0  0  0  0
  -13.3403   -1.0089    2.7338 H   0  0  0  0  0  0  0  0  0  0  0  0
  -13.7155    0.1220    5.1978 H   0  0  0  0  0  0  0  0  0  0  0  0
  -13.8234    1.8644    5.5698 H   0  0  0  0  0  0  0  0  0  0  0  0
  -15.2358    0.3728    3.5685 H   0  0  0  0  0  0  0  0  0  0  0  0
  -15.4685    2.0560    4.1317 H   0  0  0  0  0  0  0  0  0  0  0  0
  -14.3084    1.6877    2.7238 H   0  0  0  0  0  0  0  0  0  0  0  0
   -7.7334   -0.5408    1.5030 H   0  0  0  0  0  0  0  0  0  0  0  0
   -2.9819    1.6720    2.7892 H   0  0  0  0  0  0  0  0  0  0  0  0
   -3.0911    2.1434    5.1452 H   0  0  0  0  0  0  0  0  0  0  0  0
   -5.2956    2.1316    6.2644 H   0  0  0  0  0  0  0  0  0  0  0  0
   -8.4635    1.7413    4.4752 H   0  0  0  0  0  0  0  0  0  0  0  0
   -7.6294    2.1318    6.0981 H   0  0  0  0  0  0  0  0  0  0  0  0
   -7.1310   -0.5874    4.9973 H   0  0  0  0  0  0  0  0  0  0  0  0
   -7.4717   -0.0688    6.6767 H   0  0  0  0  0  0  0  0  0  0  0  0
   -8.8093   -0.2841    5.5275 H   0  0  0  0  0  0  0  0  0  0  0  0
   -7.1907    1.2197    2.4946 H   0  0  0  0  0  0  0  0  0  0  0  0
    6.7948    6.2497   -1.4428 H   0  0  0  0  0  0  0  0  0  0  0  0
    8.7387    7.6518   -1.5975 H   0  0  0  0  0  0  0  0  0  0  0  0
   10.5212    7.2368   -3.2869 H   0  0  0  0  0  0  0  0  0  0  0  0
   10.0505    4.8958   -6.1035 H   0  0  0  0  0  0  0  0  0  0  0  0
   11.0855    6.1406   -5.4038 H   0  0  0  0  0  0  0  0  0  0  0  0
   11.6097    4.0508   -3.6224 H   0  0  0  0  0  0  0  0  0  0  0  0
   11.3985    3.1970   -5.1967 H   0  0  0  0  0  0  0  0  0  0  0  0
   12.5900    4.4789   -5.0512 H   0  0  0  0  0  0  0  0  0  0  0  0
    8.2973    3.9380   -4.6507 H   0  0  0  0  0  0  0  0  0  0  0  0
   -0.3830    0.0697   -3.1800 H   0  0  0  0  0  0  0  0  0  0  0  0
   -1.9345   -0.0104   -2.5879 H   0  0  0  0  0  0  0  0  0  0  0  0
   -1.5719    0.4999   -5.2845 H   0  0  0  0  0  0  0  0  0  0  0  0
   -2.1574    2.0683   -4.4886 H   0  0  0  0  0  0  0  0  0  0  0  0
   -3.0505    0.5784   -4.3008 H   0  0  0  0  0  0  0  0  0  0  0  0
    1.4802    0.4197   -3.0692 H   0  0  0  0  0  0  0  0  0  0  0  0
    2.8283    0.8691   -3.9143 H   0  0  0  0  0  0  0  0  0  0  0  0
    0.6440    1.7942   -5.6177 H   0  0  0  0  0  0  0  0  0  0  0  0
    0.7707   -0.0229   -5.4300 H   0  0  0  0  0  0  0  0  0  0  0  0
    2.1266    0.9299   -5.9713 H   0  0  0  0  0  0  0  0  0  0  0  0
    5.6759   -1.2947   -2.5635 H   0  0  0  0  0  0  0  0  0  0  0  0
    6.8658   -3.0271   -3.8771 H   0  0  0  0  0  0  0  0  0  0  0  0
    9.1165   -4.6844   -3.3502 H   0  0  0  0  0  0  0  0  0  0  0  0
    8.8363   -3.6962   -4.7400 H   0  0  0  0  0  0  0  0  0  0  0  0
   10.4558   -3.4965   -3.7739 H   0  0  0  0  0  0  0  0  0  0  0  0
   10.4314   -2.0302   -1.8257 H   0  0  0  0  0  0  0  0  0  0  0  0
    9.2672   -0.3417   -0.5460 H   0  0  0  0  0  0  0  0  0  0  0  0
    4.5265    1.8404   -0.2683 H   0  0  0  0  0  0  0  0  0  0  0  0
    2.5021    1.1989    0.9473 H   0  0  0  0  0  0  0  0  0  0  0  0
    2.3320   -1.5171    3.2024 H   0  0  0  0  0  0  0  0  0  0  0  0
    1.3607   -0.2131    2.3927 H   0  0  0  0  0  0  0  0  0  0  0  0
    1.3757   -1.8495    1.6569 H   0  0  0  0  0  0  0  0  0  0  0  0
    4.1934   -2.5509    1.7753 H   0  0  0  0  0  0  0  0  0  0  0  0
    6.2580   -1.8845    0.5219 H   0  0  0  0  0  0  0  0  0  0  0  0
    7.8735    6.0341    1.2802 H   0  0  0  0  0  0  0  0  0  0  0  0
    7.1655    8.2357    2.0301 H   0  0  0  0  0  0  0  0  0  0  0  0
    8.6399   10.5219    3.1593 H   0  0  0  0  0  0  0  0  0  0  0  0
    8.8105   10.0606    4.9409 H   0  0  0  0  0  0  0  0  0  0  0  0
    7.2502    9.8248    4.0488 H   0  0  0  0  0  0  0  0  0  0  0  0
   10.3975    8.3793    4.7926 H   0  0  0  0  0  0  0  0  0  0  0  0
   11.1441    6.1349    4.0446 H   0  0  0  0  0  0  0  0  0  0  0  0
   11.5082    2.5884    3.0824 H   0  0  0  0  0  0  0  0  0  0  0  0
   13.8691    2.2068    2.7713 H   0  0  0  0  0  0  0  0  0  0  0  0
   15.9733    4.0482    0.4752 H   0  0  0  0  0  0  0  0  0  0  0  0
   16.1980    4.0786    2.3155 H   0  0  0  0  0  0  0  0  0  0  0  0
   15.7131    2.5805    1.4684 H   0  0  0  0  0  0  0  0  0  0  0  0
   14.1893    5.8219    0.5695 H   0  0  0  0  0  0  0  0  0  0  0  0
   11.7230    6.2248    0.8878 H   0  0  0  0  0  0  0  0  0  0  0  0
   10.0213    3.4212    4.7379 H   0  0  0  0  0  0  0  0  0  0  0  0
    7.7821    3.7062    9.6561 H   0  0  0  0  0  0  0  0  0  0  0  0
    4.2412    1.8523    6.7965 H   0  0  0  0  0  0  0  0  0  0  0  0
    2.9047    3.1296    9.6725 H   0  0  0  0  0  0  0  0  0  0  0  0
    3.0949    0.4043    9.8457 H   0  0  0  0  0  0  0  0  0  0  0  0
    1.9047    1.1412   12.0332 H   0  0  0  0  0  0  0  0  0  0  0  0
    3.6678    2.3581   13.5484 H   0  0  0  0  0  0  0  0  0  0  0  0
    5.9609    2.1802   12.3637 H   0  0  0  0  0  0  0  0  0  0  0  0
    4.9562   -0.0348   11.6205 H   0  0  0  0  0  0  0  0  0  0  0  0
    5.7101    0.7890   10.1304 H   0  0  0  0  0  0  0  0  0  0  0  0
    4.5976    4.1544   11.0255 H   0  0  0  0  0  0  0  0  0  0  0  0
  1  2  2  3
  2  3  1  0
  3  4  2  0
  3  5  1  0
  5  6  2  0
  6  7  1  0
  7  8  2  0
  8  9  1  0
  9 10  2  0
 10 11  1  0
 11 12  2  3
 12 13  1  0
 13 14  3  0
 12 15  1  0
 15 16  3  0
  8 17  1  0
 17 18  1  0
 18 19  1  0
 19 20  2  0
 20 21  1  0
 21 22  1  0
 21 23  1  0
  1 24  1  0
 24 25  2  0
 25 26  1  0
 26 27  2  0
 27 28  1  0
 28 29  2  0
 29 30  1  0
 30 31  2  0
 31 32  1  0
 32 33  1  0
 33 34  1  0
 31 35  1  0
 27 36  1  0
 36 37  2  0
 37 38  1  0
 38 39  1  0
 39 40  2  0
 40 41  1  0
 41 42  2  0
 42 43  1  0
 43 44  1  0
 44 45  1  0
 42 46  1  0
 38 47  2  0
 47 48  1  0
 37 49  1  0
 49 50  2  0
 50 51  1  0
 50 52  1  0
 52 53  2  0
 53 54  1  0
 54 55  2  0
 55 56  1  0
 56 57  2  0
 57 58  1  0
 58 59  1  0
 59 60  1  0
 58 61  2  0
 53 62  1  0
 62 63  1  0
 63 64  1  0
 64 65  1  0
 65 66  1  0
 66 67  1  0
 67 68  2  0
 68 69  1  0
 69 70  1  0
 67 71  1  0
 71 72  1  0
 72 73  1  0
 73 74  1  0
 74 75  1  0
 75 76  1  0
 76 77  2  0
 77 78  1  0
 78 79  2  0
 79 80  1  0
 80 81  1  0
 81 82  1  0
 80 83  2  0
 75 84  2  0
 84 85  1  0
 85 86  1  0
 86 87  1  0
 87 88  1  0
 88 89  1  0
 89 90  1  0
 90 91  1  0
 91 92  1  0
 92 93  1  0
 93 94  1  0
 91 95  1  0
 95 96  1  0
 88 97  1  0
 97 98  1  0
 84 99  1  0
 99100  2  0
100101  1  0
101102  1  0
102103  2  0
103104  1  0
104105  2  0
105106  1  0
105107  1  0
107108  2  0
101109  1  0
109110  2  0
110111  1  0
111112  2  0
112113  1  0
112114  1  0
114115  2  0
100116  1  0
116117  1  0
117118  1  0
118119  2  0
119120  1  0
120121  1  0
121122  2  0
122123  1  0
123124  2  0
124125  1  0
124126  1  0
126127  2  0
120128  1  0
128129  2  0
129130  1  0
130131  2  0
131132  1  0
131133  1  0
133134  2  0
119135  1  0
135136  1  0
118137  1  0
137138  2  3
138139  1  0
139140  2  0
139141  1  0
141142  2  0
142143  1  0
143144  2  0
144145  1  0
145146  2  0
146147  1  0
147148  2  3
148149  1  0
149150  3  0
148151  1  0
151152  3  0
144153  1  0
153154  1  0
154155  1  0
155156  2  0
156157  1  0
157158  1  0
157159  1  0
 11  2  1  0
 23 17  1  0
 48 24  1  0
 94 52  1  0
136 99  1  0
147138  1  0
159153  1  0
 10  5  1  0
 22 18  1  0
 47 26  1  0
 61 54  1  0
 93 62  2  0
108102  1  0
115109  1  0
135116  2  0
146141  1  0
158154  1  0
 23  7  1  0
 35 28  1  0
 51 36  1  0
 92 64  2  0
127121  1  0
134128  1  0
159143  1  0
 46 39  1  0
 90 65  2  0
 70 66  2  0
 89 71  2  0
 87 72  2  0
 86 74  2  0
 83 76  1  0
  1160  1  0
  6161  1  0
  9162  1  0
 17163  1  0
 18164  1  0
 19165  1  0
 20166  1  0
 21167  1  0
 22168  1  0
 22169  1  0
 23170  1  0
 25171  1  0
 29172  1  0
 30173  1  0
 33174  1  0
 33175  1  0
 34176  1  0
 34177  1  0
 34178  1  0
 40179  1  0
 41180  1  0
 44181  1  0
 44182  1  0
 45183  1  0
 45184  1  0
 45185  1  0
 49186  1  0
 55187  1  0
 56188  1  0
 57189  1  0
 59190  1  0
 59191  1  0
 60192  1  0
 60193  1  0
 60194  1  0
 61195  1  0
 77196  1  0
 78197  1  0
 79198  1  0
 81199  1  0
 81200  1  0
 82201  1  0
 82202  1  0
 82203  1  0
 83204  1  0
 95205  1  0
 95206  1  0
 96207  1  0
 96208  1  0
 96209  1  0
 97210  1  0
 97211  1  0
 98212  1  0
 98213  1  0
 98214  1  0
103215  1  0
104216  1  0
106217  1  0
106218  1  0
106219  1  0
107220  1  0
108221  1  0
110222  1  0
111223  1  0
113224  1  0
113225  1  0
113226  1  0
114227  1  0
115228  1  0
122229  1  0
123230  1  0
125231  1  0
125232  1  0
125233  1  0
126234  1  0
127235  1  0
129236  1  0
130237  1  0
132238  1  0
132239  1  0
132240  1  0
133241  1  0
134242  1  0
137243  1  0
142244  1  0
145245  1  0
153246  1  0
154247  1  0
155248  1  0
156249  1  0
157250  1  0
158251  1  0
158252  1  0
159253  1  0
M  END

