
     RDKit          3D

180204  0  0  0  0  0  0  0  0999 V2000
    6.1903   -5.8511    1.7778 C   0  0  0  0  0  0  0  0  0  0  0  0
    5.8496   -5.4503    0.5322 C   0  0  0  0  0  0  0  0  0  0  0  0
    4.9382   -4.3353    0.2242 C   0  0  0  0  0  0  0  0  0  0  0  0
    4.1681   -3.7468    1.0313 O   0  0  0  0  0  0  0  0  0  0  0  0
    5.0296   -4.0289   -1.1772 C   0  0  0  0  0  0  0  0  0  0  0  0
    4.3534   -2.9856   -1.8515 C   0  0  0  0  0  0  0  0  0  0  0  0
    4.6152   -2.9357   -3.2038 C   0  0  0  0  0  0  0  0  0  0  0  0
    5.4974   -3.8474   -3.8682 C   0  0  0  0  0  0  0  0  0  0  0  0
    6.1829   -4.8586   -3.2066 C   0  0  0  0  0  0  0  0  0  0  0  0
    5.9119   -4.9447   -1.8070 C   0  0  0  0  0  0  0  0  0  0  0  0
    6.4026   -5.9251   -0.7815 C   0  0  0  0  0  0  0  0  0  0  0  0
    7.0151   -7.1143   -1.0212 C   0  0  0  0  0  0  0  0  0  0  0  0
    7.1630   -8.1284   -0.0066 C   0  0  0  0  0  0  0  0  0  0  0  0
    7.2798   -8.9495    0.7999 N   0  0  0  0  0  0  0  0  0  0  0  0
    7.4838   -7.5040   -2.3254 C   0  0  0  0  0  0  0  0  0  0  0  0
    7.8663   -7.8392   -3.3657 N   0  0  0  0  0  0  0  0  0  0  0  0
    5.1968   -3.1942   -5.1869 C   0  0  0  0  0  0  0  0  0  0  0  0
    4.2424   -3.9655   -6.1459 C   0  0  0  0  0  0  0  0  0  0  0  0
    3.7869   -2.9581   -7.1786 C   0  0  0  0  0  0  0  0  0  0  0  0
    2.9702   -2.1069   -6.5467 C   0  0  0  0  0  0  0  0  0  0  0  0
    2.9039   -2.5669   -5.1090 C   0  0  0  0  0  0  0  0  0  0  0  0
    2.9549   -4.0688   -5.3402 C   0  0  0  0  0  0  0  0  0  0  0  0
    4.3030   -2.2571   -4.4999 C   0  0  0  0  0  0  0  0  0  0  0  0
    5.5639   -5.2499    2.9716 C   0  0  0  0  0  0  0  0  0  0  0  0
    4.4104   -5.8334    3.5418 C   0  0  0  0  0  0  0  0  0  0  0  0
    4.0293   -7.1350    3.1900 O   0  0  0  0  0  0  0  0  0  0  0  0
    3.3060   -7.4434    1.9947 C   0  0  0  0  0  0  0  0  0  0  0  0
    1.9531   -6.7383    1.9608 C   0  0  0  0  0  0  0  0  0  0  0  0
    3.5940   -5.0798    4.4195 C   0  0  0  0  0  0  0  0  0  0  0  0
    2.4423   -5.6265    5.0025 O   0  0  0  0  0  0  0  0  0  0  0  0
    2.4485   -6.8371    5.7582 C   0  0  0  0  0  0  0  0  0  0  0  0
    1.1212   -6.9786    6.4812 C   0  0  0  0  0  0  0  0  0  0  0  0
    3.8693   -3.7220    4.6489 C   0  0  0  0  0  0  0  0  0  0  0  0
    5.0809   -3.1873    4.1934 C   0  0  0  0  0  0  0  0  0  0  0  0
    5.9406   -3.9617    3.3691 C   0  0  0  0  0  0  0  0  0  0  0  0
    7.0375   -3.3316    2.8725 N   0  0  0  0  0  0  0  0  0  0  0  0
    6.8380   -1.8247    3.5174 S   0  0  0  0  0  0  0  0  0  0  0  0
    5.4320   -1.8888    4.3820 N   0  0  0  0  0  0  0  0  0  0  0  0
    2.7520   -2.7964    4.8921 C   0  0  0  0  0  0  0  0  0  0  0  0
    2.6970   -1.8270    5.9123 C   0  0  0  0  0  0  0  0  0  0  0  0
    3.4411   -1.9168    7.1761 C   0  0  0  0  0  0  0  0  0  0  0  0
    4.4741   -1.0147    7.4591 C   0  0  0  0  0  0  0  0  0  0  0  0
    5.1847   -1.1221    8.6559 C   0  0  0  0  0  0  0  0  0  0  0  0
    4.8560   -2.1166    9.5852 C   0  0  0  0  0  0  0  0  0  0  0  0
    3.8089   -3.0152    9.3184 C   0  0  0  0  0  0  0  0  0  0  0  0
    3.4261   -4.0701   10.3246 C   0  0  0  0  0  0  0  0  0  0  0  0
    3.8288   -5.4622    9.8478 C   0  0  0  0  0  0  0  0  0  0  0  0
    3.1109   -2.9171    8.1043 C   0  0  0  0  0  0  0  0  0  0  0  0
    1.9241   -0.7266    5.5243 C   0  0  0  0  0  0  0  0  0  0  0  0
    1.7434    0.8532    6.1430 S   0  0  0  0  0  0  0  0  0  0  0  0
    0.9492    1.3657    4.7259 C   0  0  0  0  0  0  0  0  0  0  0  0
    0.8137    2.5560    4.0597 C   0  0  0  0  0  0  0  0  0  0  0  0
    1.0489    3.8784    4.4555 C   0  0  0  0  0  0  0  0  0  0  0  0
    1.0354    4.9067    3.4633 C   0  0  0  0  0  0  0  0  0  0  0  0
    1.2601    6.1727    3.8890 N   0  0  0  0  0  0  0  0  0  0  0  0
    1.4720    5.8914    5.5080 S   0  0  0  0  0  0  0  0  0  0  0  0
    1.2975    4.2599    5.7322 N   0  0  0  0  0  0  0  0  0  0  0  0
    0.7827    4.5547    2.1285 C   0  0  0  0  0  0  0  0  0  0  0  0
    0.4885    5.3146    1.0295 C   0  0  0  0  0  0  0  0  0  0  0  0
    0.0608    6.9302    0.7213 S   0  0  0  0  0  0  0  0  0  0  0  0
   -0.7398    6.4945   -0.7253 C   0  0  0  0  0  0  0  0  0  0  0  0
   -1.5226    7.1844   -1.6693 C   0  0  0  0  0  0  0  0  0  0  0  0
   -1.7726    8.6481   -1.6565 C   0  0  0  0  0  0  0  0  0  0  0  0
   -1.7880    9.3770   -2.8605 C   0  0  0  0  0  0  0  0  0  0  0  0
   -1.9861   10.7594   -2.8491 C   0  0  0  0  0  0  0  0  0  0  0  0
   -2.1651   11.4354   -1.6391 C   0  0  0  0  0  0  0  0  0  0  0  0
   -2.1720   10.7234   -0.4309 C   0  0  0  0  0  0  0  0  0  0  0  0
   -2.3229   11.4529    0.8801 C   0  0  0  0  0  0  0  0  0  0  0  0
   -0.9633   11.6774    1.5356 C   0  0  0  0  0  0  0  0  0  0  0  0
   -1.9853    9.3309   -0.4477 C   0  0  0  0  0  0  0  0  0  0  0  0
   -2.0373    6.2804   -2.6272 C   0  0  0  0  0  0  0  0  0  0  0  0
   -1.5635    4.6928   -2.2487 S   0  0  0  0  0  0  0  0  0  0  0  0
   -0.6771    5.1388   -0.9142 C   0  0  0  0  0  0  0  0  0  0  0  0
    0.0145    4.4656    0.0780 C   0  0  0  0  0  0  0  0  0  0  0  0
   -0.0238    3.1728    0.4888 N   0  0  0  0  0  0  0  0  0  0  0  0
    0.5240    3.2310    1.7456 C   0  0  0  0  0  0  0  0  0  0  0  0
    0.6190    2.2100    2.7157 C   0  0  0  0  0  0  0  0  0  0  0  0
    0.7781    0.8648    2.5242 N   0  0  0  0  0  0  0  0  0  0  0  0
    0.8909    0.3782    3.7866 C   0  0  0  0  0  0  0  0  0  0  0  0
    1.4082   -0.8160    4.2595 C   0  0  0  0  0  0  0  0  0  0  0  0
    1.8517   -2.2589    3.5550 S   0  0  0  0  0  0  0  0  0  0  0  0
    1.4102    0.2457    1.3471 C   0  0  0  0  0  0  0  0  0  0  0  0
    2.9413    0.3495    1.4171 C   0  0  0  0  0  0  0  0  0  0  0  0
   -1.0101    2.1877    0.0030 C   0  0  0  0  0  0  0  0  0  0  0  0
   -0.6416    1.6480   -1.3858 C   0  0  0  0  0  0  0  0  0  0  0  0
   -3.0484    6.5261   -3.6685 C   0  0  0  0  0  0  0  0  0  0  0  0
   -4.3413    6.9460   -3.3192 C   0  0  0  0  0  0  0  0  0  0  0  0
   -5.4284    6.7805   -4.2104 C   0  0  0  0  0  0  0  0  0  0  0  0
   -6.7104    7.1090   -3.6592 N   0  0  0  0  0  0  0  0  0  0  0  0
   -6.2882    7.5409   -2.1818 S   0  0  0  0  0  4  0  0  0  0  0  0
   -4.7084    7.4047   -2.0130 N   0  0  0  0  0  0  0  0  0  0  0  0
   -5.2516    6.1913   -5.4699 C   0  0  0  0  0  0  0  0  0  0  0  0
   -3.9441    5.8773   -5.8733 C   0  0  0  0  0  0  0  0  0  0  0  0
   -3.6602    5.3259   -7.0840 N   0  0  0  0  0  0  0  0  0  0  0  0
   -2.0338    5.0848   -6.9309 S   0  0  0  0  0  0  0  0  0  0  0  0
   -1.6325    5.6173   -5.4190 N   0  0  0  0  0  0  0  0  0  0  0  0
   -2.8475    6.0350   -4.9722 C   0  0  0  0  0  0  0  0  0  0  0  0
   -6.4177    5.7081   -6.2284 C   0  0  0  0  0  0  0  0  0  0  0  0
   -6.7834    4.4086   -6.2226 C   0  0  0  0  0  0  0  0  0  0  0  0
   -6.1748    3.3600   -5.3865 C   0  0  0  0  0  0  0  0  0  0  0  0
   -5.0842    3.4344   -4.7581 O   0  0  0  0  0  0  0  0  0  0  0  0
   -7.0716    2.2331   -5.3267 C   0  0  0  0  0  0  0  0  0  0  0  0
   -6.9140    1.0720   -4.5374 C   0  0  0  0  0  0  0  0  0  0  0  0
   -7.9943    0.2126   -4.5857 C   0  0  0  0  0  0  0  0  0  0  0  0
   -9.1698    0.4762   -5.3606 C   0  0  0  0  0  0  0  0  0  0  0  0
   -9.3290    1.6106   -6.1408 C   0  0  0  0  0  0  0  0  0  0  0  0
   -8.2161    2.5034   -6.1216 C   0  0  0  0  0  0  0  0  0  0  0  0
   -8.0322    3.8224   -6.8027 C   0  0  0  0  0  0  0  0  0  0  0  0
   -8.7218    4.2888   -7.8726 C   0  0  0  0  0  0  0  0  0  0  0  0
   -8.2788    5.4328   -8.6318 C   0  0  0  0  0  0  0  0  0  0  0  0
   -7.9278    6.3488   -9.2443 N   0  0  0  0  0  0  0  0  0  0  0  0
   -9.8738    3.6163   -8.4085 C   0  0  0  0  0  0  0  0  0  0  0  0
  -10.8082    3.0810   -8.8482 N   0  0  0  0  0  0  0  0  0  0  0  0
   -9.8092   -0.7784   -4.8403 C   0  0  0  0  0  0  0  0  0  0  0  0
  -10.9116   -0.5996   -3.7539 C   0  0  0  0  0  0  0  0  0  0  0  0
  -11.1024   -1.9615   -3.1289 C   0  0  0  0  0  0  0  0  0  0  0  0
   -9.9966   -2.2114   -2.4159 C   0  0  0  0  0  0  0  0  0  0  0  0
   -9.0996   -1.0093   -2.5841 C   0  0  0  0  0  0  0  0  0  0  0  0
  -10.1644    0.0738   -2.6137 C   0  0  0  0  0  0  0  0  0  0  0  0
   -8.5998   -1.0498   -4.0580 C   0  0  0  0  0  0  0  0  0  0  0  0
    6.9595   -6.5852    1.9495 H   0  0  0  0  0  0  0  0  0  0  0  0
    3.6774   -2.2985   -1.3608 H   0  0  0  0  0  0  0  0  0  0  0  0
    6.8538   -5.5016   -3.7506 H   0  0  0  0  0  0  0  0  0  0  0  0
    6.0847   -2.7231   -5.6649 H   0  0  0  0  0  0  0  0  0  0  0  0
    4.6344   -4.9196   -6.5573 H   0  0  0  0  0  0  0  0  0  0  0  0
    3.9892   -2.9693   -8.2432 H   0  0  0  0  0  0  0  0  0  0  0  0
    2.3947   -1.3136   -7.0114 H   0  0  0  0  0  0  0  0  0  0  0  0
    2.0329   -2.1921   -4.5302 H   0  0  0  0  0  0  0  0  0  0  0  0
    3.0486   -4.6730   -4.4099 H   0  0  0  0  0  0  0  0  0  0  0  0
    2.0893   -4.4564   -5.9299 H   0  0  0  0  0  0  0  0  0  0  0  0
    4.6260   -1.1925   -4.5359 H   0  0  0  0  0  0  0  0  0  0  0  0
    3.1373   -8.5410    1.9613 H   0  0  0  0  0  0  0  0  0  0  0  0
    3.8911   -7.1691    1.0969 H   0  0  0  0  0  0  0  0  0  0  0  0
    2.0937   -5.6389    1.9360 H   0  0  0  0  0  0  0  0  0  0  0  0
    1.3551   -7.0179    2.8520 H   0  0  0  0  0  0  0  0  0  0  0  0
    1.3966   -7.0373    1.0465 H   0  0  0  0  0  0  0  0  0  0  0  0
    2.5899   -7.7138    5.0926 H   0  0  0  0  0  0  0  0  0  0  0  0
    3.2712   -6.8092    6.5072 H   0  0  0  0  0  0  0  0  0  0  0  0
    0.2991   -7.0683    5.7400 H   0  0  0  0  0  0  0  0  0  0  0  0
    1.1326   -7.8890    7.1200 H   0  0  0  0  0  0  0  0  0  0  0  0
    0.9437   -6.0878    7.1205 H   0  0  0  0  0  0  0  0  0  0  0  0
    4.7384   -0.2426    6.7477 H   0  0  0  0  0  0  0  0  0  0  0  0
    5.9971   -0.4355    8.8656 H   0  0  0  0  0  0  0  0  0  0  0  0
    5.4197   -2.1857   10.5076 H   0  0  0  0  0  0  0  0  0  0  0  0
    3.9073   -3.8702   11.3065 H   0  0  0  0  0  0  0  0  0  0  0  0
    2.3251   -4.0424   10.4854 H   0  0  0  0  0  0  0  0  0  0  0  0
    3.6261   -6.2014   10.6515 H   0  0  0  0  0  0  0  0  0  0  0  0
    3.2395   -5.7473    8.9510 H   0  0  0  0  0  0  0  0  0  0  0  0
    4.9118   -5.4892    9.6032 H   0  0  0  0  0  0  0  0  0  0  0  0
    2.3040   -3.6084    7.8856 H   0  0  0  0  0  0  0  0  0  0  0  0
   -1.6170    8.8848   -3.8083 H   0  0  0  0  0  0  0  0  0  0  0  0
   -1.9841   11.3147   -3.7791 H   0  0  0  0  0  0  0  0  0  0  0  0
   -2.2969   12.5098   -1.6447 H   0  0  0  0  0  0  0  0  0  0  0  0
   -2.8185   12.4351    0.7237 H   0  0  0  0  0  0  0  0  0  0  0  0
   -2.9695   10.8646    1.5653 H   0  0  0  0  0  0  0  0  0  0  0  0
   -0.3235   12.3181    0.8905 H   0  0  0  0  0  0  0  0  0  0  0  0
   -1.0981   12.1803    2.5152 H   0  0  0  0  0  0  0  0  0  0  0  0
   -0.4502   10.7055    1.7054 H   0  0  0  0  0  0  0  0  0  0  0  0
   -2.0165    8.7846    0.4868 H   0  0  0  0  0  0  0  0  0  0  0  0
    1.1113    0.7627    0.4280 H   0  0  0  0  0  0  0  0  0  0  0  0
    1.0935   -0.8128    1.2499 H   0  0  0  0  0  0  0  0  0  0  0  0
    3.3842   -0.1113    0.5090 H   0  0  0  0  0  0  0  0  0  0  0  0
    3.3382   -0.1797    2.3043 H   0  0  0  0  0  0  0  0  0  0  0  0
    3.2535    1.4132    1.4665 H   0  0  0  0  0  0  0  0  0  0  0  0
   -1.1200    1.3454    0.7161 H   0  0  0  0  0  0  0  0  0  0  0  0
   -2.0106    2.6728   -0.0423 H   0  0  0  0  0  0  0  0  0  0  0  0
   -1.5402    1.6445   -2.0416 H   0  0  0  0  0  0  0  0  0  0  0  0
   -0.2712    0.6070   -1.3171 H   0  0  0  0  0  0  0  0  0  0  0  0
    0.1490    2.2662   -1.8664 H   0  0  0  0  0  0  0  0  0  0  0  0
   -7.0575    6.4594   -6.6639 H   0  0  0  0  0  0  0  0  0  0  0  0
   -6.0485    0.8894   -3.9134 H   0  0  0  0  0  0  0  0  0  0  0  0
  -10.2530    1.7903   -6.6651 H   0  0  0  0  0  0  0  0  0  0  0  0
  -10.0255   -1.5311   -5.6312 H   0  0  0  0  0  0  0  0  0  0  0  0
  -11.8433   -0.0970   -4.0877 H   0  0  0  0  0  0  0  0  0  0  0  0
  -11.9926   -2.5805   -3.1597 H   0  0  0  0  0  0  0  0  0  0  0  0
   -9.8350   -3.0702   -1.7749 H   0  0  0  0  0  0  0  0  0  0  0  0
   -8.3103   -0.8971   -1.8099 H   0  0  0  0  0  0  0  0  0  0  0  0
  -10.7586    0.1348   -1.6698 H   0  0  0  0  0  0  0  0  0  0  0  0
   -9.7782    1.0881   -2.8564 H   0  0  0  0  0  0  0  0  0  0  0  0
   -8.0493   -1.9699   -4.3555 H   0  0  0  0  0  0  0  0  0  0  0  0
  1  2  2  3
  2  3  1  0
  3  4  2  0
  3  5  1  0
  5  6  2  0
  6  7  1  0
  7  8  2  0
  8  9  1  0
  9 10  2  0
 10 11  1  0
 11 12  2  3
 12 13  1  0
 13 14  3  0
 12 15  1  0
 15 16  3  0
  8 17  1  0
 17 18  1  0
 18 19  1  0
 19 20  2  0
 20 21  1  0
 21 22  1  0
 21 23  1  0
  1 24  1  0
 24 25  2  0
 25 26  1  0
 26 27  1  0
 27 28  1  0
 25 29  1  0
 29 30  1  0
 30 31  1  0
 31 32  1  0
 29 33  2  0
 33 34  1  0
 34 35  1  0
 35 36  2  0
 36 37  1  0
 37 38  1  0
 33 39  1  0
 39 40  2  0
 40 41  1  0
 41 42  2  0
 42 43  1  0
 43 44  2  0
 44 45  1  0
 45 46  1  0
 46 47  1  0
 45 48  2  0
 40 49  1  0
 49 50  1  0
 50 51  1  0
 51 52  1  0
 52 53  1  0
 53 54  1  0
 54 55  2  0
 55 56  1  0
 56 57  1  0
 54 58  1  0
 58 59  1  0
 59 60  1  0
 60 61  1  0
 61 62  1  0
 62 63  1  0
 63 64  2  0
 64 65  1  0
 65 66  2  0
 66 67  1  0
 67 68  1  0
 68 69  1  0
 67 70  2  0
 62 71  2  0
 71 72  1  0
 72 73  1  0
 73 74  1  0
 74 75  1  0
 75 76  1  0
 76 77  1  0
 77 78  1  0
 78 79  1  0
 79 80  1  0
 80 81  1  0
 78 82  1  0
 82 83  1  0
 75 84  1  0
 84 85  1  0
 71 86  1  0
 86 87  2  0
 87 88  1  0
 88 89  1  0
 89 90  2  0
 90 91  2  0
 88 92  2  0
 92 93  1  0
 93 94  2  0
 94 95  1  0
 95 96  1  0
 96 97  2  0
 92 98  1  0
 98 99  2  3
 99100  1  0
100101  2  0
100102  1  0
102103  2  0
103104  1  0
104105  2  0
105106  1  0
106107  2  0
107108  1  0
108109  2  3
109110  1  0
110111  3  0
109112  1  0
112113  3  0
105114  1  0
114115  1  0
115116  1  0
116117  2  0
117118  1  0
118119  1  0
118120  1  0
 11  2  1  0
 23 17  1  0
 35 24  1  0
 81 39  1  0
 97 86  1  0
108 99  1  0
120114  1  0
 10  5  1  0
 22 18  1  0
 38 34  2  0
 48 41  1  0
 80 49  2  0
 91 87  1  0
 97 93  1  0
107102  1  0
119115  1  0
 23  7  1  0
 79 51  2  0
120104  1  0
 77 52  2  0
 57 53  2  0
 76 58  2  0
 74 59  2  0
 73 61  2  0
 70 63  1  0
  1121  1  0
  6122  1  0
  9123  1  0
 17124  1  0
 18125  1  0
 19126  1  0
 20127  1  0
 21128  1  0
 22129  1  0
 22130  1  0
 23131  1  0
 27132  1  0
 27133  1  0
 28134  1  0
 28135  1  0
 28136  1  0
 31137  1  0
 31138  1  0
 32139  1  0
 32140  1  0
 32141  1  0
 42142  1  0
 43143  1  0
 44144  1  0
 46145  1  0
 46146  1  0
 47147  1  0
 47148  1  0
 47149  1  0
 48150  1  0
 64151  1  0
 65152  1  0
 66153  1  0
 68154  1  0
 68155  1  0
 69156  1  0
 69157  1  0
 69158  1  0
 70159  1  0
 82160  1  0
 82161  1  0
 83162  1  0
 83163  1  0
 83164  1  0
 84165  1  0
 84166  1  0
 85167  1  0
 85168  1  0
 85169  1  0
 98170  1  0
103171  1  0
106172  1  0
114173  1  0
115174  1  0
116175  1  0
117176  1  0
118177  1  0
119178  1  0
119179  1  0
120180  1  0
M  END

