
     RDKit          3D

187211  0  0  0  0  0  0  0  0999 V2000
   -4.8441    3.7728    3.5762 C   0  0  0  0  0  0  0  0  0  0  0  0
   -5.2329    2.6662    3.0353 C   0  0  0  0  0  0  0  0  0  0  0  0
   -6.0671    1.7137    3.8330 C   0  0  0  0  0  0  0  0  0  0  0  0
   -6.6391    1.9036    4.9315 O   0  0  0  0  0  0  0  0  0  0  0  0
   -6.1545    0.4385    3.1375 C   0  0  0  0  0  0  0  0  0  0  0  0
   -6.7233   -0.7906    3.4881 C   0  0  0  0  0  0  0  0  0  0  0  0
   -6.5707   -1.8855    2.6680 C   0  0  0  0  0  0  0  0  0  0  0  0
   -5.8661   -1.8080    1.4930 C   0  0  0  0  0  0  0  0  0  0  0  0
   -5.3091   -0.5490    1.1634 C   0  0  0  0  0  0  0  0  0  0  0  0
   -5.4580    0.5364    1.9806 C   0  0  0  0  0  0  0  0  0  0  0  0
   -4.8683    1.9261    1.8430 C   0  0  0  0  0  0  0  0  0  0  0  0
   -4.5508    2.3691    0.6525 C   0  0  0  0  0  0  0  0  0  0  0  0
   -4.1654    1.6153   -0.4807 C   0  0  0  0  0  0  0  0  0  0  0  0
   -3.8478    0.9711   -1.4134 N   0  0  0  0  0  0  0  0  0  0  0  0
   -4.9956    3.7315    0.1849 C   0  0  0  0  0  0  0  0  0  0  0  0
   -5.3381    4.7999   -0.1979 N   0  0  0  0  0  0  0  0  0  0  0  0
   -6.0249   -3.2127    1.1537 C   0  0  0  0  0  0  0  0  0  0  0  0
   -6.9678   -3.6088    0.0754 C   0  0  0  0  0  0  0  0  0  0  0  0
   -8.0202   -2.5917   -0.0412 C   0  0  0  0  0  0  0  0  0  0  0  0
   -8.7037   -2.6194    1.0938 C   0  0  0  0  0  0  0  0  0  0  0  0
   -8.2045   -3.6900    1.9493 C   0  0  0  0  0  0  0  0  0  0  0  0
   -7.7690   -4.6878    0.8368 C   0  0  0  0  0  0  0  0  0  0  0  0
   -6.8674   -3.3166    2.4560 C   0  0  0  0  0  0  0  0  0  0  0  0
   -4.0281    4.9233    3.2118 C   0  0  0  0  0  0  0  0  0  0  0  0
   -3.8511    5.9887    1.9371 S   0  0  0  0  0  0  0  0  0  0  0  0
   -2.3256    6.6759    2.2869 C   0  0  0  0  0  0  0  0  0  0  0  0
   -1.9636    6.0800    3.4515 C   0  0  0  0  0  0  0  0  0  0  0  0
   -0.6757    6.3351    4.1420 C   0  0  0  0  0  0  0  0  0  0  0  0
    0.1102    7.2192    3.6462 O   0  0  0  0  0  0  0  0  0  0  0  0
   -0.2861    5.6117    5.3767 C   0  0  0  0  0  0  0  0  0  0  0  0
    0.9123    5.7888    6.0332 C   0  0  0  0  0  0  0  0  0  0  0  0
    2.0311    6.7318    5.7431 C   0  0  0  0  0  0  0  0  0  0  0  0
    3.2268    6.3153    6.5838 C   0  0  0  0  0  0  0  0  0  0  0  0
    0.8385    4.6855    7.3185 S   0  0  0  0  0  0  0  0  0  0  0  0
   -0.7006    4.0233    7.0014 C   0  0  0  0  0  0  0  0  0  0  0  0
   -1.3491    2.9140    7.7667 C   0  0  0  0  0  0  0  0  0  0  0  0
   -1.1734    1.6459    6.9292 C   0  0  0  0  0  0  0  0  0  0  0  0
   -1.1260    4.6985    5.8763 C   0  0  0  0  0  0  0  0  0  0  0  0
   -2.4200    4.4633    5.1649 C   0  0  0  0  0  0  0  0  0  0  0  0
   -3.1791    3.5918    5.6951 O   0  0  0  0  0  0  0  0  0  0  0  0
   -2.8199    5.1657    3.9544 C   0  0  0  0  0  0  0  0  0  0  0  0
   -1.3738    7.1665    1.1662 C   0  0  0  0  0  0  0  0  0  0  0  0
   -1.5684    7.6335   -0.0537 C   0  0  0  0  0  0  0  0  0  0  0  0
   -2.7197    8.4998   -0.3654 C   0  0  0  0  0  0  0  0  0  0  0  0
   -2.8043    9.8259   -0.0106 C   0  0  0  0  0  0  0  0  0  0  0  0
   -3.8746   10.6215   -0.3836 C   0  0  0  0  0  0  0  0  0  0  0  0
   -4.8965   10.0944   -1.1337 C   0  0  0  0  0  0  0  0  0  0  0  0
   -4.8411    8.7389   -1.5105 C   0  0  0  0  0  0  0  0  0  0  0  0
   -5.9176    8.1214   -2.3345 C   0  0  0  0  0  0  0  0  0  0  0  0
   -5.5610    8.2268   -3.8153 C   0  0  0  0  0  0  0  0  0  0  0  0
   -3.7602    7.9828   -1.1219 C   0  0  0  0  0  0  0  0  0  0  0  0
   -0.6417    7.2209   -1.0164 C   0  0  0  0  0  0  0  0  0  0  0  0
   -0.6951    7.0888   -2.7410 S   0  0  0  0  0  0  0  0  0  0  0  0
    0.6070    5.9366   -2.8995 C   0  0  0  0  0  0  0  0  0  0  0  0
    1.0293    4.8986   -3.7800 C   0  0  0  0  0  0  0  0  0  0  0  0
    0.5715    4.5988   -5.0391 C   0  0  0  0  0  0  0  0  0  0  0  0
    0.8088    3.3451   -5.5050 C   0  0  0  0  0  0  0  0  0  0  0  0
    0.3821    3.0905   -6.7464 N   0  0  0  0  0  0  0  0  0  0  0  0
   -0.3202    4.5188   -7.2618 S   0  0  0  0  0  0  0  0  0  0  0  0
   -0.0627    5.4280   -5.8859 N   0  0  0  0  0  0  0  0  0  0  0  0
    1.4921    2.4597   -4.6756 C   0  0  0  0  0  0  0  0  0  0  0  0
    1.5034    1.0530   -4.7459 C   0  0  0  0  0  0  0  0  0  0  0  0
    0.8672   -0.2662   -5.6188 S   0  0  0  0  0  0  0  0  0  0  0  0
    1.2385   -1.5259   -4.4583 C   0  0  0  0  0  0  0  0  0  0  0  0
    1.0236   -2.8983   -4.3273 C   0  0  0  0  0  0  0  0  0  0  0  0
    0.1975   -3.6586   -5.3065 C   0  0  0  0  0  0  0  0  0  0  0  0
    0.6344   -4.3917   -6.3255 C   0  0  0  0  0  0  0  0  0  0  0  0
   -0.3185   -5.0124   -7.1432 C   0  0  0  0  0  0  0  0  0  0  0  0
   -1.6841   -4.8730   -6.9020 C   0  0  0  0  0  0  0  0  0  0  0  0
   -2.1383   -4.1098   -5.8384 C   0  0  0  0  0  0  0  0  0  0  0  0
   -3.5798   -3.9546   -5.5107 C   0  0  0  0  0  0  0  0  0  0  0  0
   -4.1752   -2.7591   -6.1538 C   0  0  0  0  0  0  0  0  0  0  0  0
   -1.1744   -3.5121   -5.0546 C   0  0  0  0  0  0  0  0  0  0  0  0
    1.4732   -3.4519   -3.2147 C   0  0  0  0  0  0  0  0  0  0  0  0
    2.1564   -2.1507   -2.3639 S   0  0  0  0  0  0  0  0  0  0  0  0
    1.8348   -0.8612   -3.4945 C   0  0  0  0  0  0  0  0  0  0  0  0
    1.9842    0.5270   -3.6225 C   0  0  0  0  0  0  0  0  0  0  0  0
    2.3089    1.5998   -2.7780 N   0  0  0  0  0  0  0  0  0  0  0  0
    1.9966    2.7229   -3.4339 C   0  0  0  0  0  0  0  0  0  0  0  0
    1.7605    4.0375   -2.9585 C   0  0  0  0  0  0  0  0  0  0  0  0
    1.8076    4.5321   -1.7252 N   0  0  0  0  0  0  0  0  0  0  0  0
    1.0449    5.7186   -1.6862 C   0  0  0  0  0  0  0  0  0  0  0  0
    0.3447    6.4304   -0.6871 C   0  0  0  0  0  0  0  0  0  0  0  0
    0.0898    6.2164    0.9910 S   0  0  0  0  0  0  0  0  0  0  0  0
    2.6044    4.1996   -0.5899 C   0  0  0  0  0  0  0  0  0  0  0  0
    2.1233    3.6532    0.6611 C   0  0  0  0  0  0  0  0  0  0  0  0
    2.8311    1.2676   -1.4853 C   0  0  0  0  0  0  0  0  0  0  0  0
    1.6799    0.8748   -0.5591 C   0  0  0  0  0  0  0  0  0  0  0  0
    1.5495   -4.8049   -2.6456 C   0  0  0  0  0  0  0  0  0  0  0  0
    2.6119   -6.1361   -3.3572 Se  0  0  0  0  0  2  0  0  0  0  0  0
    2.2172   -7.3294   -1.8037 C   0  0  0  0  0  0  0  0  0  0  0  0
    1.3893   -6.5638   -1.0641 C   0  0  0  0  0  0  0  0  0  0  0  0
    0.7832   -6.9214    0.1738 C   0  0  0  0  0  0  0  0  0  0  0  0
   -0.0203   -6.0335    0.7892 C   0  0  0  0  0  0  0  0  0  0  0  0
   -0.7716   -6.1805    2.0869 C   0  0  0  0  0  0  0  0  0  0  0  0
    0.0514   -5.7409    3.2456 C   0  0  0  0  0  0  0  0  0  0  0  0
    0.0214   -4.7164   -0.2740 S   0  0  0  0  0  0  0  0  0  0  0  0
    1.0894   -5.3465   -1.5058 C   0  0  0  0  0  0  0  0  0  0  0  0
    2.9800   -8.5988   -1.8358 C   0  0  0  0  0  0  0  0  0  0  0  0
    4.3239   -8.4218   -1.9185 C   0  0  0  0  0  0  0  0  0  0  0  0
    4.9482   -7.0861   -1.9363 C   0  0  0  0  0  0  0  0  0  0  0  0
    4.4059   -5.9946   -1.5914 O   0  0  0  0  0  0  0  0  0  0  0  0
    6.3132   -7.1801   -2.4085 C   0  0  0  0  0  0  0  0  0  0  0  0
    7.2656   -6.2251   -2.6655 C   0  0  0  0  0  0  0  0  0  0  0  0
    8.4888   -6.5230   -3.1807 C   0  0  0  0  0  0  0  0  0  0  0  0
    8.7647   -7.8371   -3.4457 C   0  0  0  0  0  0  0  0  0  0  0  0
    7.8138   -8.8349   -3.1946 C   0  0  0  0  0  0  0  0  0  0  0  0
    6.5844   -8.5184   -2.6788 C   0  0  0  0  0  0  0  0  0  0  0  0
    5.3441   -9.3137   -2.3701 C   0  0  0  0  0  0  0  0  0  0  0  0
    5.2619  -10.6554   -2.4691 C   0  0  0  0  0  0  0  0  0  0  0  0
    4.0341  -11.2810   -2.0781 C   0  0  0  0  0  0  0  0  0  0  0  0
    2.9869  -11.8222   -1.7220 N   0  0  0  0  0  0  0  0  0  0  0  0
    6.2163  -11.4026   -2.9294 C   0  0  0  0  0  0  0  0  0  0  0  0
    7.2067  -12.1871   -3.4266 N   0  0  0  0  0  0  0  0  0  0  0  0
   10.1124   -7.4517   -3.9357 C   0  0  0  0  0  0  0  0  0  0  0  0
   11.2079   -7.7357   -2.9620 C   0  0  0  0  0  0  0  0  0  0  0  0
   12.3892   -6.9300   -3.3501 C   0  0  0  0  0  0  0  0  0  0  0  0
   12.0778   -5.6652   -3.0928 C   0  0  0  0  0  0  0  0  0  0  0  0
   10.6692   -5.5954   -2.5799 C   0  0  0  0  0  0  0  0  0  0  0  0
   10.7085   -6.8918   -1.7479 C   0  0  0  0  0  0  0  0  0  0  0  0
    9.7836   -5.9851   -3.6815 C   0  0  0  0  0  0  0  0  0  0  0  0
   -5.2122    3.9302    4.6222 H   0  0  0  0  0  0  0  0  0  0  0  0
   -7.2704   -0.8237    4.4050 H   0  0  0  0  0  0  0  0  0  0  0  0
   -4.7497   -0.4861    0.2667 H   0  0  0  0  0  0  0  0  0  0  0  0
   -5.0988   -3.8405    1.2246 H   0  0  0  0  0  0  0  0  0  0  0  0
   -6.5468   -4.0097   -0.8398 H   0  0  0  0  0  0  0  0  0  0  0  0
   -8.1842   -1.9440   -0.9059 H   0  0  0  0  0  0  0  0  0  0  0  0
   -9.5370   -1.9439    1.3655 H   0  0  0  0  0  0  0  0  0  0  0  0
   -8.8893   -4.1629    2.6433 H   0  0  0  0  0  0  0  0  0  0  0  0
   -8.6222   -5.0513    0.2640 H   0  0  0  0  0  0  0  0  0  0  0  0
   -7.1077   -5.4670    1.2241 H   0  0  0  0  0  0  0  0  0  0  0  0
   -6.3918   -3.9972    3.1834 H   0  0  0  0  0  0  0  0  0  0  0  0
    1.7483    7.7707    5.9264 H   0  0  0  0  0  0  0  0  0  0  0  0
    2.3172    6.6246    4.6730 H   0  0  0  0  0  0  0  0  0  0  0  0
    4.1692    6.7803    6.2557 H   0  0  0  0  0  0  0  0  0  0  0  0
    3.3223    5.2125    6.4564 H   0  0  0  0  0  0  0  0  0  0  0  0
    2.9821    6.5062    7.6511 H   0  0  0  0  0  0  0  0  0  0  0  0
   -0.8168    2.8417    8.7482 H   0  0  0  0  0  0  0  0  0  0  0  0
   -2.4061    3.1111    7.9563 H   0  0  0  0  0  0  0  0  0  0  0  0
   -0.7359    0.8391    7.5167 H   0  0  0  0  0  0  0  0  0  0  0  0
   -0.5547    1.8767    6.0219 H   0  0  0  0  0  0  0  0  0  0  0  0
   -2.1479    1.2846    6.5501 H   0  0  0  0  0  0  0  0  0  0  0  0
   -2.0267   10.2699    0.5733 H   0  0  0  0  0  0  0  0  0  0  0  0
   -3.8969   11.6806   -0.0814 H   0  0  0  0  0  0  0  0  0  0  0  0
   -5.7402   10.6839   -1.4402 H   0  0  0  0  0  0  0  0  0  0  0  0
   -6.1340    7.0945   -2.0229 H   0  0  0  0  0  0  0  0  0  0  0  0
   -6.8412    8.7237   -2.2315 H   0  0  0  0  0  0  0  0  0  0  0  0
   -6.2315    7.5429   -4.4109 H   0  0  0  0  0  0  0  0  0  0  0  0
   -5.7982    9.2383   -4.2418 H   0  0  0  0  0  0  0  0  0  0  0  0
   -4.5239    8.0130   -3.9911 H   0  0  0  0  0  0  0  0  0  0  0  0
   -3.7036    6.9367   -1.4071 H   0  0  0  0  0  0  0  0  0  0  0  0
    1.6785   -4.4919   -6.5083 H   0  0  0  0  0  0  0  0  0  0  0  0
    0.0301   -5.6054   -7.9702 H   0  0  0  0  0  0  0  0  0  0  0  0
   -2.4126   -5.3531   -7.5385 H   0  0  0  0  0  0  0  0  0  0  0  0
   -3.7107   -3.8629   -4.3934 H   0  0  0  0  0  0  0  0  0  0  0  0
   -4.1575   -4.8683   -5.8120 H   0  0  0  0  0  0  0  0  0  0  0  0
   -5.3027   -2.9142   -6.2195 H   0  0  0  0  0  0  0  0  0  0  0  0
   -4.0635   -1.8359   -5.5338 H   0  0  0  0  0  0  0  0  0  0  0  0
   -3.8686   -2.5423   -7.1953 H   0  0  0  0  0  0  0  0  0  0  0  0
   -1.5332   -2.9129   -4.2230 H   0  0  0  0  0  0  0  0  0  0  0  0
    3.0151    5.2689   -0.2618 H   0  0  0  0  0  0  0  0  0  0  0  0
    3.6325    3.8642   -0.9497 H   0  0  0  0  0  0  0  0  0  0  0  0
    1.1200    3.2564    0.7583 H   0  0  0  0  0  0  0  0  0  0  0  0
    2.2696    4.4173    1.5475 H   0  0  0  0  0  0  0  0  0  0  0  0
    2.8455    2.8595    1.0476 H   0  0  0  0  0  0  0  0  0  0  0  0
    3.5186    1.8954   -1.0025 H   0  0  0  0  0  0  0  0  0  0  0  0
    3.3757    0.2538   -1.6137 H   0  0  0  0  0  0  0  0  0  0  0  0
    1.9851    0.8433    0.4919 H   0  0  0  0  0  0  0  0  0  0  0  0
    1.2440   -0.1163   -0.8280 H   0  0  0  0  0  0  0  0  0  0  0  0
    0.8431    1.5829   -0.6910 H   0  0  0  0  0  0  0  0  0  0  0  0
    0.9421   -7.9078    0.6729 H   0  0  0  0  0  0  0  0  0  0  0  0
   -0.9994   -7.2653    2.2003 H   0  0  0  0  0  0  0  0  0  0  0  0
   -1.7077   -5.5928    1.9338 H   0  0  0  0  0  0  0  0  0  0  0  0
   -0.5869   -5.3907    4.0791 H   0  0  0  0  0  0  0  0  0  0  0  0
    0.8627   -5.0244    2.9924 H   0  0  0  0  0  0  0  0  0  0  0  0
    0.6202   -6.6261    3.6978 H   0  0  0  0  0  0  0  0  0  0  0  0
    2.4646   -9.4739   -1.8073 H   0  0  0  0  0  0  0  0  0  0  0  0
    7.0048   -5.1771   -2.4131 H   0  0  0  0  0  0  0  0  0  0  0  0
    8.0642   -9.8539   -3.4238 H   0  0  0  0  0  0  0  0  0  0  0  0
   10.2881   -7.6637   -5.0002 H   0  0  0  0  0  0  0  0  0  0  0  0
   11.3655   -8.7570   -2.6887 H   0  0  0  0  0  0  0  0  0  0  0  0
   13.3004   -7.2914   -3.7447 H   0  0  0  0  0  0  0  0  0  0  0  0
   12.6519   -4.7692   -3.2011 H   0  0  0  0  0  0  0  0  0  0  0  0
   10.4729   -4.7292   -1.9901 H   0  0  0  0  0  0  0  0  0  0  0  0
   11.4857   -6.8435   -0.9877 H   0  0  0  0  0  0  0  0  0  0  0  0
    9.7164   -7.2260   -1.4679 H   0  0  0  0  0  0  0  0  0  0  0  0
    9.7585   -5.3649   -4.5885 H   0  0  0  0  0  0  0  0  0  0  0  0
  1  2  2  3
  2  3  1  0
  3  4  2  0
  3  5  1  0
  5  6  2  0
  6  7  1  0
  7  8  2  0
  8  9  1  0
  9 10  2  0
 10 11  1  0
 11 12  2  3
 12 13  1  0
 13 14  3  0
 12 15  1  0
 15 16  3  0
  8 17  1  0
 17 18  1  0
 18 19  1  0
 19 20  2  0
 20 21  1  0
 21 22  1  0
 21 23  1  0
  1 24  1  0
 24 25  1  0
 25 26  1  0
 26 27  2  0
 27 28  1  0
 28 29  2  0
 28 30  1  0
 30 31  2  0
 31 32  1  0
 32 33  1  0
 31 34  1  0
 34 35  1  0
 35 36  1  0
 36 37  1  0
 35 38  2  0
 38 39  1  0
 39 40  2  0
 39 41  1  0
 26 42  1  0
 42 43  2  0
 43 44  1  0
 44 45  2  0
 45 46  1  0
 46 47  2  0
 47 48  1  0
 48 49  1  0
 49 50  1  0
 48 51  2  0
 43 52  1  0
 52 53  1  0
 53 54  1  0
 54 55  1  0
 55 56  1  0
 56 57  1  0
 57 58  2  0
 58 59  1  0
 59 60  1  0
 57 61  1  0
 61 62  1  0
 62 63  1  0
 63 64  1  0
 64 65  1  0
 65 66  1  0
 66 67  2  0
 67 68  1  0
 68 69  2  0
 69 70  1  0
 70 71  1  0
 71 72  1  0
 70 73  2  0
 65 74  2  0
 74 75  1  0
 75 76  1  0
 76 77  1  0
 77 78  1  0
 78 79  1  0
 79 80  1  0
 80 81  1  0
 81 82  1  0
 82 83  1  0
 83 84  1  0
 81 85  1  0
 85 86  1  0
 78 87  1  0
 87 88  1  0
 74 89  1  0
 89 90  1  0
 90 91  1  0
 91 92  2  0
 92 93  1  0
 93 94  2  0
 94 95  1  0
 95 96  1  0
 94 97  1  0
 97 98  1  0
 91 99  1  0
 99100  2  3
100101  1  0
101102  2  0
101103  1  0
103104  2  0
104105  1  0
105106  2  0
106107  1  0
107108  2  0
108109  1  0
109110  2  3
110111  1  0
111112  3  0
110113  1  0
113114  3  0
106115  1  0
115116  1  0
116117  1  0
117118  2  0
118119  1  0
119120  1  0
119121  1  0
 11  2  1  0
 23 17  1  0
 41 24  2  0
 84 42  1  0
 98 89  2  0
109100  1  0
121115  1  0
 10  5  1  0
 22 18  1  0
 41 27  1  0
 51 44  1  0
 83 52  2  0
 98 92  1  0
108103  1  0
120116  1  0
 23  7  1  0
 38 30  1  0
 82 54  2  0
121105  1  0
 80 55  2  0
 60 56  2  0
 79 61  2  0
 77 62  2  0
 76 64  2  0
 73 66  1  0
  1122  1  0
  6123  1  0
  9124  1  0
 17125  1  0
 18126  1  0
 19127  1  0
 20128  1  0
 21129  1  0
 22130  1  0
 22131  1  0
 23132  1  0
 32133  1  0
 32134  1  0
 33135  1  0
 33136  1  0
 33137  1  0
 36138  1  0
 36139  1  0
 37140  1  0
 37141  1  0
 37142  1  0
 45143  1  0
 46144  1  0
 47145  1  0
 49146  1  0
 49147  1  0
 50148  1  0
 50149  1  0
 50150  1  0
 51151  1  0
 67152  1  0
 68153  1  0
 69154  1  0
 71155  1  0
 71156  1  0
 72157  1  0
 72158  1  0
 72159  1  0
 73160  1  0
 85161  1  0
 85162  1  0
 86163  1  0
 86164  1  0
 86165  1  0
 87166  1  0
 87167  1  0
 88168  1  0
 88169  1  0
 88170  1  0
 93171  1  0
 95172  1  0
 95173  1  0
 96174  1  0
 96175  1  0
 96176  1  0
 99177  1  0
104178  1  0
107179  1  0
115180  1  0
116181  1  0
117182  1  0
118183  1  0
119184  1  0
120185  1  0
120186  1  0
121187  1  0
M  END

