
     RDKit          3D

225250  0  0  0  0  0  0  0  0999 V2000
   -2.8974    0.2036    1.9879 C   0  0  0  0  0  0  0  0  0  0  0  0
   -1.9721    0.7710    2.7773 C   0  0  0  0  0  0  0  0  0  0  0  0
   -2.0125    2.1612    3.2392 C   0  0  0  0  0  0  0  0  0  0  0  0
   -2.7384    3.0841    2.7790 O   0  0  0  0  0  0  0  0  0  0  0  0
   -1.1156    2.2929    4.3691 C   0  0  0  0  0  0  0  0  0  0  0  0
   -0.8908    3.4553    5.1464 C   0  0  0  0  0  0  0  0  0  0  0  0
    0.0819    3.2968    6.1161 C   0  0  0  0  0  0  0  0  0  0  0  0
    0.7961    2.0755    6.3144 C   0  0  0  0  0  0  0  0  0  0  0  0
    0.5607    0.9256    5.5808 C   0  0  0  0  0  0  0  0  0  0  0  0
   -0.4496    1.0559    4.5868 C   0  0  0  0  0  0  0  0  0  0  0  0
   -0.9296    0.0634    3.5816 C   0  0  0  0  0  0  0  0  0  0  0  0
   -0.4062   -1.1633    3.3184 C   0  0  0  0  0  0  0  0  0  0  0  0
   -0.6679   -1.8536    2.0767 C   0  0  0  0  0  0  0  0  0  0  0  0
   -0.8699   -2.4151    1.0843 N   0  0  0  0  0  0  0  0  0  0  0  0
    0.5198   -1.8312    4.1973 C   0  0  0  0  0  0  0  0  0  0  0  0
    1.2568   -2.3941    4.8927 N   0  0  0  0  0  0  0  0  0  0  0  0
    1.5963    2.7008    7.4157 C   0  0  0  0  0  0  0  0  0  0  0  0
    1.2327    2.2635    8.8625 C   0  0  0  0  0  0  0  0  0  0  0  0
    1.8609    3.2920    9.7740 C   0  0  0  0  0  0  0  0  0  0  0  0
    1.1651    4.4240    9.6030 C   0  0  0  0  0  0  0  0  0  0  0  0
    0.0958    4.1210    8.5817 C   0  0  0  0  0  0  0  0  0  0  0  0
   -0.2191    2.6921    8.9917 C   0  0  0  0  0  0  0  0  0  0  0  0
    0.8474    3.9462    7.2283 C   0  0  0  0  0  0  0  0  0  0  0  0
   -3.7197    0.9754    1.0521 C   0  0  0  0  0  0  0  0  0  0  0  0
   -3.1370    1.5071   -0.4350 S   0  0  0  0  0  0  0  0  0  0  0  0
   -4.6482    1.8395   -1.0812 C   0  0  0  0  0  0  0  0  0  0  0  0
   -4.9752    2.0339   -2.4787 C   0  0  0  0  0  0  0  0  0  0  0  0
   -6.2592    1.7770   -2.9065 C   0  0  0  0  0  0  0  0  0  0  0  0
   -7.2920    1.5417   -1.9865 O   0  0  0  0  0  0  0  0  0  0  0  0
   -7.1230    1.6513   -0.5501 C   0  0  0  0  0  0  0  0  0  0  0  0
   -7.9187    0.5247    0.1104 C   0  0  0  0  0  0  0  0  0  0  0  0
   -8.0490   -0.7185   -0.5353 C   0  0  0  0  0  0  0  0  0  0  0  0
   -8.7442   -1.7696    0.0692 C   0  0  0  0  0  0  0  0  0  0  0  0
   -9.3148   -1.6038    1.3387 C   0  0  0  0  0  0  0  0  0  0  0  0
  -10.0450   -2.7392    2.0003 C   0  0  0  0  0  0  0  0  0  0  0  0
   -9.0958   -3.5582    2.8679 C   0  0  0  0  0  0  0  0  0  0  0  0
   -9.1461   -0.3869    2.0130 C   0  0  0  0  0  0  0  0  0  0  0  0
   -8.4498    0.6641    1.4120 C   0  0  0  0  0  0  0  0  0  0  0  0
   -7.6849    3.0211   -0.1614 C   0  0  0  0  0  0  0  0  0  0  0  0
   -9.0351    3.3044   -0.4514 C   0  0  0  0  0  0  0  0  0  0  0  0
   -9.5966    4.5418   -0.1295 C   0  0  0  0  0  0  0  0  0  0  0  0
   -8.8124    5.5412    0.4632 C   0  0  0  0  0  0  0  0  0  0  0  0
   -9.4198    6.8643    0.8411 C   0  0  0  0  0  0  0  0  0  0  0  0
   -9.7313    6.9074    2.3360 C   0  0  0  0  0  0  0  0  0  0  0  0
   -7.4663    5.2754    0.7500 C   0  0  0  0  0  0  0  0  0  0  0  0
   -6.9055    4.0339    0.4404 C   0  0  0  0  0  0  0  0  0  0  0  0
   -5.6388    1.4992   -0.1737 C   0  0  0  0  0  0  0  0  0  0  0  0
   -5.1130    1.0136    1.0420 C   0  0  0  0  0  0  0  0  0  0  0  0
   -6.3768    1.6025   -4.2889 C   0  0  0  0  0  0  0  0  0  0  0  0
   -5.1378    1.6402   -4.9379 C   0  0  0  0  0  0  0  0  0  0  0  0
   -3.9372    1.9506   -3.7860 S   0  0  0  0  0  0  0  0  0  0  0  0
   -4.8099    1.0064   -6.2290 C   0  0  0  0  0  0  0  0  0  0  0  0
   -5.2661   -0.2727   -6.6265 C   0  0  0  0  0  0  0  0  0  0  0  0
   -6.3817   -0.9788   -5.9799 C   0  0  0  0  0  0  0  0  0  0  0  0
   -6.1737   -1.7231   -4.8101 C   0  0  0  0  0  0  0  0  0  0  0  0
   -7.2571   -2.2972   -4.1432 C   0  0  0  0  0  0  0  0  0  0  0  0
   -8.5549   -2.1331   -4.6380 C   0  0  0  0  0  0  0  0  0  0  0  0
   -8.7722   -1.4077   -5.8203 C   0  0  0  0  0  0  0  0  0  0  0  0
  -10.1720   -1.1771   -6.3271 C   0  0  0  0  0  0  0  0  0  0  0  0
  -10.7767    0.0738   -5.6992 C   0  0  0  0  0  0  0  0  0  0  0  0
   -7.6799   -0.8304   -6.4875 C   0  0  0  0  0  0  0  0  0  0  0  0
   -4.3488   -0.9111   -7.4706 C   0  0  0  0  0  0  0  0  0  0  0  0
   -3.9800   -2.5695   -7.5673 S   0  0  0  0  0  0  0  0  0  0  0  0
   -2.3864   -2.2707   -8.0579 C   0  0  0  0  0  0  0  0  0  0  0  0
   -1.2132   -2.8693   -7.6644 C   0  0  0  0  0  0  0  0  0  0  0  0
   -0.8904   -4.1975   -7.3512 C   0  0  0  0  0  0  0  0  0  0  0  0
    0.4207   -4.4892   -6.8537 C   0  0  0  0  0  0  0  0  0  0  0  0
    0.6847   -5.7834   -6.5473 N   0  0  0  0  0  0  0  0  0  0  0  0
   -0.7656   -6.4702   -6.9563 S   0  0  0  0  0  0  0  0  0  0  0  0
   -1.7415   -5.2429   -7.4894 N   0  0  0  0  0  0  0  0  0  0  0  0
    1.3074   -3.4258   -6.6203 C   0  0  0  0  0  0  0  0  0  0  0  0
    2.4465   -3.3626   -5.8620 C   0  0  0  0  0  0  0  0  0  0  0  0
    3.3308   -4.4055   -4.8494 S   0  0  0  0  0  0  0  0  0  0  0  0
    4.0068   -3.0840   -4.0015 C   0  0  0  0  0  0  0  0  0  0  0  0
    4.8558   -2.9579   -2.8918 C   0  0  0  0  0  0  0  0  0  0  0  0
    5.6103   -4.0802   -2.2912 C   0  0  0  0  0  0  0  0  0  0  0  0
    6.9856   -3.9437   -2.0399 C   0  0  0  0  0  0  0  0  0  0  0  0
    7.7148   -5.0065   -1.5082 C   0  0  0  0  0  0  0  0  0  0  0  0
    7.0866   -6.2234   -1.2395 C   0  0  0  0  0  0  0  0  0  0  0  0
    5.7133   -6.3796   -1.4877 C   0  0  0  0  0  0  0  0  0  0  0  0
    5.0525   -7.7133   -1.2733 C   0  0  0  0  0  0  0  0  0  0  0  0
    5.1074   -8.5488   -2.5489 C   0  0  0  0  0  0  0  0  0  0  0  0
    4.9790   -5.3043   -2.0141 C   0  0  0  0  0  0  0  0  0  0  0  0
    4.9788   -1.6012   -2.5160 C   0  0  0  0  0  0  0  0  0  0  0  0
    4.0585   -0.6200   -3.5603 S   0  0  0  0  0  0  0  0  0  0  0  0
    3.5126   -1.9000   -4.4813 C   0  0  0  0  0  0  0  0  0  0  0  0
    2.6315   -2.0545   -5.5400 C   0  0  0  0  0  0  0  0  0  0  0  0
    1.6653   -1.2416   -6.0384 N   0  0  0  0  0  0  0  0  0  0  0  0
    0.9139   -2.0912   -6.8066 C   0  0  0  0  0  0  0  0  0  0  0  0
   -0.3081   -1.8307   -7.4597 C   0  0  0  0  0  0  0  0  0  0  0  0
   -0.8421   -0.6323   -7.8113 N   0  0  0  0  0  0  0  0  0  0  0  0
   -2.1282   -0.9211   -8.1200 C   0  0  0  0  0  0  0  0  0  0  0  0
   -3.2437   -0.1574   -7.7963 C   0  0  0  0  0  0  0  0  0  0  0  0
   -3.3155    1.2983   -6.9797 S   0  0  0  0  0  0  0  0  0  0  0  0
   -0.1031    0.4937   -8.4049 C   0  0  0  0  0  0  0  0  0  0  0  0
   -0.0573    0.3691   -9.9251 C   0  0  0  0  0  0  0  0  0  0  0  0
    1.1755   -0.0461   -5.3242 C   0  0  0  0  0  0  0  0  0  0  0  0
    0.4218   -0.4392   -4.0523 C   0  0  0  0  0  0  0  0  0  0  0  0
    5.6412   -1.0564   -1.3194 C   0  0  0  0  0  0  0  0  0  0  0  0
    5.7308   -1.8135    0.1933 S   0  0  0  0  0  0  0  0  0  0  0  0
    6.3152   -0.4575    0.9915 C   0  0  0  0  0  0  0  0  0  0  0  0
    6.6191   -0.2724    2.3993 C   0  0  0  0  0  0  0  0  0  0  0  0
    7.1449    0.9252    2.8205 C   0  0  0  0  0  0  0  0  0  0  0  0
    7.3765    1.9686    1.9111 O   0  0  0  0  0  0  0  0  0  0  0  0
    6.7174    2.0272    0.6219 C   0  0  0  0  0  0  0  0  0  0  0  0
    7.6421    2.7211   -0.3774 C   0  0  0  0  0  0  0  0  0  0  0  0
    7.1314    3.5034   -1.4338 C   0  0  0  0  0  0  0  0  0  0  0  0
    7.9810    4.0374   -2.4036 C   0  0  0  0  0  0  0  0  0  0  0  0
    9.3588    3.7897   -2.3533 C   0  0  0  0  0  0  0  0  0  0  0  0
   10.2585    4.3039   -3.4444 C   0  0  0  0  0  0  0  0  0  0  0  0
   10.2842    3.3367   -4.6242 C   0  0  0  0  0  0  0  0  0  0  0  0
    9.8742    2.9922   -1.3217 C   0  0  0  0  0  0  0  0  0  0  0  0
    9.0256    2.4600   -0.3464 C   0  0  0  0  0  0  0  0  0  0  0  0
    5.4251    2.8268    0.8423 C   0  0  0  0  0  0  0  0  0  0  0  0
    4.1394    2.3324    0.5208 C   0  0  0  0  0  0  0  0  0  0  0  0
    2.9996    3.1019    0.7511 C   0  0  0  0  0  0  0  0  0  0  0  0
    3.1081    4.3804    1.3125 C   0  0  0  0  0  0  0  0  0  0  0  0
    1.8682    5.1681    1.6310 C   0  0  0  0  0  0  0  0  0  0  0  0
    1.2843    4.7172    2.9652 C   0  0  0  0  0  0  0  0  0  0  0  0
    4.3732    4.8783    1.6477 C   0  0  0  0  0  0  0  0  0  0  0  0
    5.5179    4.1130    1.4102 C   0  0  0  0  0  0  0  0  0  0  0  0
    6.4346    0.6075    0.1108 C   0  0  0  0  0  0  0  0  0  0  0  0
    6.0514    0.2687   -1.1931 C   0  0  0  0  0  0  0  0  0  0  0  0
    7.3953    0.9823    4.1918 C   0  0  0  0  0  0  0  0  0  0  0  0
    7.0281   -0.1903    4.8561 C   0  0  0  0  0  0  0  0  0  0  0  0
    6.4147   -1.2930    3.7146 S   0  0  0  0  0  0  0  0  0  0  0  0
    7.0797   -0.3277    6.3292 C   0  0  0  0  0  0  0  0  0  0  0  0
    6.7710   -1.4251    7.0428 C   0  0  0  0  0  0  0  0  0  0  0  0
    6.3376   -2.9402    6.4707 S   0  0  0  0  0  0  0  0  0  0  0  0
    6.1413   -3.6501    7.9929 C   0  0  0  0  0  0  0  0  0  0  0  0
    5.8115   -4.9595    8.1472 C   0  0  0  0  0  0  0  0  0  0  0  0
    5.5827   -5.7921    6.9891 C   0  0  0  0  0  0  0  0  0  0  0  0
    5.3962   -6.4601    6.0624 N   0  0  0  0  0  0  0  0  0  0  0  0
    5.7089   -5.6370    9.4125 C   0  0  0  0  0  0  0  0  0  0  0  0
    5.6252   -6.1989   10.4216 N   0  0  0  0  0  0  0  0  0  0  0  0
    6.3807   -2.7124    8.9718 N   0  0  0  0  0  0  0  0  0  0  0  0
    6.2582   -2.8845   10.4306 C   0  0  0  0  0  0  0  0  0  0  0  0
    7.5629   -3.4044   11.0280 C   0  0  0  0  0  0  0  0  0  0  0  0
    6.7548   -1.5019    8.4366 C   0  0  0  0  0  0  0  0  0  0  0  0
    7.0543   -0.5150    9.1634 O   0  0  0  0  0  0  0  0  0  0  0  0
   -2.9911   -0.8667    1.9255 H   0  0  0  0  0  0  0  0  0  0  0  0
   -1.4124    4.3902    4.9882 H   0  0  0  0  0  0  0  0  0  0  0  0
    1.1284    0.0370    5.7750 H   0  0  0  0  0  0  0  0  0  0  0  0
    2.6814    2.7804    7.1891 H   0  0  0  0  0  0  0  0  0  0  0  0
    1.4547    1.2065    9.1139 H   0  0  0  0  0  0  0  0  0  0  0  0
    2.6469    3.1287   10.5025 H   0  0  0  0  0  0  0  0  0  0  0  0
    1.2921    5.3401   10.1690 H   0  0  0  0  0  0  0  0  0  0  0  0
   -0.7642    4.8194    8.5723 H   0  0  0  0  0  0  0  0  0  0  0  0
   -0.9155    2.1672    8.3007 H   0  0  0  0  0  0  0  0  0  0  0  0
   -0.6137    2.6009   10.0329 H   0  0  0  0  0  0  0  0  0  0  0  0
    1.4579    4.8148    6.9007 H   0  0  0  0  0  0  0  0  0  0  0  0
   -7.6048   -0.8856   -1.5072 H   0  0  0  0  0  0  0  0  0  0  0  0
   -8.8300   -2.7149   -0.4517 H   0  0  0  0  0  0  0  0  0  0  0  0
  -10.8714   -2.3455    2.6292 H   0  0  0  0  0  0  0  0  0  0  0  0
  -10.5004   -3.4007    1.2320 H   0  0  0  0  0  0  0  0  0  0  0  0
   -9.6584   -4.3795    3.3610 H   0  0  0  0  0  0  0  0  0  0  0  0
   -8.6404   -2.9180    3.6537 H   0  0  0  0  0  0  0  0  0  0  0  0
   -8.2921   -4.0031    2.2408 H   0  0  0  0  0  0  0  0  0  0  0  0
   -9.5427   -0.2542    3.0116 H   0  0  0  0  0  0  0  0  0  0  0  0
   -8.3141    1.5845    1.9684 H   0  0  0  0  0  0  0  0  0  0  0  0
   -9.6605    2.5538   -0.9185 H   0  0  0  0  0  0  0  0  0  0  0  0
  -10.6428    4.7207   -0.3484 H   0  0  0  0  0  0  0  0  0  0  0  0
  -10.3561    7.0436    0.2686 H   0  0  0  0  0  0  0  0  0  0  0  0
   -8.7135    7.6854    0.5871 H   0  0  0  0  0  0  0  0  0  0  0  0
  -10.1962    7.8835    2.5892 H   0  0  0  0  0  0  0  0  0  0  0  0
  -10.4360    6.0932    2.6053 H   0  0  0  0  0  0  0  0  0  0  0  0
   -8.7983    6.7944    2.9281 H   0  0  0  0  0  0  0  0  0  0  0  0
   -6.8493    6.0337    1.2180 H   0  0  0  0  0  0  0  0  0  0  0  0
   -5.8625    3.8802    0.6799 H   0  0  0  0  0  0  0  0  0  0  0  0
   -5.7168    0.6545    1.8635 H   0  0  0  0  0  0  0  0  0  0  0  0
   -7.3054    1.3235   -4.7656 H   0  0  0  0  0  0  0  0  0  0  0  0
   -5.1756   -1.8285   -4.4013 H   0  0  0  0  0  0  0  0  0  0  0  0
   -7.0957   -2.8526   -3.2298 H   0  0  0  0  0  0  0  0  0  0  0  0
   -9.3885   -2.5594   -4.0946 H   0  0  0  0  0  0  0  0  0  0  0  0
  -10.8136   -2.0545   -6.0915 H   0  0  0  0  0  0  0  0  0  0  0  0
  -10.1626   -1.0624   -7.4341 H   0  0  0  0  0  0  0  0  0  0  0  0
  -10.8981   -0.0646   -4.6021 H   0  0  0  0  0  0  0  0  0  0  0  0
  -10.1253    0.9568   -5.8884 H   0  0  0  0  0  0  0  0  0  0  0  0
  -11.7757    0.2717   -6.1454 H   0  0  0  0  0  0  0  0  0  0  0  0
   -7.8423   -0.2353   -7.3792 H   0  0  0  0  0  0  0  0  0  0  0  0
    7.4973   -3.0187   -2.2681 H   0  0  0  0  0  0  0  0  0  0  0  0
    8.7747   -4.8927   -1.3163 H   0  0  0  0  0  0  0  0  0  0  0  0
    7.6705   -7.0470   -0.8471 H   0  0  0  0  0  0  0  0  0  0  0  0
    3.9897   -7.5697   -0.9711 H   0  0  0  0  0  0  0  0  0  0  0  0
    5.5604   -8.2639   -0.4497 H   0  0  0  0  0  0  0  0  0  0  0  0
    4.5571   -8.0356   -3.3658 H   0  0  0  0  0  0  0  0  0  0  0  0
    4.6322   -9.5364   -2.3706 H   0  0  0  0  0  0  0  0  0  0  0  0
    6.1615   -8.7062   -2.8618 H   0  0  0  0  0  0  0  0  0  0  0  0
    3.9195   -5.4241   -2.2034 H   0  0  0  0  0  0  0  0  0  0  0  0
   -0.5884    1.4524   -8.1237 H   0  0  0  0  0  0  0  0  0  0  0  0
    0.9472    0.5131   -8.0488 H   0  0  0  0  0  0  0  0  0  0  0  0
   -1.0800    0.4080  -10.3499 H   0  0  0  0  0  0  0  0  0  0  0  0
    0.4175   -0.5953  -10.2112 H   0  0  0  0  0  0  0  0  0  0  0  0
    0.5408    1.2032  -10.3505 H   0  0  0  0  0  0  0  0  0  0  0  0
    2.0278    0.6177   -5.0692 H   0  0  0  0  0  0  0  0  0  0  0  0
    0.4818    0.5501   -5.9300 H   0  0  0  0  0  0  0  0  0  0  0  0
   -0.4578   -1.0684   -4.3092 H   0  0  0  0  0  0  0  0  0  0  0  0
    1.0782   -1.0004   -3.3583 H   0  0  0  0  0  0  0  0  0  0  0  0
    0.0657    0.4779   -3.5368 H   0  0  0  0  0  0  0  0  0  0  0  0
    6.0686    3.6836   -1.5310 H   0  0  0  0  0  0  0  0  0  0  0  0
    7.5608    4.6263   -3.2104 H   0  0  0  0  0  0  0  0  0  0  0  0
    9.8990    5.2975   -3.7921 H   0  0  0  0  0  0  0  0  0  0  0  0
   11.2935    4.4419   -3.0610 H   0  0  0  0  0  0  0  0  0  0  0  0
   10.7570    2.3774   -4.3236 H   0  0  0  0  0  0  0  0  0  0  0  0
    9.2545    3.1397   -4.9920 H   0  0  0  0  0  0  0  0  0  0  0  0
   10.8750    3.7797   -5.4541 H   0  0  0  0  0  0  0  0  0  0  0  0
   10.9330    2.7644   -1.2839 H   0  0  0  0  0  0  0  0  0  0  0  0
    9.4468    1.8176    0.4183 H   0  0  0  0  0  0  0  0  0  0  0  0
    3.9943    1.3476    0.1040 H   0  0  0  0  0  0  0  0  0  0  0  0
    2.0263    2.6922    0.5113 H   0  0  0  0  0  0  0  0  0  0  0  0
    1.1109    5.0191    0.8310 H   0  0  0  0  0  0  0  0  0  0  0  0
    2.0985    6.2545    1.6759 H   0  0  0  0  0  0  0  0  0  0  0  0
    1.0373    3.6350    2.9256 H   0  0  0  0  0  0  0  0  0  0  0  0
    2.0124    4.8942    3.7862 H   0  0  0  0  0  0  0  0  0  0  0  0
    0.3577    5.2916    3.1771 H   0  0  0  0  0  0  0  0  0  0  0  0
    4.4758    5.8557    2.1057 H   0  0  0  0  0  0  0  0  0  0  0  0
    6.4849    4.5220    1.6790 H   0  0  0  0  0  0  0  0  0  0  0  0
    5.9950    0.9867   -2.0011 H   0  0  0  0  0  0  0  0  0  0  0  0
    7.7943    1.8592    4.6885 H   0  0  0  0  0  0  0  0  0  0  0  0
    7.3719    0.5637    6.8726 H   0  0  0  0  0  0  0  0  0  0  0  0
    6.0199   -1.9128   10.9159 H   0  0  0  0  0  0  0  0  0  0  0  0
    5.3987   -3.5290   10.6930 H   0  0  0  0  0  0  0  0  0  0  0  0
    7.8512   -4.3732   10.5717 H   0  0  0  0  0  0  0  0  0  0  0  0
    8.3780   -2.6705   10.8561 H   0  0  0  0  0  0  0  0  0  0  0  0
    7.4387   -3.5460   12.1223 H   0  0  0  0  0  0  0  0  0  0  0  0
  1  2  2  3
  2  3  1  0
  3  4  2  0
  3  5  1  0
  5  6  2  0
  6  7  1  0
  7  8  2  0
  8  9  1  0
  9 10  2  0
 10 11  1  0
 11 12  2  3
 12 13  1  0
 13 14  3  0
 12 15  1  0
 15 16  3  0
  8 17  1  0
 17 18  1  0
 18 19  1  0
 19 20  2  0
 20 21  1  0
 21 22  1  0
 21 23  1  0
  1 24  1  0
 24 25  1  0
 25 26  1  0
 26 27  1  0
 27 28  2  0
 28 29  1  0
 29 30  1  0
 30 31  1  0
 31 32  2  0
 32 33  1  0
 33 34  2  0
 34 35  1  0
 35 36  1  0
 34 37  1  0
 37 38  2  0
 30 39  1  0
 39 40  2  0
 40 41  1  0
 41 42  2  0
 42 43  1  0
 43 44  1  0
 42 45  1  0
 45 46  2  0
 30 47  1  0
 47 48  1  0
 28 49  1  0
 49 50  2  0
 50 51  1  0
 50 52  1  0
 52 53  2  0
 53 54  1  0
 54 55  2  0
 55 56  1  0
 56 57  2  0
 57 58  1  0
 58 59  1  0
 59 60  1  0
 58 61  2  0
 53 62  1  0
 62 63  1  0
 63 64  1  0
 64 65  1  0
 65 66  1  0
 66 67  1  0
 67 68  2  0
 68 69  1  0
 69 70  1  0
 67 71  1  0
 71 72  1  0
 72 73  1  0
 73 74  1  0
 74 75  1  0
 75 76  1  0
 76 77  2  0
 77 78  1  0
 78 79  2  0
 79 80  1  0
 80 81  1  0
 81 82  1  0
 80 83  2  0
 75 84  2  0
 84 85  1  0
 85 86  1  0
 86 87  1  0
 87 88  1  0
 88 89  1  0
 89 90  1  0
 90 91  1  0
 91 92  1  0
 92 93  1  0
 93 94  1  0
 91 95  1  0
 95 96  1  0
 88 97  1  0
 97 98  1  0
 84 99  1  0
 99100  1  0
100101  1  0
101102  1  0
102103  2  0
103104  1  0
104105  1  0
105106  1  0
106107  2  0
107108  1  0
108109  2  0
109110  1  0
110111  1  0
109112  1  0
112113  2  0
105114  1  0
114115  2  0
115116  1  0
116117  2  0
117118  1  0
118119  1  0
117120  1  0
120121  2  0
105122  1  0
122123  1  0
103124  1  0
124125  2  0
125126  1  0
125127  1  0
127128  2  3
128129  1  0
129130  1  0
130131  2  3
131132  1  0
132133  3  0
131134  1  0
134135  3  0
130136  1  0
136137  1  0
137138  1  0
136139  1  0
139140  2  0
 11  2  1  0
 23 17  1  0
 48 24  2  0
 94 52  1  0
123 99  2  0
139128  1  0
 10  5  1  0
 22 18  1  0
 47 26  2  0
 61 54  1  0
 93 62  2  0
122101  2  0
 23  7  1  0
 51 27  1  0
 92 64  2  0
126102  1  0
 38 31  1  0
 46 39  1  0
 90 65  2  0
113106  1  0
121114  1  0
 70 66  2  0
 89 71  2  0
 87 72  2  0
 86 74  2  0
 83 76  1  0
  1141  1  0
  6142  1  0
  9143  1  0
 17144  1  0
 18145  1  0
 19146  1  0
 20147  1  0
 21148  1  0
 22149  1  0
 22150  1  0
 23151  1  0
 32152  1  0
 33153  1  0
 35154  1  0
 35155  1  0
 36156  1  0
 36157  1  0
 36158  1  0
 37159  1  0
 38160  1  0
 40161  1  0
 41162  1  0
 43163  1  0
 43164  1  0
 44165  1  0
 44166  1  0
 44167  1  0
 45168  1  0
 46169  1  0
 48170  1  0
 49171  1  0
 55172  1  0
 56173  1  0
 57174  1  0
 59175  1  0
 59176  1  0
 60177  1  0
 60178  1  0
 60179  1  0
 61180  1  0
 77181  1  0
 78182  1  0
 79183  1  0
 81184  1  0
 81185  1  0
 82186  1  0
 82187  1  0
 82188  1  0
 83189  1  0
 95190  1  0
 95191  1  0
 96192  1  0
 96193  1  0
 96194  1  0
 97195  1  0
 97196  1  0
 98197  1  0
 98198  1  0
 98199  1  0
107200  1  0
108201  1  0
110202  1  0
110203  1  0
111204  1  0
111205  1  0
111206  1  0
112207  1  0
113208  1  0
115209  1  0
116210  1  0
118211  1  0
118212  1  0
119213  1  0
119214  1  0
119215  1  0
120216  1  0
121217  1  0
123218  1  0
124219  1  0
127220  1  0
137221  1  0
137222  1  0
138223  1  0
138224  1  0
138225  1  0
M  END

