
     RDKit          3D

165188  0  0  0  0  0  0  0  0999 V2000
   -6.3815    2.9880    3.2312 C   0  0  0  0  0  0  0  0  0  0  0  0
   -6.3610    1.6942    2.8537 C   0  0  0  0  0  0  0  0  0  0  0  0
   -5.3333    1.0649    2.0078 C   0  0  0  0  0  0  0  0  0  0  0  0
   -4.4967    1.6589    1.2749 O   0  0  0  0  0  0  0  0  0  0  0  0
   -5.3892   -0.3690    2.1987 C   0  0  0  0  0  0  0  0  0  0  0  0
   -4.5192   -1.3358    1.6430 C   0  0  0  0  0  0  0  0  0  0  0  0
   -4.7574   -2.6219    2.0833 C   0  0  0  0  0  0  0  0  0  0  0  0
   -5.7832   -2.9486    3.0260 C   0  0  0  0  0  0  0  0  0  0  0  0
   -6.6412   -2.0056    3.5702 C   0  0  0  0  0  0  0  0  0  0  0  0
   -6.4331   -0.6752    3.1076 C   0  0  0  0  0  0  0  0  0  0  0  0
   -7.1572    0.5835    3.4583 C   0  0  0  0  0  0  0  0  0  0  0  0
   -8.4046    0.6867    3.9802 C   0  0  0  0  0  0  0  0  0  0  0  0
   -9.1390    1.9281    3.9665 C   0  0  0  0  0  0  0  0  0  0  0  0
   -9.7349    2.9175    3.9378 N   0  0  0  0  0  0  0  0  0  0  0  0
   -9.1430   -0.4487    4.4710 C   0  0  0  0  0  0  0  0  0  0  0  0
   -9.7522   -1.3519    4.8691 N   0  0  0  0  0  0  0  0  0  0  0  0
   -5.3824   -4.3940    2.9820 C   0  0  0  0  0  0  0  0  0  0  0  0
   -6.3215   -5.3547    2.1935 C   0  0  0  0  0  0  0  0  0  0  0  0
   -5.5194   -6.6133    1.9560 C   0  0  0  0  0  0  0  0  0  0  0  0
   -4.5744   -6.2979    1.0643 C   0  0  0  0  0  0  0  0  0  0  0  0
   -4.7662   -4.8372    0.7326 C   0  0  0  0  0  0  0  0  0  0  0  0
   -6.2855   -4.7857    0.7848 C   0  0  0  0  0  0  0  0  0  0  0  0
   -4.3406   -4.0578    2.0075 C   0  0  0  0  0  0  0  0  0  0  0  0
   -5.4344    3.9916    2.7018 C   0  0  0  0  0  0  0  0  0  0  0  0
   -4.4019    4.4671    3.5249 C   0  0  0  0  0  0  0  0  0  0  0  0
   -4.3267    4.0643    4.8193 F   0  0  0  0  0  0  0  0  0  0  0  0
   -3.3810    5.2732    3.0019 C   0  0  0  0  0  0  0  0  0  0  0  0
   -2.3259    5.5721    3.8028 F   0  0  0  0  0  0  0  0  0  0  0  0
   -3.3858    5.6597    1.6422 C   0  0  0  0  0  0  0  0  0  0  0  0
   -4.4624    5.2550    0.8362 C   0  0  0  0  0  0  0  0  0  0  0  0
   -5.4909    4.4223    1.3697 C   0  0  0  0  0  0  0  0  0  0  0  0
   -6.4722    4.0387    0.5114 N   0  0  0  0  0  0  0  0  0  0  0  0
   -5.9669    4.7918   -0.8710 S   0  0  0  0  0  0  0  0  0  0  0  0
   -4.5681    5.5799   -0.4790 N   0  0  0  0  0  0  0  0  0  0  0  0
   -2.1622    6.2322    1.0320 C   0  0  0  0  0  0  0  0  0  0  0  0
   -1.3078    7.1965    1.6131 C   0  0  0  0  0  0  0  0  0  0  0  0
   -1.7279    8.1610    2.6585 C   0  0  0  0  0  0  0  0  0  0  0  0
   -0.9069    8.4473    3.7596 C   0  0  0  0  0  0  0  0  0  0  0  0
   -1.3087    9.3827    4.7149 C   0  0  0  0  0  0  0  0  0  0  0  0
   -2.5417   10.0281    4.5907 C   0  0  0  0  0  0  0  0  0  0  0  0
   -3.3907    9.7319    3.5156 C   0  0  0  0  0  0  0  0  0  0  0  0
   -4.7126   10.4394    3.3743 C   0  0  0  0  0  0  0  0  0  0  0  0
   -4.5584   11.7353    2.5863 C   0  0  0  0  0  0  0  0  0  0  0  0
   -2.9721    8.8091    2.5432 C   0  0  0  0  0  0  0  0  0  0  0  0
   -0.0231    7.1270    1.0457 C   0  0  0  0  0  0  0  0  0  0  0  0
    1.5021    7.6756    1.5686 S   0  0  0  0  0  0  0  0  0  0  0  0
    2.3155    6.7176    0.4307 C   0  0  0  0  0  0  0  0  0  0  0  0
    3.5144    6.0501    0.4457 C   0  0  0  0  0  0  0  0  0  0  0  0
    4.5035    6.0090    1.4472 C   0  0  0  0  0  0  0  0  0  0  0  0
    5.4103    4.9004    1.4839 C   0  0  0  0  0  0  0  0  0  0  0  0
    6.2989    4.8581    2.5059 N   0  0  0  0  0  0  0  0  0  0  0  0
    5.8501    6.2355    3.3131 S   0  0  0  0  0  0  0  0  0  0  0  0
    4.5976    6.9046    2.4602 N   0  0  0  0  0  0  0  0  0  0  0  0
    5.3354    3.9461    0.4642 C   0  0  0  0  0  0  0  0  0  0  0  0
    6.0252    2.7842    0.2139 C   0  0  0  0  0  0  0  0  0  0  0  0
    6.9054    1.6104    1.0766 S   0  0  0  0  0  0  0  0  0  0  0  0
    6.6660    0.4531   -0.1683 C   0  0  0  0  0  0  0  0  0  0  0  0
    6.8564   -0.9334   -0.2707 C   0  0  0  0  0  0  0  0  0  0  0  0
    7.4667   -1.7928    0.7674 C   0  0  0  0  0  0  0  0  0  0  0  0
    7.1219   -1.6385    2.1201 C   0  0  0  0  0  0  0  0  0  0  0  0
    7.6159   -2.5281    3.0783 C   0  0  0  0  0  0  0  0  0  0  0  0
    8.4463   -3.5842    2.6948 C   0  0  0  0  0  0  0  0  0  0  0  0
    8.8169   -3.7424    1.3505 C   0  0  0  0  0  0  0  0  0  0  0  0
    9.6601   -4.9141    0.9170 C   0  0  0  0  0  0  0  0  0  0  0  0
    8.7807   -6.0398    0.3789 C   0  0  0  0  0  0  0  0  0  0  0  0
    8.3240   -2.8448    0.3938 C   0  0  0  0  0  0  0  0  0  0  0  0
    6.2646   -1.4233   -1.4599 C   0  0  0  0  0  0  0  0  0  0  0  0
    5.4834   -0.1577   -2.2933 S   0  0  0  0  0  0  0  0  0  0  0  0
    5.9413    1.0015   -1.1974 C   0  0  0  0  0  0  0  0  0  0  0  0
    5.5520    2.2985   -0.9595 C   0  0  0  0  0  0  0  0  0  0  0  0
    4.5561    3.0451   -1.4823 N   0  0  0  0  0  0  0  0  0  0  0  0
    4.3837    4.0315   -0.5582 C   0  0  0  0  0  0  0  0  0  0  0  0
    3.3625    4.9967   -0.4654 C   0  0  0  0  0  0  0  0  0  0  0  0
    2.0518    4.8571   -0.8403 N   0  0  0  0  0  0  0  0  0  0  0  0
    1.4528    5.9635   -0.3164 C   0  0  0  0  0  0  0  0  0  0  0  0
    0.1246    6.1993    0.0451 C   0  0  0  0  0  0  0  0  0  0  0  0
   -1.3140    5.3736   -0.1667 S   0  0  0  0  0  0  0  0  0  0  0  0
    1.3484    3.5711   -1.0224 C   0  0  0  0  0  0  0  0  0  0  0  0
    1.1086    2.8821    0.3231 C   0  0  0  0  0  0  0  0  0  0  0  0
    4.1028    3.0260   -2.8813 C   0  0  0  0  0  0  0  0  0  0  0  0
    5.2468    3.3496   -3.8396 C   0  0  0  0  0  0  0  0  0  0  0  0
    5.9765   -2.8229   -1.8200 C   0  0  0  0  0  0  0  0  0  0  0  0
    5.1507   -3.6097   -0.9915 C   0  0  0  0  0  0  0  0  0  0  0  0
    4.8854   -3.2147    0.2771 F   0  0  0  0  0  0  0  0  0  0  0  0
    4.4722   -4.7230   -1.5142 C   0  0  0  0  0  0  0  0  0  0  0  0
    3.5903   -5.3851   -0.7277 F   0  0  0  0  0  0  0  0  0  0  0  0
    4.5851   -5.0520   -2.8757 C   0  0  0  0  0  0  0  0  0  0  0  0
    5.5083   -4.3617   -3.6685 C   0  0  0  0  0  0  0  0  0  0  0  0
    6.2127   -3.2467   -3.1368 C   0  0  0  0  0  0  0  0  0  0  0  0
    7.0202   -2.5716   -3.9968 N   0  0  0  0  0  0  0  0  0  0  0  0
    6.7905   -3.4533   -5.3773 S   0  0  0  0  0  0  0  0  0  0  0  0
    5.7059   -4.6364   -4.9850 N   0  0  0  0  0  0  0  0  0  0  0  0
    3.5624   -5.9001   -3.5117 C   0  0  0  0  0  0  0  0  0  0  0  0
    2.4787   -5.3560   -4.1110 C   0  0  0  0  0  0  0  0  0  0  0  0
    2.1088   -3.9288   -4.0696 C   0  0  0  0  0  0  0  0  0  0  0  0
    2.8100   -2.9786   -3.6336 O   0  0  0  0  0  0  0  0  0  0  0  0
    0.7585   -3.7855   -4.5733 C   0  0  0  0  0  0  0  0  0  0  0  0
   -0.0223   -2.6085   -4.5908 C   0  0  0  0  0  0  0  0  0  0  0  0
   -1.3192   -2.8054   -5.0176 C   0  0  0  0  0  0  0  0  0  0  0  0
   -1.8352   -4.0862   -5.3906 C   0  0  0  0  0  0  0  0  0  0  0  0
   -1.0763   -5.2460   -5.3679 C   0  0  0  0  0  0  0  0  0  0  0  0
    0.2774   -5.0571   -4.9681 C   0  0  0  0  0  0  0  0  0  0  0  0
    1.3651   -6.0645   -4.8166 C   0  0  0  0  0  0  0  0  0  0  0  0
    1.4526   -7.2428   -5.4838 C   0  0  0  0  0  0  0  0  0  0  0  0
    2.6446   -8.0503   -5.4755 C   0  0  0  0  0  0  0  0  0  0  0  0
    3.5973   -8.7089   -5.4768 N   0  0  0  0  0  0  0  0  0  0  0  0
    0.4381   -7.6786   -6.4062 C   0  0  0  0  0  0  0  0  0  0  0  0
   -0.3552   -8.0354   -7.1661 N   0  0  0  0  0  0  0  0  0  0  0  0
   -3.1869   -3.4847   -5.6499 C   0  0  0  0  0  0  0  0  0  0  0  0
   -4.3177   -3.7597   -4.6137 C   0  0  0  0  0  0  0  0  0  0  0  0
   -3.7238   -3.9551   -3.2376 C   0  0  0  0  0  0  0  0  0  0  0  0
   -3.2351   -2.7712   -2.8683 C   0  0  0  0  0  0  0  0  0  0  0  0
   -3.5187   -1.8086   -3.9981 C   0  0  0  0  0  0  0  0  0  0  0  0
   -4.8639   -2.3526   -4.4377 C   0  0  0  0  0  0  0  0  0  0  0  0
   -2.6596   -2.1763   -5.2481 C   0  0  0  0  0  0  0  0  0  0  0  0
   -6.9932    3.2995    4.0627 H   0  0  0  0  0  0  0  0  0  0  0  0
   -3.7238   -1.0913    0.9500 H   0  0  0  0  0  0  0  0  0  0  0  0
   -7.3673   -2.2899    4.3116 H   0  0  0  0  0  0  0  0  0  0  0  0
   -5.0002   -4.7823    3.9524 H   0  0  0  0  0  0  0  0  0  0  0  0
   -7.3297   -5.5119    2.6296 H   0  0  0  0  0  0  0  0  0  0  0  0
   -5.7078   -7.6049    2.3534 H   0  0  0  0  0  0  0  0  0  0  0  0
   -3.8676   -6.9856    0.6158 H   0  0  0  0  0  0  0  0  0  0  0  0
   -4.3010   -4.4987   -0.2144 H   0  0  0  0  0  0  0  0  0  0  0  0
   -6.7776   -5.4459    0.0282 H   0  0  0  0  0  0  0  0  0  0  0  0
   -6.7105   -3.7620    0.6960 H   0  0  0  0  0  0  0  0  0  0  0  0
   -3.3022   -4.2413    2.3636 H   0  0  0  0  0  0  0  0  0  0  0  0
    0.0322    7.9374    3.8981 H   0  0  0  0  0  0  0  0  0  0  0  0
   -0.6683    9.6032    5.5568 H   0  0  0  0  0  0  0  0  0  0  0  0
   -2.8360   10.7551    5.3373 H   0  0  0  0  0  0  0  0  0  0  0  0
   -5.1335   10.6693    4.3777 H   0  0  0  0  0  0  0  0  0  0  0  0
   -5.4474    9.7829    2.8567 H   0  0  0  0  0  0  0  0  0  0  0  0
   -4.2051   11.5247    1.5544 H   0  0  0  0  0  0  0  0  0  0  0  0
   -5.5421   12.2456    2.5174 H   0  0  0  0  0  0  0  0  0  0  0  0
   -3.8392   12.4155    3.0935 H   0  0  0  0  0  0  0  0  0  0  0  0
   -3.6083    8.6055    1.6923 H   0  0  0  0  0  0  0  0  0  0  0  0
    6.4404   -0.8622    2.4329 H   0  0  0  0  0  0  0  0  0  0  0  0
    7.3303   -2.4166    4.1173 H   0  0  0  0  0  0  0  0  0  0  0  0
    8.7972   -4.2808    3.4455 H   0  0  0  0  0  0  0  0  0  0  0  0
   10.2564   -5.3048    1.7684 H   0  0  0  0  0  0  0  0  0  0  0  0
   10.3755   -4.5960    0.1289 H   0  0  0  0  0  0  0  0  0  0  0  0
    9.4233   -6.8781    0.0306 H   0  0  0  0  0  0  0  0  0  0  0  0
    8.1152   -6.4239    1.1822 H   0  0  0  0  0  0  0  0  0  0  0  0
    8.1621   -5.6841   -0.4719 H   0  0  0  0  0  0  0  0  0  0  0  0
    8.5907   -2.9817   -0.6465 H   0  0  0  0  0  0  0  0  0  0  0  0
    0.3859    3.7309   -1.5450 H   0  0  0  0  0  0  0  0  0  0  0  0
    1.9135    2.8685   -1.6419 H   0  0  0  0  0  0  0  0  0  0  0  0
    0.4569    1.9964    0.1782 H   0  0  0  0  0  0  0  0  0  0  0  0
    2.0772    2.5499    0.7573 H   0  0  0  0  0  0  0  0  0  0  0  0
    0.6220    3.5714    1.0428 H   0  0  0  0  0  0  0  0  0  0  0  0
    3.6832    2.0232   -3.1341 H   0  0  0  0  0  0  0  0  0  0  0  0
    3.3112    3.7838   -3.0466 H   0  0  0  0  0  0  0  0  0  0  0  0
    6.0929    2.6554   -3.7069 H   0  0  0  0  0  0  0  0  0  0  0  0
    5.6009    4.3882   -3.6730 H   0  0  0  0  0  0  0  0  0  0  0  0
    4.8889    3.2668   -4.8866 H   0  0  0  0  0  0  0  0  0  0  0  0
    3.6693   -6.9674   -3.4076 H   0  0  0  0  0  0  0  0  0  0  0  0
    0.3492   -1.6471   -4.2689 H   0  0  0  0  0  0  0  0  0  0  0  0
   -1.5148   -6.2019   -5.5951 H   0  0  0  0  0  0  0  0  0  0  0  0
   -3.5097   -3.5297   -6.7140 H   0  0  0  0  0  0  0  0  0  0  0  0
   -5.0656   -4.5207   -4.9193 H   0  0  0  0  0  0  0  0  0  0  0  0
   -3.7550   -4.8533   -2.6307 H   0  0  0  0  0  0  0  0  0  0  0  0
   -2.7959   -2.5453   -1.9012 H   0  0  0  0  0  0  0  0  0  0  0  0
   -3.5100   -0.7356   -3.7156 H   0  0  0  0  0  0  0  0  0  0  0  0
   -5.2344   -1.8978   -5.3902 H   0  0  0  0  0  0  0  0  0  0  0  0
   -5.6524   -2.2758   -3.6548 H   0  0  0  0  0  0  0  0  0  0  0  0
   -2.6684   -1.4171   -6.0623 H   0  0  0  0  0  0  0  0  0  0  0  0
  1  2  2  3
  2  3  1  0
  3  4  2  0
  3  5  1  0
  5  6  2  0
  6  7  1  0
  7  8  2  0
  8  9  1  0
  9 10  2  0
 10 11  1  0
 11 12  2  3
 12 13  1  0
 13 14  3  0
 12 15  1  0
 15 16  3  0
  8 17  1  0
 17 18  1  0
 18 19  1  0
 19 20  2  0
 20 21  1  0
 21 22  1  0
 21 23  1  0
  1 24  1  0
 24 25  2  0
 25 26  1  0
 25 27  1  0
 27 28  1  0
 27 29  2  0
 29 30  1  0
 30 31  1  0
 31 32  2  0
 32 33  1  0
 33 34  1  0
 29 35  1  0
 35 36  2  0
 36 37  1  0
 37 38  2  0
 38 39  1  0
 39 40  2  0
 40 41  1  0
 41 42  1  0
 42 43  1  0
 41 44  2  0
 36 45  1  0
 45 46  1  0
 46 47  1  0
 47 48  1  0
 48 49  1  0
 49 50  1  0
 50 51  2  0
 51 52  1  0
 52 53  1  0
 50 54  1  0
 54 55  1  0
 55 56  1  0
 56 57  1  0
 57 58  1  0
 58 59  1  0
 59 60  2  0
 60 61  1  0
 61 62  2  0
 62 63  1  0
 63 64  1  0
 64 65  1  0
 63 66  2  0
 58 67  2  0
 67 68  1  0
 68 69  1  0
 69 70  1  0
 70 71  1  0
 71 72  1  0
 72 73  1  0
 73 74  1  0
 74 75  1  0
 75 76  1  0
 76 77  1  0
 74 78  1  0
 78 79  1  0
 71 80  1  0
 80 81  1  0
 67 82  1  0
 82 83  2  0
 83 84  1  0
 83 85  1  0
 85 86  1  0
 85 87  2  0
 87 88  1  0
 88 89  1  0
 89 90  2  0
 90 91  1  0
 91 92  1  0
 87 93  1  0
 93 94  2  3
 94 95  1  0
 95 96  2  0
 95 97  1  0
 97 98  2  0
 98 99  1  0
 99100  2  0
100101  1  0
101102  2  0
102103  1  0
103104  2  3
104105  1  0
105106  3  0
104107  1  0
107108  3  0
100109  1  0
109110  1  0
110111  1  0
111112  2  0
112113  1  0
113114  1  0
113115  1  0
 11  2  1  0
 23 17  1  0
 31 24  1  0
 77 35  1  0
 89 82  1  0
103 94  1  0
115109  1  0
 10  5  1  0
 22 18  1  0
 34 30  2  0
 44 37  1  0
 76 45  2  0
 92 88  2  0
102 97  1  0
114110  1  0
 23  7  1  0
 75 47  2  0
115 99  1  0
 73 48  2  0
 53 49  2  0
 72 54  2  0
 70 55  2  0
 69 57  2  0
 66 59  1  0
  1116  1  0
  6117  1  0
  9118  1  0
 17119  1  0
 18120  1  0
 19121  1  0
 20122  1  0
 21123  1  0
 22124  1  0
 22125  1  0
 23126  1  0
 38127  1  0
 39128  1  0
 40129  1  0
 42130  1  0
 42131  1  0
 43132  1  0
 43133  1  0
 43134  1  0
 44135  1  0
 60136  1  0
 61137  1  0
 62138  1  0
 64139  1  0
 64140  1  0
 65141  1  0
 65142  1  0
 65143  1  0
 66144  1  0
 78145  1  0
 78146  1  0
 79147  1  0
 79148  1  0
 79149  1  0
 80150  1  0
 80151  1  0
 81152  1  0
 81153  1  0
 81154  1  0
 93155  1  0
 98156  1  0
101157  1  0
109158  1  0
110159  1  0
111160  1  0
112161  1  0
113162  1  0
114163  1  0
114164  1  0
115165  1  0
M  END

