
     RDKit          3D

185208  0  0  0  0  0  0  0  0999 V2000
    1.2048   -4.3421   -6.8923 C   0  0  0  0  0  0  0  0  0  0  0  0
    1.7256   -3.4150   -7.7111 C   0  0  0  0  0  0  0  0  0  0  0  0
    2.5066   -3.8365   -8.8983 C   0  0  0  0  0  0  0  0  0  0  0  0
    3.0515   -4.9708   -9.1108 O   0  0  0  0  0  0  0  0  0  0  0  0
    2.6082   -2.7175   -9.7956 C   0  0  0  0  0  0  0  0  0  0  0  0
    3.3030   -2.6709  -11.0407 C   0  0  0  0  0  0  0  0  0  0  0  0
    3.1103   -1.4932  -11.6990 C   0  0  0  0  0  0  0  0  0  0  0  0
    2.2717   -0.4292  -11.2000 C   0  0  0  0  0  0  0  0  0  0  0  0
    1.6687   -0.4406   -9.9497 C   0  0  0  0  0  0  0  0  0  0  0  0
    1.9345   -1.6259   -9.2123 C   0  0  0  0  0  0  0  0  0  0  0  0
    1.6011   -1.9394   -7.7909 C   0  0  0  0  0  0  0  0  0  0  0  0
    1.8362   -1.0757   -6.7814 C   0  0  0  0  0  0  0  0  0  0  0  0
    1.9657   -1.4639   -5.4216 C   0  0  0  0  0  0  0  0  0  0  0  0
    2.1166   -1.7300   -4.2892 N   0  0  0  0  0  0  0  0  0  0  0  0
    2.2945    0.2835   -7.0625 C   0  0  0  0  0  0  0  0  0  0  0  0
    2.8413    1.2750   -7.2621 N   0  0  0  0  0  0  0  0  0  0  0  0
    2.2920    0.2171  -12.5614 C   0  0  0  0  0  0  0  0  0  0  0  0
    1.0859   -0.0173  -13.5337 C   0  0  0  0  0  0  0  0  0  0  0  0
    0.5408   -1.4380  -13.4060 C   0  0  0  0  0  0  0  0  0  0  0  0
    1.4747   -2.2622  -13.9144 C   0  0  0  0  0  0  0  0  0  0  0  0
    2.6559   -1.4033  -14.2827 C   0  0  0  0  0  0  0  0  0  0  0  0
    1.8749   -0.2113  -14.8222 C   0  0  0  0  0  0  0  0  0  0  0  0
    3.2902   -0.7646  -12.9953 C   0  0  0  0  0  0  0  0  0  0  0  0
    0.7018   -4.2010   -5.5035 C   0  0  0  0  0  0  0  0  0  0  0  0
   -0.7019   -3.4572   -4.9306 S   0  0  0  0  0  0  0  0  0  0  0  0
   -0.7222   -4.1209   -3.3793 C   0  0  0  0  0  0  0  0  0  0  0  0
    0.3496   -5.0305   -3.3247 C   0  0  0  0  0  0  0  0  0  0  0  0
    0.5595   -6.0458   -2.2539 C   0  0  0  0  0  0  0  0  0  0  0  0
   -0.2076   -6.1093   -1.2618 O   0  0  0  0  0  0  0  0  0  0  0  0
    1.6189   -7.0568   -2.4538 C   0  0  0  0  0  0  0  0  0  0  0  0
    1.8377   -8.1691   -1.6492 C   0  0  0  0  0  0  0  0  0  0  0  0
    1.0321   -8.5729   -0.4478 C   0  0  0  0  0  0  0  0  0  0  0  0
   -0.3765   -9.0527   -0.8358 C   0  0  0  0  0  0  0  0  0  0  0  0
    3.0246   -9.1245   -2.3477 S   0  0  0  0  0  0  0  0  0  0  0  0
    3.3032   -8.1466   -3.6975 C   0  0  0  0  0  0  0  0  0  0  0  0
    4.2107   -8.4989   -4.8331 C   0  0  0  0  0  0  0  0  0  0  0  0
    5.5814   -7.8474   -4.6617 C   0  0  0  0  0  0  0  0  0  0  0  0
    2.4522   -7.0428   -3.6056 C   0  0  0  0  0  0  0  0  0  0  0  0
    2.3236   -5.9858   -4.6273 C   0  0  0  0  0  0  0  0  0  0  0  0
    3.1792   -5.8416   -5.5450 O   0  0  0  0  0  0  0  0  0  0  0  0
    1.1680   -5.0553   -4.4997 C   0  0  0  0  0  0  0  0  0  0  0  0
   -1.5755   -3.7485   -2.2121 C   0  0  0  0  0  0  0  0  0  0  0  0
   -2.9904   -3.7661   -2.1375 C   0  0  0  0  0  0  0  0  0  0  0  0
   -3.8909   -3.5707   -3.3070 C   0  0  0  0  0  0  0  0  0  0  0  0
   -3.8380   -4.4010   -4.4546 C   0  0  0  0  0  0  0  0  0  0  0  0
   -4.6317   -4.0795   -5.5716 C   0  0  0  0  0  0  0  0  0  0  0  0
   -5.4591   -2.9437   -5.5547 C   0  0  0  0  0  0  0  0  0  0  0  0
   -5.5258   -2.1287   -4.4042 C   0  0  0  0  0  0  0  0  0  0  0  0
   -6.3892   -0.8970   -4.3360 C   0  0  0  0  0  0  0  0  0  0  0  0
   -5.5531    0.3718   -4.4708 C   0  0  0  0  0  0  0  0  0  0  0  0
   -4.7310   -2.4486   -3.2901 C   0  0  0  0  0  0  0  0  0  0  0  0
   -3.4353   -3.5877   -0.8172 C   0  0  0  0  0  0  0  0  0  0  0  0
   -4.9834   -3.3225   -0.0998 S   0  0  0  0  0  0  0  0  0  0  0  0
   -4.2432   -2.9268    1.3987 C   0  0  0  0  0  0  0  0  0  0  0  0
   -4.5590   -2.3675    2.6253 C   0  0  0  0  0  0  0  0  0  0  0  0
   -5.7797   -2.0379    3.2318 C   0  0  0  0  0  0  0  0  0  0  0  0
   -5.7603   -1.2413    4.4360 C   0  0  0  0  0  0  0  0  0  0  0  0
   -6.9633   -0.8932    4.9534 N   0  0  0  0  0  0  0  0  0  0  0  0
   -7.9575   -1.6249    3.8461 S   0  0  0  0  0  0  0  0  0  0  0  0
   -6.9967   -2.3635    2.7157 N   0  0  0  0  0  0  0  0  0  0  0  0
   -4.5186   -0.8052    4.9377 C   0  0  0  0  0  0  0  0  0  0  0  0
   -4.2451    0.2361    5.8227 C   0  0  0  0  0  0  0  0  0  0  0  0
   -5.0867    1.5602    6.5433 S   0  0  0  0  0  0  0  0  0  0  0  0
   -3.6395    2.4588    6.6779 C   0  0  0  0  0  0  0  0  0  0  0  0
   -3.3341    3.7812    7.0682 C   0  0  0  0  0  0  0  0  0  0  0  0
   -4.2756    4.6311    7.8076 C   0  0  0  0  0  0  0  0  0  0  0  0
   -4.9236    4.1553    8.9495 C   0  0  0  0  0  0  0  0  0  0  0  0
   -5.8176    4.9712    9.6767 C   0  0  0  0  0  0  0  0  0  0  0  0
   -6.0818    6.2831    9.2409 C   0  0  0  0  0  0  0  0  0  0  0  0
   -5.4697    6.7610    8.0844 C   0  0  0  0  0  0  0  0  0  0  0  0
   -5.6936    8.1959    7.6456 C   0  0  0  0  0  0  0  0  0  0  0  0
   -4.8318    9.1343    8.4842 C   0  0  0  0  0  0  0  0  0  0  0  0
   -4.5479    5.9562    7.3596 C   0  0  0  0  0  0  0  0  0  0  0  0
   -1.9940    4.1101    6.7330 C   0  0  0  0  0  0  0  0  0  0  0  0
   -1.2154    2.7527    6.0374 S   0  0  0  0  0  0  0  0  0  0  0  0
   -2.5666    1.7742    6.1311 C   0  0  0  0  0  0  0  0  0  0  0  0
   -2.9203    0.5235    5.6674 C   0  0  0  0  0  0  0  0  0  0  0  0
   -2.3167   -0.2841    4.7671 N   0  0  0  0  0  0  0  0  0  0  0  0
   -3.3026   -1.1403    4.3259 C   0  0  0  0  0  0  0  0  0  0  0  0
   -3.3119   -2.0172    3.2109 C   0  0  0  0  0  0  0  0  0  0  0  0
   -2.2882   -2.4917    2.4404 N   0  0  0  0  0  0  0  0  0  0  0  0
   -2.8900   -2.9697    1.3240 C   0  0  0  0  0  0  0  0  0  0  0  0
   -2.4233   -3.3661    0.0749 C   0  0  0  0  0  0  0  0  0  0  0  0
   -0.9276   -3.3642   -0.6724 S   0  0  0  0  0  0  0  0  0  0  0  0
   -0.9474   -2.8858    2.8538 C   0  0  0  0  0  0  0  0  0  0  0  0
   -0.7919   -4.4029    2.9082 C   0  0  0  0  0  0  0  0  0  0  0  0
   -0.9588   -0.0349    4.2365 C   0  0  0  0  0  0  0  0  0  0  0  0
    0.1184   -0.5376    5.2184 C   0  0  0  0  0  0  0  0  0  0  0  0
   -1.3068    5.4137    6.8789 C   0  0  0  0  0  0  0  0  0  0  0  0
   -1.4194    6.4593    5.9465 C   0  0  0  0  0  0  0  0  0  0  0  0
   -0.2375    7.2525    5.8038 C   0  0  0  0  0  0  0  0  0  0  0  0
   -0.0118    8.6397    4.6237 S   0  0  0  0  0  0  0  0  0  0  0  0
   -1.4184    8.3976    3.4752 C   0  0  0  0  0  0  0  0  0  0  0  0
   -1.2584    7.1649    2.5846 C   0  0  0  0  0  0  0  0  0  0  0  0
    0.7820    6.8194    6.6506 C   0  0  0  0  0  0  0  0  0  0  0  0
    0.2158    5.5197    7.5730 S   0  0  0  0  0  0  0  0  0  0  0  0
    2.1886    7.2683    6.6776 C   0  0  0  0  0  0  0  0  0  0  0  0
    3.2380    6.4290    6.4815 C   0  0  0  0  0  0  0  0  0  0  0  0
    3.1819    5.0920    5.8679 C   0  0  0  0  0  0  0  0  0  0  0  0
    2.1477    4.4707    5.4716 O   0  0  0  0  0  0  0  0  0  0  0  0
    4.5126    4.6001    5.6724 C   0  0  0  0  0  0  0  0  0  0  0  0
    4.8526    3.2783    5.2589 C   0  0  0  0  0  0  0  0  0  0  0  0
    6.2082    3.0255    5.3427 C   0  0  0  0  0  0  0  0  0  0  0  0
    7.1780    4.0135    5.7643 C   0  0  0  0  0  0  0  0  0  0  0  0
    6.8450    5.3180    6.1304 C   0  0  0  0  0  0  0  0  0  0  0  0
    5.4412    5.5879    6.1014 C   0  0  0  0  0  0  0  0  0  0  0  0
    4.6791    6.7602    6.6734 C   0  0  0  0  0  0  0  0  0  0  0  0
    5.1789    7.5863    7.6408 C   0  0  0  0  0  0  0  0  0  0  0  0
    4.3257    8.0202    8.7317 C   0  0  0  0  0  0  0  0  0  0  0  0
    3.7418    8.1398    9.7353 N   0  0  0  0  0  0  0  0  0  0  0  0
    6.5781    7.7424    7.8988 C   0  0  0  0  0  0  0  0  0  0  0  0
    7.7177    7.8644    8.1517 N   0  0  0  0  0  0  0  0  0  0  0  0
    8.2937    3.0409    5.5618 C   0  0  0  0  0  0  0  0  0  0  0  0
    9.2379    3.2080    4.3158 C   0  0  0  0  0  0  0  0  0  0  0  0
    8.4865    3.8331    3.1636 C   0  0  0  0  0  0  0  0  0  0  0  0
    7.5672    2.9307    2.7638 C   0  0  0  0  0  0  0  0  0  0  0  0
    7.7358    1.7151    3.6538 C   0  0  0  0  0  0  0  0  0  0  0  0
    9.2507    1.7760    3.8021 C   0  0  0  0  0  0  0  0  0  0  0  0
    7.3056    2.0375    5.1231 C   0  0  0  0  0  0  0  0  0  0  0  0
    1.3997   -5.3831   -7.1740 H   0  0  0  0  0  0  0  0  0  0  0  0
    3.8255   -3.5477  -11.4782 H   0  0  0  0  0  0  0  0  0  0  0  0
    1.0248    0.3881   -9.6082 H   0  0  0  0  0  0  0  0  0  0  0  0
    2.6721    1.2748  -12.5305 H   0  0  0  0  0  0  0  0  0  0  0  0
    0.3243    0.7721  -13.5552 H   0  0  0  0  0  0  0  0  0  0  0  0
   -0.3600   -1.7495  -12.9027 H   0  0  0  0  0  0  0  0  0  0  0  0
    1.4371   -3.3565  -13.9515 H   0  0  0  0  0  0  0  0  0  0  0  0
    3.3700   -1.8539  -14.9856 H   0  0  0  0  0  0  0  0  0  0  0  0
    2.5134    0.6638  -15.1122 H   0  0  0  0  0  0  0  0  0  0  0  0
    1.2277   -0.4720  -15.7157 H   0  0  0  0  0  0  0  0  0  0  0  0
    4.3198   -0.3354  -13.1229 H   0  0  0  0  0  0  0  0  0  0  0  0
    1.5716   -9.3610    0.1184 H   0  0  0  0  0  0  0  0  0  0  0  0
    0.9568   -7.7370    0.2577 H   0  0  0  0  0  0  0  0  0  0  0  0
   -1.1545   -8.3867   -0.3897 H   0  0  0  0  0  0  0  0  0  0  0  0
   -0.5353  -10.0841   -0.4418 H   0  0  0  0  0  0  0  0  0  0  0  0
   -0.5280   -9.0616   -1.9482 H   0  0  0  0  0  0  0  0  0  0  0  0
    3.7655   -8.1842   -5.7840 H   0  0  0  0  0  0  0  0  0  0  0  0
    4.3412   -9.6015   -4.8859 H   0  0  0  0  0  0  0  0  0  0  0  0
    6.2060   -8.0991   -5.5388 H   0  0  0  0  0  0  0  0  0  0  0  0
    6.1161   -8.2463   -3.7578 H   0  0  0  0  0  0  0  0  0  0  0  0
    5.5071   -6.7436   -4.5955 H   0  0  0  0  0  0  0  0  0  0  0  0
   -3.2037   -5.2611   -4.4785 H   0  0  0  0  0  0  0  0  0  0  0  0
   -4.5903   -4.6982   -6.4799 H   0  0  0  0  0  0  0  0  0  0  0  0
   -6.0506   -2.7035   -6.4263 H   0  0  0  0  0  0  0  0  0  0  0  0
   -7.1379   -0.9380   -5.1381 H   0  0  0  0  0  0  0  0  0  0  0  0
   -6.9411   -0.8938   -3.3602 H   0  0  0  0  0  0  0  0  0  0  0  0
   -4.9510    0.3545   -5.4077 H   0  0  0  0  0  0  0  0  0  0  0  0
   -4.8830    0.4835   -3.5900 H   0  0  0  0  0  0  0  0  0  0  0  0
   -6.2329    1.2471   -4.4902 H   0  0  0  0  0  0  0  0  0  0  0  0
   -4.7558   -1.7860   -2.4283 H   0  0  0  0  0  0  0  0  0  0  0  0
   -4.7332    3.1514    9.3302 H   0  0  0  0  0  0  0  0  0  0  0  0
   -6.2930    4.5929   10.5712 H   0  0  0  0  0  0  0  0  0  0  0  0
   -6.7558    6.9082    9.8115 H   0  0  0  0  0  0  0  0  0  0  0  0
   -5.4517    8.3199    6.5644 H   0  0  0  0  0  0  0  0  0  0  0  0
   -6.7576    8.4490    7.7677 H   0  0  0  0  0  0  0  0  0  0  0  0
   -4.8707   10.1541    8.0458 H   0  0  0  0  0  0  0  0  0  0  0  0
   -3.7646    8.8043    8.5024 H   0  0  0  0  0  0  0  0  0  0  0  0
   -5.2151    9.1661    9.5318 H   0  0  0  0  0  0  0  0  0  0  0  0
   -4.1143    6.3412    6.4786 H   0  0  0  0  0  0  0  0  0  0  0  0
   -0.1799   -2.4381    2.1737 H   0  0  0  0  0  0  0  0  0  0  0  0
   -0.7561   -2.5450    3.8889 H   0  0  0  0  0  0  0  0  0  0  0  0
   -1.0447   -4.8783    1.9268 H   0  0  0  0  0  0  0  0  0  0  0  0
    0.2618   -4.6549    3.1661 H   0  0  0  0  0  0  0  0  0  0  0  0
   -1.4856   -4.8341    3.6695 H   0  0  0  0  0  0  0  0  0  0  0  0
   -0.8027    1.0767    4.0894 H   0  0  0  0  0  0  0  0  0  0  0  0
   -0.8364   -0.4246    3.2282 H   0  0  0  0  0  0  0  0  0  0  0  0
    0.4103    0.2713    5.9371 H   0  0  0  0  0  0  0  0  0  0  0  0
   -0.2155   -1.4174    5.7852 H   0  0  0  0  0  0  0  0  0  0  0  0
    1.0381   -0.8224    4.6577 H   0  0  0  0  0  0  0  0  0  0  0  0
   -2.2636    6.5470    5.2837 H   0  0  0  0  0  0  0  0  0  0  0  0
   -1.4849    9.2691    2.8094 H   0  0  0  0  0  0  0  0  0  0  0  0
   -2.3996    8.3466    4.0461 H   0  0  0  0  0  0  0  0  0  0  0  0
   -1.0883    6.2571    3.1767 H   0  0  0  0  0  0  0  0  0  0  0  0
   -0.4039    7.3014    1.8878 H   0  0  0  0  0  0  0  0  0  0  0  0
   -2.1917    7.0152    1.9700 H   0  0  0  0  0  0  0  0  0  0  0  0
    2.3337    8.2915    6.9216 H   0  0  0  0  0  0  0  0  0  0  0  0
    4.1129    2.5219    4.9154 H   0  0  0  0  0  0  0  0  0  0  0  0
    7.6367    6.0305    6.3811 H   0  0  0  0  0  0  0  0  0  0  0  0
    8.8085    2.7741    6.5070 H   0  0  0  0  0  0  0  0  0  0  0  0
   10.2297    3.6443    4.5269 H   0  0  0  0  0  0  0  0  0  0  0  0
    8.5884    4.8584    2.7972 H   0  0  0  0  0  0  0  0  0  0  0  0
    6.7762    3.1202    2.0424 H   0  0  0  0  0  0  0  0  0  0  0  0
    7.3359    0.7684    3.2409 H   0  0  0  0  0  0  0  0  0  0  0  0
    9.6648    1.0259    4.5344 H   0  0  0  0  0  0  0  0  0  0  0  0
    9.8043    1.6603    2.8242 H   0  0  0  0  0  0  0  0  0  0  0  0
    7.2383    1.1505    5.8166 H   0  0  0  0  0  0  0  0  0  0  0  0
  1  2  2  3
  2  3  1  0
  3  4  2  0
  3  5  1  0
  5  6  2  0
  6  7  1  0
  7  8  2  0
  8  9  1  0
  9 10  2  0
 10 11  1  0
 11 12  2  3
 12 13  1  0
 13 14  3  0
 12 15  1  0
 15 16  3  0
  8 17  1  0
 17 18  1  0
 18 19  1  0
 19 20  2  0
 20 21  1  0
 21 22  1  0
 21 23  1  0
  1 24  1  0
 24 25  1  0
 25 26  1  0
 26 27  2  0
 27 28  1  0
 28 29  2  0
 28 30  1  0
 30 31  2  0
 31 32  1  0
 32 33  1  0
 31 34  1  0
 34 35  1  0
 35 36  1  0
 36 37  1  0
 35 38  2  0
 38 39  1  0
 39 40  2  0
 39 41  1  0
 26 42  1  0
 42 43  2  0
 43 44  1  0
 44 45  2  0
 45 46  1  0
 46 47  2  0
 47 48  1  0
 48 49  1  0
 49 50  1  0
 48 51  2  0
 43 52  1  0
 52 53  1  0
 53 54  1  0
 54 55  1  0
 55 56  1  0
 56 57  1  0
 57 58  2  0
 58 59  1  0
 59 60  1  0
 57 61  1  0
 61 62  1  0
 62 63  1  0
 63 64  1  0
 64 65  1  0
 65 66  1  0
 66 67  2  0
 67 68  1  0
 68 69  2  0
 69 70  1  0
 70 71  1  0
 71 72  1  0
 70 73  2  0
 65 74  2  0
 74 75  1  0
 75 76  1  0
 76 77  1  0
 77 78  1  0
 78 79  1  0
 79 80  1  0
 80 81  1  0
 81 82  1  0
 82 83  1  0
 83 84  1  0
 81 85  1  0
 85 86  1  0
 78 87  1  0
 87 88  1  0
 74 89  1  0
 89 90  2  0
 90 91  1  0
 91 92  1  0
 92 93  1  0
 93 94  1  0
 91 95  2  0
 95 96  1  0
 95 97  1  0
 97 98  2  3
 98 99  1  0
 99100  2  0
 99101  1  0
101102  2  0
102103  1  0
103104  2  0
104105  1  0
105106  2  0
106107  1  0
107108  2  3
108109  1  0
109110  3  0
108111  1  0
111112  3  0
104113  1  0
113114  1  0
114115  1  0
115116  2  0
116117  1  0
117118  1  0
117119  1  0
 11  2  1  0
 23 17  1  0
 41 24  2  0
 84 42  1  0
 96 89  1  0
107 98  1  0
119113  1  0
 10  5  1  0
 22 18  1  0
 41 27  1  0
 51 44  1  0
 83 52  2  0
106101  1  0
118114  1  0
 23  7  1  0
 38 30  1  0
 82 54  2  0
119103  1  0
 80 55  2  0
 60 56  2  0
 79 61  2  0
 77 62  2  0
 76 64  2  0
 73 66  1  0
  1120  1  0
  6121  1  0
  9122  1  0
 17123  1  0
 18124  1  0
 19125  1  0
 20126  1  0
 21127  1  0
 22128  1  0
 22129  1  0
 23130  1  0
 32131  1  0
 32132  1  0
 33133  1  0
 33134  1  0
 33135  1  0
 36136  1  0
 36137  1  0
 37138  1  0
 37139  1  0
 37140  1  0
 45141  1  0
 46142  1  0
 47143  1  0
 49144  1  0
 49145  1  0
 50146  1  0
 50147  1  0
 50148  1  0
 51149  1  0
 67150  1  0
 68151  1  0
 69152  1  0
 71153  1  0
 71154  1  0
 72155  1  0
 72156  1  0
 72157  1  0
 73158  1  0
 85159  1  0
 85160  1  0
 86161  1  0
 86162  1  0
 86163  1  0
 87164  1  0
 87165  1  0
 88166  1  0
 88167  1  0
 88168  1  0
 90169  1  0
 93170  1  0
 93171  1  0
 94172  1  0
 94173  1  0
 94174  1  0
 97175  1  0
102176  1  0
105177  1  0
113178  1  0
114179  1  0
115180  1  0
116181  1  0
117182  1  0
118183  1  0
118184  1  0
119185  1  0
M  END

