
     RDKit          3D

212238  0  0  0  0  0  0  0  0999 V2000
    9.9854   -0.3146   -5.4292 C   0  0  0  0  0  0  0  0  0  0  0  0
    8.9467   -0.2236   -6.2863 C   0  0  0  0  0  0  0  0  0  0  0  0
    7.5717    0.1546   -5.9202 C   0  0  0  0  0  0  0  0  0  0  0  0
    7.0489    0.0749   -4.7792 O   0  0  0  0  0  0  0  0  0  0  0  0
    6.9080    0.6808   -7.0869 C   0  0  0  0  0  0  0  0  0  0  0  0
    5.6645    1.3492   -7.1188 C   0  0  0  0  0  0  0  0  0  0  0  0
    5.3810    1.9329   -8.3384 C   0  0  0  0  0  0  0  0  0  0  0  0
    6.2689    1.8778   -9.4608 C   0  0  0  0  0  0  0  0  0  0  0  0
    7.4837    1.2128   -9.4366 C   0  0  0  0  0  0  0  0  0  0  0  0
    7.7804    0.5793   -8.1973 C   0  0  0  0  0  0  0  0  0  0  0  0
    9.0239   -0.1192   -7.7740 C   0  0  0  0  0  0  0  0  0  0  0  0
    9.9124   -0.7485   -8.5832 C   0  0  0  0  0  0  0  0  0  0  0  0
    9.7600   -0.7794  -10.0152 C   0  0  0  0  0  0  0  0  0  0  0  0
    9.6430   -0.8233  -11.1651 N   0  0  0  0  0  0  0  0  0  0  0  0
   10.9701   -1.5719   -8.0600 C   0  0  0  0  0  0  0  0  0  0  0  0
   11.8226   -2.2363   -7.6455 N   0  0  0  0  0  0  0  0  0  0  0  0
    5.3528    2.7660  -10.2478 C   0  0  0  0  0  0  0  0  0  0  0  0
    5.8041    4.2489  -10.4169 C   0  0  0  0  0  0  0  0  0  0  0  0
    4.5802    5.0035  -10.8747 C   0  0  0  0  0  0  0  0  0  0  0  0
    3.7467    5.0477   -9.8295 C   0  0  0  0  0  0  0  0  0  0  0  0
    4.4365    4.3208   -8.6997 C   0  0  0  0  0  0  0  0  0  0  0  0
    5.8656    4.7549   -8.9832 C   0  0  0  0  0  0  0  0  0  0  0  0
    4.4401    2.8150   -9.1007 C   0  0  0  0  0  0  0  0  0  0  0  0
    9.8159   -0.0491   -3.9968 C   0  0  0  0  0  0  0  0  0  0  0  0
    9.1857   -0.9146   -3.1056 C   0  0  0  0  0  0  0  0  0  0  0  0
    8.6575   -0.2530   -1.9810 C   0  0  0  0  0  0  0  0  0  0  0  0
    7.8324   -0.8264   -0.9934 C   0  0  0  0  0  0  0  0  0  0  0  0
    7.4696   -2.2554   -1.0067 C   0  0  0  0  0  0  0  0  0  0  0  0
    6.7624   -2.9033   -2.0127 C   0  0  0  0  0  0  0  0  0  0  0  0
    6.4557   -4.2337   -1.6984 C   0  0  0  0  0  0  0  0  0  0  0  0
    6.9236   -4.6169   -0.4519 C   0  0  0  0  0  0  0  0  0  0  0  0
    6.6730   -6.2129    0.3213 S   0  0  0  0  0  0  0  0  0  0  0  0
    5.1646   -5.7122    1.2252 C   0  0  0  0  0  0  0  0  0  0  0  0
    3.9317   -5.8829    0.3480 C   0  0  0  0  0  0  0  0  0  0  0  0
    7.7141   -3.3216    0.2692 S   0  0  0  0  0  0  0  0  0  0  0  0
    7.2575    0.0507   -0.0559 C   0  0  0  0  0  0  0  0  0  0  0  0
    7.4896    1.4308   -0.0691 C   0  0  0  0  0  0  0  0  0  0  0  0
    8.3433    2.0044   -1.0371 C   0  0  0  0  0  0  0  0  0  0  0  0
    8.5083    3.4710   -1.1528 C   0  0  0  0  0  0  0  0  0  0  0  0
    8.7935    4.3474   -0.1087 C   0  0  0  0  0  0  0  0  0  0  0  0
    8.8051    5.6899   -0.5005 C   0  0  0  0  0  0  0  0  0  0  0  0
    8.5173    5.8658   -1.8459 C   0  0  0  0  0  0  0  0  0  0  0  0
    8.4361    7.4339   -2.7128 S   0  0  0  0  0  0  0  0  0  0  0  0
    6.6222    7.6006   -2.5705 C   0  0  0  0  0  0  0  0  0  0  0  0
    6.2278    8.1421   -1.2032 C   0  0  0  0  0  0  0  0  0  0  0  0
    8.2579    4.3695   -2.5570 S   0  0  0  0  0  0  0  0  0  0  0  0
    8.9099    1.1241   -1.9827 C   0  0  0  0  0  0  0  0  0  0  0  0
    9.7720    1.5123   -3.3721 S   0  0  0  0  0  0  0  0  0  0  0  0
    6.6413    2.1335    0.8090 C   0  0  0  0  0  0  0  0  0  0  0  0
    5.7464    1.3089    1.4846 C   0  0  0  0  0  0  0  0  0  0  0  0
    5.9956   -0.2871    1.0032 S   0  0  0  0  0  0  0  0  0  0  0  0
    4.5187    1.7838    2.1285 C   0  0  0  0  0  0  0  0  0  0  0  0
    4.3969    2.8570    3.0295 C   0  0  0  0  0  0  0  0  0  0  0  0
    5.5279    3.5194    3.6887 C   0  0  0  0  0  0  0  0  0  0  0  0
    5.9279    4.8017    3.2925 C   0  0  0  0  0  0  0  0  0  0  0  0
    7.0118    5.4212    3.9181 C   0  0  0  0  0  0  0  0  0  0  0  0
    7.6885    4.7727    4.9563 C   0  0  0  0  0  0  0  0  0  0  0  0
    7.2802    3.4968    5.3783 C   0  0  0  0  0  0  0  0  0  0  0  0
    7.9977    2.7957    6.5005 C   0  0  0  0  0  0  0  0  0  0  0  0
    9.0797    1.8683    5.9615 C   0  0  0  0  0  0  0  0  0  0  0  0
    6.2117    2.8636    4.7228 C   0  0  0  0  0  0  0  0  0  0  0  0
    3.0569    3.1403    3.2964 C   0  0  0  0  0  0  0  0  0  0  0  0
    2.2633    4.1625    4.4105 S   0  0  0  0  0  0  0  0  0  0  0  0
    0.7473    3.5931    3.8890 C   0  0  0  0  0  0  0  0  0  0  0  0
   -0.5385    3.5579    4.3576 C   0  0  0  0  0  0  0  0  0  0  0  0
   -1.0972    4.0577    5.5408 C   0  0  0  0  0  0  0  0  0  0  0  0
   -2.4015    3.6213    5.9268 C   0  0  0  0  0  0  0  0  0  0  0  0
   -2.8896    4.0939    7.0983 N   0  0  0  0  0  0  0  0  0  0  0  0
   -1.6097    5.0326    7.5707 S   0  0  0  0  0  0  0  0  0  0  0  0
   -0.4546    4.8946    6.3922 N   0  0  0  0  0  0  0  0  0  0  0  0
   -3.0926    2.7473    5.0807 C   0  0  0  0  0  0  0  0  0  0  0  0
   -4.3415    2.1882    5.1523 C   0  0  0  0  0  0  0  0  0  0  0  0
   -5.6469    1.9846    6.2295 S   0  0  0  0  0  0  0  0  0  0  0  0
   -6.4208    0.9145    5.1327 C   0  0  0  0  0  0  0  0  0  0  0  0
   -7.5054    0.0336    5.2395 C   0  0  0  0  0  0  0  0  0  0  0  0
   -8.5489    0.1819    6.2714 C   0  0  0  0  0  0  0  0  0  0  0  0
   -8.7422   -0.7786    7.2724 C   0  0  0  0  0  0  0  0  0  0  0  0
   -9.7391   -0.5987    8.2373 C   0  0  0  0  0  0  0  0  0  0  0  0
  -10.5481    0.5390    8.2092 C   0  0  0  0  0  0  0  0  0  0  0  0
  -10.3514    1.5206    7.2239 C   0  0  0  0  0  0  0  0  0  0  0  0
  -11.2179    2.7511    7.1807 C   0  0  0  0  0  0  0  0  0  0  0  0
  -10.5164    3.9430    7.8198 C   0  0  0  0  0  0  0  0  0  0  0  0
   -9.3286    1.3510    6.2806 C   0  0  0  0  0  0  0  0  0  0  0  0
   -7.5450   -0.8333    4.1154 C   0  0  0  0  0  0  0  0  0  0  0  0
   -6.2550   -0.4829    3.0635 S   0  0  0  0  0  0  0  0  0  0  0  0
   -5.6779    0.7636    3.9950 C   0  0  0  0  0  0  0  0  0  0  0  0
   -4.5094    1.4878    4.0089 C   0  0  0  0  0  0  0  0  0  0  0  0
   -3.4634    1.5560    3.1604 N   0  0  0  0  0  0  0  0  0  0  0  0
   -2.5419    2.2784    3.8733 C   0  0  0  0  0  0  0  0  0  0  0  0
   -1.2008    2.6089    3.5589 C   0  0  0  0  0  0  0  0  0  0  0  0
   -0.3204    1.9819    2.7116 N   0  0  0  0  0  0  0  0  0  0  0  0
    0.8464    2.6382    2.9303 C   0  0  0  0  0  0  0  0  0  0  0  0
    2.1655    2.3533    2.6160 C   0  0  0  0  0  0  0  0  0  0  0  0
    2.9758    1.2249    1.6819 S   0  0  0  0  0  0  0  0  0  0  0  0
   -0.4013    0.6186    2.1689 C   0  0  0  0  0  0  0  0  0  0  0  0
   -0.3481    0.6136    0.6406 C   0  0  0  0  0  0  0  0  0  0  0  0
   -3.6142    1.4306    1.6965 C   0  0  0  0  0  0  0  0  0  0  0  0
   -3.3863    2.7665    0.9917 C   0  0  0  0  0  0  0  0  0  0  0  0
   -8.3261   -2.0657    3.8868 C   0  0  0  0  0  0  0  0  0  0  0  0
   -8.9918   -2.1962    2.6439 C   0  0  0  0  0  0  0  0  0  0  0  0
   -9.3300   -1.0603    1.9008 O   0  0  0  0  0  0  0  0  0  0  0  0
  -10.5846   -0.3945    2.0450 C   0  0  0  0  0  0  0  0  0  0  0  0
  -10.4162    0.8617    2.8771 C   0  0  0  0  0  0  0  0  0  0  0  0
   -9.1671   -3.4599    2.0453 C   0  0  0  0  0  0  0  0  0  0  0  0
   -9.6901   -3.5367    0.7477 O   0  0  0  0  0  0  0  0  0  0  0  0
  -11.0885   -3.6009    0.4857 C   0  0  0  0  0  0  0  0  0  0  0  0
  -11.6317   -4.9955    0.7737 C   0  0  0  0  0  0  0  0  0  0  0  0
   -8.6741   -4.6221    2.6678 C   0  0  0  0  0  0  0  0  0  0  0  0
   -8.1269   -4.5249    3.9502 C   0  0  0  0  0  0  0  0  0  0  0  0
   -7.9319   -3.2437    4.5530 C   0  0  0  0  0  0  0  0  0  0  0  0
   -7.2057   -3.2313    5.7001 N   0  0  0  0  0  0  0  0  0  0  0  0
   -6.9018   -4.8418    5.8959 S   0  0  0  0  0  0  0  0  0  0  0  0
   -7.5959   -5.5940    4.5986 N   0  0  0  0  0  0  0  0  0  0  0  0
   -8.4566   -5.8225    1.8414 C   0  0  0  0  0  0  0  0  0  0  0  0
   -7.3439   -5.9560    1.0842 C   0  0  0  0  0  0  0  0  0  0  0  0
   -6.1667   -5.0729    1.1682 C   0  0  0  0  0  0  0  0  0  0  0  0
   -5.9151   -4.2459    2.0805 O   0  0  0  0  0  0  0  0  0  0  0  0
   -5.2909   -5.3393    0.0593 C   0  0  0  0  0  0  0  0  0  0  0  0
   -4.0179   -4.7716   -0.1591 C   0  0  0  0  0  0  0  0  0  0  0  0
   -3.3391   -5.3186   -1.2276 C   0  0  0  0  0  0  0  0  0  0  0  0
   -3.8714   -6.3683   -2.0408 C   0  0  0  0  0  0  0  0  0  0  0  0
   -5.1228   -6.9323   -1.8278 C   0  0  0  0  0  0  0  0  0  0  0  0
   -5.8516   -6.3643   -0.7397 C   0  0  0  0  0  0  0  0  0  0  0  0
   -7.1598   -6.7930   -0.1518 C   0  0  0  0  0  0  0  0  0  0  0  0
   -8.0406   -7.6518   -0.7228 C   0  0  0  0  0  0  0  0  0  0  0  0
   -9.1516   -8.2164   -0.0076 C   0  0  0  0  0  0  0  0  0  0  0  0
  -10.0453   -8.6864    0.5591 N   0  0  0  0  0  0  0  0  0  0  0  0
   -8.0118   -7.9212   -2.1378 C   0  0  0  0  0  0  0  0  0  0  0  0
   -8.0069   -8.1007   -3.2861 N   0  0  0  0  0  0  0  0  0  0  0  0
   -2.6081   -6.3961   -2.8557 C   0  0  0  0  0  0  0  0  0  0  0  0
   -2.6336   -5.7639   -4.2795 C   0  0  0  0  0  0  0  0  0  0  0  0
   -3.6364   -4.6351   -4.3283 C   0  0  0  0  0  0  0  0  0  0  0  0
   -3.1414   -3.6588   -3.5683 C   0  0  0  0  0  0  0  0  0  0  0  0
   -1.8232   -4.1552   -3.0256 C   0  0  0  0  0  0  0  0  0  0  0  0
   -1.3538   -4.9479   -4.2267 C   0  0  0  0  0  0  0  0  0  0  0  0
   -2.0660   -5.3214   -2.0177 C   0  0  0  0  0  0  0  0  0  0  0  0
   10.9962   -0.3735   -5.7975 H   0  0  0  0  0  0  0  0  0  0  0  0
    5.0244    1.4569   -6.2554 H   0  0  0  0  0  0  0  0  0  0  0  0
    8.1614    1.2617  -10.2750 H   0  0  0  0  0  0  0  0  0  0  0  0
    4.9328    2.2814  -11.1583 H   0  0  0  0  0  0  0  0  0  0  0  0
    6.7147    4.4097  -11.0283 H   0  0  0  0  0  0  0  0  0  0  0  0
    4.4325    5.5084  -11.8224 H   0  0  0  0  0  0  0  0  0  0  0  0
    2.8120    5.5923   -9.7828 H   0  0  0  0  0  0  0  0  0  0  0  0
    4.0510    4.5492   -7.6816 H   0  0  0  0  0  0  0  0  0  0  0  0
    6.0138    5.8592   -8.9081 H   0  0  0  0  0  0  0  0  0  0  0  0
    6.6318    4.2512   -8.3537 H   0  0  0  0  0  0  0  0  0  0  0  0
    3.4401    2.3574   -9.2741 H   0  0  0  0  0  0  0  0  0  0  0  0
    9.0072   -1.9557   -3.3353 H   0  0  0  0  0  0  0  0  0  0  0  0
    6.4431   -2.4210   -2.9260 H   0  0  0  0  0  0  0  0  0  0  0  0
    5.8894   -4.8791   -2.3518 H   0  0  0  0  0  0  0  0  0  0  0  0
    5.0647   -6.3645    2.1169 H   0  0  0  0  0  0  0  0  0  0  0  0
    5.2406   -4.6596    1.5782 H   0  0  0  0  0  0  0  0  0  0  0  0
    3.0222   -5.6424    0.9392 H   0  0  0  0  0  0  0  0  0  0  0  0
    3.9801   -5.1998   -0.5294 H   0  0  0  0  0  0  0  0  0  0  0  0
    3.8584   -6.9343   -0.0087 H   0  0  0  0  0  0  0  0  0  0  0  0
    8.9852    4.0260    0.9071 H   0  0  0  0  0  0  0  0  0  0  0  0
    9.0013    6.5041    0.1778 H   0  0  0  0  0  0  0  0  0  0  0  0
    6.2797    8.3129   -3.3490 H   0  0  0  0  0  0  0  0  0  0  0  0
    6.1198    6.6268   -2.7549 H   0  0  0  0  0  0  0  0  0  0  0  0
    5.1378    8.3581   -1.1891 H   0  0  0  0  0  0  0  0  0  0  0  0
    6.7819    9.0804   -0.9890 H   0  0  0  0  0  0  0  0  0  0  0  0
    6.4489    7.3949   -0.4127 H   0  0  0  0  0  0  0  0  0  0  0  0
    6.5750    3.2106    0.8526 H   0  0  0  0  0  0  0  0  0  0  0  0
    5.4094    5.3110    2.4881 H   0  0  0  0  0  0  0  0  0  0  0  0
    7.3250    6.4087    3.6028 H   0  0  0  0  0  0  0  0  0  0  0  0
    8.5244    5.2677    5.4342 H   0  0  0  0  0  0  0  0  0  0  0  0
    8.4600    3.5386    7.1877 H   0  0  0  0  0  0  0  0  0  0  0  0
    7.2710    2.2032    7.0986 H   0  0  0  0  0  0  0  0  0  0  0  0
    9.5596    1.3280    6.8056 H   0  0  0  0  0  0  0  0  0  0  0  0
    8.6382    1.1204    5.2702 H   0  0  0  0  0  0  0  0  0  0  0  0
    9.8545    2.4530    5.4227 H   0  0  0  0  0  0  0  0  0  0  0  0
    5.9053    1.8683    5.0216 H   0  0  0  0  0  0  0  0  0  0  0  0
   -8.1089   -1.6484    7.3387 H   0  0  0  0  0  0  0  0  0  0  0  0
   -9.8807   -1.3415    9.0102 H   0  0  0  0  0  0  0  0  0  0  0  0
  -11.3255    0.6562    8.9528 H   0  0  0  0  0  0  0  0  0  0  0  0
  -12.1782    2.5665    7.7094 H   0  0  0  0  0  0  0  0  0  0  0  0
  -11.4644    3.0008    6.1252 H   0  0  0  0  0  0  0  0  0  0  0  0
  -11.1940    4.8208    7.8085 H   0  0  0  0  0  0  0  0  0  0  0  0
  -10.2489    3.7153    8.8736 H   0  0  0  0  0  0  0  0  0  0  0  0
   -9.5954    4.1999    7.2533 H   0  0  0  0  0  0  0  0  0  0  0  0
   -9.1583    2.1148    5.5328 H   0  0  0  0  0  0  0  0  0  0  0  0
   -1.3024    0.0986    2.5448 H   0  0  0  0  0  0  0  0  0  0  0  0
    0.4489    0.0154    2.5542 H   0  0  0  0  0  0  0  0  0  0  0  0
   -1.1108    1.2867    0.2034 H   0  0  0  0  0  0  0  0  0  0  0  0
    0.6366    0.9601    0.2751 H   0  0  0  0  0  0  0  0  0  0  0  0
   -0.5202   -0.4157    0.2683 H   0  0  0  0  0  0  0  0  0  0  0  0
   -2.9761    0.6332    1.2922 H   0  0  0  0  0  0  0  0  0  0  0  0
   -4.6466    1.1168    1.4507 H   0  0  0  0  0  0  0  0  0  0  0  0
   -2.3295    3.0897    1.0726 H   0  0  0  0  0  0  0  0  0  0  0  0
   -3.6380    2.6685   -0.0856 H   0  0  0  0  0  0  0  0  0  0  0  0
   -4.0296    3.5480    1.4386 H   0  0  0  0  0  0  0  0  0  0  0  0
  -11.3386   -1.0530    2.5222 H   0  0  0  0  0  0  0  0  0  0  0  0
  -10.9447   -0.1127    1.0328 H   0  0  0  0  0  0  0  0  0  0  0  0
  -11.3068    1.5083    2.7680 H   0  0  0  0  0  0  0  0  0  0  0  0
  -10.3029    0.5842    3.9390 H   0  0  0  0  0  0  0  0  0  0  0  0
   -9.5187    1.4285    2.5458 H   0  0  0  0  0  0  0  0  0  0  0  0
  -11.6362   -2.8556    1.0957 H   0  0  0  0  0  0  0  0  0  0  0  0
  -11.2598   -3.3600   -0.5854 H   0  0  0  0  0  0  0  0  0  0  0  0
  -11.0759   -5.7487    0.1740 H   0  0  0  0  0  0  0  0  0  0  0  0
  -11.5244   -5.2304    1.8539 H   0  0  0  0  0  0  0  0  0  0  0  0
  -12.7032   -5.0434    0.4988 H   0  0  0  0  0  0  0  0  0  0  0  0
   -9.3177   -6.4448    1.7017 H   0  0  0  0  0  0  0  0  0  0  0  0
   -3.5880   -4.0142    0.4801 H   0  0  0  0  0  0  0  0  0  0  0  0
   -5.4567   -7.7720   -2.4124 H   0  0  0  0  0  0  0  0  0  0  0  0
   -2.0426   -7.3531   -2.7757 H   0  0  0  0  0  0  0  0  0  0  0  0
   -2.7005   -6.4857   -5.1168 H   0  0  0  0  0  0  0  0  0  0  0  0
   -4.5195   -4.5739   -4.9459 H   0  0  0  0  0  0  0  0  0  0  0  0
   -3.5663   -2.6657   -3.4455 H   0  0  0  0  0  0  0  0  0  0  0  0
   -1.1280   -3.3643   -2.6758 H   0  0  0  0  0  0  0  0  0  0  0  0
   -1.1865   -4.3221   -5.1333 H   0  0  0  0  0  0  0  0  0  0  0  0
   -0.4459   -5.5598   -4.0260 H   0  0  0  0  0  0  0  0  0  0  0  0
   -1.1750   -5.6262   -1.4305 H   0  0  0  0  0  0  0  0  0  0  0  0
  1  2  2  3
  2  3  1  0
  3  4  2  0
  3  5  1  0
  5  6  2  0
  6  7  1  0
  7  8  2  0
  8  9  1  0
  9 10  2  0
 10 11  1  0
 11 12  2  3
 12 13  1  0
 13 14  3  0
 12 15  1  0
 15 16  3  0
  8 17  1  0
 17 18  1  0
 18 19  1  0
 19 20  2  0
 20 21  1  0
 21 22  1  0
 21 23  1  0
  1 24  1  0
 24 25  2  0
 25 26  1  0
 26 27  2  0
 27 28  1  0
 28 29  2  0
 29 30  1  0
 30 31  2  0
 31 32  1  0
 32 33  1  0
 33 34  1  0
 31 35  1  0
 27 36  1  0
 36 37  2  0
 37 38  1  0
 38 39  1  0
 39 40  2  0
 40 41  1  0
 41 42  2  0
 42 43  1  0
 43 44  1  0
 44 45  1  0
 42 46  1  0
 38 47  2  0
 47 48  1  0
 37 49  1  0
 49 50  2  0
 50 51  1  0
 50 52  1  0
 52 53  2  0
 53 54  1  0
 54 55  2  0
 55 56  1  0
 56 57  2  0
 57 58  1  0
 58 59  1  0
 59 60  1  0
 58 61  2  0
 53 62  1  0
 62 63  1  0
 63 64  1  0
 64 65  1  0
 65 66  1  0
 66 67  1  0
 67 68  2  0
 68 69  1  0
 69 70  1  0
 67 71  1  0
 71 72  1  0
 72 73  1  0
 73 74  1  0
 74 75  1  0
 75 76  1  0
 76 77  2  0
 77 78  1  0
 78 79  2  0
 79 80  1  0
 80 81  1  0
 81 82  1  0
 80 83  2  0
 75 84  2  0
 84 85  1  0
 85 86  1  0
 86 87  1  0
 87 88  1  0
 88 89  1  0
 89 90  1  0
 90 91  1  0
 91 92  1  0
 92 93  1  0
 93 94  1  0
 91 95  1  0
 95 96  1  0
 88 97  1  0
 97 98  1  0
 84 99  1  0
 99100  2  0
100101  1  0
101102  1  0
102103  1  0
100104  1  0
104105  1  0
105106  1  0
106107  1  0
104108  2  0
108109  1  0
109110  1  0
110111  2  0
111112  1  0
112113  1  0
108114  1  0
114115  2  3
115116  1  0
116117  2  0
116118  1  0
118119  2  0
119120  1  0
120121  2  0
121122  1  0
122123  2  0
123124  1  0
124125  2  3
125126  1  0
126127  3  0
125128  1  0
128129  3  0
121130  1  0
130131  1  0
131132  1  0
132133  2  0
133134  1  0
134135  1  0
134136  1  0
 11  2  1  0
 23 17  1  0
 48 24  1  0
 94 52  1  0
110 99  1  0
124115  1  0
136130  1  0
 10  5  1  0
 22 18  1  0
 47 26  1  0
 61 54  1  0
 93 62  2  0
113109  2  0
123118  1  0
135131  1  0
 23  7  1  0
 35 28  1  0
 51 36  1  0
 92 64  2  0
136120  1  0
 46 39  1  0
 90 65  2  0
 70 66  2  0
 89 71  2  0
 87 72  2  0
 86 74  2  0
 83 76  1  0
  1137  1  0
  6138  1  0
  9139  1  0
 17140  1  0
 18141  1  0
 19142  1  0
 20143  1  0
 21144  1  0
 22145  1  0
 22146  1  0
 23147  1  0
 25148  1  0
 29149  1  0
 30150  1  0
 33151  1  0
 33152  1  0
 34153  1  0
 34154  1  0
 34155  1  0
 40156  1  0
 41157  1  0
 44158  1  0
 44159  1  0
 45160  1  0
 45161  1  0
 45162  1  0
 49163  1  0
 55164  1  0
 56165  1  0
 57166  1  0
 59167  1  0
 59168  1  0
 60169  1  0
 60170  1  0
 60171  1  0
 61172  1  0
 77173  1  0
 78174  1  0
 79175  1  0
 81176  1  0
 81177  1  0
 82178  1  0
 82179  1  0
 82180  1  0
 83181  1  0
 95182  1  0
 95183  1  0
 96184  1  0
 96185  1  0
 96186  1  0
 97187  1  0
 97188  1  0
 98189  1  0
 98190  1  0
 98191  1  0
102192  1  0
102193  1  0
103194  1  0
103195  1  0
103196  1  0
106197  1  0
106198  1  0
107199  1  0
107200  1  0
107201  1  0
114202  1  0
119203  1  0
122204  1  0
130205  1  0
131206  1  0
132207  1  0
133208  1  0
134209  1  0
135210  1  0
135211  1  0
136212  1  0
M  END

