
     RDKit          3D

186208  0  0  0  0  0  0  0  0999 V2000
   -6.9306   -6.8121    3.2851 C   0  0  0  0  0  0  0  0  0  0  0  0
   -5.8763   -6.8374    4.1175 C   0  0  0  0  0  0  0  0  0  0  0  0
   -4.5321   -6.4053    3.7036 C   0  0  0  0  0  0  0  0  0  0  0  0
   -4.1064   -6.3492    2.5026 O   0  0  0  0  0  0  0  0  0  0  0  0
   -3.7568   -5.9897    4.8398 C   0  0  0  0  0  0  0  0  0  0  0  0
   -2.4237   -5.4722    4.7795 C   0  0  0  0  0  0  0  0  0  0  0  0
   -1.9485   -5.1309    6.0353 C   0  0  0  0  0  0  0  0  0  0  0  0
   -2.7139   -5.3217    7.2345 C   0  0  0  0  0  0  0  0  0  0  0  0
   -3.9714   -5.8414    7.3042 C   0  0  0  0  0  0  0  0  0  0  0  0
   -4.5304   -6.1690    6.0095 C   0  0  0  0  0  0  0  0  0  0  0  0
   -5.8767   -6.7511    5.6316 C   0  0  0  0  0  0  0  0  0  0  0  0
   -6.8578   -7.0251    6.5540 C   0  0  0  0  0  0  0  0  0  0  0  0
   -6.7889   -6.6857    7.9385 C   0  0  0  0  0  0  0  0  0  0  0  0
   -6.7359   -6.4122    9.0601 N   0  0  0  0  0  0  0  0  0  0  0  0
   -8.0675   -7.7581    6.2465 C   0  0  0  0  0  0  0  0  0  0  0  0
   -9.0447   -8.3611    6.0550 N   0  0  0  0  0  0  0  0  0  0  0  0
   -1.5720   -4.8446    8.0849 C   0  0  0  0  0  0  0  0  0  0  0  0
   -0.7663   -5.9562    8.8387 C   0  0  0  0  0  0  0  0  0  0  0  0
    0.5032   -5.2854    9.3089 C   0  0  0  0  0  0  0  0  0  0  0  0
    1.2235   -5.0269    8.1987 C   0  0  0  0  0  0  0  0  0  0  0  0
    0.4285   -5.5854    7.0246 C   0  0  0  0  0  0  0  0  0  0  0  0
   -0.1791   -6.7999    7.7215 C   0  0  0  0  0  0  0  0  0  0  0  0
   -0.7865   -4.6295    6.8625 C   0  0  0  0  0  0  0  0  0  0  0  0
   -6.9020   -5.9592    2.0525 C   0  0  0  0  0  0  0  0  0  0  0  0
   -6.4967   -6.4375    0.4696 S   0  0  0  0  0  0  0  0  0  0  0  0
   -5.9827   -4.9402   -0.1534 C   0  0  0  0  0  0  0  0  0  0  0  0
   -6.1098   -4.0327    0.8890 C   0  0  0  0  0  0  0  0  0  0  0  0
   -5.6575   -2.6101    0.8449 C   0  0  0  0  0  0  0  0  0  0  0  0
   -5.1908   -2.1165   -0.2115 O   0  0  0  0  0  0  0  0  0  0  0  0
   -5.7583   -1.7993    2.0765 C   0  0  0  0  0  0  0  0  0  0  0  0
   -5.4038   -0.4629    2.1962 C   0  0  0  0  0  0  0  0  0  0  0  0
   -4.7262    0.3949    1.1622 C   0  0  0  0  0  0  0  0  0  0  0  0
   -3.2532   -0.0145    1.0037 C   0  0  0  0  0  0  0  0  0  0  0  0
   -5.6614   -0.0000    3.7704 S   0  0  0  0  0  0  0  0  0  0  0  0
   -6.2640   -1.4591    4.3338 C   0  0  0  0  0  0  0  0  0  0  0  0
   -6.8713   -1.6395    5.6833 C   0  0  0  0  0  0  0  0  0  0  0  0
   -8.3886   -1.4584    5.6144 C   0  0  0  0  0  0  0  0  0  0  0  0
   -6.2358   -2.3586    3.2775 C   0  0  0  0  0  0  0  0  0  0  0  0
   -6.7119   -3.7603    3.3342 C   0  0  0  0  0  0  0  0  0  0  0  0
   -7.1751   -4.2452    4.3995 O   0  0  0  0  0  0  0  0  0  0  0  0
   -6.6396   -4.5848    2.0992 C   0  0  0  0  0  0  0  0  0  0  0  0
   -5.4179   -4.6426   -1.4959 C   0  0  0  0  0  0  0  0  0  0  0  0
   -6.0872   -3.7640   -2.4275 C   0  0  0  0  0  0  0  0  0  0  0  0
   -7.4923   -3.3346   -2.2580 C   0  0  0  0  0  0  0  0  0  0  0  0
   -8.5476   -4.2723   -2.2573 C   0  0  0  0  0  0  0  0  0  0  0  0
   -9.8785   -3.8450   -2.0436 C   0  0  0  0  0  0  0  0  0  0  0  0
  -10.1441   -2.4847   -1.7752 C   0  0  0  0  0  0  0  0  0  0  0  0
   -9.1016   -1.5591   -1.7639 C   0  0  0  0  0  0  0  0  0  0  0  0
   -9.3527   -0.1197   -1.4061 C   0  0  0  0  0  0  0  0  0  0  0  0
   -9.0060    0.1446    0.0535 C   0  0  0  0  0  0  0  0  0  0  0  0
   -7.7762   -1.9730   -2.0086 C   0  0  0  0  0  0  0  0  0  0  0  0
   -5.1878   -3.0823   -3.2636 C   0  0  0  0  0  0  0  0  0  0  0  0
   -5.3300   -1.7957   -4.3996 S   0  0  0  0  0  0  0  0  0  0  0  0
   -3.6334   -1.6852   -4.5447 C   0  0  0  0  0  0  0  0  0  0  0  0
   -2.6745   -0.8910   -5.1491 C   0  0  0  0  0  0  0  0  0  0  0  0
   -2.8139    0.2075   -6.0240 C   0  0  0  0  0  0  0  0  0  0  0  0
   -1.6359    0.9605   -6.3483 C   0  0  0  0  0  0  0  0  0  0  0  0
   -1.8013    2.0569   -7.1470 N   0  0  0  0  0  0  0  0  0  0  0  0
   -3.4419    1.9436   -7.3915 S   0  0  0  0  0  0  0  0  0  0  0  0
   -3.9901    0.6324   -6.5455 N   0  0  0  0  0  0  0  0  0  0  0  0
   -0.3942    0.6139   -5.7944 C   0  0  0  0  0  0  0  0  0  0  0  0
    0.8092    1.3047   -5.7920 C   0  0  0  0  0  0  0  0  0  0  0  0
    1.4497    2.8191   -6.3003 S   0  0  0  0  0  0  0  0  0  0  0  0
    2.8566    2.5485   -5.3437 C   0  0  0  0  0  0  0  0  0  0  0  0
    3.9786    3.3255   -5.0289 C   0  0  0  0  0  0  0  0  0  0  0  0
    4.3073    4.5898   -5.7147 C   0  0  0  0  0  0  0  0  0  0  0  0
    3.4441    5.7081   -5.5937 C   0  0  0  0  0  0  0  0  0  0  0  0
    3.7751    6.9118   -6.2509 C   0  0  0  0  0  0  0  0  0  0  0  0
    4.8697    6.9670   -7.1105 C   0  0  0  0  0  0  0  0  0  0  0  0
    5.6757    5.8495   -7.2970 C   0  0  0  0  0  0  0  0  0  0  0  0
    6.6694    5.8753   -8.4344 C   0  0  0  0  0  0  0  0  0  0  0  0
    6.0753    5.1685   -9.6531 C   0  0  0  0  0  0  0  0  0  0  0  0
    5.4350    4.6518   -6.5581 C   0  0  0  0  0  0  0  0  0  0  0  0
    4.7161    2.7649   -3.9317 C   0  0  0  0  0  0  0  0  0  0  0  0
    4.0277    1.2965   -3.4735 S   0  0  0  0  0  0  0  0  0  0  0  0
    2.8081    1.3785   -4.6144 C   0  0  0  0  0  0  0  0  0  0  0  0
    1.6236    0.6712   -4.9147 C   0  0  0  0  0  0  0  0  0  0  0  0
    1.0482   -0.4544   -4.3999 N   0  0  0  0  0  0  0  0  0  0  0  0
   -0.2459   -0.4890   -4.9190 C   0  0  0  0  0  0  0  0  0  0  0  0
   -1.4157   -1.2917   -4.6094 C   0  0  0  0  0  0  0  0  0  0  0  0
   -1.6523   -2.3505   -3.7316 N   0  0  0  0  0  0  0  0  0  0  0  0
   -2.9824   -2.5363   -3.7176 C   0  0  0  0  0  0  0  0  0  0  0  0
   -3.8529   -3.3720   -2.9990 C   0  0  0  0  0  0  0  0  0  0  0  0
   -3.7551   -4.4736   -1.7461 S   0  0  0  0  0  0  0  0  0  0  0  0
   -0.7889   -3.4428   -3.2407 C   0  0  0  0  0  0  0  0  0  0  0  0
   -0.6452   -4.5155   -4.2766 C   0  0  0  0  0  0  0  0  0  0  0  0
    1.7964   -1.3553   -3.5304 C   0  0  0  0  0  0  0  0  0  0  0  0
    1.4194   -1.0668   -2.0507 C   0  0  0  0  0  0  0  0  0  0  0  0
    5.6648    3.5430   -3.0904 C   0  0  0  0  0  0  0  0  0  0  0  0
    7.1746    3.0415   -2.5586 S   0  0  0  0  0  0  0  0  0  0  0  0
    7.6828    4.4078   -1.6425 C   0  0  0  0  0  0  0  0  0  0  0  0
    6.5702    5.2859   -1.7344 C   0  0  0  0  0  0  0  0  0  0  0  0
    6.4790    6.5269   -0.9587 C   0  0  0  0  0  0  0  0  0  0  0  0
    7.5320    7.1011   -0.5531 O   0  0  0  0  0  0  0  0  0  0  0  0
    5.1370    7.0701   -0.6876 C   0  0  0  0  0  0  0  0  0  0  0  0
    4.8359    8.0244    0.2626 C   0  0  0  0  0  0  0  0  0  0  0  0
    5.7595    8.4726    1.3517 C   0  0  0  0  0  0  0  0  0  0  0  0
    5.9293    7.3742    2.4120 C   0  0  0  0  0  0  0  0  0  0  0  0
    3.1640    8.2041    0.3307 S   0  0  0  0  0  0  0  0  0  0  0  0
    2.8075    7.0967   -0.8696 C   0  0  0  0  0  0  0  0  0  0  0  0
    1.4158    6.7757   -1.3333 C   0  0  0  0  0  0  0  0  0  0  0  0
    1.1886    7.2601   -2.7669 C   0  0  0  0  0  0  0  0  0  0  0  0
    3.9853    6.5339   -1.3335 C   0  0  0  0  0  0  0  0  0  0  0  0
    4.1017    5.3862   -2.2618 C   0  0  0  0  0  0  0  0  0  0  0  0
    3.0919    4.8369   -2.7515 O   0  0  0  0  0  0  0  0  0  0  0  0
    5.4218    4.7672   -2.4550 C   0  0  0  0  0  0  0  0  0  0  0  0
    8.5714    4.3948   -0.4999 C   0  0  0  0  0  0  0  0  0  0  0  0
    8.8963    3.2853    0.1857 C   0  0  0  0  0  0  0  0  0  0  0  0
    8.5432    3.0748    1.5869 C   0  0  0  0  0  0  0  0  0  0  0  0
    7.8361    3.8884    2.2931 O   0  0  0  0  0  0  0  0  0  0  0  0
    9.0122    1.7571    1.9743 C   0  0  0  0  0  0  0  0  0  0  0  0
    9.0905    1.1549    3.2332 C   0  0  0  0  0  0  0  0  0  0  0  0
    8.3091    1.8592    4.6299 Cl  0  0  0  0  0  0  0  0  0  0  0  0
    9.7881   -0.0603    3.3217 C   0  0  0  0  0  0  0  0  0  0  0  0
   10.4355   -0.6442    2.2242 C   0  0  0  0  0  0  0  0  0  0  0  0
   11.4707   -2.2513    2.3294 Br  0  0  0  0  0  0  0  0  0  0  0  0
   10.3847   -0.0234    0.9832 C   0  0  0  0  0  0  0  0  0  0  0  0
    9.7327    1.1966    0.8399 C   0  0  0  0  0  0  0  0  0  0  0  0
    9.7736    2.1741   -0.3262 C   0  0  0  0  0  0  0  0  0  0  0  0
   10.3135    1.9857   -1.6199 C   0  0  0  0  0  0  0  0  0  0  0  0
   10.2469    3.0596   -2.5862 C   0  0  0  0  0  0  0  0  0  0  0  0
    9.9878    3.8467   -3.3963 N   0  0  0  0  0  0  0  0  0  0  0  0
   10.8145    0.6819   -2.1307 C   0  0  0  0  0  0  0  0  0  0  0  0
   11.1136   -0.4357   -2.1449 N   0  0  0  0  0  0  0  0  0  0  0  0
   -7.9410   -7.0132    3.6507 H   0  0  0  0  0  0  0  0  0  0  0  0
   -1.8322   -5.3715    3.8570 H   0  0  0  0  0  0  0  0  0  0  0  0
   -4.3971   -5.9839    8.2835 H   0  0  0  0  0  0  0  0  0  0  0  0
   -1.7748   -3.9125    8.6621 H   0  0  0  0  0  0  0  0  0  0  0  0
   -1.3318   -6.5052    9.6226 H   0  0  0  0  0  0  0  0  0  0  0  0
    0.8478   -5.1487   10.3409 H   0  0  0  0  0  0  0  0  0  0  0  0
    2.2022   -4.5383    8.1817 H   0  0  0  0  0  0  0  0  0  0  0  0
    1.0183   -5.7947    6.1197 H   0  0  0  0  0  0  0  0  0  0  0  0
   -0.9529   -7.3418    7.1110 H   0  0  0  0  0  0  0  0  0  0  0  0
    0.5716   -7.5724    8.0625 H   0  0  0  0  0  0  0  0  0  0  0  0
   -0.5405   -3.5629    6.6317 H   0  0  0  0  0  0  0  0  0  0  0  0
   -4.7638    1.4591    1.4718 H   0  0  0  0  0  0  0  0  0  0  0  0
   -5.2481    0.3218    0.1812 H   0  0  0  0  0  0  0  0  0  0  0  0
   -2.6425    0.4918    1.7792 H   0  0  0  0  0  0  0  0  0  0  0  0
   -3.1109   -1.1145    1.1109 H   0  0  0  0  0  0  0  0  0  0  0  0
   -2.8695    0.2918    0.0046 H   0  0  0  0  0  0  0  0  0  0  0  0
   -6.4410   -0.9057    6.3842 H   0  0  0  0  0  0  0  0  0  0  0  0
   -6.6186   -2.6233    6.1169 H   0  0  0  0  0  0  0  0  0  0  0  0
   -8.6519   -0.6452    4.8738 H   0  0  0  0  0  0  0  0  0  0  0  0
   -8.7848   -1.1763    6.6102 H   0  0  0  0  0  0  0  0  0  0  0  0
   -8.8831   -2.3960    5.2811 H   0  0  0  0  0  0  0  0  0  0  0  0
   -8.3446   -5.3101   -2.4525 H   0  0  0  0  0  0  0  0  0  0  0  0
  -10.6915   -4.5740   -2.0599 H   0  0  0  0  0  0  0  0  0  0  0  0
  -11.1628   -2.1954   -1.5905 H   0  0  0  0  0  0  0  0  0  0  0  0
  -10.4052    0.1320   -1.6049 H   0  0  0  0  0  0  0  0  0  0  0  0
   -8.7325    0.5346   -2.0602 H   0  0  0  0  0  0  0  0  0  0  0  0
   -7.9033    0.2376    0.1697 H   0  0  0  0  0  0  0  0  0  0  0  0
   -9.4860    1.0910    0.3784 H   0  0  0  0  0  0  0  0  0  0  0  0
   -9.3667   -0.6766    0.7087 H   0  0  0  0  0  0  0  0  0  0  0  0
   -6.9724   -1.2427   -1.9719 H   0  0  0  0  0  0  0  0  0  0  0  0
    2.5322    5.6318   -5.0062 H   0  0  0  0  0  0  0  0  0  0  0  0
    3.1317    7.7735   -6.1454 H   0  0  0  0  0  0  0  0  0  0  0  0
    5.0394    7.8752   -7.6605 H   0  0  0  0  0  0  0  0  0  0  0  0
    6.8875    6.9253   -8.7280 H   0  0  0  0  0  0  0  0  0  0  0  0
    7.6444    5.4256   -8.1366 H   0  0  0  0  0  0  0  0  0  0  0  0
    5.0848    5.6255   -9.8878 H   0  0  0  0  0  0  0  0  0  0  0  0
    6.7464    5.3211  -10.5297 H   0  0  0  0  0  0  0  0  0  0  0  0
    5.9528    4.0860   -9.4576 H   0  0  0  0  0  0  0  0  0  0  0  0
    6.0443    3.7532   -6.7085 H   0  0  0  0  0  0  0  0  0  0  0  0
   -1.1880   -3.8506   -2.2794 H   0  0  0  0  0  0  0  0  0  0  0  0
    0.1638   -3.0992   -2.8564 H   0  0  0  0  0  0  0  0  0  0  0  0
    0.1638   -5.2310   -4.0012 H   0  0  0  0  0  0  0  0  0  0  0  0
   -1.6309   -5.0703   -4.3353 H   0  0  0  0  0  0  0  0  0  0  0  0
   -0.4522   -4.0874   -5.2973 H   0  0  0  0  0  0  0  0  0  0  0  0
    2.8764   -1.1728   -3.6235 H   0  0  0  0  0  0  0  0  0  0  0  0
    1.7268   -2.3916   -3.9010 H   0  0  0  0  0  0  0  0  0  0  0  0
    1.6927   -1.9350   -1.4099 H   0  0  0  0  0  0  0  0  0  0  0  0
    1.9993   -0.1843   -1.7084 H   0  0  0  0  0  0  0  0  0  0  0  0
    0.3311   -0.8574   -1.9246 H   0  0  0  0  0  0  0  0  0  0  0  0
    6.7329    8.7593    0.9412 H   0  0  0  0  0  0  0  0  0  0  0  0
    5.4109    9.4201    1.8227 H   0  0  0  0  0  0  0  0  0  0  0  0
    5.1354    7.4824    3.1822 H   0  0  0  0  0  0  0  0  0  0  0  0
    6.9207    7.4450    2.8977 H   0  0  0  0  0  0  0  0  0  0  0  0
    5.8209    6.3361    1.9759 H   0  0  0  0  0  0  0  0  0  0  0  0
    1.2437    5.6821   -1.2858 H   0  0  0  0  0  0  0  0  0  0  0  0
    0.6510    7.2457   -0.6958 H   0  0  0  0  0  0  0  0  0  0  0  0
    2.0258    6.9870   -3.4212 H   0  0  0  0  0  0  0  0  0  0  0  0
    1.1219    8.3694   -2.8068 H   0  0  0  0  0  0  0  0  0  0  0  0
    0.2633    6.8214   -3.2070 H   0  0  0  0  0  0  0  0  0  0  0  0
    9.0858    5.3491   -0.2151 H   0  0  0  0  0  0  0  0  0  0  0  0
    9.9100   -0.5526    4.2781 H   0  0  0  0  0  0  0  0  0  0  0  0
   10.8309   -0.4732    0.1619 H   0  0  0  0  0  0  0  0  0  0  0  0
  1  2  2  3
  2  3  1  0
  3  4  2  0
  3  5  1  0
  5  6  2  0
  6  7  1  0
  7  8  2  0
  8  9  1  0
  9 10  2  0
 10 11  1  0
 11 12  2  3
 12 13  1  0
 13 14  3  0
 12 15  1  0
 15 16  3  0
  8 17  1  0
 17 18  1  0
 18 19  1  0
 19 20  2  0
 20 21  1  0
 21 22  1  0
 21 23  1  0
  1 24  1  0
 24 25  1  0
 25 26  1  0
 26 27  2  0
 27 28  1  0
 28 29  2  0
 28 30  1  0
 30 31  2  0
 31 32  1  0
 32 33  1  0
 31 34  1  0
 34 35  1  0
 35 36  1  0
 36 37  1  0
 35 38  2  0
 38 39  1  0
 39 40  2  0
 39 41  1  0
 26 42  1  0
 42 43  2  0
 43 44  1  0
 44 45  2  0
 45 46  1  0
 46 47  2  0
 47 48  1  0
 48 49  1  0
 49 50  1  0
 48 51  2  0
 43 52  1  0
 52 53  1  0
 53 54  1  0
 54 55  1  0
 55 56  1  0
 56 57  1  0
 57 58  2  0
 58 59  1  0
 59 60  1  0
 57 61  1  0
 61 62  1  0
 62 63  1  0
 63 64  1  0
 64 65  1  0
 65 66  1  0
 66 67  2  0
 67 68  1  0
 68 69  2  0
 69 70  1  0
 70 71  1  0
 71 72  1  0
 70 73  2  0
 65 74  2  0
 74 75  1  0
 75 76  1  0
 76 77  1  0
 77 78  1  0
 78 79  1  0
 79 80  1  0
 80 81  1  0
 81 82  1  0
 82 83  1  0
 83 84  1  0
 81 85  1  0
 85 86  1  0
 78 87  1  0
 87 88  1  0
 74 89  1  0
 89 90  1  0
 90 91  1  0
 91 92  2  0
 92 93  1  0
 93 94  2  0
 93 95  1  0
 95 96  2  0
 96 97  1  0
 97 98  1  0
 96 99  1  0
 99100  1  0
100101  1  0
101102  1  0
100103  2  0
103104  1  0
104105  2  0
104106  1  0
 91107  1  0
107108  2  3
108109  1  0
109110  2  0
109111  1  0
111112  2  0
112113  1  0
112114  1  0
114115  2  0
115116  1  0
115117  1  0
117118  2  0
118119  1  0
119120  2  3
120121  1  0
121122  3  0
120123  1  0
123124  3  0
 11  2  1  0
 23 17  1  0
 41 24  2  0
 84 42  1  0
106 89  2  0
119108  1  0
 10  5  1  0
 22 18  1  0
 41 27  1  0
 51 44  1  0
 83 52  2  0
106 92  1  0
118111  1  0
 23  7  1  0
 38 30  1  0
 82 54  2  0
103 95  1  0
 80 55  2  0
 60 56  2  0
 79 61  2  0
 77 62  2  0
 76 64  2  0
 73 66  1  0
  1125  1  0
  6126  1  0
  9127  1  0
 17128  1  0
 18129  1  0
 19130  1  0
 20131  1  0
 21132  1  0
 22133  1  0
 22134  1  0
 23135  1  0
 32136  1  0
 32137  1  0
 33138  1  0
 33139  1  0
 33140  1  0
 36141  1  0
 36142  1  0
 37143  1  0
 37144  1  0
 37145  1  0
 45146  1  0
 46147  1  0
 47148  1  0
 49149  1  0
 49150  1  0
 50151  1  0
 50152  1  0
 50153  1  0
 51154  1  0
 67155  1  0
 68156  1  0
 69157  1  0
 71158  1  0
 71159  1  0
 72160  1  0
 72161  1  0
 72162  1  0
 73163  1  0
 85164  1  0
 85165  1  0
 86166  1  0
 86167  1  0
 86168  1  0
 87169  1  0
 87170  1  0
 88171  1  0
 88172  1  0
 88173  1  0
 97174  1  0
 97175  1  0
 98176  1  0
 98177  1  0
 98178  1  0
101179  1  0
101180  1  0
102181  1  0
102182  1  0
102183  1  0
107184  1  0
114185  1  0
117186  1  0
M  END

