
     RDKit          3D

200225  0  0  0  0  0  0  0  0999 V2000
    6.2195   -7.7291   -5.3404 C   0  0  0  0  0  0  0  0  0  0  0  0
    6.1692   -7.3311   -4.0529 C   0  0  0  0  0  0  0  0  0  0  0  0
    5.0288   -6.6565   -3.4156 C   0  0  0  0  0  0  0  0  0  0  0  0
    3.8504   -6.5897   -3.8587 O   0  0  0  0  0  0  0  0  0  0  0  0
    5.4845   -6.0277   -2.1964 C   0  0  0  0  0  0  0  0  0  0  0  0
    4.7419   -5.1750   -1.3455 C   0  0  0  0  0  0  0  0  0  0  0  0
    5.4899   -4.6023   -0.3327 C   0  0  0  0  0  0  0  0  0  0  0  0
    6.8954   -4.8320   -0.1750 C   0  0  0  0  0  0  0  0  0  0  0  0
    7.6248   -5.6739   -0.9981 C   0  0  0  0  0  0  0  0  0  0  0  0
    6.8615   -6.3099   -2.0183 C   0  0  0  0  0  0  0  0  0  0  0  0
    7.3096   -7.2424   -3.0918 C   0  0  0  0  0  0  0  0  0  0  0  0
    8.4168   -8.0303   -3.0651 C   0  0  0  0  0  0  0  0  0  0  0  0
    9.3357   -8.0280   -1.9582 C   0  0  0  0  0  0  0  0  0  0  0  0
   10.0782   -8.0411   -1.0709 N   0  0  0  0  0  0  0  0  0  0  0  0
    8.6598   -9.0531   -4.0489 C   0  0  0  0  0  0  0  0  0  0  0  0
    8.8613   -9.8764   -4.8368 N   0  0  0  0  0  0  0  0  0  0  0  0
    6.9350   -3.8866    0.9937 C   0  0  0  0  0  0  0  0  0  0  0  0
    7.0719   -4.4974    2.4204 C   0  0  0  0  0  0  0  0  0  0  0  0
    6.4370   -5.8677    2.4532 C   0  0  0  0  0  0  0  0  0  0  0  0
    5.1260   -5.6852    2.3157 C   0  0  0  0  0  0  0  0  0  0  0  0
    4.9080   -4.1931    2.1958 C   0  0  0  0  0  0  0  0  0  0  0  0
    5.9924   -3.7154    3.1431 C   0  0  0  0  0  0  0  0  0  0  0  0
    5.4908   -3.6729    0.8464 C   0  0  0  0  0  0  0  0  0  0  0  0
    5.0881   -7.5351   -6.2568 C   0  0  0  0  0  0  0  0  0  0  0  0
    4.9734   -6.3076   -6.9305 C   0  0  0  0  0  0  0  0  0  0  0  0
    3.7714   -6.0112   -7.5679 C   0  0  0  0  0  0  0  0  0  0  0  0
    3.2803   -4.7031   -7.9683 C   0  0  0  0  0  0  0  0  0  0  0  0
    3.9518   -3.6411   -8.0435 O   0  0  0  0  0  0  0  0  0  0  0  0
    1.8387   -4.8303   -8.1192 C   0  0  0  0  0  0  0  0  0  0  0  0
    1.4851   -6.1516   -7.8981 C   0  0  0  0  0  0  0  0  0  0  0  0
    2.7007   -6.8951   -7.5427 C   0  0  0  0  0  0  0  0  0  0  0  0
    2.8144   -8.1435   -6.9307 C   0  0  0  0  0  0  0  0  0  0  0  0
    4.0267   -8.4672   -6.2935 C   0  0  0  0  0  0  0  0  0  0  0  0
    0.1480   -6.5187   -7.7280 C   0  0  0  0  0  0  0  0  0  0  0  0
   -0.8294   -5.5047   -7.7209 C   0  0  0  0  0  0  0  0  0  0  0  0
   -0.4535   -4.1454   -7.8456 C   0  0  0  0  0  0  0  0  0  0  0  0
    0.8926   -3.8125   -8.0867 C   0  0  0  0  0  0  0  0  0  0  0  0
   -1.3820   -3.0714   -7.4491 C   0  0  0  0  0  0  0  0  0  0  0  0
   -2.7171   -2.8683   -7.8641 C   0  0  0  0  0  0  0  0  0  0  0  0
   -3.3966   -3.6295   -8.9396 C   0  0  0  0  0  0  0  0  0  0  0  0
   -2.7061   -3.9757  -10.1158 C   0  0  0  0  0  0  0  0  0  0  0  0
   -3.3409   -4.7130  -11.1192 C   0  0  0  0  0  0  0  0  0  0  0  0
   -4.6764   -5.0918  -10.9741 C   0  0  0  0  0  0  0  0  0  0  0  0
   -5.3885   -4.7334   -9.8221 C   0  0  0  0  0  0  0  0  0  0  0  0
   -6.8273   -5.1401   -9.6615 C   0  0  0  0  0  0  0  0  0  0  0  0
   -6.9402   -6.5023   -8.9892 C   0  0  0  0  0  0  0  0  0  0  0  0
   -4.7387   -4.0270   -8.7968 C   0  0  0  0  0  0  0  0  0  0  0  0
   -3.2936   -1.8103   -7.1379 C   0  0  0  0  0  0  0  0  0  0  0  0
   -4.8574   -1.1206   -7.0578 S   0  0  0  0  0  0  0  0  0  0  0  0
   -4.3811   -0.0669   -5.8088 C   0  0  0  0  0  0  0  0  0  0  0  0
   -4.9933    0.6272   -4.8010 C   0  0  0  0  0  0  0  0  0  0  0  0
   -6.3529    0.8075   -4.5103 C   0  0  0  0  0  0  0  0  0  0  0  0
   -6.7237    1.3373   -3.2392 C   0  0  0  0  0  0  0  0  0  0  0  0
   -8.0494    1.4824   -2.9930 N   0  0  0  0  0  0  0  0  0  0  0  0
   -8.6598    0.8939   -4.4190 S   0  0  0  0  0  0  0  0  0  0  0  0
   -7.3589    0.4741   -5.3553 N   0  0  0  0  0  0  0  0  0  0  0  0
   -5.7168    1.6933   -2.3419 C   0  0  0  0  0  0  0  0  0  0  0  0
   -5.7625    2.2737   -1.1045 C   0  0  0  0  0  0  0  0  0  0  0  0
   -6.8710    2.7651    0.0946 S   0  0  0  0  0  0  0  0  0  0  0  0
   -5.5896    3.2386    1.1332 C   0  0  0  0  0  0  0  0  0  0  0  0
   -5.4963    3.6178    2.4818 C   0  0  0  0  0  0  0  0  0  0  0  0
   -6.6345    3.9381    3.3657 C   0  0  0  0  0  0  0  0  0  0  0  0
   -7.7701    3.1141    3.4235 C   0  0  0  0  0  0  0  0  0  0  0  0
   -8.8328    3.4400    4.2736 C   0  0  0  0  0  0  0  0  0  0  0  0
   -8.7713    4.5871    5.0709 C   0  0  0  0  0  0  0  0  0  0  0  0
   -7.6523    5.4290    5.0102 C   0  0  0  0  0  0  0  0  0  0  0  0
   -7.5770    6.6757    5.8515 C   0  0  0  0  0  0  0  0  0  0  0  0
   -6.5801    6.5101    6.9940 C   0  0  0  0  0  0  0  0  0  0  0  0
   -6.5880    5.0986    4.1565 C   0  0  0  0  0  0  0  0  0  0  0  0
   -4.1467    3.6677    2.8896 C   0  0  0  0  0  0  0  0  0  0  0  0
   -3.1253    3.2530    1.5951 S   0  0  0  0  0  0  0  0  0  0  0  0
   -4.3766    3.0401    0.5216 C   0  0  0  0  0  0  0  0  0  0  0  0
   -4.4815    2.4882   -0.7370 C   0  0  0  0  0  0  0  0  0  0  0  0
   -3.5710    2.1047   -1.6608 N   0  0  0  0  0  0  0  0  0  0  0  0
   -4.3474    1.5356   -2.6384 C   0  0  0  0  0  0  0  0  0  0  0  0
   -3.9793    0.9053   -3.8626 C   0  0  0  0  0  0  0  0  0  0  0  0
   -2.8030    0.2953   -4.2303 N   0  0  0  0  0  0  0  0  0  0  0  0
   -3.0891   -0.2495   -5.4400 C   0  0  0  0  0  0  0  0  0  0  0  0
   -2.4726   -1.2391   -6.1950 C   0  0  0  0  0  0  0  0  0  0  0  0
   -0.9862   -1.9940   -6.1952 S   0  0  0  0  0  0  0  0  0  0  0  0
   -1.7322   -0.1989   -3.3531 C   0  0  0  0  0  0  0  0  0  0  0  0
   -0.3793    0.4176   -3.7158 C   0  0  0  0  0  0  0  0  0  0  0  0
   -2.2324    2.7028   -1.7717 C   0  0  0  0  0  0  0  0  0  0  0  0
   -2.1316    3.6418   -2.9684 C   0  0  0  0  0  0  0  0  0  0  0  0
   -3.6502    3.5506    4.2603 C   0  0  0  0  0  0  0  0  0  0  0  0
   -2.9815    2.3982    4.6641 C   0  0  0  0  0  0  0  0  0  0  0  0
   -2.0030    2.6267    5.6381 C   0  0  0  0  0  0  0  0  0  0  0  0
   -1.0056    1.7076    6.0229 C   0  0  0  0  0  0  0  0  0  0  0  0
   -0.8860    0.3898    5.3727 C   0  0  0  0  0  0  0  0  0  0  0  0
   -0.6060    0.1810    4.0264 C   0  0  0  0  0  0  0  0  0  0  0  0
   -0.4971   -1.1732    3.6923 C   0  0  0  0  0  0  0  0  0  0  0  0
   -0.2050   -1.6002    2.4400 F   0  0  0  0  0  0  0  0  0  0  0  0
   -0.7296   -2.0245    4.7618 C   0  0  0  0  0  0  0  0  0  0  0  0
   -0.6552   -3.8107    4.7252 S   0  0  0  0  0  0  0  0  0  0  0  0
   -2.1862   -4.0633    3.7512 C   0  0  0  0  0  0  0  0  0  0  0  0
   -3.4208   -3.4862    4.4294 C   0  0  0  0  0  0  0  0  0  0  0  0
   -1.0275   -1.1047    6.1379 S   0  0  0  0  0  0  0  0  0  0  0  0
    0.0410    2.2020    6.8155 C   0  0  0  0  0  0  0  0  0  0  0  0
    0.1042    3.5443    7.2247 C   0  0  0  0  0  0  0  0  0  0  0  0
   -0.9344    4.4407    6.9001 C   0  0  0  0  0  0  0  0  0  0  0  0
   -0.9040    5.8453    7.3451 C   0  0  0  0  0  0  0  0  0  0  0  0
   -1.0198    6.3395    8.9538 S   0  0  0  0  0  0  0  0  0  0  0  0
   -1.0460    7.9900    8.6181 C   0  0  0  0  0  0  0  0  0  0  0  0
   -1.2997    9.2878    9.8259 S   0  0  0  0  0  0  0  0  0  0  0  0
    0.4751    9.5745   10.1464 C   0  0  0  0  0  0  0  0  0  0  0  0
    0.9535    8.6973   11.2968 C   0  0  0  0  0  0  0  0  0  0  0  0
   -0.9746    8.1680    7.2428 C   0  0  0  0  0  0  0  0  0  0  0  0
   -0.9004    6.9712    6.5237 C   0  0  0  0  0  0  0  0  0  0  0  0
   -1.0251    9.3875    6.6461 F   0  0  0  0  0  0  0  0  0  0  0  0
   -1.9520    3.9573    6.0608 C   0  0  0  0  0  0  0  0  0  0  0  0
   -3.0702    4.8496    5.1676 S   0  0  0  0  0  0  0  0  0  0  0  0
    1.3801    3.9269    7.6725 C   0  0  0  0  0  0  0  0  0  0  0  0
    2.3271    2.9090    7.5463 C   0  0  0  0  0  0  0  0  0  0  0  0
    1.5607    1.5082    6.9944 S   0  0  0  0  0  0  0  0  0  0  0  0
    3.7430    3.1815    7.2397 C   0  0  0  0  0  0  0  0  0  0  0  0
    4.1575    3.4662    5.9856 C   0  0  0  0  0  0  0  0  0  0  0  0
    3.2800    3.7167    4.8269 C   0  0  0  0  0  0  0  0  0  0  0  0
    2.0463    3.4768    4.7400 O   0  0  0  0  0  0  0  0  0  0  0  0
    4.0579    4.3353    3.7831 C   0  0  0  0  0  0  0  0  0  0  0  0
    3.6043    4.8401    2.5662 C   0  0  0  0  0  0  0  0  0  0  0  0
    4.5210    5.4978    1.7282 C   0  0  0  0  0  0  0  0  0  0  0  0
    4.1024    6.0231    0.4980 C   0  0  0  0  0  0  0  0  0  0  0  0
    5.0053    6.7052   -0.3164 C   0  0  0  0  0  0  0  0  0  0  0  0
    6.3341    6.8660    0.0870 C   0  0  0  0  0  0  0  0  0  0  0  0
    6.7692    6.3467    1.3105 C   0  0  0  0  0  0  0  0  0  0  0  0
    5.8740    5.6522    2.1408 C   0  0  0  0  0  0  0  0  0  0  0  0
    6.2965    5.1383    3.3863 C   0  0  0  0  0  0  0  0  0  0  0  0
    5.3695    4.4523    4.1920 C   0  0  0  0  0  0  0  0  0  0  0  0
    5.5386    3.8093    5.5317 C   0  0  0  0  0  0  0  0  0  0  0  0
    6.7003    3.3468    6.0658 C   0  0  0  0  0  0  0  0  0  0  0  0
    7.9763    3.5405    5.4268 C   0  0  0  0  0  0  0  0  0  0  0  0
    9.0044    3.6944    4.9217 N   0  0  0  0  0  0  0  0  0  0  0  0
    6.7244    2.4843    7.2191 C   0  0  0  0  0  0  0  0  0  0  0  0
    6.7523    1.7860    8.1403 N   0  0  0  0  0  0  0  0  0  0  0  0
    7.1504   -8.0247   -5.7929 H   0  0  0  0  0  0  0  0  0  0  0  0
    3.6915   -4.9574   -1.4924 H   0  0  0  0  0  0  0  0  0  0  0  0
    8.6910   -5.7842   -0.8701 H   0  0  0  0  0  0  0  0  0  0  0  0
    7.5417   -2.9725    0.8118 H   0  0  0  0  0  0  0  0  0  0  0  0
    8.0852   -4.4367    2.8678 H   0  0  0  0  0  0  0  0  0  0  0  0
    6.9324   -6.8161    2.6345 H   0  0  0  0  0  0  0  0  0  0  0  0
    4.3685   -6.4569    2.3732 H   0  0  0  0  0  0  0  0  0  0  0  0
    3.8802   -3.8470    2.4289 H   0  0  0  0  0  0  0  0  0  0  0  0
    6.1548   -2.6117    3.1206 H   0  0  0  0  0  0  0  0  0  0  0  0
    5.8343   -4.0432    4.1971 H   0  0  0  0  0  0  0  0  0  0  0  0
    5.2219   -2.6237    0.5917 H   0  0  0  0  0  0  0  0  0  0  0  0
    5.7480   -5.5531   -6.8504 H   0  0  0  0  0  0  0  0  0  0  0  0
    1.9668   -8.8121   -6.8677 H   0  0  0  0  0  0  0  0  0  0  0  0
    4.1021   -9.3974   -5.7471 H   0  0  0  0  0  0  0  0  0  0  0  0
   -0.1251   -7.5419   -7.5078 H   0  0  0  0  0  0  0  0  0  0  0  0
   -1.8564   -5.7675   -7.4970 H   0  0  0  0  0  0  0  0  0  0  0  0
    1.2117   -2.7773   -8.1092 H   0  0  0  0  0  0  0  0  0  0  0  0
   -1.6777   -3.6751  -10.2635 H   0  0  0  0  0  0  0  0  0  0  0  0
   -2.7984   -4.9835  -12.0145 H   0  0  0  0  0  0  0  0  0  0  0  0
   -5.1542   -5.6633  -11.7596 H   0  0  0  0  0  0  0  0  0  0  0  0
   -7.3269   -5.1788  -10.6547 H   0  0  0  0  0  0  0  0  0  0  0  0
   -7.3711   -4.3862   -9.0520 H   0  0  0  0  0  0  0  0  0  0  0  0
   -6.4344   -7.2774   -9.6015 H   0  0  0  0  0  0  0  0  0  0  0  0
   -8.0078   -6.7758   -8.8795 H   0  0  0  0  0  0  0  0  0  0  0  0
   -6.4771   -6.4749   -7.9812 H   0  0  0  0  0  0  0  0  0  0  0  0
   -5.2753   -3.7995   -7.8838 H   0  0  0  0  0  0  0  0  0  0  0  0
   -7.8303    2.2097    2.8315 H   0  0  0  0  0  0  0  0  0  0  0  0
   -9.7053    2.8014    4.3194 H   0  0  0  0  0  0  0  0  0  0  0  0
   -9.5972    4.8178    5.7336 H   0  0  0  0  0  0  0  0  0  0  0  0
   -7.2635    7.5339    5.2169 H   0  0  0  0  0  0  0  0  0  0  0  0
   -8.5758    6.9289    6.2735 H   0  0  0  0  0  0  0  0  0  0  0  0
   -6.8376    5.6216    7.6052 H   0  0  0  0  0  0  0  0  0  0  0  0
   -6.5984    7.4102    7.6436 H   0  0  0  0  0  0  0  0  0  0  0  0
   -5.5513    6.3925    6.5923 H   0  0  0  0  0  0  0  0  0  0  0  0
   -5.7340    5.7601    4.0927 H   0  0  0  0  0  0  0  0  0  0  0  0
   -1.6568   -1.3017   -3.4487 H   0  0  0  0  0  0  0  0  0  0  0  0
   -1.9862   -0.0421   -2.2876 H   0  0  0  0  0  0  0  0  0  0  0  0
   -0.4189    1.5230   -3.7064 H   0  0  0  0  0  0  0  0  0  0  0  0
    0.3937    0.0778   -2.9929 H   0  0  0  0  0  0  0  0  0  0  0  0
   -0.0631    0.1140   -4.7323 H   0  0  0  0  0  0  0  0  0  0  0  0
   -1.4415    1.9437   -1.7786 H   0  0  0  0  0  0  0  0  0  0  0  0
   -2.0024    3.3142   -0.8792 H   0  0  0  0  0  0  0  0  0  0  0  0
   -1.1295    4.1141   -2.9854 H   0  0  0  0  0  0  0  0  0  0  0  0
   -2.8963    4.4436   -2.8820 H   0  0  0  0  0  0  0  0  0  0  0  0
   -2.2754    3.0971   -3.9253 H   0  0  0  0  0  0  0  0  0  0  0  0
   -3.0911    1.4569    4.1413 H   0  0  0  0  0  0  0  0  0  0  0  0
   -0.4679    0.9833    3.3123 H   0  0  0  0  0  0  0  0  0  0  0  0
   -2.0675   -3.6213    2.7429 H   0  0  0  0  0  0  0  0  0  0  0  0
   -2.3296   -5.1559    3.6354 H   0  0  0  0  0  0  0  0  0  0  0  0
   -3.3943   -2.3768    4.4222 H   0  0  0  0  0  0  0  0  0  0  0  0
   -3.4967   -3.8547    5.4766 H   0  0  0  0  0  0  0  0  0  0  0  0
   -4.3286   -3.8075    3.8697 H   0  0  0  0  0  0  0  0  0  0  0  0
    1.0872    9.3795    9.2396 H   0  0  0  0  0  0  0  0  0  0  0  0
    0.6135   10.6400   10.4247 H   0  0  0  0  0  0  0  0  0  0  0  0
    0.3455    8.8908   12.2059 H   0  0  0  0  0  0  0  0  0  0  0  0
    0.8746    7.6240   11.0224 H   0  0  0  0  0  0  0  0  0  0  0  0
    2.0168    8.9323   11.5262 H   0  0  0  0  0  0  0  0  0  0  0  0
   -0.8555    6.9282    5.4435 H   0  0  0  0  0  0  0  0  0  0  0  0
    1.6545    4.9571    7.8655 H   0  0  0  0  0  0  0  0  0  0  0  0
    4.4297    3.1990    8.0722 H   0  0  0  0  0  0  0  0  0  0  0  0
    2.5651    4.7291    2.2876 H   0  0  0  0  0  0  0  0  0  0  0  0
    3.0676    5.9233    0.1814 H   0  0  0  0  0  0  0  0  0  0  0  0
    4.6760    7.1096   -1.2665 H   0  0  0  0  0  0  0  0  0  0  0  0
    7.0283    7.3992   -0.5474 H   0  0  0  0  0  0  0  0  0  0  0  0
    7.7965    6.4907    1.6114 H   0  0  0  0  0  0  0  0  0  0  0  0
    7.3097    5.3051    3.7129 H   0  0  0  0  0  0  0  0  0  0  0  0
  1  2  2  3
  2  3  1  0
  3  4  2  0
  3  5  1  0
  5  6  2  0
  6  7  1  0
  7  8  2  0
  8  9  1  0
  9 10  2  0
 10 11  1  0
 11 12  2  3
 12 13  1  0
 13 14  3  0
 12 15  1  0
 15 16  3  0
  8 17  1  0
 17 18  1  0
 18 19  1  0
 19 20  2  0
 20 21  1  0
 21 22  1  0
 21 23  1  0
  1 24  1  0
 24 25  2  0
 25 26  1  0
 26 27  1  0
 27 28  2  0
 27 29  1  0
 29 30  2  0
 30 31  1  0
 31 32  1  0
 32 33  2  0
 30 34  1  0
 34 35  2  0
 35 36  1  0
 36 37  2  0
 36 38  1  0
 38 39  2  0
 39 40  1  0
 40 41  2  0
 41 42  1  0
 42 43  2  0
 43 44  1  0
 44 45  1  0
 45 46  1  0
 44 47  2  0
 39 48  1  0
 48 49  1  0
 49 50  1  0
 50 51  1  0
 51 52  1  0
 52 53  1  0
 53 54  2  0
 54 55  1  0
 55 56  1  0
 53 57  1  0
 57 58  1  0
 58 59  1  0
 59 60  1  0
 60 61  1  0
 61 62  1  0
 62 63  2  0
 63 64  1  0
 64 65  2  0
 65 66  1  0
 66 67  1  0
 67 68  1  0
 66 69  2  0
 61 70  2  0
 70 71  1  0
 71 72  1  0
 72 73  1  0
 73 74  1  0
 74 75  1  0
 75 76  1  0
 76 77  1  0
 77 78  1  0
 78 79  1  0
 79 80  1  0
 77 81  1  0
 81 82  1  0
 74 83  1  0
 83 84  1  0
 70 85  1  0
 85 86  2  0
 86 87  1  0
 87 88  2  0
 88 89  1  0
 89 90  2  0
 90 91  1  0
 91 92  1  0
 91 93  2  0
 93 94  1  0
 94 95  1  0
 95 96  1  0
 93 97  1  0
 88 98  1  0
 98 99  2  0
 99100  1  0
100101  1  0
101102  1  0
102103  1  0
103104  1  0
104105  1  0
105106  1  0
103107  2  0
107108  1  0
107109  1  0
100110  2  0
110111  1  0
 99112  1  0
112113  2  0
113114  1  0
113115  1  0
115116  2  3
116117  1  0
117118  2  0
117119  1  0
119120  2  0
120121  1  0
121122  2  0
122123  1  0
123124  2  0
124125  1  0
125126  2  0
126127  1  0
127128  2  0
128129  1  0
129130  2  3
130131  1  0
131132  3  0
130133  1  0
133134  3  0
 11  2  1  0
 23 17  1  0
 33 24  1  0
 80 38  1  0
111 85  1  0
129116  1  0
 10  5  1  0
 22 18  1  0
 31 26  2  0
 47 40  1  0
 79 48  2  0
110 87  1  0
128119  1  0
 23  7  1  0
 37 29  1  0
 78 50  2  0
 97 89  1  0
114 98  1  0
126121  1  0
 76 51  2  0
108101  2  0
 56 52  2  0
 75 57  2  0
 73 58  2  0
 72 60  2  0
 69 62  1  0
  1135  1  0
  6136  1  0
  9137  1  0
 17138  1  0
 18139  1  0
 19140  1  0
 20141  1  0
 21142  1  0
 22143  1  0
 22144  1  0
 23145  1  0
 25146  1  0
 32147  1  0
 33148  1  0
 34149  1  0
 35150  1  0
 37151  1  0
 41152  1  0
 42153  1  0
 43154  1  0
 45155  1  0
 45156  1  0
 46157  1  0
 46158  1  0
 46159  1  0
 47160  1  0
 63161  1  0
 64162  1  0
 65163  1  0
 67164  1  0
 67165  1  0
 68166  1  0
 68167  1  0
 68168  1  0
 69169  1  0
 81170  1  0
 81171  1  0
 82172  1  0
 82173  1  0
 82174  1  0
 83175  1  0
 83176  1  0
 84177  1  0
 84178  1  0
 84179  1  0
 86180  1  0
 90181  1  0
 95182  1  0
 95183  1  0
 96184  1  0
 96185  1  0
 96186  1  0
105187  1  0
105188  1  0
106189  1  0
106190  1  0
106191  1  0
108192  1  0
112193  1  0
115194  1  0
120195  1  0
122196  1  0
123197  1  0
124198  1  0
125199  1  0
127200  1  0
M  END

