
     RDKit          3D

168190  0  0  0  0  0  0  0  0999 V2000
   -2.1458   -5.5715    6.2248 C   0  0  0  0  0  0  0  0  0  0  0  0
   -3.0651   -5.8737    5.2950 C   0  0  0  0  0  0  0  0  0  0  0  0
   -3.4016   -7.2302    4.8636 C   0  0  0  0  0  0  0  0  0  0  0  0
   -2.7889   -8.2844    5.1859 O   0  0  0  0  0  0  0  0  0  0  0  0
   -4.6555   -7.1855    4.1383 C   0  0  0  0  0  0  0  0  0  0  0  0
   -5.3521   -8.2751    3.5628 C   0  0  0  0  0  0  0  0  0  0  0  0
   -6.5516   -7.9244    2.9691 C   0  0  0  0  0  0  0  0  0  0  0  0
   -7.0518   -6.5843    2.9518 C   0  0  0  0  0  0  0  0  0  0  0  0
   -6.3881   -5.5174    3.5319 C   0  0  0  0  0  0  0  0  0  0  0  0
   -5.1388   -5.8508    4.1297 C   0  0  0  0  0  0  0  0  0  0  0  0
   -4.1542   -4.9680    4.8152 C   0  0  0  0  0  0  0  0  0  0  0  0
   -4.0848   -3.6099    4.7502 C   0  0  0  0  0  0  0  0  0  0  0  0
   -5.0749   -2.8095    4.0891 C   0  0  0  0  0  0  0  0  0  0  0  0
   -5.8608   -2.1438    3.5618 N   0  0  0  0  0  0  0  0  0  0  0  0
   -2.9305   -2.8791    5.2095 C   0  0  0  0  0  0  0  0  0  0  0  0
   -2.0010   -2.2913    5.5715 N   0  0  0  0  0  0  0  0  0  0  0  0
   -8.2778   -7.0333    2.2118 C   0  0  0  0  0  0  0  0  0  0  0  0
   -9.6140   -7.1152    3.0066 C   0  0  0  0  0  0  0  0  0  0  0  0
   -9.3326   -7.4327    4.4563 C   0  0  0  0  0  0  0  0  0  0  0  0
   -8.8690   -8.6828    4.4886 C   0  0  0  0  0  0  0  0  0  0  0  0
   -8.8564   -9.1767    3.0581 C   0  0  0  0  0  0  0  0  0  0  0  0
  -10.1037   -8.4796    2.5536 C   0  0  0  0  0  0  0  0  0  0  0  0
   -7.7724   -8.4080    2.2404 C   0  0  0  0  0  0  0  0  0  0  0  0
   -0.6937   -5.9056    6.1330 C   0  0  0  0  0  0  0  0  0  0  0  0
    0.1365   -5.4139    7.1650 C   0  0  0  0  0  0  0  0  0  0  0  0
   -0.4040   -5.0772    8.3648 F   0  0  0  0  0  0  0  0  0  0  0  0
    1.4715   -5.0586    6.9103 C   0  0  0  0  0  0  0  0  0  0  0  0
    2.1347   -4.3294    7.8393 F   0  0  0  0  0  0  0  0  0  0  0  0
    2.0362   -5.2503    5.6363 C   0  0  0  0  0  0  0  0  0  0  0  0
    1.3147   -6.0225    4.7114 C   0  0  0  0  0  0  0  0  0  0  0  0
   -0.0675   -6.3072    4.9307 C   0  0  0  0  0  0  0  0  0  0  0  0
   -0.7345   -6.8399    3.8753 N   0  0  0  0  0  0  0  0  0  0  0  0
    0.4678   -6.9413    2.7502 S   0  0  0  0  0  0  0  0  0  0  0  0
    1.8115   -6.3196    3.4801 N   0  0  0  0  0  0  0  0  0  0  0  0
    2.8047   -4.1309    5.0638 C   0  0  0  0  0  0  0  0  0  0  0  0
    4.1997   -3.8923    5.0185 C   0  0  0  0  0  0  0  0  0  0  0  0
    5.2344   -4.7392    5.6322 C   0  0  0  0  0  0  0  0  0  0  0  0
    6.1795   -5.3834    4.8208 C   0  0  0  0  0  0  0  0  0  0  0  0
    7.1819   -6.1670    5.3955 C   0  0  0  0  0  0  0  0  0  0  0  0
    7.2575   -6.3038    6.7844 C   0  0  0  0  0  0  0  0  0  0  0  0
    6.3266   -5.6570    7.6110 C   0  0  0  0  0  0  0  0  0  0  0  0
    6.4534   -5.7484    9.1093 C   0  0  0  0  0  0  0  0  0  0  0  0
    7.4691   -4.7336    9.6330 C   0  0  0  0  0  0  0  0  0  0  0  0
    5.3164   -4.8720    7.0281 C   0  0  0  0  0  0  0  0  0  0  0  0
    4.4759   -2.7721    4.2160 C   0  0  0  0  0  0  0  0  0  0  0  0
    5.8791   -1.8813    3.7863 S   0  0  0  0  0  0  0  0  0  0  0  0
    4.9555   -0.8098    2.8243 C   0  0  0  0  0  0  0  0  0  0  0  0
    5.0473    0.4103    2.1888 C   0  0  0  0  0  0  0  0  0  0  0  0
    6.0665    1.3736    2.1069 C   0  0  0  0  0  0  0  0  0  0  0  0
    5.7504    2.6768    1.5917 C   0  0  0  0  0  0  0  0  0  0  0  0
    6.7555    3.5850    1.5613 N   0  0  0  0  0  0  0  0  0  0  0  0
    7.9780    2.6675    2.2092 S   0  0  0  0  0  0  0  0  0  0  0  0
    7.3350    1.1753    2.5351 N   0  0  0  0  0  0  0  0  0  0  0  0
    4.4375    2.9357    1.1659 C   0  0  0  0  0  0  0  0  0  0  0  0
    3.8177    4.0178    0.5844 C   0  0  0  0  0  0  0  0  0  0  0  0
    4.1728    5.5538   -0.0624 S   0  0  0  0  0  0  0  0  0  0  0  0
    2.6039    5.6732   -0.7495 C   0  0  0  0  0  0  0  0  0  0  0  0
    1.9767    6.5568   -1.6408 C   0  0  0  0  0  0  0  0  0  0  0  0
    2.5997    7.7861   -2.1728 C   0  0  0  0  0  0  0  0  0  0  0  0
    3.2146    8.7010   -1.3051 C   0  0  0  0  0  0  0  0  0  0  0  0
    3.7386    9.8976   -1.7975 C   0  0  0  0  0  0  0  0  0  0  0  0
    3.6499   10.1966   -3.1605 C   0  0  0  0  0  0  0  0  0  0  0  0
    3.0608    9.2797   -4.0434 C   0  0  0  0  0  0  0  0  0  0  0  0
    2.9104    9.6040   -5.5054 C   0  0  0  0  0  0  0  0  0  0  0  0
    1.5017   10.1097   -5.8008 C   0  0  0  0  0  0  0  0  0  0  0  0
    2.5512    8.0724   -3.5461 C   0  0  0  0  0  0  0  0  0  0  0  0
    0.7122    6.0518   -2.0274 C   0  0  0  0  0  0  0  0  0  0  0  0
    0.4283    4.5461   -1.2914 S   0  0  0  0  0  0  0  0  0  0  0  0
    1.8838    4.5398   -0.4920 C   0  0  0  0  0  0  0  0  0  0  0  0
    2.5683    3.6094    0.2478 C   0  0  0  0  0  0  0  0  0  0  0  0
    2.3391    2.3034    0.5041 N   0  0  0  0  0  0  0  0  0  0  0  0
    3.4604    1.9362    1.1823 C   0  0  0  0  0  0  0  0  0  0  0  0
    3.7338    0.7112    1.7991 C   0  0  0  0  0  0  0  0  0  0  0  0
    2.8361   -0.1897    2.2949 N   0  0  0  0  0  0  0  0  0  0  0  0
    3.6359   -1.1187    2.8603 C   0  0  0  0  0  0  0  0  0  0  0  0
    3.3663   -2.1944    3.6651 C   0  0  0  0  0  0  0  0  0  0  0  0
    1.9801   -2.9744    4.1300 S   0  0  0  0  0  0  0  0  0  0  0  0
    1.4596    0.0922    2.7423 C   0  0  0  0  0  0  0  0  0  0  0  0
    1.4583    0.6985    4.1444 C   0  0  0  0  0  0  0  0  0  0  0  0
    1.5251    1.4180   -0.3503 C   0  0  0  0  0  0  0  0  0  0  0  0
    2.0778    1.3552   -1.7765 C   0  0  0  0  0  0  0  0  0  0  0  0
   -0.1006    6.4671   -3.1665 C   0  0  0  0  0  0  0  0  0  0  0  0
   -1.0401    7.4904   -3.1988 C   0  0  0  0  0  0  0  0  0  0  0  0
   -1.9466    7.3692   -4.2727 C   0  0  0  0  0  0  0  0  0  0  0  0
   -3.3440    8.4705   -4.5033 S   0  0  0  0  0  0  0  0  0  0  0  0
   -2.4386    9.7016   -5.5044 C   0  0  0  0  0  0  0  0  0  0  0  0
   -1.8838   10.8014   -4.6099 C   0  0  0  0  0  0  0  0  0  0  0  0
   -1.7498    6.2169   -5.0297 C   0  0  0  0  0  0  0  0  0  0  0  0
   -0.4151    5.4124   -4.4248 S   0  0  0  0  0  0  0  0  0  0  0  0
   -2.6241    5.6535   -6.0735 C   0  0  0  0  0  0  0  0  0  0  0  0
   -2.9271    4.3384   -6.0878 C   0  0  0  0  0  0  0  0  0  0  0  0
   -2.8528    3.5394   -7.3127 C   0  0  0  0  0  0  0  0  0  0  0  0
   -3.0068    3.9732   -8.4875 O   0  0  0  0  0  0  0  0  0  0  0  0
   -2.4080    2.1969   -6.9600 C   0  0  0  0  0  0  0  0  0  0  0  0
   -1.9420    1.1879   -7.8384 C   0  0  0  0  0  0  0  0  0  0  0  0
   -1.3703    0.0996   -7.1922 C   0  0  0  0  0  0  0  0  0  0  0  0
   -1.2728    0.0028   -5.7671 C   0  0  0  0  0  0  0  0  0  0  0  0
   -1.7239    0.9814   -4.9020 C   0  0  0  0  0  0  0  0  0  0  0  0
   -2.3100    2.1047   -5.5450 C   0  0  0  0  0  0  0  0  0  0  0  0
   -2.7645    3.3817   -4.9512 C   0  0  0  0  0  0  0  0  0  0  0  0
   -3.1983    3.5813   -3.6843 C   0  0  0  0  0  0  0  0  0  0  0  0
   -3.9453    4.7597   -3.3277 C   0  0  0  0  0  0  0  0  0  0  0  0
   -4.5667    5.6941   -3.0382 N   0  0  0  0  0  0  0  0  0  0  0  0
   -3.0788    2.5847   -2.6528 C   0  0  0  0  0  0  0  0  0  0  0  0
   -2.9849    1.7876   -1.8169 N   0  0  0  0  0  0  0  0  0  0  0  0
   -0.5300   -1.2921   -5.8853 C   0  0  0  0  0  0  0  0  0  0  0  0
    1.0047   -1.2689   -5.5999 C   0  0  0  0  0  0  0  0  0  0  0  0
    1.5757    0.0864   -5.9573 C   0  0  0  0  0  0  0  0  0  0  0  0
    1.4983    0.1895   -7.2845 C   0  0  0  0  0  0  0  0  0  0  0  0
    0.8830   -1.0963   -7.7849 C   0  0  0  0  0  0  0  0  0  0  0  0
    1.5049   -2.0598   -6.7917 C   0  0  0  0  0  0  0  0  0  0  0  0
   -0.6114   -1.1865   -7.3473 C   0  0  0  0  0  0  0  0  0  0  0  0
   -2.3710   -4.7372    6.8746 H   0  0  0  0  0  0  0  0  0  0  0  0
   -4.9905   -9.2926    3.5904 H   0  0  0  0  0  0  0  0  0  0  0  0
   -6.8328   -4.5374    3.5289 H   0  0  0  0  0  0  0  0  0  0  0  0
   -8.3668   -6.6100    1.1849 H   0  0  0  0  0  0  0  0  0  0  0  0
  -10.3120   -6.2686    2.8368 H   0  0  0  0  0  0  0  0  0  0  0  0
   -9.5269   -6.8024    5.3175 H   0  0  0  0  0  0  0  0  0  0  0  0
   -8.6223   -9.2446    5.3823 H   0  0  0  0  0  0  0  0  0  0  0  0
   -8.8402  -10.2791    2.9402 H   0  0  0  0  0  0  0  0  0  0  0  0
  -10.2477   -8.5540    1.4495 H   0  0  0  0  0  0  0  0  0  0  0  0
  -11.0355   -8.8093    3.0759 H   0  0  0  0  0  0  0  0  0  0  0  0
   -7.5600   -8.8276    1.2329 H   0  0  0  0  0  0  0  0  0  0  0  0
    6.1376   -5.2793    3.7447 H   0  0  0  0  0  0  0  0  0  0  0  0
    7.9082   -6.6633    4.7649 H   0  0  0  0  0  0  0  0  0  0  0  0
    8.0495   -6.9056    7.2147 H   0  0  0  0  0  0  0  0  0  0  0  0
    6.7753   -6.7721    9.4020 H   0  0  0  0  0  0  0  0  0  0  0  0
    5.4683   -5.5634    9.5930 H   0  0  0  0  0  0  0  0  0  0  0  0
    8.4757   -4.9447    9.2147 H   0  0  0  0  0  0  0  0  0  0  0  0
    7.5260   -4.8012   10.7400 H   0  0  0  0  0  0  0  0  0  0  0  0
    7.1649   -3.7034    9.3540 H   0  0  0  0  0  0  0  0  0  0  0  0
    4.6211   -4.3377    7.6631 H   0  0  0  0  0  0  0  0  0  0  0  0
    3.2608    8.5005   -0.2424 H   0  0  0  0  0  0  0  0  0  0  0  0
    4.1989   10.6063   -1.1209 H   0  0  0  0  0  0  0  0  0  0  0  0
    4.0404   11.1378   -3.5270 H   0  0  0  0  0  0  0  0  0  0  0  0
    3.6544   10.3708   -5.8143 H   0  0  0  0  0  0  0  0  0  0  0  0
    3.1030    8.6874   -6.1091 H   0  0  0  0  0  0  0  0  0  0  0  0
    1.3167   11.0604   -5.2577 H   0  0  0  0  0  0  0  0  0  0  0  0
    1.3906   10.2903   -6.8908 H   0  0  0  0  0  0  0  0  0  0  0  0
    0.7537    9.3549   -5.4879 H   0  0  0  0  0  0  0  0  0  0  0  0
    2.1176    7.3636   -4.2385 H   0  0  0  0  0  0  0  0  0  0  0  0
    0.8578   -0.8369    2.7254 H   0  0  0  0  0  0  0  0  0  0  0  0
    0.9526    0.8203    2.0877 H   0  0  0  0  0  0  0  0  0  0  0  0
    0.4203    0.9587    4.4366 H   0  0  0  0  0  0  0  0  0  0  0  0
    1.8638   -0.0202    4.8866 H   0  0  0  0  0  0  0  0  0  0  0  0
    2.0740    1.6239    4.1530 H   0  0  0  0  0  0  0  0  0  0  0  0
    1.5379    0.3751    0.0281 H   0  0  0  0  0  0  0  0  0  0  0  0
    0.4725    1.7659   -0.3646 H   0  0  0  0  0  0  0  0  0  0  0  0
    1.4713    0.6494   -2.3830 H   0  0  0  0  0  0  0  0  0  0  0  0
    2.0464    2.3464   -2.2682 H   0  0  0  0  0  0  0  0  0  0  0  0
    3.1304    0.9981   -1.7659 H   0  0  0  0  0  0  0  0  0  0  0  0
   -1.1189    8.2537   -2.4374 H   0  0  0  0  0  0  0  0  0  0  0  0
   -1.6159    9.2306   -6.0875 H   0  0  0  0  0  0  0  0  0  0  0  0
   -3.1499   10.1497   -6.2266 H   0  0  0  0  0  0  0  0  0  0  0  0
   -2.7117   11.2729   -4.0355 H   0  0  0  0  0  0  0  0  0  0  0  0
   -1.1369   10.3899   -3.9027 H   0  0  0  0  0  0  0  0  0  0  0  0
   -1.3958   11.5811   -5.2333 H   0  0  0  0  0  0  0  0  0  0  0  0
   -2.7618    6.2430   -6.9714 H   0  0  0  0  0  0  0  0  0  0  0  0
   -1.9564    1.2863   -8.9135 H   0  0  0  0  0  0  0  0  0  0  0  0
   -1.5360    0.9063   -3.8430 H   0  0  0  0  0  0  0  0  0  0  0  0
   -1.0738   -2.1658   -5.4679 H   0  0  0  0  0  0  0  0  0  0  0  0
    1.3047   -1.6574   -4.6038 H   0  0  0  0  0  0  0  0  0  0  0  0
    2.0230    0.8121   -5.2873 H   0  0  0  0  0  0  0  0  0  0  0  0
    1.8684    1.0157   -7.8802 H   0  0  0  0  0  0  0  0  0  0  0  0
    1.0778   -1.3246   -8.8541 H   0  0  0  0  0  0  0  0  0  0  0  0
    2.6167   -2.1046   -6.8579 H   0  0  0  0  0  0  0  0  0  0  0  0
    1.0874   -3.0919   -6.8516 H   0  0  0  0  0  0  0  0  0  0  0  0
   -1.1941   -2.0053   -7.8231 H   0  0  0  0  0  0  0  0  0  0  0  0
  1  2  2  3
  2  3  1  0
  3  4  2  0
  3  5  1  0
  5  6  2  0
  6  7  1  0
  7  8  2  0
  8  9  1  0
  9 10  2  0
 10 11  1  0
 11 12  2  3
 12 13  1  0
 13 14  3  0
 12 15  1  0
 15 16  3  0
  8 17  1  0
 17 18  1  0
 18 19  1  0
 19 20  2  0
 20 21  1  0
 21 22  1  0
 21 23  1  0
  1 24  1  0
 24 25  2  0
 25 26  1  0
 25 27  1  0
 27 28  1  0
 27 29  2  0
 29 30  1  0
 30 31  1  0
 31 32  2  0
 32 33  1  0
 33 34  1  0
 29 35  1  0
 35 36  2  0
 36 37  1  0
 37 38  2  0
 38 39  1  0
 39 40  2  0
 40 41  1  0
 41 42  1  0
 42 43  1  0
 41 44  2  0
 36 45  1  0
 45 46  1  0
 46 47  1  0
 47 48  1  0
 48 49  1  0
 49 50  1  0
 50 51  2  0
 51 52  1  0
 52 53  1  0
 50 54  1  0
 54 55  1  0
 55 56  1  0
 56 57  1  0
 57 58  1  0
 58 59  1  0
 59 60  2  0
 60 61  1  0
 61 62  2  0
 62 63  1  0
 63 64  1  0
 64 65  1  0
 63 66  2  0
 58 67  2  0
 67 68  1  0
 68 69  1  0
 69 70  1  0
 70 71  1  0
 71 72  1  0
 72 73  1  0
 73 74  1  0
 74 75  1  0
 75 76  1  0
 76 77  1  0
 74 78  1  0
 78 79  1  0
 71 80  1  0
 80 81  1  0
 67 82  1  0
 82 83  2  0
 83 84  1  0
 84 85  1  0
 85 86  1  0
 86 87  1  0
 84 88  2  0
 88 89  1  0
 88 90  1  0
 90 91  2  3
 91 92  1  0
 92 93  2  0
 92 94  1  0
 94 95  2  0
 95 96  1  0
 96 97  2  0
 97 98  1  0
 98 99  2  0
 99100  1  0
100101  2  3
101102  1  0
102103  3  0
101104  1  0
104105  3  0
 97106  1  0
106107  1  0
107108  1  0
108109  2  0
109110  1  0
110111  1  0
110112  1  0
 11  2  1  0
 23 17  1  0
 31 24  1  0
 77 35  1  0
 89 82  1  0
100 91  1  0
112106  1  0
 10  5  1  0
 22 18  1  0
 34 30  2  0
 44 37  1  0
 76 45  2  0
 99 94  1  0
111107  1  0
 23  7  1  0
 75 47  2  0
112 96  1  0
 73 48  2  0
 53 49  2  0
 72 54  2  0
 70 55  2  0
 69 57  2  0
 66 59  1  0
  1113  1  0
  6114  1  0
  9115  1  0
 17116  1  0
 18117  1  0
 19118  1  0
 20119  1  0
 21120  1  0
 22121  1  0
 22122  1  0
 23123  1  0
 38124  1  0
 39125  1  0
 40126  1  0
 42127  1  0
 42128  1  0
 43129  1  0
 43130  1  0
 43131  1  0
 44132  1  0
 60133  1  0
 61134  1  0
 62135  1  0
 64136  1  0
 64137  1  0
 65138  1  0
 65139  1  0
 65140  1  0
 66141  1  0
 78142  1  0
 78143  1  0
 79144  1  0
 79145  1  0
 79146  1  0
 80147  1  0
 80148  1  0
 81149  1  0
 81150  1  0
 81151  1  0
 83152  1  0
 86153  1  0
 86154  1  0
 87155  1  0
 87156  1  0
 87157  1  0
 90158  1  0
 95159  1  0
 98160  1  0
106161  1  0
107162  1  0
108163  1  0
109164  1  0
110165  1  0
111166  1  0
111167  1  0
112168  1  0
M  END

