
     RDKit          3D

174196  0  0  0  0  0  0  0  0999 V2000
   -5.3006   -5.9054    1.9567 C   0  0  0  0  0  0  0  0  0  0  0  0
   -5.6843   -7.0217    1.2658 C   0  0  0  0  0  0  0  0  0  0  0  0
   -5.8883   -8.3210    1.8776 C   0  0  0  0  0  0  0  0  0  0  0  0
   -5.6485   -8.6031    3.0480 O   0  0  0  0  0  0  0  0  0  0  0  0
   -6.4186   -9.1932    0.8417 C   0  0  0  0  0  0  0  0  0  0  0  0
   -6.7570  -10.5718    0.8628 C   0  0  0  0  0  0  0  0  0  0  0  0
   -7.2083  -11.2586   -0.2373 C   0  0  0  0  0  0  0  0  0  0  0  0
   -7.3265  -10.5454   -1.3900 C   0  0  0  0  0  0  0  0  0  0  0  0
   -6.9946   -9.1708   -1.4476 C   0  0  0  0  0  0  0  0  0  0  0  0
   -6.5517   -8.5207   -0.3626 C   0  0  0  0  0  0  0  0  0  0  0  0
   -6.0425   -7.0759   -0.1089 C   0  0  0  0  0  0  0  0  0  0  0  0
   -5.3974   -6.5704   -1.2229 C   0  0  0  0  0  0  0  0  0  0  0  0
   -4.1889   -5.9891   -1.0721 C   0  0  0  0  0  0  0  0  0  0  0  0
   -2.9987   -5.4166   -0.9206 N   0  0  0  0  0  0  0  0  0  0  0  0
   -6.1068   -6.5482   -2.4400 C   0  0  0  0  0  0  0  0  0  0  0  0
   -6.7304   -6.5398   -3.4958 N   0  0  0  0  0  0  0  0  0  0  0  0
   -7.8182  -11.7290   -2.1471 C   0  0  0  0  0  0  0  0  0  0  0  0
   -6.7837  -12.3228   -3.0665 C   0  0  0  0  0  0  0  0  0  0  0  0
   -5.4401  -11.9898   -2.4894 C   0  0  0  0  0  0  0  0  0  0  0  0
   -5.3021  -12.7604   -1.4038 C   0  0  0  0  0  0  0  0  0  0  0  0
   -6.5457  -13.4841   -1.1688 C   0  0  0  0  0  0  0  0  0  0  0  0
   -6.8930  -13.7868   -2.6621 C   0  0  0  0  0  0  0  0  0  0  0  0
   -7.6507  -12.5356   -0.8456 C   0  0  0  0  0  0  0  0  0  0  0  0
   -5.1495   -4.6103    1.3465 C   0  0  0  0  0  0  0  0  0  0  0  0
   -4.0516   -3.8601    1.4193 C   0  0  0  0  0  0  0  0  0  0  0  0
   -2.8339   -4.0501    2.0137 N   0  0  0  0  0  0  0  0  0  0  0  0
   -2.0667   -3.0082    1.7682 N   0  0  0  0  0  0  0  0  0  0  0  0
   -0.6824   -2.7397    2.1365 C   0  0  0  0  0  0  0  0  0  0  0  0
    0.2342   -3.2213    1.0510 C   0  0  0  0  0  0  0  0  0  0  0  0
   -2.7644   -2.1437    1.0334 N   0  0  0  0  0  0  0  0  0  0  0  0
   -3.9812   -2.6349    0.7970 C   0  0  0  0  0  0  0  0  0  0  0  0
   -5.0931   -2.1249    0.0432 C   0  0  0  0  0  0  0  0  0  0  0  0
   -6.2015   -2.8492   -0.0288 C   0  0  0  0  0  0  0  0  0  0  0  0
   -6.2560   -4.1139    0.6138 C   0  0  0  0  0  0  0  0  0  0  0  0
   -4.6587   -0.9265   -0.7255 C   0  0  0  0  0  0  0  0  0  0  0  0
   -4.4253   -0.9188   -2.0707 C   0  0  0  0  0  0  0  0  0  0  0  0
   -5.0539   -1.9061   -2.9844 C   0  0  0  0  0  0  0  0  0  0  0  0
   -4.3544   -2.8356   -3.7063 C   0  0  0  0  0  0  0  0  0  0  0  0
   -4.9782   -3.7341   -4.5556 C   0  0  0  0  0  0  0  0  0  0  0  0
   -6.3278   -3.7098   -4.6905 C   0  0  0  0  0  0  0  0  0  0  0  0
   -7.0292   -2.7857   -3.9702 C   0  0  0  0  0  0  0  0  0  0  0  0
   -8.4973   -2.7676   -4.0533 C   0  0  0  0  0  0  0  0  0  0  0  0
   -9.0137   -3.6527   -2.9300 C   0  0  0  0  0  0  0  0  0  0  0  0
   -6.4289   -1.8751   -3.1203 C   0  0  0  0  0  0  0  0  0  0  0  0
   -3.6678    0.1656   -2.5442 C   0  0  0  0  0  0  0  0  0  0  0  0
   -2.7990    0.5192   -4.0092 S   0  0  0  0  0  0  0  0  0  0  0  0
   -1.9275    1.8573   -3.4428 C   0  0  0  0  0  0  0  0  0  0  0  0
   -0.8817    2.7369   -3.7713 C   0  0  0  0  0  0  0  0  0  0  0  0
   -0.0002    2.6282   -4.8616 C   0  0  0  0  0  0  0  0  0  0  0  0
    1.1752    3.2854   -4.7422 C   0  0  0  0  0  0  0  0  0  0  0  0
    2.0043    3.1556   -5.7966 N   0  0  0  0  0  0  0  0  0  0  0  0
    1.2069    2.1859   -6.8835 S   0  0  0  0  0  0  0  0  0  0  0  0
   -0.2010    1.9408   -5.9924 N   0  0  0  0  0  0  0  0  0  0  0  0
    1.4267    4.0276   -3.6168 C   0  0  0  0  0  0  0  0  0  0  0  0
    2.5672    4.6997   -3.1904 C   0  0  0  0  0  0  0  0  0  0  0  0
    4.2439    4.9238   -3.4864 S   0  0  0  0  0  0  0  0  0  0  0  0
    4.6741    5.7403   -2.0016 C   0  0  0  0  0  0  0  0  0  0  0  0
    5.8141    6.2463   -1.3637 C   0  0  0  0  0  0  0  0  0  0  0  0
    7.1571    5.9015   -1.9124 C   0  0  0  0  0  0  0  0  0  0  0  0
    7.9163    5.0214   -1.0868 C   0  0  0  0  0  0  0  0  0  0  0  0
    9.1231    4.4972   -1.4752 C   0  0  0  0  0  0  0  0  0  0  0  0
    9.6290    4.8281   -2.7103 C   0  0  0  0  0  0  0  0  0  0  0  0
    8.9261    5.6795   -3.5304 C   0  0  0  0  0  0  0  0  0  0  0  0
    9.5259    6.0248   -4.8720 C   0  0  0  0  0  0  0  0  0  0  0  0
    9.0963    4.9662   -5.8698 C   0  0  0  0  0  0  0  0  0  0  0  0
    7.6864    6.2020   -3.0962 C   0  0  0  0  0  0  0  0  0  0  0  0
    5.6454    6.7885   -0.1679 C   0  0  0  0  0  0  0  0  0  0  0  0
    3.9017    6.5820    0.0903 S   0  0  0  0  0  0  0  0  0  0  0  0
    3.5066    5.7937   -1.3965 C   0  0  0  0  0  0  0  0  0  0  0  0
    2.3679    5.2506   -1.9860 C   0  0  0  0  0  0  0  0  0  0  0  0
    1.0671    4.9187   -1.6269 N   0  0  0  0  0  0  0  0  0  0  0  0
    0.5146    4.1787   -2.5660 C   0  0  0  0  0  0  0  0  0  0  0  0
   -0.6953    3.4678   -2.6371 C   0  0  0  0  0  0  0  0  0  0  0  0
   -1.5453    3.0662   -1.6605 N   0  0  0  0  0  0  0  0  0  0  0  0
   -2.3175    2.0259   -2.1733 C   0  0  0  0  0  0  0  0  0  0  0  0
   -3.2590    1.0792   -1.7224 C   0  0  0  0  0  0  0  0  0  0  0  0
   -3.9057    0.4906   -0.1831 S   0  0  0  0  0  0  0  0  0  0  0  0
   -1.7468    3.4762   -0.3159 C   0  0  0  0  0  0  0  0  0  0  0  0
   -2.7834    4.5532   -0.1460 C   0  0  0  0  0  0  0  0  0  0  0  0
    0.4075    5.5869   -0.5276 C   0  0  0  0  0  0  0  0  0  0  0  0
   -0.3088    6.8157   -1.1565 C   0  0  0  0  0  0  0  0  0  0  0  0
    6.3633    7.4025    0.9332 C   0  0  0  0  0  0  0  0  0  0  0  0
    6.6922    8.6294    1.2831 C   0  0  0  0  0  0  0  0  0  0  0  0
    7.1610    8.9979    2.4876 C   0  0  0  0  0  0  0  0  0  0  0  0
    7.5519   10.4475    2.7253 C   0  0  0  0  0  0  0  0  0  0  0  0
    6.6039   11.3191    3.4279 C   0  0  0  0  0  0  0  0  0  0  0  0
    7.3315    8.0776    3.4526 C   0  0  0  0  0  0  0  0  0  0  0  0
    6.7793    6.4710    2.5633 Se  0  0  0  0  0  2  0  0  0  0  0  0
    7.7610    8.0992    4.8632 C   0  0  0  0  0  0  0  0  0  0  0  0
    8.3526    7.0721    5.4042 C   0  0  0  0  0  0  0  0  0  0  0  0
    8.9525    5.9361    5.8368 C   0  0  0  0  0  0  0  0  0  0  0  0
   10.2971    6.0643    6.1549 O   0  0  0  0  0  0  0  0  0  0  0  0
    8.4445    4.6575    6.0106 C   0  0  0  0  0  0  0  0  0  0  0  0
    8.9478    3.4196    6.4118 C   0  0  0  0  0  0  0  0  0  0  0  0
    8.1529    2.2865    6.4417 C   0  0  0  0  0  0  0  0  0  0  0  0
    6.8572    2.4536    6.0536 C   0  0  0  0  0  0  0  0  0  0  0  0
    6.3286    3.6554    5.6590 C   0  0  0  0  0  0  0  0  0  0  0  0
    7.1354    4.8081    5.6311 C   0  0  0  0  0  0  0  0  0  0  0  0
    6.8684    6.1363    5.2600 C   0  0  0  0  0  0  0  0  0  0  0  0
    5.7327    6.7903    5.1833 C   0  0  0  0  0  0  0  0  0  0  0  0
    4.5346    5.7820    5.0241 C   0  0  0  0  0  0  0  0  0  0  0  0
    3.6877    5.0839    4.8983 N   0  0  0  0  0  0  0  0  0  0  0  0
    5.3820    7.9923    5.2686 C   0  0  0  0  0  0  0  0  0  0  0  0
    5.0025    9.3242    5.3477 N   0  0  0  0  0  0  0  0  0  0  0  0
    6.5182    1.0112    6.2413 C   0  0  0  0  0  0  0  0  0  0  0  0
    5.6776    0.6332    7.3913 C   0  0  0  0  0  0  0  0  0  0  0  0
    5.7970    1.6775    8.4652 C   0  0  0  0  0  0  0  0  0  0  0  0
    7.1041    1.6731    8.8152 C   0  0  0  0  0  0  0  0  0  0  0  0
    7.7355    0.5218    8.1858 C   0  0  0  0  0  0  0  0  0  0  0  0
    6.5636   -0.4255    8.0518 C   0  0  0  0  0  0  0  0  0  0  0  0
    7.9764    0.8647    6.7174 C   0  0  0  0  0  0  0  0  0  0  0  0
   -5.1040   -6.0353    2.9775 H   0  0  0  0  0  0  0  0  0  0  0  0
   -6.6482  -11.0438    1.8640 H   0  0  0  0  0  0  0  0  0  0  0  0
   -7.1289   -8.7326   -2.4074 H   0  0  0  0  0  0  0  0  0  0  0  0
   -8.8449  -11.6983   -2.5265 H   0  0  0  0  0  0  0  0  0  0  0  0
   -6.8816  -12.1334   -4.1160 H   0  0  0  0  0  0  0  0  0  0  0  0
   -4.7353  -11.2870   -2.8756 H   0  0  0  0  0  0  0  0  0  0  0  0
   -4.3567  -12.7781   -0.8111 H   0  0  0  0  0  0  0  0  0  0  0  0
   -6.4959  -14.4064   -0.6027 H   0  0  0  0  0  0  0  0  0  0  0  0
   -6.0841  -14.3832   -3.0808 H   0  0  0  0  0  0  0  0  0  0  0  0
   -7.9256  -14.1833   -2.6985 H   0  0  0  0  0  0  0  0  0  0  0  0
   -8.5804  -12.9521   -0.4647 H   0  0  0  0  0  0  0  0  0  0  0  0
   -0.4407   -3.2874    3.0606 H   0  0  0  0  0  0  0  0  0  0  0  0
   -0.4969   -1.6613    2.3779 H   0  0  0  0  0  0  0  0  0  0  0  0
   -0.4235   -3.5409    0.1821 H   0  0  0  0  0  0  0  0  0  0  0  0
    0.9068   -2.4076    0.7070 H   0  0  0  0  0  0  0  0  0  0  0  0
    0.8403   -4.0716    1.4441 H   0  0  0  0  0  0  0  0  0  0  0  0
   -7.1118   -2.4978   -0.5220 H   0  0  0  0  0  0  0  0  0  0  0  0
   -7.1768   -4.6316    0.5151 H   0  0  0  0  0  0  0  0  0  0  0  0
   -3.2640   -2.8559   -3.6149 H   0  0  0  0  0  0  0  0  0  0  0  0
   -4.4146   -4.4588   -5.0990 H   0  0  0  0  0  0  0  0  0  0  0  0
   -6.8569   -4.4341   -5.3828 H   0  0  0  0  0  0  0  0  0  0  0  0
   -8.8464   -3.2075   -5.0281 H   0  0  0  0  0  0  0  0  0  0  0  0
   -8.8417   -1.7366   -3.9363 H   0  0  0  0  0  0  0  0  0  0  0  0
  -10.0882   -3.8546   -3.0994 H   0  0  0  0  0  0  0  0  0  0  0  0
   -8.8757   -3.0009   -2.0103 H   0  0  0  0  0  0  0  0  0  0  0  0
   -8.3267   -4.4715   -2.8061 H   0  0  0  0  0  0  0  0  0  0  0  0
   -7.0014   -1.1303   -2.5585 H   0  0  0  0  0  0  0  0  0  0  0  0
    7.5088    4.7710   -0.1301 H   0  0  0  0  0  0  0  0  0  0  0  0
    9.6978    3.8189   -0.8239 H   0  0  0  0  0  0  0  0  0  0  0  0
   10.5946    4.4190   -3.0754 H   0  0  0  0  0  0  0  0  0  0  0  0
   10.6346    5.8913   -4.7223 H   0  0  0  0  0  0  0  0  0  0  0  0
    9.1834    6.9699   -5.2412 H   0  0  0  0  0  0  0  0  0  0  0  0
    8.0594    4.6226   -5.8092 H   0  0  0  0  0  0  0  0  0  0  0  0
    9.8184    4.1046   -5.8484 H   0  0  0  0  0  0  0  0  0  0  0  0
    9.2093    5.4149   -6.9198 H   0  0  0  0  0  0  0  0  0  0  0  0
    7.2076    6.8575   -3.7953 H   0  0  0  0  0  0  0  0  0  0  0  0
   -0.8938    3.4114    0.3544 H   0  0  0  0  0  0  0  0  0  0  0  0
   -2.3354    2.6005    0.2537 H   0  0  0  0  0  0  0  0  0  0  0  0
   -2.6520    5.1151    0.7774 H   0  0  0  0  0  0  0  0  0  0  0  0
   -3.8411    4.1523   -0.1303 H   0  0  0  0  0  0  0  0  0  0  0  0
   -2.8485    5.2841   -0.9879 H   0  0  0  0  0  0  0  0  0  0  0  0
   -0.1931    5.1872    0.1802 H   0  0  0  0  0  0  0  0  0  0  0  0
    1.2534    6.1324    0.0658 H   0  0  0  0  0  0  0  0  0  0  0  0
   -1.1948    6.5044   -1.6963 H   0  0  0  0  0  0  0  0  0  0  0  0
   -0.5178    7.5386   -0.3838 H   0  0  0  0  0  0  0  0  0  0  0  0
    0.3417    7.2738   -1.9565 H   0  0  0  0  0  0  0  0  0  0  0  0
    6.5627    9.4211    0.4358 H   0  0  0  0  0  0  0  0  0  0  0  0
    8.5192   10.4620    3.3101 H   0  0  0  0  0  0  0  0  0  0  0  0
    7.8752   10.9004    1.7375 H   0  0  0  0  0  0  0  0  0  0  0  0
    6.9312   11.5590    4.4357 H   0  0  0  0  0  0  0  0  0  0  0  0
    6.6123   12.3197    2.8569 H   0  0  0  0  0  0  0  0  0  0  0  0
    5.5436   11.0298    3.3460 H   0  0  0  0  0  0  0  0  0  0  0  0
    7.6611    8.9521    5.5182 H   0  0  0  0  0  0  0  0  0  0  0  0
    9.9681    3.3959    6.7183 H   0  0  0  0  0  0  0  0  0  0  0  0
    5.3038    3.7065    5.3921 H   0  0  0  0  0  0  0  0  0  0  0  0
    6.3555    0.4653    5.2934 H   0  0  0  0  0  0  0  0  0  0  0  0
    4.6657    0.3345    7.2596 H   0  0  0  0  0  0  0  0  0  0  0  0
    5.0514    2.2952    8.8690 H   0  0  0  0  0  0  0  0  0  0  0  0
    7.5467    2.4310    9.4577 H   0  0  0  0  0  0  0  0  0  0  0  0
    8.6422    0.1137    8.6329 H   0  0  0  0  0  0  0  0  0  0  0  0
    6.7248   -1.2829    7.3587 H   0  0  0  0  0  0  0  0  0  0  0  0
    6.2009   -0.7646    9.0250 H   0  0  0  0  0  0  0  0  0  0  0  0
    8.5904    0.1431    6.1574 H   0  0  0  0  0  0  0  0  0  0  0  0
  1  2  2  3
  2  3  1  0
  3  4  2  0
  3  5  1  0
  5  6  2  0
  6  7  1  0
  7  8  2  0
  8  9  1  0
  9 10  2  0
 10 11  1  0
 11 12  2  3
 12 13  1  0
 13 14  3  0
 12 15  1  0
 15 16  3  0
  8 17  1  0
 17 18  1  0
 18 19  1  0
 19 20  2  0
 20 21  1  0
 21 22  1  0
 21 23  1  0
  1 24  1  0
 24 25  1  0
 25 26  2  0
 26 27  1  0
 27 28  1  0
 28 29  1  0
 27 30  1  0
 30 31  2  0
 31 32  1  0
 32 33  2  0
 33 34  1  0
 32 35  1  0
 35 36  2  0
 36 37  1  0
 37 38  2  0
 38 39  1  0
 39 40  2  0
 40 41  1  0
 41 42  1  0
 42 43  1  0
 41 44  2  0
 36 45  1  0
 45 46  1  0
 46 47  1  0
 47 48  1  0
 48 49  1  0
 49 50  1  0
 50 51  2  0
 51 52  1  0
 52 53  1  0
 50 54  1  0
 54 55  1  0
 55 56  1  0
 56 57  1  0
 57 58  1  0
 58 59  1  0
 59 60  2  0
 60 61  1  0
 61 62  2  0
 62 63  1  0
 63 64  1  0
 64 65  1  0
 63 66  2  0
 58 67  2  0
 67 68  1  0
 68 69  1  0
 69 70  1  0
 70 71  1  0
 71 72  1  0
 72 73  1  0
 73 74  1  0
 74 75  1  0
 75 76  1  0
 76 77  1  0
 74 78  1  0
 78 79  1  0
 71 80  1  0
 80 81  1  0
 67 82  1  0
 82 83  2  0
 83 84  1  0
 84 85  1  0
 85 86  1  0
 84 87  2  0
 87 88  1  0
 87 89  1  0
 89 90  2  3
 90 91  1  0
 91 92  2  0
 91 93  1  0
 93 94  2  0
 94 95  1  0
 95 96  2  0
 96 97  1  0
 97 98  2  0
 98 99  1  0
 99100  2  3
100101  1  0
101102  3  0
100103  1  0
103104  3  0
 96105  1  0
105106  1  0
106107  1  0
107108  2  0
108109  1  0
109110  1  0
109111  1  0
 11  2  1  0
 23 17  1  0
 34 24  2  0
 77 35  1  0
 88 82  1  0
 99 90  1  0
111105  1  0
 10  5  1  0
 22 18  1  0
 31 25  1  0
 44 37  1  0
 76 45  2  0
 98 93  1  0
110106  1  0
 23  7  1  0
 75 47  2  0
111 95  1  0
 73 48  2  0
 53 49  2  0
 72 54  2  0
 70 55  2  0
 69 57  2  0
 66 59  1  0
  1112  1  0
  6113  1  0
  9114  1  0
 17115  1  0
 18116  1  0
 19117  1  0
 20118  1  0
 21119  1  0
 22120  1  0
 22121  1  0
 23122  1  0
 28123  1  0
 28124  1  0
 29125  1  0
 29126  1  0
 29127  1  0
 33128  1  0
 34129  1  0
 38130  1  0
 39131  1  0
 40132  1  0
 42133  1  0
 42134  1  0
 43135  1  0
 43136  1  0
 43137  1  0
 44138  1  0
 60139  1  0
 61140  1  0
 62141  1  0
 64142  1  0
 64143  1  0
 65144  1  0
 65145  1  0
 65146  1  0
 66147  1  0
 78148  1  0
 78149  1  0
 79150  1  0
 79151  1  0
 79152  1  0
 80153  1  0
 80154  1  0
 81155  1  0
 81156  1  0
 81157  1  0
 83158  1  0
 85159  1  0
 85160  1  0
 86161  1  0
 86162  1  0
 86163  1  0
 89164  1  0
 94165  1  0
 97166  1  0
105167  1  0
106168  1  0
107169  1  0
108170  1  0
109171  1  0
110172  1  0
110173  1  0
111174  1  0
M  END

