
     RDKit          3D

159180  0  0  0  0  0  0  0  0999 V2000
    3.0551   -7.3403   -5.5077 C   0  0  0  0  0  0  0  0  0  0  0  0
    1.7406   -7.1798   -5.2332 C   0  0  0  0  0  0  0  0  0  0  0  0
    1.1196   -5.9625   -4.6895 C   0  0  0  0  0  0  0  0  0  0  0  0
    1.6384   -4.8239   -4.6109 O   0  0  0  0  0  0  0  0  0  0  0  0
   -0.1862   -6.2979   -4.1686 C   0  0  0  0  0  0  0  0  0  0  0  0
   -1.0815   -5.4292   -3.5024 C   0  0  0  0  0  0  0  0  0  0  0  0
   -2.2240   -6.0515   -3.0467 C   0  0  0  0  0  0  0  0  0  0  0  0
   -2.4671   -7.4526   -3.2014 C   0  0  0  0  0  0  0  0  0  0  0  0
   -1.5942   -8.3080   -3.8565 C   0  0  0  0  0  0  0  0  0  0  0  0
   -0.4318   -7.6776   -4.3780 C   0  0  0  0  0  0  0  0  0  0  0  0
    0.7037   -8.2523   -5.1577 C   0  0  0  0  0  0  0  0  0  0  0  0
    0.6671   -9.3832   -5.9103 C   0  0  0  0  0  0  0  0  0  0  0  0
    1.6471   -9.6481   -6.9286 C   0  0  0  0  0  0  0  0  0  0  0  0
    2.4217   -9.8580   -7.7683 N   0  0  0  0  0  0  0  0  0  0  0  0
   -0.4525  -10.2925   -5.8909 C   0  0  0  0  0  0  0  0  0  0  0  0
   -1.3462  -11.0318   -5.8842 N   0  0  0  0  0  0  0  0  0  0  0  0
   -3.7569   -7.3288   -2.4400 C   0  0  0  0  0  0  0  0  0  0  0  0
   -3.7657   -7.8329   -0.9640 C   0  0  0  0  0  0  0  0  0  0  0  0
   -5.0099   -7.2489   -0.3398 C   0  0  0  0  0  0  0  0  0  0  0  0
   -4.7993   -5.9341   -0.2286 C   0  0  0  0  0  0  0  0  0  0  0  0
   -3.4132   -5.6736   -0.7672 C   0  0  0  0  0  0  0  0  0  0  0  0
   -2.7318   -6.9476   -0.2932 C   0  0  0  0  0  0  0  0  0  0  0  0
   -3.5170   -5.8878   -2.3045 C   0  0  0  0  0  0  0  0  0  0  0  0
    3.9819   -6.2005   -5.4879 C   0  0  0  0  0  0  0  0  0  0  0  0
    4.8764   -6.0242   -4.4249 C   0  0  0  0  0  0  0  0  0  0  0  0
    5.4038   -4.7890   -4.2018 N   0  0  0  0  0  0  0  0  0  0  0  0
    5.1447   -3.7473   -5.0351 C   0  0  0  0  0  0  0  0  0  0  0  0
    4.3757   -3.9702   -6.1820 C   0  0  0  0  0  0  0  0  0  0  0  0
    3.7848   -5.1787   -6.3573 N   0  0  0  0  0  0  0  0  0  0  0  0
    5.2872   -2.3768   -4.5385 C   0  0  0  0  0  0  0  0  0  0  0  0
    6.4330   -1.7701   -3.9817 C   0  0  0  0  0  0  0  0  0  0  0  0
    7.8044   -2.2670   -4.2013 C   0  0  0  0  0  0  0  0  0  0  0  0
    8.2173   -2.6014   -5.5041 C   0  0  0  0  0  0  0  0  0  0  0  0
    9.5099   -3.0786   -5.7341 C   0  0  0  0  0  0  0  0  0  0  0  0
   10.3979   -3.2386   -4.6695 C   0  0  0  0  0  0  0  0  0  0  0  0
   10.0052   -2.9097   -3.3609 C   0  0  0  0  0  0  0  0  0  0  0  0
   10.9524   -3.1496   -2.2170 C   0  0  0  0  0  0  0  0  0  0  0  0
   10.9030   -4.6081   -1.7680 C   0  0  0  0  0  0  0  0  0  0  0  0
    8.7012   -2.4300   -3.1287 C   0  0  0  0  0  0  0  0  0  0  0  0
    6.1012   -0.5500   -3.3672 C   0  0  0  0  0  0  0  0  0  0  0  0
    6.9492    0.6561   -2.4889 S   0  0  0  0  0  0  0  0  0  0  0  0
    5.5142    1.5662   -2.2677 C   0  0  0  0  0  0  0  0  0  0  0  0
    5.0185    2.6049   -1.5171 C   0  0  0  0  0  0  0  0  0  0  0  0
    5.5980    3.4206   -0.5347 C   0  0  0  0  0  0  0  0  0  0  0  0
    4.7512    4.2989    0.2213 C   0  0  0  0  0  0  0  0  0  0  0  0
    5.3451    5.0468    1.1843 N   0  0  0  0  0  0  0  0  0  0  0  0
    6.9103    4.5277    1.0154 S   0  0  0  0  0  0  0  0  0  0  0  0
    6.9130    3.4011   -0.2045 N   0  0  0  0  0  0  0  0  0  0  0  0
    3.3829    4.3448   -0.0807 C   0  0  0  0  0  0  0  0  0  0  0  0
    2.3343    5.0834    0.4137 C   0  0  0  0  0  0  0  0  0  0  0  0
    1.9470    6.1866    1.6565 S   0  0  0  0  0  0  0  0  0  0  0  0
    0.2826    6.1523    1.2215 C   0  0  0  0  0  0  0  0  0  0  0  0
   -0.9008    6.6095    1.8225 C   0  0  0  0  0  0  0  0  0  0  0  0
   -0.9670    7.6208    2.9026 C   0  0  0  0  0  0  0  0  0  0  0  0
   -1.8578    8.7023    2.7794 C   0  0  0  0  0  0  0  0  0  0  0  0
   -1.9784    9.6342    3.8099 C   0  0  0  0  0  0  0  0  0  0  0  0
   -1.2137    9.5022    4.9709 C   0  0  0  0  0  0  0  0  0  0  0  0
   -0.2917    8.4530    5.0940 C   0  0  0  0  0  0  0  0  0  0  0  0
    0.5151    8.3030    6.3576 C   0  0  0  0  0  0  0  0  0  0  0  0
   -0.1977    7.3967    7.3570 C   0  0  0  0  0  0  0  0  0  0  0  0
   -0.1843    7.4968    4.0657 C   0  0  0  0  0  0  0  0  0  0  0  0
   -2.0336    6.0344    1.1915 C   0  0  0  0  0  0  0  0  0  0  0  0
   -1.5345    5.0561   -0.1089 S   0  0  0  0  0  0  0  0  0  0  0  0
    0.0856    5.3376    0.1376 C   0  0  0  0  0  0  0  0  0  0  0  0
    1.2438    4.7432   -0.3158 C   0  0  0  0  0  0  0  0  0  0  0  0
    1.5097    3.8607   -1.3041 N   0  0  0  0  0  0  0  0  0  0  0  0
    2.8218    3.5455   -1.0890 C   0  0  0  0  0  0  0  0  0  0  0  0
    3.6319    2.5904   -1.7376 C   0  0  0  0  0  0  0  0  0  0  0  0
    3.2580    1.4978   -2.4696 N   0  0  0  0  0  0  0  0  0  0  0  0
    4.4454    0.9538   -2.8291 C   0  0  0  0  0  0  0  0  0  0  0  0
    4.7707   -0.2353   -3.4435 C   0  0  0  0  0  0  0  0  0  0  0  0
    3.9104   -1.4197   -4.2429 S   0  0  0  0  0  0  0  0  0  0  0  0
    2.0224    0.7105   -2.3213 C   0  0  0  0  0  0  0  0  0  0  0  0
    2.1678   -0.3403   -1.2165 C   0  0  0  0  0  0  0  0  0  0  0  0
    0.7551    3.7477   -2.5627 C   0  0  0  0  0  0  0  0  0  0  0  0
    0.4922    5.1197   -3.1918 C   0  0  0  0  0  0  0  0  0  0  0  0
   -3.3928    5.8792    1.7503 C   0  0  0  0  0  0  0  0  0  0  0  0
   -3.6028    5.7956    3.1374 C   0  0  0  0  0  0  0  0  0  0  0  0
   -4.7310    5.2027    3.6040 N   0  0  0  0  0  0  0  0  0  0  0  0
   -5.7003    4.7567    2.7624 C   0  0  0  0  0  0  0  0  0  0  0  0
   -5.5537    4.9586    1.3868 C   0  0  0  0  0  0  0  0  0  0  0  0
   -4.3900    5.4793    0.9164 N   0  0  0  0  0  0  0  0  0  0  0  0
   -6.6663    3.7644    3.2519 C   0  0  0  0  0  0  0  0  0  0  0  0
   -6.3252    2.4579    3.3601 C   0  0  0  0  0  0  0  0  0  0  0  0
   -4.9696    1.9281    3.1576 C   0  0  0  0  0  0  0  0  0  0  0  0
   -4.0037    2.5163    2.5991 O   0  0  0  0  0  0  0  0  0  0  0  0
   -4.8970    0.6035    3.7185 C   0  0  0  0  0  0  0  0  0  0  0  0
   -3.7382   -0.1966    3.8364 C   0  0  0  0  0  0  0  0  0  0  0  0
   -3.9560   -1.4120    4.4426 C   0  0  0  0  0  0  0  0  0  0  0  0
   -5.2385   -1.8288    4.9231 C   0  0  0  0  0  0  0  0  0  0  0  0
   -6.3768   -1.0374    4.8356 C   0  0  0  0  0  0  0  0  0  0  0  0
   -6.1768    0.2224    4.1945 C   0  0  0  0  0  0  0  0  0  0  0  0
   -7.1461    1.3337    3.9113 C   0  0  0  0  0  0  0  0  0  0  0  0
   -8.5063    1.2554    3.9323 C   0  0  0  0  0  0  0  0  0  0  0  0
   -9.3468    2.2804    3.3578 C   0  0  0  0  0  0  0  0  0  0  0  0
  -10.0303    3.0934    2.8998 N   0  0  0  0  0  0  0  0  0  0  0  0
   -9.2103    0.1027    4.4174 C   0  0  0  0  0  0  0  0  0  0  0  0
   -9.7919   -0.8205    4.8084 N   0  0  0  0  0  0  0  0  0  0  0  0
   -4.6579   -3.1428    5.3746 C   0  0  0  0  0  0  0  0  0  0  0  0
   -4.9753   -4.3899    4.4983 C   0  0  0  0  0  0  0  0  0  0  0  0
   -3.9780   -5.4501    4.9039 C   0  0  0  0  0  0  0  0  0  0  0  0
   -2.7856   -5.0462    4.4490 C   0  0  0  0  0  0  0  0  0  0  0  0
   -3.0185   -3.7273    3.7545 C   0  0  0  0  0  0  0  0  0  0  0  0
   -4.3822   -4.0175    3.1501 C   0  0  0  0  0  0  0  0  0  0  0  0
   -3.3430   -2.7061    4.8796 C   0  0  0  0  0  0  0  0  0  0  0  0
    3.4728   -8.3233   -5.6510 H   0  0  0  0  0  0  0  0  0  0  0  0
   -0.8845   -4.3769   -3.3530 H   0  0  0  0  0  0  0  0  0  0  0  0
   -1.7935   -9.3634   -3.9142 H   0  0  0  0  0  0  0  0  0  0  0  0
   -4.6556   -7.5884   -3.0493 H   0  0  0  0  0  0  0  0  0  0  0  0
   -3.6356   -8.9257   -0.8262 H   0  0  0  0  0  0  0  0  0  0  0  0
   -5.8824   -7.7781    0.0204 H   0  0  0  0  0  0  0  0  0  0  0  0
   -5.4641   -5.2276    0.2492 H   0  0  0  0  0  0  0  0  0  0  0  0
   -2.9433   -4.7205   -0.4446 H   0  0  0  0  0  0  0  0  0  0  0  0
   -2.7170   -7.0554    0.8205 H   0  0  0  0  0  0  0  0  0  0  0  0
   -1.6926   -7.0900   -0.6690 H   0  0  0  0  0  0  0  0  0  0  0  0
   -4.2524   -5.2436   -2.8348 H   0  0  0  0  0  0  0  0  0  0  0  0
    5.0521   -6.8214   -3.7145 H   0  0  0  0  0  0  0  0  0  0  0  0
    4.1386   -3.1603   -6.8589 H   0  0  0  0  0  0  0  0  0  0  0  0
    7.5356   -2.4899   -6.3390 H   0  0  0  0  0  0  0  0  0  0  0  0
    9.8148   -3.3390   -6.7395 H   0  0  0  0  0  0  0  0  0  0  0  0
   11.3914   -3.6262   -4.8635 H   0  0  0  0  0  0  0  0  0  0  0  0
   10.7020   -2.4887   -1.3589 H   0  0  0  0  0  0  0  0  0  0  0  0
   11.9895   -2.9000   -2.5337 H   0  0  0  0  0  0  0  0  0  0  0  0
    9.8795   -4.8692   -1.4181 H   0  0  0  0  0  0  0  0  0  0  0  0
   11.6168   -4.7673   -0.9352 H   0  0  0  0  0  0  0  0  0  0  0  0
   11.1848   -5.2804   -2.6104 H   0  0  0  0  0  0  0  0  0  0  0  0
    8.3781   -2.2106   -2.1135 H   0  0  0  0  0  0  0  0  0  0  0  0
   -2.4701    8.8124    1.8866 H   0  0  0  0  0  0  0  0  0  0  0  0
   -2.6814   10.4520    3.7169 H   0  0  0  0  0  0  0  0  0  0  0  0
   -1.3356   10.2250    5.7696 H   0  0  0  0  0  0  0  0  0  0  0  0
    1.5175    7.8893    6.1214 H   0  0  0  0  0  0  0  0  0  0  0  0
    0.6797    9.2985    6.8208 H   0  0  0  0  0  0  0  0  0  0  0  0
   -1.1791    7.8261    7.6456 H   0  0  0  0  0  0  0  0  0  0  0  0
    0.4267    7.2976    8.2711 H   0  0  0  0  0  0  0  0  0  0  0  0
   -0.3518    6.3895    6.9202 H   0  0  0  0  0  0  0  0  0  0  0  0
    0.4781    6.6471    4.1839 H   0  0  0  0  0  0  0  0  0  0  0  0
    1.7794    0.2133   -3.2826 H   0  0  0  0  0  0  0  0  0  0  0  0
    1.1606    1.3268   -2.0389 H   0  0  0  0  0  0  0  0  0  0  0  0
    1.2558   -0.9677   -1.1805 H   0  0  0  0  0  0  0  0  0  0  0  0
    3.0409   -1.0046   -1.4002 H   0  0  0  0  0  0  0  0  0  0  0  0
    2.3005    0.1579   -0.2293 H   0  0  0  0  0  0  0  0  0  0  0  0
    1.3466    3.1792   -3.3092 H   0  0  0  0  0  0  0  0  0  0  0  0
   -0.2013    3.2209   -2.3884 H   0  0  0  0  0  0  0  0  0  0  0  0
   -0.2687    5.6761   -2.6127 H   0  0  0  0  0  0  0  0  0  0  0  0
    0.0991    4.9910   -4.2234 H   0  0  0  0  0  0  0  0  0  0  0  0
    1.4220    5.7221   -3.2379 H   0  0  0  0  0  0  0  0  0  0  0  0
   -2.8321    6.0470    3.8463 H   0  0  0  0  0  0  0  0  0  0  0  0
   -6.2943    4.5822    0.6880 H   0  0  0  0  0  0  0  0  0  0  0  0
   -7.6275    4.1265    3.5852 H   0  0  0  0  0  0  0  0  0  0  0  0
   -2.7658    0.1118    3.4820 H   0  0  0  0  0  0  0  0  0  0  0  0
   -7.3107   -1.3739    5.2500 H   0  0  0  0  0  0  0  0  0  0  0  0
   -4.7114   -3.2962    6.4769 H   0  0  0  0  0  0  0  0  0  0  0  0
   -6.0356   -4.7115    4.4880 H   0  0  0  0  0  0  0  0  0  0  0  0
   -4.1817   -6.3953    5.3925 H   0  0  0  0  0  0  0  0  0  0  0  0
   -1.8587   -5.6057    4.5082 H   0  0  0  0  0  0  0  0  0  0  0  0
   -2.2290   -3.4202    3.0380 H   0  0  0  0  0  0  0  0  0  0  0  0
   -4.3661   -4.8699    2.4265 H   0  0  0  0  0  0  0  0  0  0  0  0
   -4.8641   -3.1434    2.6583 H   0  0  0  0  0  0  0  0  0  0  0  0
   -2.5666   -2.5789    5.6717 H   0  0  0  0  0  0  0  0  0  0  0  0
  1  2  2  3
  2  3  1  0
  3  4  2  0
  3  5  1  0
  5  6  2  0
  6  7  1  0
  7  8  2  0
  8  9  1  0
  9 10  2  0
 10 11  1  0
 11 12  2  3
 12 13  1  0
 13 14  3  0
 12 15  1  0
 15 16  3  0
  8 17  1  0
 17 18  1  0
 18 19  1  0
 19 20  2  0
 20 21  1  0
 21 22  1  0
 21 23  1  0
  1 24  1  0
 24 25  2  0
 25 26  1  0
 26 27  2  0
 27 28  1  0
 28 29  2  0
 27 30  1  0
 30 31  2  0
 31 32  1  0
 32 33  2  0
 33 34  1  0
 34 35  2  0
 35 36  1  0
 36 37  1  0
 37 38  1  0
 36 39  2  0
 31 40  1  0
 40 41  1  0
 41 42  1  0
 42 43  1  0
 43 44  1  0
 44 45  1  0
 45 46  2  0
 46 47  1  0
 47 48  1  0
 45 49  1  0
 49 50  1  0
 50 51  1  0
 51 52  1  0
 52 53  1  0
 53 54  1  0
 54 55  2  0
 55 56  1  0
 56 57  2  0
 57 58  1  0
 58 59  1  0
 59 60  1  0
 58 61  2  0
 53 62  2  0
 62 63  1  0
 63 64  1  0
 64 65  1  0
 65 66  1  0
 66 67  1  0
 67 68  1  0
 68 69  1  0
 69 70  1  0
 70 71  1  0
 71 72  1  0
 69 73  1  0
 73 74  1  0
 66 75  1  0
 75 76  1  0
 62 77  1  0
 77 78  2  0
 78 79  1  0
 79 80  2  0
 80 81  1  0
 81 82  2  0
 80 83  1  0
 83 84  2  3
 84 85  1  0
 85 86  2  0
 85 87  1  0
 87 88  2  0
 88 89  1  0
 89 90  2  0
 90 91  1  0
 91 92  2  0
 92 93  1  0
 93 94  2  3
 94 95  1  0
 95 96  3  0
 94 97  1  0
 97 98  3  0
 90 99  1  0
 99100  1  0
100101  1  0
101102  2  0
102103  1  0
103104  1  0
103105  1  0
 11  2  1  0
 23 17  1  0
 29 24  1  0
 72 30  1  0
 82 77  1  0
 93 84  1  0
105 99  1  0
 10  5  1  0
 22 18  1  0
 39 32  1  0
 71 40  2  0
 92 87  1  0
104100  1  0
 23  7  1  0
 70 42  2  0
105 89  1  0
 68 43  2  0
 48 44  2  0
 67 49  2  0
 65 50  2  0
 64 52  2  0
 61 54  1  0
  1106  1  0
  6107  1  0
  9108  1  0
 17109  1  0
 18110  1  0
 19111  1  0
 20112  1  0
 21113  1  0
 22114  1  0
 22115  1  0
 23116  1  0
 25117  1  0
 28118  1  0
 33119  1  0
 34120  1  0
 35121  1  0
 37122  1  0
 37123  1  0
 38124  1  0
 38125  1  0
 38126  1  0
 39127  1  0
 55128  1  0
 56129  1  0
 57130  1  0
 59131  1  0
 59132  1  0
 60133  1  0
 60134  1  0
 60135  1  0
 61136  1  0
 73137  1  0
 73138  1  0
 74139  1  0
 74140  1  0
 74141  1  0
 75142  1  0
 75143  1  0
 76144  1  0
 76145  1  0
 76146  1  0
 78147  1  0
 81148  1  0
 83149  1  0
 88150  1  0
 91151  1  0
 99152  1  0
100153  1  0
101154  1  0
102155  1  0
103156  1  0
104157  1  0
104158  1  0
105159  1  0
M  END

