
     RDKit          3D

213237  0  0  0  0  0  0  0  0999 V2000
   -0.0643    4.9807    7.5937 C   0  0  0  0  0  0  0  0  0  0  0  0
    0.8398    5.4485    8.4206 C   0  0  0  0  0  0  0  0  0  0  0  0
    1.1439    6.8887    8.4234 C   0  0  0  0  0  0  0  0  0  0  0  0
    0.5696    7.8442    7.8135 O   0  0  0  0  0  0  0  0  0  0  0  0
    2.2797    7.0763    9.2773 C   0  0  0  0  0  0  0  0  0  0  0  0
    2.9266    8.2704    9.6589 C   0  0  0  0  0  0  0  0  0  0  0  0
    3.9393    8.1847   10.5424 C   0  0  0  0  0  0  0  0  0  0  0  0
    4.3352    6.9933   11.0480 C   0  0  0  0  0  0  0  0  0  0  0  0
    3.6913    5.7914   10.6685 C   0  0  0  0  0  0  0  0  0  0  0  0
    2.6779    5.8673    9.7925 C   0  0  0  0  0  0  0  0  0  0  0  0
    1.7408    4.7815    9.2530 C   0  0  0  0  0  0  0  0  0  0  0  0
    1.6121    3.6712   10.0492 C   0  0  0  0  0  0  0  0  0  0  0  0
    0.3995    3.0359   10.2011 C   0  0  0  0  0  0  0  0  0  0  0  0
   -0.7389    2.4488   10.3222 N   0  0  0  0  0  0  0  0  0  0  0  0
    2.7900    3.0306   10.3652 C   0  0  0  0  0  0  0  0  0  0  0  0
    3.9460    2.3860   10.6588 N   0  0  0  0  0  0  0  0  0  0  0  0
    5.4394    7.4906   11.9188 C   0  0  0  0  0  0  0  0  0  0  0  0
    5.0970    7.4390   13.3755 C   0  0  0  0  0  0  0  0  0  0  0  0
    3.6038    7.3434   13.4300 C   0  0  0  0  0  0  0  0  0  0  0  0
    3.1472    8.5286   13.0333 C   0  0  0  0  0  0  0  0  0  0  0  0
    4.2862    9.4083   12.6630 C   0  0  0  0  0  0  0  0  0  0  0  0
    5.2756    8.9247   13.7402 C   0  0  0  0  0  0  0  0  0  0  0  0
    4.9644    8.8266   11.4281 C   0  0  0  0  0  0  0  0  0  0  0  0
   -0.5455    3.6421    7.3463 C   0  0  0  0  0  0  0  0  0  0  0  0
    0.2748    2.5447    7.2078 C   0  0  0  0  0  0  0  0  0  0  0  0
   -0.1986    1.2758    6.8884 C   0  0  0  0  0  0  0  0  0  0  0  0
    0.6953    0.2210    6.7589 O   0  0  0  0  0  0  0  0  0  0  0  0
    2.0705    0.2865    6.8739 C   0  0  0  0  0  0  0  0  0  0  0  0
    2.7700    1.1788    5.8463 C   0  0  0  0  0  0  0  0  0  0  0  0
   -1.5283    1.1092    6.7106 C   0  0  0  0  0  0  0  0  0  0  0  0
   -2.3527    2.2128    6.8478 C   0  0  0  0  0  0  0  0  0  0  0  0
   -1.9335    3.4867    7.1607 C   0  0  0  0  0  0  0  0  0  0  0  0
   -2.6472    4.6195    7.3040 O   0  0  0  0  0  0  0  0  0  0  0  0
   -3.9897    4.8781    7.2027 C   0  0  0  0  0  0  0  0  0  0  0  0
   -4.8670    4.1947    8.2384 C   0  0  0  0  0  0  0  0  0  0  0  0
   -2.1423   -0.0928    6.1833 C   0  0  0  0  0  0  0  0  0  0  0  0
   -3.4624   -0.4535    6.1612 C   0  0  0  0  0  0  0  0  0  0  0  0
   -4.3030   -0.0250    7.3710 C   0  0  0  0  0  0  0  0  0  0  0  0
   -4.0856   -1.0987    8.4596 C   0  0  0  0  0  0  0  0  0  0  0  0
   -3.8762   -1.3554    5.2331 C   0  0  0  0  0  0  0  0  0  0  0  0
   -5.5543   -1.6719    4.6167 S   0  0  0  0  0  0  0  0  0  0  0  0
   -5.0616   -2.5885    3.2528 C   0  0  0  0  0  0  0  0  0  0  0  0
   -5.5267   -3.1381    2.0468 C   0  0  0  0  0  0  0  0  0  0  0  0
   -6.8062   -2.9595    1.4913 C   0  0  0  0  0  0  0  0  0  0  0  0
   -6.9098   -3.1891    0.1560 C   0  0  0  0  0  0  0  0  0  0  0  0
   -8.1298   -3.0040   -0.3705 N   0  0  0  0  0  0  0  0  0  0  0  0
   -9.0845   -2.5387    0.9124 S   0  0  0  0  0  0  0  0  0  0  0  0
   -7.9188   -2.5857    2.1139 N   0  0  0  0  0  0  0  0  0  0  0  0
   -5.7860   -3.5906   -0.5551 C   0  0  0  0  0  0  0  0  0  0  0  0
   -5.5591   -3.6460   -1.9318 C   0  0  0  0  0  0  0  0  0  0  0  0
   -6.2017   -3.1704   -3.4444 S   0  0  0  0  0  0  0  0  0  0  0  0
   -4.7169   -3.2837   -4.3902 C   0  0  0  0  0  0  0  0  0  0  0  0
   -4.3466   -2.8818   -5.6854 C   0  0  0  0  0  0  0  0  0  0  0  0
   -5.4402   -2.3568   -6.6433 C   0  0  0  0  0  0  0  0  0  0  0  0
   -5.9299   -1.0014   -6.1951 C   0  0  0  0  0  0  0  0  0  0  0  0
   -3.1454   -2.8921   -6.0812 C   0  0  0  0  0  0  0  0  0  0  0  0
   -2.2324   -3.6241   -4.3560 Se  0  0  0  0  0  2  0  0  0  0  0  0
   -3.9002   -3.6810   -3.4866 C   0  0  0  0  0  0  0  0  0  0  0  0
   -4.2900   -3.8851   -2.1723 C   0  0  0  0  0  0  0  0  0  0  0  0
   -3.6199   -4.0088   -0.9471 N   0  0  0  0  0  0  0  0  0  0  0  0
   -4.5297   -3.8037    0.0189 C   0  0  0  0  0  0  0  0  0  0  0  0
   -4.3950   -3.5424    1.3997 C   0  0  0  0  0  0  0  0  0  0  0  0
   -3.2878   -3.2705    2.1401 N   0  0  0  0  0  0  0  0  0  0  0  0
   -3.7142   -2.6422    3.3085 C   0  0  0  0  0  0  0  0  0  0  0  0
   -3.2483   -1.9701    4.3563 C   0  0  0  0  0  0  0  0  0  0  0  0
   -1.3794   -1.1206    4.8371 Se  0  0  0  0  0  2  0  0  0  0  0  0
   -1.8845   -3.4841    1.9297 C   0  0  0  0  0  0  0  0  0  0  0  0
   -1.1310   -2.3131    1.3485 C   0  0  0  0  0  0  0  0  0  0  0  0
   -2.3099   -4.5480   -0.8033 C   0  0  0  0  0  0  0  0  0  0  0  0
   -2.3646   -6.0638   -0.5185 C   0  0  0  0  0  0  0  0  0  0  0  0
   -2.0872   -2.3332   -6.9626 C   0  0  0  0  0  0  0  0  0  0  0  0
   -1.0434   -2.8923   -7.5891 C   0  0  0  0  0  0  0  0  0  0  0  0
   -1.1113   -4.2362   -8.0832 N   0  0  0  0  0  0  0  0  0  0  0  0
   -0.1310   -5.2344   -7.7177 C   0  0  0  0  0  0  0  0  0  0  0  0
    1.1985   -5.1807   -7.9660 C   0  0  0  0  0  0  0  0  0  0  0  0
    2.1403   -6.0216   -7.4282 C   0  0  0  0  0  0  0  0  0  0  0  0
    1.7038   -6.9977   -6.5794 C   0  0  0  0  0  0  0  0  0  0  0  0
    2.6637   -7.9568   -5.9303 C   0  0  0  0  0  0  0  0  0  0  0  0
    0.3690   -7.0946   -6.3057 C   0  0  0  0  0  0  0  0  0  0  0  0
   -0.5497   -6.2589   -6.8374 C   0  0  0  0  0  0  0  0  0  0  0  0
   -2.0546   -4.6967   -9.0666 C   0  0  0  0  0  0  0  0  0  0  0  0
   -1.5146   -5.3824  -10.1517 C   0  0  0  0  0  0  0  0  0  0  0  0
   -2.3378   -5.8910  -11.1159 C   0  0  0  0  0  0  0  0  0  0  0  0
   -3.7025   -5.7487  -11.0313 C   0  0  0  0  0  0  0  0  0  0  0  0
   -4.6367   -6.2960  -12.0637 C   0  0  0  0  0  0  0  0  0  0  0  0
   -4.2754   -5.0798   -9.9735 C   0  0  0  0  0  0  0  0  0  0  0  0
   -3.3780   -4.5722   -9.0111 C   0  0  0  0  0  0  0  0  0  0  0  0
    0.0334   -2.0374   -7.7803 C   0  0  0  0  0  0  0  0  0  0  0  0
    1.7247   -2.3003   -8.0235 S   0  0  0  0  0  0  0  0  0  0  0  0
    2.3341   -0.7471   -7.6002 C   0  0  0  0  0  0  0  0  0  0  0  0
    1.2104   -0.0527   -7.3059 C   0  0  0  0  0  0  0  0  0  0  0  0
    1.2146    1.3188   -6.9565 N   0  0  0  0  0  0  0  0  0  0  0  0
    0.1377    2.0534   -6.3362 C   0  0  0  0  0  0  0  0  0  0  0  0
   -0.5040    1.6421   -5.2398 C   0  0  0  0  0  0  0  0  0  0  0  0
   -1.6130    2.3393   -4.7262 C   0  0  0  0  0  0  0  0  0  0  0  0
   -2.0349    3.4779   -5.3807 C   0  0  0  0  0  0  0  0  0  0  0  0
   -3.2077    4.2889   -4.9539 C   0  0  0  0  0  0  0  0  0  0  0  0
   -1.3652    3.8913   -6.5105 C   0  0  0  0  0  0  0  0  0  0  0  0
   -0.2872    3.2099   -7.0127 C   0  0  0  0  0  0  0  0  0  0  0  0
    2.3391    2.1752   -7.1992 C   0  0  0  0  0  0  0  0  0  0  0  0
    2.7336    2.9642   -6.0996 C   0  0  0  0  0  0  0  0  0  0  0  0
    3.7413    3.8834   -6.1314 C   0  0  0  0  0  0  0  0  0  0  0  0
    4.4109    4.0397   -7.3373 C   0  0  0  0  0  0  0  0  0  0  0  0
    5.5285    5.0231   -7.4015 C   0  0  0  0  0  0  0  0  0  0  0  0
    4.0397    3.2749   -8.4308 C   0  0  0  0  0  0  0  0  0  0  0  0
    3.0052    2.3496   -8.3524 C   0  0  0  0  0  0  0  0  0  0  0  0
    0.0229   -0.7938   -7.4116 C   0  0  0  0  0  0  0  0  0  0  0  0
   -1.5753   -0.6602   -6.7198 S   0  0  0  0  0  0  0  0  0  0  0  0
    3.8008   -0.5303   -7.3502 C   0  0  0  0  0  0  0  0  0  0  0  0
    4.1654   -1.1308   -6.1551 C   0  0  0  0  0  0  0  0  0  0  0  0
    3.2843   -1.8456   -5.2483 C   0  0  0  0  0  0  0  0  0  0  0  0
    2.0486   -2.0419   -5.3618 O   0  0  0  0  0  0  0  0  0  0  0  0
    4.0475   -2.3593   -4.0890 C   0  0  0  0  0  0  0  0  0  0  0  0
    3.6131   -3.1802   -3.0719 C   0  0  0  0  0  0  0  0  0  0  0  0
    4.5119   -3.6652   -2.1594 C   0  0  0  0  0  0  0  0  0  0  0  0
    5.8229   -3.2968   -2.2972 C   0  0  0  0  0  0  0  0  0  0  0  0
    6.2399   -2.4513   -3.3507 C   0  0  0  0  0  0  0  0  0  0  0  0
    5.3537   -1.9706   -4.2715 C   0  0  0  0  0  0  0  0  0  0  0  0
    5.4783   -1.1946   -5.5635 C   0  0  0  0  0  0  0  0  0  0  0  0
    6.6843   -1.0598   -6.1461 C   0  0  0  0  0  0  0  0  0  0  0  0
    6.9184   -0.8802   -7.4971 C   0  0  0  0  0  0  0  0  0  0  0  0
    7.1429   -0.7334   -8.7479 N   0  0  0  0  0  0  0  0  0  0  0  0
    7.8373   -0.9285   -5.3129 C   0  0  0  0  0  0  0  0  0  0  0  0
    8.8239   -0.8064   -4.5749 N   0  0  0  0  0  0  0  0  0  0  0  0
    6.2840   -4.0900   -1.1472 C   0  0  0  0  0  0  0  0  0  0  0  0
    6.5675   -3.4308    0.1415 C   0  0  0  0  0  0  0  0  0  0  0  0
    5.7345   -2.2469    0.3487 C   0  0  0  0  0  0  0  0  0  0  0  0
    4.4689   -2.6269    0.4592 C   0  0  0  0  0  0  0  0  0  0  0  0
    4.4399   -4.1005    0.3587 C   0  0  0  0  0  0  0  0  0  0  0  0
    5.7854   -4.4075    1.0769 C   0  0  0  0  0  0  0  0  0  0  0  0
    4.8116   -4.5323   -1.0045 C   0  0  0  0  0  0  0  0  0  0  0  0
   -0.5738    5.7363    6.9202 H   0  0  0  0  0  0  0  0  0  0  0  0
    2.6263    9.2361    9.2543 H   0  0  0  0  0  0  0  0  0  0  0  0
    4.0189    4.8748   11.0743 H   0  0  0  0  0  0  0  0  0  0  0  0
    6.4289    7.1393   11.6205 H   0  0  0  0  0  0  0  0  0  0  0  0
    5.6435    6.7633   13.9872 H   0  0  0  0  0  0  0  0  0  0  0  0
    3.0765    6.4375   13.7352 H   0  0  0  0  0  0  0  0  0  0  0  0
    2.0901    8.8142   12.9791 H   0  0  0  0  0  0  0  0  0  0  0  0
    4.1166   10.4573   12.6312 H   0  0  0  0  0  0  0  0  0  0  0  0
    6.2813    9.2951   13.5907 H   0  0  0  0  0  0  0  0  0  0  0  0
    4.8413    9.1602   14.7277 H   0  0  0  0  0  0  0  0  0  0  0  0
    5.6532    9.4525   10.8811 H   0  0  0  0  0  0  0  0  0  0  0  0
    1.3372    2.6827    7.3601 H   0  0  0  0  0  0  0  0  0  0  0  0
    2.5379   -0.7296    6.7421 H   0  0  0  0  0  0  0  0  0  0  0  0
    2.4477    0.6248    7.8611 H   0  0  0  0  0  0  0  0  0  0  0  0
    2.0600    1.6629    5.1399 H   0  0  0  0  0  0  0  0  0  0  0  0
    3.4153    0.5290    5.1660 H   0  0  0  0  0  0  0  0  0  0  0  0
    3.4469    1.9164    6.2916 H   0  0  0  0  0  0  0  0  0  0  0  0
   -3.4096    2.1307    6.5988 H   0  0  0  0  0  0  0  0  0  0  0  0
   -4.3492    4.5005    6.2122 H   0  0  0  0  0  0  0  0  0  0  0  0
   -4.1972    5.9992    7.2068 H   0  0  0  0  0  0  0  0  0  0  0  0
   -5.3923    3.3496    7.8177 H   0  0  0  0  0  0  0  0  0  0  0  0
   -5.6010    4.9584    8.6226 H   0  0  0  0  0  0  0  0  0  0  0  0
   -4.2510    3.9867    9.1649 H   0  0  0  0  0  0  0  0  0  0  0  0
   -5.3457    0.0598    7.1818 H   0  0  0  0  0  0  0  0  0  0  0  0
   -3.9236    0.8710    7.8406 H   0  0  0  0  0  0  0  0  0  0  0  0
   -3.9585   -0.5693    9.4115 H   0  0  0  0  0  0  0  0  0  0  0  0
   -4.9155   -1.7938    8.5197 H   0  0  0  0  0  0  0  0  0  0  0  0
   -3.1113   -1.6123    8.2356 H   0  0  0  0  0  0  0  0  0  0  0  0
   -6.2840   -3.0824   -6.5282 H   0  0  0  0  0  0  0  0  0  0  0  0
   -5.1280   -2.3756   -7.6536 H   0  0  0  0  0  0  0  0  0  0  0  0
   -6.9538   -1.0514   -5.7704 H   0  0  0  0  0  0  0  0  0  0  0  0
   -6.0299   -0.3593   -7.1018 H   0  0  0  0  0  0  0  0  0  0  0  0
   -5.2703   -0.6196   -5.4291 H   0  0  0  0  0  0  0  0  0  0  0  0
   -1.3911   -3.5116    2.9890 H   0  0  0  0  0  0  0  0  0  0  0  0
   -1.5577   -4.4916    1.6577 H   0  0  0  0  0  0  0  0  0  0  0  0
   -0.0257   -2.5447    1.2703 H   0  0  0  0  0  0  0  0  0  0  0  0
   -1.5622   -2.0009    0.3510 H   0  0  0  0  0  0  0  0  0  0  0  0
   -1.1878   -1.3885    1.9395 H   0  0  0  0  0  0  0  0  0  0  0  0
   -1.9537   -4.6353   -1.9372 H   0  0  0  0  0  0  0  0  0  0  0  0
   -1.4560   -4.0424   -0.4761 H   0  0  0  0  0  0  0  0  0  0  0  0
   -3.3858   -6.3302   -0.2140 H   0  0  0  0  0  0  0  0  0  0  0  0
   -2.1557   -6.6792   -1.4448 H   0  0  0  0  0  0  0  0  0  0  0  0
   -1.5694   -6.3548    0.2042 H   0  0  0  0  0  0  0  0  0  0  0  0
    1.5429   -4.4898   -8.7571 H   0  0  0  0  0  0  0  0  0  0  0  0
    3.1846   -5.9118   -7.6630 H   0  0  0  0  0  0  0  0  0  0  0  0
    2.1354   -8.8310   -5.5355 H   0  0  0  0  0  0  0  0  0  0  0  0
    3.1935   -7.4297   -5.0845 H   0  0  0  0  0  0  0  0  0  0  0  0
    3.4377   -8.3069   -6.6389 H   0  0  0  0  0  0  0  0  0  0  0  0
    0.0008   -7.8648   -5.6159 H   0  0  0  0  0  0  0  0  0  0  0  0
   -1.6120   -6.3382   -6.6240 H   0  0  0  0  0  0  0  0  0  0  0  0
   -0.4403   -5.5081  -10.2220 H   0  0  0  0  0  0  0  0  0  0  0  0
   -1.9479   -6.4243  -11.9805 H   0  0  0  0  0  0  0  0  0  0  0  0
   -4.3821   -7.3791  -12.2707 H   0  0  0  0  0  0  0  0  0  0  0  0
   -5.6844   -6.1698  -11.7579 H   0  0  0  0  0  0  0  0  0  0  0  0
   -4.4017   -5.7153  -13.0069 H   0  0  0  0  0  0  0  0  0  0  0  0
   -5.3325   -4.9540   -9.8999 H   0  0  0  0  0  0  0  0  0  0  0  0
   -3.8930   -4.0914   -8.1958 H   0  0  0  0  0  0  0  0  0  0  0  0
   -0.2081    0.7577   -4.6559 H   0  0  0  0  0  0  0  0  0  0  0  0
   -2.1386    2.0207   -3.8324 H   0  0  0  0  0  0  0  0  0  0  0  0
   -4.0866    3.8440   -5.4917 H   0  0  0  0  0  0  0  0  0  0  0  0
   -3.0895    5.3573   -5.2803 H   0  0  0  0  0  0  0  0  0  0  0  0
   -3.4026    4.2186   -3.8775 H   0  0  0  0  0  0  0  0  0  0  0  0
   -1.7147    4.7990   -7.0266 H   0  0  0  0  0  0  0  0  0  0  0  0
    0.2585    3.4901   -7.8753 H   0  0  0  0  0  0  0  0  0  0  0  0
    2.2180    2.8397   -5.1529 H   0  0  0  0  0  0  0  0  0  0  0  0
    3.9856    4.4454   -5.2679 H   0  0  0  0  0  0  0  0  0  0  0  0
    5.7606    5.1985   -8.4802 H   0  0  0  0  0  0  0  0  0  0  0  0
    6.3760    4.5408   -6.8509 H   0  0  0  0  0  0  0  0  0  0  0  0
    5.2406    5.9636   -6.8924 H   0  0  0  0  0  0  0  0  0  0  0  0
    4.5860    3.4246   -9.3433 H   0  0  0  0  0  0  0  0  0  0  0  0
    2.7102    1.7368   -9.2060 H   0  0  0  0  0  0  0  0  0  0  0  0
    4.4622   -0.0371   -7.9414 H   0  0  0  0  0  0  0  0  0  0  0  0
    2.5414   -3.4510   -2.9685 H   0  0  0  0  0  0  0  0  0  0  0  0
    7.2649   -2.2110   -3.4010 H   0  0  0  0  0  0  0  0  0  0  0  0
    6.9441   -4.9555   -1.4053 H   0  0  0  0  0  0  0  0  0  0  0  0
    7.6059   -3.3534    0.4671 H   0  0  0  0  0  0  0  0  0  0  0  0
    6.1088   -1.2196    0.3980 H   0  0  0  0  0  0  0  0  0  0  0  0
    3.5917   -2.0222    0.6118 H   0  0  0  0  0  0  0  0  0  0  0  0
    3.5987   -4.5785    0.8321 H   0  0  0  0  0  0  0  0  0  0  0  0
    5.7903   -4.0484    2.0941 H   0  0  0  0  0  0  0  0  0  0  0  0
    6.0937   -5.4448    0.9162 H   0  0  0  0  0  0  0  0  0  0  0  0
    4.7120   -5.6406   -1.1983 H   0  0  0  0  0  0  0  0  0  0  0  0
  1  2  2  3
  2  3  1  0
  3  4  2  0
  3  5  1  0
  5  6  2  0
  6  7  1  0
  7  8  2  0
  8  9  1  0
  9 10  2  0
 10 11  1  0
 11 12  2  3
 12 13  1  0
 13 14  3  0
 12 15  1  0
 15 16  3  0
  8 17  1  0
 17 18  1  0
 18 19  1  0
 19 20  2  0
 20 21  1  0
 21 22  1  0
 21 23  1  0
  1 24  1  0
 24 25  2  0
 25 26  1  0
 26 27  1  0
 27 28  1  0
 28 29  1  0
 26 30  2  0
 30 31  1  0
 31 32  2  0
 32 33  1  0
 33 34  1  0
 34 35  1  0
 30 36  1  0
 36 37  2  0
 37 38  1  0
 38 39  1  0
 37 40  1  0
 40 41  1  0
 41 42  1  0
 42 43  1  0
 43 44  1  0
 44 45  1  0
 45 46  2  0
 46 47  1  0
 47 48  1  0
 45 49  1  0
 49 50  1  0
 50 51  1  0
 51 52  1  0
 52 53  1  0
 53 54  1  0
 54 55  1  0
 53 56  2  0
 56 57  1  0
 57 58  1  0
 58 59  1  0
 59 60  1  0
 60 61  1  0
 61 62  1  0
 62 63  1  0
 63 64  1  0
 64 65  1  0
 65 66  1  0
 63 67  1  0
 67 68  1  0
 60 69  1  0
 69 70  1  0
 56 71  1  0
 71 72  2  0
 72 73  1  0
 73 74  1  0
 74 75  2  0
 75 76  1  0
 76 77  2  0
 77 78  1  0
 77 79  1  0
 79 80  2  0
 73 81  1  0
 81 82  2  0
 82 83  1  0
 83 84  2  0
 84 85  1  0
 84 86  1  0
 86 87  2  0
 72 88  1  0
 88 89  1  0
 89 90  1  0
 90 91  2  0
 91 92  1  0
 92 93  1  0
 93 94  2  0
 94 95  1  0
 95 96  2  0
 96 97  1  0
 96 98  1  0
 98 99  2  0
 92100  1  0
100101  2  0
101102  1  0
102103  2  0
103104  1  0
103105  1  0
105106  2  0
 91107  1  0
107108  1  0
 90109  1  0
109110  2  3
110111  1  0
111112  2  0
111113  1  0
113114  2  0
114115  1  0
115116  2  0
116117  1  0
117118  2  0
118119  1  0
119120  2  3
120121  1  0
121122  3  0
120123  1  0
123124  3  0
116125  1  0
125126  1  0
126127  1  0
127128  2  0
128129  1  0
129130  1  0
129131  1  0
 11  2  1  0
 23 17  1  0
 32 24  1  0
 66 36  1  0
108 71  1  0
119110  1  0
131125  1  0
 10  5  1  0
 22 18  1  0
 65 40  2  0
 80 74  1  0
 87 81  1  0
107 88  2  0
118113  1  0
130126  1  0
 23  7  1  0
 64 42  2  0
 99 93  1  0
106100  1  0
131115  1  0
 62 43  2  0
 48 44  2  0
 61 49  2  0
 59 50  2  0
 58 52  2  0
  1132  1  0
  6133  1  0
  9134  1  0
 17135  1  0
 18136  1  0
 19137  1  0
 20138  1  0
 21139  1  0
 22140  1  0
 22141  1  0
 23142  1  0
 25143  1  0
 28144  1  0
 28145  1  0
 29146  1  0
 29147  1  0
 29148  1  0
 31149  1  0
 34150  1  0
 34151  1  0
 35152  1  0
 35153  1  0
 35154  1  0
 38155  1  0
 38156  1  0
 39157  1  0
 39158  1  0
 39159  1  0
 54160  1  0
 54161  1  0
 55162  1  0
 55163  1  0
 55164  1  0
 67165  1  0
 67166  1  0
 68167  1  0
 68168  1  0
 68169  1  0
 69170  1  0
 69171  1  0
 70172  1  0
 70173  1  0
 70174  1  0
 75175  1  0
 76176  1  0
 78177  1  0
 78178  1  0
 78179  1  0
 79180  1  0
 80181  1  0
 82182  1  0
 83183  1  0
 85184  1  0
 85185  1  0
 85186  1  0
 86187  1  0
 87188  1  0
 94189  1  0
 95190  1  0
 97191  1  0
 97192  1  0
 97193  1  0
 98194  1  0
 99195  1  0
101196  1  0
102197  1  0
104198  1  0
104199  1  0
104200  1  0
105201  1  0
106202  1  0
109203  1  0
114204  1  0
117205  1  0
125206  1  0
126207  1  0
127208  1  0
128209  1  0
129210  1  0
130211  1  0
130212  1  0
131213  1  0
M  END

