
     RDKit          3D

185210  0  0  0  0  0  0  0  0999 V2000
   -0.2978   -4.3128    8.3718 C   0  0  0  0  0  0  0  0  0  0  0  0
    0.9494   -3.7903    8.3689 C   0  0  0  0  0  0  0  0  0  0  0  0
    2.1594   -4.4893    7.9264 C   0  0  0  0  0  0  0  0  0  0  0  0
    2.5474   -5.5902    8.3881 O   0  0  0  0  0  0  0  0  0  0  0  0
    3.0255   -3.5620    7.2423 C   0  0  0  0  0  0  0  0  0  0  0  0
    4.2226   -3.8841    6.5623 C   0  0  0  0  0  0  0  0  0  0  0  0
    4.8342   -2.7916    5.9822 C   0  0  0  0  0  0  0  0  0  0  0  0
    4.3038   -1.4587    6.0602 C   0  0  0  0  0  0  0  0  0  0  0  0
    3.1274   -1.1463    6.7239 C   0  0  0  0  0  0  0  0  0  0  0  0
    2.4889   -2.2525    7.3582 C   0  0  0  0  0  0  0  0  0  0  0  0
    1.2406   -2.3246    8.1829 C   0  0  0  0  0  0  0  0  0  0  0  0
    0.6154   -1.2734    8.7718 C   0  0  0  0  0  0  0  0  0  0  0  0
   -0.4747   -1.4322    9.7012 C   0  0  0  0  0  0  0  0  0  0  0  0
   -1.3480   -1.5465   10.4531 N   0  0  0  0  0  0  0  0  0  0  0  0
    1.0643    0.0862    8.6167 C   0  0  0  0  0  0  0  0  0  0  0  0
    1.4023    1.1895    8.5241 N   0  0  0  0  0  0  0  0  0  0  0  0
    5.4384   -0.9382    5.2352 C   0  0  0  0  0  0  0  0  0  0  0  0
    5.1620   -0.5652    3.7450 C   0  0  0  0  0  0  0  0  0  0  0  0
    4.0543   -1.4279    3.1858 C   0  0  0  0  0  0  0  0  0  0  0  0
    4.5370   -2.6677    3.1197 C   0  0  0  0  0  0  0  0  0  0  0  0
    5.9615   -2.6041    3.6208 C   0  0  0  0  0  0  0  0  0  0  0  0
    6.3439   -1.2418    3.0763 C   0  0  0  0  0  0  0  0  0  0  0  0
    5.9820   -2.2990    5.1516 C   0  0  0  0  0  0  0  0  0  0  0  0
   -0.8803   -5.0328    7.1910 C   0  0  0  0  0  0  0  0  0  0  0  0
   -2.0465   -4.5465    6.5549 C   0  0  0  0  0  0  0  0  0  0  0  0
   -2.9848   -3.4732    6.9453 C   0  0  0  0  0  0  0  0  0  0  0  0
   -2.9655   -2.8137    8.0173 O   0  0  0  0  0  0  0  0  0  0  0  0
   -3.9697   -3.2910    5.9363 N   0  0  0  0  0  0  0  0  0  0  0  0
   -5.0564   -2.3091    5.9102 C   0  0  0  0  0  0  0  0  0  0  0  0
   -6.3156   -2.8878    6.5450 C   0  0  0  0  0  0  0  0  0  0  0  0
   -3.6652   -4.2539    4.9364 C   0  0  0  0  0  0  0  0  0  0  0  0
   -4.4113   -4.4868    3.9465 O   0  0  0  0  0  0  0  0  0  0  0  0
   -2.4434   -4.9856    5.2884 C   0  0  0  0  0  0  0  0  0  0  0  0
   -1.6567   -5.8635    4.5145 C   0  0  0  0  0  0  0  0  0  0  0  0
   -0.5976   -6.5018    5.2114 C   0  0  0  0  0  0  0  0  0  0  0  0
   -0.2697   -6.1378    6.5640 C   0  0  0  0  0  0  0  0  0  0  0  0
    0.6816   -6.8900    7.1664 N   0  0  0  0  0  0  0  0  0  0  0  0
    1.1265   -7.8997    5.9422 S   0  0  0  0  0  0  0  0  0  0  0  0
    0.1686   -7.4794    4.6682 N   0  0  0  0  0  0  0  0  0  0  0  0
   -1.7493   -5.8493    3.0153 C   0  0  0  0  0  0  0  0  0  0  0  0
   -1.3428   -6.8349    2.0756 C   0  0  0  0  0  0  0  0  0  0  0  0
   -1.1610   -8.2714    2.3526 C   0  0  0  0  0  0  0  0  0  0  0  0
   -2.1338   -8.9856    3.0688 C   0  0  0  0  0  0  0  0  0  0  0  0
   -1.9473  -10.3433    3.3537 C   0  0  0  0  0  0  0  0  0  0  0  0
   -0.7772  -10.9910    2.9512 C   0  0  0  0  0  0  0  0  0  0  0  0
    0.2113  -10.2864    2.2422 C   0  0  0  0  0  0  0  0  0  0  0  0
    1.5121  -10.9453    1.8810 C   0  0  0  0  0  0  0  0  0  0  0  0
    2.5135  -10.8670    3.0355 C   0  0  0  0  0  0  0  0  0  0  0  0
    0.0125   -8.9280    1.9424 C   0  0  0  0  0  0  0  0  0  0  0  0
   -1.2139   -6.2847    0.7849 C   0  0  0  0  0  0  0  0  0  0  0  0
   -0.5365   -6.8225   -0.6972 S   0  0  0  0  0  0  0  0  0  0  0  0
   -0.7783   -5.2888   -1.4105 C   0  0  0  0  0  0  0  0  0  0  0  0
   -0.6316   -4.6245   -2.5989 C   0  0  0  0  0  0  0  0  0  0  0  0
   -0.0758   -5.0157   -3.8210 C   0  0  0  0  0  0  0  0  0  0  0  0
   -0.0845   -4.0822   -4.8990 C   0  0  0  0  0  0  0  0  0  0  0  0
    0.5029   -4.4823   -6.0541 N   0  0  0  0  0  0  0  0  0  0  0  0
    0.9866   -6.0036   -5.6222 S   0  0  0  0  0  0  0  0  0  0  0  0
    0.5092   -6.2160   -4.0507 N   0  0  0  0  0  0  0  0  0  0  0  0
   -0.6495   -2.8161   -4.7006 C   0  0  0  0  0  0  0  0  0  0  0  0
   -0.5839   -1.6844   -5.4703 C   0  0  0  0  0  0  0  0  0  0  0  0
    0.3190   -1.1251   -6.8094 S   0  0  0  0  0  0  0  0  0  0  0  0
    0.0077    0.5074   -6.3976 C   0  0  0  0  0  0  0  0  0  0  0  0
    0.4022    1.7545   -6.9078 C   0  0  0  0  0  0  0  0  0  0  0  0
    1.3467    1.9251   -8.0315 C   0  0  0  0  0  0  0  0  0  0  0  0
    1.0977    2.8562   -9.0513 C   0  0  0  0  0  0  0  0  0  0  0  0
    2.0021    2.9993  -10.1090 C   0  0  0  0  0  0  0  0  0  0  0  0
    3.1601    2.2119  -10.1651 C   0  0  0  0  0  0  0  0  0  0  0  0
    3.4190    1.2813   -9.1411 C   0  0  0  0  0  0  0  0  0  0  0  0
    4.6833    0.4591   -9.1531 C   0  0  0  0  0  0  0  0  0  0  0  0
    5.8077    1.1499   -8.3772 C   0  0  0  0  0  0  0  0  0  0  0  0
    2.5242    1.1636   -8.0720 C   0  0  0  0  0  0  0  0  0  0  0  0
   -0.1261    2.8008   -6.1230 C   0  0  0  0  0  0  0  0  0  0  0  0
   -0.9958    2.1611   -4.8169 S   0  0  0  0  0  0  0  0  0  0  0  0
   -0.7343    0.5717   -5.2467 C   0  0  0  0  0  0  0  0  0  0  0  0
   -1.0446   -0.6647   -4.7041 C   0  0  0  0  0  0  0  0  0  0  0  0
   -1.3747   -1.0475   -3.4441 N   0  0  0  0  0  0  0  0  0  0  0  0
   -1.1839   -2.4107   -3.4607 C   0  0  0  0  0  0  0  0  0  0  0  0
   -1.2160   -3.3593   -2.3978 C   0  0  0  0  0  0  0  0  0  0  0  0
   -1.7561   -3.2590   -1.1375 N   0  0  0  0  0  0  0  0  0  0  0  0
   -1.3854   -4.4265   -0.5633 C   0  0  0  0  0  0  0  0  0  0  0  0
   -1.6096   -4.9806    0.6836 C   0  0  0  0  0  0  0  0  0  0  0  0
   -1.9863   -4.3790    2.1827 S   0  0  0  0  0  0  0  0  0  0  0  0
   -3.0270   -2.6052   -0.7914 C   0  0  0  0  0  0  0  0  0  0  0  0
   -2.8857   -1.6864    0.4344 C   0  0  0  0  0  0  0  0  0  0  0  0
   -1.3318   -0.1411   -2.2942 C   0  0  0  0  0  0  0  0  0  0  0  0
    0.0171   -0.2028   -1.5852 C   0  0  0  0  0  0  0  0  0  0  0  0
    0.1021    4.2555   -6.2291 C   0  0  0  0  0  0  0  0  0  0  0  0
    1.1992    4.8517   -5.5761 C   0  0  0  0  0  0  0  0  0  0  0  0
    2.3807    4.2178   -4.9810 C   0  0  0  0  0  0  0  0  0  0  0  0
    2.7762    3.0465   -5.2164 O   0  0  0  0  0  0  0  0  0  0  0  0
    3.0036    5.0885   -4.0346 N   0  0  0  0  0  0  0  0  0  0  0  0
    4.2283    4.8520   -3.2760 C   0  0  0  0  0  0  0  0  0  0  0  0
    5.3460    5.7718   -3.7605 C   0  0  0  0  0  0  0  0  0  0  0  0
    2.2083    6.2662   -4.0576 C   0  0  0  0  0  0  0  0  0  0  0  0
    2.3667    7.2339   -3.2578 O   0  0  0  0  0  0  0  0  0  0  0  0
    1.0993    6.1181   -5.0057 C   0  0  0  0  0  0  0  0  0  0  0  0
   -0.0919    6.8629   -5.0522 C   0  0  0  0  0  0  0  0  0  0  0  0
   -1.0858    6.3954   -5.9325 C   0  0  0  0  0  0  0  0  0  0  0  0
   -1.0080    5.0824   -6.4878 C   0  0  0  0  0  0  0  0  0  0  0  0
   -2.1213    4.6290   -7.1259 N   0  0  0  0  0  0  0  0  0  0  0  0
   -3.1249    5.9262   -6.9543 S   0  0  0  0  0  0  0  0  0  0  0  0
   -2.2709    7.0390   -6.0868 N   0  0  0  0  0  0  0  0  0  0  0  0
   -0.5044    7.6782   -3.8845 C   0  0  0  0  0  0  0  0  0  0  0  0
   -1.0376    7.0616   -2.8207 C   0  0  0  0  0  0  0  0  0  0  0  0
   -1.3197    5.6184   -2.7864 C   0  0  0  0  0  0  0  0  0  0  0  0
   -0.4503    4.7145   -2.8812 O   0  0  0  0  0  0  0  0  0  0  0  0
   -2.6345    5.4363   -2.2391 C   0  0  0  0  0  0  0  0  0  0  0  0
   -3.4588    4.3079   -2.4030 C   0  0  0  0  0  0  0  0  0  0  0  0
   -4.7351    4.4901   -1.9189 C   0  0  0  0  0  0  0  0  0  0  0  0
   -5.2102    5.7162   -1.3408 C   0  0  0  0  0  0  0  0  0  0  0  0
   -4.3955    6.8382   -1.1971 C   0  0  0  0  0  0  0  0  0  0  0  0
   -3.0570    6.6585   -1.6411 C   0  0  0  0  0  0  0  0  0  0  0  0
   -1.9926    7.6798   -1.8617 C   0  0  0  0  0  0  0  0  0  0  0  0
   -1.7580    8.7633   -1.0941 C   0  0  0  0  0  0  0  0  0  0  0  0
   -0.4984    9.4717   -1.1723 C   0  0  0  0  0  0  0  0  0  0  0  0
    0.5195   10.0271   -1.2017 N   0  0  0  0  0  0  0  0  0  0  0  0
   -2.5655    9.0417    0.0687 C   0  0  0  0  0  0  0  0  0  0  0  0
   -3.1911    9.2167    1.0165 N   0  0  0  0  0  0  0  0  0  0  0  0
   -6.5867    5.1114   -1.1966 C   0  0  0  0  0  0  0  0  0  0  0  0
   -7.0915    4.7248    0.2262 C   0  0  0  0  0  0  0  0  0  0  0  0
   -5.9127    4.4597    1.1199 C   0  0  0  0  0  0  0  0  0  0  0  0
   -5.3443    3.3381    0.6696 C   0  0  0  0  0  0  0  0  0  0  0  0
   -6.1838    2.8689   -0.5025 C   0  0  0  0  0  0  0  0  0  0  0  0
   -7.5478    3.2988   -0.0076 C   0  0  0  0  0  0  0  0  0  0  0  0
   -6.0537    3.8419   -1.7141 C   0  0  0  0  0  0  0  0  0  0  0  0
   -1.0304   -3.7738    8.9403 H   0  0  0  0  0  0  0  0  0  0  0  0
    4.6056   -4.8952    6.4626 H   0  0  0  0  0  0  0  0  0  0  0  0
    2.7417   -0.1396    6.7125 H   0  0  0  0  0  0  0  0  0  0  0  0
    6.0951   -0.2301    5.7881 H   0  0  0  0  0  0  0  0  0  0  0  0
    5.0578    0.5230    3.5461 H   0  0  0  0  0  0  0  0  0  0  0  0
    3.0751   -1.1044    2.8514 H   0  0  0  0  0  0  0  0  0  0  0  0
    4.0156   -3.5367    2.7093 H   0  0  0  0  0  0  0  0  0  0  0  0
    6.6185   -3.4397    3.3043 H   0  0  0  0  0  0  0  0  0  0  0  0
    6.3238   -1.1807    1.9617 H   0  0  0  0  0  0  0  0  0  0  0  0
    7.3336   -0.8776    3.4420 H   0  0  0  0  0  0  0  0  0  0  0  0
    6.9672   -2.4148    5.6483 H   0  0  0  0  0  0  0  0  0  0  0  0
   -5.2731   -2.0233    4.8638 H   0  0  0  0  0  0  0  0  0  0  0  0
   -4.7481   -1.3912    6.4612 H   0  0  0  0  0  0  0  0  0  0  0  0
   -7.1458   -2.1515    6.4553 H   0  0  0  0  0  0  0  0  0  0  0  0
   -6.1524   -3.1018    7.6172 H   0  0  0  0  0  0  0  0  0  0  0  0
   -6.6125   -3.8226    6.0241 H   0  0  0  0  0  0  0  0  0  0  0  0
   -3.0418   -8.4918    3.3975 H   0  0  0  0  0  0  0  0  0  0  0  0
   -2.7054  -10.8843    3.9032 H   0  0  0  0  0  0  0  0  0  0  0  0
   -0.6351  -12.0345    3.1947 H   0  0  0  0  0  0  0  0  0  0  0  0
    1.9460  -10.4467    0.9853 H   0  0  0  0  0  0  0  0  0  0  0  0
    1.3379  -12.0084    1.6069 H   0  0  0  0  0  0  0  0  0  0  0  0
    2.3759   -9.9451    3.6370 H   0  0  0  0  0  0  0  0  0  0  0  0
    2.3961  -11.7434    3.7049 H   0  0  0  0  0  0  0  0  0  0  0  0
    3.5457  -10.8708    2.6352 H   0  0  0  0  0  0  0  0  0  0  0  0
    0.7952   -8.3723    1.4349 H   0  0  0  0  0  0  0  0  0  0  0  0
    0.1984    3.4578   -9.0308 H   0  0  0  0  0  0  0  0  0  0  0  0
    1.7888    3.7047  -10.9066 H   0  0  0  0  0  0  0  0  0  0  0  0
    3.8441    2.3327  -10.9941 H   0  0  0  0  0  0  0  0  0  0  0  0
    4.4720   -0.5335   -8.6928 H   0  0  0  0  0  0  0  0  0  0  0  0
    5.0108    0.2606  -10.1983 H   0  0  0  0  0  0  0  0  0  0  0  0
    5.4133    1.8714   -7.6313 H   0  0  0  0  0  0  0  0  0  0  0  0
    6.4016    0.3889   -7.8303 H   0  0  0  0  0  0  0  0  0  0  0  0
    6.4794    1.6861   -9.0768 H   0  0  0  0  0  0  0  0  0  0  0  0
    2.7599    0.4783   -7.2620 H   0  0  0  0  0  0  0  0  0  0  0  0
   -3.4477   -2.0569   -1.6587 H   0  0  0  0  0  0  0  0  0  0  0  0
   -3.7984   -3.3676   -0.5599 H   0  0  0  0  0  0  0  0  0  0  0  0
   -1.8203   -1.4550    0.6471 H   0  0  0  0  0  0  0  0  0  0  0  0
   -3.3468   -2.1541    1.3269 H   0  0  0  0  0  0  0  0  0  0  0  0
   -3.4226   -0.7291    0.2674 H   0  0  0  0  0  0  0  0  0  0  0  0
   -2.1595   -0.3184   -1.6040 H   0  0  0  0  0  0  0  0  0  0  0  0
   -1.5203    0.9035   -2.6051 H   0  0  0  0  0  0  0  0  0  0  0  0
    0.1951   -1.2121   -1.1467 H   0  0  0  0  0  0  0  0  0  0  0  0
    0.0266    0.5446   -0.7574 H   0  0  0  0  0  0  0  0  0  0  0  0
    0.8364    0.0474   -2.2953 H   0  0  0  0  0  0  0  0  0  0  0  0
    4.0299    5.0390   -2.1969 H   0  0  0  0  0  0  0  0  0  0  0  0
    4.5483    3.7943   -3.3859 H   0  0  0  0  0  0  0  0  0  0  0  0
    6.2871    5.5087   -3.2290 H   0  0  0  0  0  0  0  0  0  0  0  0
    5.0985    6.8354   -3.5438 H   0  0  0  0  0  0  0  0  0  0  0  0
    5.5007    5.6388   -4.8561 H   0  0  0  0  0  0  0  0  0  0  0  0
   -0.5326    8.7573   -3.9817 H   0  0  0  0  0  0  0  0  0  0  0  0
   -3.1571    3.3936   -2.9135 H   0  0  0  0  0  0  0  0  0  0  0  0
   -4.7669    7.7518   -0.7380 H   0  0  0  0  0  0  0  0  0  0  0  0
   -7.3494    5.5605   -1.8707 H   0  0  0  0  0  0  0  0  0  0  0  0
   -7.8485    5.4083    0.6767 H   0  0  0  0  0  0  0  0  0  0  0  0
   -5.6383    5.0178    2.0033 H   0  0  0  0  0  0  0  0  0  0  0  0
   -4.5317    2.8174    1.1634 H   0  0  0  0  0  0  0  0  0  0  0  0
   -6.0580    1.7967   -0.7378 H   0  0  0  0  0  0  0  0  0  0  0  0
   -7.8706    2.7686    0.9215 H   0  0  0  0  0  0  0  0  0  0  0  0
   -8.3582    3.2035   -0.7722 H   0  0  0  0  0  0  0  0  0  0  0  0
   -6.5571    3.5242   -2.6624 H   0  0  0  0  0  0  0  0  0  0  0  0
  1  2  2  3
  2  3  1  0
  3  4  2  0
  3  5  1  0
  5  6  2  0
  6  7  1  0
  7  8  2  0
  8  9  1  0
  9 10  2  0
 10 11  1  0
 11 12  2  3
 12 13  1  0
 13 14  3  0
 12 15  1  0
 15 16  3  0
  8 17  1  0
 17 18  1  0
 18 19  1  0
 19 20  2  0
 20 21  1  0
 21 22  1  0
 21 23  1  0
  1 24  1  0
 24 25  2  0
 25 26  1  0
 26 27  2  0
 26 28  1  0
 28 29  1  0
 29 30  1  0
 28 31  1  0
 31 32  2  0
 31 33  1  0
 33 34  2  0
 34 35  1  0
 35 36  1  0
 36 37  2  0
 37 38  1  0
 38 39  1  0
 34 40  1  0
 40 41  2  0
 41 42  1  0
 42 43  2  0
 43 44  1  0
 44 45  2  0
 45 46  1  0
 46 47  1  0
 47 48  1  0
 46 49  2  0
 41 50  1  0
 50 51  1  0
 51 52  1  0
 52 53  1  0
 53 54  1  0
 54 55  1  0
 55 56  2  0
 56 57  1  0
 57 58  1  0
 55 59  1  0
 59 60  1  0
 60 61  1  0
 61 62  1  0
 62 63  1  0
 63 64  1  0
 64 65  2  0
 65 66  1  0
 66 67  2  0
 67 68  1  0
 68 69  1  0
 69 70  1  0
 68 71  2  0
 63 72  2  0
 72 73  1  0
 73 74  1  0
 74 75  1  0
 75 76  1  0
 76 77  1  0
 77 78  1  0
 78 79  1  0
 79 80  1  0
 80 81  1  0
 81 82  1  0
 79 83  1  0
 83 84  1  0
 76 85  1  0
 85 86  1  0
 72 87  1  0
 87 88  2  0
 88 89  1  0
 89 90  2  0
 89 91  1  0
 91 92  1  0
 92 93  1  0
 91 94  1  0
 94 95  2  0
 94 96  1  0
 96 97  2  0
 97 98  1  0
 98 99  1  0
 99100  2  0
100101  1  0
101102  1  0
 97103  1  0
103104  2  3
104105  1  0
105106  2  0
105107  1  0
107108  2  0
108109  1  0
109110  2  0
110111  1  0
111112  2  0
112113  1  0
113114  2  3
114115  1  0
115116  3  0
114117  1  0
117118  3  0
110119  1  0
119120  1  0
120121  1  0
121122  2  0
122123  1  0
123124  1  0
123125  1  0
 11  2  1  0
 23 17  1  0
 36 24  1  0
 82 40  1  0
 99 87  1  0
113104  1  0
125119  1  0
 10  5  1  0
 22 18  1  0
 33 25  1  0
 39 35  2  0
 49 42  1  0
 81 50  2  0
 96 88  1  0
102 98  2  0
112107  1  0
124120  1  0
 23  7  1  0
 80 52  2  0
125109  1  0
 78 53  2  0
 58 54  2  0
 77 59  2  0
 75 60  2  0
 74 62  2  0
 71 64  1  0
  1126  1  0
  6127  1  0
  9128  1  0
 17129  1  0
 18130  1  0
 19131  1  0
 20132  1  0
 21133  1  0
 22134  1  0
 22135  1  0
 23136  1  0
 29137  1  0
 29138  1  0
 30139  1  0
 30140  1  0
 30141  1  0
 43142  1  0
 44143  1  0
 45144  1  0
 47145  1  0
 47146  1  0
 48147  1  0
 48148  1  0
 48149  1  0
 49150  1  0
 65151  1  0
 66152  1  0
 67153  1  0
 69154  1  0
 69155  1  0
 70156  1  0
 70157  1  0
 70158  1  0
 71159  1  0
 83160  1  0
 83161  1  0
 84162  1  0
 84163  1  0
 84164  1  0
 85165  1  0
 85166  1  0
 86167  1  0
 86168  1  0
 86169  1  0
 92170  1  0
 92171  1  0
 93172  1  0
 93173  1  0
 93174  1  0
103175  1  0
108176  1  0
111177  1  0
119178  1  0
120179  1  0
121180  1  0
122181  1  0
123182  1  0
124183  1  0
124184  1  0
125185  1  0
M  END

