
     RDKit          3D

236266  0  0  0  0  0  0  0  0999 V2000
   -1.1406   -0.9648    6.7925 C   0  0  0  0  0  0  0  0  0  0  0  0
   -1.0147   -2.2838    6.9716 C   0  0  0  0  0  0  0  0  0  0  0  0
   -1.9415   -3.1244    7.7389 C   0  0  0  0  0  0  0  0  0  0  0  0
   -2.7599   -2.7331    8.6136 O   0  0  0  0  0  0  0  0  0  0  0  0
   -1.8363   -4.4841    7.2437 C   0  0  0  0  0  0  0  0  0  0  0  0
   -2.6734   -5.5755    7.5653 C   0  0  0  0  0  0  0  0  0  0  0  0
   -2.4414   -6.7027    6.8020 C   0  0  0  0  0  0  0  0  0  0  0  0
   -1.4438   -6.7604    5.7745 C   0  0  0  0  0  0  0  0  0  0  0  0
   -0.6191   -5.6986    5.4558 C   0  0  0  0  0  0  0  0  0  0  0  0
   -0.8295   -4.5340    6.2425 C   0  0  0  0  0  0  0  0  0  0  0  0
   -0.1967   -3.1992    6.1224 C   0  0  0  0  0  0  0  0  0  0  0  0
    1.0302   -2.9198    5.6095 C   0  0  0  0  0  0  0  0  0  0  0  0
    1.6712   -1.6500    5.8331 C   0  0  0  0  0  0  0  0  0  0  0  0
    2.1904   -0.6295    6.0172 N   0  0  0  0  0  0  0  0  0  0  0  0
    1.8612   -3.9268    5.0005 C   0  0  0  0  0  0  0  0  0  0  0  0
    2.5451   -4.7293    4.5239 N   0  0  0  0  0  0  0  0  0  0  0  0
   -1.8683   -8.1520    5.4166 C   0  0  0  0  0  0  0  0  0  0  0  0
   -2.7003   -8.3368    4.1096 C   0  0  0  0  0  0  0  0  0  0  0  0
   -3.5383   -7.1069    3.8469 C   0  0  0  0  0  0  0  0  0  0  0  0
   -4.4655   -7.0654    4.8034 C   0  0  0  0  0  0  0  0  0  0  0  0
   -4.2257   -8.2677    5.6874 C   0  0  0  0  0  0  0  0  0  0  0  0
   -3.7859   -9.2611    4.6264 C   0  0  0  0  0  0  0  0  0  0  0  0
   -2.8868   -8.0989    6.4689 C   0  0  0  0  0  0  0  0  0  0  0  0
   -1.9357   -0.0786    7.6590 C   0  0  0  0  0  0  0  0  0  0  0  0
   -2.8759    0.7825    7.0676 C   0  0  0  0  0  0  0  0  0  0  0  0
   -3.3934    1.8255    7.8315 C   0  0  0  0  0  0  0  0  0  0  0  0
   -4.1026    3.0045    7.3633 C   0  0  0  0  0  0  0  0  0  0  0  0
   -4.5716    3.1867    6.2099 O   0  0  0  0  0  0  0  0  0  0  0  0
   -3.9944    4.0019    8.4180 C   0  0  0  0  0  0  0  0  0  0  0  0
   -3.3102    3.4439    9.4878 C   0  0  0  0  0  0  0  0  0  0  0  0
   -2.9567    2.0651    9.1257 C   0  0  0  0  0  0  0  0  0  0  0  0
   -2.0600    1.1977    9.7472 C   0  0  0  0  0  0  0  0  0  0  0  0
   -1.5634    0.1073    9.0127 C   0  0  0  0  0  0  0  0  0  0  0  0
   -2.7361    4.2569   10.4695 C   0  0  0  0  0  0  0  0  0  0  0  0
   -2.8044    5.6528   10.3138 C   0  0  0  0  0  0  0  0  0  0  0  0
   -3.4181    6.2224    9.1712 C   0  0  0  0  0  0  0  0  0  0  0  0
   -4.0831    5.3772    8.2530 C   0  0  0  0  0  0  0  0  0  0  0  0
   -2.9684    7.5449    8.6902 C   0  0  0  0  0  0  0  0  0  0  0  0
   -3.6396    8.2304    7.6623 C   0  0  0  0  0  0  0  0  0  0  0  0
   -2.7552    8.7812    6.7369 C   0  0  0  0  0  0  0  0  0  0  0  0
   -2.9773    8.9285    5.0673 S   0  0  0  0  0  0  0  0  0  0  0  0
   -1.3223    8.8011    4.7439 C   0  0  0  0  0  0  0  0  0  0  0  0
   -0.6621    8.1550    3.6370 C   0  0  0  0  0  0  0  0  0  0  0  0
   -1.1691    7.8760    2.3614 C   0  0  0  0  0  0  0  0  0  0  0  0
   -0.4270    7.0049    1.5470 C   0  0  0  0  0  0  0  0  0  0  0  0
   -0.7785    6.4873    0.1518 C   0  0  0  0  0  0  0  0  0  0  0  0
   -0.7787    7.6516   -0.8595 C   0  0  0  0  0  0  0  0  0  0  0  0
    0.2396    8.6343   -0.7932 C   0  0  0  0  0  0  0  0  0  0  0  0
    0.2720    9.6995   -1.6967 C   0  0  0  0  0  0  0  0  0  0  0  0
   -0.6924    9.7988   -2.6979 C   0  0  0  0  0  0  0  0  0  0  0  0
   -1.6822    8.8236   -2.8071 C   0  0  0  0  0  0  0  0  0  0  0  0
   -1.7205    7.7551   -1.9072 C   0  0  0  0  0  0  0  0  0  0  0  0
   -2.0982    5.6968    0.2807 C   0  0  0  0  0  0  0  0  0  0  0  0
   -2.1093    4.2974    0.5013 C   0  0  0  0  0  0  0  0  0  0  0  0
   -3.3105    3.6034    0.6589 C   0  0  0  0  0  0  0  0  0  0  0  0
   -4.5215    4.2950    0.6673 C   0  0  0  0  0  0  0  0  0  0  0  0
   -4.5327    5.6796    0.5152 C   0  0  0  0  0  0  0  0  0  0  0  0
   -3.3356    6.3784    0.3421 C   0  0  0  0  0  0  0  0  0  0  0  0
    0.4424    5.6029   -0.0993 C   0  0  0  0  0  0  0  0  0  0  0  0
    1.2804    5.5894    0.9962 C   0  0  0  0  0  0  0  0  0  0  0  0
    0.7662    6.4547    2.0179 C   0  0  0  0  0  0  0  0  0  0  0  0
    1.2534    6.6972    3.3041 C   0  0  0  0  0  0  0  0  0  0  0  0
    0.5114    7.5725    4.1195 C   0  0  0  0  0  0  0  0  0  0  0  0
    0.6890    7.8077    5.6173 C   0  0  0  0  0  0  0  0  0  0  0  0
    1.9330    8.6881    5.8491 C   0  0  0  0  0  0  0  0  0  0  0  0
    1.8380   10.0361    6.2769 C   0  0  0  0  0  0  0  0  0  0  0  0
    2.9853   10.8169    6.4498 C   0  0  0  0  0  0  0  0  0  0  0  0
    4.2457   10.2769    6.2021 C   0  0  0  0  0  0  0  0  0  0  0  0
    4.3643    8.9526    5.7783 C   0  0  0  0  0  0  0  0  0  0  0  0
    3.2217    8.1645    5.6038 C   0  0  0  0  0  0  0  0  0  0  0  0
    0.6975    6.4683    6.3761 C   0  0  0  0  0  0  0  0  0  0  0  0
   -0.2513    5.4709    6.0464 C   0  0  0  0  0  0  0  0  0  0  0  0
   -0.3127    4.2742    6.7663 C   0  0  0  0  0  0  0  0  0  0  0  0
    0.5591    4.0534    7.8322 C   0  0  0  0  0  0  0  0  0  0  0  0
    1.4849    5.0352    8.1903 C   0  0  0  0  0  0  0  0  0  0  0  0
    1.5437    6.2393    7.4815 C   0  0  0  0  0  0  0  0  0  0  0  0
   -0.6042    8.5685    5.8957 C   0  0  0  0  0  0  0  0  0  0  0  0
   -1.4254    8.6079    7.0275 C   0  0  0  0  0  0  0  0  0  0  0  0
   -1.3003    7.7764    8.4703 S   0  0  0  0  0  0  0  0  0  0  0  0
    2.3592    4.2737    1.0308 S   0  0  0  0  0  0  0  0  0  0  0  0
    1.8158    3.7859   -0.4896 C   0  0  0  0  0  0  0  0  0  0  0  0
    1.8169    2.6427   -1.2342 C   0  0  0  0  0  0  0  0  0  0  0  0
    0.8184    2.7750   -2.1405 C   0  0  0  0  0  0  0  0  0  0  0  0
    0.1463    3.9426   -2.0047 N   0  0  0  0  0  0  0  0  0  0  0  0
   -0.9665    4.4101   -2.8333 C   0  0  0  0  0  0  0  0  0  0  0  0
   -0.4356    5.2430   -3.9927 C   0  0  0  0  0  0  0  0  0  0  0  0
    0.7878    4.5592   -0.9734 C   0  0  0  0  0  0  0  0  0  0  0  0
    0.4988    1.6135   -2.8290 C   0  0  0  0  0  0  0  0  0  0  0  0
    1.2998    0.5422   -2.4003 C   0  0  0  0  0  0  0  0  0  0  0  0
    2.3505    1.0523   -1.1439 S   0  0  0  0  0  0  0  0  0  0  0  0
    1.0712   -0.8501   -2.8154 C   0  0  0  0  0  0  0  0  0  0  0  0
    2.0056   -1.9029   -2.8930 C   0  0  0  0  0  0  0  0  0  0  0  0
    3.4216   -1.7595   -2.6860 N   0  0  0  0  0  0  0  0  0  0  0  0
    4.0919   -2.5153   -1.6425 C   0  0  0  0  0  0  0  0  0  0  0  0
    5.4763   -2.7819   -1.7109 C   0  0  0  0  0  0  0  0  0  0  0  0
    6.1062   -3.5385   -0.7207 C   0  0  0  0  0  0  0  0  0  0  0  0
    5.3716   -4.0366    0.3635 C   0  0  0  0  0  0  0  0  0  0  0  0
    6.0334   -4.9102    1.3882 C   0  0  0  0  0  0  0  0  0  0  0  0
    3.9966   -3.7857    0.4390 C   0  0  0  0  0  0  0  0  0  0  0  0
    3.3635   -3.0237   -0.5478 C   0  0  0  0  0  0  0  0  0  0  0  0
    4.1781   -1.0538   -3.6853 C   0  0  0  0  0  0  0  0  0  0  0  0
    4.9332    0.0806   -3.3384 C   0  0  0  0  0  0  0  0  0  0  0  0
    5.7276    0.7204   -4.2932 C   0  0  0  0  0  0  0  0  0  0  0  0
    5.7900    0.2282   -5.6082 C   0  0  0  0  0  0  0  0  0  0  0  0
    6.7130    0.8634   -6.6056 C   0  0  0  0  0  0  0  0  0  0  0  0
    5.0565   -0.9218   -5.9494 C   0  0  0  0  0  0  0  0  0  0  0  0
    4.2448   -1.5463   -4.9990 C   0  0  0  0  0  0  0  0  0  0  0  0
    1.4033   -3.0759   -3.3682 C   0  0  0  0  0  0  0  0  0  0  0  0
    1.9681   -4.5807   -3.8727 S   0  0  0  0  0  0  0  0  0  0  0  0
    0.4503   -5.0847   -4.4836 C   0  0  0  0  0  0  0  0  0  0  0  0
   -0.4976   -4.0662   -4.3061 C   0  0  0  0  0  0  0  0  0  0  0  0
   -1.8453   -4.0777   -4.8345 N   0  0  0  0  0  0  0  0  0  0  0  0
   -2.7313   -5.1963   -4.6025 C   0  0  0  0  0  0  0  0  0  0  0  0
   -2.6506   -5.9455   -3.4136 C   0  0  0  0  0  0  0  0  0  0  0  0
   -3.5822   -6.9556   -3.1445 C   0  0  0  0  0  0  0  0  0  0  0  0
   -4.6031   -7.2400   -4.0634 C   0  0  0  0  0  0  0  0  0  0  0  0
   -5.6313   -8.2847   -3.7413 C   0  0  0  0  0  0  0  0  0  0  0  0
   -4.6866   -6.5021   -5.2536 C   0  0  0  0  0  0  0  0  0  0  0  0
   -3.7501   -5.4981   -5.5258 C   0  0  0  0  0  0  0  0  0  0  0  0
   -2.3673   -2.8713   -5.4314 C   0  0  0  0  0  0  0  0  0  0  0  0
   -3.5497   -2.2959   -4.9386 C   0  0  0  0  0  0  0  0  0  0  0  0
   -3.9790   -1.0521   -5.4114 C   0  0  0  0  0  0  0  0  0  0  0  0
   -3.2413   -0.3738   -6.3929 C   0  0  0  0  0  0  0  0  0  0  0  0
   -3.6464    0.9985   -6.8366 C   0  0  0  0  0  0  0  0  0  0  0  0
   -2.0676   -0.9572   -6.8981 C   0  0  0  0  0  0  0  0  0  0  0  0
   -1.6385   -2.2014   -6.4265 C   0  0  0  0  0  0  0  0  0  0  0  0
    0.0813   -2.9677   -3.6658 C   0  0  0  0  0  0  0  0  0  0  0  0
   -0.4441   -1.4123   -3.3374 S   0  0  0  0  0  0  0  0  0  0  0  0
    0.2629   -6.2536   -5.3551 C   0  0  0  0  0  0  0  0  0  0  0  0
    0.5421   -6.2231   -6.6711 C   0  0  0  0  0  0  0  0  0  0  0  0
    1.2737   -5.1430   -7.3557 C   0  0  0  0  0  0  0  0  0  0  0  0
    1.5440   -4.0068   -6.8915 O   0  0  0  0  0  0  0  0  0  0  0  0
    1.6495   -5.5974   -8.6735 C   0  0  0  0  0  0  0  0  0  0  0  0
    2.4321   -4.8933   -9.6181 C   0  0  0  0  0  0  0  0  0  0  0  0
    2.6499   -5.5853  -10.7917 C   0  0  0  0  0  0  0  0  0  0  0  0
    2.1320   -6.9019  -11.0289 C   0  0  0  0  0  0  0  0  0  0  0  0
    1.4018   -7.6105  -10.0888 C   0  0  0  0  0  0  0  0  0  0  0  0
    1.1488   -6.9065   -8.8790 C   0  0  0  0  0  0  0  0  0  0  0  0
    0.3570   -7.3206   -7.6752 C   0  0  0  0  0  0  0  0  0  0  0  0
   -0.5417   -8.3359   -7.6057 C   0  0  0  0  0  0  0  0  0  0  0  0
   -0.7514   -9.2643   -8.6850 C   0  0  0  0  0  0  0  0  0  0  0  0
   -0.9515  -10.0074   -9.5521 N   0  0  0  0  0  0  0  0  0  0  0  0
   -1.4871   -8.4651   -6.5350 C   0  0  0  0  0  0  0  0  0  0  0  0
   -2.2672   -8.5769   -5.6910 N   0  0  0  0  0  0  0  0  0  0  0  0
    2.7491   -6.9160  -12.3949 C   0  0  0  0  0  0  0  0  0  0  0  0
    4.0129   -7.8068  -12.5811 C   0  0  0  0  0  0  0  0  0  0  0  0
    4.6696   -7.3439  -13.8588 C   0  0  0  0  0  0  0  0  0  0  0  0
    5.1813   -6.1318  -13.6067 C   0  0  0  0  0  0  0  0  0  0  0  0
    4.8432   -5.8154  -12.1716 C   0  0  0  0  0  0  0  0  0  0  0  0
    4.9958   -7.2112  -11.5892 C   0  0  0  0  0  0  0  0  0  0  0  0
    3.3039   -5.5788  -12.1398 C   0  0  0  0  0  0  0  0  0  0  0  0
   -0.6382   -0.4873    5.9621 H   0  0  0  0  0  0  0  0  0  0  0  0
   -3.4669   -5.5190    8.2957 H   0  0  0  0  0  0  0  0  0  0  0  0
    0.0657   -5.7543    4.6247 H   0  0  0  0  0  0  0  0  0  0  0  0
   -1.0877   -8.9246    5.5910 H   0  0  0  0  0  0  0  0  0  0  0  0
   -2.1277   -8.7103    3.2348 H   0  0  0  0  0  0  0  0  0  0  0  0
   -3.4691   -6.4271    3.0050 H   0  0  0  0  0  0  0  0  0  0  0  0
   -5.2755   -6.3479    4.8721 H   0  0  0  0  0  0  0  0  0  0  0  0
   -5.0984   -8.5793    6.3003 H   0  0  0  0  0  0  0  0  0  0  0  0
   -3.3893  -10.2168    5.0476 H   0  0  0  0  0  0  0  0  0  0  0  0
   -4.5756   -9.4832    3.8708 H   0  0  0  0  0  0  0  0  0  0  0  0
   -2.7274   -8.8366    7.2858 H   0  0  0  0  0  0  0  0  0  0  0  0
   -3.1262    0.7002    6.0172 H   0  0  0  0  0  0  0  0  0  0  0  0
   -1.6910    1.4049   10.7449 H   0  0  0  0  0  0  0  0  0  0  0  0
   -0.8081   -0.5287    9.4572 H   0  0  0  0  0  0  0  0  0  0  0  0
   -2.1386    3.8281   11.2658 H   0  0  0  0  0  0  0  0  0  0  0  0
   -2.2502    6.2847   11.0009 H   0  0  0  0  0  0  0  0  0  0  0  0
   -4.4684    5.7546    7.3142 H   0  0  0  0  0  0  0  0  0  0  0  0
   -4.6879    8.0848    7.4364 H   0  0  0  0  0  0  0  0  0  0  0  0
   -2.1190    8.2808    2.0415 H   0  0  0  0  0  0  0  0  0  0  0  0
    1.0116    8.5844   -0.0371 H   0  0  0  0  0  0  0  0  0  0  0  0
    1.0527   10.4474   -1.6251 H   0  0  0  0  0  0  0  0  0  0  0  0
   -0.6701   10.6277   -3.3941 H   0  0  0  0  0  0  0  0  0  0  0  0
   -2.4278    8.8946   -3.5907 H   0  0  0  0  0  0  0  0  0  0  0  0
   -2.5077    7.0293   -2.0371 H   0  0  0  0  0  0  0  0  0  0  0  0
   -1.1975    3.7237    0.5581 H   0  0  0  0  0  0  0  0  0  0  0  0
   -3.3042    2.5290    0.7951 H   0  0  0  0  0  0  0  0  0  0  0  0
   -5.4516    3.7560    0.8064 H   0  0  0  0  0  0  0  0  0  0  0  0
   -5.4737    6.2173    0.5487 H   0  0  0  0  0  0  0  0  0  0  0  0
   -3.3811    7.4547    0.2378 H   0  0  0  0  0  0  0  0  0  0  0  0
    2.1238    6.1743    3.6725 H   0  0  0  0  0  0  0  0  0  0  0  0
    0.8840   10.5033    6.4763 H   0  0  0  0  0  0  0  0  0  0  0  0
    2.8935   11.8437    6.7768 H   0  0  0  0  0  0  0  0  0  0  0  0
    5.1321   10.8814    6.3444 H   0  0  0  0  0  0  0  0  0  0  0  0
    5.3465    8.5369    5.5876 H   0  0  0  0  0  0  0  0  0  0  0  0
    3.3529    7.1358    5.2956 H   0  0  0  0  0  0  0  0  0  0  0  0
   -0.9612    5.6246    5.2426 H   0  0  0  0  0  0  0  0  0  0  0  0
   -1.0377    3.5168    6.5004 H   0  0  0  0  0  0  0  0  0  0  0  0
    0.5123    3.1249    8.3872 H   0  0  0  0  0  0  0  0  0  0  0  0
    2.1563    4.8647    9.0201 H   0  0  0  0  0  0  0  0  0  0  0  0
    2.2420    6.9925    7.8218 H   0  0  0  0  0  0  0  0  0  0  0  0
   -1.6678    5.0010   -2.2306 H   0  0  0  0  0  0  0  0  0  0  0  0
   -1.5363    3.5458   -3.2330 H   0  0  0  0  0  0  0  0  0  0  0  0
    0.2211    4.6166   -4.6360 H   0  0  0  0  0  0  0  0  0  0  0  0
   -1.2858    5.6196   -4.6010 H   0  0  0  0  0  0  0  0  0  0  0  0
    0.1505    6.1073   -3.6081 H   0  0  0  0  0  0  0  0  0  0  0  0
   -0.3146    1.5276   -3.5355 H   0  0  0  0  0  0  0  0  0  0  0  0
    6.0742   -2.4199   -2.5349 H   0  0  0  0  0  0  0  0  0  0  0  0
    7.1661   -3.7323   -0.8023 H   0  0  0  0  0  0  0  0  0  0  0  0
    7.1257   -4.7183    1.4264 H   0  0  0  0  0  0  0  0  0  0  0  0
    5.8601   -5.9772    1.1306 H   0  0  0  0  0  0  0  0  0  0  0  0
    5.6142   -4.7125    2.3975 H   0  0  0  0  0  0  0  0  0  0  0  0
    3.4118   -4.1786    1.2621 H   0  0  0  0  0  0  0  0  0  0  0  0
    2.2991   -2.8400   -0.4560 H   0  0  0  0  0  0  0  0  0  0  0  0
    4.9267    0.4454   -2.3207 H   0  0  0  0  0  0  0  0  0  0  0  0
    6.3202    1.5816   -4.0047 H   0  0  0  0  0  0  0  0  0  0  0  0
    7.7445    0.4861   -6.4450 H   0  0  0  0  0  0  0  0  0  0  0  0
    6.4027    0.6194   -7.6451 H   0  0  0  0  0  0  0  0  0  0  0  0
    6.7068    1.9675   -6.4918 H   0  0  0  0  0  0  0  0  0  0  0  0
    5.1234   -1.3394   -6.9454 H   0  0  0  0  0  0  0  0  0  0  0  0
    3.6956   -2.4355   -5.2733 H   0  0  0  0  0  0  0  0  0  0  0  0
   -1.8861   -5.7258   -2.6789 H   0  0  0  0  0  0  0  0  0  0  0  0
   -3.5139   -7.5063   -2.2164 H   0  0  0  0  0  0  0  0  0  0  0  0
   -6.1696   -8.6113   -4.6567 H   0  0  0  0  0  0  0  0  0  0  0  0
   -5.1410   -9.1764   -3.2974 H   0  0  0  0  0  0  0  0  0  0  0  0
   -6.3668   -7.8711   -3.0188 H   0  0  0  0  0  0  0  0  0  0  0  0
   -5.4742   -6.7005   -5.9717 H   0  0  0  0  0  0  0  0  0  0  0  0
   -3.8284   -4.9412   -6.4513 H   0  0  0  0  0  0  0  0  0  0  0  0
   -4.1096   -2.7912   -4.1549 H   0  0  0  0  0  0  0  0  0  0  0  0
   -4.8743   -0.6038   -4.9894 H   0  0  0  0  0  0  0  0  0  0  0  0
   -3.4570    1.1146   -7.9254 H   0  0  0  0  0  0  0  0  0  0  0  0
   -4.7264    1.1775   -6.6555 H   0  0  0  0  0  0  0  0  0  0  0  0
   -3.0555    1.7621   -6.2840 H   0  0  0  0  0  0  0  0  0  0  0  0
   -1.4751   -0.4352   -7.6388 H   0  0  0  0  0  0  0  0  0  0  0  0
   -0.7205   -2.6227   -6.8100 H   0  0  0  0  0  0  0  0  0  0  0  0
   -0.1065   -7.1491   -4.8823 H   0  0  0  0  0  0  0  0  0  0  0  0
    2.8226   -3.9015   -9.4346 H   0  0  0  0  0  0  0  0  0  0  0  0
    1.1038   -8.6243  -10.2883 H   0  0  0  0  0  0  0  0  0  0  0  0
    2.0038   -6.9616  -13.2215 H   0  0  0  0  0  0  0  0  0  0  0  0
    3.8515   -8.9030  -12.5061 H   0  0  0  0  0  0  0  0  0  0  0  0
    4.8048   -7.9147  -14.7729 H   0  0  0  0  0  0  0  0  0  0  0  0
    5.7970   -5.5470  -14.2812 H   0  0  0  0  0  0  0  0  0  0  0  0
    5.4642   -5.0210  -11.7047 H   0  0  0  0  0  0  0  0  0  0  0  0
    6.0315   -7.6182  -11.6919 H   0  0  0  0  0  0  0  0  0  0  0  0
    4.6800   -7.3037  -10.5274 H   0  0  0  0  0  0  0  0  0  0  0  0
    2.9240   -4.7823  -12.8173 H   0  0  0  0  0  0  0  0  0  0  0  0
  1  2  2  3
  2  3  1  0
  3  4  2  0
  3  5  1  0
  5  6  2  0
  6  7  1  0
  7  8  2  0
  8  9  1  0
  9 10  2  0
 10 11  1  0
 11 12  2  3
 12 13  1  0
 13 14  3  0
 12 15  1  0
 15 16  3  0
  8 17  1  0
 17 18  1  0
 18 19  1  0
 19 20  2  0
 20 21  1  0
 21 22  1  0
 21 23  1  0
  1 24  1  0
 24 25  2  0
 25 26  1  0
 26 27  1  0
 27 28  2  0
 27 29  1  0
 29 30  2  0
 30 31  1  0
 31 32  1  0
 32 33  2  0
 30 34  1  0
 34 35  2  0
 35 36  1  0
 36 37  2  0
 36 38  1  0
 38 39  2  0
 39 40  1  0
 40 41  1  0
 41 42  1  0
 42 43  1  0
 43 44  2  0
 44 45  1  0
 45 46  1  0
 46 47  1  0
 47 48  2  0
 48 49  1  0
 49 50  2  0
 50 51  1  0
 51 52  2  0
 46 53  1  0
 53 54  2  0
 54 55  1  0
 55 56  2  0
 56 57  1  0
 57 58  2  0
 46 59  1  0
 59 60  2  0
 60 61  1  0
 61 62  1  0
 62 63  2  0
 63 64  1  0
 64 65  1  0
 65 66  2  0
 66 67  1  0
 67 68  2  0
 68 69  1  0
 69 70  2  0
 64 71  1  0
 71 72  2  0
 72 73  1  0
 73 74  2  0
 74 75  1  0
 75 76  2  0
 64 77  1  0
 77 78  1  0
 78 79  1  0
 60 80  1  0
 80 81  1  0
 81 82  1  0
 82 83  2  0
 83 84  1  0
 84 85  1  0
 85 86  1  0
 84 87  1  0
 83 88  1  0
 88 89  2  0
 89 90  1  0
 89 91  1  0
 91 92  2  0
 92 93  1  0
 93 94  1  0
 94 95  2  0
 95 96  1  0
 96 97  2  0
 97 98  1  0
 97 99  1  0
 99100  2  0
 93101  1  0
101102  2  0
102103  1  0
103104  2  0
104105  1  0
104106  1  0
106107  2  0
 92108  1  0
108109  1  0
109110  1  0
110111  2  0
111112  1  0
112113  1  0
113114  2  0
114115  1  0
115116  2  0
116117  1  0
116118  1  0
118119  2  0
112120  1  0
120121  2  0
121122  1  0
122123  2  0
123124  1  0
123125  1  0
125126  2  0
111127  1  0
127128  1  0
110129  1  0
129130  2  3
130131  1  0
131132  2  0
131133  1  0
133134  2  0
134135  1  0
135136  2  0
136137  1  0
137138  2  0
138139  1  0
139140  2  3
140141  1  0
141142  3  0
140143  1  0
143144  3  0
136145  1  0
145146  1  0
146147  1  0
147148  2  0
148149  1  0
149150  1  0
149151  1  0
 11  2  1  0
 23 17  1  0
 33 24  1  0
 79 38  1  0
 87 81  2  0
128 91  1  0
139130  1  0
151145  1  0
 10  5  1  0
 22 18  1  0
 31 26  2  0
 78 40  2  0
 90 82  1  0
100 94  1  0
107101  1  0
127108  2  0
138133  1  0
150146  1  0
 23  7  1  0
 37 29  1  0
 77 42  2  0
119113  1  0
126120  1  0
151135  1  0
 63 43  1  0
 70 65  1  0
 76 71  1  0
 61 45  2  0
 52 47  1  0
 58 53  1  0
 87 59  1  0
  1152  1  0
  6153  1  0
  9154  1  0
 17155  1  0
 18156  1  0
 19157  1  0
 20158  1  0
 21159  1  0
 22160  1  0
 22161  1  0
 23162  1  0
 25163  1  0
 32164  1  0
 33165  1  0
 34166  1  0
 35167  1  0
 37168  1  0
 39169  1  0
 44170  1  0
 48171  1  0
 49172  1  0
 50173  1  0
 51174  1  0
 52175  1  0
 54176  1  0
 55177  1  0
 56178  1  0
 57179  1  0
 58180  1  0
 62181  1  0
 66182  1  0
 67183  1  0
 68184  1  0
 69185  1  0
 70186  1  0
 72187  1  0
 73188  1  0
 74189  1  0
 75190  1  0
 76191  1  0
 85192  1  0
 85193  1  0
 86194  1  0
 86195  1  0
 86196  1  0
 88197  1  0
 95198  1  0
 96199  1  0
 98200  1  0
 98201  1  0
 98202  1  0
 99203  1  0
100204  1  0
102205  1  0
103206  1  0
105207  1  0
105208  1  0
105209  1  0
106210  1  0
107211  1  0
114212  1  0
115213  1  0
117214  1  0
117215  1  0
117216  1  0
118217  1  0
119218  1  0
121219  1  0
122220  1  0
124221  1  0
124222  1  0
124223  1  0
125224  1  0
126225  1  0
129226  1  0
134227  1  0
137228  1  0
145229  1  0
146230  1  0
147231  1  0
148232  1  0
149233  1  0
150234  1  0
150235  1  0
151236  1  0
M  END

