
     RDKit          3D

202228  0  0  0  0  0  0  0  0999 V2000
    6.4170    2.4388   -8.1999 C   0  0  0  0  0  0  0  0  0  0  0  0
    6.7616    2.5050   -6.8966 C   0  0  0  0  0  0  0  0  0  0  0  0
    7.8031    3.4045   -6.4000 C   0  0  0  0  0  0  0  0  0  0  0  0
    8.7049    3.9461   -7.0945 O   0  0  0  0  0  0  0  0  0  0  0  0
    7.5625    3.6550   -4.9916 C   0  0  0  0  0  0  0  0  0  0  0  0
    8.2308    4.5774   -4.1546 C   0  0  0  0  0  0  0  0  0  0  0  0
    7.7023    4.6631   -2.8771 C   0  0  0  0  0  0  0  0  0  0  0  0
    6.5722    3.8950   -2.4460 C   0  0  0  0  0  0  0  0  0  0  0  0
    5.9037    3.0030   -3.2639 C   0  0  0  0  0  0  0  0  0  0  0  0
    6.4531    2.8799   -4.5709 C   0  0  0  0  0  0  0  0  0  0  0  0
    6.0127    2.0197   -5.7006 C   0  0  0  0  0  0  0  0  0  0  0  0
    5.4153    0.8060   -5.5731 C   0  0  0  0  0  0  0  0  0  0  0  0
    5.4442   -0.1733   -6.6277 C   0  0  0  0  0  0  0  0  0  0  0  0
    5.4635   -0.9766   -7.4612 N   0  0  0  0  0  0  0  0  0  0  0  0
    4.8535    0.3457   -4.3290 C   0  0  0  0  0  0  0  0  0  0  0  0
    4.3987   -0.0285   -3.3313 N   0  0  0  0  0  0  0  0  0  0  0  0
    6.6269    4.5350   -1.0938 C   0  0  0  0  0  0  0  0  0  0  0  0
    5.5420    5.6072   -0.7875 C   0  0  0  0  0  0  0  0  0  0  0  0
    6.0341    6.3578    0.4255 C   0  0  0  0  0  0  0  0  0  0  0  0
    7.0823    7.0843    0.0202 C   0  0  0  0  0  0  0  0  0  0  0  0
    7.2622    6.7963   -1.4500 C   0  0  0  0  0  0  0  0  0  0  0  0
    5.8010    6.6707   -1.8415 C   0  0  0  0  0  0  0  0  0  0  0  0
    7.7800    5.3285   -1.5351 C   0  0  0  0  0  0  0  0  0  0  0  0
    5.0599    2.1050   -8.6660 C   0  0  0  0  0  0  0  0  0  0  0  0
    3.6188    2.4703   -7.8614 S   0  0  0  0  0  0  0  0  0  0  0  0
    2.5705    1.5017   -8.7726 C   0  0  0  0  0  0  0  0  0  0  0  0
    3.3676    0.9115   -9.7459 C   0  0  0  0  0  0  0  0  0  0  0  0
    3.2566   -0.3309  -10.5046 C   0  0  0  0  0  0  0  0  0  0  0  0
    2.2087   -1.0125  -10.6458 O   0  0  0  0  0  0  0  0  0  0  0  0
    4.5443   -0.7155  -10.9994 N   0  0  0  0  0  0  0  0  0  0  0  0
    4.9104   -2.0431  -11.4962 C   0  0  0  0  0  0  0  0  0  0  0  0
    5.2629   -2.9709  -10.3385 C   0  0  0  0  0  0  0  0  0  0  0  0
    5.4479    0.2573  -10.4633 C   0  0  0  0  0  0  0  0  0  0  0  0
    6.7021    0.1894  -10.5559 O   0  0  0  0  0  0  0  0  0  0  0  0
    4.7049    1.2584   -9.7068 C   0  0  0  0  0  0  0  0  0  0  0  0
    1.3564    0.9270   -8.1977 C   0  0  0  0  0  0  0  0  0  0  0  0
    0.0871    0.7593   -8.7968 C   0  0  0  0  0  0  0  0  0  0  0  0
   -0.2456    1.0794  -10.2048 C   0  0  0  0  0  0  0  0  0  0  0  0
   -0.9964    0.1703  -10.9706 C   0  0  0  0  0  0  0  0  0  0  0  0
   -1.2850    0.4428  -12.3080 C   0  0  0  0  0  0  0  0  0  0  0  0
   -0.8111    1.6110  -12.9041 C   0  0  0  0  0  0  0  0  0  0  0  0
   -0.0434    2.5219  -12.1631 C   0  0  0  0  0  0  0  0  0  0  0  0
    0.4624    3.7868  -12.8070 C   0  0  0  0  0  0  0  0  0  0  0  0
   -0.5707    4.9034  -12.6898 C   0  0  0  0  0  0  0  0  0  0  0  0
    0.2228    2.2585  -10.8096 C   0  0  0  0  0  0  0  0  0  0  0  0
   -0.7997    0.1646   -7.8825 C   0  0  0  0  0  0  0  0  0  0  0  0
   -2.4496   -0.2971   -7.9263 S   0  0  0  0  0  0  0  0  0  0  0  0
   -2.3563   -0.9008   -6.3370 C   0  0  0  0  0  0  0  0  0  0  0  0
   -3.0773   -1.6887   -5.4872 C   0  0  0  0  0  0  0  0  0  0  0  0
   -4.3667   -2.2133   -5.6018 C   0  0  0  0  0  0  0  0  0  0  0  0
   -4.8344   -3.1031   -4.5986 C   0  0  0  0  0  0  0  0  0  0  0  0
   -6.0963   -3.5781   -4.7377 N   0  0  0  0  0  0  0  0  0  0  0  0
   -6.5250   -2.8312   -6.1537 S   0  0  0  0  0  0  0  0  0  0  0  0
   -5.2169   -1.9285   -6.6200 N   0  0  0  0  0  0  0  0  0  0  0  0
   -3.9826   -3.4376   -3.5404 C   0  0  0  0  0  0  0  0  0  0  0  0
   -4.2458   -4.1129   -2.3837 C   0  0  0  0  0  0  0  0  0  0  0  0
   -5.6675   -4.4147   -1.5013 S   0  0  0  0  0  0  0  0  0  0  0  0
   -4.8142   -4.4369   -0.0269 C   0  0  0  0  0  0  0  0  0  0  0  0
   -5.2106   -4.4073    1.3200 C   0  0  0  0  0  0  0  0  0  0  0  0
   -6.6123   -4.2983    1.7805 C   0  0  0  0  0  0  0  0  0  0  0  0
   -7.4750   -3.3513    1.2068 C   0  0  0  0  0  0  0  0  0  0  0  0
   -8.7606   -3.1671    1.7183 C   0  0  0  0  0  0  0  0  0  0  0  0
   -9.1942   -3.9136    2.8164 C   0  0  0  0  0  0  0  0  0  0  0  0
   -8.3489   -4.8733    3.3950 C   0  0  0  0  0  0  0  0  0  0  0  0
   -8.7828   -5.6393    4.6152 C   0  0  0  0  0  0  0  0  0  0  0  0
   -8.1549   -5.0488    5.8750 C   0  0  0  0  0  0  0  0  0  0  0  0
   -7.0612   -5.0646    2.8651 C   0  0  0  0  0  0  0  0  0  0  0  0
   -4.0962   -4.1905    2.1570 C   0  0  0  0  0  0  0  0  0  0  0  0
   -2.7060   -3.9543    1.2151 S   0  0  0  0  0  0  0  0  0  0  0  0
   -3.4827   -4.1869   -0.2415 C   0  0  0  0  0  0  0  0  0  0  0  0
   -3.1653   -3.9540   -1.5751 C   0  0  0  0  0  0  0  0  0  0  0  0
   -2.2009   -3.1814   -2.1423 N   0  0  0  0  0  0  0  0  0  0  0  0
   -2.6877   -2.8972   -3.4001 C   0  0  0  0  0  0  0  0  0  0  0  0
   -2.2055   -2.0210   -4.4285 C   0  0  0  0  0  0  0  0  0  0  0  0
   -0.9580   -1.4824   -4.6613 N   0  0  0  0  0  0  0  0  0  0  0  0
   -1.1203   -0.7813   -5.8088 C   0  0  0  0  0  0  0  0  0  0  0  0
   -0.2390   -0.1663   -6.6756 C   0  0  0  0  0  0  0  0  0  0  0  0
    1.3592    0.2860   -6.6276 S   0  0  0  0  0  0  0  0  0  0  0  0
    0.3565   -1.9158   -4.1659 C   0  0  0  0  0  0  0  0  0  0  0  0
    1.0682   -0.7926   -3.3929 C   0  0  0  0  0  0  0  0  0  0  0  0
   -1.1954   -2.4489   -1.3619 C   0  0  0  0  0  0  0  0  0  0  0  0
   -0.0258   -3.3598   -0.9698 C   0  0  0  0  0  0  0  0  0  0  0  0
   -4.1163   -3.7892    3.5644 C   0  0  0  0  0  0  0  0  0  0  0  0
   -3.6556   -2.5517    3.9896 C   0  0  0  0  0  0  0  0  0  0  0  0
   -3.3636   -2.5086    5.3577 C   0  0  0  0  0  0  0  0  0  0  0  0
   -2.7423   -1.4418    6.0206 C   0  0  0  0  0  0  0  0  0  0  0  0
   -2.3246   -0.2158    5.3138 C   0  0  0  0  0  0  0  0  0  0  0  0
   -1.0059    0.1801    5.1084 C   0  0  0  0  0  0  0  0  0  0  0  0
   -0.8922    1.3528    4.3483 C   0  0  0  0  0  0  0  0  0  0  0  0
    0.4310    1.9067    3.9104 C   0  0  0  0  0  0  0  0  0  0  0  0
    0.8546    1.2860    2.5819 C   0  0  0  0  0  0  0  0  0  0  0  0
   -2.1267    1.8628    3.9480 C   0  0  0  0  0  0  0  0  0  0  0  0
   -2.3932    3.2592    2.9180 Cl  0  0  0  0  0  0  0  0  0  0  0  0
   -3.3509    0.8771    4.5434 S   0  0  0  0  0  0  0  0  0  0  0  0
   -2.3671   -1.6654    7.3494 C   0  0  0  0  0  0  0  0  0  0  0  0
   -2.5694   -2.8775    8.0185 C   0  0  0  0  0  0  0  0  0  0  0  0
   -3.2099   -3.9509    7.3550 C   0  0  0  0  0  0  0  0  0  0  0  0
   -3.3954   -5.2705    7.9866 C   0  0  0  0  0  0  0  0  0  0  0  0
   -4.5724   -6.0096    7.9824 C   0  0  0  0  0  0  0  0  0  0  0  0
   -4.4245   -7.3019    8.5073 C   0  0  0  0  0  0  0  0  0  0  0  0
   -5.5477   -8.3047    8.5340 C   0  0  0  0  0  0  0  0  0  0  0  0
   -5.7723   -8.9018    7.1464 C   0  0  0  0  0  0  0  0  0  0  0  0
   -3.1180   -7.5801    8.9054 C   0  0  0  0  0  0  0  0  0  0  0  0
   -2.1608   -6.2308    8.6105 S   0  0  0  0  0  0  0  0  0  0  0  0
   -2.5110   -9.1045    9.5341 Cl  0  0  0  0  0  0  0  0  0  0  0  0
   -3.5980   -3.7232    6.0160 C   0  0  0  0  0  0  0  0  0  0  0  0
   -4.1339   -4.8475    4.8789 S   0  0  0  0  0  0  0  0  0  0  0  0
   -2.0167   -2.8817    9.3191 C   0  0  0  0  0  0  0  0  0  0  0  0
   -1.4231   -1.6646    9.6658 C   0  0  0  0  0  0  0  0  0  0  0  0
   -1.5212   -0.6232    8.3382 S   0  0  0  0  0  0  0  0  0  0  0  0
   -0.5269   -1.4252   10.8137 C   0  0  0  0  0  0  0  0  0  0  0  0
   -0.2479   -0.1742   11.2300 C   0  0  0  0  0  0  0  0  0  0  0  0
   -1.1376    0.9616   10.9623 C   0  0  0  0  0  0  0  0  0  0  0  0
   -2.3885    0.9518   11.0986 O   0  0  0  0  0  0  0  0  0  0  0  0
   -0.3657    2.0488   10.4052 C   0  0  0  0  0  0  0  0  0  0  0  0
   -0.8780    3.0524    9.5537 C   0  0  0  0  0  0  0  0  0  0  0  0
    0.0805    3.6491    8.7555 C   0  0  0  0  0  0  0  0  0  0  0  0
    1.4693    3.3057    8.8060 C   0  0  0  0  0  0  0  0  0  0  0  0
    1.9824    2.3435    9.6621 C   0  0  0  0  0  0  0  0  0  0  0  0
    1.0088    1.7006   10.4731 C   0  0  0  0  0  0  0  0  0  0  0  0
    1.1266    0.3886   11.1634 C   0  0  0  0  0  0  0  0  0  0  0  0
    2.2435   -0.1302   11.7264 C   0  0  0  0  0  0  0  0  0  0  0  0
    2.2165   -1.3933   12.4195 C   0  0  0  0  0  0  0  0  0  0  0  0
    2.1981   -2.4089   12.9727 N   0  0  0  0  0  0  0  0  0  0  0  0
    3.4642    0.6288   11.8326 C   0  0  0  0  0  0  0  0  0  0  0  0
    4.4365    1.2405   11.9527 N   0  0  0  0  0  0  0  0  0  0  0  0
    1.7450    4.1989    7.6331 C   0  0  0  0  0  0  0  0  0  0  0  0
    2.4357    5.5704    7.8902 C   0  0  0  0  0  0  0  0  0  0  0  0
    2.0640    6.0909    9.2595 C   0  0  0  0  0  0  0  0  0  0  0  0
    0.7672    6.4020    9.2075 C   0  0  0  0  0  0  0  0  0  0  0  0
    0.3004    6.0850    7.8071 C   0  0  0  0  0  0  0  0  0  0  0  0
    1.5488    6.4697    7.0383 C   0  0  0  0  0  0  0  0  0  0  0  0
    0.3193    4.5427    7.5792 C   0  0  0  0  0  0  0  0  0  0  0  0
    7.1054    2.8127   -8.9447 H   0  0  0  0  0  0  0  0  0  0  0  0
    9.0602    5.1887   -4.4847 H   0  0  0  0  0  0  0  0  0  0  0  0
    5.0182    2.4946   -2.9223 H   0  0  0  0  0  0  0  0  0  0  0  0
    6.8476    3.8215   -0.2700 H   0  0  0  0  0  0  0  0  0  0  0  0
    4.4987    5.2313   -0.7220 H   0  0  0  0  0  0  0  0  0  0  0  0
    5.5864    6.3789    1.4112 H   0  0  0  0  0  0  0  0  0  0  0  0
    7.6275    7.8028    0.6222 H   0  0  0  0  0  0  0  0  0  0  0  0
    7.8563    7.5464   -2.0130 H   0  0  0  0  0  0  0  0  0  0  0  0
    5.2166    7.6079   -1.6775 H   0  0  0  0  0  0  0  0  0  0  0  0
    5.6359    6.3307   -2.8870 H   0  0  0  0  0  0  0  0  0  0  0  0
    8.7256    5.1164   -0.9906 H   0  0  0  0  0  0  0  0  0  0  0  0
    4.0636   -2.4756  -12.0695 H   0  0  0  0  0  0  0  0  0  0  0  0
    5.7814   -1.9549  -12.1789 H   0  0  0  0  0  0  0  0  0  0  0  0
    5.5026   -3.9815  -10.7270 H   0  0  0  0  0  0  0  0  0  0  0  0
    6.1502   -2.5828   -9.7914 H   0  0  0  0  0  0  0  0  0  0  0  0
    4.4091   -3.0497   -9.6319 H   0  0  0  0  0  0  0  0  0  0  0  0
   -1.3358   -0.7625  -10.5431 H   0  0  0  0  0  0  0  0  0  0  0  0
   -1.8672   -0.2635  -12.8866 H   0  0  0  0  0  0  0  0  0  0  0  0
   -1.0342    1.8022  -13.9458 H   0  0  0  0  0  0  0  0  0  0  0  0
    0.6845    3.6028  -13.8779 H   0  0  0  0  0  0  0  0  0  0  0  0
    1.4081    4.1127  -12.3235 H   0  0  0  0  0  0  0  0  0  0  0  0
   -0.7611    5.1444  -11.6235 H   0  0  0  0  0  0  0  0  0  0  0  0
   -1.5234    4.6034  -13.1772 H   0  0  0  0  0  0  0  0  0  0  0  0
   -0.1896    5.8160  -13.1957 H   0  0  0  0  0  0  0  0  0  0  0  0
    0.7816    2.9808  -10.2255 H   0  0  0  0  0  0  0  0  0  0  0  0
   -7.1413   -2.7248    0.3875 H   0  0  0  0  0  0  0  0  0  0  0  0
   -9.4152   -2.4226    1.2768 H   0  0  0  0  0  0  0  0  0  0  0  0
  -10.1807   -3.7318    3.2212 H   0  0  0  0  0  0  0  0  0  0  0  0
   -9.8890   -5.6229    4.7151 H   0  0  0  0  0  0  0  0  0  0  0  0
   -8.4735   -6.7032    4.5175 H   0  0  0  0  0  0  0  0  0  0  0  0
   -7.0496   -5.0651    5.7972 H   0  0  0  0  0  0  0  0  0  0  0  0
   -8.4527   -5.6528    6.7579 H   0  0  0  0  0  0  0  0  0  0  0  0
   -8.4961   -4.0039    6.0241 H   0  0  0  0  0  0  0  0  0  0  0  0
   -6.4062   -5.7983    3.3140 H   0  0  0  0  0  0  0  0  0  0  0  0
    0.2508   -2.8230   -3.5583 H   0  0  0  0  0  0  0  0  0  0  0  0
    0.9939   -2.2243   -5.0225 H   0  0  0  0  0  0  0  0  0  0  0  0
    1.8037   -0.2733   -4.0322 H   0  0  0  0  0  0  0  0  0  0  0  0
    0.3436   -0.0344   -3.0211 H   0  0  0  0  0  0  0  0  0  0  0  0
    1.6195   -1.2181   -2.5341 H   0  0  0  0  0  0  0  0  0  0  0  0
   -1.6557   -2.0232   -0.4463 H   0  0  0  0  0  0  0  0  0  0  0  0
   -0.8613   -1.5638   -1.9072 H   0  0  0  0  0  0  0  0  0  0  0  0
    0.8911   -2.7532   -0.8157 H   0  0  0  0  0  0  0  0  0  0  0  0
    0.1742   -4.1218   -1.7510 H   0  0  0  0  0  0  0  0  0  0  0  0
   -0.2394   -3.9000   -0.0285 H   0  0  0  0  0  0  0  0  0  0  0  0
   -3.4367   -1.7458    3.3004 H   0  0  0  0  0  0  0  0  0  0  0  0
   -0.1523   -0.3780    5.4706 H   0  0  0  0  0  0  0  0  0  0  0  0
    1.2027    1.6862    4.6809 H   0  0  0  0  0  0  0  0  0  0  0  0
    0.3740    3.0118    3.8047 H   0  0  0  0  0  0  0  0  0  0  0  0
    0.1171    1.5338    1.7903 H   0  0  0  0  0  0  0  0  0  0  0  0
    0.9288    0.1819    2.6786 H   0  0  0  0  0  0  0  0  0  0  0  0
    1.8481    1.6833    2.2834 H   0  0  0  0  0  0  0  0  0  0  0  0
   -5.5076   -5.6336    7.5872 H   0  0  0  0  0  0  0  0  0  0  0  0
   -6.4791   -7.8020    8.8707 H   0  0  0  0  0  0  0  0  0  0  0  0
   -5.3280   -9.1185    9.2561 H   0  0  0  0  0  0  0  0  0  0  0  0
   -6.0726   -8.1060    6.4340 H   0  0  0  0  0  0  0  0  0  0  0  0
   -4.8508   -9.3988    6.7784 H   0  0  0  0  0  0  0  0  0  0  0  0
   -6.5839   -9.6535    7.1935 H   0  0  0  0  0  0  0  0  0  0  0  0
   -2.0140   -3.7378    9.9757 H   0  0  0  0  0  0  0  0  0  0  0  0
    0.1638   -2.2258   11.0243 H   0  0  0  0  0  0  0  0  0  0  0  0
   -1.9372    3.2347    9.4217 H   0  0  0  0  0  0  0  0  0  0  0  0
    3.0109    2.0193    9.5895 H   0  0  0  0  0  0  0  0  0  0  0  0
    2.0995    3.6590    6.7274 H   0  0  0  0  0  0  0  0  0  0  0  0
    3.5223    5.6083    7.6592 H   0  0  0  0  0  0  0  0  0  0  0  0
    2.7268    6.2764   10.0973 H   0  0  0  0  0  0  0  0  0  0  0  0
    0.1949    6.8684   10.0024 H   0  0  0  0  0  0  0  0  0  0  0  0
   -0.6338    6.5963    7.4966 H   0  0  0  0  0  0  0  0  0  0  0  0
    1.5239    6.1705    5.9611 H   0  0  0  0  0  0  0  0  0  0  0  0
    1.8062    7.5527    7.1156 H   0  0  0  0  0  0  0  0  0  0  0  0
   -0.1880    4.1991    6.6493 H   0  0  0  0  0  0  0  0  0  0  0  0
  1  2  2  3
  2  3  1  0
  3  4  2  0
  3  5  1  0
  5  6  2  0
  6  7  1  0
  7  8  2  0
  8  9  1  0
  9 10  2  0
 10 11  1  0
 11 12  2  3
 12 13  1  0
 13 14  3  0
 12 15  1  0
 15 16  3  0
  8 17  1  0
 17 18  1  0
 18 19  1  0
 19 20  2  0
 20 21  1  0
 21 22  1  0
 21 23  1  0
  1 24  1  0
 24 25  1  0
 25 26  1  0
 26 27  2  0
 27 28  1  0
 28 29  2  0
 28 30  1  0
 30 31  1  0
 31 32  1  0
 30 33  1  0
 33 34  2  0
 33 35  1  0
 26 36  1  0
 36 37  2  0
 37 38  1  0
 38 39  2  0
 39 40  1  0
 40 41  2  0
 41 42  1  0
 42 43  1  0
 43 44  1  0
 42 45  2  0
 37 46  1  0
 46 47  1  0
 47 48  1  0
 48 49  1  0
 49 50  1  0
 50 51  1  0
 51 52  2  0
 52 53  1  0
 53 54  1  0
 51 55  1  0
 55 56  1  0
 56 57  1  0
 57 58  1  0
 58 59  1  0
 59 60  1  0
 60 61  2  0
 61 62  1  0
 62 63  2  0
 63 64  1  0
 64 65  1  0
 65 66  1  0
 64 67  2  0
 59 68  2  0
 68 69  1  0
 69 70  1  0
 70 71  1  0
 71 72  1  0
 72 73  1  0
 73 74  1  0
 74 75  1  0
 75 76  1  0
 76 77  1  0
 77 78  1  0
 75 79  1  0
 79 80  1  0
 72 81  1  0
 81 82  1  0
 68 83  1  0
 83 84  2  0
 84 85  1  0
 85 86  2  0
 86 87  1  0
 87 88  2  0
 88 89  1  0
 89 90  1  0
 90 91  1  0
 89 92  2  0
 92 93  1  0
 92 94  1  0
 86 95  1  0
 95 96  2  0
 96 97  1  0
 97 98  1  0
 98 99  2  0
 99100  1  0
100101  1  0
101102  1  0
100103  2  0
103104  1  0
103105  1  0
 97106  2  0
106107  1  0
 96108  1  0
108109  2  0
109110  1  0
109111  1  0
111112  2  3
112113  1  0
113114  2  0
113115  1  0
115116  2  0
116117  1  0
117118  2  0
118119  1  0
119120  2  0
120121  1  0
121122  2  3
122123  1  0
123124  3  0
122125  1  0
125126  3  0
118127  1  0
127128  1  0
128129  1  0
129130  2  0
130131  1  0
131132  1  0
131133  1  0
 11  2  1  0
 23 17  1  0
 35 24  2  0
 78 36  1  0
107 83  1  0
121112  1  0
133127  1  0
 10  5  1  0
 22 18  1  0
 35 27  1  0
 45 38  1  0
 77 46  2  0
106 85  1  0
120115  1  0
132128  1  0
 23  7  1  0
 76 48  2  0
 94 87  1  0
110 95  1  0
133117  1  0
 74 49  2  0
104 98  1  0
 54 50  2  0
 73 55  2  0
 71 56  2  0
 70 58  2  0
 67 60  1  0
  1134  1  0
  6135  1  0
  9136  1  0
 17137  1  0
 18138  1  0
 19139  1  0
 20140  1  0
 21141  1  0
 22142  1  0
 22143  1  0
 23144  1  0
 31145  1  0
 31146  1  0
 32147  1  0
 32148  1  0
 32149  1  0
 39150  1  0
 40151  1  0
 41152  1  0
 43153  1  0
 43154  1  0
 44155  1  0
 44156  1  0
 44157  1  0
 45158  1  0
 61159  1  0
 62160  1  0
 63161  1  0
 65162  1  0
 65163  1  0
 66164  1  0
 66165  1  0
 66166  1  0
 67167  1  0
 79168  1  0
 79169  1  0
 80170  1  0
 80171  1  0
 80172  1  0
 81173  1  0
 81174  1  0
 82175  1  0
 82176  1  0
 82177  1  0
 84178  1  0
 88179  1  0
 90180  1  0
 90181  1  0
 91182  1  0
 91183  1  0
 91184  1  0
 99185  1  0
101186  1  0
101187  1  0
102188  1  0
102189  1  0
102190  1  0
108191  1  0
111192  1  0
116193  1  0
119194  1  0
127195  1  0
128196  1  0
129197  1  0
130198  1  0
131199  1  0
132200  1  0
132201  1  0
133202  1  0
M  END

