
     RDKit          3D

239268  0  0  0  0  0  0  0  0999 V2000
    7.9254   -0.6604    4.4363 C   0  0  0  0  0  0  0  0  0  0  0  0
    8.4873    0.5252    4.1667 C   0  0  0  0  0  0  0  0  0  0  0  0
    8.3936    1.6543    5.0834 C   0  0  0  0  0  0  0  0  0  0  0  0
    8.1716    1.5911    6.3152 O   0  0  0  0  0  0  0  0  0  0  0  0
    8.2482    2.8499    4.2811 C   0  0  0  0  0  0  0  0  0  0  0  0
    7.8796    4.1499    4.7141 C   0  0  0  0  0  0  0  0  0  0  0  0
    7.4208    4.9646    3.6935 C   0  0  0  0  0  0  0  0  0  0  0  0
    7.2578    4.4978    2.3311 C   0  0  0  0  0  0  0  0  0  0  0  0
    7.6728    3.2398    1.8959 C   0  0  0  0  0  0  0  0  0  0  0  0
    8.2517    2.4648    2.9074 C   0  0  0  0  0  0  0  0  0  0  0  0
    8.7543    1.0656    2.7983 C   0  0  0  0  0  0  0  0  0  0  0  0
    9.9692    0.8334    2.2560 C   0  0  0  0  0  0  0  0  0  0  0  0
   10.2805    1.6272    1.0635 C   0  0  0  0  0  0  0  0  0  0  0  0
   10.5599    2.2320    0.1138 N   0  0  0  0  0  0  0  0  0  0  0  0
   10.5118   -0.5025    2.3589 C   0  0  0  0  0  0  0  0  0  0  0  0
   10.7770   -1.6101    2.5839 N   0  0  0  0  0  0  0  0  0  0  0  0
    6.5268    5.7640    1.9798 C   0  0  0  0  0  0  0  0  0  0  0  0
    4.9566    5.7056    1.8774 C   0  0  0  0  0  0  0  0  0  0  0  0
    4.3847    4.6963    2.8425 C   0  0  0  0  0  0  0  0  0  0  0  0
    4.5735    5.1874    4.0701 C   0  0  0  0  0  0  0  0  0  0  0  0
    5.3147    6.4957    3.8996 C   0  0  0  0  0  0  0  0  0  0  0  0
    4.6267    6.9767    2.6392 C   0  0  0  0  0  0  0  0  0  0  0  0
    6.7462    6.2436    3.3471 C   0  0  0  0  0  0  0  0  0  0  0  0
    7.6138   -1.7115    3.4305 C   0  0  0  0  0  0  0  0  0  0  0  0
    7.5066   -1.5996    1.7320 S   0  0  0  0  0  0  0  0  0  0  0  0
    6.9726   -3.1732    1.5059 C   0  0  0  0  0  0  0  0  0  0  0  0
    6.7301   -3.9283    0.2661 C   0  0  0  0  0  0  0  0  0  0  0  0
    6.4918   -5.2780    0.3607 C   0  0  0  0  0  0  0  0  0  0  0  0
    6.5614   -5.9033    1.6155 O   0  0  0  0  0  0  0  0  0  0  0  0
    6.1799   -5.1642    2.8094 C   0  0  0  0  0  0  0  0  0  0  0  0
    4.6470   -5.0016    2.7891 C   0  0  0  0  0  0  0  0  0  0  0  0
    3.9911   -3.9221    3.4467 C   0  0  0  0  0  0  0  0  0  0  0  0
    2.6085   -3.7376    3.3076 C   0  0  0  0  0  0  0  0  0  0  0  0
    1.8455   -4.6209    2.5281 C   0  0  0  0  0  0  0  0  0  0  0  0
    0.3697   -4.4451    2.3815 C   0  0  0  0  0  0  0  0  0  0  0  0
   -0.3888   -5.4196    3.2753 C   0  0  0  0  0  0  0  0  0  0  0  0
    2.4806   -5.7333    1.9427 C   0  0  0  0  0  0  0  0  0  0  0  0
    3.8476   -5.9274    2.0928 C   0  0  0  0  0  0  0  0  0  0  0  0
    6.6696   -5.9074    4.0472 C   0  0  0  0  0  0  0  0  0  0  0  0
    5.7812   -6.3708    5.0512 C   0  0  0  0  0  0  0  0  0  0  0  0
    6.2673   -6.7756    6.2993 C   0  0  0  0  0  0  0  0  0  0  0  0
    7.6432   -6.7356    6.5672 C   0  0  0  0  0  0  0  0  0  0  0  0
    8.1304   -6.9643    7.9727 C   0  0  0  0  0  0  0  0  0  0  0  0
    7.8722   -5.7211    8.8237 C   0  0  0  0  0  0  0  0  0  0  0  0
    8.5392   -6.3565    5.5631 C   0  0  0  0  0  0  0  0  0  0  0  0
    8.0573   -5.9864    4.2969 C   0  0  0  0  0  0  0  0  0  0  0  0
    6.8184   -3.7936    2.7314 C   0  0  0  0  0  0  0  0  0  0  0  0
    7.1923   -2.9672    3.8155 C   0  0  0  0  0  0  0  0  0  0  0  0
    5.9394   -5.8595   -0.8024 C   0  0  0  0  0  0  0  0  0  0  0  0
    5.6360   -4.9013   -1.7730 C   0  0  0  0  0  0  0  0  0  0  0  0
    6.1394   -3.3768   -1.2007 S   0  0  0  0  0  0  0  0  0  0  0  0
    4.5461   -5.0373   -2.7886 C   0  0  0  0  0  0  0  0  0  0  0  0
    4.1675   -6.1602   -3.5758 C   0  0  0  0  0  0  0  0  0  0  0  0
    4.8976   -7.4324   -3.6481 C   0  0  0  0  0  0  0  0  0  0  0  0
    4.3951   -8.5454   -2.9653 C   0  0  0  0  0  0  0  0  0  0  0  0
    5.0505   -9.7764   -3.0368 C   0  0  0  0  0  0  0  0  0  0  0  0
    6.1989   -9.9127   -3.8231 C   0  0  0  0  0  0  0  0  0  0  0  0
    6.6959   -8.8099   -4.5407 C   0  0  0  0  0  0  0  0  0  0  0  0
    7.9207   -8.9813   -5.4013 C   0  0  0  0  0  0  0  0  0  0  0  0
    9.1742   -8.5395   -4.6387 C   0  0  0  0  0  0  0  0  0  0  0  0
    6.0584   -7.5649   -4.4335 C   0  0  0  0  0  0  0  0  0  0  0  0
    2.9538   -5.9275   -4.2438 C   0  0  0  0  0  0  0  0  0  0  0  0
    1.8718   -6.8496   -5.2172 S   0  0  0  0  0  0  0  0  0  0  0  0
    0.7327   -5.5632   -5.2824 C   0  0  0  0  0  0  0  0  0  0  0  0
   -0.6143   -5.2963   -5.5305 C   0  0  0  0  0  0  0  0  0  0  0  0
   -1.6652   -6.0262   -6.1127 C   0  0  0  0  0  0  0  0  0  0  0  0
   -2.9960   -5.4711   -6.0986 C   0  0  0  0  0  0  0  0  0  0  0  0
   -3.9731   -6.2157   -6.6825 N   0  0  0  0  0  0  0  0  0  0  0  0
   -3.0841   -7.5327   -7.1671 S   0  0  0  0  0  0  0  0  0  0  0  0
   -1.5205   -7.2376   -6.6915 N   0  0  0  0  0  0  0  0  0  0  0  0
   -3.2026   -4.2046   -5.5332 C   0  0  0  0  0  0  0  0  0  0  0  0
   -4.2991   -3.3633   -5.4076 C   0  0  0  0  0  0  0  0  0  0  0  0
   -5.9852   -3.2535   -5.6829 S   0  0  0  0  0  0  0  0  0  0  0  0
   -6.0476   -1.6451   -5.0568 C   0  0  0  0  0  0  0  0  0  0  0  0
   -7.0522   -0.7136   -4.7559 C   0  0  0  0  0  0  0  0  0  0  0  0
   -8.4792   -0.9466   -5.0076 C   0  0  0  0  0  0  0  0  0  0  0  0
   -9.1992   -0.0960   -5.8593 C   0  0  0  0  0  0  0  0  0  0  0  0
  -10.5466   -0.3286   -6.1162 C   0  0  0  0  0  0  0  0  0  0  0  0
  -11.2019   -1.4084   -5.5240 C   0  0  0  0  0  0  0  0  0  0  0  0
  -10.4995   -2.2545   -4.6325 C   0  0  0  0  0  0  0  0  0  0  0  0
  -11.2235   -3.3683   -3.9022 C   0  0  0  0  0  0  0  0  0  0  0  0
  -11.8783   -2.8161   -2.6386 C   0  0  0  0  0  0  0  0  0  0  0  0
   -9.1383   -2.0141   -4.3852 C   0  0  0  0  0  0  0  0  0  0  0  0
   -6.5116    0.4347   -4.1448 C   0  0  0  0  0  0  0  0  0  0  0  0
   -4.8316    0.2780   -3.9755 S   0  0  0  0  0  0  0  0  0  0  0  0
   -4.8033   -1.2388   -4.6951 C   0  0  0  0  0  0  0  0  0  0  0  0
   -3.8413   -2.2048   -4.8690 C   0  0  0  0  0  0  0  0  0  0  0  0
   -2.5127   -2.2067   -4.6291 N   0  0  0  0  0  0  0  0  0  0  0  0
   -2.1375   -3.4711   -4.9898 C   0  0  0  0  0  0  0  0  0  0  0  0
   -0.8590   -4.0697   -4.9053 C   0  0  0  0  0  0  0  0  0  0  0  0
    0.1960   -3.6681   -4.1665 N   0  0  0  0  0  0  0  0  0  0  0  0
    1.1800   -4.5091   -4.5350 C   0  0  0  0  0  0  0  0  0  0  0  0
    2.4241   -4.7081   -3.9803 C   0  0  0  0  0  0  0  0  0  0  0  0
    3.3793   -3.8158   -2.9311 S   0  0  0  0  0  0  0  0  0  0  0  0
    0.0886   -3.1306   -2.7977 C   0  0  0  0  0  0  0  0  0  0  0  0
    0.1692   -4.2284   -1.7179 C   0  0  0  0  0  0  0  0  0  0  0  0
   -1.6868   -0.9893   -4.4987 C   0  0  0  0  0  0  0  0  0  0  0  0
   -1.7961   -0.3575   -3.0971 C   0  0  0  0  0  0  0  0  0  0  0  0
   -7.2372    1.4896   -3.4157 C   0  0  0  0  0  0  0  0  0  0  0  0
   -7.4095    3.0653   -4.0017 S   0  0  0  0  0  0  0  0  0  0  0  0
   -7.6095    3.7886   -2.5004 C   0  0  0  0  0  0  0  0  0  0  0  0
   -7.7660    5.1962   -2.1437 C   0  0  0  0  0  0  0  0  0  0  0  0
   -7.9712    5.5334   -0.8337 C   0  0  0  0  0  0  0  0  0  0  0  0
   -8.0609    4.5213    0.1398 O   0  0  0  0  0  0  0  0  0  0  0  0
   -7.3280    3.2805   -0.0422 C   0  0  0  0  0  0  0  0  0  0  0  0
   -7.8477    2.2289    0.9277 C   0  0  0  0  0  0  0  0  0  0  0  0
   -9.1865    2.2244    1.3615 C   0  0  0  0  0  0  0  0  0  0  0  0
   -9.6497    1.2762    2.2901 C   0  0  0  0  0  0  0  0  0  0  0  0
   -8.7715    0.3055    2.7988 C   0  0  0  0  0  0  0  0  0  0  0  0
   -9.2174   -0.6627    3.8635 C   0  0  0  0  0  0  0  0  0  0  0  0
   -9.2516    0.0355    5.2179 C   0  0  0  0  0  0  0  0  0  0  0  0
   -7.4497    0.2561    2.3513 C   0  0  0  0  0  0  0  0  0  0  0  0
   -6.9991    1.1858    1.4065 C   0  0  0  0  0  0  0  0  0  0  0  0
   -5.8709    3.6173    0.3305 C   0  0  0  0  0  0  0  0  0  0  0  0
   -4.7566    3.0089   -0.3080 C   0  0  0  0  0  0  0  0  0  0  0  0
   -3.4616    3.2140    0.1707 C   0  0  0  0  0  0  0  0  0  0  0  0
   -3.2317    4.0368    1.2854 C   0  0  0  0  0  0  0  0  0  0  0  0
   -1.8493    4.2273    1.8226 C   0  0  0  0  0  0  0  0  0  0  0  0
   -1.6001    3.3359    3.0301 C   0  0  0  0  0  0  0  0  0  0  0  0
   -4.3178    4.6657    1.9014 C   0  0  0  0  0  0  0  0  0  0  0  0
   -5.6199    4.4463    1.4401 C   0  0  0  0  0  0  0  0  0  0  0  0
   -7.4950    2.8333   -1.4978 C   0  0  0  0  0  0  0  0  0  0  0  0
   -7.2868    1.5400   -2.0146 C   0  0  0  0  0  0  0  0  0  0  0  0
   -7.8800    6.9096   -0.5639 C   0  0  0  0  0  0  0  0  0  0  0  0
   -7.5219    7.6281   -1.6956 C   0  0  0  0  0  0  0  0  0  0  0  0
   -7.3982    6.5783   -3.0203 S   0  0  0  0  0  0  0  0  0  0  0  0
   -6.8681    8.9568   -1.6730 C   0  0  0  0  0  0  0  0  0  0  0  0
   -5.6127    9.1213   -1.2203 C   0  0  0  0  0  0  0  0  0  0  0  0
   -4.7113    8.0305   -0.8071 C   0  0  0  0  0  0  0  0  0  0  0  0
   -4.9941    6.8188   -0.6520 O   0  0  0  0  0  0  0  0  0  0  0  0
   -3.3589    8.5299   -0.7396 C   0  0  0  0  0  0  0  0  0  0  0  0
   -2.1927    7.7597   -0.4863 C   0  0  0  0  0  0  0  0  0  0  0  0
   -1.0240    8.5017   -0.5481 C   0  0  0  0  0  0  0  0  0  0  0  0
   -0.9991    9.9043   -0.8209 C   0  0  0  0  0  0  0  0  0  0  0  0
   -2.1257   10.6650   -1.0914 C   0  0  0  0  0  0  0  0  0  0  0  0
   -3.3476    9.9263   -1.0617 C   0  0  0  0  0  0  0  0  0  0  0  0
   -4.7627   10.3628   -1.3211 C   0  0  0  0  0  0  0  0  0  0  0  0
   -5.1835   11.6416   -1.5421 C   0  0  0  0  0  0  0  0  0  0  0  0
   -6.5655   12.0114   -1.5271 C   0  0  0  0  0  0  0  0  0  0  0  0
   -7.6855   12.3375   -1.5073 N   0  0  0  0  0  0  0  0  0  0  0  0
   -4.2723   12.7358   -1.7626 C   0  0  0  0  0  0  0  0  0  0  0  0
   -3.5482   13.6329   -1.9453 N   0  0  0  0  0  0  0  0  0  0  0  0
    0.4755    9.9420   -0.6320 C   0  0  0  0  0  0  0  0  0  0  0  0
    1.0410   10.4972    0.7102 C   0  0  0  0  0  0  0  0  0  0  0  0
    0.1136   10.1906    1.8564 C   0  0  0  0  0  0  0  0  0  0  0  0
    0.1622    8.8682    2.0455 C   0  0  0  0  0  0  0  0  0  0  0  0
    1.1002    8.3261    0.9850 C   0  0  0  0  0  0  0  0  0  0  0  0
    2.1087    9.4627    0.9719 C   0  0  0  0  0  0  0  0  0  0  0  0
    0.4683    8.4923   -0.4188 C   0  0  0  0  0  0  0  0  0  0  0  0
    7.5909   -0.8600    5.4447 H   0  0  0  0  0  0  0  0  0  0  0  0
    7.8925    4.4582    5.7815 H   0  0  0  0  0  0  0  0  0  0  0  0
    7.5416    2.9261    0.8551 H   0  0  0  0  0  0  0  0  0  0  0  0
    7.0391    6.3593    1.1854 H   0  0  0  0  0  0  0  0  0  0  0  0
    4.5600    5.6390    0.8431 H   0  0  0  0  0  0  0  0  0  0  0  0
    3.8431    3.7730    2.6014 H   0  0  0  0  0  0  0  0  0  0  0  0
    4.2354    4.7230    4.9962 H   0  0  0  0  0  0  0  0  0  0  0  0
    5.2632    7.1878    4.7680 H   0  0  0  0  0  0  0  0  0  0  0  0
    5.0942    7.9105    2.2058 H   0  0  0  0  0  0  0  0  0  0  0  0
    3.5167    7.1727    2.7659 H   0  0  0  0  0  0  0  0  0  0  0  0
    7.4232    7.1117    3.3862 H   0  0  0  0  0  0  0  0  0  0  0  0
    4.5421   -3.2287    4.0711 H   0  0  0  0  0  0  0  0  0  0  0  0
    2.1255   -2.9005    3.8174 H   0  0  0  0  0  0  0  0  0  0  0  0
    0.0910   -4.6365    1.3169 H   0  0  0  0  0  0  0  0  0  0  0  0
    0.0695   -3.4033    2.6187 H   0  0  0  0  0  0  0  0  0  0  0  0
   -0.1736   -5.2095    4.3472 H   0  0  0  0  0  0  0  0  0  0  0  0
   -0.1028   -6.4696    3.0650 H   0  0  0  0  0  0  0  0  0  0  0  0
   -1.4805   -5.3149    3.1028 H   0  0  0  0  0  0  0  0  0  0  0  0
    1.9125   -6.4588    1.3703 H   0  0  0  0  0  0  0  0  0  0  0  0
    4.2734   -6.8200    1.6496 H   0  0  0  0  0  0  0  0  0  0  0  0
    4.7070   -6.3205    4.9420 H   0  0  0  0  0  0  0  0  0  0  0  0
    5.5643   -7.0769    7.0676 H   0  0  0  0  0  0  0  0  0  0  0  0
    7.6137   -7.8435    8.4086 H   0  0  0  0  0  0  0  0  0  0  0  0
    9.2184   -7.1934    7.9664 H   0  0  0  0  0  0  0  0  0  0  0  0
    8.3728   -5.8256    9.8099 H   0  0  0  0  0  0  0  0  0  0  0  0
    6.7770   -5.5974    8.9841 H   0  0  0  0  0  0  0  0  0  0  0  0
    8.2641   -4.8046    8.3220 H   0  0  0  0  0  0  0  0  0  0  0  0
    9.6099   -6.3090    5.7437 H   0  0  0  0  0  0  0  0  0  0  0  0
    8.7679   -5.6167    3.5664 H   0  0  0  0  0  0  0  0  0  0  0  0
    7.1387   -3.2860    4.8512 H   0  0  0  0  0  0  0  0  0  0  0  0
    5.5452   -6.8620   -0.8036 H   0  0  0  0  0  0  0  0  0  0  0  0
    3.4887   -8.4629   -2.3690 H   0  0  0  0  0  0  0  0  0  0  0  0
    4.6629  -10.6460   -2.4973 H   0  0  0  0  0  0  0  0  0  0  0  0
    6.6991  -10.8743   -3.8636 H   0  0  0  0  0  0  0  0  0  0  0  0
    7.8303   -8.3888   -6.3410 H   0  0  0  0  0  0  0  0  0  0  0  0
    8.0424  -10.0467   -5.7074 H   0  0  0  0  0  0  0  0  0  0  0  0
   10.0791   -9.0525   -5.0570 H   0  0  0  0  0  0  0  0  0  0  0  0
    9.3104   -7.4323   -4.7332 H   0  0  0  0  0  0  0  0  0  0  0  0
    9.1018   -8.7984   -3.5488 H   0  0  0  0  0  0  0  0  0  0  0  0
    6.4377   -6.7034   -4.9771 H   0  0  0  0  0  0  0  0  0  0  0  0
   -8.7045    0.7327   -6.3491 H   0  0  0  0  0  0  0  0  0  0  0  0
  -11.1031    0.3141   -6.7882 H   0  0  0  0  0  0  0  0  0  0  0  0
  -12.2562   -1.5733   -5.6970 H   0  0  0  0  0  0  0  0  0  0  0  0
  -10.5103   -4.1769   -3.6286 H   0  0  0  0  0  0  0  0  0  0  0  0
  -11.9929   -3.8124   -4.5660 H   0  0  0  0  0  0  0  0  0  0  0  0
  -12.6034   -2.0169   -2.8960 H   0  0  0  0  0  0  0  0  0  0  0  0
  -12.4071   -3.6270   -2.1142 H   0  0  0  0  0  0  0  0  0  0  0  0
  -11.1022   -2.3954   -1.9666 H   0  0  0  0  0  0  0  0  0  0  0  0
   -8.6040   -2.6573   -3.6856 H   0  0  0  0  0  0  0  0  0  0  0  0
   -0.8968   -2.6665   -2.6457 H   0  0  0  0  0  0  0  0  0  0  0  0
    0.8667   -2.3459   -2.6261 H   0  0  0  0  0  0  0  0  0  0  0  0
    0.2176   -5.2551   -2.1410 H   0  0  0  0  0  0  0  0  0  0  0  0
   -0.7376   -4.1960   -1.0675 H   0  0  0  0  0  0  0  0  0  0  0  0
    1.0636   -4.0645   -1.0653 H   0  0  0  0  0  0  0  0  0  0  0  0
   -0.6155   -1.2151   -4.7216 H   0  0  0  0  0  0  0  0  0  0  0  0
   -2.0042   -0.2461   -5.2643 H   0  0  0  0  0  0  0  0  0  0  0  0
   -2.0592    0.7279   -3.1747 H   0  0  0  0  0  0  0  0  0  0  0  0
   -0.8327   -0.4189   -2.5625 H   0  0  0  0  0  0  0  0  0  0  0  0
   -2.5668   -0.8691   -2.4845 H   0  0  0  0  0  0  0  0  0  0  0  0
   -9.8817    2.9687    0.9913 H   0  0  0  0  0  0  0  0  0  0  0  0
  -10.6791    1.3166    2.6326 H   0  0  0  0  0  0  0  0  0  0  0  0
  -10.2219   -1.0522    3.6062 H   0  0  0  0  0  0  0  0  0  0  0  0
   -8.5133   -1.5288    3.9097 H   0  0  0  0  0  0  0  0  0  0  0  0
   -9.4986   -0.7154    5.9987 H   0  0  0  0  0  0  0  0  0  0  0  0
  -10.0255    0.8307    5.2110 H   0  0  0  0  0  0  0  0  0  0  0  0
   -8.2566    0.4740    5.4574 H   0  0  0  0  0  0  0  0  0  0  0  0
   -6.7430   -0.4812    2.7438 H   0  0  0  0  0  0  0  0  0  0  0  0
   -5.9688    1.0847    1.0925 H   0  0  0  0  0  0  0  0  0  0  0  0
   -4.8750    2.3101   -1.1168 H   0  0  0  0  0  0  0  0  0  0  0  0
   -2.6366    2.6664   -0.2870 H   0  0  0  0  0  0  0  0  0  0  0  0
   -1.0925    4.0098    1.0306 H   0  0  0  0  0  0  0  0  0  0  0  0
   -1.7115    5.2946    2.0999 H   0  0  0  0  0  0  0  0  0  0  0  0
   -2.3254    3.5578    3.8318 H   0  0  0  0  0  0  0  0  0  0  0  0
   -1.6879    2.2688    2.7454 H   0  0  0  0  0  0  0  0  0  0  0  0
   -0.5739    3.5102    3.4153 H   0  0  0  0  0  0  0  0  0  0  0  0
   -4.1720    5.3044    2.7699 H   0  0  0  0  0  0  0  0  0  0  0  0
   -6.4364    4.9024    2.0049 H   0  0  0  0  0  0  0  0  0  0  0  0
   -7.0270    0.7033   -1.3915 H   0  0  0  0  0  0  0  0  0  0  0  0
   -7.8490    7.3094    0.4449 H   0  0  0  0  0  0  0  0  0  0  0  0
   -7.3718    9.7241   -2.2026 H   0  0  0  0  0  0  0  0  0  0  0  0
   -2.2220    6.7004   -0.2173 H   0  0  0  0  0  0  0  0  0  0  0  0
   -2.0312   11.7344   -1.2945 H   0  0  0  0  0  0  0  0  0  0  0  0
    1.0090   10.2442   -1.5541 H   0  0  0  0  0  0  0  0  0  0  0  0
    1.3766   11.5526    0.6603 H   0  0  0  0  0  0  0  0  0  0  0  0
   -0.4831   10.8747    2.4421 H   0  0  0  0  0  0  0  0  0  0  0  0
   -0.3430    8.3030    2.8276 H   0  0  0  0  0  0  0  0  0  0  0  0
    1.5342    7.3227    1.2133 H   0  0  0  0  0  0  0  0  0  0  0  0
    2.6385    9.6215    1.9509 H   0  0  0  0  0  0  0  0  0  0  0  0
    2.8774    9.3762    0.1658 H   0  0  0  0  0  0  0  0  0  0  0  0
    0.9766    7.9208   -1.2278 H   0  0  0  0  0  0  0  0  0  0  0  0
  1  2  2  3
  2  3  1  0
  3  4  2  0
  3  5  1  0
  5  6  2  0
  6  7  1  0
  7  8  2  0
  8  9  1  0
  9 10  2  0
 10 11  1  0
 11 12  2  3
 12 13  1  0
 13 14  3  0
 12 15  1  0
 15 16  3  0
  8 17  1  0
 17 18  1  0
 18 19  1  0
 19 20  2  0
 20 21  1  0
 21 22  1  0
 21 23  1  0
  1 24  1  0
 24 25  1  0
 25 26  1  0
 26 27  1  0
 27 28  2  0
 28 29  1  0
 29 30  1  0
 30 31  1  0
 31 32  2  0
 32 33  1  0
 33 34  2  0
 34 35  1  0
 35 36  1  0
 34 37  1  0
 37 38  2  0
 30 39  1  0
 39 40  2  0
 40 41  1  0
 41 42  2  0
 42 43  1  0
 43 44  1  0
 42 45  1  0
 45 46  2  0
 30 47  1  0
 47 48  1  0
 28 49  1  0
 49 50  2  0
 50 51  1  0
 50 52  1  0
 52 53  2  0
 53 54  1  0
 54 55  2  0
 55 56  1  0
 56 57  2  0
 57 58  1  0
 58 59  1  0
 59 60  1  0
 58 61  2  0
 53 62  1  0
 62 63  1  0
 63 64  1  0
 64 65  1  0
 65 66  1  0
 66 67  1  0
 67 68  2  0
 68 69  1  0
 69 70  1  0
 67 71  1  0
 71 72  1  0
 72 73  1  0
 73 74  1  0
 74 75  1  0
 75 76  1  0
 76 77  2  0
 77 78  1  0
 78 79  2  0
 79 80  1  0
 80 81  1  0
 81 82  1  0
 80 83  2  0
 75 84  2  0
 84 85  1  0
 85 86  1  0
 86 87  1  0
 87 88  1  0
 88 89  1  0
 89 90  1  0
 90 91  1  0
 91 92  1  0
 92 93  1  0
 93 94  1  0
 91 95  1  0
 95 96  1  0
 88 97  1  0
 97 98  1  0
 84 99  1  0
 99100  1  0
100101  1  0
101102  1  0
102103  2  0
103104  1  0
104105  1  0
105106  1  0
106107  2  0
107108  1  0
108109  2  0
109110  1  0
110111  1  0
109112  1  0
112113  2  0
105114  1  0
114115  2  0
115116  1  0
116117  2  0
117118  1  0
118119  1  0
117120  1  0
120121  2  0
105122  1  0
122123  1  0
103124  1  0
124125  2  0
125126  1  0
125127  1  0
127128  2  3
128129  1  0
129130  2  0
129131  1  0
131132  2  0
132133  1  0
133134  2  0
134135  1  0
135136  2  0
136137  1  0
137138  2  3
138139  1  0
139140  3  0
138141  1  0
141142  3  0
134143  1  0
143144  1  0
144145  1  0
145146  2  0
146147  1  0
147148  1  0
147149  1  0
 11  2  1  0
 23 17  1  0
 48 24  2  0
 94 52  1  0
123 99  2  0
137128  1  0
149143  1  0
 10  5  1  0
 22 18  1  0
 47 26  2  0
 61 54  1  0
 93 62  2  0
122101  2  0
136131  1  0
148144  1  0
 23  7  1  0
 51 27  1  0
 92 64  2  0
126102  1  0
149133  1  0
 38 31  1  0
 46 39  1  0
 90 65  2  0
113106  1  0
121114  1  0
 70 66  2  0
 89 71  2  0
 87 72  2  0
 86 74  2  0
 83 76  1  0
  1150  1  0
  6151  1  0
  9152  1  0
 17153  1  0
 18154  1  0
 19155  1  0
 20156  1  0
 21157  1  0
 22158  1  0
 22159  1  0
 23160  1  0
 32161  1  0
 33162  1  0
 35163  1  0
 35164  1  0
 36165  1  0
 36166  1  0
 36167  1  0
 37168  1  0
 38169  1  0
 40170  1  0
 41171  1  0
 43172  1  0
 43173  1  0
 44174  1  0
 44175  1  0
 44176  1  0
 45177  1  0
 46178  1  0
 48179  1  0
 49180  1  0
 55181  1  0
 56182  1  0
 57183  1  0
 59184  1  0
 59185  1  0
 60186  1  0
 60187  1  0
 60188  1  0
 61189  1  0
 77190  1  0
 78191  1  0
 79192  1  0
 81193  1  0
 81194  1  0
 82195  1  0
 82196  1  0
 82197  1  0
 83198  1  0
 95199  1  0
 95200  1  0
 96201  1  0
 96202  1  0
 96203  1  0
 97204  1  0
 97205  1  0
 98206  1  0
 98207  1  0
 98208  1  0
107209  1  0
108210  1  0
110211  1  0
110212  1  0
111213  1  0
111214  1  0
111215  1  0
112216  1  0
113217  1  0
115218  1  0
116219  1  0
118220  1  0
118221  1  0
119222  1  0
119223  1  0
119224  1  0
120225  1  0
121226  1  0
123227  1  0
124228  1  0
127229  1  0
132230  1  0
135231  1  0
143232  1  0
144233  1  0
145234  1  0
146235  1  0
147236  1  0
148237  1  0
148238  1  0
149239  1  0
M  END

