
     RDKit          3D

244272  0  0  0  0  0  0  0  0999 V2000
    7.9705    5.7756    1.9487 C   0  0  0  0  0  0  0  0  0  0  0  0
    7.5650    5.4679    0.6383 C   0  0  0  0  0  0  0  0  0  0  0  0
    6.2230    5.3920    0.1670 C   0  0  0  0  0  0  0  0  0  0  0  0
    5.1912    5.3072    0.8557 O   0  0  0  0  0  0  0  0  0  0  0  0
    6.3285    5.4233   -1.2883 C   0  0  0  0  0  0  0  0  0  0  0  0
    5.2426    5.2097   -2.1925 C   0  0  0  0  0  0  0  0  0  0  0  0
    5.6182    5.0866   -3.5187 C   0  0  0  0  0  0  0  0  0  0  0  0
    6.8803    5.1734   -3.9603 C   0  0  0  0  0  0  0  0  0  0  0  0
    7.9254    5.3988   -3.0237 C   0  0  0  0  0  0  0  0  0  0  0  0
    7.5884    5.5132   -1.7219 C   0  0  0  0  0  0  0  0  0  0  0  0
    8.5124    5.5347   -0.3780 C   0  0  0  0  0  0  0  0  0  0  0  0
    9.6844    4.9870   -0.7617 C   0  0  0  0  0  0  0  0  0  0  0  0
   10.3536    4.0334   -0.2606 C   0  0  0  0  0  0  0  0  0  0  0  0
   11.0449    3.0868    0.2477 N   0  0  0  0  0  0  0  0  0  0  0  0
   10.3666    5.9632   -1.6849 C   0  0  0  0  0  0  0  0  0  0  0  0
   10.9492    6.7777   -2.4559 N   0  0  0  0  0  0  0  0  0  0  0  0
    6.5229    4.9632   -5.3543 C   0  0  0  0  0  0  0  0  0  0  0  0
    6.3285    6.1097   -6.2726 C   0  0  0  0  0  0  0  0  0  0  0  0
    5.5563    5.5610   -7.4370 C   0  0  0  0  0  0  0  0  0  0  0  0
    4.3082    5.3621   -7.0229 C   0  0  0  0  0  0  0  0  0  0  0  0
    4.2567    5.6858   -5.5653 C   0  0  0  0  0  0  0  0  0  0  0  0
    5.1862    6.8888   -5.5991 C   0  0  0  0  0  0  0  0  0  0  0  0
    5.0808    4.6980   -4.8598 C   0  0  0  0  0  0  0  0  0  0  0  0
    6.8374    6.0750    2.8252 C   0  0  0  0  0  0  0  0  0  0  0  0
    5.8511    7.0315    2.5752 C   0  0  0  0  0  0  0  0  0  0  0  0
    4.8168    7.1106    3.4127 C   0  0  0  0  0  0  0  0  0  0  0  0
    3.6568    7.8815    3.2360 C   0  0  0  0  0  0  0  0  0  0  0  0
    3.3313    8.7114    2.1254 C   0  0  0  0  0  0  0  0  0  0  0  0
    2.3696    9.7105    1.9544 C   0  0  0  0  0  0  0  0  0  0  0  0
    2.1544   10.1387    0.7267 C   0  0  0  0  0  0  0  0  0  0  0  0
    2.6399    9.8332   -0.4160 C   0  0  0  0  0  0  0  0  0  0  0  0
    2.5194   10.1995   -2.1340 S   0  0  0  0  0  0  0  0  0  0  0  0
    1.0507    9.3906   -2.8354 C   0  0  0  0  0  0  0  0  0  0  0  0
    1.0883    7.8895   -2.7369 C   0  0  0  0  0  0  0  0  0  0  0  0
    3.9240    8.4282    0.2744 Se  0  0  0  0  0  2  0  0  0  0  0  0
    2.5913    7.6926    4.1445 C   0  0  0  0  0  0  0  0  0  0  0  0
    2.5953    6.8365    5.1879 C   0  0  0  0  0  0  0  0  0  0  0  0
    3.7814    6.0673    5.3639 C   0  0  0  0  0  0  0  0  0  0  0  0
    3.9297    5.0825    6.4302 C   0  0  0  0  0  0  0  0  0  0  0  0
    3.3659    4.8055    7.6088 C   0  0  0  0  0  0  0  0  0  0  0  0
    3.6080    3.6439    8.2469 C   0  0  0  0  0  0  0  0  0  0  0  0
    4.3872    2.6800    7.8056 C   0  0  0  0  0  0  0  0  0  0  0  0
    4.8826    1.0492    8.2451 S   0  0  0  0  0  0  0  0  0  0  0  0
    3.7038   -0.1865    7.6100 C   0  0  0  0  0  0  0  0  0  0  0  0
    3.6104   -0.1782    6.1034 C   0  0  0  0  0  0  0  0  0  0  0  0
    4.9863    3.5047    6.1003 Se  0  0  0  0  0  2  0  0  0  0  0  0
    4.8013    6.2421    4.4745 C   0  0  0  0  0  0  0  0  0  0  0  0
    6.2653    5.3457    4.2309 S   0  0  0  0  0  0  0  0  0  0  0  0
    1.4066    6.5163    5.7490 C   0  0  0  0  0  0  0  0  0  0  0  0
    0.2591    7.1076    5.1697 C   0  0  0  0  0  0  0  0  0  0  0  0
    0.9021    8.0604    3.9467 S   0  0  0  0  0  0  0  0  0  0  0  0
   -1.0725    6.4811    5.3940 C   0  0  0  0  0  0  0  0  0  0  0  0
   -2.2890    6.6330    5.7561 C   0  0  0  0  0  0  0  0  0  0  0  0
   -2.8062    8.0155    5.8880 C   0  0  0  0  0  0  0  0  0  0  0  0
   -3.1083    8.6963    6.9919 C   0  0  0  0  0  0  0  0  0  0  0  0
   -3.6871    9.9812    6.8876 C   0  0  0  0  0  0  0  0  0  0  0  0
   -3.9499   10.5557    5.6761 C   0  0  0  0  0  0  0  0  0  0  0  0
   -3.6424    9.8633    4.5246 C   0  0  0  0  0  0  0  0  0  0  0  0
   -3.9380   10.4131    3.1823 C   0  0  0  0  0  0  0  0  0  0  0  0
   -5.2094    9.8523    2.5860 C   0  0  0  0  0  0  0  0  0  0  0  0
   -3.0804    8.6196    4.6535 C   0  0  0  0  0  0  0  0  0  0  0  0
   -3.1525    5.5072    5.7786 C   0  0  0  0  0  0  0  0  0  0  0  0
   -4.7950    5.0286    6.1763 S   0  0  0  0  0  0  0  0  0  0  0  0
   -4.6946    3.3378    5.8142 C   0  0  0  0  0  0  0  0  0  0  0  0
   -5.3346    2.1248    5.6873 C   0  0  0  0  0  0  0  0  0  0  0  0
   -6.6309    1.7272    5.9805 C   0  0  0  0  0  0  0  0  0  0  0  0
   -7.0198    0.4404    5.7558 C   0  0  0  0  0  0  0  0  0  0  0  0
   -8.2988    0.1626    6.0830 N   0  0  0  0  0  0  0  0  0  0  0  0
   -8.9139    1.5895    6.6641 S   0  0  0  0  0  0  0  0  0  0  0  0
   -7.5665    2.5499    6.4981 N   0  0  0  0  0  0  0  0  0  0  0  0
   -6.0793   -0.4375    5.2059 C   0  0  0  0  0  0  0  0  0  0  0  0
   -6.2662   -1.7163    4.6816 C   0  0  0  0  0  0  0  0  0  0  0  0
   -7.2642   -3.0799    4.3303 S   0  0  0  0  0  0  0  0  0  0  0  0
   -6.1570   -4.0617    3.3837 C   0  0  0  0  0  0  0  0  0  0  0  0
   -6.0904   -5.2204    2.5701 C   0  0  0  0  0  0  0  0  0  0  0  0
   -7.1861   -6.2068    2.5442 C   0  0  0  0  0  0  0  0  0  0  0  0
   -8.0363   -6.4914    1.5570 C   0  0  0  0  0  0  0  0  0  0  0  0
   -9.0210   -7.4614    1.7029 C   0  0  0  0  0  0  0  0  0  0  0  0
   -9.1488   -8.1682    2.8783 C   0  0  0  0  0  0  0  0  0  0  0  0
   -8.2847   -7.9151    3.9440 C   0  0  0  0  0  0  0  0  0  0  0  0
   -8.4565   -8.6984    5.1885 C   0  0  0  0  0  0  0  0  0  0  0  0
   -7.6139   -9.9604    5.2592 C   0  0  0  0  0  0  0  0  0  0  0  0
   -7.3267   -6.9456    3.7550 C   0  0  0  0  0  0  0  0  0  0  0  0
   -5.0010   -5.4421    1.8777 C   0  0  0  0  0  0  0  0  0  0  0  0
   -4.0112   -4.0792    2.3458 S   0  0  0  0  0  0  0  0  0  0  0  0
   -5.1088   -3.2845    3.4120 C   0  0  0  0  0  0  0  0  0  0  0  0
   -5.1317   -2.0672    4.0768 C   0  0  0  0  0  0  0  0  0  0  0  0
   -4.2062   -1.0286    4.2204 N   0  0  0  0  0  0  0  0  0  0  0  0
   -4.8056   -0.0387    4.9045 C   0  0  0  0  0  0  0  0  0  0  0  0
   -4.3700    1.2610    5.1546 C   0  0  0  0  0  0  0  0  0  0  0  0
   -3.2007    1.8879    4.9814 N   0  0  0  0  0  0  0  0  0  0  0  0
   -3.4374    3.1970    5.4096 C   0  0  0  0  0  0  0  0  0  0  0  0
   -2.6638    4.3566    5.4082 C   0  0  0  0  0  0  0  0  0  0  0  0
   -1.0201    4.7477    5.0262 S   0  0  0  0  0  0  0  0  0  0  0  0
   -1.9046    1.4096    4.5755 C   0  0  0  0  0  0  0  0  0  0  0  0
   -1.0740    0.9020    5.7370 C   0  0  0  0  0  0  0  0  0  0  0  0
   -2.9039   -1.0930    3.6237 C   0  0  0  0  0  0  0  0  0  0  0  0
   -2.8816   -0.6085    2.1650 C   0  0  0  0  0  0  0  0  0  0  0  0
   -4.4511   -6.1720    0.6815 C   0  0  0  0  0  0  0  0  0  0  0  0
   -3.1241   -6.0567    0.3174 C   0  0  0  0  0  0  0  0  0  0  0  0
   -2.7961   -6.2596   -0.9903 C   0  0  0  0  0  0  0  0  0  0  0  0
   -1.6301   -5.8130   -1.5602 C   0  0  0  0  0  0  0  0  0  0  0  0
   -0.3402   -5.4470   -0.9707 C   0  0  0  0  0  0  0  0  0  0  0  0
    0.5937   -6.0393   -0.2206 C   0  0  0  0  0  0  0  0  0  0  0  0
    1.7887   -5.4196   -0.0625 C   0  0  0  0  0  0  0  0  0  0  0  0
    1.9973   -4.2466   -0.6452 C   0  0  0  0  0  0  0  0  0  0  0  0
    3.1463   -3.3486   -0.8924 C   0  0  0  0  0  0  0  0  0  0  0  0
    4.3748   -3.5484   -1.0992 C   0  0  0  0  0  0  0  0  0  0  0  0
    5.1695   -4.7692   -1.1931 C   0  0  0  0  0  0  0  0  0  0  0  0
    6.5179   -4.8516   -1.4242 C   0  0  0  0  0  0  0  0  0  0  0  0
    7.0532   -6.0628   -1.5326 C   0  0  0  0  0  0  0  0  0  0  0  0
    6.2345   -7.1498   -1.3985 C   0  0  0  0  0  0  0  0  0  0  0  0
    6.7001   -8.8797   -1.5453 S   0  0  0  0  0  0  0  0  0  0  0  0
    5.3121   -9.8761   -0.9757 C   0  0  0  0  0  0  0  0  0  0  0  0
    4.0810   -9.6541   -1.8136 C   0  0  0  0  0  0  0  0  0  0  0  0
    4.7128   -6.4351   -1.1281 S   0  0  0  0  0  0  0  0  0  0  0  0
    0.4802   -3.9650   -1.4521 S   0  0  0  0  0  0  0  0  0  0  0  0
   -1.5544   -5.6988   -2.9795 C   0  0  0  0  0  0  0  0  0  0  0  0
   -2.5224   -6.0035   -3.8712 C   0  0  0  0  0  0  0  0  0  0  0  0
   -3.6895   -6.4888   -3.2271 C   0  0  0  0  0  0  0  0  0  0  0  0
   -4.7190   -7.2256   -3.9642 C   0  0  0  0  0  0  0  0  0  0  0  0
   -6.0059   -7.5624   -3.7121 C   0  0  0  0  0  0  0  0  0  0  0  0
   -6.6645   -8.3125   -4.6216 C   0  0  0  0  0  0  0  0  0  0  0  0
   -5.9842   -8.6922   -5.7443 C   0  0  0  0  0  0  0  0  0  0  0  0
   -6.4928   -9.4057   -6.9079 C   0  0  0  0  0  0  0  0  0  0  0  0
   -5.7382  -10.1393   -7.6832 C   0  0  0  0  0  0  0  0  0  0  0  0
   -4.3175  -10.3482   -7.4560 C   0  0  0  0  0  0  0  0  0  0  0  0
   -3.3234  -10.7896   -8.2937 C   0  0  0  0  0  0  0  0  0  0  0  0
   -2.1263  -11.0209   -7.7572 C   0  0  0  0  0  0  0  0  0  0  0  0
   -1.9506  -10.8176   -6.4287 C   0  0  0  0  0  0  0  0  0  0  0  0
   -0.4478  -11.0092   -5.4213 S   0  0  0  0  0  0  0  0  0  0  0  0
    0.3000   -9.3862   -5.1388 C   0  0  0  0  0  0  0  0  0  0  0  0
    0.7598   -8.7203   -6.3982 C   0  0  0  0  0  0  0  0  0  0  0  0
   -3.4774  -10.2961   -5.9395 S   0  0  0  0  0  0  0  0  0  0  0  0
   -4.4514   -7.9768   -5.4862 S   0  0  0  0  0  0  0  0  0  0  0  0
   -3.7821   -6.5798   -1.8515 C   0  0  0  0  0  0  0  0  0  0  0  0
   -5.1802   -6.6011   -0.8011 S   0  0  0  0  0  0  0  0  0  0  0  0
   -2.3581   -5.6095   -5.1400 C   0  0  0  0  0  0  0  0  0  0  0  0
   -1.2253   -4.9096   -5.4842 C   0  0  0  0  0  0  0  0  0  0  0  0
   -0.4087   -4.8642   -3.9195 S   0  0  0  0  0  0  0  0  0  0  0  0
   -0.7584   -4.2074   -6.5988 C   0  0  0  0  0  0  0  0  0  0  0  0
   -0.3228   -3.5403   -7.5440 C   0  0  0  0  0  0  0  0  0  0  0  0
   -0.5436   -4.0274   -8.9321 C   0  0  0  0  0  0  0  0  0  0  0  0
   -1.1693   -5.0775   -9.2656 O   0  0  0  0  0  0  0  0  0  0  0  0
    0.0789   -3.0942   -9.7904 C   0  0  0  0  0  0  0  0  0  0  0  0
    0.1669   -3.0668  -11.2001 C   0  0  0  0  0  0  0  0  0  0  0  0
    0.8154   -2.0966  -11.8413 C   0  0  0  0  0  0  0  0  0  0  0  0
    1.4298   -1.0740  -11.1615 C   0  0  0  0  0  0  0  0  0  0  0  0
    1.3547   -1.0800   -9.7482 C   0  0  0  0  0  0  0  0  0  0  0  0
    2.0240   -0.0355   -9.1717 O   0  0  0  0  0  0  0  0  0  0  0  0
    2.7601    0.9463   -9.8369 C   0  0  0  0  0  0  0  0  0  0  0  0
    0.6846   -2.0591   -9.0758 C   0  0  0  0  0  0  0  0  0  0  0  0
    0.4539   -2.2758   -7.6532 C   0  0  0  0  0  0  0  0  0  0  0  0
    0.7017   -1.4590   -6.6351 C   0  0  0  0  0  0  0  0  0  0  0  0
    0.3175   -1.6433   -5.3428 C   0  0  0  0  0  0  0  0  0  0  0  0
   -0.0685   -1.8114   -4.1161 N   0  0  0  0  0  0  0  0  0  0  0  0
    1.0314   -0.0209   -6.8764 C   0  0  0  0  0  0  0  0  0  0  0  0
    1.2857    1.1678   -7.0626 N   0  0  0  0  0  0  0  0  0  0  0  0
    8.9446    5.7818    2.2220 H   0  0  0  0  0  0  0  0  0  0  0  0
    4.2755    5.1582   -1.8323 H   0  0  0  0  0  0  0  0  0  0  0  0
    8.9094    5.4528   -3.3858 H   0  0  0  0  0  0  0  0  0  0  0  0
    6.9797    4.0793   -5.8453 H   0  0  0  0  0  0  0  0  0  0  0  0
    7.1633    6.7283   -6.5348 H   0  0  0  0  0  0  0  0  0  0  0  0
    5.9397    5.3578   -8.4283 H   0  0  0  0  0  0  0  0  0  0  0  0
    3.4878    5.0134   -7.6265 H   0  0  0  0  0  0  0  0  0  0  0  0
    3.2600    5.8661   -5.1973 H   0  0  0  0  0  0  0  0  0  0  0  0
    4.7597    7.6467   -6.3054 H   0  0  0  0  0  0  0  0  0  0  0  0
    5.4350    7.2638   -4.6104 H   0  0  0  0  0  0  0  0  0  0  0  0
    4.7888    3.6184   -4.9194 H   0  0  0  0  0  0  0  0  0  0  0  0
    5.9927    7.6884    1.7027 H   0  0  0  0  0  0  0  0  0  0  0  0
    1.8798   10.0796    2.8856 H   0  0  0  0  0  0  0  0  0  0  0  0
    1.3118   11.0034    0.6655 H   0  0  0  0  0  0  0  0  0  0  0  0
    1.0051    9.7047   -3.9047 H   0  0  0  0  0  0  0  0  0  0  0  0
    0.1864    9.7507   -2.2530 H   0  0  0  0  0  0  0  0  0  0  0  0
    0.1412    7.5538   -3.2751 H   0  0  0  0  0  0  0  0  0  0  0  0
    0.9564    7.5031   -1.7144 H   0  0  0  0  0  0  0  0  0  0  0  0
    1.9079    7.4188   -3.3089 H   0  0  0  0  0  0  0  0  0  0  0  0
    2.7130    5.5881    8.0959 H   0  0  0  0  0  0  0  0  0  0  0  0
    3.0888    3.4581    9.2731 H   0  0  0  0  0  0  0  0  0  0  0  0
    2.7104    0.0233    8.0386 H   0  0  0  0  0  0  0  0  0  0  0  0
    4.0719   -1.2029    7.9079 H   0  0  0  0  0  0  0  0  0  0  0  0
    2.7537   -0.8444    5.7854 H   0  0  0  0  0  0  0  0  0  0  0  0
    3.3284    0.8284    5.7013 H   0  0  0  0  0  0  0  0  0  0  0  0
    4.4960   -0.5826    5.5919 H   0  0  0  0  0  0  0  0  0  0  0  0
    1.2262    5.8518    6.5895 H   0  0  0  0  0  0  0  0  0  0  0  0
   -2.9195    8.2997    7.9856 H   0  0  0  0  0  0  0  0  0  0  0  0
   -3.9229   10.5389    7.7967 H   0  0  0  0  0  0  0  0  0  0  0  0
   -4.3859   11.5269    5.5732 H   0  0  0  0  0  0  0  0  0  0  0  0
   -4.0979   11.5143    3.3027 H   0  0  0  0  0  0  0  0  0  0  0  0
   -3.0546   10.3020    2.5480 H   0  0  0  0  0  0  0  0  0  0  0  0
   -5.1121    9.7681    1.4542 H   0  0  0  0  0  0  0  0  0  0  0  0
   -5.3148    8.8317    2.9441 H   0  0  0  0  0  0  0  0  0  0  0  0
   -6.0911   10.4829    2.7881 H   0  0  0  0  0  0  0  0  0  0  0  0
   -2.8266    8.0976    3.7264 H   0  0  0  0  0  0  0  0  0  0  0  0
   -7.9416   -5.9437    0.6267 H   0  0  0  0  0  0  0  0  0  0  0  0
   -9.7096   -7.6913    0.9088 H   0  0  0  0  0  0  0  0  0  0  0  0
   -9.9451   -8.9405    2.9793 H   0  0  0  0  0  0  0  0  0  0  0  0
   -8.2041   -8.0951    6.1023 H   0  0  0  0  0  0  0  0  0  0  0  0
   -9.5213   -9.0175    5.3014 H   0  0  0  0  0  0  0  0  0  0  0  0
   -6.5556   -9.6861    5.2565 H   0  0  0  0  0  0  0  0  0  0  0  0
   -7.8635  -10.4330    6.2368 H   0  0  0  0  0  0  0  0  0  0  0  0
   -7.8942  -10.7065    4.5027 H   0  0  0  0  0  0  0  0  0  0  0  0
   -6.6742   -6.7427    4.5822 H   0  0  0  0  0  0  0  0  0  0  0  0
   -1.7261    1.0282    3.6026 H   0  0  0  0  0  0  0  0  0  0  0  0
   -1.2775    2.3957    4.3537 H   0  0  0  0  0  0  0  0  0  0  0  0
   -1.7761    0.4933    6.5039 H   0  0  0  0  0  0  0  0  0  0  0  0
   -0.2940    0.1743    5.4086 H   0  0  0  0  0  0  0  0  0  0  0  0
   -0.5113    1.7041    6.2744 H   0  0  0  0  0  0  0  0  0  0  0  0
   -2.7405   -2.2426    3.3998 H   0  0  0  0  0  0  0  0  0  0  0  0
   -2.0076   -0.9861    4.1950 H   0  0  0  0  0  0  0  0  0  0  0  0
   -1.8492   -0.6187    1.7784 H   0  0  0  0  0  0  0  0  0  0  0  0
   -3.3875    0.3719    2.0751 H   0  0  0  0  0  0  0  0  0  0  0  0
   -3.4389   -1.2911    1.4882 H   0  0  0  0  0  0  0  0  0  0  0  0
   -2.3489   -5.8391    1.0799 H   0  0  0  0  0  0  0  0  0  0  0  0
    0.4097   -7.0434    0.2543 H   0  0  0  0  0  0  0  0  0  0  0  0
    2.5846   -5.8785    0.6002 H   0  0  0  0  0  0  0  0  0  0  0  0
    2.8408   -2.2493   -0.8694 H   0  0  0  0  0  0  0  0  0  0  0  0
    4.9957   -2.6133   -1.2713 H   0  0  0  0  0  0  0  0  0  0  0  0
    7.1326   -3.9151   -1.5170 H   0  0  0  0  0  0  0  0  0  0  0  0
    8.1477   -6.2250   -1.7247 H   0  0  0  0  0  0  0  0  0  0  0  0
    5.1147   -9.7217    0.0958 H   0  0  0  0  0  0  0  0  0  0  0  0
    5.6247  -10.9519   -1.1222 H   0  0  0  0  0  0  0  0  0  0  0  0
    3.6251   -8.7060   -1.4805 H   0  0  0  0  0  0  0  0  0  0  0  0
    4.3602   -9.4983   -2.8769 H   0  0  0  0  0  0  0  0  0  0  0  0
    3.3854  -10.4981   -1.7093 H   0  0  0  0  0  0  0  0  0  0  0  0
   -6.5131   -7.2185   -2.7715 H   0  0  0  0  0  0  0  0  0  0  0  0
   -7.7295   -8.6248   -4.4779 H   0  0  0  0  0  0  0  0  0  0  0  0
   -7.5573   -9.2934   -7.0966 H   0  0  0  0  0  0  0  0  0  0  0  0
   -6.2889  -10.6104   -8.5221 H   0  0  0  0  0  0  0  0  0  0  0  0
   -3.5631  -10.9295   -9.3683 H   0  0  0  0  0  0  0  0  0  0  0  0
   -1.2454  -11.3906   -8.3659 H   0  0  0  0  0  0  0  0  0  0  0  0
    1.1774   -9.4943   -4.4444 H   0  0  0  0  0  0  0  0  0  0  0  0
   -0.4089   -8.6923   -4.6188 H   0  0  0  0  0  0  0  0  0  0  0  0
    1.8576   -8.6959   -6.4450 H   0  0  0  0  0  0  0  0  0  0  0  0
    0.3865   -7.6529   -6.4463 H   0  0  0  0  0  0  0  0  0  0  0  0
    0.3643   -9.1941   -7.3091 H   0  0  0  0  0  0  0  0  0  0  0  0
   -3.1232   -5.8224   -5.9172 H   0  0  0  0  0  0  0  0  0  0  0  0
   -1.3252   -3.0141   -6.1084 H   0  0  0  0  0  0  0  0  0  0  0  0
   -0.3209   -3.8717  -11.7363 H   0  0  0  0  0  0  0  0  0  0  0  0
    0.8707   -2.0410  -12.9629 H   0  0  0  0  0  0  0  0  0  0  0  0
    1.9246   -0.3012  -11.6881 H   0  0  0  0  0  0  0  0  0  0  0  0
    3.3725    0.4920  -10.6367 H   0  0  0  0  0  0  0  0  0  0  0  0
    3.5764    1.3569   -9.1427 H   0  0  0  0  0  0  0  0  0  0  0  0
    2.1129    1.7547  -10.1842 H   0  0  0  0  0  0  0  0  0  0  0  0
  1  2  2  3
  2  3  1  0
  3  4  2  0
  3  5  1  0
  5  6  2  0
  6  7  1  0
  7  8  2  0
  8  9  1  0
  9 10  2  0
 10 11  1  0
 11 12  2  3
 12 13  1  0
 13 14  3  0
 12 15  1  0
 15 16  3  0
  8 17  1  0
 17 18  1  0
 18 19  1  0
 19 20  2  0
 20 21  1  0
 21 22  1  0
 21 23  1  0
  1 24  1  0
 24 25  2  0
 25 26  1  0
 26 27  2  0
 27 28  1  0
 28 29  2  0
 29 30  1  0
 30 31  2  0
 31 32  1  0
 32 33  1  0
 33 34  1  0
 31 35  1  0
 27 36  1  0
 36 37  2  0
 37 38  1  0
 38 39  1  0
 39 40  2  0
 40 41  1  0
 41 42  2  0
 42 43  1  0
 43 44  1  0
 44 45  1  0
 42 46  1  0
 38 47  2  0
 47 48  1  0
 37 49  1  0
 49 50  2  0
 50 51  1  0
 50 52  1  0
 52 53  2  0
 53 54  1  0
 54 55  2  0
 55 56  1  0
 56 57  2  0
 57 58  1  0
 58 59  1  0
 59 60  1  0
 58 61  2  0
 53 62  1  0
 62 63  1  0
 63 64  1  0
 64 65  1  0
 65 66  1  0
 66 67  1  0
 67 68  2  0
 68 69  1  0
 69 70  1  0
 67 71  1  0
 71 72  1  0
 72 73  1  0
 73 74  1  0
 74 75  1  0
 75 76  1  0
 76 77  2  0
 77 78  1  0
 78 79  2  0
 79 80  1  0
 80 81  1  0
 81 82  1  0
 80 83  2  0
 75 84  2  0
 84 85  1  0
 85 86  1  0
 86 87  1  0
 87 88  1  0
 88 89  1  0
 89 90  1  0
 90 91  1  0
 91 92  1  0
 92 93  1  0
 93 94  1  0
 91 95  1  0
 95 96  1  0
 88 97  1  0
 97 98  1  0
 84 99  1  0
 99100  2  0
100101  1  0
101102  2  0
102103  1  0
103104  2  0
104105  1  0
105106  2  0
106107  1  0
107108  2  3
108109  1  0
109110  2  0
110111  1  0
111112  2  0
112113  1  0
113114  1  0
114115  1  0
112116  1  0
106117  1  0
102118  1  0
118119  2  0
119120  1  0
120121  1  0
121122  2  0
122123  1  0
123124  2  0
124125  1  0
125126  2  3
126127  1  0
127128  2  0
128129  1  0
129130  2  0
130131  1  0
131132  1  0
132133  1  0
130134  1  0
124135  1  0
120136  2  0
136137  1  0
119138  1  0
138139  2  0
139140  1  0
139141  1  0
141142  2  3
142143  1  0
143144  2  0
143145  1  0
145146  2  0
146147  1  0
147148  2  0
148149  1  0
149150  1  0
150151  1  0
149152  2  0
152153  1  0
153154  2  3
154155  1  0
155156  3  0
154157  1  0
157158  3  0
 11  2  1  0
 23 17  1  0
 48 24  1  0
 94 52  1  0
137 99  1  0
153142  1  0
 10  5  1  0
 22 18  1  0
 47 26  1  0
 61 54  1  0
 93 62  2  0
136101  1  0
152145  1  0
 23  7  1  0
 35 28  1  0
 51 36  1  0
 92 64  2  0
117103  1  0
140118  1  0
 46 39  1  0
 90 65  2  0
116109  1  0
135121  1  0
 70 66  2  0
 89 71  2  0
134127  1  0
 87 72  2  0
 86 74  2  0
 83 76  1  0
  1159  1  0
  6160  1  0
  9161  1  0
 17162  1  0
 18163  1  0
 19164  1  0
 20165  1  0
 21166  1  0
 22167  1  0
 22168  1  0
 23169  1  0
 25170  1  0
 29171  1  0
 30172  1  0
 33173  1  0
 33174  1  0
 34175  1  0
 34176  1  0
 34177  1  0
 40178  1  0
 41179  1  0
 44180  1  0
 44181  1  0
 45182  1  0
 45183  1  0
 45184  1  0
 49185  1  0
 55186  1  0
 56187  1  0
 57188  1  0
 59189  1  0
 59190  1  0
 60191  1  0
 60192  1  0
 60193  1  0
 61194  1  0
 77195  1  0
 78196  1  0
 79197  1  0
 81198  1  0
 81199  1  0
 82200  1  0
 82201  1  0
 82202  1  0
 83203  1  0
 95204  1  0
 95205  1  0
 96206  1  0
 96207  1  0
 96208  1  0
 97209  1  0
 97210  1  0
 98211  1  0
 98212  1  0
 98213  1  0
100214  1  0
104215  1  0
105216  1  0
107217  1  0
108218  1  0
110219  1  0
111220  1  0
114221  1  0
114222  1  0
115223  1  0
115224  1  0
115225  1  0
122226  1  0
123227  1  0
125228  1  0
126229  1  0
128230  1  0
129231  1  0
132232  1  0
132233  1  0
133234  1  0
133235  1  0
133236  1  0
138237  1  0
141238  1  0
146239  1  0
147240  1  0
148241  1  0
151242  1  0
151243  1  0
151244  1  0
M  END

