
     RDKit          3D

150168  0  0  0  0  0  0  0  0999 V2000
    3.5291   -6.5914    5.1314 C   0  0  0  0  0  0  0  0  0  0  0  0
    4.3067   -5.8983    4.2712 C   0  0  0  0  0  0  0  0  0  0  0  0
    3.9755   -4.5739    3.7155 C   0  0  0  0  0  0  0  0  0  0  0  0
    2.8628   -3.9809    3.7856 O   0  0  0  0  0  0  0  0  0  0  0  0
    5.1327   -4.0287    3.0591 C   0  0  0  0  0  0  0  0  0  0  0  0
    5.2476   -2.7412    2.4891 C   0  0  0  0  0  0  0  0  0  0  0  0
    6.4971   -2.4705    1.9767 C   0  0  0  0  0  0  0  0  0  0  0  0
    7.5847   -3.4024    2.0221 C   0  0  0  0  0  0  0  0  0  0  0  0
    7.4748   -4.6624    2.5865 C   0  0  0  0  0  0  0  0  0  0  0  0
    6.1837   -4.9770    3.1047 C   0  0  0  0  0  0  0  0  0  0  0  0
    5.6947   -6.2192    3.7871 C   0  0  0  0  0  0  0  0  0  0  0  0
    6.2924   -7.4375    3.7588 C   0  0  0  0  0  0  0  0  0  0  0  0
    7.5050   -7.6864    3.0278 C   0  0  0  0  0  0  0  0  0  0  0  0
    8.4710   -7.9106    2.4320 N   0  0  0  0  0  0  0  0  0  0  0  0
    5.7115   -8.6079    4.3656 C   0  0  0  0  0  0  0  0  0  0  0  0
    5.2618   -9.5530    4.8576 N   0  0  0  0  0  0  0  0  0  0  0  0
    8.4614   -2.4296    1.2854 C   0  0  0  0  0  0  0  0  0  0  0  0
    8.7253   -2.7378   -0.2175 C   0  0  0  0  0  0  0  0  0  0  0  0
    9.2653   -1.4605   -0.8173 C   0  0  0  0  0  0  0  0  0  0  0  0
    8.2473   -0.5929   -0.8503 C   0  0  0  0  0  0  0  0  0  0  0  0
    7.0536   -1.3116   -0.2738 C   0  0  0  0  0  0  0  0  0  0  0  0
    7.3328   -2.7004   -0.8250 C   0  0  0  0  0  0  0  0  0  0  0  0
    7.3486   -1.4760    1.2476 C   0  0  0  0  0  0  0  0  0  0  0  0
    2.1948   -6.0943    5.5081 C   0  0  0  0  0  0  0  0  0  0  0  0
    1.1132   -6.2924    4.6355 C   0  0  0  0  0  0  0  0  0  0  0  0
    1.1931   -7.2179    3.6509 F   0  0  0  0  0  0  0  0  0  0  0  0
    0.0442   -5.3941    4.6467 C   0  0  0  0  0  0  0  0  0  0  0  0
    0.0414   -4.3035    5.5337 C   0  0  0  0  0  0  0  0  0  0  0  0
    1.0237   -4.2432    6.5423 C   0  0  0  0  0  0  0  0  0  0  0  0
    1.0752   -3.1867    7.3928 F   0  0  0  0  0  0  0  0  0  0  0  0
    2.0913   -5.1438    6.5289 C   0  0  0  0  0  0  0  0  0  0  0  0
   -0.5762   -3.0458    5.0720 C   0  0  0  0  0  0  0  0  0  0  0  0
   -1.3064   -2.1115    5.8443 C   0  0  0  0  0  0  0  0  0  0  0  0
   -1.8831   -2.3992    7.1783 C   0  0  0  0  0  0  0  0  0  0  0  0
   -2.5434   -3.6195    7.4090 C   0  0  0  0  0  0  0  0  0  0  0  0
   -3.0807   -3.9044    8.6666 C   0  0  0  0  0  0  0  0  0  0  0  0
   -2.9487   -2.9884    9.7112 C   0  0  0  0  0  0  0  0  0  0  0  0
   -2.2813   -1.7697    9.5049 C   0  0  0  0  0  0  0  0  0  0  0  0
   -2.1737   -0.7567   10.6153 C   0  0  0  0  0  0  0  0  0  0  0  0
   -3.3209    0.2430   10.5510 C   0  0  0  0  0  0  0  0  0  0  0  0
   -1.7645   -1.4747    8.2317 C   0  0  0  0  0  0  0  0  0  0  0  0
   -1.3461   -0.8685    5.1901 C   0  0  0  0  0  0  0  0  0  0  0  0
   -1.9638    0.6909    5.5650 S   0  0  0  0  0  0  0  0  0  0  0  0
   -1.2222    1.3577    4.1814 C   0  0  0  0  0  0  0  0  0  0  0  0
   -1.0862    2.5401    3.4959 C   0  0  0  0  0  0  0  0  0  0  0  0
   -1.7486    3.7749    3.5848 C   0  0  0  0  0  0  0  0  0  0  0  0
   -1.5064    4.7580    2.5679 C   0  0  0  0  0  0  0  0  0  0  0  0
   -2.1924    5.9244    2.6635 N   0  0  0  0  0  0  0  0  0  0  0  0
   -3.0752    5.6083    4.0317 S   0  0  0  0  0  0  0  0  0  0  0  0
   -2.6588    4.0867    4.5419 N   0  0  0  0  0  0  0  0  0  0  0  0
   -0.5377    4.4899    1.5913 C   0  0  0  0  0  0  0  0  0  0  0  0
   -0.0528    5.2224    0.5342 C   0  0  0  0  0  0  0  0  0  0  0  0
   -0.8192    6.2129   -0.6111 S   0  0  0  0  0  0  0  0  0  0  0  0
    0.2080    5.6725   -1.8644 C   0  0  0  0  0  0  0  0  0  0  0  0
    0.0015    5.6030   -3.2508 C   0  0  0  0  0  0  0  0  0  0  0  0
   -0.9876    6.4344   -3.9709 C   0  0  0  0  0  0  0  0  0  0  0  0
   -0.5546    7.2858   -4.9988 C   0  0  0  0  0  0  0  0  0  0  0  0
   -1.4490    8.1748   -5.6047 C   0  0  0  0  0  0  0  0  0  0  0  0
   -2.7736    8.2389   -5.1693 C   0  0  0  0  0  0  0  0  0  0  0  0
   -3.2238    7.3932   -4.1439 C   0  0  0  0  0  0  0  0  0  0  0  0
   -4.6229    7.5223   -3.6121 C   0  0  0  0  0  0  0  0  0  0  0  0
   -4.6878    8.5985   -2.5310 C   0  0  0  0  0  0  0  0  0  0  0  0
   -2.3305    6.4811   -3.5563 C   0  0  0  0  0  0  0  0  0  0  0  0
    0.7759    4.5784   -3.8411 C   0  0  0  0  0  0  0  0  0  0  0  0
    1.6811    3.8096   -2.6193 S   0  0  0  0  0  0  0  0  0  0  0  0
    1.1121    4.7587   -1.3774 C   0  0  0  0  0  0  0  0  0  0  0  0
    0.9365    4.4729   -0.0352 C   0  0  0  0  0  0  0  0  0  0  0  0
    1.1286    3.2953    0.6006 N   0  0  0  0  0  0  0  0  0  0  0  0
    0.1619    3.2820    1.5587 C   0  0  0  0  0  0  0  0  0  0  0  0
   -0.2206    2.2447    2.4299 C   0  0  0  0  0  0  0  0  0  0  0  0
    0.0358    0.9034    2.3459 N   0  0  0  0  0  0  0  0  0  0  0  0
   -0.5564    0.4221    3.4646 C   0  0  0  0  0  0  0  0  0  0  0  0
   -0.6633   -0.8424    4.0025 C   0  0  0  0  0  0  0  0  0  0  0  0
    0.0060   -2.3206    3.6487 S   0  0  0  0  0  0  0  0  0  0  0  0
    0.2312    0.1151    1.1178 C   0  0  0  0  0  0  0  0  0  0  0  0
   -1.1039   -0.3842    0.5673 C   0  0  0  0  0  0  0  0  0  0  0  0
    2.4047    2.5608    0.6278 C   0  0  0  0  0  0  0  0  0  0  0  0
    3.5495    3.4789    1.0339 C   0  0  0  0  0  0  0  0  0  0  0  0
    0.3495    3.7854   -5.0094 C   0  0  0  0  0  0  0  0  0  0  0  0
    0.6279    4.1619   -6.3317 C   0  0  0  0  0  0  0  0  0  0  0  0
    1.2882    5.3189   -6.5998 F   0  0  0  0  0  0  0  0  0  0  0  0
    0.2999    3.2972   -7.3887 C   0  0  0  0  0  0  0  0  0  0  0  0
   -0.2871    2.0392   -7.1382 C   0  0  0  0  0  0  0  0  0  0  0  0
   -0.5081    1.6480   -5.8059 C   0  0  0  0  0  0  0  0  0  0  0  0
   -0.9143    0.3888   -5.4966 F   0  0  0  0  0  0  0  0  0  0  0  0
   -0.2435    2.5306   -4.7635 C   0  0  0  0  0  0  0  0  0  0  0  0
   -0.4805    1.0880   -8.2577 C   0  0  0  0  0  0  0  0  0  0  0  0
   -1.5019    0.2101   -8.3514 C   0  0  0  0  0  0  0  0  0  0  0  0
   -2.7955    0.3259   -7.6578 C   0  0  0  0  0  0  0  0  0  0  0  0
   -3.1603    1.2583   -6.8841 O   0  0  0  0  0  0  0  0  0  0  0  0
   -3.6766   -0.7079   -8.1542 C   0  0  0  0  0  0  0  0  0  0  0  0
   -4.9910   -0.9678   -7.7685 C   0  0  0  0  0  0  0  0  0  0  0  0
   -5.6948   -1.9764   -8.4339 C   0  0  0  0  0  0  0  0  0  0  0  0
   -5.0878   -2.6874   -9.4806 C   0  0  0  0  0  0  0  0  0  0  0  0
   -6.0037   -3.9015  -10.3497 Cl  0  0  0  0  0  0  0  0  0  0  0  0
   -3.7561   -2.4175   -9.8503 C   0  0  0  0  0  0  0  0  0  0  0  0
   -3.0382   -1.4322   -9.1478 C   0  0  0  0  0  0  0  0  0  0  0  0
   -1.6255   -0.9562   -9.2856 C   0  0  0  0  0  0  0  0  0  0  0  0
   -0.6153   -1.5996   -9.9329 C   0  0  0  0  0  0  0  0  0  0  0  0
    0.7652   -1.2055   -9.8048 C   0  0  0  0  0  0  0  0  0  0  0  0
    1.8770   -0.8974   -9.7105 N   0  0  0  0  0  0  0  0  0  0  0  0
   -0.8270   -2.7928  -10.7103 C   0  0  0  0  0  0  0  0  0  0  0  0
   -0.9860   -3.7582  -11.3255 N   0  0  0  0  0  0  0  0  0  0  0  0
    3.8639   -7.4877    5.6163 H   0  0  0  0  0  0  0  0  0  0  0  0
    4.4316   -2.0303    2.4508 H   0  0  0  0  0  0  0  0  0  0  0  0
    8.3297   -5.3120    2.6278 H   0  0  0  0  0  0  0  0  0  0  0  0
    9.3458   -2.0958    1.8714 H   0  0  0  0  0  0  0  0  0  0  0  0
    9.3266   -3.6509   -0.4267 H   0  0  0  0  0  0  0  0  0  0  0  0
   10.2444   -1.3044   -1.2571 H   0  0  0  0  0  0  0  0  0  0  0  0
    8.2612    0.3844   -1.3201 H   0  0  0  0  0  0  0  0  0  0  0  0
    6.0652   -0.8721   -0.5251 H   0  0  0  0  0  0  0  0  0  0  0  0
    7.3336   -2.7386   -1.9394 H   0  0  0  0  0  0  0  0  0  0  0  0
    6.6506   -3.4959   -0.4455 H   0  0  0  0  0  0  0  0  0  0  0  0
    7.5169   -0.5317    1.8121 H   0  0  0  0  0  0  0  0  0  0  0  0
   -0.6933   -5.4435    3.8520 H   0  0  0  0  0  0  0  0  0  0  0  0
    2.9203   -4.9821    7.2052 H   0  0  0  0  0  0  0  0  0  0  0  0
   -2.6537   -4.3418    6.6113 H   0  0  0  0  0  0  0  0  0  0  0  0
   -3.5996   -4.8435    8.8291 H   0  0  0  0  0  0  0  0  0  0  0  0
   -3.3664   -3.2301   10.6778 H   0  0  0  0  0  0  0  0  0  0  0  0
   -1.2086   -0.2096   10.5388 H   0  0  0  0  0  0  0  0  0  0  0  0
   -2.1800   -1.2700   11.6022 H   0  0  0  0  0  0  0  0  0  0  0  0
   -3.1933    0.9983   11.3541 H   0  0  0  0  0  0  0  0  0  0  0  0
   -3.3303    0.7697    9.5758 H   0  0  0  0  0  0  0  0  0  0  0  0
   -4.2906   -0.2767   10.6979 H   0  0  0  0  0  0  0  0  0  0  0  0
   -1.2381   -0.5381    8.0743 H   0  0  0  0  0  0  0  0  0  0  0  0
    0.4837    7.3017   -5.2896 H   0  0  0  0  0  0  0  0  0  0  0  0
   -1.1067    8.8349   -6.3920 H   0  0  0  0  0  0  0  0  0  0  0  0
   -3.4454    8.9586   -5.6213 H   0  0  0  0  0  0  0  0  0  0  0  0
   -5.3210    7.7801   -4.4361 H   0  0  0  0  0  0  0  0  0  0  0  0
   -4.9585    6.5566   -3.1754 H   0  0  0  0  0  0  0  0  0  0  0  0
   -4.0326    8.3254   -1.6755 H   0  0  0  0  0  0  0  0  0  0  0  0
   -4.3677    9.5782   -2.9464 H   0  0  0  0  0  0  0  0  0  0  0  0
   -5.7324    8.6978   -2.1624 H   0  0  0  0  0  0  0  0  0  0  0  0
   -2.6664    5.8384   -2.7550 H   0  0  0  0  0  0  0  0  0  0  0  0
    0.6894    0.7121    0.3182 H   0  0  0  0  0  0  0  0  0  0  0  0
    0.9042   -0.7489    1.3181 H   0  0  0  0  0  0  0  0  0  0  0  0
   -0.9852   -0.7026   -0.4881 H   0  0  0  0  0  0  0  0  0  0  0  0
   -1.4756   -1.2431    1.1512 H   0  0  0  0  0  0  0  0  0  0  0  0
   -1.8611    0.4287    0.5898 H   0  0  0  0  0  0  0  0  0  0  0  0
    2.3851    1.7504    1.3832 H   0  0  0  0  0  0  0  0  0  0  0  0
    2.6042    2.1114   -0.3712 H   0  0  0  0  0  0  0  0  0  0  0  0
    3.6138    4.3566    0.3664 H   0  0  0  0  0  0  0  0  0  0  0  0
    4.5140    2.9205    0.9804 H   0  0  0  0  0  0  0  0  0  0  0  0
    3.4050    3.8192    2.0758 H   0  0  0  0  0  0  0  0  0  0  0  0
    0.5324    3.5900   -8.4053 H   0  0  0  0  0  0  0  0  0  0  0  0
   -0.4392    2.2057   -3.7491 H   0  0  0  0  0  0  0  0  0  0  0  0
    0.2761    1.1109   -9.0199 H   0  0  0  0  0  0  0  0  0  0  0  0
   -5.4626   -0.3953   -6.9803 H   0  0  0  0  0  0  0  0  0  0  0  0
   -6.7206   -2.1802   -8.1556 H   0  0  0  0  0  0  0  0  0  0  0  0
   -3.3377   -2.9498  -10.6856 H   0  0  0  0  0  0  0  0  0  0  0  0
  1  2  2  3
  2  3  1  0
  3  4  2  0
  3  5  1  0
  5  6  2  0
  6  7  1  0
  7  8  2  0
  8  9  1  0
  9 10  2  0
 10 11  1  0
 11 12  2  3
 12 13  1  0
 13 14  3  0
 12 15  1  0
 15 16  3  0
  8 17  1  0
 17 18  1  0
 18 19  1  0
 19 20  2  0
 20 21  1  0
 21 22  1  0
 21 23  1  0
  1 24  1  0
 24 25  2  0
 25 26  1  0
 25 27  1  0
 27 28  2  0
 28 29  1  0
 29 30  1  0
 29 31  2  0
 28 32  1  0
 32 33  2  0
 33 34  1  0
 34 35  2  0
 35 36  1  0
 36 37  2  0
 37 38  1  0
 38 39  1  0
 39 40  1  0
 38 41  2  0
 33 42  1  0
 42 43  1  0
 43 44  1  0
 44 45  1  0
 45 46  1  0
 46 47  1  0
 47 48  2  0
 48 49  1  0
 49 50  1  0
 47 51  1  0
 51 52  1  0
 52 53  1  0
 53 54  1  0
 54 55  1  0
 55 56  1  0
 56 57  2  0
 57 58  1  0
 58 59  2  0
 59 60  1  0
 60 61  1  0
 61 62  1  0
 60 63  2  0
 55 64  2  0
 64 65  1  0
 65 66  1  0
 66 67  1  0
 67 68  1  0
 68 69  1  0
 69 70  1  0
 70 71  1  0
 71 72  1  0
 72 73  1  0
 73 74  1  0
 71 75  1  0
 75 76  1  0
 68 77  1  0
 77 78  1  0
 64 79  1  0
 79 80  2  0
 80 81  1  0
 80 82  1  0
 82 83  2  0
 83 84  1  0
 84 85  1  0
 84 86  2  0
 83 87  1  0
 87 88  2  3
 88 89  1  0
 89 90  2  0
 89 91  1  0
 91 92  2  0
 92 93  1  0
 93 94  2  0
 94 95  1  0
 94 96  1  0
 96 97  2  0
 97 98  1  0
 98 99  2  3
 99100  1  0
100101  3  0
 99102  1  0
102103  3  0
 11  2  1  0
 23 17  1  0
 31 24  1  0
 74 32  1  0
 86 79  1  0
 98 88  1  0
 10  5  1  0
 22 18  1  0
 41 34  1  0
 73 42  2  0
 97 91  1  0
 23  7  1  0
 72 44  2  0
 70 45  2  0
 50 46  2  0
 69 51  2  0
 67 52  2  0
 66 54  2  0
 63 56  1  0
  1104  1  0
  6105  1  0
  9106  1  0
 17107  1  0
 18108  1  0
 19109  1  0
 20110  1  0
 21111  1  0
 22112  1  0
 22113  1  0
 23114  1  0
 27115  1  0
 31116  1  0
 35117  1  0
 36118  1  0
 37119  1  0
 39120  1  0
 39121  1  0
 40122  1  0
 40123  1  0
 40124  1  0
 41125  1  0
 57126  1  0
 58127  1  0
 59128  1  0
 61129  1  0
 61130  1  0
 62131  1  0
 62132  1  0
 62133  1  0
 63134  1  0
 75135  1  0
 75136  1  0
 76137  1  0
 76138  1  0
 76139  1  0
 77140  1  0
 77141  1  0
 78142  1  0
 78143  1  0
 78144  1  0
 82145  1  0
 86146  1  0
 87147  1  0
 92148  1  0
 93149  1  0
 96150  1  0
M  END

