
     RDKit          3D

251281  0  0  0  0  0  0  0  0999 V2000
   -6.2090   -0.0452    1.1821 C   0  0  0  0  0  0  0  0  0  0  0  0
   -4.8752    0.1935    1.1425 C   0  0  0  0  0  0  0  0  0  0  0  0
   -3.9572    0.1126    2.2925 C   0  0  0  0  0  0  0  0  0  0  0  0
   -4.2063    0.4612    3.4730 O   0  0  0  0  0  0  0  0  0  0  0  0
   -2.6643   -0.3187    1.8302 C   0  0  0  0  0  0  0  0  0  0  0  0
   -1.5831   -0.7638    2.6233 C   0  0  0  0  0  0  0  0  0  0  0  0
   -0.5190   -1.2379    1.8872 C   0  0  0  0  0  0  0  0  0  0  0  0
   -0.5009   -1.2631    0.4520 C   0  0  0  0  0  0  0  0  0  0  0  0
   -1.5618   -0.8213   -0.3308 C   0  0  0  0  0  0  0  0  0  0  0  0
   -2.6706   -0.3298    0.4127 C   0  0  0  0  0  0  0  0  0  0  0  0
   -4.0023    0.1446   -0.0647 C   0  0  0  0  0  0  0  0  0  0  0  0
   -4.2728    0.7209   -1.2552 C   0  0  0  0  0  0  0  0  0  0  0  0
   -5.5179    1.4114   -1.4892 C   0  0  0  0  0  0  0  0  0  0  0  0
   -6.5050    1.9824   -1.6751 N   0  0  0  0  0  0  0  0  0  0  0  0
   -3.2566    0.9050   -2.2603 C   0  0  0  0  0  0  0  0  0  0  0  0
   -2.4427    1.0728   -3.0671 N   0  0  0  0  0  0  0  0  0  0  0  0
    0.8787   -1.8597    0.4660 C   0  0  0  0  0  0  0  0  0  0  0  0
    2.0824   -0.9335    0.1154 C   0  0  0  0  0  0  0  0  0  0  0  0
    1.7656    0.4857    0.5221 C   0  0  0  0  0  0  0  0  0  0  0  0
    1.7400    0.4971    1.8558 C   0  0  0  0  0  0  0  0  0  0  0  0
    2.0375   -0.9069    2.3139 C   0  0  0  0  0  0  0  0  0  0  0  0
    3.0361   -1.2969    1.2401 C   0  0  0  0  0  0  0  0  0  0  0  0
    0.8523   -1.8444    1.9337 C   0  0  0  0  0  0  0  0  0  0  0  0
   -6.8729   -0.4506    2.4396 C   0  0  0  0  0  0  0  0  0  0  0  0
   -7.1484    0.4821    3.4457 C   0  0  0  0  0  0  0  0  0  0  0  0
   -6.7961    0.0374    4.7362 C   0  0  0  0  0  0  0  0  0  0  0  0
   -6.5241    0.9156    5.8069 C   0  0  0  0  0  0  0  0  0  0  0  0
   -7.2521    2.2046    5.9191 C   0  0  0  0  0  0  0  0  0  0  0  0
   -6.7545    3.4615    6.2674 C   0  0  0  0  0  0  0  0  0  0  0  0
   -7.7411    4.4597    6.3130 C   0  0  0  0  0  0  0  0  0  0  0  0
   -9.0117    3.9936    5.9855 C   0  0  0  0  0  0  0  0  0  0  0  0
  -10.2736    4.7971    5.9457 C   0  0  0  0  0  0  0  0  0  0  0  0
  -10.2160    5.8571    4.8503 C   0  0  0  0  0  0  0  0  0  0  0  0
   -8.9092    2.3512    5.6582 S   0  0  0  0  0  0  0  0  0  0  0  0
   -5.4946    0.5173    6.6864 C   0  0  0  0  0  0  0  0  0  0  0  0
   -4.9141   -0.7579    6.6256 C   0  0  0  0  0  0  0  0  0  0  0  0
   -5.4007   -1.7263    5.7263 C   0  0  0  0  0  0  0  0  0  0  0  0
   -4.7494   -3.0421    5.6090 C   0  0  0  0  0  0  0  0  0  0  0  0
   -4.8965   -4.0908    6.5020 C   0  0  0  0  0  0  0  0  0  0  0  0
   -4.1323   -5.2146    6.1623 C   0  0  0  0  0  0  0  0  0  0  0  0
   -3.3621   -5.0264    5.0199 C   0  0  0  0  0  0  0  0  0  0  0  0
   -2.5181   -6.0717    4.3578 C   0  0  0  0  0  0  0  0  0  0  0  0
   -3.3628   -6.9129    3.4064 C   0  0  0  0  0  0  0  0  0  0  0  0
   -3.6458   -3.4832    4.4157 S   0  0  0  0  0  0  0  0  0  0  0  0
   -6.3027   -1.2774    4.7451 C   0  0  0  0  0  0  0  0  0  0  0  0
   -6.3841   -1.8840    3.1811 S   0  0  0  0  0  0  0  0  0  0  0  0
   -3.6643   -0.8364    7.2618 C   0  0  0  0  0  0  0  0  0  0  0  0
   -3.2054    0.3868    7.7543 C   0  0  0  0  0  0  0  0  0  0  0  0
   -4.4330    1.5220    7.5184 S   0  0  0  0  0  0  0  0  0  0  0  0
   -1.7727    0.7571    7.7200 C   0  0  0  0  0  0  0  0  0  0  0  0
   -0.6733   -0.0995    7.9556 C   0  0  0  0  0  0  0  0  0  0  0  0
   -0.7243   -1.4089    8.6227 C   0  0  0  0  0  0  0  0  0  0  0  0
   -0.5913   -2.5897    7.8728 C   0  0  0  0  0  0  0  0  0  0  0  0
   -0.5276   -3.8287    8.5182 C   0  0  0  0  0  0  0  0  0  0  0  0
   -0.5560   -3.8940    9.9126 C   0  0  0  0  0  0  0  0  0  0  0  0
   -0.6799   -2.7198   10.6750 C   0  0  0  0  0  0  0  0  0  0  0  0
   -0.6086   -2.7793   12.1781 C   0  0  0  0  0  0  0  0  0  0  0  0
    0.8137   -2.4965   12.6569 C   0  0  0  0  0  0  0  0  0  0  0  0
   -0.7732   -1.4787   10.0226 C   0  0  0  0  0  0  0  0  0  0  0  0
    0.5023    0.4130    7.4086 C   0  0  0  0  0  0  0  0  0  0  0  0
    2.0569   -0.2540    7.1670 S   0  0  0  0  0  0  0  0  0  0  0  0
    2.4888    1.0657    6.1928 C   0  0  0  0  0  0  0  0  0  0  0  0
    3.5142    1.4731    5.3908 C   0  0  0  0  0  0  0  0  0  0  0  0
    4.7878    0.9559    5.1780 C   0  0  0  0  0  0  0  0  0  0  0  0
    5.6362    1.6072    4.2336 C   0  0  0  0  0  0  0  0  0  0  0  0
    6.8529    1.0515    4.0228 N   0  0  0  0  0  0  0  0  0  0  0  0
    6.7729   -0.2203    5.0833 S   0  0  0  0  0  0  0  0  0  0  0  0
    5.2805   -0.1449    5.7981 N   0  0  0  0  0  0  0  0  0  0  0  0
    5.1373    2.7079    3.5119 C   0  0  0  0  0  0  0  0  0  0  0  0
    5.5704    3.1994    2.3106 C   0  0  0  0  0  0  0  0  0  0  0  0
    6.7018    2.6126    1.1907 S   0  0  0  0  0  0  0  0  0  0  0  0
    5.7742    3.1390   -0.1266 C   0  0  0  0  0  0  0  0  0  0  0  0
    5.7665    2.6698   -1.4416 C   0  0  0  0  0  0  0  0  0  0  0  0
    6.9242    2.0268   -2.0782 C   0  0  0  0  0  0  0  0  0  0  0  0
    8.0135    2.8120   -2.4814 C   0  0  0  0  0  0  0  0  0  0  0  0
    9.0936    2.2287   -3.1509 C   0  0  0  0  0  0  0  0  0  0  0  0
    9.0891    0.8596   -3.4227 C   0  0  0  0  0  0  0  0  0  0  0  0
    8.0187    0.0563   -2.9988 C   0  0  0  0  0  0  0  0  0  0  0  0
    7.9872   -1.4093   -3.3419 C   0  0  0  0  0  0  0  0  0  0  0  0
    7.2001   -1.6397   -4.6264 C   0  0  0  0  0  0  0  0  0  0  0  0
    6.9419    0.6441   -2.3167 C   0  0  0  0  0  0  0  0  0  0  0  0
    4.5131    2.8453   -2.0493 C   0  0  0  0  0  0  0  0  0  0  0  0
    3.4621    3.5633   -0.9259 S   0  0  0  0  0  0  0  0  0  0  0  0
    4.5918    3.6963    0.3071 C   0  0  0  0  0  0  0  0  0  0  0  0
    4.4847    3.7626    1.7017 C   0  0  0  0  0  0  0  0  0  0  0  0
    3.3870    3.7708    2.5077 N   0  0  0  0  0  0  0  0  0  0  0  0
    3.8113    3.1521    3.6621 C   0  0  0  0  0  0  0  0  0  0  0  0
    3.0346    2.6076    4.7199 C   0  0  0  0  0  0  0  0  0  0  0  0
    1.7930    2.9636    5.1818 N   0  0  0  0  0  0  0  0  0  0  0  0
    1.4906    1.9648    6.0481 C   0  0  0  0  0  0  0  0  0  0  0  0
    0.3592    1.6123    6.7596 C   0  0  0  0  0  0  0  0  0  0  0  0
   -1.2339    2.1114    6.8151 S   0  0  0  0  0  0  0  0  0  0  0  0
    1.2316    4.3203    5.2585 C   0  0  0  0  0  0  0  0  0  0  0  0
    1.4620    4.9359    6.6390 C   0  0  0  0  0  0  0  0  0  0  0  0
    2.0143    4.0064    2.0375 C   0  0  0  0  0  0  0  0  0  0  0  0
    1.8121    5.4725    1.6591 C   0  0  0  0  0  0  0  0  0  0  0  0
    4.0150    2.0760   -3.1911 C   0  0  0  0  0  0  0  0  0  0  0  0
    3.6201    2.5783   -4.4435 C   0  0  0  0  0  0  0  0  0  0  0  0
    3.9068    3.9018   -4.9289 N   0  0  0  0  0  0  0  0  0  0  0  0
    3.5466    5.0503   -4.1349 C   0  0  0  0  0  0  0  0  0  0  0  0
    2.2564    5.1605   -3.5960 C   0  0  0  0  0  0  0  0  0  0  0  0
    1.9288    6.2372   -2.7646 C   0  0  0  0  0  0  0  0  0  0  0  0
    2.8859    7.2210   -2.4719 C   0  0  0  0  0  0  0  0  0  0  0  0
    2.5652    8.3353   -1.5221 C   0  0  0  0  0  0  0  0  0  0  0  0
    4.1757    7.1122   -3.0142 C   0  0  0  0  0  0  0  0  0  0  0  0
    4.5015    6.0382   -3.8466 C   0  0  0  0  0  0  0  0  0  0  0  0
    4.6196    4.0579   -6.1741 C   0  0  0  0  0  0  0  0  0  0  0  0
    4.2692    5.0772   -7.0744 C   0  0  0  0  0  0  0  0  0  0  0  0
    4.9210    5.1875   -8.3081 C   0  0  0  0  0  0  0  0  0  0  0  0
    5.9437    4.2906   -8.6505 C   0  0  0  0  0  0  0  0  0  0  0  0
    6.5964    4.3619   -9.9993 C   0  0  0  0  0  0  0  0  0  0  0  0
    6.2950    3.2717   -7.7552 C   0  0  0  0  0  0  0  0  0  0  0  0
    5.6445    3.1613   -6.5223 C   0  0  0  0  0  0  0  0  0  0  0  0
    3.0168    1.5809   -5.2147 C   0  0  0  0  0  0  0  0  0  0  0  0
    2.1898    1.5570   -6.6750 S   0  0  0  0  0  0  0  0  0  0  0  0
    1.7194   -0.0788   -6.5111 C   0  0  0  0  0  0  0  0  0  0  0  0
    2.2452   -0.6072   -5.3277 C   0  0  0  0  0  0  0  0  0  0  0  0
    2.0861   -1.9669   -4.8959 N   0  0  0  0  0  0  0  0  0  0  0  0
    0.7705   -2.5298   -4.6877 C   0  0  0  0  0  0  0  0  0  0  0  0
   -0.2844   -1.7298   -4.2145 C   0  0  0  0  0  0  0  0  0  0  0  0
   -1.5550   -2.2763   -4.0101 C   0  0  0  0  0  0  0  0  0  0  0  0
   -1.7952   -3.6310   -4.2759 C   0  0  0  0  0  0  0  0  0  0  0  0
   -3.1419   -4.2242   -3.9894 C   0  0  0  0  0  0  0  0  0  0  0  0
   -0.7508   -4.4326   -4.7588 C   0  0  0  0  0  0  0  0  0  0  0  0
    0.5143   -3.8868   -4.9747 C   0  0  0  0  0  0  0  0  0  0  0  0
    3.2411   -2.8227   -4.9190 C   0  0  0  0  0  0  0  0  0  0  0  0
    3.9054   -3.0757   -6.1296 C   0  0  0  0  0  0  0  0  0  0  0  0
    4.9245   -4.0292   -6.1897 C   0  0  0  0  0  0  0  0  0  0  0  0
    5.2991   -4.7336   -5.0354 C   0  0  0  0  0  0  0  0  0  0  0  0
    6.3790   -5.7709   -5.1187 C   0  0  0  0  0  0  0  0  0  0  0  0
    4.6573   -4.4562   -3.8172 C   0  0  0  0  0  0  0  0  0  0  0  0
    3.6305   -3.5081   -3.7606 C   0  0  0  0  0  0  0  0  0  0  0  0
    2.9455    0.3608   -4.6203 C   0  0  0  0  0  0  0  0  0  0  0  0
    3.5924    0.4283   -3.0811 S   0  0  0  0  0  0  0  0  0  0  0  0
    0.8563   -0.8148   -7.4411 C   0  0  0  0  0  0  0  0  0  0  0  0
   -0.4445   -0.5108   -7.6325 C   0  0  0  0  0  0  0  0  0  0  0  0
   -1.2116    0.4724   -6.8520 C   0  0  0  0  0  0  0  0  0  0  0  0
   -0.7502    1.2923   -6.0153 O   0  0  0  0  0  0  0  0  0  0  0  0
   -2.6171    0.2801   -7.1211 C   0  0  0  0  0  0  0  0  0  0  0  0
   -3.6950    0.9793   -6.5285 C   0  0  0  0  0  0  0  0  0  0  0  0
   -4.9370    0.5342   -6.9294 C   0  0  0  0  0  0  0  0  0  0  0  0
   -5.1174   -0.5600   -7.8357 C   0  0  0  0  0  0  0  0  0  0  0  0
   -4.0661   -1.2525   -8.4151 C   0  0  0  0  0  0  0  0  0  0  0  0
   -2.7743   -0.7759   -8.0547 C   0  0  0  0  0  0  0  0  0  0  0  0
   -1.4264   -1.2498   -8.4860 C   0  0  0  0  0  0  0  0  0  0  0  0
   -1.1489   -2.0118   -9.5771 C   0  0  0  0  0  0  0  0  0  0  0  0
    0.1954   -2.2710  -10.0261 C   0  0  0  0  0  0  0  0  0  0  0  0
    1.2705   -2.4963  -10.3879 N   0  0  0  0  0  0  0  0  0  0  0  0
   -2.1736   -2.5167  -10.4526 C   0  0  0  0  0  0  0  0  0  0  0  0
   -2.9818   -2.9262  -11.1714 N   0  0  0  0  0  0  0  0  0  0  0  0
   -6.6058   -0.4407   -7.7054 C   0  0  0  0  0  0  0  0  0  0  0  0
   -7.3179   -1.5142   -6.8321 C   0  0  0  0  0  0  0  0  0  0  0  0
   -8.6962   -0.9656   -6.5502 C   0  0  0  0  0  0  0  0  0  0  0  0
   -8.5315    0.0622   -5.7119 C   0  0  0  0  0  0  0  0  0  0  0  0
   -7.0492    0.1723   -5.4523 C   0  0  0  0  0  0  0  0  0  0  0  0
   -6.7007   -1.3058   -5.4605 C   0  0  0  0  0  0  0  0  0  0  0  0
   -6.4215    0.6841   -6.7821 C   0  0  0  0  0  0  0  0  0  0  0  0
   -6.7690   -0.1610    0.2673 H   0  0  0  0  0  0  0  0  0  0  0  0
   -1.6026   -0.7713    3.7045 H   0  0  0  0  0  0  0  0  0  0  0  0
   -1.5442   -0.9034   -1.4058 H   0  0  0  0  0  0  0  0  0  0  0  0
    0.9348   -2.8842    0.0335 H   0  0  0  0  0  0  0  0  0  0  0  0
    2.4847   -1.0553   -0.9101 H   0  0  0  0  0  0  0  0  0  0  0  0
    1.6112    1.3307   -0.1353 H   0  0  0  0  0  0  0  0  0  0  0  0
    1.5409    1.3472    2.4930 H   0  0  0  0  0  0  0  0  0  0  0  0
    2.4005   -0.9900    3.3606 H   0  0  0  0  0  0  0  0  0  0  0  0
    3.3068   -2.3797    1.2546 H   0  0  0  0  0  0  0  0  0  0  0  0
    3.9684   -0.6777    1.2552 H   0  0  0  0  0  0  0  0  0  0  0  0
    0.8915   -2.8557    2.3962 H   0  0  0  0  0  0  0  0  0  0  0  0
   -7.3110    1.5279    3.2155 H   0  0  0  0  0  0  0  0  0  0  0  0
   -5.7139    3.6749    6.4607 H   0  0  0  0  0  0  0  0  0  0  0  0
   -7.5281    5.4883    6.5793 H   0  0  0  0  0  0  0  0  0  0  0  0
  -11.1297    4.1188    5.7464 H   0  0  0  0  0  0  0  0  0  0  0  0
  -10.4377    5.2853    6.9295 H   0  0  0  0  0  0  0  0  0  0  0  0
  -11.2228    6.2976    4.7084 H   0  0  0  0  0  0  0  0  0  0  0  0
   -9.8866    5.4117    3.8876 H   0  0  0  0  0  0  0  0  0  0  0  0
   -9.5127    6.6649    5.1376 H   0  0  0  0  0  0  0  0  0  0  0  0
   -5.5459   -4.0535    7.3687 H   0  0  0  0  0  0  0  0  0  0  0  0
   -4.1496   -6.1355    6.7283 H   0  0  0  0  0  0  0  0  0  0  0  0
   -1.7008   -5.5842    3.7845 H   0  0  0  0  0  0  0  0  0  0  0  0
   -2.0581   -6.7259    5.1291 H   0  0  0  0  0  0  0  0  0  0  0  0
   -2.7549   -7.7518    3.0041 H   0  0  0  0  0  0  0  0  0  0  0  0
   -4.2453   -7.3347    3.9352 H   0  0  0  0  0  0  0  0  0  0  0  0
   -3.7149   -6.2892    2.5568 H   0  0  0  0  0  0  0  0  0  0  0  0
   -3.0254   -1.6963    7.1540 H   0  0  0  0  0  0  0  0  0  0  0  0
   -0.5335   -2.5480    6.7909 H   0  0  0  0  0  0  0  0  0  0  0  0
   -0.4322   -4.7385    7.9339 H   0  0  0  0  0  0  0  0  0  0  0  0
   -0.4647   -4.8576   10.3979 H   0  0  0  0  0  0  0  0  0  0  0  0
   -0.9193   -3.7838   12.5403 H   0  0  0  0  0  0  0  0  0  0  0  0
   -1.3066   -2.0370   12.6191 H   0  0  0  0  0  0  0  0  0  0  0  0
    1.5087   -3.2733   12.2711 H   0  0  0  0  0  0  0  0  0  0  0  0
    0.8441   -2.5138   13.7688 H   0  0  0  0  0  0  0  0  0  0  0  0
    1.1496   -1.4961   12.3087 H   0  0  0  0  0  0  0  0  0  0  0  0
   -0.8329   -0.5641   10.6048 H   0  0  0  0  0  0  0  0  0  0  0  0
    8.0136    3.8801   -2.2976 H   0  0  0  0  0  0  0  0  0  0  0  0
    9.9251    2.8434   -3.4705 H   0  0  0  0  0  0  0  0  0  0  0  0
    9.9255    0.4239   -3.9603 H   0  0  0  0  0  0  0  0  0  0  0  0
    9.0223   -1.7964   -3.4720 H   0  0  0  0  0  0  0  0  0  0  0  0
    7.5208   -1.9843   -2.5140 H   0  0  0  0  0  0  0  0  0  0  0  0
    7.2507   -2.7133   -4.8955 H   0  0  0  0  0  0  0  0  0  0  0  0
    7.6318   -1.0474   -5.4611 H   0  0  0  0  0  0  0  0  0  0  0  0
    6.1371   -1.3563   -4.4812 H   0  0  0  0  0  0  0  0  0  0  0  0
    6.1219    0.0231   -1.9765 H   0  0  0  0  0  0  0  0  0  0  0  0
    0.1442    4.2868    5.0399 H   0  0  0  0  0  0  0  0  0  0  0  0
    1.7273    4.9927    4.5294 H   0  0  0  0  0  0  0  0  0  0  0  0
    1.0958    5.9822    6.6474 H   0  0  0  0  0  0  0  0  0  0  0  0
    2.5489    4.9362    6.8768 H   0  0  0  0  0  0  0  0  0  0  0  0
    0.9207    4.3648    7.4193 H   0  0  0  0  0  0  0  0  0  0  0  0
    1.7968    3.3726    1.1609 H   0  0  0  0  0  0  0  0  0  0  0  0
    1.2594    3.7075    2.7798 H   0  0  0  0  0  0  0  0  0  0  0  0
    0.7559    5.6400    1.3603 H   0  0  0  0  0  0  0  0  0  0  0  0
    2.4671    5.7480    0.8037 H   0  0  0  0  0  0  0  0  0  0  0  0
    2.0543    6.1359    2.5140 H   0  0  0  0  0  0  0  0  0  0  0  0
    1.5118    4.3998   -3.7992 H   0  0  0  0  0  0  0  0  0  0  0  0
    0.9328    6.2933   -2.3373 H   0  0  0  0  0  0  0  0  0  0  0  0
    2.9376    8.0760   -0.5074 H   0  0  0  0  0  0  0  0  0  0  0  0
    3.0538    9.2763   -1.8542 H   0  0  0  0  0  0  0  0  0  0  0  0
    1.4704    8.5144   -1.4714 H   0  0  0  0  0  0  0  0  0  0  0  0
    4.9313    7.8466   -2.7746 H   0  0  0  0  0  0  0  0  0  0  0  0
    5.5066    5.9551   -4.2378 H   0  0  0  0  0  0  0  0  0  0  0  0
    3.4682    5.7668   -6.8373 H   0  0  0  0  0  0  0  0  0  0  0  0
    4.6205    5.9637   -8.9992 H   0  0  0  0  0  0  0  0  0  0  0  0
    7.6620    4.0548   -9.9297 H   0  0  0  0  0  0  0  0  0  0  0  0
    6.0688    3.6833  -10.7020 H   0  0  0  0  0  0  0  0  0  0  0  0
    6.5621    5.3975  -10.4014 H   0  0  0  0  0  0  0  0  0  0  0  0
    7.0686    2.5547   -8.0117 H   0  0  0  0  0  0  0  0  0  0  0  0
    5.9357    2.3674   -5.8456 H   0  0  0  0  0  0  0  0  0  0  0  0
   -0.1179   -0.6845   -3.9823 H   0  0  0  0  0  0  0  0  0  0  0  0
   -2.3538   -1.6492   -3.6435 H   0  0  0  0  0  0  0  0  0  0  0  0
   -3.2873   -4.2914   -2.8915 H   0  0  0  0  0  0  0  0  0  0  0  0
   -3.2355   -5.2410   -4.4249 H   0  0  0  0  0  0  0  0  0  0  0  0
   -3.9393   -3.5832   -4.4215 H   0  0  0  0  0  0  0  0  0  0  0  0
   -0.9132   -5.4857   -4.9642 H   0  0  0  0  0  0  0  0  0  0  0  0
    1.2946   -4.5270   -5.3625 H   0  0  0  0  0  0  0  0  0  0  0  0
    3.6049   -2.5608   -7.0334 H   0  0  0  0  0  0  0  0  0  0  0  0
    5.4159   -4.2274   -7.1351 H   0  0  0  0  0  0  0  0  0  0  0  0
    7.3310   -5.2952   -5.4404 H   0  0  0  0  0  0  0  0  0  0  0  0
    6.5454   -6.2669   -4.1382 H   0  0  0  0  0  0  0  0  0  0  0  0
    6.0947   -6.5479   -5.8614 H   0  0  0  0  0  0  0  0  0  0  0  0
    4.9395   -4.9824   -2.9135 H   0  0  0  0  0  0  0  0  0  0  0  0
    3.1244   -3.3193   -2.8232 H   0  0  0  0  0  0  0  0  0  0  0  0
    1.2652   -1.7303   -7.8379 H   0  0  0  0  0  0  0  0  0  0  0  0
   -3.5675    1.7790   -5.8100 H   0  0  0  0  0  0  0  0  0  0  0  0
   -4.2564   -2.1004   -9.0497 H   0  0  0  0  0  0  0  0  0  0  0  0
   -7.1174   -0.1807   -8.6590 H   0  0  0  0  0  0  0  0  0  0  0  0
   -7.2915   -2.5515   -7.2267 H   0  0  0  0  0  0  0  0  0  0  0  0
   -9.6459   -1.3730   -6.8844 H   0  0  0  0  0  0  0  0  0  0  0  0
   -9.3270    0.6296   -5.2451 H   0  0  0  0  0  0  0  0  0  0  0  0
   -6.7648    0.7321   -4.5392 H   0  0  0  0  0  0  0  0  0  0  0  0
   -5.6126   -1.5177   -5.4157 H   0  0  0  0  0  0  0  0  0  0  0  0
   -7.2094   -1.8861   -4.6539 H   0  0  0  0  0  0  0  0  0  0  0  0
   -6.8041    1.6582   -7.1585 H   0  0  0  0  0  0  0  0  0  0  0  0
  1  2  2  3
  2  3  1  0
  3  4  2  0
  3  5  1  0
  5  6  2  0
  6  7  1  0
  7  8  2  0
  8  9  1  0
  9 10  2  0
 10 11  1  0
 11 12  2  3
 12 13  1  0
 13 14  3  0
 12 15  1  0
 15 16  3  0
  8 17  1  0
 17 18  1  0
 18 19  1  0
 19 20  2  0
 20 21  1  0
 21 22  1  0
 21 23  1  0
  1 24  1  0
 24 25  2  0
 25 26  1  0
 26 27  2  0
 27 28  1  0
 28 29  2  0
 29 30  1  0
 30 31  2  0
 31 32  1  0
 32 33  1  0
 31 34  1  0
 27 35  1  0
 35 36  2  0
 36 37  1  0
 37 38  1  0
 38 39  2  0
 39 40  1  0
 40 41  2  0
 41 42  1  0
 42 43  1  0
 41 44  1  0
 37 45  2  0
 45 46  1  0
 36 47  1  0
 47 48  2  0
 48 49  1  0
 48 50  1  0
 50 51  2  0
 51 52  1  0
 52 53  2  0
 53 54  1  0
 54 55  2  0
 55 56  1  0
 56 57  1  0
 57 58  1  0
 56 59  2  0
 51 60  1  0
 60 61  1  0
 61 62  1  0
 62 63  1  0
 63 64  1  0
 64 65  1  0
 65 66  2  0
 66 67  1  0
 67 68  1  0
 65 69  1  0
 69 70  1  0
 70 71  1  0
 71 72  1  0
 72 73  1  0
 73 74  1  0
 74 75  2  0
 75 76  1  0
 76 77  2  0
 77 78  1  0
 78 79  1  0
 79 80  1  0
 78 81  2  0
 73 82  2  0
 82 83  1  0
 83 84  1  0
 84 85  1  0
 85 86  1  0
 86 87  1  0
 87 88  1  0
 88 89  1  0
 89 90  1  0
 90 91  1  0
 91 92  1  0
 89 93  1  0
 93 94  1  0
 86 95  1  0
 95 96  1  0
 82 97  1  0
 97 98  2  0
 98 99  1  0
 99100  1  0
100101  2  0
101102  1  0
102103  2  0
103104  1  0
103105  1  0
105106  2  0
 99107  1  0
107108  2  0
108109  1  0
109110  2  0
110111  1  0
110112  1  0
112113  2  0
 98114  1  0
114115  1  0
115116  1  0
116117  2  0
117118  1  0
118119  1  0
119120  2  0
120121  1  0
121122  2  0
122123  1  0
122124  1  0
124125  2  0
118126  1  0
126127  2  0
127128  1  0
128129  2  0
129130  1  0
129131  1  0
131132  2  0
117133  1  0
133134  1  0
116135  1  0
135136  2  3
136137  1  0
137138  2  0
137139  1  0
139140  2  0
140141  1  0
141142  2  0
142143  1  0
143144  2  0
144145  1  0
145146  2  3
146147  1  0
147148  3  0
146149  1  0
149150  3  0
142151  1  0
151152  1  0
152153  1  0
153154  2  0
154155  1  0
155156  1  0
155157  1  0
 11  2  1  0
 23 17  1  0
 46 24  1  0
 92 50  1  0
134 97  1  0
145136  1  0
157151  1  0
 10  5  1  0
 22 18  1  0
 45 26  1  0
 59 52  1  0
 91 60  2  0
106100  1  0
113107  1  0
133114  2  0
144139  1  0
156152  1  0
 23  7  1  0
 34 28  1  0
 49 35  1  0
 90 62  2  0
125119  1  0
132126  1  0
157141  1  0
 44 38  1  0
 88 63  2  0
 68 64  2  0
 87 69  2  0
 85 70  2  0
 84 72  2  0
 81 74  1  0
  1158  1  0
  6159  1  0
  9160  1  0
 17161  1  0
 18162  1  0
 19163  1  0
 20164  1  0
 21165  1  0
 22166  1  0
 22167  1  0
 23168  1  0
 25169  1  0
 29170  1  0
 30171  1  0
 32172  1  0
 32173  1  0
 33174  1  0
 33175  1  0
 33176  1  0
 39177  1  0
 40178  1  0
 42179  1  0
 42180  1  0
 43181  1  0
 43182  1  0
 43183  1  0
 47184  1  0
 53185  1  0
 54186  1  0
 55187  1  0
 57188  1  0
 57189  1  0
 58190  1  0
 58191  1  0
 58192  1  0
 59193  1  0
 75194  1  0
 76195  1  0
 77196  1  0
 79197  1  0
 79198  1  0
 80199  1  0
 80200  1  0
 80201  1  0
 81202  1  0
 93203  1  0
 93204  1  0
 94205  1  0
 94206  1  0
 94207  1  0
 95208  1  0
 95209  1  0
 96210  1  0
 96211  1  0
 96212  1  0
101213  1  0
102214  1  0
104215  1  0
104216  1  0
104217  1  0
105218  1  0
106219  1  0
108220  1  0
109221  1  0
111222  1  0
111223  1  0
111224  1  0
112225  1  0
113226  1  0
120227  1  0
121228  1  0
123229  1  0
123230  1  0
123231  1  0
124232  1  0
125233  1  0
127234  1  0
128235  1  0
130236  1  0
130237  1  0
130238  1  0
131239  1  0
132240  1  0
135241  1  0
140242  1  0
143243  1  0
151244  1  0
152245  1  0
153246  1  0
154247  1  0
155248  1  0
156249  1  0
156250  1  0
157251  1  0
M  END

