
     RDKit          3D

199221  0  0  0  0  0  0  0  0999 V2000
    2.6920    2.6574   -7.6980 C   0  0  0  0  0  0  0  0  0  0  0  0
    2.8818    3.9911   -7.7177 C   0  0  0  0  0  0  0  0  0  0  0  0
    1.8809    5.0171   -8.0289 C   0  0  0  0  0  0  0  0  0  0  0  0
    0.9422    4.9064   -8.8641 O   0  0  0  0  0  0  0  0  0  0  0  0
    2.1919    6.2096   -7.2672 C   0  0  0  0  0  0  0  0  0  0  0  0
    1.3698    7.3443   -7.0763 C   0  0  0  0  0  0  0  0  0  0  0  0
    1.8433    8.2229   -6.1207 C   0  0  0  0  0  0  0  0  0  0  0  0
    3.0572    8.0007   -5.3855 C   0  0  0  0  0  0  0  0  0  0  0  0
    3.8779    6.9044   -5.5800 C   0  0  0  0  0  0  0  0  0  0  0  0
    3.4195    6.0044   -6.5832 C   0  0  0  0  0  0  0  0  0  0  0  0
    3.9833    4.6923   -6.9901 C   0  0  0  0  0  0  0  0  0  0  0  0
    5.2818    4.3076   -6.9075 C   0  0  0  0  0  0  0  0  0  0  0  0
    5.7671    3.1232   -7.5667 C   0  0  0  0  0  0  0  0  0  0  0  0
    6.1598    2.1763   -8.1008 N   0  0  0  0  0  0  0  0  0  0  0  0
    6.2923    5.1234   -6.2842 C   0  0  0  0  0  0  0  0  0  0  0  0
    7.1156    5.7691   -5.7882 N   0  0  0  0  0  0  0  0  0  0  0  0
    2.8318    9.2591   -4.6030 C   0  0  0  0  0  0  0  0  0  0  0  0
    3.7342   10.4735   -4.9711 C   0  0  0  0  0  0  0  0  0  0  0  0
    3.0609   11.6874   -4.3705 C   0  0  0  0  0  0  0  0  0  0  0  0
    1.9466   11.8983   -5.0849 C   0  0  0  0  0  0  0  0  0  0  0  0
    1.9035   10.8176   -6.1370 C   0  0  0  0  0  0  0  0  0  0  0  0
    3.3946   10.7214   -6.4320 C   0  0  0  0  0  0  0  0  0  0  0  0
    1.6020    9.4943   -5.3688 C   0  0  0  0  0  0  0  0  0  0  0  0
    1.4004    1.9268   -7.8335 C   0  0  0  0  0  0  0  0  0  0  0  0
    0.2050    2.4543   -7.3073 C   0  0  0  0  0  0  0  0  0  0  0  0
   -0.9122    1.6335   -7.0741 C   0  0  0  0  0  0  0  0  0  0  0  0
   -2.1193    2.1398   -6.5575 O   0  0  0  0  0  0  0  0  0  0  0  0
   -2.4596    3.5227   -6.4306 C   0  0  0  0  0  0  0  0  0  0  0  0
   -2.6805    4.1569   -7.8005 C   0  0  0  0  0  0  0  0  0  0  0  0
   -0.7976    0.2490   -7.2767 C   0  0  0  0  0  0  0  0  0  0  0  0
    0.3537   -0.2701   -7.8834 C   0  0  0  0  0  0  0  0  0  0  0  0
    1.4433    0.5647   -8.1964 C   0  0  0  0  0  0  0  0  0  0  0  0
    2.6095    0.0685   -8.8046 O   0  0  0  0  0  0  0  0  0  0  0  0
    2.7904   -1.2414   -9.3411 C   0  0  0  0  0  0  0  0  0  0  0  0
    1.9243   -1.4563  -10.5784 C   0  0  0  0  0  0  0  0  0  0  0  0
   -1.5806   -0.6396   -6.4068 C   0  0  0  0  0  0  0  0  0  0  0  0
   -2.5573   -1.6086   -6.7370 C   0  0  0  0  0  0  0  0  0  0  0  0
   -3.1114   -1.8400   -8.0813 C   0  0  0  0  0  0  0  0  0  0  0  0
   -4.4821   -1.6413   -8.3075 C   0  0  0  0  0  0  0  0  0  0  0  0
   -5.0244   -1.8590   -9.5765 C   0  0  0  0  0  0  0  0  0  0  0  0
   -4.2060   -2.2931  -10.6247 C   0  0  0  0  0  0  0  0  0  0  0  0
   -2.8382   -2.5209  -10.4084 C   0  0  0  0  0  0  0  0  0  0  0  0
   -1.9571   -2.9882  -11.5369 C   0  0  0  0  0  0  0  0  0  0  0  0
   -1.4488   -1.8056  -12.3523 C   0  0  0  0  0  0  0  0  0  0  0  0
   -2.2927   -2.2795   -9.1344 C   0  0  0  0  0  0  0  0  0  0  0  0
   -2.9993   -2.2661   -5.5753 C   0  0  0  0  0  0  0  0  0  0  0  0
   -3.9948   -3.6303   -5.2551 S   0  0  0  0  0  0  0  0  0  0  0  0
   -3.5648   -3.6069   -3.6014 C   0  0  0  0  0  0  0  0  0  0  0  0
   -3.7358   -4.3075   -2.4294 C   0  0  0  0  0  0  0  0  0  0  0  0
   -4.5931   -5.3547   -2.0620 C   0  0  0  0  0  0  0  0  0  0  0  0
   -4.6087   -5.7843   -0.6924 C   0  0  0  0  0  0  0  0  0  0  0  0
   -5.4723   -6.7764   -0.3713 N   0  0  0  0  0  0  0  0  0  0  0  0
   -6.1685   -7.0264   -1.8530 S   0  0  0  0  0  0  0  0  0  0  0  0
   -5.4567   -5.9679   -2.9086 N   0  0  0  0  0  0  0  0  0  0  0  0
   -3.7042   -5.2055    0.2084 C   0  0  0  0  0  0  0  0  0  0  0  0
   -3.4120   -5.4520    1.5332 C   0  0  0  0  0  0  0  0  0  0  0  0
   -3.9785   -6.2903    2.9093 S   0  0  0  0  0  0  0  0  0  0  0  0
   -2.7383   -5.6168    3.8937 C   0  0  0  0  0  0  0  0  0  0  0  0
   -2.4515   -5.5898    5.2719 C   0  0  0  0  0  0  0  0  0  0  0  0
   -3.1741   -6.3630    6.3012 C   0  0  0  0  0  0  0  0  0  0  0  0
   -3.3964   -7.7405    6.1315 C   0  0  0  0  0  0  0  0  0  0  0  0
   -4.0244   -8.4803    7.1376 C   0  0  0  0  0  0  0  0  0  0  0  0
   -4.4515   -7.8515    8.3101 C   0  0  0  0  0  0  0  0  0  0  0  0
   -4.2478   -6.4732    8.4907 C   0  0  0  0  0  0  0  0  0  0  0  0
   -4.7138   -5.7886    9.7471 C   0  0  0  0  0  0  0  0  0  0  0  0
   -6.0542   -5.0992    9.5237 C   0  0  0  0  0  0  0  0  0  0  0  0
   -3.6229   -5.7339    7.4760 C   0  0  0  0  0  0  0  0  0  0  0  0
   -1.3761   -4.7053    5.5282 C   0  0  0  0  0  0  0  0  0  0  0  0
   -0.8438   -3.9815    4.0858 S   0  0  0  0  0  0  0  0  0  0  0  0
   -1.9338   -4.7997    3.1423 C   0  0  0  0  0  0  0  0  0  0  0  0
   -2.3186   -4.7086    1.8241 C   0  0  0  0  0  0  0  0  0  0  0  0
   -1.8470   -3.9937    0.7813 N   0  0  0  0  0  0  0  0  0  0  0  0
   -2.7792   -4.2270   -0.1976 C   0  0  0  0  0  0  0  0  0  0  0  0
   -2.8840   -3.6809   -1.4974 C   0  0  0  0  0  0  0  0  0  0  0  0
   -2.3297   -2.5447   -2.0271 N   0  0  0  0  0  0  0  0  0  0  0  0
   -2.7241   -2.5894   -3.3176 C   0  0  0  0  0  0  0  0  0  0  0  0
   -2.4030   -1.8321   -4.4218 C   0  0  0  0  0  0  0  0  0  0  0  0
   -1.2821   -0.6476   -4.7348 S   0  0  0  0  0  0  0  0  0  0  0  0
   -1.8253   -1.3255   -1.3665 C   0  0  0  0  0  0  0  0  0  0  0  0
   -2.7264   -0.8757   -0.2134 C   0  0  0  0  0  0  0  0  0  0  0  0
   -0.4521   -3.5266    0.6773 C   0  0  0  0  0  0  0  0  0  0  0  0
    0.2618   -4.1122   -0.5442 C   0  0  0  0  0  0  0  0  0  0  0  0
   -0.7394   -4.3460    6.7994 C   0  0  0  0  0  0  0  0  0  0  0  0
    0.6523   -4.4272    6.8928 C   0  0  0  0  0  0  0  0  0  0  0  0
    1.2501   -3.3257    7.5250 C   0  0  0  0  0  0  0  0  0  0  0  0
    2.6169   -2.9907    7.4370 C   0  0  0  0  0  0  0  0  0  0  0  0
    3.6041   -3.9123    6.8445 C   0  0  0  0  0  0  0  0  0  0  0  0
    3.9209   -5.1738    7.3325 C   0  0  0  0  0  0  0  0  0  0  0  0
    4.8870   -5.8307    6.5610 C   0  0  0  0  0  0  0  0  0  0  0  0
    5.3427   -7.0735    6.8557 F   0  0  0  0  0  0  0  0  0  0  0  0
    5.3345   -5.0905    5.4724 C   0  0  0  0  0  0  0  0  0  0  0  0
    6.3297   -5.5413    4.4478 C   0  0  0  0  0  0  0  0  0  0  0  0
    5.6276   -6.2513    3.2952 C   0  0  0  0  0  0  0  0  0  0  0  0
    4.5057   -3.6260    5.4508 S   0  0  0  0  0  0  0  0  0  0  0  0
    2.9731   -1.6825    7.8060 C   0  0  0  0  0  0  0  0  0  0  0  0
    2.0449   -0.7499    8.2903 C   0  0  0  0  0  0  0  0  0  0  0  0
    0.6876   -1.1112    8.4461 C   0  0  0  0  0  0  0  0  0  0  0  0
   -0.3390   -0.1724    8.9376 C   0  0  0  0  0  0  0  0  0  0  0  0
   -0.6755    1.3541    8.3145 S   0  0  0  0  0  0  0  0  0  0  0  0
   -1.9220    1.7207    9.3859 C   0  0  0  0  0  0  0  0  0  0  0  0
   -2.6604    3.0269    9.4642 C   0  0  0  0  0  0  0  0  0  0  0  0
   -3.2837    3.4416    8.1253 C   0  0  0  0  0  0  0  0  0  0  0  0
   -4.2997    2.4203    7.6090 C   0  0  0  0  0  0  0  0  0  0  0  0
   -2.0872    0.6397   10.2448 C   0  0  0  0  0  0  0  0  0  0  0  0
   -1.2143   -0.4231    9.9890 C   0  0  0  0  0  0  0  0  0  0  0  0
   -3.0023    0.6106   11.2458 F   0  0  0  0  0  0  0  0  0  0  0  0
    0.3248   -2.4053    8.0246 C   0  0  0  0  0  0  0  0  0  0  0  0
   -1.2111   -2.9390    7.6075 S   0  0  0  0  0  0  0  0  0  0  0  0
    2.6004    0.5326    8.4616 C   0  0  0  0  0  0  0  0  0  0  0  0
    3.9348    0.6010    8.0669 C   0  0  0  0  0  0  0  0  0  0  0  0
    4.4549   -0.9206    7.5732 S   0  0  0  0  0  0  0  0  0  0  0  0
    4.6486    1.8366    7.7267 C   0  0  0  0  0  0  0  0  0  0  0  0
    4.4535    2.4700    6.5495 C   0  0  0  0  0  0  0  0  0  0  0  0
    3.5692    2.0054    5.4662 C   0  0  0  0  0  0  0  0  0  0  0  0
    2.6859    1.1104    5.5440 O   0  0  0  0  0  0  0  0  0  0  0  0
    3.9036    2.7200    4.2594 C   0  0  0  0  0  0  0  0  0  0  0  0
    3.3537    2.5543    2.9887 C   0  0  0  0  0  0  0  0  0  0  0  0
    3.8593    3.3246    1.9296 C   0  0  0  0  0  0  0  0  0  0  0  0
    3.1545    3.1304    0.3295 Cl  0  0  0  0  0  0  0  0  0  0  0  0
    4.9281    4.2177    2.1587 C   0  0  0  0  0  0  0  0  0  0  0  0
    5.6809    5.2515    0.7339 Br  0  0  0  0  0  0  0  0  0  0  0  0
    5.4662    4.3634    3.4513 C   0  0  0  0  0  0  0  0  0  0  0  0
    4.9151    3.6270    4.5152 C   0  0  0  0  0  0  0  0  0  0  0  0
    5.2500    3.6033    5.9727 C   0  0  0  0  0  0  0  0  0  0  0  0
    5.9509    4.5418    6.6618 C   0  0  0  0  0  0  0  0  0  0  0  0
    6.0164    4.5546    8.0996 C   0  0  0  0  0  0  0  0  0  0  0  0
    6.0729    4.5722    9.2560 N   0  0  0  0  0  0  0  0  0  0  0  0
    6.5924    5.6578    6.0204 C   0  0  0  0  0  0  0  0  0  0  0  0
    7.1127    6.5646    5.5211 N   0  0  0  0  0  0  0  0  0  0  0  0
    3.5044    2.0393   -7.3559 H   0  0  0  0  0  0  0  0  0  0  0  0
    0.4211    7.4850   -7.5787 H   0  0  0  0  0  0  0  0  0  0  0  0
    4.7592    6.7533   -4.9753 H   0  0  0  0  0  0  0  0  0  0  0  0
    2.6733    9.0884   -3.5174 H   0  0  0  0  0  0  0  0  0  0  0  0
    4.8133   10.3642   -4.7339 H   0  0  0  0  0  0  0  0  0  0  0  0
    3.4304   12.3282   -3.5788 H   0  0  0  0  0  0  0  0  0  0  0  0
    1.2657   12.7337   -4.9758 H   0  0  0  0  0  0  0  0  0  0  0  0
    1.2529   11.0307   -7.0147 H   0  0  0  0  0  0  0  0  0  0  0  0
    3.8428   11.6661   -6.8325 H   0  0  0  0  0  0  0  0  0  0  0  0
    3.6688    9.8869   -7.1156 H   0  0  0  0  0  0  0  0  0  0  0  0
    0.6684    9.4804   -4.7606 H   0  0  0  0  0  0  0  0  0  0  0  0
    0.1786    3.4662   -6.9431 H   0  0  0  0  0  0  0  0  0  0  0  0
   -1.6842    4.0721   -5.8578 H   0  0  0  0  0  0  0  0  0  0  0  0
   -3.4103    3.5905   -5.8612 H   0  0  0  0  0  0  0  0  0  0  0  0
   -2.9828    5.2186   -7.6694 H   0  0  0  0  0  0  0  0  0  0  0  0
   -3.4923    3.6220   -8.3476 H   0  0  0  0  0  0  0  0  0  0  0  0
   -1.7515    4.1317   -8.4078 H   0  0  0  0  0  0  0  0  0  0  0  0
    0.4633   -1.3422   -7.9665 H   0  0  0  0  0  0  0  0  0  0  0  0
    2.5895   -2.0080   -8.5630 H   0  0  0  0  0  0  0  0  0  0  0  0
    3.8574   -1.3418   -9.6354 H   0  0  0  0  0  0  0  0  0  0  0  0
    2.2964   -2.3289  -11.1553 H   0  0  0  0  0  0  0  0  0  0  0  0
    1.9345   -0.5506  -11.2190 H   0  0  0  0  0  0  0  0  0  0  0  0
    0.8796   -1.6697  -10.2783 H   0  0  0  0  0  0  0  0  0  0  0  0
   -5.1289   -1.3033   -7.5062 H   0  0  0  0  0  0  0  0  0  0  0  0
   -6.0795   -1.6950   -9.7465 H   0  0  0  0  0  0  0  0  0  0  0  0
   -4.6411   -2.4588  -11.6014 H   0  0  0  0  0  0  0  0  0  0  0  0
   -1.0946   -3.5610  -11.1349 H   0  0  0  0  0  0  0  0  0  0  0  0
   -2.5278   -3.6716  -12.2030 H   0  0  0  0  0  0  0  0  0  0  0  0
   -0.9382   -1.0711  -11.6955 H   0  0  0  0  0  0  0  0  0  0  0  0
   -0.7292   -2.1662  -13.1152 H   0  0  0  0  0  0  0  0  0  0  0  0
   -2.2964   -1.3036  -12.8660 H   0  0  0  0  0  0  0  0  0  0  0  0
   -1.2464   -2.4682   -8.9582 H   0  0  0  0  0  0  0  0  0  0  0  0
   -3.0509   -8.2460    5.2373 H   0  0  0  0  0  0  0  0  0  0  0  0
   -4.1823   -9.5436    7.0069 H   0  0  0  0  0  0  0  0  0  0  0  0
   -4.9412   -8.4394    9.0808 H   0  0  0  0  0  0  0  0  0  0  0  0
   -3.9623   -5.0322   10.0615 H   0  0  0  0  0  0  0  0  0  0  0  0
   -4.8128   -6.5214   10.5771 H   0  0  0  0  0  0  0  0  0  0  0  0
   -6.8237   -5.8417    9.2225 H   0  0  0  0  0  0  0  0  0  0  0  0
   -5.9660   -4.3241    8.7350 H   0  0  0  0  0  0  0  0  0  0  0  0
   -6.3848   -4.6104   10.4647 H   0  0  0  0  0  0  0  0  0  0  0  0
   -3.4987   -4.6670    7.5958 H   0  0  0  0  0  0  0  0  0  0  0  0
   -0.7717   -1.4358   -1.0749 H   0  0  0  0  0  0  0  0  0  0  0  0
   -1.8147   -0.4792   -2.0842 H   0  0  0  0  0  0  0  0  0  0  0  0
   -2.7270   -1.6006    0.6212 H   0  0  0  0  0  0  0  0  0  0  0  0
   -3.7685   -0.7476   -0.5803 H   0  0  0  0  0  0  0  0  0  0  0  0
   -2.3650    0.0963    0.1765 H   0  0  0  0  0  0  0  0  0  0  0  0
    0.1294   -3.8768    1.5515 H   0  0  0  0  0  0  0  0  0  0  0  0
   -0.3955   -2.4289    0.7383 H   0  0  0  0  0  0  0  0  0  0  0  0
    1.3539   -3.9392   -0.4553 H   0  0  0  0  0  0  0  0  0  0  0  0
    0.0828   -5.2053   -0.6043 H   0  0  0  0  0  0  0  0  0  0  0  0
   -0.0741   -3.6453   -1.4875 H   0  0  0  0  0  0  0  0  0  0  0  0
    1.2188   -5.1427    6.3070 H   0  0  0  0  0  0  0  0  0  0  0  0
    3.4756   -5.6033    8.2186 H   0  0  0  0  0  0  0  0  0  0  0  0
    7.0671   -6.2290    4.9193 H   0  0  0  0  0  0  0  0  0  0  0  0
    6.8846   -4.6582    4.0555 H   0  0  0  0  0  0  0  0  0  0  0  0
    4.9376   -5.5433    2.7754 H   0  0  0  0  0  0  0  0  0  0  0  0
    5.0492   -7.1242    3.6746 H   0  0  0  0  0  0  0  0  0  0  0  0
    6.3855   -6.6110    2.5665 H   0  0  0  0  0  0  0  0  0  0  0  0
   -1.9493    3.8163    9.7920 H   0  0  0  0  0  0  0  0  0  0  0  0
   -3.4582    2.9651   10.2382 H   0  0  0  0  0  0  0  0  0  0  0  0
   -2.4903    3.5911    7.3618 H   0  0  0  0  0  0  0  0  0  0  0  0
   -3.8013    4.4150    8.2632 H   0  0  0  0  0  0  0  0  0  0  0  0
   -3.7872    1.4850    7.3016 H   0  0  0  0  0  0  0  0  0  0  0  0
   -5.0480    2.1867    8.3925 H   0  0  0  0  0  0  0  0  0  0  0  0
   -4.8258    2.8341    6.7225 H   0  0  0  0  0  0  0  0  0  0  0  0
   -1.2150   -1.3409   10.5605 H   0  0  0  0  0  0  0  0  0  0  0  0
    2.0408    1.4090    8.7533 H   0  0  0  0  0  0  0  0  0  0  0  0
    5.4496    2.1273    8.3890 H   0  0  0  0  0  0  0  0  0  0  0  0
    2.5520    1.8465    2.8211 H   0  0  0  0  0  0  0  0  0  0  0  0
    6.3076    5.0216    3.5869 H   0  0  0  0  0  0  0  0  0  0  0  0
  1  2  2  3
  2  3  1  0
  3  4  2  0
  3  5  1  0
  5  6  2  0
  6  7  1  0
  7  8  2  0
  8  9  1  0
  9 10  2  0
 10 11  1  0
 11 12  2  3
 12 13  1  0
 13 14  3  0
 12 15  1  0
 15 16  3  0
  8 17  1  0
 17 18  1  0
 18 19  1  0
 19 20  2  0
 20 21  1  0
 21 22  1  0
 21 23  1  0
  1 24  1  0
 24 25  2  0
 25 26  1  0
 26 27  1  0
 27 28  1  0
 28 29  1  0
 26 30  2  0
 30 31  1  0
 31 32  2  0
 32 33  1  0
 33 34  1  0
 34 35  1  0
 30 36  1  0
 36 37  2  0
 37 38  1  0
 38 39  2  0
 39 40  1  0
 40 41  2  0
 41 42  1  0
 42 43  1  0
 43 44  1  0
 42 45  2  0
 37 46  1  0
 46 47  1  0
 47 48  1  0
 48 49  1  0
 49 50  1  0
 50 51  1  0
 51 52  2  0
 52 53  1  0
 53 54  1  0
 51 55  1  0
 55 56  1  0
 56 57  1  0
 57 58  1  0
 58 59  1  0
 59 60  1  0
 60 61  2  0
 61 62  1  0
 62 63  2  0
 63 64  1  0
 64 65  1  0
 65 66  1  0
 64 67  2  0
 59 68  2  0
 68 69  1  0
 69 70  1  0
 70 71  1  0
 71 72  1  0
 72 73  1  0
 73 74  1  0
 74 75  1  0
 75 76  1  0
 76 77  1  0
 77 78  1  0
 75 79  1  0
 79 80  1  0
 72 81  1  0
 81 82  1  0
 68 83  1  0
 83 84  2  0
 84 85  1  0
 85 86  2  0
 86 87  1  0
 87 88  2  0
 88 89  1  0
 89 90  1  0
 89 91  2  0
 91 92  1  0
 92 93  1  0
 91 94  1  0
 86 95  1  0
 95 96  2  0
 96 97  1  0
 97 98  1  0
 98 99  1  0
 99100  1  0
100101  1  0
101102  1  0
102103  1  0
100104  2  0
104105  1  0
104106  1  0
 97107  2  0
107108  1  0
 96109  1  0
109110  2  0
110111  1  0
110112  1  0
112113  2  3
113114  1  0
114115  2  0
114116  1  0
116117  2  0
117118  1  0
118119  1  0
118120  2  0
120121  1  0
120122  1  0
122123  2  0
123124  1  0
124125  2  3
125126  1  0
126127  3  0
125128  1  0
128129  3  0
 11  2  1  0
 23 17  1  0
 32 24  1  0
 78 36  1  0
108 83  1  0
124113  1  0
 10  5  1  0
 22 18  1  0
 45 38  1  0
 77 46  2  0
107 85  1  0
123116  1  0
 23  7  1  0
 76 48  2  0
 94 87  1  0
111 95  1  0
 74 49  2  0
105 98  2  0
 54 50  2  0
 73 55  2  0
 71 56  2  0
 70 58  2  0
 67 60  1  0
  1130  1  0
  6131  1  0
  9132  1  0
 17133  1  0
 18134  1  0
 19135  1  0
 20136  1  0
 21137  1  0
 22138  1  0
 22139  1  0
 23140  1  0
 25141  1  0
 28142  1  0
 28143  1  0
 29144  1  0
 29145  1  0
 29146  1  0
 31147  1  0
 34148  1  0
 34149  1  0
 35150  1  0
 35151  1  0
 35152  1  0
 39153  1  0
 40154  1  0
 41155  1  0
 43156  1  0
 43157  1  0
 44158  1  0
 44159  1  0
 44160  1  0
 45161  1  0
 61162  1  0
 62163  1  0
 63164  1  0
 65165  1  0
 65166  1  0
 66167  1  0
 66168  1  0
 66169  1  0
 67170  1  0
 79171  1  0
 79172  1  0
 80173  1  0
 80174  1  0
 80175  1  0
 81176  1  0
 81177  1  0
 82178  1  0
 82179  1  0
 82180  1  0
 84181  1  0
 88182  1  0
 92183  1  0
 92184  1  0
 93185  1  0
 93186  1  0
 93187  1  0
101188  1  0
101189  1  0
102190  1  0
102191  1  0
103192  1  0
103193  1  0
103194  1  0
105195  1  0
109196  1  0
112197  1  0
117198  1  0
122199  1  0
M  END

