
     RDKit          3D

187210  0  0  0  0  0  0  0  0999 V2000
   -0.1489   -8.8272   -3.9900 C   0  0  0  0  0  0  0  0  0  0  0  0
   -0.7903   -8.2630   -2.9425 C   0  0  0  0  0  0  0  0  0  0  0  0
   -0.2395   -7.1979   -2.0864 C   0  0  0  0  0  0  0  0  0  0  0  0
    0.7167   -6.4264   -2.3621 O   0  0  0  0  0  0  0  0  0  0  0  0
   -0.9673   -7.1728   -0.8438 C   0  0  0  0  0  0  0  0  0  0  0  0
   -0.6417   -6.4223    0.3071 C   0  0  0  0  0  0  0  0  0  0  0  0
   -1.4296   -6.7149    1.4008 C   0  0  0  0  0  0  0  0  0  0  0  0
   -2.4822   -7.6849    1.3741 C   0  0  0  0  0  0  0  0  0  0  0  0
   -2.8060   -8.4233    0.2450 C   0  0  0  0  0  0  0  0  0  0  0  0
   -2.0147   -8.1248   -0.9017 C   0  0  0  0  0  0  0  0  0  0  0  0
   -2.0250   -8.7530   -2.2561 C   0  0  0  0  0  0  0  0  0  0  0  0
   -3.0608   -9.4167   -2.8305 C   0  0  0  0  0  0  0  0  0  0  0  0
   -3.0505   -9.8003   -4.2177 C   0  0  0  0  0  0  0  0  0  0  0  0
   -3.0557  -10.1110   -5.3333 N   0  0  0  0  0  0  0  0  0  0  0  0
   -4.3105   -9.6299   -2.1471 C   0  0  0  0  0  0  0  0  0  0  0  0
   -5.3260   -9.7900   -1.6190 N   0  0  0  0  0  0  0  0  0  0  0  0
   -2.7790   -7.4226    2.8217 C   0  0  0  0  0  0  0  0  0  0  0  0
   -4.0446   -6.5826    3.1690 C   0  0  0  0  0  0  0  0  0  0  0  0
   -4.3326   -5.5972    2.0599 C   0  0  0  0  0  0  0  0  0  0  0  0
   -3.3475   -4.6985    2.0843 C   0  0  0  0  0  0  0  0  0  0  0  0
   -2.4208   -5.1032    3.2071 C   0  0  0  0  0  0  0  0  0  0  0  0
   -3.4500   -5.6286    4.1892 C   0  0  0  0  0  0  0  0  0  0  0  0
   -1.6953   -6.4340    2.8474 C   0  0  0  0  0  0  0  0  0  0  0  0
    1.1842   -8.3509   -4.4062 C   0  0  0  0  0  0  0  0  0  0  0  0
    2.3385   -8.7637   -3.7023 C   0  0  0  0  0  0  0  0  0  0  0  0
    2.4262   -9.8768   -2.8489 C   0  0  0  0  0  0  0  0  0  0  0  0
    3.6174   -9.9150   -2.1271 C   0  0  0  0  0  0  0  0  0  0  0  0
    3.9695  -10.8952   -1.0935 C   0  0  0  0  0  0  0  0  0  0  0  0
    3.1809  -11.8431   -0.8260 O   0  0  0  0  0  0  0  0  0  0  0  0
    5.1795  -10.7564   -0.4049 O   0  0  0  0  0  0  0  0  0  0  0  0
    5.5438  -11.5580    0.7169 C   0  0  0  0  0  0  0  0  0  0  0  0
    4.7894  -11.1059    1.9616 C   0  0  0  0  0  0  0  0  0  0  0  0
    4.5525   -8.5685   -2.5201 S   0  0  0  0  0  0  0  0  0  0  0  0
    3.4660   -7.9301   -3.6363 C   0  0  0  0  0  0  0  0  0  0  0  0
    3.4950   -6.6534   -4.2279 C   0  0  0  0  0  0  0  0  0  0  0  0
    2.4071   -6.3513   -5.0616 C   0  0  0  0  0  0  0  0  0  0  0  0
    1.3015   -7.1671   -5.1503 C   0  0  0  0  0  0  0  0  0  0  0  0
    0.3097   -6.4720   -5.7330 N   0  0  0  0  0  0  0  0  0  0  0  0
    0.8358   -5.2850   -6.0154 N   0  0  0  0  0  0  0  0  0  0  0  0
    0.0619   -4.1769   -6.5579 C   0  0  0  0  0  0  0  0  0  0  0  0
   -0.4676   -3.3058   -5.4255 C   0  0  0  0  0  0  0  0  0  0  0  0
    2.0866   -5.1571   -5.5856 N   0  0  0  0  0  0  0  0  0  0  0  0
    4.2326   -5.5615   -3.5669 C   0  0  0  0  0  0  0  0  0  0  0  0
    4.8837   -4.4697   -4.1865 C   0  0  0  0  0  0  0  0  0  0  0  0
    5.1040   -4.3545   -5.6422 C   0  0  0  0  0  0  0  0  0  0  0  0
    4.6604   -3.2206   -6.3410 C   0  0  0  0  0  0  0  0  0  0  0  0
    4.7877   -3.1520   -7.7294 C   0  0  0  0  0  0  0  0  0  0  0  0
    5.3563   -4.2162   -8.4330 C   0  0  0  0  0  0  0  0  0  0  0  0
    5.8193   -5.3503   -7.7492 C   0  0  0  0  0  0  0  0  0  0  0  0
    6.3952   -6.5138   -8.5091 C   0  0  0  0  0  0  0  0  0  0  0  0
    5.3194   -7.5529   -8.8081 C   0  0  0  0  0  0  0  0  0  0  0  0
    5.6764   -5.4204   -6.3525 C   0  0  0  0  0  0  0  0  0  0  0  0
    5.1070   -3.4388   -3.2602 C   0  0  0  0  0  0  0  0  0  0  0  0
    5.6466   -1.8161   -3.3882 S   0  0  0  0  0  0  0  0  0  0  0  0
    5.1609   -1.4973   -1.7911 C   0  0  0  0  0  0  0  0  0  0  0  0
    4.9606   -0.4371   -0.9504 C   0  0  0  0  0  0  0  0  0  0  0  0
    5.3815    0.8926   -0.9932 C   0  0  0  0  0  0  0  0  0  0  0  0
    5.0043    1.7589    0.0787 C   0  0  0  0  0  0  0  0  0  0  0  0
    5.4147    3.0499   -0.0101 N   0  0  0  0  0  0  0  0  0  0  0  0
    6.2566    2.9806   -1.4360 S   0  0  0  0  0  0  0  0  0  0  0  0
    6.1370    1.4226   -1.9868 N   0  0  0  0  0  0  0  0  0  0  0  0
    4.1670    1.2637    1.0951 C   0  0  0  0  0  0  0  0  0  0  0  0
    3.3831    1.9443    1.9825 C   0  0  0  0  0  0  0  0  0  0  0  0
    3.0292    3.5826    2.2261 S   0  0  0  0  0  0  0  0  0  0  0  0
    1.4840    3.2009    2.8190 C   0  0  0  0  0  0  0  0  0  0  0  0
    0.3747    3.9953    3.1103 C   0  0  0  0  0  0  0  0  0  0  0  0
    0.4560    5.4650    3.2336 C   0  0  0  0  0  0  0  0  0  0  0  0
    0.8219    6.2535    2.1326 C   0  0  0  0  0  0  0  0  0  0  0  0
    0.8594    7.6454    2.2465 C   0  0  0  0  0  0  0  0  0  0  0  0
    0.5262    8.2609    3.4562 C   0  0  0  0  0  0  0  0  0  0  0  0
    0.1564    7.4841    4.5653 C   0  0  0  0  0  0  0  0  0  0  0  0
   -0.2193    8.1414    5.8658 C   0  0  0  0  0  0  0  0  0  0  0  0
    0.9656    8.1653    6.8242 C   0  0  0  0  0  0  0  0  0  0  0  0
    0.1530    6.0834    4.4568 C   0  0  0  0  0  0  0  0  0  0  0  0
   -0.7986    3.2100    3.2302 C   0  0  0  0  0  0  0  0  0  0  0  0
   -0.3948    1.5701    2.9921 S   0  0  0  0  0  0  0  0  0  0  0  0
    1.2456    1.8515    2.7626 C   0  0  0  0  0  0  0  0  0  0  0  0
    2.3468    1.1214    2.3136 C   0  0  0  0  0  0  0  0  0  0  0  0
    2.4600   -0.1136    1.7541 N   0  0  0  0  0  0  0  0  0  0  0  0
    3.6423   -0.0385    1.0528 C   0  0  0  0  0  0  0  0  0  0  0  0
    4.1697   -0.9385    0.0947 C   0  0  0  0  0  0  0  0  0  0  0  0
    4.0014   -2.2897   -0.0216 N   0  0  0  0  0  0  0  0  0  0  0  0
    4.6021   -2.5755   -1.1978 C   0  0  0  0  0  0  0  0  0  0  0  0
    4.6092   -3.6890   -2.0068 C   0  0  0  0  0  0  0  0  0  0  0  0
    3.8872   -5.1821   -1.9404 S   0  0  0  0  0  0  0  0  0  0  0  0
    3.6943   -3.2560    1.0373 C   0  0  0  0  0  0  0  0  0  0  0  0
    4.9459   -4.0184    1.4696 C   0  0  0  0  0  0  0  0  0  0  0  0
    1.3118   -0.9942    1.4807 C   0  0  0  0  0  0  0  0  0  0  0  0
    0.8095   -1.6809    2.7544 C   0  0  0  0  0  0  0  0  0  0  0  0
   -2.1884    3.7095    3.2973 C   0  0  0  0  0  0  0  0  0  0  0  0
   -3.3606    2.9515    3.3296 C   0  0  0  0  0  0  0  0  0  0  0  0
   -4.5369    3.7275    3.2755 C   0  0  0  0  0  0  0  0  0  0  0  0
   -6.1808    3.0115    3.3762 S   0  0  0  0  0  0  0  0  0  0  0  0
   -6.3298    2.6552    1.5901 C   0  0  0  0  0  0  0  0  0  0  0  0
   -6.6083    3.9223    0.7892 C   0  0  0  0  0  0  0  0  0  0  0  0
   -4.2988    5.0969    3.1609 C   0  0  0  0  0  0  0  0  0  0  0  0
   -2.6390    5.3161    3.1960 S   0  0  0  0  0  0  0  0  0  0  0  0
   -5.2801    6.1958    3.2610 C   0  0  0  0  0  0  0  0  0  0  0  0
   -5.0616    7.4103    2.7158 C   0  0  0  0  0  0  0  0  0  0  0  0
   -3.9945    7.7259    1.7574 C   0  0  0  0  0  0  0  0  0  0  0  0
   -3.5600    6.9623    0.8543 O   0  0  0  0  0  0  0  0  0  0  0  0
   -3.5395    9.0746    2.0000 C   0  0  0  0  0  0  0  0  0  0  0  0
   -2.3708    9.6827    1.4891 C   0  0  0  0  0  0  0  0  0  0  0  0
   -2.0855   10.9070    2.0629 C   0  0  0  0  0  0  0  0  0  0  0  0
   -2.8942   11.5042    3.0834 C   0  0  0  0  0  0  0  0  0  0  0  0
   -4.0433   10.9126    3.5848 C   0  0  0  0  0  0  0  0  0  0  0  0
   -4.3670    9.6611    2.9903 C   0  0  0  0  0  0  0  0  0  0  0  0
   -5.4549    8.7043    3.3364 C   0  0  0  0  0  0  0  0  0  0  0  0
   -6.6439    8.9942    3.9141 C   0  0  0  0  0  0  0  0  0  0  0  0
   -7.7164    8.0332    3.9547 C   0  0  0  0  0  0  0  0  0  0  0  0
   -8.5850    7.2704    3.9764 N   0  0  0  0  0  0  0  0  0  0  0  0
   -6.9723   10.3169    4.3792 C   0  0  0  0  0  0  0  0  0  0  0  0
   -7.2452   11.3758    4.7577 N   0  0  0  0  0  0  0  0  0  0  0  0
   -1.9553   12.6704    3.1656 C   0  0  0  0  0  0  0  0  0  0  0  0
   -2.4415   14.0027    2.5241 C   0  0  0  0  0  0  0  0  0  0  0  0
   -1.2133   14.8661    2.3744 C   0  0  0  0  0  0  0  0  0  0  0  0
   -0.4717   14.3093    1.4096 C   0  0  0  0  0  0  0  0  0  0  0  0
   -1.2228   13.0875    0.9439 C   0  0  0  0  0  0  0  0  0  0  0  0
   -2.6392   13.6263    1.0651 C   0  0  0  0  0  0  0  0  0  0  0  0
   -1.1336   12.0627    2.1137 C   0  0  0  0  0  0  0  0  0  0  0  0
   -0.5120   -9.7301   -4.4515 H   0  0  0  0  0  0  0  0  0  0  0  0
    0.1780   -5.7172    0.3466 H   0  0  0  0  0  0  0  0  0  0  0  0
   -3.5620   -9.1907    0.2801 H   0  0  0  0  0  0  0  0  0  0  0  0
   -2.5957   -8.2966    3.4857 H   0  0  0  0  0  0  0  0  0  0  0  0
   -4.9203   -7.1683    3.5162 H   0  0  0  0  0  0  0  0  0  0  0  0
   -5.2067   -5.5624    1.4169 H   0  0  0  0  0  0  0  0  0  0  0  0
   -3.2807   -3.8124    1.4635 H   0  0  0  0  0  0  0  0  0  0  0  0
   -1.7626   -4.2930    3.5879 H   0  0  0  0  0  0  0  0  0  0  0  0
   -4.1679   -4.8487    4.5390 H   0  0  0  0  0  0  0  0  0  0  0  0
   -3.0004   -6.1410    5.0730 H   0  0  0  0  0  0  0  0  0  0  0  0
   -0.8526   -6.7076    3.5212 H   0  0  0  0  0  0  0  0  0  0  0  0
    1.6336  -10.6035   -2.7273 H   0  0  0  0  0  0  0  0  0  0  0  0
    6.6333  -11.4379    0.8961 H   0  0  0  0  0  0  0  0  0  0  0  0
    5.3444  -12.6313    0.5102 H   0  0  0  0  0  0  0  0  0  0  0  0
    3.6993  -11.2759    1.8375 H   0  0  0  0  0  0  0  0  0  0  0  0
    5.1430  -11.6824    2.8418 H   0  0  0  0  0  0  0  0  0  0  0  0
    4.9707  -10.0256    2.1441 H   0  0  0  0  0  0  0  0  0  0  0  0
    0.7051   -3.5651   -7.2272 H   0  0  0  0  0  0  0  0  0  0  0  0
   -0.7890   -4.5701   -7.1552 H   0  0  0  0  0  0  0  0  0  0  0  0
   -1.0815   -2.4811   -5.8447 H   0  0  0  0  0  0  0  0  0  0  0  0
   -1.0995   -3.9112   -4.7404 H   0  0  0  0  0  0  0  0  0  0  0  0
    0.3775   -2.8675   -4.8523 H   0  0  0  0  0  0  0  0  0  0  0  0
    4.1717   -2.4068   -5.8206 H   0  0  0  0  0  0  0  0  0  0  0  0
    4.4205   -2.2859   -8.2616 H   0  0  0  0  0  0  0  0  0  0  0  0
    5.4348   -4.1535   -9.5112 H   0  0  0  0  0  0  0  0  0  0  0  0
    6.8409   -6.1648   -9.4660 H   0  0  0  0  0  0  0  0  0  0  0  0
    7.2104   -6.9858   -7.9187 H   0  0  0  0  0  0  0  0  0  0  0  0
    4.9071   -7.9647   -7.8631 H   0  0  0  0  0  0  0  0  0  0  0  0
    5.7626   -8.3837   -9.3957 H   0  0  0  0  0  0  0  0  0  0  0  0
    4.4967   -7.0970   -9.3986 H   0  0  0  0  0  0  0  0  0  0  0  0
    6.0103   -6.3048   -5.8223 H   0  0  0  0  0  0  0  0  0  0  0  0
    1.0593    5.7907    1.1823 H   0  0  0  0  0  0  0  0  0  0  0  0
    1.1344    8.2504    1.3925 H   0  0  0  0  0  0  0  0  0  0  0  0
    0.5518    9.3410    3.5250 H   0  0  0  0  0  0  0  0  0  0  0  0
   -0.5698    9.1816    5.6892 H   0  0  0  0  0  0  0  0  0  0  0  0
   -1.0609    7.5876    6.3376 H   0  0  0  0  0  0  0  0  0  0  0  0
    1.8075    8.7387    6.3800 H   0  0  0  0  0  0  0  0  0  0  0  0
    0.6647    8.6526    7.7765 H   0  0  0  0  0  0  0  0  0  0  0  0
    1.3043    7.1303    7.0489 H   0  0  0  0  0  0  0  0  0  0  0  0
   -0.1202    5.4774    5.3124 H   0  0  0  0  0  0  0  0  0  0  0  0
    3.3314   -2.7282    1.9337 H   0  0  0  0  0  0  0  0  0  0  0  0
    2.9165   -3.9688    0.6878 H   0  0  0  0  0  0  0  0  0  0  0  0
    5.3582   -4.6143    0.6308 H   0  0  0  0  0  0  0  0  0  0  0  0
    4.6896   -4.7093    2.3002 H   0  0  0  0  0  0  0  0  0  0  0  0
    5.7221   -3.3055    1.8232 H   0  0  0  0  0  0  0  0  0  0  0  0
    1.5532   -1.7557    0.7156 H   0  0  0  0  0  0  0  0  0  0  0  0
    0.4876   -0.3934    1.0413 H   0  0  0  0  0  0  0  0  0  0  0  0
    1.5349   -2.4251    3.1329 H   0  0  0  0  0  0  0  0  0  0  0  0
    0.6284   -0.9469    3.5627 H   0  0  0  0  0  0  0  0  0  0  0  0
   -0.1422   -2.2090    2.5366 H   0  0  0  0  0  0  0  0  0  0  0  0
   -3.3711    1.8712    3.3897 H   0  0  0  0  0  0  0  0  0  0  0  0
   -5.4098    2.1574    1.2129 H   0  0  0  0  0  0  0  0  0  0  0  0
   -7.1788    1.9530    1.4539 H   0  0  0  0  0  0  0  0  0  0  0  0
   -7.5014    4.4440    1.1930 H   0  0  0  0  0  0  0  0  0  0  0  0
   -5.7342    4.6034    0.8179 H   0  0  0  0  0  0  0  0  0  0  0  0
   -6.7996    3.6544   -0.2724 H   0  0  0  0  0  0  0  0  0  0  0  0
   -6.0574    6.0622    3.9986 H   0  0  0  0  0  0  0  0  0  0  0  0
   -1.7233    9.2120    0.7603 H   0  0  0  0  0  0  0  0  0  0  0  0
   -4.5884   11.3570    4.4026 H   0  0  0  0  0  0  0  0  0  0  0  0
   -1.4493   12.7677    4.1512 H   0  0  0  0  0  0  0  0  0  0  0  0
   -3.3077   14.4866    3.0202 H   0  0  0  0  0  0  0  0  0  0  0  0
   -1.0104   15.8077    2.8691 H   0  0  0  0  0  0  0  0  0  0  0  0
    0.4369   14.7244    0.9898 H   0  0  0  0  0  0  0  0  0  0  0  0
   -0.9328   12.7049   -0.0584 H   0  0  0  0  0  0  0  0  0  0  0  0
   -2.8400   14.5028    0.4030 H   0  0  0  0  0  0  0  0  0  0  0  0
   -3.4326   12.8673    0.8943 H   0  0  0  0  0  0  0  0  0  0  0  0
   -0.1057   11.7802    2.4295 H   0  0  0  0  0  0  0  0  0  0  0  0
  1  2  2  3
  2  3  1  0
  3  4  2  0
  3  5  1  0
  5  6  2  0
  6  7  1  0
  7  8  2  0
  8  9  1  0
  9 10  2  0
 10 11  1  0
 11 12  2  3
 12 13  1  0
 13 14  3  0
 12 15  1  0
 15 16  3  0
  8 17  1  0
 17 18  1  0
 18 19  1  0
 19 20  2  0
 20 21  1  0
 21 22  1  0
 21 23  1  0
  1 24  1  0
 24 25  2  0
 25 26  1  0
 26 27  2  0
 27 28  1  0
 28 29  2  0
 28 30  1  0
 30 31  1  0
 31 32  1  0
 27 33  1  0
 33 34  1  0
 34 35  2  0
 35 36  1  0
 36 37  1  0
 37 38  2  0
 38 39  1  0
 39 40  1  0
 40 41  1  0
 39 42  1  0
 35 43  1  0
 43 44  2  0
 44 45  1  0
 45 46  2  0
 46 47  1  0
 47 48  2  0
 48 49  1  0
 49 50  1  0
 50 51  1  0
 49 52  2  0
 44 53  1  0
 53 54  1  0
 54 55  1  0
 55 56  1  0
 56 57  1  0
 57 58  1  0
 58 59  2  0
 59 60  1  0
 60 61  1  0
 58 62  1  0
 62 63  1  0
 63 64  1  0
 64 65  1  0
 65 66  1  0
 66 67  1  0
 67 68  2  0
 68 69  1  0
 69 70  2  0
 70 71  1  0
 71 72  1  0
 72 73  1  0
 71 74  2  0
 66 75  2  0
 75 76  1  0
 76 77  1  0
 77 78  1  0
 78 79  1  0
 79 80  1  0
 80 81  1  0
 81 82  1  0
 82 83  1  0
 83 84  1  0
 84 85  1  0
 82 86  1  0
 86 87  1  0
 79 88  1  0
 88 89  1  0
 75 90  1  0
 90 91  2  0
 91 92  1  0
 92 93  1  0
 93 94  1  0
 94 95  1  0
 92 96  2  0
 96 97  1  0
 96 98  1  0
 98 99  2  3
 99100  1  0
100101  2  0
100102  1  0
102103  2  0
103104  1  0
104105  2  0
105106  1  0
106107  2  0
107108  1  0
108109  2  3
109110  1  0
110111  3  0
109112  1  0
112113  3  0
105114  1  0
114115  1  0
115116  1  0
116117  2  0
117118  1  0
118119  1  0
118120  1  0
 11  2  1  0
 23 17  1  0
 37 24  1  0
 85 43  1  0
 97 90  1  0
108 99  1  0
120114  1  0
 10  5  1  0
 22 18  1  0
 34 25  1  0
 42 36  2  0
 52 45  1  0
 84 53  2  0
107102  1  0
119115  1  0
 23  7  1  0
 83 55  2  0
120104  1  0
 81 56  2  0
 61 57  2  0
 80 62  2  0
 78 63  2  0
 77 65  2  0
 74 67  1  0
  1121  1  0
  6122  1  0
  9123  1  0
 17124  1  0
 18125  1  0
 19126  1  0
 20127  1  0
 21128  1  0
 22129  1  0
 22130  1  0
 23131  1  0
 26132  1  0
 31133  1  0
 31134  1  0
 32135  1  0
 32136  1  0
 32137  1  0
 40138  1  0
 40139  1  0
 41140  1  0
 41141  1  0
 41142  1  0
 46143  1  0
 47144  1  0
 48145  1  0
 50146  1  0
 50147  1  0
 51148  1  0
 51149  1  0
 51150  1  0
 52151  1  0
 68152  1  0
 69153  1  0
 70154  1  0
 72155  1  0
 72156  1  0
 73157  1  0
 73158  1  0
 73159  1  0
 74160  1  0
 86161  1  0
 86162  1  0
 87163  1  0
 87164  1  0
 87165  1  0
 88166  1  0
 88167  1  0
 89168  1  0
 89169  1  0
 89170  1  0
 91171  1  0
 94172  1  0
 94173  1  0
 95174  1  0
 95175  1  0
 95176  1  0
 98177  1  0
103178  1  0
106179  1  0
114180  1  0
115181  1  0
116182  1  0
117183  1  0
118184  1  0
119185  1  0
119186  1  0
120187  1  0
M  END

