
     RDKit          3D

183208  0  0  0  0  0  0  0  0999 V2000
   -3.6682    2.5635    8.8467 C   0  0  0  0  0  0  0  0  0  0  0  0
   -4.5730    1.5968    9.1387 C   0  0  0  0  0  0  0  0  0  0  0  0
   -6.0449    1.7576    9.0806 C   0  0  0  0  0  0  0  0  0  0  0  0
   -6.7172    2.7265    9.5595 O   0  0  0  0  0  0  0  0  0  0  0  0
   -6.6264    0.5419    8.6377 C   0  0  0  0  0  0  0  0  0  0  0  0
   -8.0127    0.2869    8.6069 C   0  0  0  0  0  0  0  0  0  0  0  0
   -8.2801   -1.0482    8.3748 C   0  0  0  0  0  0  0  0  0  0  0  0
   -7.2815   -2.0587    8.1996 C   0  0  0  0  0  0  0  0  0  0  0  0
   -5.9377   -1.8393    8.2649 C   0  0  0  0  0  0  0  0  0  0  0  0
   -5.5977   -0.4481    8.4892 C   0  0  0  0  0  0  0  0  0  0  0  0
   -4.2988    0.1417    8.9208 C   0  0  0  0  0  0  0  0  0  0  0  0
   -3.2181   -0.5643    9.2780 C   0  0  0  0  0  0  0  0  0  0  0  0
   -2.9298   -1.8396    8.6675 C   0  0  0  0  0  0  0  0  0  0  0  0
   -2.7055   -2.8699    8.1706 N   0  0  0  0  0  0  0  0  0  0  0  0
   -2.4320   -0.2210   10.4035 C   0  0  0  0  0  0  0  0  0  0  0  0
   -1.8562   -0.1167   11.4358 N   0  0  0  0  0  0  0  0  0  0  0  0
   -8.3246   -3.0772    7.8970 C   0  0  0  0  0  0  0  0  0  0  0  0
   -8.5129   -3.5785    6.4149 C   0  0  0  0  0  0  0  0  0  0  0  0
   -8.0950   -2.5133    5.4242 C   0  0  0  0  0  0  0  0  0  0  0  0
   -8.9620   -1.5029    5.5416 C   0  0  0  0  0  0  0  0  0  0  0  0
   -9.9705   -1.9499    6.5958 C   0  0  0  0  0  0  0  0  0  0  0  0
  -10.0205   -3.4321    6.2710 C   0  0  0  0  0  0  0  0  0  0  0  0
   -9.3304   -2.0280    8.0271 C   0  0  0  0  0  0  0  0  0  0  0  0
   -3.9357    3.6785    7.8566 C   0  0  0  0  0  0  0  0  0  0  0  0
   -5.0573    4.5451    7.8853 C   0  0  0  0  0  0  0  0  0  0  0  0
   -5.3138    5.4962    6.8752 C   0  0  0  0  0  0  0  0  0  0  0  0
   -6.5663    6.3138    6.8789 C   0  0  0  0  0  0  0  0  0  0  0  0
   -7.4567    6.1442    7.7513 O   0  0  0  0  0  0  0  0  0  0  0  0
   -6.7896    7.2678    5.8230 N   0  0  0  0  0  0  0  0  0  0  0  0
   -5.8015    7.4671    4.8028 C   0  0  0  0  0  0  0  0  0  0  0  0
   -6.0006    8.3242    3.9074 O   0  0  0  0  0  0  0  0  0  0  0  0
   -4.5334    6.6603    4.8268 C   0  0  0  0  0  0  0  0  0  0  0  0
   -3.5206    6.8466    3.8630 C   0  0  0  0  0  0  0  0  0  0  0  0
   -2.3405    6.0878    3.8606 C   0  0  0  0  0  0  0  0  0  0  0  0
   -2.2142    5.0716    4.8694 C   0  0  0  0  0  0  0  0  0  0  0  0
   -3.1823    4.9040    5.8558 C   0  0  0  0  0  0  0  0  0  0  0  0
   -2.9853    3.9165    6.8283 C   0  0  0  0  0  0  0  0  0  0  0  0
   -4.3546    5.6897    5.8460 C   0  0  0  0  0  0  0  0  0  0  0  0
   -1.2037    6.2828    2.9437 C   0  0  0  0  0  0  0  0  0  0  0  0
   -1.1900    6.7714    1.6490 C   0  0  0  0  0  0  0  0  0  0  0  0
   -2.3990    7.0664    0.8558 C   0  0  0  0  0  0  0  0  0  0  0  0
   -3.3733    6.0402    0.6507 C   0  0  0  0  0  0  0  0  0  0  0  0
   -4.5765    6.3149   -0.0021 C   0  0  0  0  0  0  0  0  0  0  0  0
   -4.8334    7.6109   -0.4448 C   0  0  0  0  0  0  0  0  0  0  0  0
   -3.9199    8.6496   -0.2153 C   0  0  0  0  0  0  0  0  0  0  0  0
   -4.2113   10.0389   -0.7246 C   0  0  0  0  0  0  0  0  0  0  0  0
   -3.6936   10.2115   -2.1487 C   0  0  0  0  0  0  0  0  0  0  0  0
   -2.6895    8.3895    0.4157 C   0  0  0  0  0  0  0  0  0  0  0  0
    0.1416    6.7823    1.1126 C   0  0  0  0  0  0  0  0  0  0  0  0
    0.8209    6.9264   -0.4429 S   0  0  0  0  0  0  0  0  0  0  0  0
    2.3466    6.2569    0.0369 C   0  0  0  0  0  0  0  0  0  0  0  0
    3.5236    5.8362   -0.4956 C   0  0  0  0  0  0  0  0  0  0  0  0
    4.0502    6.0525   -1.7872 C   0  0  0  0  0  0  0  0  0  0  0  0
    5.1575    5.2482   -2.2076 C   0  0  0  0  0  0  0  0  0  0  0  0
    5.6900    5.5075   -3.3956 N   0  0  0  0  0  0  0  0  0  0  0  0
    4.6726    6.7550   -3.8668 S   0  0  0  0  0  0  0  0  0  0  0  0
    3.5788    6.9935   -2.6596 N   0  0  0  0  0  0  0  0  0  0  0  0
    5.6823    4.2838   -1.3225 C   0  0  0  0  0  0  0  0  0  0  0  0
    6.5400    3.2435   -1.5598 C   0  0  0  0  0  0  0  0  0  0  0  0
    6.8255    2.2983   -2.9702 S   0  0  0  0  0  0  0  0  0  0  0  0
    7.2058    0.9640   -1.9962 C   0  0  0  0  0  0  0  0  0  0  0  0
    7.3518   -0.3804   -2.3187 C   0  0  0  0  0  0  0  0  0  0  0  0
    7.2183   -0.9411   -3.6935 C   0  0  0  0  0  0  0  0  0  0  0  0
    5.9910   -0.8426   -4.3731 C   0  0  0  0  0  0  0  0  0  0  0  0
    5.7809   -1.6014   -5.5322 C   0  0  0  0  0  0  0  0  0  0  0  0
    6.7787   -2.4425   -6.0295 C   0  0  0  0  0  0  0  0  0  0  0  0
    7.9916   -2.5743   -5.3453 C   0  0  0  0  0  0  0  0  0  0  0  0
    9.1107   -3.3781   -5.9418 C   0  0  0  0  0  0  0  0  0  0  0  0
    9.9391   -2.4762   -6.8577 C   0  0  0  0  0  0  0  0  0  0  0  0
    8.2162   -1.8181   -4.1795 C   0  0  0  0  0  0  0  0  0  0  0  0
    7.4229   -1.2159   -1.1814 C   0  0  0  0  0  0  0  0  0  0  0  0
    7.1679   -0.2498    0.2141 S   0  0  0  0  0  0  0  0  0  0  0  0
    7.0486    1.1935   -0.6564 C   0  0  0  0  0  0  0  0  0  0  0  0
    6.6267    2.5181   -0.3968 C   0  0  0  0  0  0  0  0  0  0  0  0
    5.8457    3.0178    0.5501 N   0  0  0  0  0  0  0  0  0  0  0  0
    5.2358    4.1517    0.0261 C   0  0  0  0  0  0  0  0  0  0  0  0
    4.1421    4.9962    0.4497 C   0  0  0  0  0  0  0  0  0  0  0  0
    3.3199    5.0047    1.5903 N   0  0  0  0  0  0  0  0  0  0  0  0
    2.2862    5.8222    1.2655 C   0  0  0  0  0  0  0  0  0  0  0  0
    1.0952    6.1643    1.9345 C   0  0  0  0  0  0  0  0  0  0  0  0
    0.3752    5.7246    3.3498 S   0  0  0  0  0  0  0  0  0  0  0  0
    3.6737    4.6392    2.9741 C   0  0  0  0  0  0  0  0  0  0  0  0
    4.7423    5.5713    3.6025 C   0  0  0  0  0  0  0  0  0  0  0  0
    5.8903    2.4800    1.9517 C   0  0  0  0  0  0  0  0  0  0  0  0
    4.8099    1.4094    2.1870 C   0  0  0  0  0  0  0  0  0  0  0  0
    7.1903   -2.6946   -1.2502 C   0  0  0  0  0  0  0  0  0  0  0  0
    8.1632   -3.6406   -0.8360 C   0  0  0  0  0  0  0  0  0  0  0  0
    7.9903   -5.0297   -1.0699 C   0  0  0  0  0  0  0  0  0  0  0  0
    9.0246   -6.0103   -0.7181 C   0  0  0  0  0  0  0  0  0  0  0  0
   10.1164   -5.6728   -0.1717 O   0  0  0  0  0  0  0  0  0  0  0  0
    8.8279   -7.4230   -1.0095 N   0  0  0  0  0  0  0  0  0  0  0  0
    7.6065   -7.8695   -1.6098 C   0  0  0  0  0  0  0  0  0  0  0  0
    7.4541   -9.1105   -1.8208 O   0  0  0  0  0  0  0  0  0  0  0  0
    6.6174   -6.8528   -2.0315 C   0  0  0  0  0  0  0  0  0  0  0  0
    5.5257   -7.2242   -2.8447 C   0  0  0  0  0  0  0  0  0  0  0  0
    4.7125   -6.2313   -3.4183 C   0  0  0  0  0  0  0  0  0  0  0  0
    4.8173   -4.9011   -3.0616 C   0  0  0  0  0  0  0  0  0  0  0  0
    5.8871   -4.5222   -2.2147 C   0  0  0  0  0  0  0  0  0  0  0  0
    6.0266   -3.1538   -1.9210 C   0  0  0  0  0  0  0  0  0  0  0  0
    6.8137   -5.4716   -1.7671 C   0  0  0  0  0  0  0  0  0  0  0  0
    4.0801   -6.6326   -4.6672 C   0  0  0  0  0  0  0  0  0  0  0  0
    2.7552   -6.6670   -4.9356 C   0  0  0  0  0  0  0  0  0  0  0  0
    1.6774   -5.9321   -4.2387 C   0  0  0  0  0  0  0  0  0  0  0  0
    1.7890   -5.1539   -3.2433 O   0  0  0  0  0  0  0  0  0  0  0  0
    0.4440   -6.1800   -4.9746 C   0  0  0  0  0  0  0  0  0  0  0  0
   -0.7674   -5.3865   -4.9441 C   0  0  0  0  0  0  0  0  0  0  0  0
   -1.6603   -5.7279   -5.9736 C   0  0  0  0  0  0  0  0  0  0  0  0
   -1.3971   -6.7815   -6.9117 C   0  0  0  0  0  0  0  0  0  0  0  0
   -0.2332   -7.5388   -6.9641 C   0  0  0  0  0  0  0  0  0  0  0  0
    0.7010   -7.1647   -5.9663 C   0  0  0  0  0  0  0  0  0  0  0  0
    2.1310   -7.5125   -6.0243 C   0  0  0  0  0  0  0  0  0  0  0  0
    2.5394   -8.7418   -6.3865 C   0  0  0  0  0  0  0  0  0  0  0  0
    1.8662   -9.8914   -5.8559 C   0  0  0  0  0  0  0  0  0  0  0  0
    1.3334  -10.8118   -5.3428 N   0  0  0  0  0  0  0  0  0  0  0  0
    3.7684   -8.9630   -7.0924 C   0  0  0  0  0  0  0  0  0  0  0  0
    4.7899   -9.1803   -7.5990 N   0  0  0  0  0  0  0  0  0  0  0  0
   -2.5621   -6.3630   -7.7343 C   0  0  0  0  0  0  0  0  0  0  0  0
   -2.2826   -5.5962   -9.0845 C   0  0  0  0  0  0  0  0  0  0  0  0
   -1.0296   -4.7284   -8.9809 C   0  0  0  0  0  0  0  0  0  0  0  0
   -1.3290   -3.7371   -8.1100 C   0  0  0  0  0  0  0  0  0  0  0  0
   -2.7548   -3.9812   -7.6472 C   0  0  0  0  0  0  0  0  0  0  0  0
   -3.3243   -4.4975   -8.9822 C   0  0  0  0  0  0  0  0  0  0  0  0
   -2.8607   -5.2903   -6.7580 C   0  0  0  0  0  0  0  0  0  0  0  0
   -2.6088    2.2631    8.8038 H   0  0  0  0  0  0  0  0  0  0  0  0
   -8.7964    1.0571    8.6957 H   0  0  0  0  0  0  0  0  0  0  0  0
   -5.2559   -2.6609    8.1563 H   0  0  0  0  0  0  0  0  0  0  0  0
   -8.3662   -3.8947    8.6807 H   0  0  0  0  0  0  0  0  0  0  0  0
   -8.1275   -4.6193    6.1958 H   0  0  0  0  0  0  0  0  0  0  0  0
   -7.1624   -2.5085    4.8530 H   0  0  0  0  0  0  0  0  0  0  0  0
   -8.7943   -0.4905    5.1936 H   0  0  0  0  0  0  0  0  0  0  0  0
  -10.9268   -1.4334    6.5794 H   0  0  0  0  0  0  0  0  0  0  0  0
  -10.6168   -4.0446    6.9974 H   0  0  0  0  0  0  0  0  0  0  0  0
  -10.3979   -3.6348    5.2288 H   0  0  0  0  0  0  0  0  0  0  0  0
  -10.0384   -2.2075    8.8853 H   0  0  0  0  0  0  0  0  0  0  0  0
   -5.7104    4.5614    8.7337 H   0  0  0  0  0  0  0  0  0  0  0  0
   -7.6780    7.8095    5.8334 H   0  0  0  0  0  0  0  0  0  0  0  0
   -3.6659    7.6412    3.1112 H   0  0  0  0  0  0  0  0  0  0  0  0
   -1.3319    4.4177    4.9201 H   0  0  0  0  0  0  0  0  0  0  0  0
   -2.0871    3.3033    6.7828 H   0  0  0  0  0  0  0  0  0  0  0  0
   -3.1882    5.0033    1.0307 H   0  0  0  0  0  0  0  0  0  0  0  0
   -5.2962    5.5240   -0.1574 H   0  0  0  0  0  0  0  0  0  0  0  0
   -5.7545    7.8167   -0.9593 H   0  0  0  0  0  0  0  0  0  0  0  0
   -5.3147   10.2052   -0.7112 H   0  0  0  0  0  0  0  0  0  0  0  0
   -3.7705   10.8004   -0.0570 H   0  0  0  0  0  0  0  0  0  0  0  0
   -2.5897   10.2001   -2.1499 H   0  0  0  0  0  0  0  0  0  0  0  0
   -4.0539   11.1792   -2.5542 H   0  0  0  0  0  0  0  0  0  0  0  0
   -4.0776    9.3753   -2.8054 H   0  0  0  0  0  0  0  0  0  0  0  0
   -1.9353    9.1667    0.6033 H   0  0  0  0  0  0  0  0  0  0  0  0
    5.1501   -0.2782   -3.9409 H   0  0  0  0  0  0  0  0  0  0  0  0
    4.8318   -1.5380   -6.0492 H   0  0  0  0  0  0  0  0  0  0  0  0
    6.6063   -2.9634   -6.9615 H   0  0  0  0  0  0  0  0  0  0  0  0
    8.6711   -4.2259   -6.5433 H   0  0  0  0  0  0  0  0  0  0  0  0
    9.7446   -3.8279   -5.1541 H   0  0  0  0  0  0  0  0  0  0  0  0
   10.2811   -1.5864   -6.2968 H   0  0  0  0  0  0  0  0  0  0  0  0
   10.7680   -3.0627   -7.3294 H   0  0  0  0  0  0  0  0  0  0  0  0
    9.3137   -2.0989   -7.6940 H   0  0  0  0  0  0  0  0  0  0  0  0
    9.1522   -1.9413   -3.6283 H   0  0  0  0  0  0  0  0  0  0  0  0
    2.7660    4.7432    3.5878 H   0  0  0  0  0  0  0  0  0  0  0  0
    3.7743    3.5744    3.1283 H   0  0  0  0  0  0  0  0  0  0  0  0
    4.8161    5.3432    4.6855 H   0  0  0  0  0  0  0  0  0  0  0  0
    5.7050    5.3639    3.0955 H   0  0  0  0  0  0  0  0  0  0  0  0
    4.4721    6.6364    3.4286 H   0  0  0  0  0  0  0  0  0  0  0  0
    6.9187    2.0371    2.1387 H   0  0  0  0  0  0  0  0  0  0  0  0
    5.9212    3.2815    2.6757 H   0  0  0  0  0  0  0  0  0  0  0  0
    5.2380    0.4053    1.9957 H   0  0  0  0  0  0  0  0  0  0  0  0
    3.9145    1.5822    1.5250 H   0  0  0  0  0  0  0  0  0  0  0  0
    4.5266    1.3968    3.2542 H   0  0  0  0  0  0  0  0  0  0  0  0
    9.0974   -3.2767   -0.3983 H   0  0  0  0  0  0  0  0  0  0  0  0
    9.6435   -8.0271   -1.1152 H   0  0  0  0  0  0  0  0  0  0  0  0
    5.3968   -8.2622   -3.1756 H   0  0  0  0  0  0  0  0  0  0  0  0
    4.1971   -4.1553   -3.5680 H   0  0  0  0  0  0  0  0  0  0  0  0
    5.2709   -2.4546   -2.2979 H   0  0  0  0  0  0  0  0  0  0  0  0
    4.8115   -7.1187   -5.2661 H   0  0  0  0  0  0  0  0  0  0  0  0
   -0.9360   -4.5216   -4.2574 H   0  0  0  0  0  0  0  0  0  0  0  0
   -0.0068   -8.2246   -7.7987 H   0  0  0  0  0  0  0  0  0  0  0  0
   -3.3462   -7.1454   -7.8032 H   0  0  0  0  0  0  0  0  0  0  0  0
   -2.3240   -6.2158   -9.9963 H   0  0  0  0  0  0  0  0  0  0  0  0
   -0.0415   -4.9359   -9.3802 H   0  0  0  0  0  0  0  0  0  0  0  0
   -0.6349   -2.9823   -7.7344 H   0  0  0  0  0  0  0  0  0  0  0  0
   -3.2775   -3.0923   -7.2254 H   0  0  0  0  0  0  0  0  0  0  0  0
   -4.3644   -4.8731   -8.9001 H   0  0  0  0  0  0  0  0  0  0  0  0
   -3.2622   -3.7390   -9.8135 H   0  0  0  0  0  0  0  0  0  0  0  0
   -3.8276   -5.4255   -6.2140 H   0  0  0  0  0  0  0  0  0  0  0  0
  1  2  2  3
  2  3  1  0
  3  4  2  0
  3  5  1  0
  5  6  2  0
  6  7  1  0
  7  8  2  0
  8  9  1  0
  9 10  2  0
 10 11  1  0
 11 12  2  3
 12 13  1  0
 13 14  3  0
 12 15  1  0
 15 16  3  0
  8 17  1  0
 17 18  1  0
 18 19  1  0
 19 20  2  0
 20 21  1  0
 21 22  1  0
 21 23  1  0
  1 24  1  0
 24 25  2  0
 25 26  1  0
 26 27  1  0
 27 28  2  0
 27 29  1  0
 29 30  1  0
 30 31  2  0
 30 32  1  0
 32 33  2  0
 33 34  1  0
 34 35  2  0
 35 36  1  0
 36 37  2  0
 36 38  1  0
 34 39  1  0
 39 40  2  0
 40 41  1  0
 41 42  2  0
 42 43  1  0
 43 44  2  0
 44 45  1  0
 45 46  1  0
 46 47  1  0
 45 48  2  0
 40 49  1  0
 49 50  1  0
 50 51  1  0
 51 52  1  0
 52 53  1  0
 53 54  1  0
 54 55  2  0
 55 56  1  0
 56 57  1  0
 54 58  1  0
 58 59  1  0
 59 60  1  0
 60 61  1  0
 61 62  1  0
 62 63  1  0
 63 64  2  0
 64 65  1  0
 65 66  2  0
 66 67  1  0
 67 68  1  0
 68 69  1  0
 67 70  2  0
 62 71  2  0
 71 72  1  0
 72 73  1  0
 73 74  1  0
 74 75  1  0
 75 76  1  0
 76 77  1  0
 77 78  1  0
 78 79  1  0
 79 80  1  0
 80 81  1  0
 78 82  1  0
 82 83  1  0
 75 84  1  0
 84 85  1  0
 71 86  1  0
 86 87  2  0
 87 88  1  0
 88 89  1  0
 89 90  2  0
 89 91  1  0
 91 92  1  0
 92 93  2  0
 92 94  1  0
 94 95  2  0
 95 96  1  0
 96 97  2  0
 97 98  1  0
 98 99  2  0
 98100  1  0
 96101  1  0
101102  2  3
102103  1  0
103104  2  0
103105  1  0
105106  2  0
106107  1  0
107108  2  0
108109  1  0
109110  2  0
110111  1  0
111112  2  3
112113  1  0
113114  3  0
112115  1  0
115116  3  0
108117  1  0
117118  1  0
118119  1  0
119120  2  0
120121  1  0
121122  1  0
121123  1  0
 11  2  1  0
 23 17  1  0
 37 24  1  0
 81 39  1  0
 99 86  1  0
111102  1  0
123117  1  0
 10  5  1  0
 22 18  1  0
 38 26  2  0
 48 41  1  0
 80 49  2  0
100 88  2  0
110105  1  0
122118  1  0
 23  7  1  0
 38 32  1  0
 79 51  2  0
100 94  1  0
123107  1  0
 77 52  2  0
 57 53  2  0
 76 58  2  0
 74 59  2  0
 73 61  2  0
 70 63  1  0
  1124  1  0
  6125  1  0
  9126  1  0
 17127  1  0
 18128  1  0
 19129  1  0
 20130  1  0
 21131  1  0
 22132  1  0
 22133  1  0
 23134  1  0
 25135  1  0
 29136  1  0
 33137  1  0
 35138  1  0
 37139  1  0
 42140  1  0
 43141  1  0
 44142  1  0
 46143  1  0
 46144  1  0
 47145  1  0
 47146  1  0
 47147  1  0
 48148  1  0
 64149  1  0
 65150  1  0
 66151  1  0
 68152  1  0
 68153  1  0
 69154  1  0
 69155  1  0
 69156  1  0
 70157  1  0
 82158  1  0
 82159  1  0
 83160  1  0
 83161  1  0
 83162  1  0
 84163  1  0
 84164  1  0
 85165  1  0
 85166  1  0
 85167  1  0
 87168  1  0
 91169  1  0
 95170  1  0
 97171  1  0
 99172  1  0
101173  1  0
106174  1  0
109175  1  0
117176  1  0
118177  1  0
119178  1  0
120179  1  0
121180  1  0
122181  1  0
122182  1  0
123183  1  0
M  END

