
     RDKit          3D

217242  0  0  0  0  0  0  0  0999 V2000
   -6.8631   -7.8387    2.0596 C   0  0  0  0  0  0  0  0  0  0  0  0
   -7.3714   -7.7667    3.3047 C   0  0  0  0  0  0  0  0  0  0  0  0
   -6.7940   -6.9999    4.4192 C   0  0  0  0  0  0  0  0  0  0  0  0
   -5.6542   -6.4654    4.4539 O   0  0  0  0  0  0  0  0  0  0  0  0
   -7.8044   -6.8353    5.4385 C   0  0  0  0  0  0  0  0  0  0  0  0
   -7.6835   -6.1007    6.6419 C   0  0  0  0  0  0  0  0  0  0  0  0
   -8.8414   -6.0639    7.3930 C   0  0  0  0  0  0  0  0  0  0  0  0
  -10.0578   -6.6975    6.9847 C   0  0  0  0  0  0  0  0  0  0  0  0
  -10.1856   -7.4113    5.8050 C   0  0  0  0  0  0  0  0  0  0  0  0
   -8.9955   -7.4864    5.0267 C   0  0  0  0  0  0  0  0  0  0  0  0
   -8.7465   -8.1773    3.7274 C   0  0  0  0  0  0  0  0  0  0  0  0
   -9.4875   -9.1751    3.1805 C   0  0  0  0  0  0  0  0  0  0  0  0
   -9.0058   -9.9723    2.0809 C   0  0  0  0  0  0  0  0  0  0  0  0
   -8.6218  -10.6165    1.1996 N   0  0  0  0  0  0  0  0  0  0  0  0
  -10.7439   -9.6070    3.7334 C   0  0  0  0  0  0  0  0  0  0  0  0
  -11.7548   -9.9686    4.1675 N   0  0  0  0  0  0  0  0  0  0  0  0
  -10.7410   -6.2306    8.2355 C   0  0  0  0  0  0  0  0  0  0  0  0
  -11.0005   -7.2836    9.3551 C   0  0  0  0  0  0  0  0  0  0  0  0
   -9.9301   -8.3508    9.3192 C   0  0  0  0  0  0  0  0  0  0  0  0
   -8.7944   -7.7643    9.7019 C   0  0  0  0  0  0  0  0  0  0  0  0
   -9.1296   -6.3174    9.9836 C   0  0  0  0  0  0  0  0  0  0  0  0
  -10.5178   -6.5037   10.5660 C   0  0  0  0  0  0  0  0  0  0  0  0
   -9.4925   -5.5843    8.6553 C   0  0  0  0  0  0  0  0  0  0  0  0
   -5.4792   -7.4778    1.7185 C   0  0  0  0  0  0  0  0  0  0  0  0
   -4.3331   -7.9153    2.3808 C   0  0  0  0  0  0  0  0  0  0  0  0
   -3.1501   -7.4295    1.8013 C   0  0  0  0  0  0  0  0  0  0  0  0
   -1.8341   -7.6655    2.2572 C   0  0  0  0  0  0  0  0  0  0  0  0
   -1.5531   -8.4373    3.4885 C   0  0  0  0  0  0  0  0  0  0  0  0
   -2.1023   -8.0376    4.7179 C   0  0  0  0  0  0  0  0  0  0  0  0
   -1.8251   -8.7594    5.8809 C   0  0  0  0  0  0  0  0  0  0  0  0
   -0.9802   -9.8735    5.8319 C   0  0  0  0  0  0  0  0  0  0  0  0
   -0.6167  -10.7951    7.3298 S   0  0  0  0  0  0  0  0  0  0  0  0
    0.7213   -9.6835    7.8937 C   0  0  0  0  0  0  0  0  0  0  0  0
    2.0118   -9.9282    7.1212 C   0  0  0  0  0  0  0  0  0  0  0  0
   -0.4364  -10.2808    4.6087 C   0  0  0  0  0  0  0  0  0  0  0  0
   -0.7192   -9.5656    3.4421 C   0  0  0  0  0  0  0  0  0  0  0  0
   -0.7919   -7.0908    1.5071 C   0  0  0  0  0  0  0  0  0  0  0  0
   -1.0273   -6.3178    0.3637 C   0  0  0  0  0  0  0  0  0  0  0  0
   -2.3405   -6.0748   -0.0835 C   0  0  0  0  0  0  0  0  0  0  0  0
   -2.6199   -5.1840   -1.2286 C   0  0  0  0  0  0  0  0  0  0  0  0
   -2.1963   -5.5254   -2.5233 C   0  0  0  0  0  0  0  0  0  0  0  0
   -2.4416   -4.6596   -3.5934 C   0  0  0  0  0  0  0  0  0  0  0  0
   -3.1112   -3.4485   -3.3777 C   0  0  0  0  0  0  0  0  0  0  0  0
   -3.4040   -2.3242   -4.7469 S   0  0  0  0  0  0  0  0  0  0  0  0
   -5.0259   -3.0314   -5.2079 C   0  0  0  0  0  0  0  0  0  0  0  0
   -6.1314   -2.5225   -4.2896 C   0  0  0  0  0  0  0  0  0  0  0  0
   -3.5182   -3.0991   -2.0851 C   0  0  0  0  0  0  0  0  0  0  0  0
   -3.2848   -3.9675   -1.0183 C   0  0  0  0  0  0  0  0  0  0  0  0
   -3.3802   -6.6515    0.6625 C   0  0  0  0  0  0  0  0  0  0  0  0
   -5.0364   -6.5568    0.3786 S   0  0  0  0  0  0  0  0  0  0  0  0
    0.1436   -5.7862   -0.1906 C   0  0  0  0  0  0  0  0  0  0  0  0
    1.2834   -6.1423    0.5198 C   0  0  0  0  0  0  0  0  0  0  0  0
    0.8617   -7.0937    1.8429 S   0  0  0  0  0  0  0  0  0  0  0  0
    2.6280   -5.6562    0.2167 C   0  0  0  0  0  0  0  0  0  0  0  0
    3.3972   -6.0523   -0.8855 C   0  0  0  0  0  0  0  0  0  0  0  0
    3.0112   -7.1192   -1.8178 C   0  0  0  0  0  0  0  0  0  0  0  0
    2.1223   -6.8487   -2.8668 C   0  0  0  0  0  0  0  0  0  0  0  0
    1.7108   -7.8778   -3.7179 C   0  0  0  0  0  0  0  0  0  0  0  0
    2.1942   -9.1762   -3.5340 C   0  0  0  0  0  0  0  0  0  0  0  0
    3.1004   -9.4544   -2.4978 C   0  0  0  0  0  0  0  0  0  0  0  0
    3.5978  -10.8580   -2.2790 C   0  0  0  0  0  0  0  0  0  0  0  0
    2.6840  -11.6127   -1.3196 C   0  0  0  0  0  0  0  0  0  0  0  0
    3.4955   -8.4209   -1.6314 C   0  0  0  0  0  0  0  0  0  0  0  0
    4.4750   -5.1904   -1.0822 C   0  0  0  0  0  0  0  0  0  0  0  0
    5.5040   -4.9492   -2.4079 S   0  0  0  0  0  0  0  0  0  0  0  0
    6.0875   -3.4929   -1.7526 C   0  0  0  0  0  0  0  0  0  0  0  0
    6.5087   -2.3251   -2.3292 C   0  0  0  0  0  0  0  0  0  0  0  0
    6.7499   -2.0447   -3.6851 C   0  0  0  0  0  0  0  0  0  0  0  0
    6.7417   -0.6864   -4.1233 C   0  0  0  0  0  0  0  0  0  0  0  0
    6.9055   -0.4626   -5.4501 N   0  0  0  0  0  0  0  0  0  0  0  0
    7.0395   -2.0274   -5.9804 S   0  0  0  0  0  0  0  0  0  0  0  0
    6.9018   -2.9944   -4.6418 N   0  0  0  0  0  0  0  0  0  0  0  0
    6.5635    0.3180   -3.1732 C   0  0  0  0  0  0  0  0  0  0  0  0
    6.4429    1.6758   -3.2853 C   0  0  0  0  0  0  0  0  0  0  0  0
    6.0674    2.8146   -4.4850 S   0  0  0  0  0  0  0  0  0  0  0  0
    5.6516    3.9786   -3.2962 C   0  0  0  0  0  0  0  0  0  0  0  0
    4.9838    5.2117   -3.3362 C   0  0  0  0  0  0  0  0  0  0  0  0
    4.5733    5.9187   -4.5752 C   0  0  0  0  0  0  0  0  0  0  0  0
    4.6940    7.3161   -4.6595 C   0  0  0  0  0  0  0  0  0  0  0  0
    4.3032    7.9934   -5.8155 C   0  0  0  0  0  0  0  0  0  0  0  0
    3.8065    7.2836   -6.9102 C   0  0  0  0  0  0  0  0  0  0  0  0
    3.6934    5.8863   -6.8546 C   0  0  0  0  0  0  0  0  0  0  0  0
    3.1620    5.1212   -8.0385 C   0  0  0  0  0  0  0  0  0  0  0  0
    1.6520    4.9385   -7.9381 C   0  0  0  0  0  0  0  0  0  0  0  0
    4.0505    5.2129   -5.6744 C   0  0  0  0  0  0  0  0  0  0  0  0
    4.6707    5.6427   -2.0267 C   0  0  0  0  0  0  0  0  0  0  0  0
    5.1643    4.4837   -0.8831 S   0  0  0  0  0  0  0  0  0  0  0  0
    5.8271    3.4711   -2.0328 C   0  0  0  0  0  0  0  0  0  0  0  0
    6.2562    2.1600   -2.0360 C   0  0  0  0  0  0  0  0  0  0  0  0
    6.2522    1.1964   -1.0893 N   0  0  0  0  0  0  0  0  0  0  0  0
    6.3715    0.0391   -1.8109 C   0  0  0  0  0  0  0  0  0  0  0  0
    6.2154   -1.3116   -1.3992 C   0  0  0  0  0  0  0  0  0  0  0  0
    5.4965   -1.8191   -0.3410 N   0  0  0  0  0  0  0  0  0  0  0  0
    5.4679   -3.1592   -0.5818 C   0  0  0  0  0  0  0  0  0  0  0  0
    4.5508   -4.1421   -0.1983 C   0  0  0  0  0  0  0  0  0  0  0  0
    3.2612   -4.2254    0.8751 S   0  0  0  0  0  0  0  0  0  0  0  0
    4.4642   -1.1210    0.4451 C   0  0  0  0  0  0  0  0  0  0  0  0
    4.6851   -1.2947    1.9499 C   0  0  0  0  0  0  0  0  0  0  0  0
    6.5151    1.4027    0.3394 C   0  0  0  0  0  0  0  0  0  0  0  0
    7.7714    2.2416    0.5630 C   0  0  0  0  0  0  0  0  0  0  0  0
    3.7314    6.7145   -1.6719 C   0  0  0  0  0  0  0  0  0  0  0  0
    4.1890    7.8228   -0.9500 C   0  0  0  0  0  0  0  0  0  0  0  0
    3.2894    8.8124   -0.5119 C   0  0  0  0  0  0  0  0  0  0  0  0
    3.7115    9.9385    0.2172 O   0  0  0  0  0  0  0  0  0  0  0  0
    5.0634   10.2766    0.5323 C   0  0  0  0  0  0  0  0  0  0  0  0
    5.5288    9.5204    1.7721 C   0  0  0  0  0  0  0  0  0  0  0  0
    1.9177    8.6698   -0.8068 C   0  0  0  0  0  0  0  0  0  0  0  0
    1.4625    7.5462   -1.5080 C   0  0  0  0  0  0  0  0  0  0  0  0
    2.3649    6.5693   -1.9602 C   0  0  0  0  0  0  0  0  0  0  0  0
    1.9414    5.4278   -2.6670 O   0  0  0  0  0  0  0  0  0  0  0  0
    0.6316    5.2046   -3.1851 C   0  0  0  0  0  0  0  0  0  0  0  0
    0.3679    6.1022   -4.3890 C   0  0  0  0  0  0  0  0  0  0  0  0
    0.9211    9.6384   -0.3093 C   0  0  0  0  0  0  0  0  0  0  0  0
    0.9611   10.9594   -0.5643 C   0  0  0  0  0  0  0  0  0  0  0  0
    1.7831   11.5916   -1.6043 C   0  0  0  0  0  0  0  0  0  0  0  0
    2.6588   11.0292   -2.3157 O   0  0  0  0  0  0  0  0  0  0  0  0
    1.3537   12.9598   -1.7677 C   0  0  0  0  0  0  0  0  0  0  0  0
    1.9048   13.9171   -2.6495 C   0  0  0  0  0  0  0  0  0  0  0  0
    1.3176   15.1626   -2.5591 C   0  0  0  0  0  0  0  0  0  0  0  0
    0.2435   15.4560   -1.6628 C   0  0  0  0  0  0  0  0  0  0  0  0
   -0.3052   14.5233   -0.8000 C   0  0  0  0  0  0  0  0  0  0  0  0
    0.2867   13.2285   -0.8699 C   0  0  0  0  0  0  0  0  0  0  0  0
    0.0225   12.0077   -0.0484 C   0  0  0  0  0  0  0  0  0  0  0  0
   -0.7825   11.9125    1.0450 C   0  0  0  0  0  0  0  0  0  0  0  0
   -1.7223   12.9356    1.4210 C   0  0  0  0  0  0  0  0  0  0  0  0
   -2.4896   13.7429    1.7392 N   0  0  0  0  0  0  0  0  0  0  0  0
   -0.7145   10.8057    1.9619 C   0  0  0  0  0  0  0  0  0  0  0  0
   -0.6680    9.9202    2.7066 N   0  0  0  0  0  0  0  0  0  0  0  0
    0.2278   16.8842   -2.1206 C   0  0  0  0  0  0  0  0  0  0  0  0
    0.8313   17.9587   -1.1651 C   0  0  0  0  0  0  0  0  0  0  0  0
    1.9308   17.3476   -0.3275 C   0  0  0  0  0  0  0  0  0  0  0  0
    2.9346   17.0702   -1.1606 C   0  0  0  0  0  0  0  0  0  0  0  0
    2.4851   17.5026   -2.5392 C   0  0  0  0  0  0  0  0  0  0  0  0
    1.6853   18.7337   -2.1523 C   0  0  0  0  0  0  0  0  0  0  0  0
    1.3312   16.5826   -3.0386 C   0  0  0  0  0  0  0  0  0  0  0  0
   -7.4981   -8.1166    1.2334 H   0  0  0  0  0  0  0  0  0  0  0  0
   -6.7710   -5.6052    6.9464 H   0  0  0  0  0  0  0  0  0  0  0  0
  -11.1321   -7.8407    5.5252 H   0  0  0  0  0  0  0  0  0  0  0  0
  -11.5754   -5.5191    8.0549 H   0  0  0  0  0  0  0  0  0  0  0  0
  -12.0420   -7.6647    9.4142 H   0  0  0  0  0  0  0  0  0  0  0  0
  -10.0600   -9.4055    9.1029 H   0  0  0  0  0  0  0  0  0  0  0  0
   -7.8429   -8.2605    9.8528 H   0  0  0  0  0  0  0  0  0  0  0  0
   -8.4070   -5.7864   10.6365 H   0  0  0  0  0  0  0  0  0  0  0  0
  -10.5272   -7.1008   11.5103 H   0  0  0  0  0  0  0  0  0  0  0  0
  -11.0657   -5.5450   10.7286 H   0  0  0  0  0  0  0  0  0  0  0  0
   -9.5694   -4.4765    8.7362 H   0  0  0  0  0  0  0  0  0  0  0  0
   -4.3659   -8.5712    3.2406 H   0  0  0  0  0  0  0  0  0  0  0  0
   -2.7399   -7.1633    4.7748 H   0  0  0  0  0  0  0  0  0  0  0  0
   -2.2574   -8.4445    6.8225 H   0  0  0  0  0  0  0  0  0  0  0  0
    0.4137   -8.6206    7.7971 H   0  0  0  0  0  0  0  0  0  0  0  0
    0.9075   -9.8887    8.9698 H   0  0  0  0  0  0  0  0  0  0  0  0
    2.2941  -11.0010    7.1753 H   0  0  0  0  0  0  0  0  0  0  0  0
    2.8295   -9.3208    7.5626 H   0  0  0  0  0  0  0  0  0  0  0  0
    1.8920   -9.6310    6.0593 H   0  0  0  0  0  0  0  0  0  0  0  0
    0.2061  -11.1502    4.5601 H   0  0  0  0  0  0  0  0  0  0  0  0
   -0.2913   -9.8927    2.5021 H   0  0  0  0  0  0  0  0  0  0  0  0
   -1.6751   -6.4588   -2.7000 H   0  0  0  0  0  0  0  0  0  0  0  0
   -2.1085   -4.9287   -4.5866 H   0  0  0  0  0  0  0  0  0  0  0  0
   -4.9926   -4.1422   -5.1889 H   0  0  0  0  0  0  0  0  0  0  0  0
   -5.2544   -2.7137   -6.2466 H   0  0  0  0  0  0  0  0  0  0  0  0
   -7.1193   -2.8217   -4.6968 H   0  0  0  0  0  0  0  0  0  0  0  0
   -6.0268   -2.9573   -3.2749 H   0  0  0  0  0  0  0  0  0  0  0  0
   -6.0947   -1.4146   -4.2192 H   0  0  0  0  0  0  0  0  0  0  0  0
   -4.0181   -2.1548   -1.9093 H   0  0  0  0  0  0  0  0  0  0  0  0
   -3.6084   -3.6844   -0.0228 H   0  0  0  0  0  0  0  0  0  0  0  0
    0.1685   -5.1343   -1.0536 H   0  0  0  0  0  0  0  0  0  0  0  0
    1.7404   -5.8466   -3.0168 H   0  0  0  0  0  0  0  0  0  0  0  0
    1.0113   -7.6689   -4.5169 H   0  0  0  0  0  0  0  0  0  0  0  0
    1.8641   -9.9635   -4.1998 H   0  0  0  0  0  0  0  0  0  0  0  0
    3.6427  -11.4024   -3.2472 H   0  0  0  0  0  0  0  0  0  0  0  0
    4.6283  -10.8363   -1.8625 H   0  0  0  0  0  0  0  0  0  0  0  0
    2.6550  -11.1031   -0.3323 H   0  0  0  0  0  0  0  0  0  0  0  0
    3.0702  -12.6442   -1.1735 H   0  0  0  0  0  0  0  0  0  0  0  0
    1.6540  -11.6736   -1.7330 H   0  0  0  0  0  0  0  0  0  0  0  0
    4.1718   -8.6326   -0.8106 H   0  0  0  0  0  0  0  0  0  0  0  0
    5.1051    7.8843   -3.8346 H   0  0  0  0  0  0  0  0  0  0  0  0
    4.3957    9.0701   -5.8689 H   0  0  0  0  0  0  0  0  0  0  0  0
    3.5147    7.8217   -7.8044 H   0  0  0  0  0  0  0  0  0  0  0  0
    3.4012    5.6595   -8.9809 H   0  0  0  0  0  0  0  0  0  0  0  0
    3.6492    4.1230   -8.0953 H   0  0  0  0  0  0  0  0  0  0  0  0
    1.1480    5.9267   -7.8588 H   0  0  0  0  0  0  0  0  0  0  0  0
    1.3974    4.3187   -7.0522 H   0  0  0  0  0  0  0  0  0  0  0  0
    1.2786    4.4230   -8.8487 H   0  0  0  0  0  0  0  0  0  0  0  0
    3.9021    4.1429   -5.6147 H   0  0  0  0  0  0  0  0  0  0  0  0
    4.4039   -0.0512    0.1919 H   0  0  0  0  0  0  0  0  0  0  0  0
    3.4645   -1.5186    0.1717 H   0  0  0  0  0  0  0  0  0  0  0  0
    5.5553   -0.7110    2.3048 H   0  0  0  0  0  0  0  0  0  0  0  0
    3.7862   -0.9428    2.4959 H   0  0  0  0  0  0  0  0  0  0  0  0
    4.8632   -2.3573    2.2085 H   0  0  0  0  0  0  0  0  0  0  0  0
    5.6430    1.8965    0.8156 H   0  0  0  0  0  0  0  0  0  0  0  0
    6.7041    0.4285    0.8244 H   0  0  0  0  0  0  0  0  0  0  0  0
    8.6440    1.7613    0.0705 H   0  0  0  0  0  0  0  0  0  0  0  0
    7.9739    2.3245    1.6524 H   0  0  0  0  0  0  0  0  0  0  0  0
    7.6473    3.2674    0.1570 H   0  0  0  0  0  0  0  0  0  0  0  0
    5.2451    7.8957   -0.7295 H   0  0  0  0  0  0  0  0  0  0  0  0
    5.1078   11.3645    0.7495 H   0  0  0  0  0  0  0  0  0  0  0  0
    5.7338   10.0884   -0.3312 H   0  0  0  0  0  0  0  0  0  0  0  0
    4.8808    9.7758    2.6354 H   0  0  0  0  0  0  0  0  0  0  0  0
    5.4883    8.4240    1.6052 H   0  0  0  0  0  0  0  0  0  0  0  0
    6.5746    9.8087    2.0122 H   0  0  0  0  0  0  0  0  0  0  0  0
    0.4023    7.4434   -1.6886 H   0  0  0  0  0  0  0  0  0  0  0  0
   -0.1362    5.3571   -2.3978 H   0  0  0  0  0  0  0  0  0  0  0  0
    0.5662    4.1461   -3.5131 H   0  0  0  0  0  0  0  0  0  0  0  0
    0.4146    7.1718   -4.1002 H   0  0  0  0  0  0  0  0  0  0  0  0
   -0.6407    5.8901   -4.7991 H   0  0  0  0  0  0  0  0  0  0  0  0
    1.1287    5.9108   -5.1721 H   0  0  0  0  0  0  0  0  0  0  0  0
    0.0865    9.2148    0.2259 H   0  0  0  0  0  0  0  0  0  0  0  0
    2.7285   13.7062   -3.3187 H   0  0  0  0  0  0  0  0  0  0  0  0
   -1.0964   14.8106   -0.1316 H   0  0  0  0  0  0  0  0  0  0  0  0
   -0.7112   17.1849   -2.6352 H   0  0  0  0  0  0  0  0  0  0  0  0
    0.0892   18.5606   -0.5995 H   0  0  0  0  0  0  0  0  0  0  0  0
    1.9440   17.2138    0.7489 H   0  0  0  0  0  0  0  0  0  0  0  0
    3.9020   16.6693   -0.8797 H   0  0  0  0  0  0  0  0  0  0  0  0
    3.3038   17.6742   -3.2672 H   0  0  0  0  0  0  0  0  0  0  0  0
    2.3015   19.5318   -1.6732 H   0  0  0  0  0  0  0  0  0  0  0  0
    1.1039   19.1702   -2.9983 H   0  0  0  0  0  0  0  0  0  0  0  0
    1.0643   16.7001   -4.1127 H   0  0  0  0  0  0  0  0  0  0  0  0
  1  2  2  3
  2  3  1  0
  3  4  2  0
  3  5  1  0
  5  6  2  0
  6  7  1  0
  7  8  2  0
  8  9  1  0
  9 10  2  0
 10 11  1  0
 11 12  2  3
 12 13  1  0
 13 14  3  0
 12 15  1  0
 15 16  3  0
  8 17  1  0
 17 18  1  0
 18 19  1  0
 19 20  2  0
 20 21  1  0
 21 22  1  0
 21 23  1  0
  1 24  1  0
 24 25  2  0
 25 26  1  0
 26 27  2  0
 27 28  1  0
 28 29  2  0
 29 30  1  0
 30 31  2  0
 31 32  1  0
 32 33  1  0
 33 34  1  0
 31 35  1  0
 35 36  2  0
 27 37  1  0
 37 38  2  0
 38 39  1  0
 39 40  1  0
 40 41  2  0
 41 42  1  0
 42 43  2  0
 43 44  1  0
 44 45  1  0
 45 46  1  0
 43 47  1  0
 47 48  2  0
 39 49  2  0
 49 50  1  0
 38 51  1  0
 51 52  2  0
 52 53  1  0
 52 54  1  0
 54 55  2  0
 55 56  1  0
 56 57  2  0
 57 58  1  0
 58 59  2  0
 59 60  1  0
 60 61  1  0
 61 62  1  0
 60 63  2  0
 55 64  1  0
 64 65  1  0
 65 66  1  0
 66 67  1  0
 67 68  1  0
 68 69  1  0
 69 70  2  0
 70 71  1  0
 71 72  1  0
 69 73  1  0
 73 74  1  0
 74 75  1  0
 75 76  1  0
 76 77  1  0
 77 78  1  0
 78 79  2  0
 79 80  1  0
 80 81  2  0
 81 82  1  0
 82 83  1  0
 83 84  1  0
 82 85  2  0
 77 86  2  0
 86 87  1  0
 87 88  1  0
 88 89  1  0
 89 90  1  0
 90 91  1  0
 91 92  1  0
 92 93  1  0
 93 94  1  0
 94 95  1  0
 95 96  1  0
 93 97  1  0
 97 98  1  0
 90 99  1  0
 99100  1  0
 86101  1  0
101102  2  0
102103  1  0
103104  1  0
104105  1  0
105106  1  0
103107  2  0
107108  1  0
108109  2  0
109110  1  0
110111  1  0
111112  1  0
107113  1  0
113114  2  3
114115  1  0
115116  2  0
115117  1  0
117118  2  0
118119  1  0
119120  2  0
120121  1  0
121122  2  0
122123  1  0
123124  2  3
124125  1  0
125126  3  0
124127  1  0
127128  3  0
120129  1  0
129130  1  0
130131  1  0
131132  2  0
132133  1  0
133134  1  0
133135  1  0
 11  2  1  0
 23 17  1  0
 50 24  1  0
 96 54  1  0
109101  1  0
123114  1  0
135129  1  0
 10  5  1  0
 22 18  1  0
 49 26  1  0
 63 56  1  0
 95 64  2  0
122117  1  0
134130  1  0
 23  7  1  0
 36 28  1  0
 53 37  1  0
 94 66  2  0
135119  1  0
 48 40  1  0
 92 67  2  0
 72 68  2  0
 91 73  2  0
 89 74  2  0
 88 76  2  0
 85 78  1  0
  1136  1  0
  6137  1  0
  9138  1  0
 17139  1  0
 18140  1  0
 19141  1  0
 20142  1  0
 21143  1  0
 22144  1  0
 22145  1  0
 23146  1  0
 25147  1  0
 29148  1  0
 30149  1  0
 33150  1  0
 33151  1  0
 34152  1  0
 34153  1  0
 34154  1  0
 35155  1  0
 36156  1  0
 41157  1  0
 42158  1  0
 45159  1  0
 45160  1  0
 46161  1  0
 46162  1  0
 46163  1  0
 47164  1  0
 48165  1  0
 51166  1  0
 57167  1  0
 58168  1  0
 59169  1  0
 61170  1  0
 61171  1  0
 62172  1  0
 62173  1  0
 62174  1  0
 63175  1  0
 79176  1  0
 80177  1  0
 81178  1  0
 83179  1  0
 83180  1  0
 84181  1  0
 84182  1  0
 84183  1  0
 85184  1  0
 97185  1  0
 97186  1  0
 98187  1  0
 98188  1  0
 98189  1  0
 99190  1  0
 99191  1  0
100192  1  0
100193  1  0
100194  1  0
102195  1  0
105196  1  0
105197  1  0
106198  1  0
106199  1  0
106200  1  0
108201  1  0
111202  1  0
111203  1  0
112204  1  0
112205  1  0
112206  1  0
113207  1  0
118208  1  0
121209  1  0
129210  1  0
130211  1  0
131212  1  0
132213  1  0
133214  1  0
134215  1  0
134216  1  0
135217  1  0
M  END

