
     RDKit          3D

221243  0  0  0  0  0  0  0  0999 V2000
   -6.3716    2.8975   -1.8904 C   0  0  0  0  0  0  0  0  0  0  0  0
   -6.6257    3.6960   -0.8384 C   0  0  0  0  0  0  0  0  0  0  0  0
   -5.6792    4.6584   -0.2539 C   0  0  0  0  0  0  0  0  0  0  0  0
   -4.6457    5.1222   -0.8060 O   0  0  0  0  0  0  0  0  0  0  0  0
   -6.0978    4.9525    1.1001 C   0  0  0  0  0  0  0  0  0  0  0  0
   -5.3933    5.7105    2.0647 C   0  0  0  0  0  0  0  0  0  0  0  0
   -5.9562    5.6684    3.3272 C   0  0  0  0  0  0  0  0  0  0  0  0
   -7.1320    4.9094    3.6319 C   0  0  0  0  0  0  0  0  0  0  0  0
   -7.8311    4.1745    2.6928 C   0  0  0  0  0  0  0  0  0  0  0  0
   -7.2941    4.2410    1.3788 C   0  0  0  0  0  0  0  0  0  0  0  0
   -7.7424    3.5437    0.1412 C   0  0  0  0  0  0  0  0  0  0  0  0
   -8.9903    3.0719   -0.1109 C   0  0  0  0  0  0  0  0  0  0  0  0
  -10.0540    3.1465    0.8564 C   0  0  0  0  0  0  0  0  0  0  0  0
  -10.9183    3.2090    1.6210 N   0  0  0  0  0  0  0  0  0  0  0  0
   -9.3861    2.5941   -1.4130 C   0  0  0  0  0  0  0  0  0  0  0  0
   -9.7153    2.2080   -2.4549 N   0  0  0  0  0  0  0  0  0  0  0  0
   -7.0218    5.2861    5.0780 C   0  0  0  0  0  0  0  0  0  0  0  0
   -6.4784    4.1892    6.0444 C   0  0  0  0  0  0  0  0  0  0  0  0
   -6.1065    4.9086    7.3179 C   0  0  0  0  0  0  0  0  0  0  0  0
   -5.0264    5.6445    7.0362 C   0  0  0  0  0  0  0  0  0  0  0  0
   -4.7013    5.3917    5.5822 C   0  0  0  0  0  0  0  0  0  0  0  0
   -5.0805    3.9228    5.5132 C   0  0  0  0  0  0  0  0  0  0  0  0
   -5.8296    6.0828    4.7608 C   0  0  0  0  0  0  0  0  0  0  0  0
   -5.0920    2.9224   -2.6168 C   0  0  0  0  0  0  0  0  0  0  0  0
   -4.8771    3.8628   -3.6335 C   0  0  0  0  0  0  0  0  0  0  0  0
   -3.6549    3.8881   -4.3365 C   0  0  0  0  0  0  0  0  0  0  0  0
   -3.3966    4.8016   -5.3757 O   0  0  0  0  0  0  0  0  0  0  0  0
   -4.2775    5.8396   -5.8060 C   0  0  0  0  0  0  0  0  0  0  0  0
   -4.2237    7.0206   -4.8438 C   0  0  0  0  0  0  0  0  0  0  0  0
   -2.6567    2.9609   -3.9946 C   0  0  0  0  0  0  0  0  0  0  0  0
   -2.8750    2.0251   -2.9788 C   0  0  0  0  0  0  0  0  0  0  0  0
   -4.0987    1.9878   -2.2939 C   0  0  0  0  0  0  0  0  0  0  0  0
   -4.3560    1.0465   -1.2854 O   0  0  0  0  0  0  0  0  0  0  0  0
   -3.4544    0.0131   -0.8938 C   0  0  0  0  0  0  0  0  0  0  0  0
   -4.1210   -0.8699    0.1437 C   0  0  0  0  0  0  0  0  0  0  0  0
   -1.3586    2.9578   -4.6760 C   0  0  0  0  0  0  0  0  0  0  0  0
   -0.9576    2.0100   -5.6338 C   0  0  0  0  0  0  0  0  0  0  0  0
   -1.8890    1.0503   -6.3233 C   0  0  0  0  0  0  0  0  0  0  0  0
   -2.4956    1.7011   -7.5612 C   0  0  0  0  0  0  0  0  0  0  0  0
    0.4304    2.0105   -5.7860 C   0  0  0  0  0  0  0  0  0  0  0  0
    1.4855    0.8403   -6.3922 S   0  0  0  0  0  0  0  0  0  0  0  0
    2.8345    1.5406   -5.6376 C   0  0  0  0  0  0  0  0  0  0  0  0
    3.9671    0.9039   -5.0248 C   0  0  0  0  0  0  0  0  0  0  0  0
    4.2941    1.5919   -3.8726 C   0  0  0  0  0  0  0  0  0  0  0  0
    3.3967    2.8026   -3.6454 C   0  0  0  0  0  0  0  0  0  0  0  0
    2.4659    2.6128   -4.8421 C   0  0  0  0  0  0  0  0  0  0  0  0
    1.1032    2.8785   -4.9694 C   0  0  0  0  0  0  0  0  0  0  0  0
    0.0084    3.7003   -4.0009 S   0  0  0  0  0  0  0  0  0  0  0  0
    4.1688    4.1207   -3.7966 C   0  0  0  0  0  0  0  0  0  0  0  0
    3.4778    5.3110   -4.1040 C   0  0  0  0  0  0  0  0  0  0  0  0
    4.1598    6.5212   -4.2512 C   0  0  0  0  0  0  0  0  0  0  0  0
    5.5519    6.5707   -4.1032 C   0  0  0  0  0  0  0  0  0  0  0  0
    6.2919    7.8727   -4.2687 C   0  0  0  0  0  0  0  0  0  0  0  0
    6.5313    8.5353   -2.9139 C   0  0  0  0  0  0  0  0  0  0  0  0
    6.2454    5.4016   -3.7607 C   0  0  0  0  0  0  0  0  0  0  0  0
    5.5645    4.1936   -3.5969 C   0  0  0  0  0  0  0  0  0  0  0  0
    2.6192    2.6625   -2.3240 C   0  0  0  0  0  0  0  0  0  0  0  0
    1.8329    1.5093   -2.0965 C   0  0  0  0  0  0  0  0  0  0  0  0
    1.0416    1.3905   -0.9527 C   0  0  0  0  0  0  0  0  0  0  0  0
    1.0325    2.4077    0.0085 C   0  0  0  0  0  0  0  0  0  0  0  0
    0.1261    2.3159    1.2058 C   0  0  0  0  0  0  0  0  0  0  0  0
   -1.1860    3.0582    0.9526 C   0  0  0  0  0  0  0  0  0  0  0  0
    1.8377    3.5412   -0.1836 C   0  0  0  0  0  0  0  0  0  0  0  0
    2.6254    3.6658   -1.3316 C   0  0  0  0  0  0  0  0  0  0  0  0
    4.9514    0.7681   -2.9601 C   0  0  0  0  0  0  0  0  0  0  0  0
    5.2691    0.8972   -1.2978 S   0  0  0  0  0  0  0  0  0  0  0  0
    5.6739   -0.7472   -1.2026 C   0  0  0  0  0  0  0  0  0  0  0  0
    5.7219   -1.7094   -0.1410 C   0  0  0  0  0  0  0  0  0  0  0  0
    5.5192   -2.9652   -0.6587 C   0  0  0  0  0  0  0  0  0  0  0  0
    5.2779   -2.9132   -2.1759 C   0  0  0  0  0  0  0  0  0  0  0  0
    6.3901   -3.7080   -2.8873 C   0  0  0  0  0  0  0  0  0  0  0  0
    7.6865   -3.1576   -3.0004 C   0  0  0  0  0  0  0  0  0  0  0  0
    8.7226   -3.8678   -3.6087 C   0  0  0  0  0  0  0  0  0  0  0  0
    8.5051   -5.1630   -4.0929 C   0  0  0  0  0  0  0  0  0  0  0  0
    9.6116   -5.9107   -4.7920 C   0  0  0  0  0  0  0  0  0  0  0  0
    9.6325   -5.5774   -6.2818 C   0  0  0  0  0  0  0  0  0  0  0  0
    7.2354   -5.7376   -3.9608 C   0  0  0  0  0  0  0  0  0  0  0  0
    6.1979   -5.0310   -3.3434 C   0  0  0  0  0  0  0  0  0  0  0  0
    3.8194   -3.2713   -2.5446 C   0  0  0  0  0  0  0  0  0  0  0  0
    3.4668   -3.6818   -3.8497 C   0  0  0  0  0  0  0  0  0  0  0  0
    2.1354   -3.9475   -4.1891 C   0  0  0  0  0  0  0  0  0  0  0  0
    1.1150   -3.7905   -3.2397 C   0  0  0  0  0  0  0  0  0  0  0  0
   -0.3192   -4.0741   -3.5979 C   0  0  0  0  0  0  0  0  0  0  0  0
   -1.0455   -2.7894   -3.9927 C   0  0  0  0  0  0  0  0  0  0  0  0
    1.4362   -3.3016   -1.9698 C   0  0  0  0  0  0  0  0  0  0  0  0
    2.7619   -3.0207   -1.6364 C   0  0  0  0  0  0  0  0  0  0  0  0
    5.4503   -1.4144   -2.3811 C   0  0  0  0  0  0  0  0  0  0  0  0
    5.0747   -0.5338   -3.3901 C   0  0  0  0  0  0  0  0  0  0  0  0
    4.3587   -0.7442   -4.9055 S   0  0  0  0  0  0  0  0  0  0  0  0
    5.1012   -3.9006    0.3111 C   0  0  0  0  0  0  0  0  0  0  0  0
    4.7291   -5.3326    0.0158 C   0  0  0  0  0  0  0  0  0  0  0  0
    5.6570   -6.3013    0.7455 C   0  0  0  0  0  0  0  0  0  0  0  0
    4.9184   -3.2940    1.5689 C   0  0  0  0  0  0  0  0  0  0  0  0
    5.2534   -1.6338    1.4629 S   0  0  0  0  0  0  0  0  0  0  0  0
    4.0947   -3.8564    2.6524 C   0  0  0  0  0  0  0  0  0  0  0  0
    2.7186   -4.0008    2.4367 C   0  0  0  0  0  0  0  0  0  0  0  0
    1.8881   -4.5309    3.4355 C   0  0  0  0  0  0  0  0  0  0  0  0
    0.5014   -4.6942    3.2468 O   0  0  0  0  0  0  0  0  0  0  0  0
   -0.2337   -4.3420    2.0710 C   0  0  0  0  0  0  0  0  0  0  0  0
   -0.0540   -5.3913    0.9767 C   0  0  0  0  0  0  0  0  0  0  0  0
    2.4515   -4.8925    4.6733 C   0  0  0  0  0  0  0  0  0  0  0  0
    3.8289   -4.7602    4.8890 C   0  0  0  0  0  0  0  0  0  0  0  0
    4.6642   -4.2424    3.8770 C   0  0  0  0  0  0  0  0  0  0  0  0
    6.0511   -4.0947    4.0464 O   0  0  0  0  0  0  0  0  0  0  0  0
    6.8245   -4.6402    5.1158 C   0  0  0  0  0  0  0  0  0  0  0  0
    6.9251   -6.1578    4.9842 C   0  0  0  0  0  0  0  0  0  0  0  0
    1.5717   -5.3817    5.7512 C   0  0  0  0  0  0  0  0  0  0  0  0
    0.6853   -4.5680    6.3582 C   0  0  0  0  0  0  0  0  0  0  0  0
    0.6018   -3.1199    6.1396 C   0  0  0  0  0  0  0  0  0  0  0  0
    1.5450   -2.3672    5.7744 O   0  0  0  0  0  0  0  0  0  0  0  0
   -0.7573   -2.6908    6.3815 C   0  0  0  0  0  0  0  0  0  0  0  0
   -1.3154   -1.4413    6.0371 C   0  0  0  0  0  0  0  0  0  0  0  0
   -2.6918   -1.4121    6.1074 C   0  0  0  0  0  0  0  0  0  0  0  0
   -3.4849   -2.5400    6.4960 C   0  0  0  0  0  0  0  0  0  0  0  0
   -2.9413   -3.7600    6.8661 C   0  0  0  0  0  0  0  0  0  0  0  0
   -1.5191   -3.8081    6.8159 C   0  0  0  0  0  0  0  0  0  0  0  0
   -0.6125   -4.9803    6.9697 C   0  0  0  0  0  0  0  0  0  0  0  0
   -0.8658   -6.1161    7.6652 C   0  0  0  0  0  0  0  0  0  0  0  0
   -2.1309   -6.3614    8.3075 C   0  0  0  0  0  0  0  0  0  0  0  0
   -3.1442   -6.5670    8.8279 N   0  0  0  0  0  0  0  0  0  0  0  0
    0.1684   -7.0790    7.9448 C   0  0  0  0  0  0  0  0  0  0  0  0
    0.9963   -7.8544    8.1858 N   0  0  0  0  0  0  0  0  0  0  0  0
   -4.7410   -1.7936    6.1510 C   0  0  0  0  0  0  0  0  0  0  0  0
   -5.4703   -2.1880    4.8267 C   0  0  0  0  0  0  0  0  0  0  0  0
   -4.4653   -2.6995    3.8194 C   0  0  0  0  0  0  0  0  0  0  0  0
   -3.7161   -1.6549    3.4684 C   0  0  0  0  0  0  0  0  0  0  0  0
   -4.2419   -0.4643    4.2409 C   0  0  0  0  0  0  0  0  0  0  0  0
   -5.7186   -0.8105    4.2414 C   0  0  0  0  0  0  0  0  0  0  0  0
   -3.9270   -0.6374    5.7583 C   0  0  0  0  0  0  0  0  0  0  0  0
   -7.0213    2.0646   -2.1141 H   0  0  0  0  0  0  0  0  0  0  0  0
   -4.4695    6.2321    1.8519 H   0  0  0  0  0  0  0  0  0  0  0  0
   -8.6697    3.5629    2.9802 H   0  0  0  0  0  0  0  0  0  0  0  0
   -7.8853    5.8761    5.4548 H   0  0  0  0  0  0  0  0  0  0  0  0
   -7.1233    3.2955    6.1747 H   0  0  0  0  0  0  0  0  0  0  0  0
   -6.5486    4.7810    8.2995 H   0  0  0  0  0  0  0  0  0  0  0  0
   -4.4480    6.2180    7.7523 H   0  0  0  0  0  0  0  0  0  0  0  0
   -3.6636    5.6452    5.2792 H   0  0  0  0  0  0  0  0  0  0  0  0
   -4.4660    3.2786    6.1885 H   0  0  0  0  0  0  0  0  0  0  0  0
   -5.0523    3.4883    4.4904 H   0  0  0  0  0  0  0  0  0  0  0  0
   -5.9478    7.1764    4.9250 H   0  0  0  0  0  0  0  0  0  0  0  0
   -5.6659    4.5686   -3.8593 H   0  0  0  0  0  0  0  0  0  0  0  0
   -3.9428    6.1829   -6.8064 H   0  0  0  0  0  0  0  0  0  0  0  0
   -5.3139    5.4591   -5.9206 H   0  0  0  0  0  0  0  0  0  0  0  0
   -4.8985    7.8269   -5.2031 H   0  0  0  0  0  0  0  0  0  0  0  0
   -4.5407    6.7143   -3.8288 H   0  0  0  0  0  0  0  0  0  0  0  0
   -3.1871    7.4146   -4.7906 H   0  0  0  0  0  0  0  0  0  0  0  0
   -2.0811    1.3314   -2.7308 H   0  0  0  0  0  0  0  0  0  0  0  0
   -2.5336    0.4561   -0.4571 H   0  0  0  0  0  0  0  0  0  0  0  0
   -3.1835   -0.6086   -1.7749 H   0  0  0  0  0  0  0  0  0  0  0  0
   -4.3689   -0.2691    1.0435 H   0  0  0  0  0  0  0  0  0  0  0  0
   -3.4327   -1.6918    0.4303 H   0  0  0  0  0  0  0  0  0  0  0  0
   -5.0507   -1.3106   -0.2728 H   0  0  0  0  0  0  0  0  0  0  0  0
   -2.7033    0.7444   -5.6325 H   0  0  0  0  0  0  0  0  0  0  0  0
   -1.3465    0.1274   -6.6196 H   0  0  0  0  0  0  0  0  0  0  0  0
   -1.6989    1.9246   -8.3037 H   0  0  0  0  0  0  0  0  0  0  0  0
   -3.2382    1.0136   -8.0209 H   0  0  0  0  0  0  0  0  0  0  0  0
   -3.0135    2.6455   -7.2861 H   0  0  0  0  0  0  0  0  0  0  0  0
    2.4034    5.3105   -4.2225 H   0  0  0  0  0  0  0  0  0  0  0  0
    3.6009    7.4189   -4.4843 H   0  0  0  0  0  0  0  0  0  0  0  0
    5.7110    8.5638   -4.9203 H   0  0  0  0  0  0  0  0  0  0  0  0
    7.2688    7.6856   -4.7697 H   0  0  0  0  0  0  0  0  0  0  0  0
    5.5613    8.7574   -2.4162 H   0  0  0  0  0  0  0  0  0  0  0  0
    7.1373    7.8676   -2.2617 H   0  0  0  0  0  0  0  0  0  0  0  0
    7.0827    9.4912   -3.0582 H   0  0  0  0  0  0  0  0  0  0  0  0
    7.3212    5.4237   -3.6231 H   0  0  0  0  0  0  0  0  0  0  0  0
    6.1430    3.3214   -3.3255 H   0  0  0  0  0  0  0  0  0  0  0  0
    1.8092    0.7097   -2.8259 H   0  0  0  0  0  0  0  0  0  0  0  0
    0.4219    0.5098   -0.8254 H   0  0  0  0  0  0  0  0  0  0  0  0
    0.6325    2.7525    2.0955 H   0  0  0  0  0  0  0  0  0  0  0  0
   -0.0984    1.2519    1.4436 H   0  0  0  0  0  0  0  0  0  0  0  0
   -1.7009    2.6403    0.0604 H   0  0  0  0  0  0  0  0  0  0  0  0
   -0.9938    4.1413    0.7872 H   0  0  0  0  0  0  0  0  0  0  0  0
   -1.8533    2.9498    1.8353 H   0  0  0  0  0  0  0  0  0  0  0  0
    1.8415    4.3371    0.5521 H   0  0  0  0  0  0  0  0  0  0  0  0
    3.2207    4.5616   -1.4360 H   0  0  0  0  0  0  0  0  0  0  0  0
    7.9111   -2.1738   -2.6112 H   0  0  0  0  0  0  0  0  0  0  0  0
    9.6966   -3.4051   -3.7030 H   0  0  0  0  0  0  0  0  0  0  0  0
   10.5930   -5.6478   -4.3397 H   0  0  0  0  0  0  0  0  0  0  0  0
    9.4745   -7.0077   -4.6626 H   0  0  0  0  0  0  0  0  0  0  0  0
   10.4715   -6.1140   -6.7757 H   0  0  0  0  0  0  0  0  0  0  0  0
    8.6792   -5.8933   -6.7597 H   0  0  0  0  0  0  0  0  0  0  0  0
    9.7717   -4.4846   -6.4318 H   0  0  0  0  0  0  0  0  0  0  0  0
    7.0458   -6.7370   -4.3351 H   0  0  0  0  0  0  0  0  0  0  0  0
    5.2412   -5.5245   -3.2552 H   0  0  0  0  0  0  0  0  0  0  0  0
    4.2167   -3.7731   -4.6242 H   0  0  0  0  0  0  0  0  0  0  0  0
    1.8985   -4.2724   -5.1951 H   0  0  0  0  0  0  0  0  0  0  0  0
   -0.3730   -4.8004   -4.4396 H   0  0  0  0  0  0  0  0  0  0  0  0
   -0.8385   -4.5393   -2.7292 H   0  0  0  0  0  0  0  0  0  0  0  0
   -1.0557   -2.0726   -3.1428 H   0  0  0  0  0  0  0  0  0  0  0  0
   -2.0954   -3.0276   -4.2634 H   0  0  0  0  0  0  0  0  0  0  0  0
   -0.5469   -2.3168   -4.8684 H   0  0  0  0  0  0  0  0  0  0  0  0
    0.6550   -3.1204   -1.2399 H   0  0  0  0  0  0  0  0  0  0  0  0
    2.9487   -2.5914   -0.6634 H   0  0  0  0  0  0  0  0  0  0  0  0
    3.6742   -5.5250    0.3072 H   0  0  0  0  0  0  0  0  0  0  0  0
    4.8028   -5.5346   -1.0663 H   0  0  0  0  0  0  0  0  0  0  0  0
    6.7133   -6.0993    0.4666 H   0  0  0  0  0  0  0  0  0  0  0  0
    5.5418   -6.1960    1.8435 H   0  0  0  0  0  0  0  0  0  0  0  0
    5.4056   -7.3452    0.4605 H   0  0  0  0  0  0  0  0  0  0  0  0
    2.3060   -3.6921    1.4873 H   0  0  0  0  0  0  0  0  0  0  0  0
    0.0527   -3.3311    1.7095 H   0  0  0  0  0  0  0  0  0  0  0  0
   -1.3096   -4.3040    2.3402 H   0  0  0  0  0  0  0  0  0  0  0  0
   -0.6706   -5.1157    0.0965 H   0  0  0  0  0  0  0  0  0  0  0  0
    1.0076   -5.4607    0.6590 H   0  0  0  0  0  0  0  0  0  0  0  0
   -0.3842   -6.3835    1.3497 H   0  0  0  0  0  0  0  0  0  0  0  0
    4.2290   -5.0367    5.8537 H   0  0  0  0  0  0  0  0  0  0  0  0
    7.8494   -4.2108    5.0543 H   0  0  0  0  0  0  0  0  0  0  0  0
    6.4023   -4.3501    6.1018 H   0  0  0  0  0  0  0  0  0  0  0  0
    7.7485   -6.5381    5.6213 H   0  0  0  0  0  0  0  0  0  0  0  0
    7.1354   -6.4359    3.9310 H   0  0  0  0  0  0  0  0  0  0  0  0
    5.9810   -6.6404    5.3017 H   0  0  0  0  0  0  0  0  0  0  0  0
    1.4905   -6.4554    5.8430 H   0  0  0  0  0  0  0  0  0  0  0  0
   -0.7358   -0.6223    5.6327 H   0  0  0  0  0  0  0  0  0  0  0  0
   -3.5739   -4.6124    7.0529 H   0  0  0  0  0  0  0  0  0  0  0  0
   -5.4064   -1.6015    7.0232 H   0  0  0  0  0  0  0  0  0  0  0  0
   -6.3691   -2.8241    4.9546 H   0  0  0  0  0  0  0  0  0  0  0  0
   -4.3733   -3.7106    3.4370 H   0  0  0  0  0  0  0  0  0  0  0  0
   -2.8835   -1.6719    2.7720 H   0  0  0  0  0  0  0  0  0  0  0  0
   -3.9829    0.5262    3.8119 H   0  0  0  0  0  0  0  0  0  0  0  0
   -6.1694   -0.8360    3.2215 H   0  0  0  0  0  0  0  0  0  0  0  0
   -6.3295   -0.1478    4.9002 H   0  0  0  0  0  0  0  0  0  0  0  0
   -4.1009    0.2671    6.3819 H   0  0  0  0  0  0  0  0  0  0  0  0
  1  2  2  3
  2  3  1  0
  3  4  2  0
  3  5  1  0
  5  6  2  0
  6  7  1  0
  7  8  2  0
  8  9  1  0
  9 10  2  0
 10 11  1  0
 11 12  2  3
 12 13  1  0
 13 14  3  0
 12 15  1  0
 15 16  3  0
  8 17  1  0
 17 18  1  0
 18 19  1  0
 19 20  2  0
 20 21  1  0
 21 22  1  0
 21 23  1  0
  1 24  1  0
 24 25  2  0
 25 26  1  0
 26 27  1  0
 27 28  1  0
 28 29  1  0
 26 30  2  0
 30 31  1  0
 31 32  2  0
 32 33  1  0
 33 34  1  0
 34 35  1  0
 30 36  1  0
 36 37  2  0
 37 38  1  0
 38 39  1  0
 37 40  1  0
 40 41  1  0
 41 42  1  0
 42 43  1  0
 43 44  2  0
 44 45  1  0
 45 46  1  0
 46 47  1  0
 47 48  1  0
 45 49  1  0
 49 50  2  0
 50 51  1  0
 51 52  2  0
 52 53  1  0
 53 54  1  0
 52 55  1  0
 55 56  2  0
 45 57  1  0
 57 58  2  0
 58 59  1  0
 59 60  2  0
 60 61  1  0
 61 62  1  0
 60 63  1  0
 63 64  2  0
 44 65  1  0
 65 66  1  0
 66 67  1  0
 67 68  1  0
 68 69  2  0
 69 70  1  0
 70 71  1  0
 71 72  2  0
 72 73  1  0
 73 74  2  0
 74 75  1  0
 75 76  1  0
 74 77  1  0
 77 78  2  0
 70 79  1  0
 79 80  2  0
 80 81  1  0
 81 82  2  0
 82 83  1  0
 83 84  1  0
 82 85  1  0
 85 86  2  0
 70 87  1  0
 87 88  1  0
 88 89  1  0
 69 90  1  0
 90 91  1  0
 91 92  1  0
 90 93  2  0
 93 94  1  0
 93 95  1  0
 95 96  2  0
 96 97  1  0
 97 98  1  0
 98 99  1  0
 99100  1  0
 97101  2  0
101102  1  0
102103  2  0
103104  1  0
104105  1  0
105106  1  0
101107  1  0
107108  2  3
108109  1  0
109110  2  0
109111  1  0
111112  2  0
112113  1  0
113114  2  0
114115  1  0
115116  2  0
116117  1  0
117118  2  3
118119  1  0
119120  3  0
118121  1  0
121122  3  0
114123  1  0
123124  1  0
124125  1  0
125126  2  0
126127  1  0
127128  1  0
127129  1  0
 11  2  1  0
 23 17  1  0
 32 24  1  0
 48 36  1  0
 56 49  1  0
 64 57  1  0
 88 65  2  0
103 95  1  0
117108  1  0
129123  1  0
 10  5  1  0
 22 18  1  0
 47 40  2  0
 87 67  2  0
116111  1  0
128124  1  0
 23  7  1  0
 46 42  2  0
 94 68  1  0
129113  1  0
 89 43  1  0
 78 71  1  0
 86 79  1  0
  1130  1  0
  6131  1  0
  9132  1  0
 17133  1  0
 18134  1  0
 19135  1  0
 20136  1  0
 21137  1  0
 22138  1  0
 22139  1  0
 23140  1  0
 25141  1  0
 28142  1  0
 28143  1  0
 29144  1  0
 29145  1  0
 29146  1  0
 31147  1  0
 34148  1  0
 34149  1  0
 35150  1  0
 35151  1  0
 35152  1  0
 38153  1  0
 38154  1  0
 39155  1  0
 39156  1  0
 39157  1  0
 50158  1  0
 51159  1  0
 53160  1  0
 53161  1  0
 54162  1  0
 54163  1  0
 54164  1  0
 55165  1  0
 56166  1  0
 58167  1  0
 59168  1  0
 61169  1  0
 61170  1  0
 62171  1  0
 62172  1  0
 62173  1  0
 63174  1  0
 64175  1  0
 72176  1  0
 73177  1  0
 75178  1  0
 75179  1  0
 76180  1  0
 76181  1  0
 76182  1  0
 77183  1  0
 78184  1  0
 80185  1  0
 81186  1  0
 83187  1  0
 83188  1  0
 84189  1  0
 84190  1  0
 84191  1  0
 85192  1  0
 86193  1  0
 91194  1  0
 91195  1  0
 92196  1  0
 92197  1  0
 92198  1  0
 96199  1  0
 99200  1  0
 99201  1  0
100202  1  0
100203  1  0
100204  1  0
102205  1  0
105206  1  0
105207  1  0
106208  1  0
106209  1  0
106210  1  0
107211  1  0
112212  1  0
115213  1  0
123214  1  0
124215  1  0
125216  1  0
126217  1  0
127218  1  0
128219  1  0
128220  1  0
129221  1  0
M  END

