
     RDKit          3D

199223  0  0  0  0  0  0  0  0999 V2000
   -1.0555   -5.2221   -6.6793 C   0  0  0  0  0  0  0  0  0  0  0  0
   -2.0419   -4.7940   -5.8632 C   0  0  0  0  0  0  0  0  0  0  0  0
   -2.0398   -3.5265   -5.1089 C   0  0  0  0  0  0  0  0  0  0  0  0
   -1.0571   -2.7632   -4.9163 O   0  0  0  0  0  0  0  0  0  0  0  0
   -3.3877   -3.2361   -4.6817 C   0  0  0  0  0  0  0  0  0  0  0  0
   -3.8311   -2.0711   -4.0134 C   0  0  0  0  0  0  0  0  0  0  0  0
   -5.1998   -2.0169   -3.8371 C   0  0  0  0  0  0  0  0  0  0  0  0
   -6.0915   -3.0324   -4.3113 C   0  0  0  0  0  0  0  0  0  0  0  0
   -5.6610   -4.1770   -4.9661 C   0  0  0  0  0  0  0  0  0  0  0  0
   -4.2484   -4.2748   -5.1212 C   0  0  0  0  0  0  0  0  0  0  0  0
   -3.4288   -5.3448   -5.7644 C   0  0  0  0  0  0  0  0  0  0  0  0
   -3.7978   -6.6364   -5.9658 C   0  0  0  0  0  0  0  0  0  0  0  0
   -5.1297   -7.1104   -5.6994 C   0  0  0  0  0  0  0  0  0  0  0  0
   -6.1968   -7.5073   -5.4886 N   0  0  0  0  0  0  0  0  0  0  0  0
   -2.8476   -7.6619   -6.3102 C   0  0  0  0  0  0  0  0  0  0  0  0
   -2.0903   -8.4951   -6.5778 N   0  0  0  0  0  0  0  0  0  0  0  0
   -7.2716   -2.2466   -3.8236 C   0  0  0  0  0  0  0  0  0  0  0  0
   -8.1060   -1.4972   -4.9050 C   0  0  0  0  0  0  0  0  0  0  0  0
   -8.9582   -0.5040   -4.1516 C   0  0  0  0  0  0  0  0  0  0  0  0
   -8.1266    0.4362   -3.6878 C   0  0  0  0  0  0  0  0  0  0  0  0
   -6.7417    0.0490   -4.1477 C   0  0  0  0  0  0  0  0  0  0  0  0
   -7.1007   -0.5280   -5.5069 C   0  0  0  0  0  0  0  0  0  0  0  0
   -6.3566   -1.2148   -3.3236 C   0  0  0  0  0  0  0  0  0  0  0  0
    0.2396   -4.5180   -6.7739 C   0  0  0  0  0  0  0  0  0  0  0  0
    1.1179   -4.4879   -5.6667 C   0  0  0  0  0  0  0  0  0  0  0  0
    0.9723   -5.3841   -4.5988 O   0  0  0  0  0  0  0  0  0  0  0  0
    0.9326   -6.8000   -4.7554 C   0  0  0  0  0  0  0  0  0  0  0  0
    0.8363   -7.4513   -3.3848 C   0  0  0  0  0  0  0  0  0  0  0  0
    2.0595   -3.4456   -5.5552 C   0  0  0  0  0  0  0  0  0  0  0  0
    2.8612   -3.3255   -4.4128 O   0  0  0  0  0  0  0  0  0  0  0  0
    3.7856   -4.3286   -3.9998 C   0  0  0  0  0  0  0  0  0  0  0  0
    4.3836   -3.9421   -2.6561 C   0  0  0  0  0  0  0  0  0  0  0  0
    2.1214   -2.4446   -6.5426 C   0  0  0  0  0  0  0  0  0  0  0  0
    1.3774   -2.5861   -7.7223 C   0  0  0  0  0  0  0  0  0  0  0  0
    0.4416   -3.6309   -7.8432 C   0  0  0  0  0  0  0  0  0  0  0  0
   -0.3349   -3.6971   -8.9601 N   0  0  0  0  0  0  0  0  0  0  0  0
   -0.2033   -2.7994   -9.9700 C   0  0  0  0  0  0  0  0  0  0  0  0
    0.7247   -1.7638   -9.8499 C   0  0  0  0  0  0  0  0  0  0  0  0
    1.4819   -1.6723   -8.7262 N   0  0  0  0  0  0  0  0  0  0  0  0
    2.6382   -1.1159   -6.1748 C   0  0  0  0  0  0  0  0  0  0  0  0
    3.9683   -0.7588   -5.8728 C   0  0  0  0  0  0  0  0  0  0  0  0
    5.1427   -1.6271   -6.1140 C   0  0  0  0  0  0  0  0  0  0  0  0
    6.1407   -1.7769   -5.1353 C   0  0  0  0  0  0  0  0  0  0  0  0
    7.2323   -2.6185   -5.3621 C   0  0  0  0  0  0  0  0  0  0  0  0
    7.3387   -3.3207   -6.5634 C   0  0  0  0  0  0  0  0  0  0  0  0
    6.3552   -3.1805   -7.5553 C   0  0  0  0  0  0  0  0  0  0  0  0
    6.4463   -3.9693   -8.8314 C   0  0  0  0  0  0  0  0  0  0  0  0
    5.7309   -5.3096   -8.6864 C   0  0  0  0  0  0  0  0  0  0  0  0
    5.2561   -2.3392   -7.3208 C   0  0  0  0  0  0  0  0  0  0  0  0
    4.0023    0.4895   -5.2286 C   0  0  0  0  0  0  0  0  0  0  0  0
    5.2346    1.4035   -4.4706 S   0  0  0  0  0  0  0  0  0  0  0  0
    4.0886    2.4817   -3.8358 C   0  0  0  0  0  0  0  0  0  0  0  0
    4.0110    3.5122   -2.9452 C   0  0  0  0  0  0  0  0  0  0  0  0
    4.9859    4.2814   -2.3089 C   0  0  0  0  0  0  0  0  0  0  0  0
    4.5668    5.3037   -1.4049 C   0  0  0  0  0  0  0  0  0  0  0  0
    5.5456    6.0097   -0.7864 N   0  0  0  0  0  0  0  0  0  0  0  0
    6.8808    5.2937   -1.4576 S   0  0  0  0  0  0  0  0  0  0  0  0
    6.3208    4.1207   -2.4854 N   0  0  0  0  0  0  0  0  0  0  0  0
    3.1963    5.4594   -1.1388 C   0  0  0  0  0  0  0  0  0  0  0  0
    2.5876    6.0347   -0.0531 C   0  0  0  0  0  0  0  0  0  0  0  0
    3.1749    6.6153    1.4297 S   0  0  0  0  0  0  0  0  0  0  0  0
    1.7711    6.1238    2.2527 C   0  0  0  0  0  0  0  0  0  0  0  0
    1.4690    5.9759    3.6129 C   0  0  0  0  0  0  0  0  0  0  0  0
    2.2901    6.4910    4.7278 C   0  0  0  0  0  0  0  0  0  0  0  0
    3.6815    6.3018    4.7523 C   0  0  0  0  0  0  0  0  0  0  0  0
    4.4426    6.8072    5.8089 C   0  0  0  0  0  0  0  0  0  0  0  0
    3.8240    7.5079    6.8471 C   0  0  0  0  0  0  0  0  0  0  0  0
    2.4325    7.6917    6.8465 C   0  0  0  0  0  0  0  0  0  0  0  0
    1.7689    8.4900    7.9352 C   0  0  0  0  0  0  0  0  0  0  0  0
    1.6566    9.9576    7.5321 C   0  0  0  0  0  0  0  0  0  0  0  0
    1.6709    7.1823    5.7823 C   0  0  0  0  0  0  0  0  0  0  0  0
    0.3213    5.1775    3.7852 C   0  0  0  0  0  0  0  0  0  0  0  0
   -0.2708    4.6864    2.2731 S   0  0  0  0  0  0  0  0  0  0  0  0
    0.9045    5.4954    1.3940 C   0  0  0  0  0  0  0  0  0  0  0  0
    1.3656    5.4383    0.0778 C   0  0  0  0  0  0  0  0  0  0  0  0
    1.1213    4.5337   -0.9074 N   0  0  0  0  0  0  0  0  0  0  0  0
    2.2326    4.6087   -1.7103 C   0  0  0  0  0  0  0  0  0  0  0  0
    2.6402    3.7066   -2.7268 C   0  0  0  0  0  0  0  0  0  0  0  0
    1.8811    2.9106   -3.5458 N   0  0  0  0  0  0  0  0  0  0  0  0
    2.8194    2.1675   -4.1855 C   0  0  0  0  0  0  0  0  0  0  0  0
    2.7689    1.0590   -5.0115 C   0  0  0  0  0  0  0  0  0  0  0  0
    1.5692    0.0733   -5.6049 S   0  0  0  0  0  0  0  0  0  0  0  0
    0.5761    3.2735   -4.1239 C   0  0  0  0  0  0  0  0  0  0  0  0
   -0.4380    2.1234   -4.0581 C   0  0  0  0  0  0  0  0  0  0  0  0
    0.2528    3.3624   -0.7335 C   0  0  0  0  0  0  0  0  0  0  0  0
    0.9939    2.2300   -0.0230 C   0  0  0  0  0  0  0  0  0  0  0  0
   -0.0438    4.4582    5.0121 C   0  0  0  0  0  0  0  0  0  0  0  0
   -1.5748    4.5189    5.7054 S   0  0  0  0  0  0  0  0  0  0  0  0
   -1.3686    3.2218    6.7533 C   0  0  0  0  0  0  0  0  0  0  0  0
   -0.0884    2.6950    6.5607 C   0  0  0  0  0  0  0  0  0  0  0  0
    0.4623    1.4993    7.2401 C   0  0  0  0  0  0  0  0  0  0  0  0
   -0.1653    0.9590    8.1895 O   0  0  0  0  0  0  0  0  0  0  0  0
    1.7723    0.9701    6.7893 C   0  0  0  0  0  0  0  0  0  0  0  0
    2.4177   -0.1761    7.2754 C   0  0  0  0  0  0  0  0  0  0  0  0
    1.9801   -1.0927    8.3802 C   0  0  0  0  0  0  0  0  0  0  0  0
    2.3861   -0.5331    9.7410 C   0  0  0  0  0  0  0  0  0  0  0  0
    3.8722   -0.3492    6.4519 S   0  0  0  0  0  0  0  0  0  0  0  0
    3.7152    1.0032    5.4667 C   0  0  0  0  0  0  0  0  0  0  0  0
    4.7187    1.3815    4.4149 C   0  0  0  0  0  0  0  0  0  0  0  0
    4.2865    0.8859    3.0385 C   0  0  0  0  0  0  0  0  0  0  0  0
    2.4947    1.6235    5.7663 C   0  0  0  0  0  0  0  0  0  0  0  0
    1.9526    2.8375    5.1107 C   0  0  0  0  0  0  0  0  0  0  0  0
    2.5754    3.3859    4.1656 O   0  0  0  0  0  0  0  0  0  0  0  0
    0.6444    3.3696    5.5666 C   0  0  0  0  0  0  0  0  0  0  0  0
   -2.4603    2.6106    7.5239 C   0  0  0  0  0  0  0  0  0  0  0  0
   -3.1091    1.5030    7.1105 C   0  0  0  0  0  0  0  0  0  0  0  0
   -3.0011    0.9020    5.7735 C   0  0  0  0  0  0  0  0  0  0  0  0
   -2.1256    1.1561    4.9046 O   0  0  0  0  0  0  0  0  0  0  0  0
   -4.1159    0.0026    5.5772 C   0  0  0  0  0  0  0  0  0  0  0  0
   -4.4613   -0.6769    4.3851 C   0  0  0  0  0  0  0  0  0  0  0  0
   -5.6488   -1.3820    4.4665 C   0  0  0  0  0  0  0  0  0  0  0  0
   -6.4578   -1.4177    5.6466 C   0  0  0  0  0  0  0  0  0  0  0  0
   -6.1272   -0.7524    6.8155 C   0  0  0  0  0  0  0  0  0  0  0  0
   -4.8980   -0.0315    6.7609 C   0  0  0  0  0  0  0  0  0  0  0  0
   -4.2440    0.8162    7.8002 C   0  0  0  0  0  0  0  0  0  0  0  0
   -4.4660    0.7732    9.1393 C   0  0  0  0  0  0  0  0  0  0  0  0
   -5.4996   -0.0331    9.7313 C   0  0  0  0  0  0  0  0  0  0  0  0
   -6.3274   -0.6768   10.2242 N   0  0  0  0  0  0  0  0  0  0  0  0
   -3.5889    1.4172   10.0836 C   0  0  0  0  0  0  0  0  0  0  0  0
   -2.8873    1.9281   10.8483 N   0  0  0  0  0  0  0  0  0  0  0  0
   -7.4641   -2.2879    4.9522 C   0  0  0  0  0  0  0  0  0  0  0  0
   -7.5013   -3.8024    5.3209 C   0  0  0  0  0  0  0  0  0  0  0  0
   -6.1226   -4.2693    5.7290 C   0  0  0  0  0  0  0  0  0  0  0  0
   -5.3689   -4.2355    4.6296 C   0  0  0  0  0  0  0  0  0  0  0  0
   -6.2591   -3.7461    3.5096 C   0  0  0  0  0  0  0  0  0  0  0  0
   -7.5578   -4.4094    3.9312 C   0  0  0  0  0  0  0  0  0  0  0  0
   -6.6356   -2.2514    3.7424 C   0  0  0  0  0  0  0  0  0  0  0  0
   -1.2341   -6.0157   -7.3880 H   0  0  0  0  0  0  0  0  0  0  0  0
   -3.1688   -1.2754   -3.6988 H   0  0  0  0  0  0  0  0  0  0  0  0
   -6.3692   -4.8912   -5.3500 H   0  0  0  0  0  0  0  0  0  0  0  0
   -7.8584   -2.7666   -3.0337 H   0  0  0  0  0  0  0  0  0  0  0  0
   -8.6537   -2.1403   -5.6236 H   0  0  0  0  0  0  0  0  0  0  0  0
  -10.0404   -0.4861   -4.0771 H   0  0  0  0  0  0  0  0  0  0  0  0
   -8.4182    1.3430   -3.1706 H   0  0  0  0  0  0  0  0  0  0  0  0
   -5.9967    0.8730   -4.1458 H   0  0  0  0  0  0  0  0  0  0  0  0
   -7.5616    0.2198   -6.1961 H   0  0  0  0  0  0  0  0  0  0  0  0
   -6.2527   -1.0190   -6.0328 H   0  0  0  0  0  0  0  0  0  0  0  0
   -6.3548   -1.0888   -2.2175 H   0  0  0  0  0  0  0  0  0  0  0  0
    0.0567   -7.1115   -5.3548 H   0  0  0  0  0  0  0  0  0  0  0  0
    1.8588   -7.1451   -5.2628 H   0  0  0  0  0  0  0  0  0  0  0  0
   -0.1156   -7.1511   -2.8946 H   0  0  0  0  0  0  0  0  0  0  0  0
    0.8549   -8.5555   -3.4911 H   0  0  0  0  0  0  0  0  0  0  0  0
    1.6917   -7.1335   -2.7506 H   0  0  0  0  0  0  0  0  0  0  0  0
    4.5976   -4.4163   -4.7543 H   0  0  0  0  0  0  0  0  0  0  0  0
    3.2923   -5.3139   -3.8924 H   0  0  0  0  0  0  0  0  0  0  0  0
    4.9197   -2.9746   -2.7431 H   0  0  0  0  0  0  0  0  0  0  0  0
    5.0984   -4.7248   -2.3260 H   0  0  0  0  0  0  0  0  0  0  0  0
    3.5779   -3.8443   -1.8988 H   0  0  0  0  0  0  0  0  0  0  0  0
   -0.8248   -2.8810  -10.8538 H   0  0  0  0  0  0  0  0  0  0  0  0
    0.8383   -1.0344  -10.6415 H   0  0  0  0  0  0  0  0  0  0  0  0
    6.0583   -1.2765   -4.1798 H   0  0  0  0  0  0  0  0  0  0  0  0
    7.9836   -2.7419   -4.5937 H   0  0  0  0  0  0  0  0  0  0  0  0
    8.1836   -3.9789   -6.7174 H   0  0  0  0  0  0  0  0  0  0  0  0
    5.9865   -3.3985   -9.6679 H   0  0  0  0  0  0  0  0  0  0  0  0
    7.5116   -4.1484   -9.0945 H   0  0  0  0  0  0  0  0  0  0  0  0
    5.8320   -5.8857   -9.6301 H   0  0  0  0  0  0  0  0  0  0  0  0
    6.1778   -5.8997   -7.8569 H   0  0  0  0  0  0  0  0  0  0  0  0
    4.6502   -5.1494   -8.4767 H   0  0  0  0  0  0  0  0  0  0  0  0
    4.4951   -2.2318   -8.0849 H   0  0  0  0  0  0  0  0  0  0  0  0
    4.1784    5.7465    3.9684 H   0  0  0  0  0  0  0  0  0  0  0  0
    5.5142    6.6602    5.8218 H   0  0  0  0  0  0  0  0  0  0  0  0
    4.4286    7.9089    7.6505 H   0  0  0  0  0  0  0  0  0  0  0  0
    2.3522    8.4139    8.8796 H   0  0  0  0  0  0  0  0  0  0  0  0
    0.7529    8.0863    8.1389 H   0  0  0  0  0  0  0  0  0  0  0  0
    2.6667   10.3833    7.3410 H   0  0  0  0  0  0  0  0  0  0  0  0
    1.0361   10.0602    6.6159 H   0  0  0  0  0  0  0  0  0  0  0  0
    1.1761   10.5323    8.3524 H   0  0  0  0  0  0  0  0  0  0  0  0
    0.5993    7.3429    5.7645 H   0  0  0  0  0  0  0  0  0  0  0  0
    0.7158    3.5793   -5.1845 H   0  0  0  0  0  0  0  0  0  0  0  0
    0.1608    4.1644   -3.6051 H   0  0  0  0  0  0  0  0  0  0  0  0
   -0.0941    1.3155   -3.3771 H   0  0  0  0  0  0  0  0  0  0  0  0
   -0.6111    1.7006   -5.0710 H   0  0  0  0  0  0  0  0  0  0  0  0
   -1.4163    2.5012   -3.6937 H   0  0  0  0  0  0  0  0  0  0  0  0
   -0.1186    2.9962   -1.6884 H   0  0  0  0  0  0  0  0  0  0  0  0
   -0.6608    3.6399   -0.1705 H   0  0  0  0  0  0  0  0  0  0  0  0
    1.8324    1.8650   -0.6509 H   0  0  0  0  0  0  0  0  0  0  0  0
    0.2979    1.3858    0.1613 H   0  0  0  0  0  0  0  0  0  0  0  0
    1.4007    2.5783    0.9510 H   0  0  0  0  0  0  0  0  0  0  0  0
    2.4607   -2.0846    8.2433 H   0  0  0  0  0  0  0  0  0  0  0  0
    0.8854   -1.2574    8.3434 H   0  0  0  0  0  0  0  0  0  0  0  0
    2.0081   -1.2007   10.5437 H   0  0  0  0  0  0  0  0  0  0  0  0
    3.4926   -0.4802    9.8182 H   0  0  0  0  0  0  0  0  0  0  0  0
    1.9609    0.4814    9.8877 H   0  0  0  0  0  0  0  0  0  0  0  0
    5.7005    0.9274    4.6664 H   0  0  0  0  0  0  0  0  0  0  0  0
    4.8674    2.4815    4.3981 H   0  0  0  0  0  0  0  0  0  0  0  0
    4.1526   -0.2159    3.0502 H   0  0  0  0  0  0  0  0  0  0  0  0
    3.3337    1.3595    2.7295 H   0  0  0  0  0  0  0  0  0  0  0  0
    5.0648    1.1399    2.2903 H   0  0  0  0  0  0  0  0  0  0  0  0
   -2.7742    3.1348    8.4118 H   0  0  0  0  0  0  0  0  0  0  0  0
   -3.8726   -0.6280    3.4785 H   0  0  0  0  0  0  0  0  0  0  0  0
   -6.7936   -0.7655    7.6605 H   0  0  0  0  0  0  0  0  0  0  0  0
   -8.4614   -1.8120    4.8237 H   0  0  0  0  0  0  0  0  0  0  0  0
   -8.3221   -4.1031    6.0063 H   0  0  0  0  0  0  0  0  0  0  0  0
   -5.8138   -4.6438    6.6996 H   0  0  0  0  0  0  0  0  0  0  0  0
   -4.3434   -4.5787    4.5511 H   0  0  0  0  0  0  0  0  0  0  0  0
   -5.9056   -3.9921    2.4871 H   0  0  0  0  0  0  0  0  0  0  0  0
   -7.5065   -5.5245    3.9285 H   0  0  0  0  0  0  0  0  0  0  0  0
   -8.4421   -4.0796    3.3353 H   0  0  0  0  0  0  0  0  0  0  0  0
   -7.1320   -1.7549    2.8786 H   0  0  0  0  0  0  0  0  0  0  0  0
  1  2  2  3
  2  3  1  0
  3  4  2  0
  3  5  1  0
  5  6  2  0
  6  7  1  0
  7  8  2  0
  8  9  1  0
  9 10  2  0
 10 11  1  0
 11 12  2  3
 12 13  1  0
 13 14  3  0
 12 15  1  0
 15 16  3  0
  8 17  1  0
 17 18  1  0
 18 19  1  0
 19 20  2  0
 20 21  1  0
 21 22  1  0
 21 23  1  0
  1 24  1  0
 24 25  2  0
 25 26  1  0
 26 27  1  0
 27 28  1  0
 25 29  1  0
 29 30  1  0
 30 31  1  0
 31 32  1  0
 29 33  2  0
 33 34  1  0
 34 35  2  0
 35 36  1  0
 36 37  2  0
 37 38  1  0
 38 39  2  0
 33 40  1  0
 40 41  2  0
 41 42  1  0
 42 43  2  0
 43 44  1  0
 44 45  2  0
 45 46  1  0
 46 47  1  0
 47 48  1  0
 46 49  2  0
 41 50  1  0
 50 51  1  0
 51 52  1  0
 52 53  1  0
 53 54  1  0
 54 55  1  0
 55 56  2  0
 56 57  1  0
 57 58  1  0
 55 59  1  0
 59 60  1  0
 60 61  1  0
 61 62  1  0
 62 63  1  0
 63 64  1  0
 64 65  2  0
 65 66  1  0
 66 67  2  0
 67 68  1  0
 68 69  1  0
 69 70  1  0
 68 71  2  0
 63 72  2  0
 72 73  1  0
 73 74  1  0
 74 75  1  0
 75 76  1  0
 76 77  1  0
 77 78  1  0
 78 79  1  0
 79 80  1  0
 80 81  1  0
 81 82  1  0
 79 83  1  0
 83 84  1  0
 76 85  1  0
 85 86  1  0
 72 87  1  0
 87 88  1  0
 88 89  1  0
 89 90  2  0
 90 91  1  0
 91 92  2  0
 91 93  1  0
 93 94  2  0
 94 95  1  0
 95 96  1  0
 94 97  1  0
 97 98  1  0
 98 99  1  0
 99100  1  0
 98101  2  0
101102  1  0
102103  2  0
102104  1  0
 89105  1  0
105106  2  3
106107  1  0
107108  2  0
107109  1  0
109110  2  0
110111  1  0
111112  2  0
112113  1  0
113114  2  0
114115  1  0
115116  2  3
116117  1  0
117118  3  0
116119  1  0
119120  3  0
112121  1  0
121122  1  0
122123  1  0
123124  2  0
124125  1  0
125126  1  0
125127  1  0
 11  2  1  0
 23 17  1  0
 35 24  1  0
 82 40  1  0
104 87  2  0
115106  1  0
127121  1  0
 10  5  1  0
 22 18  1  0
 39 34  1  0
 49 42  1  0
 81 50  2  0
104 90  1  0
114109  1  0
126122  1  0
 23  7  1  0
 80 52  2  0
101 93  1  0
127111  1  0
 78 53  2  0
 58 54  2  0
 77 59  2  0
 75 60  2  0
 74 62  2  0
 71 64  1  0
  1128  1  0
  6129  1  0
  9130  1  0
 17131  1  0
 18132  1  0
 19133  1  0
 20134  1  0
 21135  1  0
 22136  1  0
 22137  1  0
 23138  1  0
 27139  1  0
 27140  1  0
 28141  1  0
 28142  1  0
 28143  1  0
 31144  1  0
 31145  1  0
 32146  1  0
 32147  1  0
 32148  1  0
 37149  1  0
 38150  1  0
 43151  1  0
 44152  1  0
 45153  1  0
 47154  1  0
 47155  1  0
 48156  1  0
 48157  1  0
 48158  1  0
 49159  1  0
 65160  1  0
 66161  1  0
 67162  1  0
 69163  1  0
 69164  1  0
 70165  1  0
 70166  1  0
 70167  1  0
 71168  1  0
 83169  1  0
 83170  1  0
 84171  1  0
 84172  1  0
 84173  1  0
 85174  1  0
 85175  1  0
 86176  1  0
 86177  1  0
 86178  1  0
 95179  1  0
 95180  1  0
 96181  1  0
 96182  1  0
 96183  1  0
 99184  1  0
 99185  1  0
100186  1  0
100187  1  0
100188  1  0
105189  1  0
110190  1  0
113191  1  0
121192  1  0
122193  1  0
123194  1  0
124195  1  0
125196  1  0
126197  1  0
126198  1  0
127199  1  0
M  END

