
     RDKit          3D

170191  0  0  0  0  0  0  0  0999 V2000
  -11.1093    2.8719    3.1947 C   0  0  0  0  0  0  0  0  0  0  0  0
  -12.3587    2.8734    2.6916 C   0  0  0  0  0  0  0  0  0  0  0  0
  -12.9371    1.8407    1.8187 C   0  0  0  0  0  0  0  0  0  0  0  0
  -12.3163    0.9055    1.2462 O   0  0  0  0  0  0  0  0  0  0  0  0
  -14.3792    1.9694    1.8436 C   0  0  0  0  0  0  0  0  0  0  0  0
  -15.3202    1.1385    1.1907 C   0  0  0  0  0  0  0  0  0  0  0  0
  -16.6357    1.4427    1.4863 C   0  0  0  0  0  0  0  0  0  0  0  0
  -17.0135    2.4962    2.3802 C   0  0  0  0  0  0  0  0  0  0  0  0
  -16.0960    3.3175    3.0156 C   0  0  0  0  0  0  0  0  0  0  0  0
  -14.7360    3.0447    2.6999 C   0  0  0  0  0  0  0  0  0  0  0  0
  -13.4965    3.7182    3.1777 C   0  0  0  0  0  0  0  0  0  0  0  0
  -13.4039    4.9556    3.7319 C   0  0  0  0  0  0  0  0  0  0  0  0
  -14.5551    5.7464    4.0751 C   0  0  0  0  0  0  0  0  0  0  0  0
  -15.4662    6.4063    4.3572 N   0  0  0  0  0  0  0  0  0  0  0  0
  -12.1417    5.6310    3.8987 C   0  0  0  0  0  0  0  0  0  0  0  0
  -11.1258    6.1739    4.0302 N   0  0  0  0  0  0  0  0  0  0  0  0
  -18.4625    2.1704    2.1768 C   0  0  0  0  0  0  0  0  0  0  0  0
  -19.2746    3.1511    1.2789 C   0  0  0  0  0  0  0  0  0  0  0  0
  -20.5394    2.4185    0.9061 C   0  0  0  0  0  0  0  0  0  0  0  0
  -20.1814    1.4446    0.0624 C   0  0  0  0  0  0  0  0  0  0  0  0
  -18.6852    1.5523   -0.1083 C   0  0  0  0  0  0  0  0  0  0  0  0
  -18.5563    3.0651   -0.0586 C   0  0  0  0  0  0  0  0  0  0  0  0
  -18.0745    1.0980    1.2529 C   0  0  0  0  0  0  0  0  0  0  0  0
   -9.9787    2.0548    2.7087 C   0  0  0  0  0  0  0  0  0  0  0  0
   -9.0757    1.5367    3.6560 C   0  0  0  0  0  0  0  0  0  0  0  0
   -7.9190    0.9138    3.2050 C   0  0  0  0  0  0  0  0  0  0  0  0
   -6.7394    0.5164    3.9630 C   0  0  0  0  0  0  0  0  0  0  0  0
   -6.6033    0.5408    5.2149 O   0  0  0  0  0  0  0  0  0  0  0  0
   -5.7135    0.1867    2.9817 C   0  0  0  0  0  0  0  0  0  0  0  0
   -6.2542    0.3234    1.7153 C   0  0  0  0  0  0  0  0  0  0  0  0
   -7.6337    0.8012    1.8549 C   0  0  0  0  0  0  0  0  0  0  0  0
   -8.4980    1.3188    0.8907 C   0  0  0  0  0  0  0  0  0  0  0  0
   -9.6700    1.9593    1.3255 C   0  0  0  0  0  0  0  0  0  0  0  0
   -5.4660    0.1674    0.5728 C   0  0  0  0  0  0  0  0  0  0  0  0
   -4.0920   -0.0916    0.7415 C   0  0  0  0  0  0  0  0  0  0  0  0
   -3.5285   -0.1489    2.0376 C   0  0  0  0  0  0  0  0  0  0  0  0
   -4.3531   -0.0304    3.1736 C   0  0  0  0  0  0  0  0  0  0  0  0
   -2.0736   -0.1748    2.2176 C   0  0  0  0  0  0  0  0  0  0  0  0
   -1.2933    0.9254    2.6289 C   0  0  0  0  0  0  0  0  0  0  0  0
   -1.7553    2.3331    2.6416 C   0  0  0  0  0  0  0  0  0  0  0  0
   -2.4977    2.8446    1.5656 C   0  0  0  0  0  0  0  0  0  0  0  0
   -2.9336    4.1687    1.5654 C   0  0  0  0  0  0  0  0  0  0  0  0
   -2.6201    5.0038    2.6367 C   0  0  0  0  0  0  0  0  0  0  0  0
   -1.8675    4.5209    3.7147 C   0  0  0  0  0  0  0  0  0  0  0  0
   -1.4859    5.4397    4.8432 C   0  0  0  0  0  0  0  0  0  0  0  0
   -0.0607    5.9589    4.6636 C   0  0  0  0  0  0  0  0  0  0  0  0
   -1.4363    3.1838    3.7139 C   0  0  0  0  0  0  0  0  0  0  0  0
    0.0100    0.5154    2.9208 C   0  0  0  0  0  0  0  0  0  0  0  0
    1.4433    1.3422    3.3706 S   0  0  0  0  0  0  0  0  0  0  0  0
    2.3285   -0.1056    3.2743 C   0  0  0  0  0  0  0  0  0  0  0  0
    3.6168   -0.5582    3.3631 C   0  0  0  0  0  0  0  0  0  0  0  0
    4.8037    0.0484    3.7665 C   0  0  0  0  0  0  0  0  0  0  0  0
    6.0140   -0.7083    3.6936 C   0  0  0  0  0  0  0  0  0  0  0  0
    7.1513   -0.0703    4.0704 N   0  0  0  0  0  0  0  0  0  0  0  0
    6.5270    1.4044    4.4958 S   0  0  0  0  0  0  0  0  0  0  0  0
    4.8950    1.3215    4.2291 N   0  0  0  0  0  0  0  0  0  0  0  0
    5.9791   -2.0073    3.1491 C   0  0  0  0  0  0  0  0  0  0  0  0
    6.9956   -2.6940    2.5317 C   0  0  0  0  0  0  0  0  0  0  0  0
    8.5433   -2.1848    2.0607 S   0  0  0  0  0  0  0  0  0  0  0  0
    8.4681   -3.0453    0.6013 C   0  0  0  0  0  0  0  0  0  0  0  0
    9.1754   -2.8866   -0.6011 C   0  0  0  0  0  0  0  0  0  0  0  0
   10.4708   -2.1771   -0.7381 C   0  0  0  0  0  0  0  0  0  0  0  0
   11.5063   -2.7661   -1.4799 C   0  0  0  0  0  0  0  0  0  0  0  0
   12.7214   -2.1000   -1.6521 C   0  0  0  0  0  0  0  0  0  0  0  0
   12.9158   -0.8376   -1.0843 C   0  0  0  0  0  0  0  0  0  0  0  0
   11.8910   -0.2334   -0.3388 C   0  0  0  0  0  0  0  0  0  0  0  0
   12.0788    1.1477    0.2278 C   0  0  0  0  0  0  0  0  0  0  0  0
   11.4842    2.1961   -0.7070 C   0  0  0  0  0  0  0  0  0  0  0  0
   10.6653   -0.9028   -0.1796 C   0  0  0  0  0  0  0  0  0  0  0  0
    8.4547   -3.4124   -1.6944 C   0  0  0  0  0  0  0  0  0  0  0  0
    6.9954   -4.0567   -1.1203 S   0  0  0  0  0  0  0  0  0  0  0  0
    7.2606   -3.6915    0.4912 C   0  0  0  0  0  0  0  0  0  0  0  0
    6.4102   -3.4960    1.5884 C   0  0  0  0  0  0  0  0  0  0  0  0
    5.0485   -3.4394    1.6368 N   0  0  0  0  0  0  0  0  0  0  0  0
    4.7853   -2.5609    2.6561 C   0  0  0  0  0  0  0  0  0  0  0  0
    3.5700   -1.8825    2.9146 C   0  0  0  0  0  0  0  0  0  0  0  0
    2.2837   -2.2882    2.6966 N   0  0  0  0  0  0  0  0  0  0  0  0
    1.5690   -1.1569    2.8919 C   0  0  0  0  0  0  0  0  0  0  0  0
    0.2437   -0.8196    2.7128 C   0  0  0  0  0  0  0  0  0  0  0  0
   -1.1408   -1.6018    2.1875 S   0  0  0  0  0  0  0  0  0  0  0  0
    1.7520   -3.6520    2.7721 C   0  0  0  0  0  0  0  0  0  0  0  0
    1.1533   -3.9303    4.1467 C   0  0  0  0  0  0  0  0  0  0  0  0
    4.1659   -3.7739    0.5055 C   0  0  0  0  0  0  0  0  0  0  0  0
    4.0761   -5.2887    0.2972 C   0  0  0  0  0  0  0  0  0  0  0  0
    8.5601   -2.9302   -3.0857 C   0  0  0  0  0  0  0  0  0  0  0  0
    8.6887   -1.5458   -3.3288 C   0  0  0  0  0  0  0  0  0  0  0  0
    8.5104   -1.0176   -4.6162 C   0  0  0  0  0  0  0  0  0  0  0  0
    8.2140   -1.8564   -5.7107 C   0  0  0  0  0  0  0  0  0  0  0  0
    8.0817   -3.2276   -5.4560 C   0  0  0  0  0  0  0  0  0  0  0  0
    7.6899   -4.3322   -6.3338 C   0  0  0  0  0  0  0  0  0  0  0  0
    7.4464   -4.2434   -7.5662 O   0  0  0  0  0  0  0  0  0  0  0  0
    7.6241   -5.5473   -5.5909 N   0  0  0  0  0  0  0  0  0  0  0  0
    7.2906   -6.8758   -6.0964 C   0  0  0  0  0  0  0  0  0  0  0  0
    8.4814   -7.4779   -6.8320 C   0  0  0  0  0  0  0  0  0  0  0  0
    8.0139   -5.1924   -4.2658 C   0  0  0  0  0  0  0  0  0  0  0  0
    8.1607   -6.0225   -3.3281 O   0  0  0  0  0  0  0  0  0  0  0  0
    8.2676   -3.7531   -4.1829 C   0  0  0  0  0  0  0  0  0  0  0  0
    7.9024   -1.2778   -7.0360 C   0  0  0  0  0  0  0  0  0  0  0  0
    8.6421   -0.3160   -7.6242 C   0  0  0  0  0  0  0  0  0  0  0  0
   10.0344    0.0087   -7.2779 C   0  0  0  0  0  0  0  0  0  0  0  0
   10.7223   -0.5047   -6.3562 O   0  0  0  0  0  0  0  0  0  0  0  0
   10.5519    0.9149   -8.2760 C   0  0  0  0  0  0  0  0  0  0  0  0
   11.8466    1.4269   -8.3758 C   0  0  0  0  0  0  0  0  0  0  0  0
   12.1626    2.2285   -9.4771 C   0  0  0  0  0  0  0  0  0  0  0  0
   11.1949    2.4868  -10.4660 C   0  0  0  0  0  0  0  0  0  0  0  0
   11.6144    3.4661  -11.8600 Cl  0  0  0  0  0  0  0  0  0  0  0  0
    9.8999    1.9482  -10.3533 C   0  0  0  0  0  0  0  0  0  0  0  0
    9.5769    1.1744   -9.2246 C   0  0  0  0  0  0  0  0  0  0  0  0
    8.3048    0.4880   -8.8429 C   0  0  0  0  0  0  0  0  0  0  0  0
    7.0643    0.7456   -9.3382 C   0  0  0  0  0  0  0  0  0  0  0  0
    6.8319    1.7044  -10.3858 C   0  0  0  0  0  0  0  0  0  0  0  0
    6.6217    2.4813  -11.2186 N   0  0  0  0  0  0  0  0  0  0  0  0
    5.8675    0.1837   -8.7683 C   0  0  0  0  0  0  0  0  0  0  0  0
    4.8990   -0.2587   -8.3175 N   0  0  0  0  0  0  0  0  0  0  0  0
  -10.9017    3.4633    4.0731 H   0  0  0  0  0  0  0  0  0  0  0  0
  -15.0413    0.3361    0.5268 H   0  0  0  0  0  0  0  0  0  0  0  0
  -16.4279    4.0662    3.7132 H   0  0  0  0  0  0  0  0  0  0  0  0
  -18.9788    1.8153    3.0949 H   0  0  0  0  0  0  0  0  0  0  0  0
  -19.4195    4.1726    1.6899 H   0  0  0  0  0  0  0  0  0  0  0  0
  -21.5550    2.6751    1.1847 H   0  0  0  0  0  0  0  0  0  0  0  0
  -20.8559    0.7691   -0.4540 H   0  0  0  0  0  0  0  0  0  0  0  0
  -18.2690    1.0582   -1.0097 H   0  0  0  0  0  0  0  0  0  0  0  0
  -19.0989    3.5799   -0.8878 H   0  0  0  0  0  0  0  0  0  0  0  0
  -17.5058    3.4322   -0.0390 H   0  0  0  0  0  0  0  0  0  0  0  0
  -18.3514    0.0750    1.5918 H   0  0  0  0  0  0  0  0  0  0  0  0
   -9.2387    1.6711    4.7176 H   0  0  0  0  0  0  0  0  0  0  0  0
   -8.2441    1.2826   -0.1600 H   0  0  0  0  0  0  0  0  0  0  0  0
  -10.3129    2.4248    0.5912 H   0  0  0  0  0  0  0  0  0  0  0  0
   -5.8857    0.2862   -0.4160 H   0  0  0  0  0  0  0  0  0  0  0  0
   -3.4544   -0.1662   -0.1319 H   0  0  0  0  0  0  0  0  0  0  0  0
   -3.9323   -0.0461    4.1721 H   0  0  0  0  0  0  0  0  0  0  0  0
   -2.7124    2.2302    0.7018 H   0  0  0  0  0  0  0  0  0  0  0  0
   -3.5108    4.5498    0.7321 H   0  0  0  0  0  0  0  0  0  0  0  0
   -2.9604    6.0307    2.6206 H   0  0  0  0  0  0  0  0  0  0  0  0
   -1.5665    4.8993    5.8127 H   0  0  0  0  0  0  0  0  0  0  0  0
   -2.1843    6.3050    4.8873 H   0  0  0  0  0  0  0  0  0  0  0  0
    0.6645    5.1173    4.7145 H   0  0  0  0  0  0  0  0  0  0  0  0
    0.0425    6.4722    3.6805 H   0  0  0  0  0  0  0  0  0  0  0  0
    0.1712    6.6836    5.4718 H   0  0  0  0  0  0  0  0  0  0  0  0
   -0.8578    2.8083    4.5480 H   0  0  0  0  0  0  0  0  0  0  0  0
   11.3744   -3.7438   -1.9235 H   0  0  0  0  0  0  0  0  0  0  0  0
   13.5133   -2.5569   -2.2312 H   0  0  0  0  0  0  0  0  0  0  0  0
   13.8576   -0.3275   -1.2372 H   0  0  0  0  0  0  0  0  0  0  0  0
   11.5878    1.2200    1.2198 H   0  0  0  0  0  0  0  0  0  0  0  0
   13.1599    1.3610    0.3741 H   0  0  0  0  0  0  0  0  0  0  0  0
   10.3846    2.0556   -0.7951 H   0  0  0  0  0  0  0  0  0  0  0  0
   11.9437    2.1221   -1.7169 H   0  0  0  0  0  0  0  0  0  0  0  0
   11.6800    3.2112   -0.3005 H   0  0  0  0  0  0  0  0  0  0  0  0
    9.8580   -0.4073    0.3437 H   0  0  0  0  0  0  0  0  0  0  0  0
    0.9775   -3.7995    1.9895 H   0  0  0  0  0  0  0  0  0  0  0  0
    2.5615   -4.3912    2.6140 H   0  0  0  0  0  0  0  0  0  0  0  0
    0.7828   -4.9786    4.1862 H   0  0  0  0  0  0  0  0  0  0  0  0
    1.9284   -3.7954    4.9353 H   0  0  0  0  0  0  0  0  0  0  0  0
    0.3024   -3.2504    4.3495 H   0  0  0  0  0  0  0  0  0  0  0  0
    3.1510   -3.3606    0.6276 H   0  0  0  0  0  0  0  0  0  0  0  0
    4.5299   -3.2804   -0.4158 H   0  0  0  0  0  0  0  0  0  0  0  0
    5.0844   -5.7312    0.1765 H   0  0  0  0  0  0  0  0  0  0  0  0
    3.5840   -5.7756    1.1617 H   0  0  0  0  0  0  0  0  0  0  0  0
    3.4824   -5.4973   -0.6173 H   0  0  0  0  0  0  0  0  0  0  0  0
    8.8379   -0.8543   -2.5097 H   0  0  0  0  0  0  0  0  0  0  0  0
    8.5526    0.0563   -4.7509 H   0  0  0  0  0  0  0  0  0  0  0  0
    6.9994   -7.5378   -5.2534 H   0  0  0  0  0  0  0  0  0  0  0  0
    6.4280   -6.7998   -6.7901 H   0  0  0  0  0  0  0  0  0  0  0  0
    8.2135   -8.4879   -7.2052 H   0  0  0  0  0  0  0  0  0  0  0  0
    8.7594   -6.8388   -7.6971 H   0  0  0  0  0  0  0  0  0  0  0  0
    9.3523   -7.5667   -6.1456 H   0  0  0  0  0  0  0  0  0  0  0  0
    7.0177   -1.6539   -7.5237 H   0  0  0  0  0  0  0  0  0  0  0  0
   12.5921    1.1995   -7.6286 H   0  0  0  0  0  0  0  0  0  0  0  0
   13.1591    2.6347   -9.5727 H   0  0  0  0  0  0  0  0  0  0  0  0
    9.2007    2.1160  -11.1536 H   0  0  0  0  0  0  0  0  0  0  0  0
  1  2  2  3
  2  3  1  0
  3  4  2  0
  3  5  1  0
  5  6  2  0
  6  7  1  0
  7  8  2  0
  8  9  1  0
  9 10  2  0
 10 11  1  0
 11 12  2  3
 12 13  1  0
 13 14  3  0
 12 15  1  0
 15 16  3  0
  8 17  1  0
 17 18  1  0
 18 19  1  0
 19 20  2  0
 20 21  1  0
 21 22  1  0
 21 23  1  0
  1 24  1  0
 24 25  2  0
 25 26  1  0
 26 27  1  0
 27 28  2  0
 27 29  1  0
 29 30  2  0
 30 31  1  0
 31 32  1  0
 32 33  2  0
 30 34  1  0
 34 35  2  0
 35 36  1  0
 36 37  2  0
 36 38  1  0
 38 39  2  0
 39 40  1  0
 40 41  2  0
 41 42  1  0
 42 43  2  0
 43 44  1  0
 44 45  1  0
 45 46  1  0
 44 47  2  0
 39 48  1  0
 48 49  1  0
 49 50  1  0
 50 51  1  0
 51 52  1  0
 52 53  1  0
 53 54  2  0
 54 55  1  0
 55 56  1  0
 53 57  1  0
 57 58  1  0
 58 59  1  0
 59 60  1  0
 60 61  1  0
 61 62  1  0
 62 63  2  0
 63 64  1  0
 64 65  2  0
 65 66  1  0
 66 67  1  0
 67 68  1  0
 66 69  2  0
 61 70  2  0
 70 71  1  0
 71 72  1  0
 72 73  1  0
 73 74  1  0
 74 75  1  0
 75 76  1  0
 76 77  1  0
 77 78  1  0
 78 79  1  0
 79 80  1  0
 77 81  1  0
 81 82  1  0
 74 83  1  0
 83 84  1  0
 70 85  1  0
 85 86  2  0
 86 87  1  0
 87 88  2  0
 88 89  1  0
 89 90  1  0
 90 91  2  0
 90 92  1  0
 92 93  1  0
 93 94  1  0
 92 95  1  0
 95 96  2  0
 95 97  1  0
 88 98  1  0
 98 99  2  3
 99100  1  0
100101  2  0
100102  1  0
102103  2  0
103104  1  0
104105  2  0
105106  1  0
105107  1  0
107108  2  0
108109  1  0
109110  2  3
110111  1  0
111112  3  0
110113  1  0
113114  3  0
 11  2  1  0
 23 17  1  0
 33 24  1  0
 80 38  1  0
 97 85  1  0
109 99  1  0
 10  5  1  0
 22 18  1  0
 31 26  2  0
 47 40  1  0
 79 48  2  0
 97 89  2  0
108102  1  0
 23  7  1  0
 37 29  1  0
 78 50  2  0
 76 51  2  0
 56 52  2  0
 75 57  2  0
 73 58  2  0
 72 60  2  0
 69 62  1  0
  1115  1  0
  6116  1  0
  9117  1  0
 17118  1  0
 18119  1  0
 19120  1  0
 20121  1  0
 21122  1  0
 22123  1  0
 22124  1  0
 23125  1  0
 25126  1  0
 32127  1  0
 33128  1  0
 34129  1  0
 35130  1  0
 37131  1  0
 41132  1  0
 42133  1  0
 43134  1  0
 45135  1  0
 45136  1  0
 46137  1  0
 46138  1  0
 46139  1  0
 47140  1  0
 63141  1  0
 64142  1  0
 65143  1  0
 67144  1  0
 67145  1  0
 68146  1  0
 68147  1  0
 68148  1  0
 69149  1  0
 81150  1  0
 81151  1  0
 82152  1  0
 82153  1  0
 82154  1  0
 83155  1  0
 83156  1  0
 84157  1  0
 84158  1  0
 84159  1  0
 86160  1  0
 87161  1  0
 93162  1  0
 93163  1  0
 94164  1  0
 94165  1  0
 94166  1  0
 98167  1  0
103168  1  0
104169  1  0
107170  1  0
M  END

