
     RDKit          3D

225252  0  0  0  0  0  0  0  0999 V2000
    4.1495   -0.9788   -8.7905 C   0  0  0  0  0  0  0  0  0  0  0  0
    3.3244   -0.9989   -9.8524 C   0  0  0  0  0  0  0  0  0  0  0  0
    2.7331    0.1753  -10.5064 C   0  0  0  0  0  0  0  0  0  0  0  0
    3.2161    1.3373  -10.5260 O   0  0  0  0  0  0  0  0  0  0  0  0
    1.4503   -0.2102  -11.0610 C   0  0  0  0  0  0  0  0  0  0  0  0
    0.4047    0.6526  -11.4693 C   0  0  0  0  0  0  0  0  0  0  0  0
   -0.8106    0.0141  -11.6423 C   0  0  0  0  0  0  0  0  0  0  0  0
   -0.9923   -1.3929  -11.4405 C   0  0  0  0  0  0  0  0  0  0  0  0
    0.0277   -2.2455  -11.0608 C   0  0  0  0  0  0  0  0  0  0  0  0
    1.2879   -1.6107  -10.8844 C   0  0  0  0  0  0  0  0  0  0  0  0
    2.5223   -2.1761  -10.2864 C   0  0  0  0  0  0  0  0  0  0  0  0
    2.9309   -3.4658  -10.3400 C   0  0  0  0  0  0  0  0  0  0  0  0
    2.1083   -4.5071  -10.8985 C   0  0  0  0  0  0  0  0  0  0  0  0
    1.4496   -5.3566  -11.3340 N   0  0  0  0  0  0  0  0  0  0  0  0
    4.2622   -3.8621   -9.9604 C   0  0  0  0  0  0  0  0  0  0  0  0
    5.3298   -4.1867   -9.6581 N   0  0  0  0  0  0  0  0  0  0  0  0
   -2.4675   -1.2548  -11.6592 C   0  0  0  0  0  0  0  0  0  0  0  0
   -3.3876   -1.3197  -10.4027 C   0  0  0  0  0  0  0  0  0  0  0  0
   -2.6531   -0.7817   -9.1934 C   0  0  0  0  0  0  0  0  0  0  0  0
   -2.4985    0.5291   -9.3932 C   0  0  0  0  0  0  0  0  0  0  0  0
   -3.1250    0.8352  -10.7324 C   0  0  0  0  0  0  0  0  0  0  0  0
   -4.2920   -0.1345  -10.6754 C   0  0  0  0  0  0  0  0  0  0  0  0
   -2.2851    0.1855  -11.8771 C   0  0  0  0  0  0  0  0  0  0  0  0
    4.6276    0.2463   -8.1265 C   0  0  0  0  0  0  0  0  0  0  0  0
    3.8372    1.2484   -7.5113 C   0  0  0  0  0  0  0  0  0  0  0  0
    2.3367    1.2198   -7.3399 C   0  0  0  0  0  0  0  0  0  0  0  0
    1.9441    0.5059   -6.0509 C   0  0  0  0  0  0  0  0  0  0  0  0
    4.6507    2.1235   -6.7903 C   0  0  0  0  0  0  0  0  0  0  0  0
    5.9719    1.8126   -6.7423 C   0  0  0  0  0  0  0  0  0  0  0  0
    6.2565    0.4357   -7.6453 S   0  0  0  0  0  0  0  0  0  0  0  0
    6.7299    2.5241   -5.8176 C   0  0  0  0  0  0  0  0  0  0  0  0
    5.9381    3.4743   -5.1642 C   0  0  0  0  0  0  0  0  0  0  0  0
    4.3242    3.3503   -5.6974 S   0  0  0  0  0  0  0  0  0  0  0  0
    6.3020    4.1904   -3.9370 C   0  0  0  0  0  0  0  0  0  0  0  0
    5.9109    5.5107   -3.6451 C   0  0  0  0  0  0  0  0  0  0  0  0
    5.4553    6.4872   -4.6588 C   0  0  0  0  0  0  0  0  0  0  0  0
    6.2425    6.7256   -5.7982 C   0  0  0  0  0  0  0  0  0  0  0  0
    5.8518    7.6852   -6.7374 C   0  0  0  0  0  0  0  0  0  0  0  0
    4.6703    8.4083   -6.5566 C   0  0  0  0  0  0  0  0  0  0  0  0
    3.8651    8.1722   -5.4292 C   0  0  0  0  0  0  0  0  0  0  0  0
    2.5810    8.9316   -5.2500 C   0  0  0  0  0  0  0  0  0  0  0  0
    1.4275    8.2183   -5.9485 C   0  0  0  0  0  0  0  0  0  0  0  0
    4.2551    7.2028   -4.4904 C   0  0  0  0  0  0  0  0  0  0  0  0
    5.9416    5.7497   -2.2687 C   0  0  0  0  0  0  0  0  0  0  0  0
    5.2741    6.9916   -1.3067 S   0  0  0  0  0  0  0  0  0  0  0  0
    5.5181    6.0684    0.0916 C   0  0  0  0  0  0  0  0  0  0  0  0
    5.0119    6.0253    1.3542 C   0  0  0  0  0  0  0  0  0  0  0  0
    4.2511    6.9594    2.0560 C   0  0  0  0  0  0  0  0  0  0  0  0
    3.7070    6.5856    3.3144 C   0  0  0  0  0  0  0  0  0  0  0  0
    2.9389    7.5047    3.9480 N   0  0  0  0  0  0  0  0  0  0  0  0
    3.0202    8.7445    2.8548 S   0  0  0  0  0  0  0  0  0  0  0  0
    3.9595    8.2036    1.6024 N   0  0  0  0  0  0  0  0  0  0  0  0
    3.9170    5.2804    3.7811 C   0  0  0  0  0  0  0  0  0  0  0  0
    3.2022    4.5968    4.7247 C   0  0  0  0  0  0  0  0  0  0  0  0
    1.6968    4.8841    5.4597 S   0  0  0  0  0  0  0  0  0  0  0  0
    1.3834    3.2228    5.5838 C   0  0  0  0  0  0  0  0  0  0  0  0
    0.2408    2.4932    5.9213 C   0  0  0  0  0  0  0  0  0  0  0  0
   -1.0411    3.1021    6.2991 C   0  0  0  0  0  0  0  0  0  0  0  0
   -1.6069    2.8568    7.5594 C   0  0  0  0  0  0  0  0  0  0  0  0
   -2.8261    3.4487    7.9025 C   0  0  0  0  0  0  0  0  0  0  0  0
   -3.4918    4.2733    6.9889 C   0  0  0  0  0  0  0  0  0  0  0  0
   -2.9540    4.4836    5.7084 C   0  0  0  0  0  0  0  0  0  0  0  0
   -3.6812    5.3307    4.6996 C   0  0  0  0  0  0  0  0  0  0  0  0
   -2.9937    6.6829    4.5295 C   0  0  0  0  0  0  0  0  0  0  0  0
   -1.7218    3.9035    5.3725 C   0  0  0  0  0  0  0  0  0  0  0  0
    0.4158    1.1358    5.6265 C   0  0  0  0  0  0  0  0  0  0  0  0
    1.9309    0.8844    4.9021 S   0  0  0  0  0  0  0  0  0  0  0  0
    2.3983    2.4870    5.0228 C   0  0  0  0  0  0  0  0  0  0  0  0
    3.4345    3.2709    4.5122 C   0  0  0  0  0  0  0  0  0  0  0  0
    4.3070    3.0516    3.4924 N   0  0  0  0  0  0  0  0  0  0  0  0
    4.6335    4.3113    3.0421 C   0  0  0  0  0  0  0  0  0  0  0  0
    5.2653    4.7236    1.8249 C   0  0  0  0  0  0  0  0  0  0  0  0
    5.9861    4.0048    0.9004 N   0  0  0  0  0  0  0  0  0  0  0  0
    6.0724    4.8595   -0.1535 C   0  0  0  0  0  0  0  0  0  0  0  0
    6.3363    4.6771   -1.5054 C   0  0  0  0  0  0  0  0  0  0  0  0
    6.6438    3.3604   -2.4912 S   0  0  0  0  0  0  0  0  0  0  0  0
    7.0747    3.0634    1.2008 C   0  0  0  0  0  0  0  0  0  0  0  0
    6.9507    1.7607    0.3940 C   0  0  0  0  0  0  0  0  0  0  0  0
    4.4412    1.7562    2.8129 C   0  0  0  0  0  0  0  0  0  0  0  0
    3.5181    1.6700    1.6032 C   0  0  0  0  0  0  0  0  0  0  0  0
   -0.5823    0.0766    5.7187 C   0  0  0  0  0  0  0  0  0  0  0  0
   -1.3081   -0.4041    4.6224 C   0  0  0  0  0  0  0  0  0  0  0  0
   -1.7330    0.4071    3.5158 N   0  0  0  0  0  0  0  0  0  0  0  0
   -3.0951    0.8997    3.5065 C   0  0  0  0  0  0  0  0  0  0  0  0
   -3.7444    1.2430    4.7084 C   0  0  0  0  0  0  0  0  0  0  0  0
   -5.0573    1.7201    4.7009 C   0  0  0  0  0  0  0  0  0  0  0  0
   -5.7524    1.8591    3.4920 C   0  0  0  0  0  0  0  0  0  0  0  0
   -7.1825    2.3105    3.4874 C   0  0  0  0  0  0  0  0  0  0  0  0
   -5.1280    1.4869    2.2925 C   0  0  0  0  0  0  0  0  0  0  0  0
   -3.8117    1.0156    2.2974 C   0  0  0  0  0  0  0  0  0  0  0  0
   -0.8569    0.6359    2.3907 C   0  0  0  0  0  0  0  0  0  0  0  0
   -0.1422   -0.4260    1.8104 C   0  0  0  0  0  0  0  0  0  0  0  0
    0.5674   -0.2356    0.6180 C   0  0  0  0  0  0  0  0  0  0  0  0
    0.5966    1.0284    0.0066 C   0  0  0  0  0  0  0  0  0  0  0  0
    1.2913    1.2265   -1.3096 C   0  0  0  0  0  0  0  0  0  0  0  0
   -0.0847    2.0974    0.6034 C   0  0  0  0  0  0  0  0  0  0  0  0
   -0.7969    1.9063    1.7940 C   0  0  0  0  0  0  0  0  0  0  0  0
   -1.7657   -1.6981    4.8443 C   0  0  0  0  0  0  0  0  0  0  0  0
   -2.3678   -2.8795    3.8336 S   0  0  0  0  0  0  0  0  0  0  0  0
   -2.2439   -4.1483    4.9812 C   0  0  0  0  0  0  0  0  0  0  0  0
   -1.7244   -3.6043    6.1804 C   0  0  0  0  0  0  0  0  0  0  0  0
   -1.5478   -4.3548    7.4024 N   0  0  0  0  0  0  0  0  0  0  0  0
   -0.4492   -4.0665    8.2854 C   0  0  0  0  0  0  0  0  0  0  0  0
    0.8738   -4.0849    7.8095 C   0  0  0  0  0  0  0  0  0  0  0  0
    1.9372   -3.8154    8.6796 C   0  0  0  0  0  0  0  0  0  0  0  0
    1.6944   -3.5376   10.0335 C   0  0  0  0  0  0  0  0  0  0  0  0
    2.8406   -3.2376   10.9577 C   0  0  0  0  0  0  0  0  0  0  0  0
    0.3719   -3.4953   10.5033 C   0  0  0  0  0  0  0  0  0  0  0  0
   -0.6908   -3.7660    9.6368 C   0  0  0  0  0  0  0  0  0  0  0  0
   -2.5511   -5.3124    7.8074 C   0  0  0  0  0  0  0  0  0  0  0  0
   -3.9164   -5.0691    7.5695 C   0  0  0  0  0  0  0  0  0  0  0  0
   -4.8788   -6.0185    7.9190 C   0  0  0  0  0  0  0  0  0  0  0  0
   -4.4963   -7.2221    8.5294 C   0  0  0  0  0  0  0  0  0  0  0  0
   -5.5200   -8.2736    8.8360 C   0  0  0  0  0  0  0  0  0  0  0  0
   -3.1373   -7.4683    8.7759 C   0  0  0  0  0  0  0  0  0  0  0  0
   -2.1733   -6.5206    8.4228 C   0  0  0  0  0  0  0  0  0  0  0  0
   -1.4376   -2.2420    6.0418 C   0  0  0  0  0  0  0  0  0  0  0  0
   -0.5233   -1.1350    6.9154 S   0  0  0  0  0  0  0  0  0  0  0  0
   -2.1758   -5.6031    4.6670 C   0  0  0  0  0  0  0  0  0  0  0  0
   -2.4093   -6.1679    3.4633 C   0  0  0  0  0  0  0  0  0  0  0  0
   -3.0014   -5.5087    2.2951 C   0  0  0  0  0  0  0  0  0  0  0  0
   -4.0195   -4.7644    2.2980 O   0  0  0  0  0  0  0  0  0  0  0  0
   -2.2893   -5.9489    1.1095 C   0  0  0  0  0  0  0  0  0  0  0  0
   -2.3578   -5.3970   -0.1914 C   0  0  0  0  0  0  0  0  0  0  0  0
   -1.4012   -5.8920   -1.0588 C   0  0  0  0  0  0  0  0  0  0  0  0
   -0.4163   -6.8606   -0.6709 C   0  0  0  0  0  0  0  0  0  0  0  0
   -0.3581   -7.4205    0.5954 C   0  0  0  0  0  0  0  0  0  0  0  0
   -1.3626   -6.9549    1.4871 C   0  0  0  0  0  0  0  0  0  0  0  0
   -1.5518   -7.2631    2.9250 C   0  0  0  0  0  0  0  0  0  0  0  0
   -1.2097   -8.4098    3.5565 C   0  0  0  0  0  0  0  0  0  0  0  0
   -1.6925   -8.7132    4.8812 C   0  0  0  0  0  0  0  0  0  0  0  0
   -2.0666   -8.9711    5.9456 N   0  0  0  0  0  0  0  0  0  0  0  0
   -0.4504   -9.4504    2.9103 C   0  0  0  0  0  0  0  0  0  0  0  0
    0.1685  -10.2887    2.4016 N   0  0  0  0  0  0  0  0  0  0  0  0
    0.1945   -6.8105   -2.0418 C   0  0  0  0  0  0  0  0  0  0  0  0
   -0.0568   -8.0217   -2.9931 C   0  0  0  0  0  0  0  0  0  0  0  0
   -1.3895   -8.6600   -2.6717 C   0  0  0  0  0  0  0  0  0  0  0  0
   -2.3278   -7.7797   -3.0262 C   0  0  0  0  0  0  0  0  0  0  0  0
   -1.6025   -6.5751   -3.5824 C   0  0  0  0  0  0  0  0  0  0  0  0
   -0.4471   -7.2862   -4.2625 C   0  0  0  0  0  0  0  0  0  0  0  0
   -0.8283   -5.8394   -2.4460 C   0  0  0  0  0  0  0  0  0  0  0  0
    4.4451   -1.9059   -8.3246 H   0  0  0  0  0  0  0  0  0  0  0  0
    0.5053    1.7278  -11.5274 H   0  0  0  0  0  0  0  0  0  0  0  0
   -0.1762   -3.2754  -10.8139 H   0  0  0  0  0  0  0  0  0  0  0  0
   -2.8450   -1.8069  -12.5507 H   0  0  0  0  0  0  0  0  0  0  0  0
   -3.9028   -2.2908  -10.2419 H   0  0  0  0  0  0  0  0  0  0  0  0
   -2.3540   -1.3260   -8.3032 H   0  0  0  0  0  0  0  0  0  0  0  0
   -2.0540    1.2272   -8.6924 H   0  0  0  0  0  0  0  0  0  0  0  0
   -3.3985    1.9001  -10.8906 H   0  0  0  0  0  0  0  0  0  0  0  0
   -4.8499   -0.2085  -11.6394 H   0  0  0  0  0  0  0  0  0  0  0  0
   -5.0095    0.0786   -9.8447 H   0  0  0  0  0  0  0  0  0  0  0  0
   -2.5499    0.5158  -12.9064 H   0  0  0  0  0  0  0  0  0  0  0  0
    1.9591    2.2645   -7.3099 H   0  0  0  0  0  0  0  0  0  0  0  0
    1.8323    0.7175   -8.1827 H   0  0  0  0  0  0  0  0  0  0  0  0
    2.4923    0.9347   -5.1825 H   0  0  0  0  0  0  0  0  0  0  0  0
    2.1634   -0.5800   -6.1285 H   0  0  0  0  0  0  0  0  0  0  0  0
    0.8618    0.6502   -5.8647 H   0  0  0  0  0  0  0  0  0  0  0  0
    7.7626    2.3084   -5.5761 H   0  0  0  0  0  0  0  0  0  0  0  0
    7.1689    6.1827   -5.9482 H   0  0  0  0  0  0  0  0  0  0  0  0
    6.4688    7.8695   -7.6080 H   0  0  0  0  0  0  0  0  0  0  0  0
    4.3794    9.1432   -7.2975 H   0  0  0  0  0  0  0  0  0  0  0  0
    2.6798    9.9551   -5.6666 H   0  0  0  0  0  0  0  0  0  0  0  0
    2.3442    9.0349   -4.1673 H   0  0  0  0  0  0  0  0  0  0  0  0
    1.3134    7.1865   -5.5531 H   0  0  0  0  0  0  0  0  0  0  0  0
    1.6051    8.1734   -7.0457 H   0  0  0  0  0  0  0  0  0  0  0  0
    0.4811    8.7695   -5.7625 H   0  0  0  0  0  0  0  0  0  0  0  0
    3.6194    7.0000   -3.6365 H   0  0  0  0  0  0  0  0  0  0  0  0
   -1.0976    2.2234    8.2750 H   0  0  0  0  0  0  0  0  0  0  0  0
   -3.2574    3.2723    8.8769 H   0  0  0  0  0  0  0  0  0  0  0  0
   -4.4344    4.7272    7.2715 H   0  0  0  0  0  0  0  0  0  0  0  0
   -4.7368    5.4916    5.0100 H   0  0  0  0  0  0  0  0  0  0  0  0
   -3.7017    4.7992    3.7223 H   0  0  0  0  0  0  0  0  0  0  0  0
   -1.9525    6.5441    4.1696 H   0  0  0  0  0  0  0  0  0  0  0  0
   -2.9755    7.2270    5.4988 H   0  0  0  0  0  0  0  0  0  0  0  0
   -3.5467    7.2938    3.7857 H   0  0  0  0  0  0  0  0  0  0  0  0
   -1.2979    4.0675    4.3886 H   0  0  0  0  0  0  0  0  0  0  0  0
    8.0508    3.5435    0.9548 H   0  0  0  0  0  0  0  0  0  0  0  0
    7.1355    2.8605    2.2913 H   0  0  0  0  0  0  0  0  0  0  0  0
    7.7820    1.6889   -0.3398 H   0  0  0  0  0  0  0  0  0  0  0  0
    7.0365    0.8763    1.0595 H   0  0  0  0  0  0  0  0  0  0  0  0
    5.9953    1.7109   -0.1619 H   0  0  0  0  0  0  0  0  0  0  0  0
    4.2112    0.9314    3.5105 H   0  0  0  0  0  0  0  0  0  0  0  0
    5.4766    1.5537    2.5473 H   0  0  0  0  0  0  0  0  0  0  0  0
    3.5752    0.6564    1.1549 H   0  0  0  0  0  0  0  0  0  0  0  0
    2.4765    1.8652    1.9293 H   0  0  0  0  0  0  0  0  0  0  0  0
    3.8005    2.4193    0.8382 H   0  0  0  0  0  0  0  0  0  0  0  0
   -3.2333    1.1506    5.6556 H   0  0  0  0  0  0  0  0  0  0  0  0
   -5.5310    1.9792    5.6391 H   0  0  0  0  0  0  0  0  0  0  0  0
   -7.8419    1.4345    3.6580 H   0  0  0  0  0  0  0  0  0  0  0  0
   -7.3554    3.0598    4.2919 H   0  0  0  0  0  0  0  0  0  0  0  0
   -7.4449    2.7826    2.5162 H   0  0  0  0  0  0  0  0  0  0  0  0
   -5.6647    1.5578    1.3524 H   0  0  0  0  0  0  0  0  0  0  0  0
   -3.3599    0.7214    1.3584 H   0  0  0  0  0  0  0  0  0  0  0  0
   -0.1800   -1.4149    2.2464 H   0  0  0  0  0  0  0  0  0  0  0  0
    1.0815   -1.0767    0.1679 H   0  0  0  0  0  0  0  0  0  0  0  0
    2.0608    0.4441   -1.4773 H   0  0  0  0  0  0  0  0  0  0  0  0
    1.7909    2.2172   -1.3329 H   0  0  0  0  0  0  0  0  0  0  0  0
    0.5441    1.1784   -2.1317 H   0  0  0  0  0  0  0  0  0  0  0  0
   -0.0758    3.0776    0.1411 H   0  0  0  0  0  0  0  0  0  0  0  0
   -1.3378    2.7411    2.2231 H   0  0  0  0  0  0  0  0  0  0  0  0
    1.0789   -4.3073    6.7705 H   0  0  0  0  0  0  0  0  0  0  0  0
    2.9533   -3.8247    8.3001 H   0  0  0  0  0  0  0  0  0  0  0  0
    3.1457   -2.1759   10.8347 H   0  0  0  0  0  0  0  0  0  0  0  0
    3.7047   -3.8951   10.7168 H   0  0  0  0  0  0  0  0  0  0  0  0
    2.5548   -3.4175   12.0166 H   0  0  0  0  0  0  0  0  0  0  0  0
    0.1660   -3.2512   11.5383 H   0  0  0  0  0  0  0  0  0  0  0  0
   -1.7065   -3.7265   10.0143 H   0  0  0  0  0  0  0  0  0  0  0  0
   -4.2355   -4.1414    7.1093 H   0  0  0  0  0  0  0  0  0  0  0  0
   -5.9226   -5.8193    7.7047 H   0  0  0  0  0  0  0  0  0  0  0  0
   -5.1872   -8.9165    9.6801 H   0  0  0  0  0  0  0  0  0  0  0  0
   -5.6655   -8.9101    7.9398 H   0  0  0  0  0  0  0  0  0  0  0  0
   -6.4888   -7.8089    9.1141 H   0  0  0  0  0  0  0  0  0  0  0  0
   -2.8222   -8.4055    9.2250 H   0  0  0  0  0  0  0  0  0  0  0  0
   -1.1281   -6.7366    8.6076 H   0  0  0  0  0  0  0  0  0  0  0  0
   -1.6170   -6.1818    5.3842 H   0  0  0  0  0  0  0  0  0  0  0  0
   -3.0569   -4.6213   -0.4730 H   0  0  0  0  0  0  0  0  0  0  0  0
    0.4265   -8.1057    0.8703 H   0  0  0  0  0  0  0  0  0  0  0  0
    1.2312   -6.4015   -2.0588 H   0  0  0  0  0  0  0  0  0  0  0  0
    0.7945   -8.7278   -3.0914 H   0  0  0  0  0  0  0  0  0  0  0  0
   -1.5642   -9.6555   -2.2728 H   0  0  0  0  0  0  0  0  0  0  0  0
   -3.4016   -7.9289   -2.9648 H   0  0  0  0  0  0  0  0  0  0  0  0
   -2.2144   -5.9195   -4.2376 H   0  0  0  0  0  0  0  0  0  0  0  0
    0.3460   -6.5945   -4.6337 H   0  0  0  0  0  0  0  0  0  0  0  0
   -0.7717   -7.9657   -5.0874 H   0  0  0  0  0  0  0  0  0  0  0  0
   -0.4168   -4.8417   -2.7236 H   0  0  0  0  0  0  0  0  0  0  0  0
  1  2  2  3
  2  3  1  0
  3  4  2  0
  3  5  1  0
  5  6  2  0
  6  7  1  0
  7  8  2  0
  8  9  1  0
  9 10  2  0
 10 11  1  0
 11 12  2  3
 12 13  1  0
 13 14  3  0
 12 15  1  0
 15 16  3  0
  8 17  1  0
 17 18  1  0
 18 19  1  0
 19 20  2  0
 20 21  1  0
 21 22  1  0
 21 23  1  0
  1 24  1  0
 24 25  2  0
 25 26  1  0
 26 27  1  0
 25 28  1  0
 28 29  2  0
 29 30  1  0
 29 31  1  0
 31 32  2  0
 32 33  1  0
 32 34  1  0
 34 35  2  0
 35 36  1  0
 36 37  2  0
 37 38  1  0
 38 39  2  0
 39 40  1  0
 40 41  1  0
 41 42  1  0
 40 43  2  0
 35 44  1  0
 44 45  1  0
 45 46  1  0
 46 47  1  0
 47 48  1  0
 48 49  1  0
 49 50  2  0
 50 51  1  0
 51 52  1  0
 49 53  1  0
 53 54  1  0
 54 55  1  0
 55 56  1  0
 56 57  1  0
 57 58  1  0
 58 59  2  0
 59 60  1  0
 60 61  2  0
 61 62  1  0
 62 63  1  0
 63 64  1  0
 62 65  2  0
 57 66  2  0
 66 67  1  0
 67 68  1  0
 68 69  1  0
 69 70  1  0
 70 71  1  0
 71 72  1  0
 72 73  1  0
 73 74  1  0
 74 75  1  0
 75 76  1  0
 73 77  1  0
 77 78  1  0
 70 79  1  0
 79 80  1  0
 66 81  1  0
 81 82  2  0
 82 83  1  0
 83 84  1  0
 84 85  2  0
 85 86  1  0
 86 87  2  0
 87 88  1  0
 87 89  1  0
 89 90  2  0
 83 91  1  0
 91 92  2  0
 92 93  1  0
 93 94  2  0
 94 95  1  0
 94 96  1  0
 96 97  2  0
 82 98  1  0
 98 99  1  0
 99100  1  0
100101  2  0
101102  1  0
102103  1  0
103104  2  0
104105  1  0
105106  2  0
106107  1  0
106108  1  0
108109  2  0
102110  1  0
110111  2  0
111112  1  0
112113  2  0
113114  1  0
113115  1  0
115116  2  0
101117  1  0
117118  1  0
100119  1  0
119120  2  3
120121  1  0
121122  2  0
121123  1  0
123124  2  0
124125  1  0
125126  2  0
126127  1  0
127128  2  0
128129  1  0
129130  2  3
130131  1  0
131132  3  0
130133  1  0
133134  3  0
126135  1  0
135136  1  0
136137  1  0
137138  2  0
138139  1  0
139140  1  0
139141  1  0
 11  2  1  0
 23 17  1  0
 30 24  1  0
 76 34  1  0
118 81  1  0
129120  1  0
141135  1  0
 10  5  1  0
 22 18  1  0
 33 28  1  0
 43 36  1  0
 75 44  2  0
 90 84  1  0
 97 91  1  0
117 98  2  0
128123  1  0
140136  1  0
 23  7  1  0
 74 46  2  0
109103  1  0
116110  1  0
141125  1  0
 72 47  2  0
 52 48  2  0
 71 53  2  0
 69 54  2  0
 68 56  2  0
 65 58  1  0
  1142  1  0
  6143  1  0
  9144  1  0
 17145  1  0
 18146  1  0
 19147  1  0
 20148  1  0
 21149  1  0
 22150  1  0
 22151  1  0
 23152  1  0
 26153  1  0
 26154  1  0
 27155  1  0
 27156  1  0
 27157  1  0
 31158  1  0
 37159  1  0
 38160  1  0
 39161  1  0
 41162  1  0
 41163  1  0
 42164  1  0
 42165  1  0
 42166  1  0
 43167  1  0
 59168  1  0
 60169  1  0
 61170  1  0
 63171  1  0
 63172  1  0
 64173  1  0
 64174  1  0
 64175  1  0
 65176  1  0
 77177  1  0
 77178  1  0
 78179  1  0
 78180  1  0
 78181  1  0
 79182  1  0
 79183  1  0
 80184  1  0
 80185  1  0
 80186  1  0
 85187  1  0
 86188  1  0
 88189  1  0
 88190  1  0
 88191  1  0
 89192  1  0
 90193  1  0
 92194  1  0
 93195  1  0
 95196  1  0
 95197  1  0
 95198  1  0
 96199  1  0
 97200  1  0
104201  1  0
105202  1  0
107203  1  0
107204  1  0
107205  1  0
108206  1  0
109207  1  0
111208  1  0
112209  1  0
114210  1  0
114211  1  0
114212  1  0
115213  1  0
116214  1  0
119215  1  0
124216  1  0
127217  1  0
135218  1  0
136219  1  0
137220  1  0
138221  1  0
139222  1  0
140223  1  0
140224  1  0
141225  1  0
M  END

