
     RDKit          3D

163184  0  0  0  0  0  0  0  0999 V2000
   -2.9877   10.0959    3.8271 C   0  0  0  0  0  0  0  0  0  0  0  0
   -1.7496   10.2589    3.3247 C   0  0  0  0  0  0  0  0  0  0  0  0
   -0.6159    9.5093    3.8745 C   0  0  0  0  0  0  0  0  0  0  0  0
   -0.4456    9.2444    5.0940 O   0  0  0  0  0  0  0  0  0  0  0  0
    0.2611    9.0997    2.8064 C   0  0  0  0  0  0  0  0  0  0  0  0
    1.4381    8.3248    2.9298 C   0  0  0  0  0  0  0  0  0  0  0  0
    2.0434    8.0361    1.7244 C   0  0  0  0  0  0  0  0  0  0  0  0
    1.5072    8.4546    0.4652 C   0  0  0  0  0  0  0  0  0  0  0  0
    0.3652    9.2267    0.3428 C   0  0  0  0  0  0  0  0  0  0  0  0
   -0.2593    9.5673    1.5758 C   0  0  0  0  0  0  0  0  0  0  0  0
   -1.4836   10.3795    1.8488 C   0  0  0  0  0  0  0  0  0  0  0  0
   -2.2122   11.1005    0.9503 C   0  0  0  0  0  0  0  0  0  0  0  0
   -1.9477   11.0948   -0.4652 C   0  0  0  0  0  0  0  0  0  0  0  0
   -1.7491   11.0991   -1.6058 N   0  0  0  0  0  0  0  0  0  0  0  0
   -3.2915   11.9689    1.3453 C   0  0  0  0  0  0  0  0  0  0  0  0
   -4.1557   12.6811    1.6450 N   0  0  0  0  0  0  0  0  0  0  0  0
    2.6279    7.7686   -0.2586 C   0  0  0  0  0  0  0  0  0  0  0  0
    2.3341    6.4011   -0.9586 C   0  0  0  0  0  0  0  0  0  0  0  0
    1.2681    5.6365   -0.2017 C   0  0  0  0  0  0  0  0  0  0  0  0
    1.8188    5.2760    0.9635 C   0  0  0  0  0  0  0  0  0  0  0  0
    3.2296    5.8148    0.9633 C   0  0  0  0  0  0  0  0  0  0  0  0
    3.5557    5.6127   -0.5043 C   0  0  0  0  0  0  0  0  0  0  0  0
    3.1987    7.3712    1.0305 C   0  0  0  0  0  0  0  0  0  0  0  0
   -3.4588    8.7173    4.0498 C   0  0  0  0  0  0  0  0  0  0  0  0
   -3.3513    8.0808    5.2916 C   0  0  0  0  0  0  0  0  0  0  0  0
   -2.9540    8.7746    6.3889 F   0  0  0  0  0  0  0  0  0  0  0  0
   -3.5875    6.7011    5.3911 C   0  0  0  0  0  0  0  0  0  0  0  0
   -3.9581    5.9658    4.2546 C   0  0  0  0  0  0  0  0  0  0  0  0
   -4.1514    6.6284    3.0337 C   0  0  0  0  0  0  0  0  0  0  0  0
   -4.5087    5.9338    1.9193 F   0  0  0  0  0  0  0  0  0  0  0  0
   -3.9236    7.9952    2.9390 C   0  0  0  0  0  0  0  0  0  0  0  0
   -3.9762    4.4938    4.2826 C   0  0  0  0  0  0  0  0  0  0  0  0
   -4.8062    3.6677    5.0698 C   0  0  0  0  0  0  0  0  0  0  0  0
   -5.7868    4.1684    6.0520 C   0  0  0  0  0  0  0  0  0  0  0  0
   -6.7121    5.1586    5.6930 C   0  0  0  0  0  0  0  0  0  0  0  0
   -7.5596    5.7117    6.6554 C   0  0  0  0  0  0  0  0  0  0  0  0
   -7.4803    5.2951    7.9885 C   0  0  0  0  0  0  0  0  0  0  0  0
   -6.5488    4.3121    8.3639 C   0  0  0  0  0  0  0  0  0  0  0  0
   -6.4406    3.8798    9.8028 C   0  0  0  0  0  0  0  0  0  0  0  0
   -7.2836    2.6346   10.0709 C   0  0  0  0  0  0  0  0  0  0  0  0
   -5.7203    3.7346    7.3874 C   0  0  0  0  0  0  0  0  0  0  0  0
   -4.5251    2.3164    4.8231 C   0  0  0  0  0  0  0  0  0  0  0  0
   -5.2587    0.8357    5.2835 S   0  0  0  0  0  0  0  0  0  0  0  0
   -4.1440   -0.0422    4.3377 C   0  0  0  0  0  0  0  0  0  0  0  0
   -3.9535   -1.3043    3.8282 C   0  0  0  0  0  0  0  0  0  0  0  0
   -4.7303   -2.4701    3.8732 C   0  0  0  0  0  0  0  0  0  0  0  0
   -4.3693   -3.5778    3.0341 C   0  0  0  0  0  0  0  0  0  0  0  0
   -5.1589   -4.6765    3.0881 N   0  0  0  0  0  0  0  0  0  0  0  0
   -6.2740   -4.1587    4.1976 S   0  0  0  0  0  0  0  0  0  0  0  0
   -5.8443   -2.6174    4.6321 N   0  0  0  0  0  0  0  0  0  0  0  0
   -3.2336   -3.4611    2.2182 C   0  0  0  0  0  0  0  0  0  0  0  0
   -2.5588   -4.3460    1.4129 C   0  0  0  0  0  0  0  0  0  0  0  0
   -2.5901   -5.9781    0.9176 S   0  0  0  0  0  0  0  0  0  0  0  0
   -1.0462   -5.8262    0.1916 C   0  0  0  0  0  0  0  0  0  0  0  0
   -0.1739   -6.6912   -0.4865 C   0  0  0  0  0  0  0  0  0  0  0  0
   -0.4346   -8.1109   -0.7822 C   0  0  0  0  0  0  0  0  0  0  0  0
    0.5212   -9.0822   -0.4423 C   0  0  0  0  0  0  0  0  0  0  0  0
    0.2861  -10.4296   -0.7180 C   0  0  0  0  0  0  0  0  0  0  0  0
   -0.8921  -10.8180   -1.3567 C   0  0  0  0  0  0  0  0  0  0  0  0
   -1.8546   -9.8605   -1.7136 C   0  0  0  0  0  0  0  0  0  0  0  0
   -3.0683  -10.2776   -2.4929 C   0  0  0  0  0  0  0  0  0  0  0  0
   -2.7855  -10.2233   -3.9924 C   0  0  0  0  0  0  0  0  0  0  0  0
   -1.6240   -8.5040   -1.4184 C   0  0  0  0  0  0  0  0  0  0  0  0
    1.0278   -6.0215   -0.8038 C   0  0  0  0  0  0  0  0  0  0  0  0
    0.9811   -4.4023   -0.2711 S   0  0  0  0  0  0  0  0  0  0  0  0
   -0.5410   -4.5674    0.3856 C   0  0  0  0  0  0  0  0  0  0  0  0
   -1.3983   -3.7306    1.0638 C   0  0  0  0  0  0  0  0  0  0  0  0
   -1.2314   -2.5116    1.6259 N   0  0  0  0  0  0  0  0  0  0  0  0
   -2.4293   -2.3114    2.2463 C   0  0  0  0  0  0  0  0  0  0  0  0
   -2.8592   -1.1830    2.9606 C   0  0  0  0  0  0  0  0  0  0  0  0
   -2.4812    0.1189    2.8025 N   0  0  0  0  0  0  0  0  0  0  0  0
   -3.2653    0.7703    3.6942 C   0  0  0  0  0  0  0  0  0  0  0  0
   -3.5077    2.1061    3.9322 C   0  0  0  0  0  0  0  0  0  0  0  0
   -2.9122    3.5520    3.3414 S   0  0  0  0  0  0  0  0  0  0  0  0
   -1.8730    0.7384    1.6161 C   0  0  0  0  0  0  0  0  0  0  0  0
   -2.9306    1.1103    0.5842 C   0  0  0  0  0  0  0  0  0  0  0  0
    0.0691   -1.9841    2.0799 C   0  0  0  0  0  0  0  0  0  0  0  0
    0.7577   -2.9527    3.0423 C   0  0  0  0  0  0  0  0  0  0  0  0
    2.0783   -6.4502   -1.7333 C   0  0  0  0  0  0  0  0  0  0  0  0
    3.4114   -6.4091   -1.2991 C   0  0  0  0  0  0  0  0  0  0  0  0
    3.7039   -6.4373    0.0312 F   0  0  0  0  0  0  0  0  0  0  0  0
    4.4278   -6.1203   -2.2075 C   0  0  0  0  0  0  0  0  0  0  0  0
    4.1241   -5.8256   -3.5526 C   0  0  0  0  0  0  0  0  0  0  0  0
    2.8078   -6.0737   -4.0168 C   0  0  0  0  0  0  0  0  0  0  0  0
    2.4411   -5.8162   -5.2990 F   0  0  0  0  0  0  0  0  0  0  0  0
    1.7992   -6.4015   -3.1075 C   0  0  0  0  0  0  0  0  0  0  0  0
    5.0583   -4.9116   -4.2650 C   0  0  0  0  0  0  0  0  0  0  0  0
    4.8879   -4.4996   -5.5241 C   0  0  0  0  0  0  0  0  0  0  0  0
    4.9706   -5.3998   -6.6783 C   0  0  0  0  0  0  0  0  0  0  0  0
    4.8152   -6.6483   -6.6535 O   0  0  0  0  0  0  0  0  0  0  0  0
    5.4380   -4.6355   -7.8241 C   0  0  0  0  0  0  0  0  0  0  0  0
    5.8460   -5.1399   -9.0860 C   0  0  0  0  0  0  0  0  0  0  0  0
    6.4167   -4.1887   -9.9136 C   0  0  0  0  0  0  0  0  0  0  0  0
    6.5689   -2.8174   -9.5278 C   0  0  0  0  0  0  0  0  0  0  0  0
    6.2077   -2.3246   -8.2917 C   0  0  0  0  0  0  0  0  0  0  0  0
    5.6194   -3.2844   -7.4291 C   0  0  0  0  0  0  0  0  0  0  0  0
    5.2231   -3.1367   -6.0113 C   0  0  0  0  0  0  0  0  0  0  0  0
    4.9271   -1.9882   -5.3498 C   0  0  0  0  0  0  0  0  0  0  0  0
    4.9971   -0.6874   -5.9701 C   0  0  0  0  0  0  0  0  0  0  0  0
    5.0448    0.3638   -6.4585 N   0  0  0  0  0  0  0  0  0  0  0  0
    4.3242   -2.0051   -4.0381 C   0  0  0  0  0  0  0  0  0  0  0  0
    3.8343   -2.0144   -2.9876 N   0  0  0  0  0  0  0  0  0  0  0  0
    7.2305   -2.5049  -10.8357 C   0  0  0  0  0  0  0  0  0  0  0  0
    8.7673   -2.2613  -10.8183 C   0  0  0  0  0  0  0  0  0  0  0  0
    9.4079   -3.0571   -9.7053 C   0  0  0  0  0  0  0  0  0  0  0  0
    9.2954   -4.3404  -10.0460 C   0  0  0  0  0  0  0  0  0  0  0  0
    8.5852   -4.3765  -11.3842 C   0  0  0  0  0  0  0  0  0  0  0  0
    9.1847   -3.1257  -11.9979 C   0  0  0  0  0  0  0  0  0  0  0  0
    7.1025   -3.9141  -11.2208 C   0  0  0  0  0  0  0  0  0  0  0  0
   -3.7791   10.7490    3.4936 H   0  0  0  0  0  0  0  0  0  0  0  0
    1.8342    7.9834    3.8786 H   0  0  0  0  0  0  0  0  0  0  0  0
    0.0265    9.5279   -0.6261 H   0  0  0  0  0  0  0  0  0  0  0  0
    3.2821    8.4568   -0.8444 H   0  0  0  0  0  0  0  0  0  0  0  0
    2.1845    6.4513   -2.0553 H   0  0  0  0  0  0  0  0  0  0  0  0
    0.2898    5.3280   -0.5610 H   0  0  0  0  0  0  0  0  0  0  0  0
    1.3577    4.6343    1.7097 H   0  0  0  0  0  0  0  0  0  0  0  0
    3.9214    5.3171    1.6772 H   0  0  0  0  0  0  0  0  0  0  0  0
    4.5229    6.0732   -0.8206 H   0  0  0  0  0  0  0  0  0  0  0  0
    3.5371    4.5369   -0.8229 H   0  0  0  0  0  0  0  0  0  0  0  0
    4.1811    7.8414    1.2498 H   0  0  0  0  0  0  0  0  0  0  0  0
   -3.4157    6.2021    6.3375 H   0  0  0  0  0  0  0  0  0  0  0  0
   -4.0296    8.4802    1.9787 H   0  0  0  0  0  0  0  0  0  0  0  0
   -6.7686    5.5154    4.6741 H   0  0  0  0  0  0  0  0  0  0  0  0
   -8.2614    6.4858    6.3730 H   0  0  0  0  0  0  0  0  0  0  0  0
   -8.1293    5.7482    8.7268 H   0  0  0  0  0  0  0  0  0  0  0  0
   -5.3756    3.6693   10.0562 H   0  0  0  0  0  0  0  0  0  0  0  0
   -6.7770    4.7010   10.4737 H   0  0  0  0  0  0  0  0  0  0  0  0
   -7.2781    2.4122   11.1610 H   0  0  0  0  0  0  0  0  0  0  0  0
   -6.8602    1.7613    9.5302 H   0  0  0  0  0  0  0  0  0  0  0  0
   -8.3359    2.7997    9.7466 H   0  0  0  0  0  0  0  0  0  0  0  0
   -4.9869    2.9880    7.6732 H   0  0  0  0  0  0  0  0  0  0  0  0
    1.4466   -8.7974    0.0509 H   0  0  0  0  0  0  0  0  0  0  0  0
    1.0252  -11.1713   -0.4455 H   0  0  0  0  0  0  0  0  0  0  0  0
   -1.0478  -11.8654   -1.5865 H   0  0  0  0  0  0  0  0  0  0  0  0
   -3.3647  -11.3127   -2.2183 H   0  0  0  0  0  0  0  0  0  0  0  0
   -3.9270   -9.6096   -2.2574 H   0  0  0  0  0  0  0  0  0  0  0  0
   -2.5689   -9.1799   -4.3070 H   0  0  0  0  0  0  0  0  0  0  0  0
   -3.6693  -10.5917   -4.5531 H   0  0  0  0  0  0  0  0  0  0  0  0
   -1.9136  -10.8647   -4.2493 H   0  0  0  0  0  0  0  0  0  0  0  0
   -2.3479   -7.7539   -1.7213 H   0  0  0  0  0  0  0  0  0  0  0  0
   -1.2896    1.6392    1.9160 H   0  0  0  0  0  0  0  0  0  0  0  0
   -1.1751    0.0580    1.1106 H   0  0  0  0  0  0  0  0  0  0  0  0
   -3.6225    1.8790    0.9898 H   0  0  0  0  0  0  0  0  0  0  0  0
   -2.4335    1.5221   -0.3247 H   0  0  0  0  0  0  0  0  0  0  0  0
   -3.4988    0.2090    0.2852 H   0  0  0  0  0  0  0  0  0  0  0  0
   -0.0600   -1.0338    2.6355 H   0  0  0  0  0  0  0  0  0  0  0  0
    0.7239   -1.7824    1.2016 H   0  0  0  0  0  0  0  0  0  0  0  0
    1.1362   -3.8385    2.4994 H   0  0  0  0  0  0  0  0  0  0  0  0
    0.0537   -3.2651    3.8447 H   0  0  0  0  0  0  0  0  0  0  0  0
    1.6262   -2.4444    3.5132 H   0  0  0  0  0  0  0  0  0  0  0  0
    5.4304   -5.9625   -1.8324 H   0  0  0  0  0  0  0  0  0  0  0  0
    0.7682   -6.4174   -3.4467 H   0  0  0  0  0  0  0  0  0  0  0  0
    5.6411   -4.2756   -3.6091 H   0  0  0  0  0  0  0  0  0  0  0  0
    5.7611   -6.1813   -9.3668 H   0  0  0  0  0  0  0  0  0  0  0  0
    6.4455   -1.3129   -8.0104 H   0  0  0  0  0  0  0  0  0  0  0  0
    6.6512   -1.8061  -11.4788 H   0  0  0  0  0  0  0  0  0  0  0  0
    9.0767   -1.1985  -10.8747 H   0  0  0  0  0  0  0  0  0  0  0  0
    9.9057   -2.6748   -8.8216 H   0  0  0  0  0  0  0  0  0  0  0  0
    9.6892   -5.1813   -9.4864 H   0  0  0  0  0  0  0  0  0  0  0  0
    8.7358   -5.3111  -11.9624 H   0  0  0  0  0  0  0  0  0  0  0  0
    8.7100   -2.8293  -12.9608 H   0  0  0  0  0  0  0  0  0  0  0  0
   10.2964   -3.1752  -12.1314 H   0  0  0  0  0  0  0  0  0  0  0  0
    6.4573   -4.0822  -12.1120 H   0  0  0  0  0  0  0  0  0  0  0  0
  1  2  2  3
  2  3  1  0
  3  4  2  0
  3  5  1  0
  5  6  2  0
  6  7  1  0
  7  8  2  0
  8  9  1  0
  9 10  2  0
 10 11  1  0
 11 12  2  3
 12 13  1  0
 13 14  3  0
 12 15  1  0
 15 16  3  0
  8 17  1  0
 17 18  1  0
 18 19  1  0
 19 20  2  0
 20 21  1  0
 21 22  1  0
 21 23  1  0
  1 24  1  0
 24 25  2  0
 25 26  1  0
 25 27  1  0
 27 28  2  0
 28 29  1  0
 29 30  1  0
 29 31  2  0
 28 32  1  0
 32 33  2  0
 33 34  1  0
 34 35  2  0
 35 36  1  0
 36 37  2  0
 37 38  1  0
 38 39  1  0
 39 40  1  0
 38 41  2  0
 33 42  1  0
 42 43  1  0
 43 44  1  0
 44 45  1  0
 45 46  1  0
 46 47  1  0
 47 48  2  0
 48 49  1  0
 49 50  1  0
 47 51  1  0
 51 52  1  0
 52 53  1  0
 53 54  1  0
 54 55  1  0
 55 56  1  0
 56 57  2  0
 57 58  1  0
 58 59  2  0
 59 60  1  0
 60 61  1  0
 61 62  1  0
 60 63  2  0
 55 64  2  0
 64 65  1  0
 65 66  1  0
 66 67  1  0
 67 68  1  0
 68 69  1  0
 69 70  1  0
 70 71  1  0
 71 72  1  0
 72 73  1  0
 73 74  1  0
 71 75  1  0
 75 76  1  0
 68 77  1  0
 77 78  1  0
 64 79  1  0
 79 80  2  0
 80 81  1  0
 80 82  1  0
 82 83  2  0
 83 84  1  0
 84 85  1  0
 84 86  2  0
 83 87  1  0
 87 88  2  3
 88 89  1  0
 89 90  2  0
 89 91  1  0
 91 92  2  0
 92 93  1  0
 93 94  2  0
 94 95  1  0
 95 96  2  0
 96 97  1  0
 97 98  2  3
 98 99  1  0
 99100  3  0
 98101  1  0
101102  3  0
 94103  1  0
103104  1  0
104105  1  0
105106  2  0
106107  1  0
107108  1  0
107109  1  0
 11  2  1  0
 23 17  1  0
 31 24  1  0
 74 32  1  0
 86 79  1  0
 97 88  1  0
109103  1  0
 10  5  1  0
 22 18  1  0
 41 34  1  0
 73 42  2  0
 96 91  1  0
108104  1  0
 23  7  1  0
 72 44  2  0
109 93  1  0
 70 45  2  0
 50 46  2  0
 69 51  2  0
 67 52  2  0
 66 54  2  0
 63 56  1  0
  1110  1  0
  6111  1  0
  9112  1  0
 17113  1  0
 18114  1  0
 19115  1  0
 20116  1  0
 21117  1  0
 22118  1  0
 22119  1  0
 23120  1  0
 27121  1  0
 31122  1  0
 35123  1  0
 36124  1  0
 37125  1  0
 39126  1  0
 39127  1  0
 40128  1  0
 40129  1  0
 40130  1  0
 41131  1  0
 57132  1  0
 58133  1  0
 59134  1  0
 61135  1  0
 61136  1  0
 62137  1  0
 62138  1  0
 62139  1  0
 63140  1  0
 75141  1  0
 75142  1  0
 76143  1  0
 76144  1  0
 76145  1  0
 77146  1  0
 77147  1  0
 78148  1  0
 78149  1  0
 78150  1  0
 82151  1  0
 86152  1  0
 87153  1  0
 92154  1  0
 95155  1  0
103156  1  0
104157  1  0
105158  1  0
106159  1  0
107160  1  0
108161  1  0
108162  1  0
109163  1  0
M  END

