
     RDKit          3D

231260  0  0  0  0  0  0  0  0999 V2000
   -7.8250   -5.8605   -3.4876 C   0  0  0  0  0  0  0  0  0  0  0  0
   -8.0942   -4.6644   -3.9221 C   0  0  0  0  0  0  0  0  0  0  0  0
   -7.3284   -3.6141   -4.5174 C   0  0  0  0  0  0  0  0  0  0  0  0
   -6.1308   -3.7236   -4.9982 O   0  0  0  0  0  0  0  0  0  0  0  0
   -8.0918   -2.3875   -4.5127 C   0  0  0  0  0  0  0  0  0  0  0  0
   -7.7921   -1.1063   -4.9565 C   0  0  0  0  0  0  0  0  0  0  0  0
   -8.7083   -0.0830   -4.8212 C   0  0  0  0  0  0  0  0  0  0  0  0
   -9.9503   -0.2994   -4.2432 C   0  0  0  0  0  0  0  0  0  0  0  0
  -10.2338   -1.5667   -3.8105 C   0  0  0  0  0  0  0  0  0  0  0  0
   -9.3103   -2.5963   -3.9452 C   0  0  0  0  0  0  0  0  0  0  0  0
   -9.4020   -4.0484   -3.5279 C   0  0  0  0  0  0  0  0  0  0  0  0
  -10.4999   -4.4887   -3.1167 C   0  0  0  0  0  0  0  0  0  0  0  0
  -11.5122   -5.3035   -2.7206 C   0  0  0  0  0  0  0  0  0  0  0  0
  -12.3849   -6.0186   -2.3781 N   0  0  0  0  0  0  0  0  0  0  0  0
  -10.7363   -3.3906   -1.8103 C   0  0  0  0  0  0  0  0  0  0  0  0
  -10.9078   -2.6185   -0.8973 N   0  0  0  0  0  0  0  0  0  0  0  0
  -10.3567    1.1037   -4.3131 C   0  0  0  0  0  0  0  0  0  0  0  0
  -11.3578    1.5683   -5.2921 C   0  0  0  0  0  0  0  0  0  0  0  0
  -11.1023    3.0433   -5.4654 C   0  0  0  0  0  0  0  0  0  0  0  0
   -9.9802    3.1886   -6.1653 C   0  0  0  0  0  0  0  0  0  0  0  0
   -9.4250    1.8058   -6.3955 C   0  0  0  0  0  0  0  0  0  0  0  0
  -10.7399    1.0563   -6.6037 C   0  0  0  0  0  0  0  0  0  0  0  0
   -9.0212    1.3364   -5.0375 C   0  0  0  0  0  0  0  0  0  0  0  0
   -6.4652   -6.4579   -3.4817 C   0  0  0  0  0  0  0  0  0  0  0  0
   -6.0699   -7.3431   -2.4718 C   0  0  0  0  0  0  0  0  0  0  0  0
   -4.7792   -7.7134   -2.3970 C   0  0  0  0  0  0  0  0  0  0  0  0
   -4.1938   -8.4616   -1.4009 C   0  0  0  0  0  0  0  0  0  0  0  0
   -4.8191   -9.2266   -0.3253 C   0  0  0  0  0  0  0  0  0  0  0  0
   -6.1432   -9.6238   -0.0871 C   0  0  0  0  0  0  0  0  0  0  0  0
   -6.4139  -10.2668    1.0538 C   0  0  0  0  0  0  0  0  0  0  0  0
   -5.5211  -10.5806    2.0272 C   0  0  0  0  0  0  0  0  0  0  0  0
   -5.5976  -11.3296    3.6137 S   0  0  0  0  0  0  0  0  0  0  0  0
   -5.6035  -13.1250    3.6305 C   0  0  0  0  0  0  0  0  0  0  0  0
   -4.3068  -13.5875    2.9855 C   0  0  0  0  0  0  0  0  0  0  0  0
   -3.9509   -9.8295    1.1993 Se  0  0  0  0  0  2  0  0  0  0  0  0
   -2.7936   -8.6070   -1.4219 C   0  0  0  0  0  0  0  0  0  0  0  0
   -1.9378   -8.0777   -2.3323 C   0  0  0  0  0  0  0  0  0  0  0  0
   -2.5538   -7.3264   -3.3604 C   0  0  0  0  0  0  0  0  0  0  0  0
   -1.8429   -6.7994   -4.5061 C   0  0  0  0  0  0  0  0  0  0  0  0
   -0.6388   -6.8800   -5.0803 C   0  0  0  0  0  0  0  0  0  0  0  0
   -0.3090   -6.1969   -6.1841 C   0  0  0  0  0  0  0  0  0  0  0  0
   -1.1164   -5.3652   -6.8477 C   0  0  0  0  0  0  0  0  0  0  0  0
   -1.0674   -4.3474   -8.2773 S   0  0  0  0  0  0  0  0  0  0  0  0
   -1.6694   -5.1156   -9.7500 C   0  0  0  0  0  0  0  0  0  0  0  0
   -0.8962   -6.2549  -10.3049 C   0  0  0  0  0  0  0  0  0  0  0  0
   -2.7106   -5.5596   -5.6867 Se  0  0  0  0  0  2  0  0  0  0  0  0
   -3.9491   -7.1818   -3.3421 C   0  0  0  0  0  0  0  0  0  0  0  0
   -5.0125   -6.2017   -4.2771 S   0  0  0  0  0  0  0  0  0  0  0  0
   -0.6144   -8.2026   -2.0696 C   0  0  0  0  0  0  0  0  0  0  0  0
   -0.2805   -8.8636   -0.8821 C   0  0  0  0  0  0  0  0  0  0  0  0
   -1.7377   -9.2761   -0.2176 S   0  0  0  0  0  0  0  0  0  0  0  0
    1.0476   -8.8248   -0.2629 C   0  0  0  0  0  0  0  0  0  0  0  0
    2.2754   -9.0626   -0.6653 C   0  0  0  0  0  0  0  0  0  0  0  0
    2.6033   -9.6716   -1.9799 C   0  0  0  0  0  0  0  0  0  0  0  0
    2.1805  -10.8470   -2.4250 C   0  0  0  0  0  0  0  0  0  0  0  0
    2.5717  -11.2787   -3.7012 C   0  0  0  0  0  0  0  0  0  0  0  0
    3.3964  -10.4960   -4.5082 C   0  0  0  0  0  0  0  0  0  0  0  0
    3.8269   -9.2978   -4.0378 C   0  0  0  0  0  0  0  0  0  0  0  0
    4.6079   -8.3527   -4.8928 C   0  0  0  0  0  0  0  0  0  0  0  0
    3.7029   -7.1628   -5.2112 C   0  0  0  0  0  0  0  0  0  0  0  0
    3.4449   -8.8720   -2.7867 C   0  0  0  0  0  0  0  0  0  0  0  0
    3.3123   -8.5791    0.1459 C   0  0  0  0  0  0  0  0  0  0  0  0
    5.0334   -8.3069    0.0218 S   0  0  0  0  0  0  0  0  0  0  0  0
    5.2294   -7.3341    1.4080 C   0  0  0  0  0  0  0  0  0  0  0  0
    6.0838   -6.3701    2.0377 C   0  0  0  0  0  0  0  0  0  0  0  0
    7.3023   -5.9217    1.5967 C   0  0  0  0  0  0  0  0  0  0  0  0
    7.7209   -4.7123    2.0717 C   0  0  0  0  0  0  0  0  0  0  0  0
    8.9076   -4.3007    1.6381 N   0  0  0  0  0  0  0  0  0  0  0  0
    9.4461   -5.5079    0.6152 S   0  0  0  0  0  0  0  0  0  0  0  0
    8.1435   -6.5318    0.7463 N   0  0  0  0  0  0  0  0  0  0  0  0
    6.8574   -4.0493    2.9361 C   0  0  0  0  0  0  0  0  0  0  0  0
    6.7683   -2.6255    3.0755 C   0  0  0  0  0  0  0  0  0  0  0  0
    7.5188   -1.1793    2.5283 S   0  0  0  0  0  0  0  0  0  0  0  0
    6.2318   -0.0854    2.9591 C   0  0  0  0  0  0  0  0  0  0  0  0
    5.9725    1.1976    2.6521 C   0  0  0  0  0  0  0  0  0  0  0  0
    6.9098    2.1957    2.1165 C   0  0  0  0  0  0  0  0  0  0  0  0
    7.1042    2.3789    0.7767 C   0  0  0  0  0  0  0  0  0  0  0  0
    7.9920    3.3024    0.2573 C   0  0  0  0  0  0  0  0  0  0  0  0
    8.7092    4.0648    1.1604 C   0  0  0  0  0  0  0  0  0  0  0  0
    8.5371    3.9107    2.5520 C   0  0  0  0  0  0  0  0  0  0  0  0
    9.3246    4.7638    3.4734 C   0  0  0  0  0  0  0  0  0  0  0  0
    8.5226    6.0382    3.7149 C   0  0  0  0  0  0  0  0  0  0  0  0
    7.6451    2.9819    2.9927 C   0  0  0  0  0  0  0  0  0  0  0  0
    4.6927    1.6173    2.9350 C   0  0  0  0  0  0  0  0  0  0  0  0
    3.9724    0.2306    3.6072 S   0  0  0  0  0  0  0  0  0  0  0  0
    5.3458   -0.8647    3.4871 C   0  0  0  0  0  0  0  0  0  0  0  0
    5.5870   -2.2524    3.5834 C   0  0  0  0  0  0  0  0  0  0  0  0
    4.8737   -3.4368    3.8416 N   0  0  0  0  0  0  0  0  0  0  0  0
    5.6562   -4.4516    3.4269 C   0  0  0  0  0  0  0  0  0  0  0  0
    5.2294   -5.7591    2.9406 C   0  0  0  0  0  0  0  0  0  0  0  0
    4.0399   -6.2707    2.9350 N   0  0  0  0  0  0  0  0  0  0  0  0
    4.0049   -7.2582    1.9407 C   0  0  0  0  0  0  0  0  0  0  0  0
    3.0172   -7.9292    1.2437 C   0  0  0  0  0  0  0  0  0  0  0  0
    1.2839   -7.9581    1.2385 S   0  0  0  0  0  0  0  0  0  0  0  0
    3.0207   -6.2607    3.9624 C   0  0  0  0  0  0  0  0  0  0  0  0
    3.1325   -7.7805    4.5228 C   0  0  0  0  0  0  0  0  0  0  0  0
    3.6430   -3.3154    4.5220 C   0  0  0  0  0  0  0  0  0  0  0  0
    3.8057   -3.5271    6.0490 C   0  0  0  0  0  0  0  0  0  0  0  0
    4.0943    2.9132    2.5623 C   0  0  0  0  0  0  0  0  0  0  0  0
    3.6536    3.3421    1.3028 C   0  0  0  0  0  0  0  0  0  0  0  0
    3.1071    4.5661    1.2267 C   0  0  0  0  0  0  0  0  0  0  0  0
    2.6057    5.2675    0.1045 C   0  0  0  0  0  0  0  0  0  0  0  0
    2.3421    4.6148   -1.1923 C   0  0  0  0  0  0  0  0  0  0  0  0
    2.2377    3.2403   -1.4115 C   0  0  0  0  0  0  0  0  0  0  0  0
    1.9196    2.8518   -2.6440 C   0  0  0  0  0  0  0  0  0  0  0  0
    1.7180    3.7975   -3.5996 C   0  0  0  0  0  0  0  0  0  0  0  0
    1.2301    3.4070   -5.3179 S   0  0  0  0  0  0  0  0  0  0  0  0
   -0.5952    3.0856   -5.2079 C   0  0  0  0  0  0  0  0  0  0  0  0
   -0.7727    1.8909   -4.2701 C   0  0  0  0  0  0  0  0  0  0  0  0
    1.9820    5.2314   -2.7522 S   0  0  0  0  0  0  0  0  0  0  0  0
    2.1300    6.5843    0.2421 C   0  0  0  0  0  0  0  0  0  0  0  0
    2.1053    7.2539    1.4425 C   0  0  0  0  0  0  0  0  0  0  0  0
    2.5857    6.5506    2.5552 C   0  0  0  0  0  0  0  0  0  0  0  0
    2.6271    7.1039    3.9157 C   0  0  0  0  0  0  0  0  0  0  0  0
    2.5763    6.4066    5.0643 C   0  0  0  0  0  0  0  0  0  0  0  0
    2.5750    6.9820    6.2414 C   0  0  0  0  0  0  0  0  0  0  0  0
    2.6213    8.4126    6.1738 C   0  0  0  0  0  0  0  0  0  0  0  0
    2.7140    9.4577    7.6427 S   0  0  0  0  0  0  0  0  0  0  0  0
    4.5229    9.7409    7.8744 C   0  0  0  0  0  0  0  0  0  0  0  0
    5.2760    8.4704    8.1161 C   0  0  0  0  0  0  0  0  0  0  0  0
    2.6598    8.7129    4.5113 S   0  0  0  0  0  0  0  0  0  0  0  0
    3.0504    5.2764    2.3885 C   0  0  0  0  0  0  0  0  0  0  0  0
    3.7377    4.2230    3.5459 S   0  0  0  0  0  0  0  0  0  0  0  0
    1.6234    8.4920    1.4668 C   0  0  0  0  0  0  0  0  0  0  0  0
    1.1670    9.0354    0.2465 C   0  0  0  0  0  0  0  0  0  0  0  0
    1.4601    7.7729   -0.7938 S   0  0  0  0  0  0  0  0  0  0  0  0
    0.5766   10.3974    0.2736 C   0  0  0  0  0  0  0  0  0  0  0  0
   -0.5398   10.4970    1.0017 C   0  0  0  0  0  0  0  0  0  0  0  0
   -1.1683    9.3853    1.6948 C   0  0  0  0  0  0  0  0  0  0  0  0
   -0.8956    8.1457    1.6257 O   0  0  0  0  0  0  0  0  0  0  0  0
   -2.2164    9.9731    2.4987 C   0  0  0  0  0  0  0  0  0  0  0  0
   -2.9229    9.3305    3.4803 C   0  0  0  0  0  0  0  0  0  0  0  0
   -3.6855   10.0570    4.3540 C   0  0  0  0  0  0  0  0  0  0  0  0
   -3.7357   11.4033    4.2268 C   0  0  0  0  0  0  0  0  0  0  0  0
   -3.0349   12.0948    3.2135 C   0  0  0  0  0  0  0  0  0  0  0  0
   -2.2556   11.3623    2.3275 C   0  0  0  0  0  0  0  0  0  0  0  0
   -1.1886   11.7112    1.3600 C   0  0  0  0  0  0  0  0  0  0  0  0
   -0.4722   13.0507    1.4586 C   0  0  0  0  0  0  0  0  0  0  0  0
   -1.8393   14.0065    1.7472 C   0  0  0  0  0  0  0  0  0  0  0  0
   -2.7920   14.6619    1.9460 N   0  0  0  0  0  0  0  0  0  0  0  0
    0.2058   13.2692    1.5478 C   0  0  0  0  0  0  0  0  0  0  0  0
    1.8227   13.8038    1.7887 N   0  0  0  0  0  0  0  0  0  0  0  0
   -4.5963   11.5554    5.4430 C   0  0  0  0  0  0  0  0  0  0  0  0
   -4.0364   12.0247    6.7169 C   0  0  0  0  0  0  0  0  0  0  0  0
   -2.5672   11.8501    6.7458 C   0  0  0  0  0  0  0  0  0  0  0  0
   -2.3687   10.5351    6.5119 C   0  0  0  0  0  0  0  0  0  0  0  0
   -3.6470    9.8273    6.8026 C   0  0  0  0  0  0  0  0  0  0  0  0
   -4.3582   10.8361    7.6789 C   0  0  0  0  0  0  0  0  0  0  0  0
   -4.5295   10.0261    5.5586 C   0  0  0  0  0  0  0  0  0  0  0  0
   -8.6447   -6.4749   -3.1076 H   0  0  0  0  0  0  0  0  0  0  0  0
   -6.8247   -0.9522   -5.3918 H   0  0  0  0  0  0  0  0  0  0  0  0
  -11.2100   -1.7356   -3.4201 H   0  0  0  0  0  0  0  0  0  0  0  0
  -10.4277    1.5956   -3.3088 H   0  0  0  0  0  0  0  0  0  0  0  0
  -12.3959    1.3244   -5.1720 H   0  0  0  0  0  0  0  0  0  0  0  0
  -11.7308    3.8163   -5.0700 H   0  0  0  0  0  0  0  0  0  0  0  0
   -9.5763    4.1432   -6.4721 H   0  0  0  0  0  0  0  0  0  0  0  0
   -8.7253    1.7180   -7.1823 H   0  0  0  0  0  0  0  0  0  0  0  0
  -10.6161   -0.0171   -6.6016 H   0  0  0  0  0  0  0  0  0  0  0  0
  -11.2924    1.4472   -7.4854 H   0  0  0  0  0  0  0  0  0  0  0  0
   -8.3628    2.0469   -4.4662 H   0  0  0  0  0  0  0  0  0  0  0  0
   -6.8658   -7.6531   -1.7691 H   0  0  0  0  0  0  0  0  0  0  0  0
   -6.9133   -9.4458   -0.8514 H   0  0  0  0  0  0  0  0  0  0  0  0
   -7.4875  -10.6093    1.2809 H   0  0  0  0  0  0  0  0  0  0  0  0
   -5.4869  -13.4296    4.7248 H   0  0  0  0  0  0  0  0  0  0  0  0
   -6.4696  -13.6002    3.1911 H   0  0  0  0  0  0  0  0  0  0  0  0
   -3.4503  -13.1789    3.5883 H   0  0  0  0  0  0  0  0  0  0  0  0
   -4.2162  -13.2022    1.9383 H   0  0  0  0  0  0  0  0  0  0  0  0
   -4.2167  -14.6831    2.9087 H   0  0  0  0  0  0  0  0  0  0  0  0
    0.1323   -7.5871   -4.6209 H   0  0  0  0  0  0  0  0  0  0  0  0
    0.7550   -6.3105   -6.6121 H   0  0  0  0  0  0  0  0  0  0  0  0
   -1.6719   -4.3210  -10.5678 H   0  0  0  0  0  0  0  0  0  0  0  0
   -2.7276   -5.4407   -9.6043 H   0  0  0  0  0  0  0  0  0  0  0  0
    0.1013   -5.9499  -10.6056 H   0  0  0  0  0  0  0  0  0  0  0  0
   -0.9331   -7.1506   -9.6379 H   0  0  0  0  0  0  0  0  0  0  0  0
   -1.4155   -6.5697  -11.2525 H   0  0  0  0  0  0  0  0  0  0  0  0
    0.2484   -7.8250   -2.6452 H   0  0  0  0  0  0  0  0  0  0  0  0
    1.5200  -11.4536   -1.7934 H   0  0  0  0  0  0  0  0  0  0  0  0
    2.2080  -12.2387   -4.0240 H   0  0  0  0  0  0  0  0  0  0  0  0
    3.6959  -10.8784   -5.5044 H   0  0  0  0  0  0  0  0  0  0  0  0
    4.7566   -8.8736   -5.8653 H   0  0  0  0  0  0  0  0  0  0  0  0
    5.5511   -8.0465   -4.4820 H   0  0  0  0  0  0  0  0  0  0  0  0
    4.3476   -6.2745   -5.2868 H   0  0  0  0  0  0  0  0  0  0  0  0
    2.9907   -7.0124   -4.3513 H   0  0  0  0  0  0  0  0  0  0  0  0
    3.1677   -7.3132   -6.1361 H   0  0  0  0  0  0  0  0  0  0  0  0
    3.7827   -7.9240   -2.4241 H   0  0  0  0  0  0  0  0  0  0  0  0
    6.5346    1.7789    0.0900 H   0  0  0  0  0  0  0  0  0  0  0  0
    8.0914    3.3931   -0.8223 H   0  0  0  0  0  0  0  0  0  0  0  0
    9.4073    4.7914    0.8105 H   0  0  0  0  0  0  0  0  0  0  0  0
   10.2749    5.0551    3.0032 H   0  0  0  0  0  0  0  0  0  0  0  0
    9.4336    4.2043    4.4266 H   0  0  0  0  0  0  0  0  0  0  0  0
    7.6809    5.7590    4.3730 H   0  0  0  0  0  0  0  0  0  0  0  0
    8.1589    6.4994    2.8002 H   0  0  0  0  0  0  0  0  0  0  0  0
    9.2334    6.7270    4.2576 H   0  0  0  0  0  0  0  0  0  0  0  0
    7.4710    2.8144    4.0450 H   0  0  0  0  0  0  0  0  0  0  0  0
    3.2429   -5.8437    4.9128 H   0  0  0  0  0  0  0  0  0  0  0  0
    1.9901   -6.3023    3.6018 H   0  0  0  0  0  0  0  0  0  0  0  0
    4.1575   -7.8901    4.8829 H   0  0  0  0  0  0  0  0  0  0  0  0
    2.9581   -8.4235    3.6723 H   0  0  0  0  0  0  0  0  0  0  0  0
    2.4216   -7.8961    5.3241 H   0  0  0  0  0  0  0  0  0  0  0  0
    2.8372   -3.8818    4.1972 H   0  0  0  0  0  0  0  0  0  0  0  0
    3.2982   -2.2067    4.5762 H   0  0  0  0  0  0  0  0  0  0  0  0
    4.2969   -2.6632    6.5227 H   0  0  0  0  0  0  0  0  0  0  0  0
    4.4459   -4.3910    6.2922 H   0  0  0  0  0  0  0  0  0  0  0  0
    2.8221   -3.7575    6.5026 H   0  0  0  0  0  0  0  0  0  0  0  0
    3.8691    2.6184    0.4860 H   0  0  0  0  0  0  0  0  0  0  0  0
    2.3349    2.5206   -0.5841 H   0  0  0  0  0  0  0  0  0  0  0  0
    1.8347    1.7620   -2.9220 H   0  0  0  0  0  0  0  0  0  0  0  0
   -1.0946    3.9389   -4.7662 H   0  0  0  0  0  0  0  0  0  0  0  0
   -1.0161    2.8272   -6.1797 H   0  0  0  0  0  0  0  0  0  0  0  0
   -0.3451    2.2494   -3.2925 H   0  0  0  0  0  0  0  0  0  0  0  0
   -1.8284    1.7296   -4.0571 H   0  0  0  0  0  0  0  0  0  0  0  0
   -0.2785    0.9816   -4.6392 H   0  0  0  0  0  0  0  0  0  0  0  0
    2.4938    5.2649    5.0132 H   0  0  0  0  0  0  0  0  0  0  0  0
    2.5245    6.5022    7.2233 H   0  0  0  0  0  0  0  0  0  0  0  0
    4.9424   10.2058    6.9725 H   0  0  0  0  0  0  0  0  0  0  0  0
    4.6114   10.4450    8.7105 H   0  0  0  0  0  0  0  0  0  0  0  0
    4.9482    7.6439    7.4568 H   0  0  0  0  0  0  0  0  0  0  0  0
    5.3580    8.1971    9.1696 H   0  0  0  0  0  0  0  0  0  0  0  0
    6.3395    8.6984    7.7930 H   0  0  0  0  0  0  0  0  0  0  0  0
    1.5428    9.1558    2.3602 H   0  0  0  0  0  0  0  0  0  0  0  0
    0.9930   11.1980   -0.2335 H   0  0  0  0  0  0  0  0  0  0  0  0
   -2.8894    8.2280    3.5858 H   0  0  0  0  0  0  0  0  0  0  0  0
   -3.1563   13.1325    3.2451 H   0  0  0  0  0  0  0  0  0  0  0  0
   -5.6156   11.9082    5.1865 H   0  0  0  0  0  0  0  0  0  0  0  0
   -4.3955   12.9584    7.1567 H   0  0  0  0  0  0  0  0  0  0  0  0
   -1.8455   12.6120    6.9431 H   0  0  0  0  0  0  0  0  0  0  0  0
   -1.4548   10.0880    6.1600 H   0  0  0  0  0  0  0  0  0  0  0  0
   -3.5514    8.8340    7.1432 H   0  0  0  0  0  0  0  0  0  0  0  0
   -3.8614   11.0037    8.6445 H   0  0  0  0  0  0  0  0  0  0  0  0
   -5.4372   10.6726    7.7487 H   0  0  0  0  0  0  0  0  0  0  0  0
   -5.4729    9.5170    5.5597 H   0  0  0  0  0  0  0  0  0  0  0  0
  1  2  2  3
  2  3  1  0
  3  4  2  0
  3  5  1  0
  5  6  2  0
  6  7  1  0
  7  8  2  0
  8  9  1  0
  9 10  2  0
 10 11  1  0
 11 12  2  3
 12 13  1  0
 13 14  3  0
 12 15  1  0
 15 16  3  0
  8 17  1  0
 17 18  1  0
 18 19  1  0
 19 20  2  0
 20 21  1  0
 21 22  1  0
 21 23  1  0
  1 24  1  0
 24 25  2  0
 25 26  1  0
 26 27  2  0
 27 28  1  0
 28 29  2  0
 29 30  1  0
 30 31  2  0
 31 32  1  0
 32 33  1  0
 33 34  1  0
 31 35  1  0
 27 36  1  0
 36 37  2  0
 37 38  1  0
 38 39  1  0
 39 40  2  0
 40 41  1  0
 41 42  2  0
 42 43  1  0
 43 44  1  0
 44 45  1  0
 42 46  1  0
 38 47  2  0
 47 48  1  0
 37 49  1  0
 49 50  2  0
 50 51  1  0
 50 52  1  0
 52 53  2  0
 53 54  1  0
 54 55  2  0
 55 56  1  0
 56 57  2  0
 57 58  1  0
 58 59  1  0
 59 60  1  0
 58 61  2  0
 53 62  1  0
 62 63  1  0
 63 64  1  0
 64 65  1  0
 65 66  1  0
 66 67  1  0
 67 68  2  0
 68 69  1  0
 69 70  1  0
 67 71  1  0
 71 72  1  0
 72 73  1  0
 73 74  1  0
 74 75  1  0
 75 76  1  0
 76 77  2  0
 77 78  1  0
 78 79  2  0
 79 80  1  0
 80 81  1  0
 81 82  1  0
 80 83  2  0
 75 84  2  0
 84 85  1  0
 85 86  1  0
 86 87  1  0
 87 88  1  0
 88 89  1  0
 89 90  1  0
 90 91  1  0
 91 92  1  0
 92 93  1  0
 93 94  1  0
 91 95  1  0
 95 96  1  0
 88 97  1  0
 97 98  1  0
 84 99  1  0
 99100  2  0
100101  1  0
101102  2  0
102103  1  0
103104  2  0
104105  1  0
105106  2  0
106107  1  0
107108  1  0
108109  1  0
106110  1  0
102111  1  0
111112  2  0
112113  1  0
113114  1  0
114115  2  0
115116  1  0
116117  2  0
117118  1  0
118119  1  0
119120  1  0
117121  1  0
113122  2  0
122123  1  0
112124  1  0
124125  2  0
125126  1  0
125127  1  0
127128  2  3
128129  1  0
129130  2  0
129131  1  0
131132  2  0
132133  1  0
133134  2  0
134135  1  0
135136  2  0
136137  1  0
137138  2  3
138139  1  0
139140  3  0
138141  1  0
141142  3  0
134143  1  0
143144  1  0
144145  1  0
145146  2  0
146147  1  0
147148  1  0
147149  1  0
 11  2  1  0
 23 17  1  0
 48 24  1  0
 94 52  1  0
123 99  1  0
137128  1  0
149143  1  0
 10  5  1  0
 22 18  1  0
 47 26  1  0
 61 54  1  0
 93 62  2  0
122101  1  0
136131  1  0
148144  1  0
 23  7  1  0
 35 28  1  0
 51 36  1  0
 92 64  2  0
110103  1  0
126111  1  0
149133  1  0
 46 39  1  0
 90 65  2  0
121114  1  0
 70 66  2  0
 89 71  2  0
 87 72  2  0
 86 74  2  0
 83 76  1  0
  1150  1  0
  6151  1  0
  9152  1  0
 17153  1  0
 18154  1  0
 19155  1  0
 20156  1  0
 21157  1  0
 22158  1  0
 22159  1  0
 23160  1  0
 25161  1  0
 29162  1  0
 30163  1  0
 33164  1  0
 33165  1  0
 34166  1  0
 34167  1  0
 34168  1  0
 40169  1  0
 41170  1  0
 44171  1  0
 44172  1  0
 45173  1  0
 45174  1  0
 45175  1  0
 49176  1  0
 55177  1  0
 56178  1  0
 57179  1  0
 59180  1  0
 59181  1  0
 60182  1  0
 60183  1  0
 60184  1  0
 61185  1  0
 77186  1  0
 78187  1  0
 79188  1  0
 81189  1  0
 81190  1  0
 82191  1  0
 82192  1  0
 82193  1  0
 83194  1  0
 95195  1  0
 95196  1  0
 96197  1  0
 96198  1  0
 96199  1  0
 97200  1  0
 97201  1  0
 98202  1  0
 98203  1  0
 98204  1  0
100205  1  0
104206  1  0
105207  1  0
108208  1  0
108209  1  0
109210  1  0
109211  1  0
109212  1  0
115213  1  0
116214  1  0
119215  1  0
119216  1  0
120217  1  0
120218  1  0
120219  1  0
124220  1  0
127221  1  0
132222  1  0
135223  1  0
143224  1  0
144225  1  0
145226  1  0
146227  1  0
147228  1  0
148229  1  0
148230  1  0
149231  1  0
M  END

