
     RDKit          3D

223250  0  0  0  0  0  0  0  0999 V2000
    2.7426    1.5678  -13.5902 C   0  0  0  0  0  0  0  0  0  0  0  0
    4.0797    1.7020  -13.6122 C   0  0  0  0  0  0  0  0  0  0  0  0
    4.6900    3.0263  -13.7354 C   0  0  0  0  0  0  0  0  0  0  0  0
    4.2462    3.9639  -14.4542 O   0  0  0  0  0  0  0  0  0  0  0  0
    5.8669    3.1044  -12.9041 C   0  0  0  0  0  0  0  0  0  0  0  0
    6.6963    4.2340  -12.7086 C   0  0  0  0  0  0  0  0  0  0  0  0
    7.7068    4.0296  -11.7870 C   0  0  0  0  0  0  0  0  0  0  0  0
    7.8836    2.7961  -11.0804 C   0  0  0  0  0  0  0  0  0  0  0  0
    7.0756    1.6882  -11.2705 C   0  0  0  0  0  0  0  0  0  0  0  0
    6.0439    1.8678  -12.2383 C   0  0  0  0  0  0  0  0  0  0  0  0
    4.9780    0.9286  -12.6902 C   0  0  0  0  0  0  0  0  0  0  0  0
    4.8527   -0.3909  -12.3700 C   0  0  0  0  0  0  0  0  0  0  0  0
    5.7368   -1.0729  -11.4585 C   0  0  0  0  0  0  0  0  0  0  0  0
    6.4347   -1.6402  -10.7288 N   0  0  0  0  0  0  0  0  0  0  0  0
    3.8477   -1.2311  -12.9708 C   0  0  0  0  0  0  0  0  0  0  0  0
    3.0419   -1.9155  -13.4463 N   0  0  0  0  0  0  0  0  0  0  0  0
    9.0401    3.3782  -10.3241 C   0  0  0  0  0  0  0  0  0  0  0  0
    8.8116    3.7904   -8.8387 C   0  0  0  0  0  0  0  0  0  0  0  0
    7.3781    4.2270   -8.6339 C   0  0  0  0  0  0  0  0  0  0  0  0
    7.2332    5.3730   -9.3008 C   0  0  0  0  0  0  0  0  0  0  0  0
    8.5671    5.6788   -9.9391 C   0  0  0  0  0  0  0  0  0  0  0  0
    9.4776    5.1553   -8.8409 C   0  0  0  0  0  0  0  0  0  0  0  0
    8.8700    4.6367  -11.0604 C   0  0  0  0  0  0  0  0  0  0  0  0
    1.9801    2.1343  -12.4609 C   0  0  0  0  0  0  0  0  0  0  0  0
    1.9967    3.4524  -12.0013 C   0  0  0  0  0  0  0  0  0  0  0  0
    1.3273    3.6116  -10.7812 C   0  0  0  0  0  0  0  0  0  0  0  0
    1.2551    4.7947  -10.0101 C   0  0  0  0  0  0  0  0  0  0  0  0
    1.7218    6.0251  -10.4732 O   0  0  0  0  0  0  0  0  0  0  0  0
    1.0843    6.7135  -11.5436 C   0  0  0  0  0  0  0  0  0  0  0  0
    1.8336    8.0061  -11.8304 C   0  0  0  0  0  0  0  0  0  0  0  0
    0.7113    4.6803   -8.7241 C   0  0  0  0  0  0  0  0  0  0  0  0
    0.2376    3.4671   -8.2227 C   0  0  0  0  0  0  0  0  0  0  0  0
    0.2642    2.3043   -8.9967 C   0  0  0  0  0  0  0  0  0  0  0  0
   -0.1614    1.0831   -8.4606 O   0  0  0  0  0  0  0  0  0  0  0  0
   -1.2505    0.3338   -8.9935 C   0  0  0  0  0  0  0  0  0  0  0  0
   -2.5715    0.9206   -8.5197 C   0  0  0  0  0  0  0  0  0  0  0  0
    0.8107    2.4106  -10.2801 C   0  0  0  0  0  0  0  0  0  0  0  0
    1.1558    1.1668  -11.3519 S   0  0  0  0  0  0  0  0  0  0  0  0
   -0.2107    3.5470   -6.9099 C   0  0  0  0  0  0  0  0  0  0  0  0
   -0.0899    4.8235   -6.3689 C   0  0  0  0  0  0  0  0  0  0  0  0
    0.5753    5.8650   -7.5250 S   0  0  0  0  0  0  0  0  0  0  0  0
   -0.3855    5.1068   -4.9588 C   0  0  0  0  0  0  0  0  0  0  0  0
   -1.4841    5.8697   -4.4980 C   0  0  0  0  0  0  0  0  0  0  0  0
   -2.0735    7.0070   -5.2330 C   0  0  0  0  0  0  0  0  0  0  0  0
   -3.4564    7.1032   -5.4449 C   0  0  0  0  0  0  0  0  0  0  0  0
   -3.9928    8.2248   -6.0888 C   0  0  0  0  0  0  0  0  0  0  0  0
   -3.1535    9.2536   -6.5285 C   0  0  0  0  0  0  0  0  0  0  0  0
   -1.7660    9.1633   -6.3365 C   0  0  0  0  0  0  0  0  0  0  0  0
   -0.8554   10.2794   -6.7841 C   0  0  0  0  0  0  0  0  0  0  0  0
   -0.4841   11.1804   -5.6097 C   0  0  0  0  0  0  0  0  0  0  0  0
   -1.2358    8.0443   -5.6802 C   0  0  0  0  0  0  0  0  0  0  0  0
   -1.9397    5.4000   -3.2532 C   0  0  0  0  0  0  0  0  0  0  0  0
   -3.4025    5.5876   -2.3889 S   0  0  0  0  0  0  0  0  0  0  0  0
   -3.0300    4.2877   -1.3524 C   0  0  0  0  0  0  0  0  0  0  0  0
   -3.7685    3.3427   -0.6784 C   0  0  0  0  0  0  0  0  0  0  0  0
   -5.1416    3.2539   -0.3811 C   0  0  0  0  0  0  0  0  0  0  0  0
   -5.6729    1.9989    0.0645 C   0  0  0  0  0  0  0  0  0  0  0  0
   -7.0032    1.9527    0.3286 N   0  0  0  0  0  0  0  0  0  0  0  0
   -7.4121    3.5166   -0.0447 S   0  0  0  0  0  0  0  0  0  0  0  0
   -6.0171    4.2790   -0.5201 N   0  0  0  0  0  0  0  0  0  0  0  0
   -4.8037    0.9059    0.1941 C   0  0  0  0  0  0  0  0  0  0  0  0
   -4.9559   -0.3797    0.6568 C   0  0  0  0  0  0  0  0  0  0  0  0
   -6.0895   -1.3280    1.5038 S   0  0  0  0  0  0  0  0  0  0  0  0
   -4.8984   -2.5065    1.8666 C   0  0  0  0  0  0  0  0  0  0  0  0
   -4.8413   -3.6406    2.6965 C   0  0  0  0  0  0  0  0  0  0  0  0
   -5.9916   -4.1696    3.4599 C   0  0  0  0  0  0  0  0  0  0  0  0
   -6.2902   -5.5395    3.4051 C   0  0  0  0  0  0  0  0  0  0  0  0
   -7.4110   -6.0441    4.0670 C   0  0  0  0  0  0  0  0  0  0  0  0
   -8.2467   -5.1879    4.7910 C   0  0  0  0  0  0  0  0  0  0  0  0
   -7.9665   -3.8140    4.8536 C   0  0  0  0  0  0  0  0  0  0  0  0
   -8.8562   -2.8996    5.6520 C   0  0  0  0  0  0  0  0  0  0  0  0
   -8.4824   -2.9348    7.1293 C   0  0  0  0  0  0  0  0  0  0  0  0
   -6.8282   -3.3105    4.1971 C   0  0  0  0  0  0  0  0  0  0  0  0
   -3.5177   -4.1468    2.7645 C   0  0  0  0  0  0  0  0  0  0  0  0
   -2.4856   -3.1741    1.8247 S   0  0  0  0  0  0  0  0  0  0  0  0
   -3.6905   -2.1359    1.3496 C   0  0  0  0  0  0  0  0  0  0  0  0
   -3.7152   -0.9315    0.6936 C   0  0  0  0  0  0  0  0  0  0  0  0
   -2.7339   -0.0626    0.3598 N   0  0  0  0  0  0  0  0  0  0  0  0
   -3.4326    1.0286   -0.0594 C   0  0  0  0  0  0  0  0  0  0  0  0
   -2.9301    2.2236   -0.5877 C   0  0  0  0  0  0  0  0  0  0  0  0
   -1.7848    2.3927   -1.3097 N   0  0  0  0  0  0  0  0  0  0  0  0
   -1.8475    3.6927   -1.6970 C   0  0  0  0  0  0  0  0  0  0  0  0
   -1.2239    4.3479   -2.7467 C   0  0  0  0  0  0  0  0  0  0  0  0
   -0.0037    3.9314   -3.7960 S   0  0  0  0  0  0  0  0  0  0  0  0
   -1.1082    1.3329   -2.0857 C   0  0  0  0  0  0  0  0  0  0  0  0
   -1.8859    1.0050   -3.3600 C   0  0  0  0  0  0  0  0  0  0  0  0
   -1.4114   -0.0214    1.0126 C   0  0  0  0  0  0  0  0  0  0  0  0
   -1.5430    0.3037    2.5040 C   0  0  0  0  0  0  0  0  0  0  0  0
   -2.9444   -4.8779    3.8962 C   0  0  0  0  0  0  0  0  0  0  0  0
   -2.0100   -4.2890    4.7343 C   0  0  0  0  0  0  0  0  0  0  0  0
   -1.3661   -5.1967    5.5682 C   0  0  0  0  0  0  0  0  0  0  0  0
   -0.3595   -4.8686    6.4803 C   0  0  0  0  0  0  0  0  0  0  0  0
    0.2187   -3.5140    6.5808 C   0  0  0  0  0  0  0  0  0  0  0  0
    0.0158   -2.7362    7.7250 C   0  0  0  0  0  0  0  0  0  0  0  0
    0.6791   -1.5142    7.8707 C   0  0  0  0  0  0  0  0  0  0  0  0
    1.5931   -1.0947    6.8978 C   0  0  0  0  0  0  0  0  0  0  0  0
    2.5405    0.4034    7.1830 S   0  0  0  0  0  0  0  0  0  0  0  0
    1.5832    1.4613    6.0437 C   0  0  0  0  0  0  0  0  0  0  0  0
    1.3322    2.8175    6.6850 C   0  0  0  0  0  0  0  0  0  0  0  0
    1.7722   -1.8515    5.7363 C   0  0  0  0  0  0  0  0  0  0  0  0
    2.6611   -1.4587    4.7844 F   0  0  0  0  0  0  0  0  0  0  0  0
    1.0818   -3.0563    5.5751 C   0  0  0  0  0  0  0  0  0  0  0  0
    0.1014   -5.8989    7.2953 C   0  0  0  0  0  0  0  0  0  0  0  0
   -0.3573   -7.2159    7.2039 C   0  0  0  0  0  0  0  0  0  0  0  0
   -1.3039   -7.5720    6.2135 C   0  0  0  0  0  0  0  0  0  0  0  0
   -1.7203   -8.9811    6.0035 C   0  0  0  0  0  0  0  0  0  0  0  0
   -0.7536   -9.9820    5.7964 C   0  0  0  0  0  0  0  0  0  0  0  0
   -1.1382  -11.3165    5.6138 C   0  0  0  0  0  0  0  0  0  0  0  0
   -2.4930  -11.6642    5.6392 C   0  0  0  0  0  0  0  0  0  0  0  0
   -2.9802  -13.3963    5.5602 S   0  0  0  0  0  0  0  0  0  0  0  0
   -3.1845  -13.4576    3.7464 C   0  0  0  0  0  0  0  0  0  0  0  0
   -1.9298  -14.0239    3.0946 C   0  0  0  0  0  0  0  0  0  0  0  0
   -3.4640  -10.6685    5.8137 C   0  0  0  0  0  0  0  0  0  0  0  0
   -3.0773   -9.3342    5.9999 C   0  0  0  0  0  0  0  0  0  0  0  0
   -4.7798  -10.9863    5.8353 F   0  0  0  0  0  0  0  0  0  0  0  0
   -1.8160   -6.5132    5.4241 C   0  0  0  0  0  0  0  0  0  0  0  0
   -2.9664   -6.5498    4.1782 S   0  0  0  0  0  0  0  0  0  0  0  0
    0.1415   -8.0347    8.2372 C   0  0  0  0  0  0  0  0  0  0  0  0
    0.9549   -7.3429    9.1322 C   0  0  0  0  0  0  0  0  0  0  0  0
    1.1229   -5.7565    8.6029 S   0  0  0  0  0  0  0  0  0  0  0  0
    1.2831   -7.7212   10.5207 C   0  0  0  0  0  0  0  0  0  0  0  0
    0.7870   -6.9865   11.5396 C   0  0  0  0  0  0  0  0  0  0  0  0
    1.6686   -6.3888   12.5399 C   0  0  0  0  0  0  0  0  0  0  0  0
    2.7039   -6.9281   13.0161 O   0  0  0  0  0  0  0  0  0  0  0  0
    1.2197   -5.0274   12.8014 C   0  0  0  0  0  0  0  0  0  0  0  0
    1.9258   -4.0023   13.4737 C   0  0  0  0  0  0  0  0  0  0  0  0
    1.3648   -2.7408   13.3390 C   0  0  0  0  0  0  0  0  0  0  0  0
    0.1767   -2.4897   12.5817 C   0  0  0  0  0  0  0  0  0  0  0  0
   -0.5323   -3.4874   11.9327 C   0  0  0  0  0  0  0  0  0  0  0  0
    0.0265   -4.7894   12.0688 C   0  0  0  0  0  0  0  0  0  0  0  0
   -0.3705   -6.0557   11.4085 C   0  0  0  0  0  0  0  0  0  0  0  0
   -1.6003   -6.3948   10.9503 C   0  0  0  0  0  0  0  0  0  0  0  0
   -1.9128   -7.7632   10.6341 C   0  0  0  0  0  0  0  0  0  0  0  0
   -2.1632   -8.8635   10.3841 N   0  0  0  0  0  0  0  0  0  0  0  0
   -2.6810   -5.4481   10.8442 C   0  0  0  0  0  0  0  0  0  0  0  0
   -3.5557   -4.6959   10.7372 N   0  0  0  0  0  0  0  0  0  0  0  0
    0.2853   -1.0189   12.8570 C   0  0  0  0  0  0  0  0  0  0  0  0
    0.7800   -0.1323   11.6802 C   0  0  0  0  0  0  0  0  0  0  0  0
    1.1937    1.1849   12.2886 C   0  0  0  0  0  0  0  0  0  0  0  0
    2.2952    0.9489   13.0040 C   0  0  0  0  0  0  0  0  0  0  0  0
    2.6055   -0.5181   12.8385 C   0  0  0  0  0  0  0  0  0  0  0  0
    2.1648   -0.6903   11.3913 C   0  0  0  0  0  0  0  0  0  0  0  0
    1.5028   -1.2765   13.6325 C   0  0  0  0  0  0  0  0  0  0  0  0
    2.3459    0.6178  -13.9065 H   0  0  0  0  0  0  0  0  0  0  0  0
    6.5513    5.1744  -13.2204 H   0  0  0  0  0  0  0  0  0  0  0  0
    7.2467    0.7984  -10.6986 H   0  0  0  0  0  0  0  0  0  0  0  0
   10.0099    2.8687  -10.5259 H   0  0  0  0  0  0  0  0  0  0  0  0
    9.1987    3.0803   -8.0787 H   0  0  0  0  0  0  0  0  0  0  0  0
    6.6204    3.7443   -8.0202 H   0  0  0  0  0  0  0  0  0  0  0  0
    6.3357    5.9835   -9.3199 H   0  0  0  0  0  0  0  0  0  0  0  0
    8.7233    6.7359  -10.2232 H   0  0  0  0  0  0  0  0  0  0  0  0
    9.3733    5.7086   -7.8756 H   0  0  0  0  0  0  0  0  0  0  0  0
   10.5544    5.1245   -9.1316 H   0  0  0  0  0  0  0  0  0  0  0  0
    9.7339    4.8922  -11.7117 H   0  0  0  0  0  0  0  0  0  0  0  0
    2.5307    4.2476  -12.4979 H   0  0  0  0  0  0  0  0  0  0  0  0
    1.0656    6.0872  -12.4571 H   0  0  0  0  0  0  0  0  0  0  0  0
    0.0396    6.9515  -11.2587 H   0  0  0  0  0  0  0  0  0  0  0  0
    2.8716    7.7783  -12.1511 H   0  0  0  0  0  0  0  0  0  0  0  0
    1.3225    8.5686  -12.6411 H   0  0  0  0  0  0  0  0  0  0  0  0
    1.8636    8.6372  -10.9165 H   0  0  0  0  0  0  0  0  0  0  0  0
   -1.1693   -0.7129   -8.6255 H   0  0  0  0  0  0  0  0  0  0  0  0
   -1.2225    0.3154  -10.1036 H   0  0  0  0  0  0  0  0  0  0  0  0
   -3.4098    0.2996   -8.9011 H   0  0  0  0  0  0  0  0  0  0  0  0
   -2.6910    1.9570   -8.9012 H   0  0  0  0  0  0  0  0  0  0  0  0
   -2.6046    0.9258   -7.4078 H   0  0  0  0  0  0  0  0  0  0  0  0
   -0.5941    2.6958   -6.3618 H   0  0  0  0  0  0  0  0  0  0  0  0
   -4.1205    6.3127   -5.1219 H   0  0  0  0  0  0  0  0  0  0  0  0
   -5.0618    8.2969   -6.2446 H   0  0  0  0  0  0  0  0  0  0  0  0
   -3.5847   10.1234   -7.0134 H   0  0  0  0  0  0  0  0  0  0  0  0
    0.0721    9.8502   -7.2223 H   0  0  0  0  0  0  0  0  0  0  0  0
   -1.3439   10.8910   -7.5734 H   0  0  0  0  0  0  0  0  0  0  0  0
    0.1718   12.0039   -5.9628 H   0  0  0  0  0  0  0  0  0  0  0  0
    0.0640   10.6016   -4.8367 H   0  0  0  0  0  0  0  0  0  0  0  0
   -1.3964   11.6249   -5.1586 H   0  0  0  0  0  0  0  0  0  0  0  0
   -0.1673    7.9899   -5.4981 H   0  0  0  0  0  0  0  0  0  0  0  0
   -5.6703   -6.2133    2.8306 H   0  0  0  0  0  0  0  0  0  0  0  0
   -7.6448   -7.0959    4.0096 H   0  0  0  0  0  0  0  0  0  0  0  0
   -9.1155   -5.5945    5.2960 H   0  0  0  0  0  0  0  0  0  0  0  0
   -8.7739   -1.8574    5.2765 H   0  0  0  0  0  0  0  0  0  0  0  0
   -9.9150   -3.2123    5.5339 H   0  0  0  0  0  0  0  0  0  0  0  0
   -7.4254   -2.6206    7.2622 H   0  0  0  0  0  0  0  0  0  0  0  0
   -9.1380   -2.2408    7.6918 H   0  0  0  0  0  0  0  0  0  0  0  0
   -8.6137   -3.9608    7.5358 H   0  0  0  0  0  0  0  0  0  0  0  0
   -6.5963   -2.2527    4.2634 H   0  0  0  0  0  0  0  0  0  0  0  0
   -1.0299    0.3914   -1.5197 H   0  0  0  0  0  0  0  0  0  0  0  0
   -0.0669    1.6313   -2.3246 H   0  0  0  0  0  0  0  0  0  0  0  0
   -1.3215    0.2565   -3.9548 H   0  0  0  0  0  0  0  0  0  0  0  0
   -2.8793    0.5807   -3.1010 H   0  0  0  0  0  0  0  0  0  0  0  0
   -2.0380    1.9051   -3.9883 H   0  0  0  0  0  0  0  0  0  0  0  0
   -0.8904   -0.9906    0.8735 H   0  0  0  0  0  0  0  0  0  0  0  0
   -0.7735    0.7748    0.5837 H   0  0  0  0  0  0  0  0  0  0  0  0
   -0.5325    0.3544    2.9624 H   0  0  0  0  0  0  0  0  0  0  0  0
   -2.0509    1.2858    2.6344 H   0  0  0  0  0  0  0  0  0  0  0  0
   -2.1276   -0.4760    3.0293 H   0  0  0  0  0  0  0  0  0  0  0  0
   -1.7778   -3.2328    4.7044 H   0  0  0  0  0  0  0  0  0  0  0  0
   -0.6437   -3.0811    8.5117 H   0  0  0  0  0  0  0  0  0  0  0  0
    0.5428   -0.9389    8.7698 H   0  0  0  0  0  0  0  0  0  0  0  0
    2.1750    1.6072    5.1148 H   0  0  0  0  0  0  0  0  0  0  0  0
    0.6116    0.9989    5.7718 H   0  0  0  0  0  0  0  0  0  0  0  0
    2.2900    3.2764    7.0020 H   0  0  0  0  0  0  0  0  0  0  0  0
    0.8377    3.4901    5.9554 H   0  0  0  0  0  0  0  0  0  0  0  0
    0.6690    2.7042    7.5659 H   0  0  0  0  0  0  0  0  0  0  0  0
    1.2488   -3.6507    4.6856 H   0  0  0  0  0  0  0  0  0  0  0  0
    0.3007   -9.7301    5.7821 H   0  0  0  0  0  0  0  0  0  0  0  0
   -0.3783  -12.0783    5.4888 H   0  0  0  0  0  0  0  0  0  0  0  0
   -3.4186  -12.4581    3.3216 H   0  0  0  0  0  0  0  0  0  0  0  0
   -4.0366  -14.1340    3.5206 H   0  0  0  0  0  0  0  0  0  0  0  0
   -1.0625  -13.3558    3.2804 H   0  0  0  0  0  0  0  0  0  0  0  0
   -2.0827  -14.1095    1.9973 H   0  0  0  0  0  0  0  0  0  0  0  0
   -1.7092  -15.0319    3.5026 H   0  0  0  0  0  0  0  0  0  0  0  0
   -3.8372   -8.5828    6.1709 H   0  0  0  0  0  0  0  0  0  0  0  0
   -0.1637   -9.0572    8.3923 H   0  0  0  0  0  0  0  0  0  0  0  0
    2.2461   -8.1871   10.6485 H   0  0  0  0  0  0  0  0  0  0  0  0
    2.8635   -4.1773   13.9837 H   0  0  0  0  0  0  0  0  0  0  0  0
   -1.3754   -3.2564   11.3084 H   0  0  0  0  0  0  0  0  0  0  0  0
   -0.5709   -0.6099   13.4398 H   0  0  0  0  0  0  0  0  0  0  0  0
    0.0830   -0.0487   10.8245 H   0  0  0  0  0  0  0  0  0  0  0  0
    0.7615    2.1632   12.0957 H   0  0  0  0  0  0  0  0  0  0  0  0
    2.9091    1.6966   13.4909 H   0  0  0  0  0  0  0  0  0  0  0  0
    3.6476   -0.8227   13.0621 H   0  0  0  0  0  0  0  0  0  0  0  0
    2.7499   -0.0746   10.6680 H   0  0  0  0  0  0  0  0  0  0  0  0
    2.1744   -1.7416   11.0336 H   0  0  0  0  0  0  0  0  0  0  0  0
    1.4163   -1.0304   14.7149 H   0  0  0  0  0  0  0  0  0  0  0  0
  1  2  2  3
  2  3  1  0
  3  4  2  0
  3  5  1  0
  5  6  2  0
  6  7  1  0
  7  8  2  0
  8  9  1  0
  9 10  2  0
 10 11  1  0
 11 12  2  3
 12 13  1  0
 13 14  3  0
 12 15  1  0
 15 16  3  0
  8 17  1  0
 17 18  1  0
 18 19  1  0
 19 20  2  0
 20 21  1  0
 21 22  1  0
 21 23  1  0
  1 24  1  0
 24 25  2  0
 25 26  1  0
 26 27  2  0
 27 28  1  0
 28 29  1  0
 29 30  1  0
 27 31  1  0
 31 32  2  0
 32 33  1  0
 33 34  1  0
 34 35  1  0
 35 36  1  0
 33 37  2  0
 37 38  1  0
 32 39  1  0
 39 40  2  0
 40 41  1  0
 40 42  1  0
 42 43  2  0
 43 44  1  0
 44 45  2  0
 45 46  1  0
 46 47  2  0
 47 48  1  0
 48 49  1  0
 49 50  1  0
 48 51  2  0
 43 52  1  0
 52 53  1  0
 53 54  1  0
 54 55  1  0
 55 56  1  0
 56 57  1  0
 57 58  2  0
 58 59  1  0
 59 60  1  0
 57 61  1  0
 61 62  1  0
 62 63  1  0
 63 64  1  0
 64 65  1  0
 65 66  1  0
 66 67  2  0
 67 68  1  0
 68 69  2  0
 69 70  1  0
 70 71  1  0
 71 72  1  0
 70 73  2  0
 65 74  2  0
 74 75  1  0
 75 76  1  0
 76 77  1  0
 77 78  1  0
 78 79  1  0
 79 80  1  0
 80 81  1  0
 81 82  1  0
 82 83  1  0
 83 84  1  0
 81 85  1  0
 85 86  1  0
 78 87  1  0
 87 88  1  0
 74 89  1  0
 89 90  2  0
 90 91  1  0
 91 92  2  0
 92 93  1  0
 93 94  2  0
 94 95  1  0
 95 96  2  0
 96 97  1  0
 97 98  1  0
 98 99  1  0
 96100  1  0
100101  1  0
100102  2  0
 92103  1  0
103104  2  0
104105  1  0
105106  1  0
106107  2  0
107108  1  0
108109  2  0
109110  1  0
110111  1  0
111112  1  0
109113  1  0
113114  2  0
113115  1  0
105116  2  0
116117  1  0
104118  1  0
118119  2  0
119120  1  0
119121  1  0
121122  2  3
122123  1  0
123124  2  0
123125  1  0
125126  2  0
126127  1  0
127128  2  0
128129  1  0
129130  2  0
130131  1  0
131132  2  3
132133  1  0
133134  3  0
132135  1  0
135136  3  0
128137  1  0
137138  1  0
138139  1  0
139140  2  0
140141  1  0
141142  1  0
141143  1  0
 11  2  1  0
 23 17  1  0
 38 24  1  0
 84 42  1  0
117 89  1  0
131122  1  0
143137  1  0
 10  5  1  0
 22 18  1  0
 37 26  1  0
 51 44  1  0
 83 52  2  0
116 91  1  0
130125  1  0
142138  1  0
 23  7  1  0
 41 31  1  0
 82 54  2  0
102 93  1  0
120103  1  0
143127  1  0
 80 55  2  0
114106  1  0
 60 56  2  0
 79 61  2  0
 77 62  2  0
 76 64  2  0
 73 66  1  0
  1144  1  0
  6145  1  0
  9146  1  0
 17147  1  0
 18148  1  0
 19149  1  0
 20150  1  0
 21151  1  0
 22152  1  0
 22153  1  0
 23154  1  0
 25155  1  0
 29156  1  0
 29157  1  0
 30158  1  0
 30159  1  0
 30160  1  0
 35161  1  0
 35162  1  0
 36163  1  0
 36164  1  0
 36165  1  0
 39166  1  0
 45167  1  0
 46168  1  0
 47169  1  0
 49170  1  0
 49171  1  0
 50172  1  0
 50173  1  0
 50174  1  0
 51175  1  0
 67176  1  0
 68177  1  0
 69178  1  0
 71179  1  0
 71180  1  0
 72181  1  0
 72182  1  0
 72183  1  0
 73184  1  0
 85185  1  0
 85186  1  0
 86187  1  0
 86188  1  0
 86189  1  0
 87190  1  0
 87191  1  0
 88192  1  0
 88193  1  0
 88194  1  0
 90195  1  0
 94196  1  0
 95197  1  0
 98198  1  0
 98199  1  0
 99200  1  0
 99201  1  0
 99202  1  0
102203  1  0
107204  1  0
108205  1  0
111206  1  0
111207  1  0
112208  1  0
112209  1  0
112210  1  0
114211  1  0
118212  1  0
121213  1  0
126214  1  0
129215  1  0
137216  1  0
138217  1  0
139218  1  0
140219  1  0
141220  1  0
142221  1  0
142222  1  0
143223  1  0
M  END

