
     RDKit          3D

174195  0  0  0  0  0  0  0  0999 V2000
    5.5753    1.9356   -2.9251 C   0  0  0  0  0  0  0  0  0  0  0  0
    6.6658    1.3425   -2.4145 C   0  0  0  0  0  0  0  0  0  0  0  0
    7.4292    0.2821   -3.0805 C   0  0  0  0  0  0  0  0  0  0  0  0
    7.5243    0.1046   -4.3289 O   0  0  0  0  0  0  0  0  0  0  0  0
    8.0755   -0.5209   -2.0707 C   0  0  0  0  0  0  0  0  0  0  0  0
    8.7305   -1.7582   -2.2706 C   0  0  0  0  0  0  0  0  0  0  0  0
    9.0472   -2.4103   -1.0956 C   0  0  0  0  0  0  0  0  0  0  0  0
    8.7480   -1.8822    0.2048 C   0  0  0  0  0  0  0  0  0  0  0  0
    8.1315   -0.6550    0.4085 C   0  0  0  0  0  0  0  0  0  0  0  0
    7.8063    0.0382   -0.7932 C   0  0  0  0  0  0  0  0  0  0  0  0
    7.0540    1.3138   -0.9738 C   0  0  0  0  0  0  0  0  0  0  0  0
    6.9026    2.3051   -0.0625 C   0  0  0  0  0  0  0  0  0  0  0  0
    7.3728    2.1929    1.2909 C   0  0  0  0  0  0  0  0  0  0  0  0
    7.7452    2.1092    2.3829 N   0  0  0  0  0  0  0  0  0  0  0  0
    6.3642    3.5961   -0.4231 C   0  0  0  0  0  0  0  0  0  0  0  0
    5.9342    4.6354   -0.7039 N   0  0  0  0  0  0  0  0  0  0  0  0
    9.2603   -3.1331    0.8509 C   0  0  0  0  0  0  0  0  0  0  0  0
    8.2050   -4.1415    1.4052 C   0  0  0  0  0  0  0  0  0  0  0  0
    6.9421   -4.0774    0.5787 C   0  0  0  0  0  0  0  0  0  0  0  0
    7.2419   -4.5748   -0.6183 C   0  0  0  0  0  0  0  0  0  0  0  0
    8.7035   -4.9499   -0.5739 C   0  0  0  0  0  0  0  0  0  0  0  0
    8.7763   -5.4386    0.8604 C   0  0  0  0  0  0  0  0  0  0  0  0
    9.5829   -3.6675   -0.4784 C   0  0  0  0  0  0  0  0  0  0  0  0
    4.8490    1.4404   -4.1161 C   0  0  0  0  0  0  0  0  0  0  0  0
    4.5392    0.0684   -4.2225 C   0  0  0  0  0  0  0  0  0  0  0  0
    3.6582   -0.3411   -5.2229 C   0  0  0  0  0  0  0  0  0  0  0  0
    2.9641   -1.6191   -5.3501 C   0  0  0  0  0  0  0  0  0  0  0  0
    3.2011   -2.6683   -4.6951 O   0  0  0  0  0  0  0  0  0  0  0  0
    1.8625   -1.3987   -6.2793 C   0  0  0  0  0  0  0  0  0  0  0  0
    1.9305   -0.0926   -6.7325 C   0  0  0  0  0  0  0  0  0  0  0  0
    3.0573    0.5714   -6.0666 C   0  0  0  0  0  0  0  0  0  0  0  0
    3.3426    1.9347   -5.9841 C   0  0  0  0  0  0  0  0  0  0  0  0
    4.2524    2.3687   -4.9997 C   0  0  0  0  0  0  0  0  0  0  0  0
    0.8699    0.4768   -7.4230 C   0  0  0  0  0  0  0  0  0  0  0  0
   -0.3083   -0.2670   -7.5872 C   0  0  0  0  0  0  0  0  0  0  0  0
   -0.4216   -1.5721   -7.0403 C   0  0  0  0  0  0  0  0  0  0  0  0
    0.7041   -2.1623   -6.4235 C   0  0  0  0  0  0  0  0  0  0  0  0
   -1.7677   -2.1495   -6.7764 C   0  0  0  0  0  0  0  0  0  0  0  0
   -2.9632   -1.7788   -7.4297 C   0  0  0  0  0  0  0  0  0  0  0  0
   -3.0460   -1.4294   -8.8601 C   0  0  0  0  0  0  0  0  0  0  0  0
   -2.5623   -2.3383   -9.8132 C   0  0  0  0  0  0  0  0  0  0  0  0
   -2.7148   -2.0843  -11.1727 C   0  0  0  0  0  0  0  0  0  0  0  0
   -3.3374   -0.9122  -11.5998 C   0  0  0  0  0  0  0  0  0  0  0  0
   -3.7848    0.0466  -10.6702 C   0  0  0  0  0  0  0  0  0  0  0  0
   -4.4812    1.2973  -11.1288 C   0  0  0  0  0  0  0  0  0  0  0  0
   -3.6404    2.1112  -12.1184 C   0  0  0  0  0  0  0  0  0  0  0  0
   -3.6583   -0.2376   -9.2948 C   0  0  0  0  0  0  0  0  0  0  0  0
   -4.0791   -1.9890   -6.6116 C   0  0  0  0  0  0  0  0  0  0  0  0
   -5.6414   -1.2847   -6.5830 S   0  0  0  0  0  0  0  0  0  0  0  0
   -5.8953   -1.8335   -4.9935 C   0  0  0  0  0  0  0  0  0  0  0  0
   -6.6892   -1.5346   -3.9111 C   0  0  0  0  0  0  0  0  0  0  0  0
   -7.8247   -0.7321   -3.7860 C   0  0  0  0  0  0  0  0  0  0  0  0
   -8.3309   -0.4604   -2.4837 C   0  0  0  0  0  0  0  0  0  0  0  0
   -9.4165    0.3542   -2.4092 N   0  0  0  0  0  0  0  0  0  0  0  0
   -9.6670    0.6524   -4.0146 S   0  0  0  0  0  0  0  0  0  0  0  0
   -8.4760   -0.1626   -4.8308 N   0  0  0  0  0  0  0  0  0  0  0  0
   -7.6554   -0.9737   -1.3645 C   0  0  0  0  0  0  0  0  0  0  0  0
   -7.7220   -0.5709   -0.0562 C   0  0  0  0  0  0  0  0  0  0  0  0
   -8.3804    0.7860    0.7247 S   0  0  0  0  0  0  0  0  0  0  0  0
   -7.1953    0.7224    1.9518 C   0  0  0  0  0  0  0  0  0  0  0  0
   -6.7928    1.6116    2.9635 C   0  0  0  0  0  0  0  0  0  0  0  0
   -7.4643    2.8917    3.2612 C   0  0  0  0  0  0  0  0  0  0  0  0
   -8.8569    2.9448    3.4306 C   0  0  0  0  0  0  0  0  0  0  0  0
   -9.4996    4.1785    3.5898 C   0  0  0  0  0  0  0  0  0  0  0  0
   -8.7590    5.3669    3.5565 C   0  0  0  0  0  0  0  0  0  0  0  0
   -7.3724    5.3287    3.3875 C   0  0  0  0  0  0  0  0  0  0  0  0
   -6.5797    6.6077    3.2458 C   0  0  0  0  0  0  0  0  0  0  0  0
   -6.4329    6.9808    1.7743 C   0  0  0  0  0  0  0  0  0  0  0  0
   -6.7313    4.0912    3.2412 C   0  0  0  0  0  0  0  0  0  0  0  0
   -5.5350    1.2371    3.4939 C   0  0  0  0  0  0  0  0  0  0  0  0
   -4.9555   -0.1313    2.6805 S   0  0  0  0  0  0  0  0  0  0  0  0
   -6.2968   -0.2825    1.6918 C   0  0  0  0  0  0  0  0  0  0  0  0
   -6.5860   -1.0131    0.5464 C   0  0  0  0  0  0  0  0  0  0  0  0
   -5.7735   -1.7043   -0.2974 N   0  0  0  0  0  0  0  0  0  0  0  0
   -6.4655   -1.7164   -1.4877 C   0  0  0  0  0  0  0  0  0  0  0  0
   -6.0261   -2.0790   -2.7956 C   0  0  0  0  0  0  0  0  0  0  0  0
   -4.9041   -2.7619   -3.1863 N   0  0  0  0  0  0  0  0  0  0  0  0
   -4.8433   -2.5336   -4.5190 C   0  0  0  0  0  0  0  0  0  0  0  0
   -3.8007   -2.6037   -5.4148 C   0  0  0  0  0  0  0  0  0  0  0  0
   -2.1567   -2.8034   -5.2467 S   0  0  0  0  0  0  0  0  0  0  0  0
   -4.3165   -3.9427   -2.5402 C   0  0  0  0  0  0  0  0  0  0  0  0
   -4.6245   -5.2294   -3.3178 C   0  0  0  0  0  0  0  0  0  0  0  0
   -4.3298   -1.8840   -0.0595 C   0  0  0  0  0  0  0  0  0  0  0  0
   -4.0750   -3.0054    0.9530 C   0  0  0  0  0  0  0  0  0  0  0  0
   -4.7904    1.8226    4.6178 C   0  0  0  0  0  0  0  0  0  0  0  0
   -3.4369    2.1617    4.4178 C   0  0  0  0  0  0  0  0  0  0  0  0
   -2.5957    2.2283    5.5182 C   0  0  0  0  0  0  0  0  0  0  0  0
   -1.1478    2.0587    5.5166 C   0  0  0  0  0  0  0  0  0  0  0  0
   -0.4030    1.9987    4.4997 O   0  0  0  0  0  0  0  0  0  0  0  0
   -0.7669    1.7736    6.8925 C   0  0  0  0  0  0  0  0  0  0  0  0
   -1.9029    1.8409    7.6899 C   0  0  0  0  0  0  0  0  0  0  0  0
   -3.0661    2.0627    6.8109 C   0  0  0  0  0  0  0  0  0  0  0  0
   -4.4147    1.7539    7.0359 C   0  0  0  0  0  0  0  0  0  0  0  0
   -5.2844    1.6437    5.9316 C   0  0  0  0  0  0  0  0  0  0  0  0
   -1.8738    1.4291    9.0111 C   0  0  0  0  0  0  0  0  0  0  0  0
   -0.6602    0.9531    9.5295 C   0  0  0  0  0  0  0  0  0  0  0  0
    0.4871    0.7697    8.7003 C   0  0  0  0  0  0  0  0  0  0  0  0
    0.4156    1.1958    7.3518 C   0  0  0  0  0  0  0  0  0  0  0  0
    1.6281    0.0074    9.3079 C   0  0  0  0  0  0  0  0  0  0  0  0
    2.9346   -0.1456    8.9335 C   0  0  0  0  0  0  0  0  0  0  0  0
    3.7048   -1.1964    9.6488 C   0  0  0  0  0  0  0  0  0  0  0  0
    3.3997   -1.5197   10.8319 O   0  0  0  0  0  0  0  0  0  0  0  0
    4.7539   -1.8919    8.9717 N   0  0  0  0  0  0  0  0  0  0  0  0
    5.1555   -3.2345    9.4192 C   0  0  0  0  0  0  0  0  0  0  0  0
    6.2108   -3.1483   10.5149 C   0  0  0  0  0  0  0  0  0  0  0  0
    5.4407   -1.2322    7.8965 C   0  0  0  0  0  0  0  0  0  0  0  0
    6.4202   -1.8013    7.3333 O   0  0  0  0  0  0  0  0  0  0  0  0
    5.1397    0.2186    7.6100 C   0  0  0  0  0  0  0  0  0  0  0  0
    5.6053    0.5718    6.2529 C   0  0  0  0  0  0  0  0  0  0  0  0
    5.9638    0.8437    5.1853 N   0  0  0  0  0  0  0  0  0  0  0  0
    3.6288    0.5836    7.7769 C   0  0  0  0  0  0  0  0  0  0  0  0
    3.5235    2.1169    7.9523 C   0  0  0  0  0  0  0  0  0  0  0  0
    5.0469    2.6872   -2.3595 H   0  0  0  0  0  0  0  0  0  0  0  0
    8.8903   -2.2002   -3.2489 H   0  0  0  0  0  0  0  0  0  0  0  0
    7.8592   -0.3273    1.3977 H   0  0  0  0  0  0  0  0  0  0  0  0
   10.1483   -2.9779    1.5013 H   0  0  0  0  0  0  0  0  0  0  0  0
    8.0533   -4.1184    2.5052 H   0  0  0  0  0  0  0  0  0  0  0  0
    5.9572   -3.7550    0.9065 H   0  0  0  0  0  0  0  0  0  0  0  0
    6.5431   -4.7394   -1.4336 H   0  0  0  0  0  0  0  0  0  0  0  0
    9.0211   -5.6881   -1.3401 H   0  0  0  0  0  0  0  0  0  0  0  0
    8.1376   -6.3297    1.0615 H   0  0  0  0  0  0  0  0  0  0  0  0
    9.8166   -5.6455    1.2031 H   0  0  0  0  0  0  0  0  0  0  0  0
   10.6725   -3.8273   -0.6416 H   0  0  0  0  0  0  0  0  0  0  0  0
    4.8886   -0.6515   -3.4922 H   0  0  0  0  0  0  0  0  0  0  0  0
    2.8227    2.6480   -6.5990 H   0  0  0  0  0  0  0  0  0  0  0  0
    4.4369    3.4271   -4.8799 H   0  0  0  0  0  0  0  0  0  0  0  0
    0.9028    1.5232   -7.7234 H   0  0  0  0  0  0  0  0  0  0  0  0
   -1.1592    0.2402   -8.0103 H   0  0  0  0  0  0  0  0  0  0  0  0
    0.6333   -3.1280   -5.9348 H   0  0  0  0  0  0  0  0  0  0  0  0
   -2.0991   -3.2684   -9.4975 H   0  0  0  0  0  0  0  0  0  0  0  0
   -2.3827   -2.8163  -11.9002 H   0  0  0  0  0  0  0  0  0  0  0  0
   -3.4792   -0.7573  -12.6651 H   0  0  0  0  0  0  0  0  0  0  0  0
   -5.4452    1.0192  -11.6123 H   0  0  0  0  0  0  0  0  0  0  0  0
   -4.7178    1.9554  -10.2650 H   0  0  0  0  0  0  0  0  0  0  0  0
   -4.2182    3.0002  -12.4364 H   0  0  0  0  0  0  0  0  0  0  0  0
   -3.4092    1.5214  -13.0313 H   0  0  0  0  0  0  0  0  0  0  0  0
   -2.6845    2.4337  -11.6469 H   0  0  0  0  0  0  0  0  0  0  0  0
   -4.0318    0.4641   -8.5584 H   0  0  0  0  0  0  0  0  0  0  0  0
   -9.4493    2.0397    3.4248 H   0  0  0  0  0  0  0  0  0  0  0  0
  -10.5757    4.2151    3.7095 H   0  0  0  0  0  0  0  0  0  0  0  0
   -9.2762    6.3162    3.6431 H   0  0  0  0  0  0  0  0  0  0  0  0
   -7.0861    7.4359    3.7843 H   0  0  0  0  0  0  0  0  0  0  0  0
   -5.5683    6.4784    3.6911 H   0  0  0  0  0  0  0  0  0  0  0  0
   -5.8948    6.1775    1.2203 H   0  0  0  0  0  0  0  0  0  0  0  0
   -5.8584    7.9264    1.6787 H   0  0  0  0  0  0  0  0  0  0  0  0
   -7.4408    7.1354    1.3109 H   0  0  0  0  0  0  0  0  0  0  0  0
   -5.6632    4.0638    3.0544 H   0  0  0  0  0  0  0  0  0  0  0  0
   -4.7534   -4.0777   -1.5394 H   0  0  0  0  0  0  0  0  0  0  0  0
   -3.2122   -3.8209   -2.4528 H   0  0  0  0  0  0  0  0  0  0  0  0
   -4.0960   -5.2295   -4.2974 H   0  0  0  0  0  0  0  0  0  0  0  0
   -5.7180   -5.3132   -3.5028 H   0  0  0  0  0  0  0  0  0  0  0  0
   -4.2802   -6.1078   -2.7353 H   0  0  0  0  0  0  0  0  0  0  0  0
   -3.7667   -2.0471   -0.9951 H   0  0  0  0  0  0  0  0  0  0  0  0
   -3.8990   -0.9457    0.3333 H   0  0  0  0  0  0  0  0  0  0  0  0
   -2.9800   -3.1230    1.1157 H   0  0  0  0  0  0  0  0  0  0  0  0
   -4.5360   -2.7692    1.9373 H   0  0  0  0  0  0  0  0  0  0  0  0
   -4.4873   -3.9717    0.6067 H   0  0  0  0  0  0  0  0  0  0  0  0
   -3.0276    2.2873    3.4245 H   0  0  0  0  0  0  0  0  0  0  0  0
   -4.7757    1.4879    8.0238 H   0  0  0  0  0  0  0  0  0  0  0  0
   -6.2995    1.2933    6.0904 H   0  0  0  0  0  0  0  0  0  0  0  0
   -2.7721    1.4094    9.6160 H   0  0  0  0  0  0  0  0  0  0  0  0
   -0.6260    0.6517   10.5682 H   0  0  0  0  0  0  0  0  0  0  0  0
    1.1986    1.0245    6.6443 H   0  0  0  0  0  0  0  0  0  0  0  0
    1.3077   -0.5564   10.1842 H   0  0  0  0  0  0  0  0  0  0  0  0
    4.2688   -3.7739    9.8069 H   0  0  0  0  0  0  0  0  0  0  0  0
    5.5441   -3.8301    8.5586 H   0  0  0  0  0  0  0  0  0  0  0  0
    7.1512   -2.7191   10.1024 H   0  0  0  0  0  0  0  0  0  0  0  0
    5.8516   -2.5174   11.3467 H   0  0  0  0  0  0  0  0  0  0  0  0
    6.4272   -4.1693   10.8966 H   0  0  0  0  0  0  0  0  0  0  0  0
    5.7436    0.8047    8.3303 H   0  0  0  0  0  0  0  0  0  0  0  0
    3.1330    0.2617    6.8453 H   0  0  0  0  0  0  0  0  0  0  0  0
    4.1870    2.4595    8.7743 H   0  0  0  0  0  0  0  0  0  0  0  0
    3.8302    2.6435    7.0208 H   0  0  0  0  0  0  0  0  0  0  0  0
    2.5031    2.4614    8.2054 H   0  0  0  0  0  0  0  0  0  0  0  0
  1  2  2  3
  2  3  1  0
  3  4  2  0
  3  5  1  0
  5  6  2  0
  6  7  1  0
  7  8  2  0
  8  9  1  0
  9 10  2  0
 10 11  1  0
 11 12  2  3
 12 13  1  0
 13 14  3  0
 12 15  1  0
 15 16  3  0
  8 17  1  0
 17 18  1  0
 18 19  1  0
 19 20  2  0
 20 21  1  0
 21 22  1  0
 21 23  1  0
  1 24  1  0
 24 25  2  0
 25 26  1  0
 26 27  1  0
 27 28  2  0
 27 29  1  0
 29 30  2  0
 30 31  1  0
 31 32  1  0
 32 33  2  0
 30 34  1  0
 34 35  2  0
 35 36  1  0
 36 37  2  0
 36 38  1  0
 38 39  2  0
 39 40  1  0
 40 41  2  0
 41 42  1  0
 42 43  2  0
 43 44  1  0
 44 45  1  0
 45 46  1  0
 44 47  2  0
 39 48  1  0
 48 49  1  0
 49 50  1  0
 50 51  1  0
 51 52  1  0
 52 53  1  0
 53 54  2  0
 54 55  1  0
 55 56  1  0
 53 57  1  0
 57 58  1  0
 58 59  1  0
 59 60  1  0
 60 61  1  0
 61 62  1  0
 62 63  2  0
 63 64  1  0
 64 65  2  0
 65 66  1  0
 66 67  1  0
 67 68  1  0
 66 69  2  0
 61 70  2  0
 70 71  1  0
 71 72  1  0
 72 73  1  0
 73 74  1  0
 74 75  1  0
 75 76  1  0
 76 77  1  0
 77 78  1  0
 78 79  1  0
 79 80  1  0
 77 81  1  0
 81 82  1  0
 74 83  1  0
 83 84  1  0
 70 85  1  0
 85 86  2  0
 86 87  1  0
 87 88  1  0
 88 89  2  0
 88 90  1  0
 90 91  2  0
 91 92  1  0
 92 93  1  0
 93 94  2  0
 91 95  1  0
 95 96  2  0
 96 97  1  0
 97 98  2  0
 97 99  1  0
 99100  2  3
100101  1  0
101102  2  0
101103  1  0
103104  1  0
104105  1  0
103106  1  0
106107  2  0
106108  1  0
108109  1  0
109110  3  0
108111  1  0
111112  1  0
 11  2  1  0
 23 17  1  0
 33 24  1  0
 80 38  1  0
 94 85  1  0
111100  1  0
 10  5  1  0
 22 18  1  0
 31 26  2  0
 47 40  1  0
 79 48  2  0
 92 87  2  0
 23  7  1  0
 37 29  1  0
 78 50  2  0
 98 90  1  0
 76 51  2  0
 56 52  2  0
 75 57  2  0
 73 58  2  0
 72 60  2  0
 69 62  1  0
  1113  1  0
  6114  1  0
  9115  1  0
 17116  1  0
 18117  1  0
 19118  1  0
 20119  1  0
 21120  1  0
 22121  1  0
 22122  1  0
 23123  1  0
 25124  1  0
 32125  1  0
 33126  1  0
 34127  1  0
 35128  1  0
 37129  1  0
 41130  1  0
 42131  1  0
 43132  1  0
 45133  1  0
 45134  1  0
 46135  1  0
 46136  1  0
 46137  1  0
 47138  1  0
 63139  1  0
 64140  1  0
 65141  1  0
 67142  1  0
 67143  1  0
 68144  1  0
 68145  1  0
 68146  1  0
 69147  1  0
 81148  1  0
 81149  1  0
 82150  1  0
 82151  1  0
 82152  1  0
 83153  1  0
 83154  1  0
 84155  1  0
 84156  1  0
 84157  1  0
 86158  1  0
 93159  1  0
 94160  1  0
 95161  1  0
 96162  1  0
 98163  1  0
 99164  1  0
104165  1  0
104166  1  0
105167  1  0
105168  1  0
105169  1  0
108170  1  0
111171  1  0
112172  1  0
112173  1  0
112174  1  0
M  END

