
     RDKit          3D

213240  0  0  0  0  0  0  0  0999 V2000
   -5.7659   -7.0960    8.3363 C   0  0  0  0  0  0  0  0  0  0  0  0
   -6.3561   -6.9351    7.1322 C   0  0  0  0  0  0  0  0  0  0  0  0
   -6.7591   -5.6556    6.5355 C   0  0  0  0  0  0  0  0  0  0  0  0
   -6.4526   -4.5020    6.9393 O   0  0  0  0  0  0  0  0  0  0  0  0
   -7.5781   -5.9173    5.3720 C   0  0  0  0  0  0  0  0  0  0  0  0
   -8.1931   -4.9568    4.5391 C   0  0  0  0  0  0  0  0  0  0  0  0
   -8.8037   -5.4896    3.4212 C   0  0  0  0  0  0  0  0  0  0  0  0
   -8.8008   -6.8912    3.1207 C   0  0  0  0  0  0  0  0  0  0  0  0
   -8.2346   -7.8420    3.9548 C   0  0  0  0  0  0  0  0  0  0  0  0
   -7.6324   -7.3172    5.1401 C   0  0  0  0  0  0  0  0  0  0  0  0
   -6.8611   -8.0168    6.2145 C   0  0  0  0  0  0  0  0  0  0  0  0
   -6.5411   -9.3377    6.2490 C   0  0  0  0  0  0  0  0  0  0  0  0
   -7.1894  -10.3220    5.4241 C   0  0  0  0  0  0  0  0  0  0  0  0
   -7.7056  -11.1303    4.7772 N   0  0  0  0  0  0  0  0  0  0  0  0
   -5.4919   -9.8643    7.0829 C   0  0  0  0  0  0  0  0  0  0  0  0
   -4.6448  -10.2990    7.7410 N   0  0  0  0  0  0  0  0  0  0  0  0
   -9.4991   -6.6319    1.8186 C   0  0  0  0  0  0  0  0  0  0  0  0
   -8.6172   -6.6834    0.5337 C   0  0  0  0  0  0  0  0  0  0  0  0
   -9.4327   -6.0229   -0.5510 C   0  0  0  0  0  0  0  0  0  0  0  0
   -9.4788   -4.7162   -0.2503 C   0  0  0  0  0  0  0  0  0  0  0  0
   -8.6809   -4.5438    1.0178 C   0  0  0  0  0  0  0  0  0  0  0  0
   -7.5951   -5.5795    0.7608 C   0  0  0  0  0  0  0  0  0  0  0  0
   -9.5328   -5.1997    2.1445 C   0  0  0  0  0  0  0  0  0  0  0  0
   -4.9650   -6.0526    9.0046 C   0  0  0  0  0  0  0  0  0  0  0  0
   -3.5673   -6.2239    9.0436 C   0  0  0  0  0  0  0  0  0  0  0  0
   -2.7839   -5.1939    9.5521 C   0  0  0  0  0  0  0  0  0  0  0  0
   -1.3411   -5.0193    9.4705 C   0  0  0  0  0  0  0  0  0  0  0  0
   -0.5062   -5.8644    9.0537 O   0  0  0  0  0  0  0  0  0  0  0  0
   -1.0656   -3.6375    9.8415 C   0  0  0  0  0  0  0  0  0  0  0  0
   -2.2672   -3.0269   10.1689 C   0  0  0  0  0  0  0  0  0  0  0  0
   -3.3421   -4.0128   10.0016 C   0  0  0  0  0  0  0  0  0  0  0  0
   -4.7280   -3.8408   10.0345 C   0  0  0  0  0  0  0  0  0  0  0  0
   -5.5437   -4.8876    9.5634 C   0  0  0  0  0  0  0  0  0  0  0  0
   -2.3639   -1.6387   10.2634 C   0  0  0  0  0  0  0  0  0  0  0  0
   -1.2275   -0.8672    9.9658 C   0  0  0  0  0  0  0  0  0  0  0  0
   -0.0069   -1.4872    9.5971 C   0  0  0  0  0  0  0  0  0  0  0  0
    0.0756   -2.8906    9.5546 C   0  0  0  0  0  0  0  0  0  0  0  0
    0.9839   -0.7270    8.8291 C   0  0  0  0  0  0  0  0  0  0  0  0
    1.9151    0.2364    9.2676 C   0  0  0  0  0  0  0  0  0  0  0  0
    2.2470    0.5398   10.6742 C   0  0  0  0  0  0  0  0  0  0  0  0
    3.5786    0.3982   11.1088 C   0  0  0  0  0  0  0  0  0  0  0  0
    3.9119    0.6150   12.4458 C   0  0  0  0  0  0  0  0  0  0  0  0
    2.9262    0.9860   13.3632 C   0  0  0  0  0  0  0  0  0  0  0  0
    1.5950    1.1526   12.9441 C   0  0  0  0  0  0  0  0  0  0  0  0
    0.5392    1.5801   13.9295 C   0  0  0  0  0  0  0  0  0  0  0  0
    0.6815    3.0591   14.2664 C   0  0  0  0  0  0  0  0  0  0  0  0
    1.2637    0.9344   11.5941 C   0  0  0  0  0  0  0  0  0  0  0  0
    2.6308    0.7464    8.1759 C   0  0  0  0  0  0  0  0  0  0  0  0
    3.6028    2.1282    7.9732 S   0  0  0  0  0  0  0  0  0  0  0  0
    3.6555    1.9033    6.2868 C   0  0  0  0  0  0  0  0  0  0  0  0
    3.7712    2.7258    5.1980 C   0  0  0  0  0  0  0  0  0  0  0  0
    4.0176    4.1048    5.1498 C   0  0  0  0  0  0  0  0  0  0  0  0
    3.6800    4.8233    3.9690 C   0  0  0  0  0  0  0  0  0  0  0  0
    3.8833    6.1628    3.9815 N   0  0  0  0  0  0  0  0  0  0  0  0
    4.4782    6.3426    5.5158 S   0  0  0  0  0  0  0  0  0  0  0  0
    4.4966    4.8302    6.1894 N   0  0  0  0  0  0  0  0  0  0  0  0
    3.1650    4.1155    2.8796 C   0  0  0  0  0  0  0  0  0  0  0  0
    2.8377    4.5215    1.6197 C   0  0  0  0  0  0  0  0  0  0  0  0
    2.7442    5.9347    0.6810 S   0  0  0  0  0  0  0  0  0  0  0  0
    2.3264    5.0248   -0.7047 C   0  0  0  0  0  0  0  0  0  0  0  0
    1.9075    5.3516   -2.0077 C   0  0  0  0  0  0  0  0  0  0  0  0
    1.6308    6.7368   -2.4623 C   0  0  0  0  0  0  0  0  0  0  0  0
    0.4193    7.0378   -3.1091 C   0  0  0  0  0  0  0  0  0  0  0  0
    0.1266    8.3479   -3.4898 C   0  0  0  0  0  0  0  0  0  0  0  0
    1.0293    9.3745   -3.2141 C   0  0  0  0  0  0  0  0  0  0  0  0
    2.2419    9.0957   -2.5642 C   0  0  0  0  0  0  0  0  0  0  0  0
    3.2156   10.2074   -2.2784 C   0  0  0  0  0  0  0  0  0  0  0  0
    4.0289   10.5438   -3.5223 C   0  0  0  0  0  0  0  0  0  0  0  0
    2.5403    7.7718   -2.1996 C   0  0  0  0  0  0  0  0  0  0  0  0
    1.5856    4.1733   -2.7190 C   0  0  0  0  0  0  0  0  0  0  0  0
    1.7938    2.8072   -1.7314 S   0  0  0  0  0  0  0  0  0  0  0  0
    2.2995    3.6831   -0.4152 C   0  0  0  0  0  0  0  0  0  0  0  0
    2.5606    3.4063    0.9139 C   0  0  0  0  0  0  0  0  0  0  0  0
    2.6727    2.2589    1.6349 N   0  0  0  0  0  0  0  0  0  0  0  0
    2.9977    2.7170    2.8908 C   0  0  0  0  0  0  0  0  0  0  0  0
    3.2000    2.0234    4.1177 C   0  0  0  0  0  0  0  0  0  0  0  0
    2.6372    0.8522    4.5638 N   0  0  0  0  0  0  0  0  0  0  0  0
    2.9295    0.8266    5.8871 C   0  0  0  0  0  0  0  0  0  0  0  0
    2.3211    0.1904    6.9623 C   0  0  0  0  0  0  0  0  0  0  0  0
    1.0935   -0.9212    7.1479 S   0  0  0  0  0  0  0  0  0  0  0  0
    1.6142    0.0104    3.9278 C   0  0  0  0  0  0  0  0  0  0  0  0
    0.2953    0.7572    3.7546 C   0  0  0  0  0  0  0  0  0  0  0  0
    3.0310    0.9679    1.0277 C   0  0  0  0  0  0  0  0  0  0  0  0
    1.8221    0.2870    0.3611 C   0  0  0  0  0  0  0  0  0  0  0  0
    1.1243    4.0529   -4.1047 C   0  0  0  0  0  0  0  0  0  0  0  0
    0.1875    2.7401   -4.6413 S   0  0  0  0  0  0  0  0  0  0  0  0
    0.3476    3.1574   -6.2445 C   0  0  0  0  0  0  0  0  0  0  0  0
    0.3058    2.3840   -7.4456 C   0  0  0  0  0  0  0  0  0  0  0  0
    1.0752    3.0339   -8.3938 C   0  0  0  0  0  0  0  0  0  0  0  0
    1.7009    4.3113   -7.8260 C   0  0  0  0  0  0  0  0  0  0  0  0
    3.2279    4.1851   -7.9029 C   0  0  0  0  0  0  0  0  0  0  0  0
    3.9493    3.4492   -6.9383 C   0  0  0  0  0  0  0  0  0  0  0  0
    5.3373    3.3344   -7.0183 C   0  0  0  0  0  0  0  0  0  0  0  0
    6.0374    3.9038   -8.0880 C   0  0  0  0  0  0  0  0  0  0  0  0
    7.5360    3.8050   -8.1554 C   0  0  0  0  0  0  0  0  0  0  0  0
    8.1865    4.9417   -7.3765 C   0  0  0  0  0  0  0  0  0  0  0  0
    5.3251    4.5904   -9.0849 C   0  0  0  0  0  0  0  0  0  0  0  0
    3.9359    4.7120   -9.0048 C   0  0  0  0  0  0  0  0  0  0  0  0
    1.1612    5.6022   -8.4492 C   0  0  0  0  0  0  0  0  0  0  0  0
    0.0750    5.6122   -9.3497 C   0  0  0  0  0  0  0  0  0  0  0  0
   -0.3983    6.8106   -9.8887 C   0  0  0  0  0  0  0  0  0  0  0  0
    0.1831    8.0312   -9.5232 C   0  0  0  0  0  0  0  0  0  0  0  0
   -0.3013    9.3126  -10.1470 C   0  0  0  0  0  0  0  0  0  0  0  0
    0.3390    9.5230  -11.5147 C   0  0  0  0  0  0  0  0  0  0  0  0
    1.2481    8.0358   -8.6107 C   0  0  0  0  0  0  0  0  0  0  0  0
    1.7191    6.8412   -8.0637 C   0  0  0  0  0  0  0  0  0  0  0  0
    1.1714    4.2279   -6.4041 C   0  0  0  0  0  0  0  0  0  0  0  0
    1.6192    4.7757   -5.1964 C   0  0  0  0  0  0  0  0  0  0  0  0
    1.2065    2.4770   -9.6726 C   0  0  0  0  0  0  0  0  0  0  0  0
    0.5353    1.2755   -9.9691 C   0  0  0  0  0  0  0  0  0  0  0  0
   -0.2139    0.6087   -8.9713 C   0  0  0  0  0  0  0  0  0  0  0  0
   -0.3195    1.1741   -7.6870 C   0  0  0  0  0  0  0  0  0  0  0  0
   -1.0075   -0.5910   -9.2907 C   0  0  0  0  0  0  0  0  0  0  0  0
   -0.9917   -1.6984   -8.5284 C   0  0  0  0  0  0  0  0  0  0  0  0
    0.1382   -2.1322   -7.7004 C   0  0  0  0  0  0  0  0  0  0  0  0
    1.1977   -1.4858   -7.4799 O   0  0  0  0  0  0  0  0  0  0  0  0
   -0.1249   -3.4727   -7.2323 C   0  0  0  0  0  0  0  0  0  0  0  0
    0.6761   -4.2320   -6.3431 C   0  0  0  0  0  0  0  0  0  0  0  0
    0.0875   -5.4078   -5.9231 C   0  0  0  0  0  0  0  0  0  0  0  0
   -1.2068   -5.8289   -6.3594 C   0  0  0  0  0  0  0  0  0  0  0  0
   -1.9766   -5.1201   -7.2640 C   0  0  0  0  0  0  0  0  0  0  0  0
   -1.3939   -3.8988   -7.7144 C   0  0  0  0  0  0  0  0  0  0  0  0
   -1.9965   -2.8042   -8.5251 C   0  0  0  0  0  0  0  0  0  0  0  0
   -3.2843   -2.7107   -8.9451 C   0  0  0  0  0  0  0  0  0  0  0  0
   -3.9071   -1.4234   -9.1690 C   0  0  0  0  0  0  0  0  0  0  0  0
   -4.3908   -0.3906   -9.2636 N   0  0  0  0  0  0  0  0  0  0  0  0
   -4.1541   -3.8542   -9.0547 C   0  0  0  0  0  0  0  0  0  0  0  0
   -4.8487   -4.7668   -9.1863 N   0  0  0  0  0  0  0  0  0  0  0  0
   -1.1629   -7.0008   -5.4297 C   0  0  0  0  0  0  0  0  0  0  0  0
   -1.9996   -6.9110   -4.1165 C   0  0  0  0  0  0  0  0  0  0  0  0
   -2.0818   -5.4773   -3.6397 C   0  0  0  0  0  0  0  0  0  0  0  0
   -0.8545   -5.1345   -3.2425 C   0  0  0  0  0  0  0  0  0  0  0  0
    0.0226   -6.3424   -3.4733 C   0  0  0  0  0  0  0  0  0  0  0  0
   -0.9757   -7.4354   -3.1263 C   0  0  0  0  0  0  0  0  0  0  0  0
    0.1822   -6.5959   -5.0066 C   0  0  0  0  0  0  0  0  0  0  0  0
   -5.6831   -8.0713    8.7756 H   0  0  0  0  0  0  0  0  0  0  0  0
   -8.1481   -3.8888    4.7261 H   0  0  0  0  0  0  0  0  0  0  0  0
   -8.2371   -8.8780    3.6624 H   0  0  0  0  0  0  0  0  0  0  0  0
  -10.4990   -7.1161    1.7438 H   0  0  0  0  0  0  0  0  0  0  0  0
   -8.2030   -7.6793    0.2714 H   0  0  0  0  0  0  0  0  0  0  0  0
   -9.8252   -6.4807   -1.4547 H   0  0  0  0  0  0  0  0  0  0  0  0
   -9.9116   -3.9373   -0.8701 H   0  0  0  0  0  0  0  0  0  0  0  0
   -8.3275   -3.5105    1.2219 H   0  0  0  0  0  0  0  0  0  0  0  0
   -6.9740   -5.3498   -0.1441 H   0  0  0  0  0  0  0  0  0  0  0  0
   -6.9132   -5.7555    1.6235 H   0  0  0  0  0  0  0  0  0  0  0  0
  -10.5546   -4.7836    2.2925 H   0  0  0  0  0  0  0  0  0  0  0  0
   -3.0996   -7.1007    8.6119 H   0  0  0  0  0  0  0  0  0  0  0  0
   -5.1636   -2.9077   10.3632 H   0  0  0  0  0  0  0  0  0  0  0  0
   -6.6195   -4.7676    9.5725 H   0  0  0  0  0  0  0  0  0  0  0  0
   -3.3194   -1.1615   10.4409 H   0  0  0  0  0  0  0  0  0  0  0  0
   -1.3383    0.2062    9.8900 H   0  0  0  0  0  0  0  0  0  0  0  0
    0.9574   -3.3830    9.1600 H   0  0  0  0  0  0  0  0  0  0  0  0
    4.3536    0.0862   10.4161 H   0  0  0  0  0  0  0  0  0  0  0  0
    4.9370    0.4937   12.7764 H   0  0  0  0  0  0  0  0  0  0  0  0
    3.1978    1.1484   14.3987 H   0  0  0  0  0  0  0  0  0  0  0  0
   -0.4783    1.3972   13.5178 H   0  0  0  0  0  0  0  0  0  0  0  0
    0.6324    0.9763   14.8586 H   0  0  0  0  0  0  0  0  0  0  0  0
    1.6637    3.2552   14.7498 H   0  0  0  0  0  0  0  0  0  0  0  0
    0.5989    3.6748   13.3420 H   0  0  0  0  0  0  0  0  0  0  0  0
   -0.1229    3.3548   14.9703 H   0  0  0  0  0  0  0  0  0  0  0  0
    0.2496    1.0942   11.2592 H   0  0  0  0  0  0  0  0  0  0  0  0
   -0.3092    6.2626   -3.3085 H   0  0  0  0  0  0  0  0  0  0  0  0
   -0.8087    8.5742   -3.9841 H   0  0  0  0  0  0  0  0  0  0  0  0
    0.7904   10.3883   -3.5183 H   0  0  0  0  0  0  0  0  0  0  0  0
    2.6646   11.1145   -1.9417 H   0  0  0  0  0  0  0  0  0  0  0  0
    3.9018    9.9165   -1.4545 H   0  0  0  0  0  0  0  0  0  0  0  0
    4.5926    9.6500   -3.8722 H   0  0  0  0  0  0  0  0  0  0  0  0
    3.3613   10.8996   -4.3381 H   0  0  0  0  0  0  0  0  0  0  0  0
    4.7501   11.3512   -3.2852 H   0  0  0  0  0  0  0  0  0  0  0  0
    3.4823    7.5512   -1.7119 H   0  0  0  0  0  0  0  0  0  0  0  0
    1.9689   -0.3943    2.9827 H   0  0  0  0  0  0  0  0  0  0  0  0
    1.4347   -0.9034    4.5250 H   0  0  0  0  0  0  0  0  0  0  0  0
   -0.4751    0.0626    3.3520 H   0  0  0  0  0  0  0  0  0  0  0  0
   -0.0551    1.1425    4.7355 H   0  0  0  0  0  0  0  0  0  0  0  0
    0.4108    1.5985    3.0387 H   0  0  0  0  0  0  0  0  0  0  0  0
    3.8031    1.1539    0.2470 H   0  0  0  0  0  0  0  0  0  0  0  0
    3.5364    0.3009    1.7567 H   0  0  0  0  0  0  0  0  0  0  0  0
    0.9505    0.9623    0.2884 H   0  0  0  0  0  0  0  0  0  0  0  0
    2.1007   -0.0339   -0.6621 H   0  0  0  0  0  0  0  0  0  0  0  0
    1.5133   -0.6370    0.8964 H   0  0  0  0  0  0  0  0  0  0  0  0
    3.4462    2.9603   -6.1139 H   0  0  0  0  0  0  0  0  0  0  0  0
    5.8711    2.7922   -6.2449 H   0  0  0  0  0  0  0  0  0  0  0  0
    7.8700    2.8320   -7.7340 H   0  0  0  0  0  0  0  0  0  0  0  0
    7.8797    3.8364   -9.2107 H   0  0  0  0  0  0  0  0  0  0  0  0
    9.2905    4.8346   -7.4178 H   0  0  0  0  0  0  0  0  0  0  0  0
    7.9054    5.9218   -7.8222 H   0  0  0  0  0  0  0  0  0  0  0  0
    7.8684    4.9153   -6.3111 H   0  0  0  0  0  0  0  0  0  0  0  0
    5.8485    5.0233   -9.9288 H   0  0  0  0  0  0  0  0  0  0  0  0
    3.4176    5.2260   -9.8047 H   0  0  0  0  0  0  0  0  0  0  0  0
   -0.4204    4.6982   -9.6492 H   0  0  0  0  0  0  0  0  0  0  0  0
   -1.2220    6.7842  -10.5943 H   0  0  0  0  0  0  0  0  0  0  0  0
   -1.4044    9.2805  -10.2653 H   0  0  0  0  0  0  0  0  0  0  0  0
   -0.0594   10.1804   -9.4928 H   0  0  0  0  0  0  0  0  0  0  0  0
    0.0835    8.6829  -12.1973 H   0  0  0  0  0  0  0  0  0  0  0  0
   -0.0324   10.4696  -11.9624 H   0  0  0  0  0  0  0  0  0  0  0  0
    1.4439    9.5824  -11.4211 H   0  0  0  0  0  0  0  0  0  0  0  0
    1.7068    8.9720   -8.3160 H   0  0  0  0  0  0  0  0  0  0  0  0
    2.5361    6.8788   -7.3505 H   0  0  0  0  0  0  0  0  0  0  0  0
    2.3721    5.5494   -5.1220 H   0  0  0  0  0  0  0  0  0  0  0  0
    1.8012    2.9781  -10.4293 H   0  0  0  0  0  0  0  0  0  0  0  0
    0.6108    0.8522  -10.9685 H   0  0  0  0  0  0  0  0  0  0  0  0
   -0.9117    0.7025   -6.9094 H   0  0  0  0  0  0  0  0  0  0  0  0
   -1.7020   -0.5040  -10.1144 H   0  0  0  0  0  0  0  0  0  0  0  0
    1.6319   -3.8898   -5.9675 H   0  0  0  0  0  0  0  0  0  0  0  0
   -2.9591   -5.4721   -7.5215 H   0  0  0  0  0  0  0  0  0  0  0  0
   -1.1928   -7.9877   -5.9429 H   0  0  0  0  0  0  0  0  0  0  0  0
   -2.9715   -7.4513   -4.1387 H   0  0  0  0  0  0  0  0  0  0  0  0
   -2.9708   -4.8601   -3.5585 H   0  0  0  0  0  0  0  0  0  0  0  0
   -0.5754   -4.1958   -2.7727 H   0  0  0  0  0  0  0  0  0  0  0  0
    0.9685   -6.3530   -2.8871 H   0  0  0  0  0  0  0  0  0  0  0  0
   -1.3268   -7.3873   -2.0666 H   0  0  0  0  0  0  0  0  0  0  0  0
   -0.6111   -8.4659   -3.3588 H   0  0  0  0  0  0  0  0  0  0  0  0
    0.9753   -7.3252   -5.2821 H   0  0  0  0  0  0  0  0  0  0  0  0
  1  2  2  3
  2  3  1  0
  3  4  2  0
  3  5  1  0
  5  6  2  0
  6  7  1  0
  7  8  2  0
  8  9  1  0
  9 10  2  0
 10 11  1  0
 11 12  2  3
 12 13  1  0
 13 14  3  0
 12 15  1  0
 15 16  3  0
  8 17  1  0
 17 18  1  0
 18 19  1  0
 19 20  2  0
 20 21  1  0
 21 22  1  0
 21 23  1  0
  1 24  1  0
 24 25  2  0
 25 26  1  0
 26 27  1  0
 27 28  2  0
 27 29  1  0
 29 30  2  0
 30 31  1  0
 31 32  1  0
 32 33  2  0
 30 34  1  0
 34 35  2  0
 35 36  1  0
 36 37  2  0
 36 38  1  0
 38 39  2  0
 39 40  1  0
 40 41  2  0
 41 42  1  0
 42 43  2  0
 43 44  1  0
 44 45  1  0
 45 46  1  0
 44 47  2  0
 39 48  1  0
 48 49  1  0
 49 50  1  0
 50 51  1  0
 51 52  1  0
 52 53  1  0
 53 54  2  0
 54 55  1  0
 55 56  1  0
 53 57  1  0
 57 58  1  0
 58 59  1  0
 59 60  1  0
 60 61  1  0
 61 62  1  0
 62 63  2  0
 63 64  1  0
 64 65  2  0
 65 66  1  0
 66 67  1  0
 67 68  1  0
 66 69  2  0
 61 70  2  0
 70 71  1  0
 71 72  1  0
 72 73  1  0
 73 74  1  0
 74 75  1  0
 75 76  1  0
 76 77  1  0
 77 78  1  0
 78 79  1  0
 79 80  1  0
 77 81  1  0
 81 82  1  0
 74 83  1  0
 83 84  1  0
 70 85  1  0
 85 86  1  0
 86 87  1  0
 87 88  1  0
 88 89  2  0
 89 90  1  0
 90 91  1  0
 91 92  2  0
 92 93  1  0
 93 94  2  0
 94 95  1  0
 95 96  1  0
 94 97  1  0
 97 98  2  0
 90 99  1  0
 99100  2  0
100101  1  0
101102  2  0
102103  1  0
103104  1  0
102105  1  0
105106  2  0
 90107  1  0
107108  1  0
 89109  1  0
109110  2  0
110111  1  0
111112  2  0
111113  1  0
113114  2  3
114115  1  0
115116  2  0
115117  1  0
117118  2  0
118119  1  0
119120  2  0
120121  1  0
121122  2  0
122123  1  0
123124  2  3
124125  1  0
125126  3  0
124127  1  0
127128  3  0
120129  1  0
129130  1  0
130131  1  0
131132  2  0
132133  1  0
133134  1  0
133135  1  0
 11  2  1  0
 23 17  1  0
 33 24  1  0
 80 38  1  0
108 85  2  0
123114  1  0
135129  1  0
 10  5  1  0
 22 18  1  0
 31 26  2  0
 47 40  1  0
 79 48  2  0
107 87  2  0
122117  1  0
134130  1  0
 23  7  1  0
 37 29  1  0
 78 50  2  0
112 88  1  0
135119  1  0
 76 51  2  0
 98 91  1  0
106 99  1  0
 56 52  2  0
 75 57  2  0
 73 58  2  0
 72 60  2  0
 69 62  1  0
  1136  1  0
  6137  1  0
  9138  1  0
 17139  1  0
 18140  1  0
 19141  1  0
 20142  1  0
 21143  1  0
 22144  1  0
 22145  1  0
 23146  1  0
 25147  1  0
 32148  1  0
 33149  1  0
 34150  1  0
 35151  1  0
 37152  1  0
 41153  1  0
 42154  1  0
 43155  1  0
 45156  1  0
 45157  1  0
 46158  1  0
 46159  1  0
 46160  1  0
 47161  1  0
 63162  1  0
 64163  1  0
 65164  1  0
 67165  1  0
 67166  1  0
 68167  1  0
 68168  1  0
 68169  1  0
 69170  1  0
 81171  1  0
 81172  1  0
 82173  1  0
 82174  1  0
 82175  1  0
 83176  1  0
 83177  1  0
 84178  1  0
 84179  1  0
 84180  1  0
 92181  1  0
 93182  1  0
 95183  1  0
 95184  1  0
 96185  1  0
 96186  1  0
 96187  1  0
 97188  1  0
 98189  1  0
100190  1  0
101191  1  0
103192  1  0
103193  1  0
104194  1  0
104195  1  0
104196  1  0
105197  1  0
106198  1  0
108199  1  0
109200  1  0
110201  1  0
112202  1  0
113203  1  0
118204  1  0
121205  1  0
129206  1  0
130207  1  0
131208  1  0
132209  1  0
133210  1  0
134211  1  0
134212  1  0
135213  1  0
M  END

