
     RDKit          3D

165187  0  0  0  0  0  0  0  0999 V2000
    9.5173   -1.0481    3.1533 C   0  0  0  0  0  0  0  0  0  0  0  0
    8.8216    0.0502    2.7888 C   0  0  0  0  0  0  0  0  0  0  0  0
    7.5268    0.0446    2.0829 C   0  0  0  0  0  0  0  0  0  0  0  0
    6.9617   -0.9498    1.5575 O   0  0  0  0  0  0  0  0  0  0  0  0
    6.9345    1.3583    2.1785 C   0  0  0  0  0  0  0  0  0  0  0  0
    5.6560    1.7457    1.7122 C   0  0  0  0  0  0  0  0  0  0  0  0
    5.3144    3.0466    2.0287 C   0  0  0  0  0  0  0  0  0  0  0  0
    6.1681    3.9184    2.7775 C   0  0  0  0  0  0  0  0  0  0  0  0
    7.4169    3.5407    3.2457 C   0  0  0  0  0  0  0  0  0  0  0  0
    7.8045    2.2121    2.9019 C   0  0  0  0  0  0  0  0  0  0  0  0
    9.0578    1.4638    3.2315 C   0  0  0  0  0  0  0  0  0  0  0  0
   10.2396    2.0035    3.6304 C   0  0  0  0  0  0  0  0  0  0  0  0
   11.4538    1.2324    3.6999 C   0  0  0  0  0  0  0  0  0  0  0  0
   12.4355    0.6225    3.7592 N   0  0  0  0  0  0  0  0  0  0  0  0
   10.4065    3.4072    3.8926 C   0  0  0  0  0  0  0  0  0  0  0  0
   10.5578    4.5351    4.1060 N   0  0  0  0  0  0  0  0  0  0  0  0
    5.1324    5.0036    2.7229 C   0  0  0  0  0  0  0  0  0  0  0  0
    4.3082    5.2926    4.0156 C   0  0  0  0  0  0  0  0  0  0  0  0
    4.1599    4.0282    4.8287 C   0  0  0  0  0  0  0  0  0  0  0  0
    3.3672    3.2176    4.1306 C   0  0  0  0  0  0  0  0  0  0  0  0
    3.0019    3.9557    2.8641 C   0  0  0  0  0  0  0  0  0  0  0  0
    2.9118    5.3618    3.4249 C   0  0  0  0  0  0  0  0  0  0  0  0
    4.2584    4.1109    1.9549 C   0  0  0  0  0  0  0  0  0  0  0  0
    9.1723   -2.4038    2.6916 C   0  0  0  0  0  0  0  0  0  0  0  0
    9.1948   -2.7116    1.3149 C   0  0  0  0  0  0  0  0  0  0  0  0
    8.6066   -3.9020    0.8909 C   0  0  0  0  0  0  0  0  0  0  0  0
    8.1061   -4.2157   -0.4399 C   0  0  0  0  0  0  0  0  0  0  0  0
    8.3723   -3.5988   -1.5033 O   0  0  0  0  0  0  0  0  0  0  0  0
    7.1157   -5.2729   -0.2782 C   0  0  0  0  0  0  0  0  0  0  0  0
    7.0968   -5.6478    1.0595 C   0  0  0  0  0  0  0  0  0  0  0  0
    8.0248   -4.7814    1.7940 C   0  0  0  0  0  0  0  0  0  0  0  0
    8.0713   -4.5351    3.1675 C   0  0  0  0  0  0  0  0  0  0  0  0
    8.6708   -3.3461    3.6168 C   0  0  0  0  0  0  0  0  0  0  0  0
    6.0413   -6.3965    1.5808 C   0  0  0  0  0  0  0  0  0  0  0  0
    4.9471   -6.6790    0.7508 C   0  0  0  0  0  0  0  0  0  0  0  0
    4.9120   -6.1992   -0.5762 C   0  0  0  0  0  0  0  0  0  0  0  0
    6.0344   -5.5412   -1.1166 C   0  0  0  0  0  0  0  0  0  0  0  0
    3.6063   -5.9563   -1.1930 C   0  0  0  0  0  0  0  0  0  0  0  0
    3.0675   -6.5537   -2.3505 C   0  0  0  0  0  0  0  0  0  0  0  0
    3.6544   -7.7102   -3.0542 C   0  0  0  0  0  0  0  0  0  0  0  0
    3.8248   -7.6816   -4.4463 C   0  0  0  0  0  0  0  0  0  0  0  0
    4.3584   -8.7861   -5.1140 C   0  0  0  0  0  0  0  0  0  0  0  0
    4.7112   -9.9332   -4.4003 C   0  0  0  0  0  0  0  0  0  0  0  0
    4.5471   -9.9788   -3.0078 C   0  0  0  0  0  0  0  0  0  0  0  0
    4.8492  -11.2475   -2.2511 C   0  0  0  0  0  0  0  0  0  0  0  0
    3.6178  -12.1491   -2.2039 C   0  0  0  0  0  0  0  0  0  0  0  0
    4.0210   -8.8625   -2.3378 C   0  0  0  0  0  0  0  0  0  0  0  0
    1.8986   -5.8902   -2.7428 C   0  0  0  0  0  0  0  0  0  0  0  0
    0.7380   -6.1122   -3.9823 S   0  0  0  0  0  0  0  0  0  0  0  0
   -0.1325   -4.7418   -3.4617 C   0  0  0  0  0  0  0  0  0  0  0  0
   -1.3109   -4.0769   -3.6933 C   0  0  0  0  0  0  0  0  0  0  0  0
   -2.3970   -4.3418   -4.5383 C   0  0  0  0  0  0  0  0  0  0  0  0
   -3.5567   -3.5068   -4.4487 C   0  0  0  0  0  0  0  0  0  0  0  0
   -4.5883   -3.7975   -5.2743 N   0  0  0  0  0  0  0  0  0  0  0  0
   -3.9577   -5.1222   -6.0488 S   0  0  0  0  0  0  0  0  0  0  0  0
   -2.4412   -5.3651   -5.4242 N   0  0  0  0  0  0  0  0  0  0  0  0
   -3.5435   -2.4317   -3.5480 C   0  0  0  0  0  0  0  0  0  0  0  0
   -4.3762   -1.3550   -3.4039 C   0  0  0  0  0  0  0  0  0  0  0  0
   -5.7824   -0.7100   -4.1135 S   0  0  0  0  0  0  0  0  0  0  0  0
   -5.5213    0.7943   -3.3380 C   0  0  0  0  0  0  0  0  0  0  0  0
   -6.2154    2.0132   -3.2912 C   0  0  0  0  0  0  0  0  0  0  0  0
   -7.5027    2.2816   -3.9738 C   0  0  0  0  0  0  0  0  0  0  0  0
   -8.5438    2.9262   -3.2902 C   0  0  0  0  0  0  0  0  0  0  0  0
   -9.7424    3.2151   -3.9379 C   0  0  0  0  0  0  0  0  0  0  0  0
   -9.9246    2.8451   -5.2709 C   0  0  0  0  0  0  0  0  0  0  0  0
   -8.8978    2.1891   -5.9704 C   0  0  0  0  0  0  0  0  0  0  0  0
   -9.1205    1.7334   -7.3891 C   0  0  0  0  0  0  0  0  0  0  0  0
   -9.5713    0.2767   -7.4259 C   0  0  0  0  0  0  0  0  0  0  0  0
   -7.6911    1.9051   -5.3149 C   0  0  0  0  0  0  0  0  0  0  0  0
   -5.5204    2.9349   -2.4805 C   0  0  0  0  0  0  0  0  0  0  0  0
   -4.1003    2.2431   -1.8597 S   0  0  0  0  0  0  0  0  0  0  0  0
   -4.3671    0.7691   -2.5965 C   0  0  0  0  0  0  0  0  0  0  0  0
   -3.7260   -0.4553   -2.6255 C   0  0  0  0  0  0  0  0  0  0  0  0
   -2.5001   -0.8751   -2.2266 N   0  0  0  0  0  0  0  0  0  0  0  0
   -2.4262   -2.1419   -2.7486 C   0  0  0  0  0  0  0  0  0  0  0  0
   -1.3412   -3.0438   -2.7450 C   0  0  0  0  0  0  0  0  0  0  0  0
   -0.2988   -3.1439   -1.8677 N   0  0  0  0  0  0  0  0  0  0  0  0
    0.4357   -4.1587   -2.3801 C   0  0  0  0  0  0  0  0  0  0  0  0
    1.5657   -4.8218   -1.9530 C   0  0  0  0  0  0  0  0  0  0  0  0
    2.6623   -4.6195   -0.7172 S   0  0  0  0  0  0  0  0  0  0  0  0
   -0.2928   -2.7506   -0.4542 C   0  0  0  0  0  0  0  0  0  0  0  0
   -0.8063   -3.8842    0.4306 C   0  0  0  0  0  0  0  0  0  0  0  0
   -1.3736    0.0351   -1.9502 C   0  0  0  0  0  0  0  0  0  0  0  0
   -1.4826    0.6761   -0.5604 C   0  0  0  0  0  0  0  0  0  0  0  0
   -5.9176    4.2705   -2.1276 C   0  0  0  0  0  0  0  0  0  0  0  0
   -6.1607    5.3761   -1.7189 C   0  0  0  0  0  0  0  0  0  0  0  0
   -6.3103    6.6571   -1.0803 C   0  0  0  0  0  0  0  0  0  0  0  0
   -6.2655    6.7295    0.2572 C   0  0  0  0  0  0  0  0  0  0  0  0
   -5.4628    7.7382    0.9498 C   0  0  0  0  0  0  0  0  0  0  0  0
   -5.1931    8.8924    0.5236 O   0  0  0  0  0  0  0  0  0  0  0  0
   -4.9110    7.1345    2.1508 C   0  0  0  0  0  0  0  0  0  0  0  0
   -3.8995    7.6647    2.9892 C   0  0  0  0  0  0  0  0  0  0  0  0
   -3.4615    6.7841    3.9636 C   0  0  0  0  0  0  0  0  0  0  0  0
   -3.9851    5.4580    4.1144 C   0  0  0  0  0  0  0  0  0  0  0  0
   -4.9668    4.9307    3.2937 C   0  0  0  0  0  0  0  0  0  0  0  0
   -5.4327    5.8225    2.2914 C   0  0  0  0  0  0  0  0  0  0  0  0
   -6.3983    5.5790    1.1931 C   0  0  0  0  0  0  0  0  0  0  0  0
   -7.4108    4.6791    1.1801 C   0  0  0  0  0  0  0  0  0  0  0  0
   -8.5137    4.8148    0.2596 C   0  0  0  0  0  0  0  0  0  0  0  0
   -9.4057    4.9309   -0.4678 N   0  0  0  0  0  0  0  0  0  0  0  0
   -7.5459    3.6341    2.1609 C   0  0  0  0  0  0  0  0  0  0  0  0
   -7.6800    2.7882    2.9459 N   0  0  0  0  0  0  0  0  0  0  0  0
   -3.0688    5.2056    5.2739 C   0  0  0  0  0  0  0  0  0  0  0  0
   -3.7154    5.2425    6.6909 C   0  0  0  0  0  0  0  0  0  0  0  0
   -2.5649    5.3500    7.6629 C   0  0  0  0  0  0  0  0  0  0  0  0
   -2.0559    6.5802    7.5149 C   0  0  0  0  0  0  0  0  0  0  0  0
   -2.8844    7.2611    6.4513 C   0  0  0  0  0  0  0  0  0  0  0  0
   -4.2416    6.6663    6.7939 C   0  0  0  0  0  0  0  0  0  0  0  0
   -2.5217    6.5582    5.1115 C   0  0  0  0  0  0  0  0  0  0  0  0
   10.2853   -0.9817    3.9058 H   0  0  0  0  0  0  0  0  0  0  0  0
    4.9920    1.0820    1.1761 H   0  0  0  0  0  0  0  0  0  0  0  0
    7.9955    4.2144    3.8520 H   0  0  0  0  0  0  0  0  0  0  0  0
    5.4557    5.9064    2.1583 H   0  0  0  0  0  0  0  0  0  0  0  0
    4.6278    6.1877    4.5896 H   0  0  0  0  0  0  0  0  0  0  0  0
    4.5459    3.8381    5.8231 H   0  0  0  0  0  0  0  0  0  0  0  0
    2.9894    2.2594    4.4633 H   0  0  0  0  0  0  0  0  0  0  0  0
    2.0888    3.5859    2.3511 H   0  0  0  0  0  0  0  0  0  0  0  0
    2.1108    5.4827    4.1934 H   0  0  0  0  0  0  0  0  0  0  0  0
    2.7967    6.1489    2.6416 H   0  0  0  0  0  0  0  0  0  0  0  0
    4.0512    4.4651    0.9203 H   0  0  0  0  0  0  0  0  0  0  0  0
    9.5302   -1.9834    0.5891 H   0  0  0  0  0  0  0  0  0  0  0  0
    7.5669   -5.1859    3.8680 H   0  0  0  0  0  0  0  0  0  0  0  0
    8.6453   -3.1089    4.6735 H   0  0  0  0  0  0  0  0  0  0  0  0
    5.9981   -6.6416    2.6341 H   0  0  0  0  0  0  0  0  0  0  0  0
    4.0706   -7.1437    1.1814 H   0  0  0  0  0  0  0  0  0  0  0  0
    5.9780   -5.0667   -2.0903 H   0  0  0  0  0  0  0  0  0  0  0  0
    3.5568   -6.7996   -5.0133 H   0  0  0  0  0  0  0  0  0  0  0  0
    4.4885   -8.7562   -6.1889 H   0  0  0  0  0  0  0  0  0  0  0  0
    5.1131  -10.7854   -4.9338 H   0  0  0  0  0  0  0  0  0  0  0  0
    5.6869  -11.7930   -2.7356 H   0  0  0  0  0  0  0  0  0  0  0  0
    5.1669  -11.0106   -1.2126 H   0  0  0  0  0  0  0  0  0  0  0  0
    3.8608  -13.0830   -1.6528 H   0  0  0  0  0  0  0  0  0  0  0  0
    3.2925  -12.4197   -3.2326 H   0  0  0  0  0  0  0  0  0  0  0  0
    2.7835  -11.6327   -1.6827 H   0  0  0  0  0  0  0  0  0  0  0  0
    3.8727   -8.9009   -1.2663 H   0  0  0  0  0  0  0  0  0  0  0  0
   -8.4317    3.1954   -2.2485 H   0  0  0  0  0  0  0  0  0  0  0  0
  -10.5362    3.7187   -3.4026 H   0  0  0  0  0  0  0  0  0  0  0  0
  -10.8670    3.0599   -5.7530 H   0  0  0  0  0  0  0  0  0  0  0  0
   -9.8937    2.3667   -7.8764 H   0  0  0  0  0  0  0  0  0  0  0  0
   -8.1836    1.8478   -7.9788 H   0  0  0  0  0  0  0  0  0  0  0  0
   -9.8812    0.0123   -8.4602 H   0  0  0  0  0  0  0  0  0  0  0  0
   -8.7374   -0.3925   -7.1266 H   0  0  0  0  0  0  0  0  0  0  0  0
  -10.4366    0.1214   -6.7459 H   0  0  0  0  0  0  0  0  0  0  0  0
   -6.8979    1.4052   -5.8575 H   0  0  0  0  0  0  0  0  0  0  0  0
   -0.9631   -1.9008   -0.2813 H   0  0  0  0  0  0  0  0  0  0  0  0
    0.7316   -2.4633   -0.1408 H   0  0  0  0  0  0  0  0  0  0  0  0
   -0.8265   -3.5505    1.4894 H   0  0  0  0  0  0  0  0  0  0  0  0
   -1.8340   -4.1741    0.1181 H   0  0  0  0  0  0  0  0  0  0  0  0
   -0.1452   -4.7708    0.3608 H   0  0  0  0  0  0  0  0  0  0  0  0
   -1.3602    0.8328   -2.7254 H   0  0  0  0  0  0  0  0  0  0  0  0
   -0.4030   -0.4889   -2.0492 H   0  0  0  0  0  0  0  0  0  0  0  0
   -2.4400    0.4128   -0.0641 H   0  0  0  0  0  0  0  0  0  0  0  0
   -0.6435    0.3479    0.0880 H   0  0  0  0  0  0  0  0  0  0  0  0
   -1.4209    1.7818   -0.6444 H   0  0  0  0  0  0  0  0  0  0  0  0
   -6.0734    7.5319   -1.6708 H   0  0  0  0  0  0  0  0  0  0  0  0
   -3.4803    8.6544    2.8627 H   0  0  0  0  0  0  0  0  0  0  0  0
   -5.2936    3.9084    3.4027 H   0  0  0  0  0  0  0  0  0  0  0  0
   -2.3360    4.3888    5.0967 H   0  0  0  0  0  0  0  0  0  0  0  0
   -4.4429    4.4345    6.9111 H   0  0  0  0  0  0  0  0  0  0  0  0
   -2.2559    4.6199    8.4040 H   0  0  0  0  0  0  0  0  0  0  0  0
   -1.2672    7.0184    8.1176 H   0  0  0  0  0  0  0  0  0  0  0  0
   -2.8267    8.3705    6.4435 H   0  0  0  0  0  0  0  0  0  0  0  0
   -5.0469    6.9097    6.0664 H   0  0  0  0  0  0  0  0  0  0  0  0
   -4.5944    6.9299    7.8170 H   0  0  0  0  0  0  0  0  0  0  0  0
   -1.4477    6.5918    4.8197 H   0  0  0  0  0  0  0  0  0  0  0  0
  1  2  2  3
  2  3  1  0
  3  4  2  0
  3  5  1  0
  5  6  2  0
  6  7  1  0
  7  8  2  0
  8  9  1  0
  9 10  2  0
 10 11  1  0
 11 12  2  3
 12 13  1  0
 13 14  3  0
 12 15  1  0
 15 16  3  0
  8 17  1  0
 17 18  1  0
 18 19  1  0
 19 20  2  0
 20 21  1  0
 21 22  1  0
 21 23  1  0
  1 24  1  0
 24 25  2  0
 25 26  1  0
 26 27  1  0
 27 28  2  0
 27 29  1  0
 29 30  2  0
 30 31  1  0
 31 32  1  0
 32 33  2  0
 30 34  1  0
 34 35  2  0
 35 36  1  0
 36 37  2  0
 36 38  1  0
 38 39  2  0
 39 40  1  0
 40 41  2  0
 41 42  1  0
 42 43  2  0
 43 44  1  0
 44 45  1  0
 45 46  1  0
 44 47  2  0
 39 48  1  0
 48 49  1  0
 49 50  1  0
 50 51  1  0
 51 52  1  0
 52 53  1  0
 53 54  2  0
 54 55  1  0
 55 56  1  0
 53 57  1  0
 57 58  1  0
 58 59  1  0
 59 60  1  0
 60 61  1  0
 61 62  1  0
 62 63  2  0
 63 64  1  0
 64 65  2  0
 65 66  1  0
 66 67  1  0
 67 68  1  0
 66 69  2  0
 61 70  2  0
 70 71  1  0
 71 72  1  0
 72 73  1  0
 73 74  1  0
 74 75  1  0
 75 76  1  0
 76 77  1  0
 77 78  1  0
 78 79  1  0
 79 80  1  0
 77 81  1  0
 81 82  1  0
 74 83  1  0
 83 84  1  0
 70 85  1  0
 85 86  3  0
 86 87  1  0
 87 88  2  3
 88 89  1  0
 89 90  2  0
 89 91  1  0
 91 92  2  0
 92 93  1  0
 93 94  2  0
 94 95  1  0
 95 96  2  0
 96 97  1  0
 97 98  2  3
 98 99  1  0
 99100  3  0
 98101  1  0
101102  3  0
 94103  1  0
103104  1  0
104105  1  0
105106  2  0
106107  1  0
107108  1  0
107109  1  0
 11  2  1  0
 23 17  1  0
 33 24  1  0
 80 38  1  0
 97 88  1  0
109103  1  0
 10  5  1  0
 22 18  1  0
 31 26  2  0
 47 40  1  0
 79 48  2  0
 96 91  1  0
108104  1  0
 23  7  1  0
 37 29  1  0
 78 50  2  0
109 93  1  0
 76 51  2  0
 56 52  2  0
 75 57  2  0
 73 58  2  0
 72 60  2  0
 69 62  1  0
  1110  1  0
  6111  1  0
  9112  1  0
 17113  1  0
 18114  1  0
 19115  1  0
 20116  1  0
 21117  1  0
 22118  1  0
 22119  1  0
 23120  1  0
 25121  1  0
 32122  1  0
 33123  1  0
 34124  1  0
 35125  1  0
 37126  1  0
 41127  1  0
 42128  1  0
 43129  1  0
 45130  1  0
 45131  1  0
 46132  1  0
 46133  1  0
 46134  1  0
 47135  1  0
 63136  1  0
 64137  1  0
 65138  1  0
 67139  1  0
 67140  1  0
 68141  1  0
 68142  1  0
 68143  1  0
 69144  1  0
 81145  1  0
 81146  1  0
 82147  1  0
 82148  1  0
 82149  1  0
 83150  1  0
 83151  1  0
 84152  1  0
 84153  1  0
 84154  1  0
 87155  1  0
 92156  1  0
 95157  1  0
103158  1  0
104159  1  0
105160  1  0
106161  1  0
107162  1  0
108163  1  0
108164  1  0
109165  1  0
M  END

