
     RDKit          3D

198221  0  0  0  0  0  0  0  0999 V2000
    4.7491   -6.0052    1.2210 C   0  0  0  0  0  0  0  0  0  0  0  0
    4.8188   -5.0002    2.1161 C   0  0  0  0  0  0  0  0  0  0  0  0
    5.9318   -4.7880    3.0388 C   0  0  0  0  0  0  0  0  0  0  0  0
    6.8650   -5.5973    3.2808 O   0  0  0  0  0  0  0  0  0  0  0  0
    5.7839   -3.4665    3.6144 C   0  0  0  0  0  0  0  0  0  0  0  0
    6.5926   -2.8470    4.5981 C   0  0  0  0  0  0  0  0  0  0  0  0
    6.1393   -1.5980    4.9914 C   0  0  0  0  0  0  0  0  0  0  0  0
    4.9649   -0.9849    4.4453 C   0  0  0  0  0  0  0  0  0  0  0  0
    4.1662   -1.5869    3.4913 C   0  0  0  0  0  0  0  0  0  0  0  0
    4.6136   -2.8716    3.0836 C   0  0  0  0  0  0  0  0  0  0  0  0
    3.9070   -3.8180    2.1908 C   0  0  0  0  0  0  0  0  0  0  0  0
    2.5811   -3.9763    2.3349 C   0  0  0  0  0  0  0  0  0  0  0  0
    2.1104   -4.7258    3.4706 C   0  0  0  0  0  0  0  0  0  0  0  0
    1.7321   -5.2995    4.4027 N   0  0  0  0  0  0  0  0  0  0  0  0
    1.6882   -2.9443    1.8845 C   0  0  0  0  0  0  0  0  0  0  0  0
    0.9507   -2.1223    1.5337 N   0  0  0  0  0  0  0  0  0  0  0  0
    5.1496    0.2063    5.3357 C   0  0  0  0  0  0  0  0  0  0  0  0
    4.1899    0.3606    6.5540 C   0  0  0  0  0  0  0  0  0  0  0  0
    3.7437   -0.9992    7.0328 C   0  0  0  0  0  0  0  0  0  0  0  0
    4.8212   -1.5908    7.5520 C   0  0  0  0  0  0  0  0  0  0  0  0
    5.9636   -0.6095    7.4137 C   0  0  0  0  0  0  0  0  0  0  0  0
    5.1969    0.6787    7.6446 C   0  0  0  0  0  0  0  0  0  0  0  0
    6.3409   -0.4278    5.9114 C   0  0  0  0  0  0  0  0  0  0  0  0
    3.7877   -5.9646    0.1111 C   0  0  0  0  0  0  0  0  0  0  0  0
    2.5399   -6.6060    0.1391 C   0  0  0  0  0  0  0  0  0  0  0  0
    2.3222   -7.8931    0.7499 N   0  0  0  0  0  0  0  0  0  0  0  0
    3.2030   -8.9932    0.4324 C   0  0  0  0  0  0  0  0  0  0  0  0
    3.7119   -9.1462   -0.8710 C   0  0  0  0  0  0  0  0  0  0  0  0
    4.5236  -10.2374   -1.1910 C   0  0  0  0  0  0  0  0  0  0  0  0
    4.8510  -11.1865   -0.2123 C   0  0  0  0  0  0  0  0  0  0  0  0
    5.6702  -12.3916   -0.5689 C   0  0  0  0  0  0  0  0  0  0  0  0
    4.3420  -11.0423    1.0869 C   0  0  0  0  0  0  0  0  0  0  0  0
    3.5284   -9.9534    1.4074 C   0  0  0  0  0  0  0  0  0  0  0  0
    1.1429   -8.1463    1.5244 C   0  0  0  0  0  0  0  0  0  0  0  0
   -0.0053   -8.6762    0.9190 C   0  0  0  0  0  0  0  0  0  0  0  0
   -1.1488   -8.9243    1.6811 C   0  0  0  0  0  0  0  0  0  0  0  0
   -1.1473   -8.6679    3.0642 C   0  0  0  0  0  0  0  0  0  0  0  0
   -2.3925   -8.8526    3.8780 C   0  0  0  0  0  0  0  0  0  0  0  0
    0.0219   -8.1885    3.6724 C   0  0  0  0  0  0  0  0  0  0  0  0
    1.1662   -7.9551    2.9095 C   0  0  0  0  0  0  0  0  0  0  0  0
    1.6287   -5.9513   -0.6964 C   0  0  0  0  0  0  0  0  0  0  0  0
   -0.0425   -5.8941   -0.7888 S   0  0  0  0  0  0  0  0  0  0  0  0
   -0.1136   -4.5228   -1.8107 C   0  0  0  0  0  0  0  0  0  0  0  0
    1.2142   -4.1448   -2.1124 C   0  0  0  0  0  0  0  0  0  0  0  0
    1.5836   -3.1643   -3.1060 N   0  0  0  0  0  0  0  0  0  0  0  0
    2.5290   -2.1231   -2.7885 C   0  0  0  0  0  0  0  0  0  0  0  0
    3.5792   -1.8236   -3.6710 C   0  0  0  0  0  0  0  0  0  0  0  0
    4.4713   -0.7857   -3.3838 C   0  0  0  0  0  0  0  0  0  0  0  0
    4.3200   -0.0250   -2.2135 C   0  0  0  0  0  0  0  0  0  0  0  0
    5.2912    1.0756   -1.9072 C   0  0  0  0  0  0  0  0  0  0  0  0
    3.2833   -0.3344   -1.3191 C   0  0  0  0  0  0  0  0  0  0  0  0
    2.3945   -1.3759   -1.6078 C   0  0  0  0  0  0  0  0  0  0  0  0
    1.0279   -3.2628   -4.4373 C   0  0  0  0  0  0  0  0  0  0  0  0
    0.8086   -4.5197   -5.0291 C   0  0  0  0  0  0  0  0  0  0  0  0
    0.2347   -4.6149   -6.3004 C   0  0  0  0  0  0  0  0  0  0  0  0
   -0.1497   -3.4563   -6.9918 C   0  0  0  0  0  0  0  0  0  0  0  0
   -0.7354   -3.5614   -8.3695 C   0  0  0  0  0  0  0  0  0  0  0  0
    0.0853   -2.1982   -6.4169 C   0  0  0  0  0  0  0  0  0  0  0  0
    0.6696   -2.1035   -5.1500 C   0  0  0  0  0  0  0  0  0  0  0  0
    2.1411   -4.9223   -1.4191 C   0  0  0  0  0  0  0  0  0  0  0  0
    3.7465   -4.6835   -1.0107 S   0  0  0  0  0  0  0  0  0  0  0  0
   -1.2743   -3.5947   -1.8846 C   0  0  0  0  0  0  0  0  0  0  0  0
   -2.5223   -3.7411   -1.2262 C   0  0  0  0  0  0  0  0  0  0  0  0
   -3.0264   -4.9871   -0.6340 C   0  0  0  0  0  0  0  0  0  0  0  0
   -3.1066   -5.1347    0.7560 C   0  0  0  0  0  0  0  0  0  0  0  0
   -3.5726   -6.3299    1.3056 C   0  0  0  0  0  0  0  0  0  0  0  0
   -3.9647   -7.3812    0.4706 C   0  0  0  0  0  0  0  0  0  0  0  0
   -3.8885   -7.2413   -0.9230 C   0  0  0  0  0  0  0  0  0  0  0  0
   -4.2570   -8.3857   -1.8279 C   0  0  0  0  0  0  0  0  0  0  0  0
   -3.0279   -9.2285   -2.1540 C   0  0  0  0  0  0  0  0  0  0  0  0
   -3.4083   -6.0427   -1.4711 C   0  0  0  0  0  0  0  0  0  0  0  0
   -3.1846   -2.5136   -1.0896 C   0  0  0  0  0  0  0  0  0  0  0  0
   -4.4232   -1.9788   -0.0353 S   0  0  0  0  0  0  0  0  0  0  0  0
   -4.0337   -0.3558   -0.3597 C   0  0  0  0  0  0  0  0  0  0  0  0
   -4.2231    0.8748    0.2012 C   0  0  0  0  0  0  0  0  0  0  0  0
   -5.1922    1.3466    1.0937 C   0  0  0  0  0  0  0  0  0  0  0  0
   -5.1723    2.7241    1.4554 C   0  0  0  0  0  0  0  0  0  0  0  0
   -6.1429    3.1561    2.2977 N   0  0  0  0  0  0  0  0  0  0  0  0
   -6.9743    1.7384    2.5121 S   0  0  0  0  0  0  0  0  0  0  0  0
   -6.1912    0.5888    1.6102 N   0  0  0  0  0  0  0  0  0  0  0  0
   -4.1302    3.5267    0.9815 C   0  0  0  0  0  0  0  0  0  0  0  0
   -3.8064    4.8208    1.2491 C   0  0  0  0  0  0  0  0  0  0  0  0
   -4.5096    6.2148    1.9120 S   0  0  0  0  0  0  0  0  0  0  0  0
   -3.1726    7.1489    1.3944 C   0  0  0  0  0  0  0  0  0  0  0  0
   -2.9595    8.5249    1.2920 C   0  0  0  0  0  0  0  0  0  0  0  0
   -3.8947    9.5314    1.8196 C   0  0  0  0  0  0  0  0  0  0  0  0
   -5.2437    9.5156    1.4348 C   0  0  0  0  0  0  0  0  0  0  0  0
   -6.1482   10.4089    2.0126 C   0  0  0  0  0  0  0  0  0  0  0  0
   -5.7173   11.3149    2.9822 C   0  0  0  0  0  0  0  0  0  0  0  0
   -4.3713   11.3390    3.3783 C   0  0  0  0  0  0  0  0  0  0  0  0
   -3.9064   12.3048    4.4379 C   0  0  0  0  0  0  0  0  0  0  0  0
   -3.2242   13.5163    3.8091 C   0  0  0  0  0  0  0  0  0  0  0  0
   -3.4572   10.4591    2.7752 C   0  0  0  0  0  0  0  0  0  0  0  0
   -1.7858    8.8015    0.5599 C   0  0  0  0  0  0  0  0  0  0  0  0
   -1.0708    7.3392    0.0490 S   0  0  0  0  0  0  0  0  0  0  0  0
   -2.2277    6.3759    0.7733 C   0  0  0  0  0  0  0  0  0  0  0  0
   -2.6075    5.0513    0.6754 C   0  0  0  0  0  0  0  0  0  0  0  0
   -2.1027    3.9771    0.0257 N   0  0  0  0  0  0  0  0  0  0  0  0
   -3.0996    3.0338    0.1570 C   0  0  0  0  0  0  0  0  0  0  0  0
   -3.2103    1.7006   -0.3315 C   0  0  0  0  0  0  0  0  0  0  0  0
   -2.4889    1.0145   -1.2790 N   0  0  0  0  0  0  0  0  0  0  0  0
   -3.0055   -0.2311   -1.2239 C   0  0  0  0  0  0  0  0  0  0  0  0
   -2.5283   -1.4500   -1.6506 C   0  0  0  0  0  0  0  0  0  0  0  0
   -1.0759   -1.9468   -2.2727 S   0  0  0  0  0  0  0  0  0  0  0  0
   -1.6681    1.4932   -2.4024 C   0  0  0  0  0  0  0  0  0  0  0  0
   -2.3699    2.6038   -3.1838 C   0  0  0  0  0  0  0  0  0  0  0  0
   -0.6807    3.8302   -0.3145 C   0  0  0  0  0  0  0  0  0  0  0  0
   -0.0144    2.7157    0.4931 C   0  0  0  0  0  0  0  0  0  0  0  0
   -1.4632   10.0628   -0.1161 C   0  0  0  0  0  0  0  0  0  0  0  0
   -0.1738   10.4066   -0.5123 C   0  0  0  0  0  0  0  0  0  0  0  0
   -0.1015   11.2069   -1.6081 N   0  0  0  0  0  0  0  0  0  0  0  0
   -1.3229   11.5360   -2.0820 C   0  0  0  0  0  0  0  0  0  0  0  0
   -2.5367   10.8094   -1.1802 S   0  0  0  0  0  0  0  0  0  0  0  0
   -1.5313   12.0964   -3.4187 C   0  0  0  0  0  0  0  0  0  0  0  0
   -1.2928   11.3811   -4.5284 C   0  0  0  0  0  0  0  0  0  0  0  0
   -0.8653    9.9720   -4.6353 C   0  0  0  0  0  0  0  0  0  0  0  0
   -0.6659    9.1710   -3.6852 O   0  0  0  0  0  0  0  0  0  0  0  0
   -0.7791    9.6329   -6.0524 C   0  0  0  0  0  0  0  0  0  0  0  0
   -0.4242    8.4227   -6.6500 C   0  0  0  0  0  0  0  0  0  0  0  0
   -0.4269    8.3428   -8.0540 C   0  0  0  0  0  0  0  0  0  0  0  0
    0.0202    6.8224   -8.8126 Cl  0  0  0  0  0  0  0  0  0  0  0  0
   -0.7839    9.4747   -8.8308 C   0  0  0  0  0  0  0  0  0  0  0  0
   -0.7837    9.4083  -10.5869 Cl  0  0  0  0  0  0  0  0  0  0  0  0
   -1.1413   10.6822   -8.2009 C   0  0  0  0  0  0  0  0  0  0  0  0
   -1.1323   10.7335   -6.8067 C   0  0  0  0  0  0  0  0  0  0  0  0
   -1.4627   11.8404   -5.9114 C   0  0  0  0  0  0  0  0  0  0  0  0
   -1.8251   12.9921   -6.2711 O   0  0  0  0  0  0  0  0  0  0  0  0
    5.4639   -6.8158    1.2567 H   0  0  0  0  0  0  0  0  0  0  0  0
    7.4649   -3.3153    5.0329 H   0  0  0  0  0  0  0  0  0  0  0  0
    3.2642   -1.1218    3.1201 H   0  0  0  0  0  0  0  0  0  0  0  0
    5.3660    1.1494    4.7856 H   0  0  0  0  0  0  0  0  0  0  0  0
    3.3752    1.1029    6.4236 H   0  0  0  0  0  0  0  0  0  0  0  0
    2.7397   -1.4086    7.0141 H   0  0  0  0  0  0  0  0  0  0  0  0
    4.8481   -2.5626    8.0350 H   0  0  0  0  0  0  0  0  0  0  0  0
    6.8175   -0.7853    8.0998 H   0  0  0  0  0  0  0  0  0  0  0  0
    4.7426    0.7493    8.6623 H   0  0  0  0  0  0  0  0  0  0  0  0
    5.7940    1.5994    7.4388 H   0  0  0  0  0  0  0  0  0  0  0  0
    7.2829    0.1363    5.7272 H   0  0  0  0  0  0  0  0  0  0  0  0
    3.4542   -8.4368   -1.6475 H   0  0  0  0  0  0  0  0  0  0  0  0
    4.8880  -10.3484   -2.2045 H   0  0  0  0  0  0  0  0  0  0  0  0
    4.9926  -13.2376   -0.8155 H   0  0  0  0  0  0  0  0  0  0  0  0
    6.3214  -12.6855    0.2808 H   0  0  0  0  0  0  0  0  0  0  0  0
    6.3183  -12.1826   -1.4473 H   0  0  0  0  0  0  0  0  0  0  0  0
    4.5729  -11.7772    1.8515 H   0  0  0  0  0  0  0  0  0  0  0  0
    3.1514   -9.8643    2.4158 H   0  0  0  0  0  0  0  0  0  0  0  0
   -0.0161   -8.8763   -0.1463 H   0  0  0  0  0  0  0  0  0  0  0  0
   -2.0321   -9.3176    1.1958 H   0  0  0  0  0  0  0  0  0  0  0  0
   -2.1548   -9.3861    4.8218 H   0  0  0  0  0  0  0  0  0  0  0  0
   -2.8202   -7.8609    4.1292 H   0  0  0  0  0  0  0  0  0  0  0  0
   -3.1546   -9.4420    3.3253 H   0  0  0  0  0  0  0  0  0  0  0  0
    0.0472   -8.0029    4.7386 H   0  0  0  0  0  0  0  0  0  0  0  0
    2.0789   -7.6312    3.3872 H   0  0  0  0  0  0  0  0  0  0  0  0
    3.7102   -2.3979   -4.5802 H   0  0  0  0  0  0  0  0  0  0  0  0
    5.2770   -0.5695   -4.0763 H   0  0  0  0  0  0  0  0  0  0  0  0
    6.2317    0.6409   -1.5109 H   0  0  0  0  0  0  0  0  0  0  0  0
    5.5173    1.6512   -2.8285 H   0  0  0  0  0  0  0  0  0  0  0  0
    4.8733    1.7784   -1.1559 H   0  0  0  0  0  0  0  0  0  0  0  0
    3.1518    0.2360   -0.4076 H   0  0  0  0  0  0  0  0  0  0  0  0
    1.5843   -1.5865   -0.9262 H   0  0  0  0  0  0  0  0  0  0  0  0
    1.0912   -5.4268   -4.5128 H   0  0  0  0  0  0  0  0  0  0  0  0
    0.0897   -5.5925   -6.7441 H   0  0  0  0  0  0  0  0  0  0  0  0
   -1.3285   -4.4953   -8.4714 H   0  0  0  0  0  0  0  0  0  0  0  0
    0.0821   -3.5691   -9.1198 H   0  0  0  0  0  0  0  0  0  0  0  0
   -1.4112   -2.7040   -8.5766 H   0  0  0  0  0  0  0  0  0  0  0  0
   -0.1871   -1.2920   -6.9459 H   0  0  0  0  0  0  0  0  0  0  0  0
    0.8190   -1.1242   -4.7126 H   0  0  0  0  0  0  0  0  0  0  0  0
   -2.7849   -4.3359    1.4127 H   0  0  0  0  0  0  0  0  0  0  0  0
   -3.6203   -6.4460    2.3785 H   0  0  0  0  0  0  0  0  0  0  0  0
   -4.3117   -8.3094    0.9101 H   0  0  0  0  0  0  0  0  0  0  0  0
   -4.6942   -7.9940   -2.7743 H   0  0  0  0  0  0  0  0  0  0  0  0
   -5.0276   -9.0242   -1.3476 H   0  0  0  0  0  0  0  0  0  0  0  0
   -3.3128  -10.0419   -2.8530 H   0  0  0  0  0  0  0  0  0  0  0  0
   -2.6166   -9.6849   -1.2271 H   0  0  0  0  0  0  0  0  0  0  0  0
   -2.2447   -8.6029   -2.6319 H   0  0  0  0  0  0  0  0  0  0  0  0
   -3.3286   -5.9346   -2.5459 H   0  0  0  0  0  0  0  0  0  0  0  0
   -5.5948    8.8097    0.6931 H   0  0  0  0  0  0  0  0  0  0  0  0
   -7.1888   10.3859    1.7165 H   0  0  0  0  0  0  0  0  0  0  0  0
   -6.4345   11.9892    3.4289 H   0  0  0  0  0  0  0  0  0  0  0  0
   -3.1928   11.7957    5.1236 H   0  0  0  0  0  0  0  0  0  0  0  0
   -4.7684   12.6518    5.0494 H   0  0  0  0  0  0  0  0  0  0  0  0
   -2.9282   14.2274    4.6055 H   0  0  0  0  0  0  0  0  0  0  0  0
   -3.9239   14.0318    3.1145 H   0  0  0  0  0  0  0  0  0  0  0  0
   -2.3149   13.2031    3.2509 H   0  0  0  0  0  0  0  0  0  0  0  0
   -2.4175   10.4672    3.0810 H   0  0  0  0  0  0  0  0  0  0  0  0
   -1.5034    0.6694   -3.1294 H   0  0  0  0  0  0  0  0  0  0  0  0
   -0.6504    1.7543   -2.0722 H   0  0  0  0  0  0  0  0  0  0  0  0
   -3.3468    2.2356   -3.5649 H   0  0  0  0  0  0  0  0  0  0  0  0
   -1.7399    2.9078   -4.0468 H   0  0  0  0  0  0  0  0  0  0  0  0
   -2.5528    3.4970   -2.5551 H   0  0  0  0  0  0  0  0  0  0  0  0
   -0.5401    3.7333   -1.4017 H   0  0  0  0  0  0  0  0  0  0  0  0
   -0.1315    4.7593   -0.0624 H   0  0  0  0  0  0  0  0  0  0  0  0
    1.0666    2.6712    0.2391 H   0  0  0  0  0  0  0  0  0  0  0  0
   -0.1172    2.9264    1.5791 H   0  0  0  0  0  0  0  0  0  0  0  0
   -0.4624    1.7282    0.2789 H   0  0  0  0  0  0  0  0  0  0  0  0
    0.7139    9.9678   -0.0800 H   0  0  0  0  0  0  0  0  0  0  0  0
   -1.9170   13.1036   -3.4999 H   0  0  0  0  0  0  0  0  0  0  0  0
   -0.1547    7.5681   -6.0447 H   0  0  0  0  0  0  0  0  0  0  0  0
   -1.4185   11.5509   -8.7824 H   0  0  0  0  0  0  0  0  0  0  0  0
  1  2  2  3
  2  3  1  0
  3  4  2  0
  3  5  1  0
  5  6  2  0
  6  7  1  0
  7  8  2  0
  8  9  1  0
  9 10  2  0
 10 11  1  0
 11 12  2  3
 12 13  1  0
 13 14  3  0
 12 15  1  0
 15 16  3  0
  8 17  1  0
 17 18  1  0
 18 19  1  0
 19 20  2  0
 20 21  1  0
 21 22  1  0
 21 23  1  0
  1 24  1  0
 24 25  2  0
 25 26  1  0
 26 27  1  0
 27 28  2  0
 28 29  1  0
 29 30  2  0
 30 31  1  0
 30 32  1  0
 32 33  2  0
 26 34  1  0
 34 35  2  0
 35 36  1  0
 36 37  2  0
 37 38  1  0
 37 39  1  0
 39 40  2  0
 25 41  1  0
 41 42  1  0
 42 43  1  0
 43 44  2  0
 44 45  1  0
 45 46  1  0
 46 47  2  0
 47 48  1  0
 48 49  2  0
 49 50  1  0
 49 51  1  0
 51 52  2  0
 45 53  1  0
 53 54  2  0
 54 55  1  0
 55 56  2  0
 56 57  1  0
 56 58  1  0
 58 59  2  0
 44 60  1  0
 60 61  1  0
 43 62  1  0
 62 63  2  0
 63 64  1  0
 64 65  2  0
 65 66  1  0
 66 67  2  0
 67 68  1  0
 68 69  1  0
 69 70  1  0
 68 71  2  0
 63 72  1  0
 72 73  1  0
 73 74  1  0
 74 75  1  0
 75 76  1  0
 76 77  1  0
 77 78  2  0
 78 79  1  0
 79 80  1  0
 77 81  1  0
 81 82  1  0
 82 83  1  0
 83 84  1  0
 84 85  1  0
 85 86  1  0
 86 87  2  0
 87 88  1  0
 88 89  2  0
 89 90  1  0
 90 91  1  0
 91 92  1  0
 90 93  2  0
 85 94  2  0
 94 95  1  0
 95 96  1  0
 96 97  1  0
 97 98  1  0
 98 99  1  0
 99100  1  0
100101  1  0
101102  1  0
102103  1  0
103104  1  0
101105  1  0
105106  1  0
 98107  1  0
107108  1  0
 94109  1  0
109110  2  0
110111  1  0
111112  2  0
112113  1  0
112114  1  0
114115  2  3
115116  1  0
116117  2  0
116118  1  0
118119  2  0
119120  1  0
120121  1  0
120122  2  0
122123  1  0
122124  1  0
124125  2  0
125126  1  0
126127  2  0
 11  2  1  0
 23 17  1  0
 61 24  1  0
104 62  1  0
113109  1  0
126115  1  0
 10  5  1  0
 22 18  1  0
 33 27  1  0
 40 34  1  0
 60 41  2  0
 71 64  1  0
103 72  2  0
125118  1  0
 23  7  1  0
 52 46  1  0
 59 53  1  0
102 74  2  0
100 75  2  0
 80 76  2  0
 99 81  2  0
 97 82  2  0
 96 84  2  0
 93 86  1  0
  1128  1  0
  6129  1  0
  9130  1  0
 17131  1  0
 18132  1  0
 19133  1  0
 20134  1  0
 21135  1  0
 22136  1  0
 22137  1  0
 23138  1  0
 28139  1  0
 29140  1  0
 31141  1  0
 31142  1  0
 31143  1  0
 32144  1  0
 33145  1  0
 35146  1  0
 36147  1  0
 38148  1  0
 38149  1  0
 38150  1  0
 39151  1  0
 40152  1  0
 47153  1  0
 48154  1  0
 50155  1  0
 50156  1  0
 50157  1  0
 51158  1  0
 52159  1  0
 54160  1  0
 55161  1  0
 57162  1  0
 57163  1  0
 57164  1  0
 58165  1  0
 59166  1  0
 65167  1  0
 66168  1  0
 67169  1  0
 69170  1  0
 69171  1  0
 70172  1  0
 70173  1  0
 70174  1  0
 71175  1  0
 87176  1  0
 88177  1  0
 89178  1  0
 91179  1  0
 91180  1  0
 92181  1  0
 92182  1  0
 92183  1  0
 93184  1  0
105185  1  0
105186  1  0
106187  1  0
106188  1  0
106189  1  0
107190  1  0
107191  1  0
108192  1  0
108193  1  0
108194  1  0
110195  1  0
114196  1  0
119197  1  0
124198  1  0
M  END

