
     RDKit          3D

266294  0  0  0  0  0  0  0  0999 V2000
   -8.3487   -5.7882    1.0960 C   0  0  0  0  0  0  0  0  0  0  0  0
   -8.5819   -6.2981    2.3173 C   0  0  0  0  0  0  0  0  0  0  0  0
   -8.7338   -5.5125    3.5450 C   0  0  0  0  0  0  0  0  0  0  0  0
   -8.9606   -4.2776    3.6244 O   0  0  0  0  0  0  0  0  0  0  0  0
   -8.6685   -6.4079    4.6776 C   0  0  0  0  0  0  0  0  0  0  0  0
   -8.5188   -6.0436    6.0398 C   0  0  0  0  0  0  0  0  0  0  0  0
   -8.4034   -7.1226    6.8944 C   0  0  0  0  0  0  0  0  0  0  0  0
   -8.4468   -8.4816    6.4462 C   0  0  0  0  0  0  0  0  0  0  0  0
   -8.5660   -8.8439    5.1188 C   0  0  0  0  0  0  0  0  0  0  0  0
   -8.6611   -7.7504    4.2100 C   0  0  0  0  0  0  0  0  0  0  0  0
   -8.6277   -7.7525    2.7164 C   0  0  0  0  0  0  0  0  0  0  0  0
   -8.7065   -8.8481    1.9064 C   0  0  0  0  0  0  0  0  0  0  0  0
   -8.6176   -8.7998    0.4713 C   0  0  0  0  0  0  0  0  0  0  0  0
   -8.5327   -8.7997   -0.6807 N   0  0  0  0  0  0  0  0  0  0  0  0
   -8.9254  -10.1773    2.4070 C   0  0  0  0  0  0  0  0  0  0  0  0
   -9.1098  -11.2536    2.7875 N   0  0  0  0  0  0  0  0  0  0  0  0
   -8.2805   -8.9704    7.8530 C   0  0  0  0  0  0  0  0  0  0  0  0
   -9.5552   -9.5107    8.5722 C   0  0  0  0  0  0  0  0  0  0  0  0
   -9.2014   -9.5650   10.0406 C   0  0  0  0  0  0  0  0  0  0  0  0
   -9.1162   -8.2962   10.4587 C   0  0  0  0  0  0  0  0  0  0  0  0
   -9.4222   -7.4279    9.2627 C   0  0  0  0  0  0  0  0  0  0  0  0
  -10.4775   -8.3008    8.5998 C   0  0  0  0  0  0  0  0  0  0  0  0
   -8.2011   -7.5765    8.3071 C   0  0  0  0  0  0  0  0  0  0  0  0
   -8.4047   -4.3642    0.7175 C   0  0  0  0  0  0  0  0  0  0  0  0
   -7.6350   -3.2854    1.2160 C   0  0  0  0  0  0  0  0  0  0  0  0
   -6.5747   -3.4326    2.1902 N   0  0  0  0  0  0  0  0  0  0  0  0
   -6.2956   -2.3678    3.1349 C   0  0  0  0  0  0  0  0  0  0  0  0
   -7.3325   -1.5518    3.6270 C   0  0  0  0  0  0  0  0  0  0  0  0
   -7.0636   -0.5304    4.5459 C   0  0  0  0  0  0  0  0  0  0  0  0
   -5.7544   -0.3066    4.9935 C   0  0  0  0  0  0  0  0  0  0  0  0
   -5.4769    0.7495    6.0225 C   0  0  0  0  0  0  0  0  0  0  0  0
   -4.7173   -1.1154    4.5119 C   0  0  0  0  0  0  0  0  0  0  0  0
   -4.9805   -2.1240    3.5828 C   0  0  0  0  0  0  0  0  0  0  0  0
   -5.6720   -4.5530    2.0629 C   0  0  0  0  0  0  0  0  0  0  0  0
   -5.2708   -5.2761    3.1965 C   0  0  0  0  0  0  0  0  0  0  0  0
   -4.3797   -6.3464    3.0689 C   0  0  0  0  0  0  0  0  0  0  0  0
   -3.8961   -6.7189    1.8061 C   0  0  0  0  0  0  0  0  0  0  0  0
   -2.8864   -7.8242    1.6828 C   0  0  0  0  0  0  0  0  0  0  0  0
   -4.3007   -6.0016    0.6720 C   0  0  0  0  0  0  0  0  0  0  0  0
   -5.1855   -4.9297    0.8002 C   0  0  0  0  0  0  0  0  0  0  0  0
   -7.6876   -2.1872    0.3396 C   0  0  0  0  0  0  0  0  0  0  0  0
   -6.6145   -0.9324    0.1122 S   0  0  0  0  0  0  0  0  0  0  0  0
   -6.9167   -0.6920   -1.5536 C   0  0  0  0  0  0  0  0  0  0  0  0
   -7.8842   -1.6546   -1.9401 C   0  0  0  0  0  0  0  0  0  0  0  0
   -8.0407   -2.1852   -3.2710 N   0  0  0  0  0  0  0  0  0  0  0  0
   -6.9037   -2.8261   -3.9161 C   0  0  0  0  0  0  0  0  0  0  0  0
   -6.9508   -3.1576   -5.2811 C   0  0  0  0  0  0  0  0  0  0  0  0
   -5.8416   -3.7114   -5.9277 C   0  0  0  0  0  0  0  0  0  0  0  0
   -4.6527   -3.9389   -5.2239 C   0  0  0  0  0  0  0  0  0  0  0  0
   -3.4459   -4.4980   -5.9116 C   0  0  0  0  0  0  0  0  0  0  0  0
   -4.6107   -3.6756   -3.8505 C   0  0  0  0  0  0  0  0  0  0  0  0
   -5.7235   -3.1363   -3.2003 C   0  0  0  0  0  0  0  0  0  0  0  0
   -9.4057   -2.4484   -3.6873 C   0  0  0  0  0  0  0  0  0  0  0  0
  -10.4037   -1.4841   -3.4595 C   0  0  0  0  0  0  0  0  0  0  0  0
  -11.7485   -1.7675   -3.7063 C   0  0  0  0  0  0  0  0  0  0  0  0
  -12.1298   -3.0389   -4.1468 C   0  0  0  0  0  0  0  0  0  0  0  0
  -13.5802   -3.3495   -4.3751 C   0  0  0  0  0  0  0  0  0  0  0  0
  -11.1458   -4.0108   -4.3798 C   0  0  0  0  0  0  0  0  0  0  0  0
   -9.7982   -3.7240   -4.1420 C   0  0  0  0  0  0  0  0  0  0  0  0
   -8.3241   -2.4100   -0.8417 C   0  0  0  0  0  0  0  0  0  0  0  0
   -8.9711   -3.9508   -0.8205 S   0  0  0  0  0  0  0  0  0  0  0  0
   -5.9497    0.0714   -2.3964 C   0  0  0  0  0  0  0  0  0  0  0  0
   -5.9891    0.4419   -3.7804 C   0  0  0  0  0  0  0  0  0  0  0  0
   -7.2586    0.6546   -4.5494 C   0  0  0  0  0  0  0  0  0  0  0  0
   -8.3049    1.2898   -3.8500 C   0  0  0  0  0  0  0  0  0  0  0  0
   -9.4766    1.6773   -4.4947 C   0  0  0  0  0  0  0  0  0  0  0  0
   -9.6379    1.4434   -5.8556 C   0  0  0  0  0  0  0  0  0  0  0  0
   -8.6206    0.8297   -6.5804 C   0  0  0  0  0  0  0  0  0  0  0  0
   -7.4307    0.3972   -5.9506 C   0  0  0  0  0  0  0  0  0  0  0  0
   -6.3492   -0.2312   -6.8136 C   0  0  0  0  0  0  0  0  0  0  0  0
   -6.8659   -1.1112   -7.9601 C   0  0  0  0  0  0  0  0  0  0  0  0
   -4.7578    1.0494   -4.1334 C   0  0  0  0  0  0  0  0  0  0  0  0
   -3.9953    1.5031   -5.5940 S   0  0  0  0  0  0  0  0  0  0  0  0
   -2.5683    1.9612   -4.8119 C   0  0  0  0  0  0  0  0  0  0  0  0
   -1.2298    2.0573   -5.1043 C   0  0  0  0  0  0  0  0  0  0  0  0
   -0.5210    1.7089   -6.2674 C   0  0  0  0  0  0  0  0  0  0  0  0
    0.8917    1.4854   -6.1809 C   0  0  0  0  0  0  0  0  0  0  0  0
    1.5270    1.0998   -7.3153 N   0  0  0  0  0  0  0  0  0  0  0  0
    0.2315    1.0408   -8.3481 S   0  0  0  0  0  0  0  0  0  0  0  0
   -1.1044    1.4777   -7.4705 N   0  0  0  0  0  0  0  0  0  0  0  0
    1.5291    1.6948   -4.9526 C   0  0  0  0  0  0  0  0  0  0  0  0
    2.8421    1.6733   -4.5651 C   0  0  0  0  0  0  0  0  0  0  0  0
    4.3936    1.2261   -5.1191 S   0  0  0  0  0  0  0  0  0  0  0  0
    5.0980    1.7164   -3.6330 C   0  0  0  0  0  0  0  0  0  0  0  0
    6.3637    1.5914   -3.0420 C   0  0  0  0  0  0  0  0  0  0  0  0
    7.5225    0.9248   -3.6514 C   0  0  0  0  0  0  0  0  0  0  0  0
    8.4742    1.6292   -4.4315 C   0  0  0  0  0  0  0  0  0  0  0  0
    8.3206    3.0981   -4.7569 C   0  0  0  0  0  0  0  0  0  0  0  0
    7.8516    3.2940   -6.1942 C   0  0  0  0  0  0  0  0  0  0  0  0
    9.6056    0.9454   -4.9088 C   0  0  0  0  0  0  0  0  0  0  0  0
    9.7993   -0.4045   -4.6056 C   0  0  0  0  0  0  0  0  0  0  0  0
    8.8640   -1.0885   -3.8286 C   0  0  0  0  0  0  0  0  0  0  0  0
    7.7331   -0.4290   -3.3491 C   0  0  0  0  0  0  0  0  0  0  0  0
    6.3328    2.0225   -1.7030 C   0  0  0  0  0  0  0  0  0  0  0  0
    4.7877    2.5885   -1.3160 S   0  0  0  0  0  0  0  0  0  0  0  0
    4.1468    2.2377   -2.7966 C   0  0  0  0  0  0  0  0  0  0  0  0
    2.8714    2.1708   -3.3045 C   0  0  0  0  0  0  0  0  0  0  0  0
    1.6551    2.4761   -2.7974 N   0  0  0  0  0  0  0  0  0  0  0  0
    0.8190    2.1069   -3.8139 C   0  0  0  0  0  0  0  0  0  0  0  0
   -0.5871    2.1432   -3.8569 C   0  0  0  0  0  0  0  0  0  0  0  0
   -1.4714    1.9077   -2.8402 N   0  0  0  0  0  0  0  0  0  0  0  0
   -2.6643    1.8039   -3.4687 C   0  0  0  0  0  0  0  0  0  0  0  0
   -3.8765    1.2369   -3.0985 C   0  0  0  0  0  0  0  0  0  0  0  0
   -4.4772    0.5765   -1.7086 S   0  0  0  0  0  0  0  0  0  0  0  0
   -1.1931    1.3668   -1.5015 C   0  0  0  0  0  0  0  0  0  0  0  0
   -0.8250   -0.1114   -1.5705 C   0  0  0  0  0  0  0  0  0  0  0  0
    1.4104    3.5602   -1.8282 C   0  0  0  0  0  0  0  0  0  0  0  0
    1.7513    3.1536   -0.3865 C   0  0  0  0  0  0  0  0  0  0  0  0
    7.4445    2.0702   -0.7447 C   0  0  0  0  0  0  0  0  0  0  0  0
    7.2770    1.9642    0.6490 C   0  0  0  0  0  0  0  0  0  0  0  0
    6.0966    1.4207    1.2753 N   0  0  0  0  0  0  0  0  0  0  0  0
    5.2120    2.2682    2.0529 C   0  0  0  0  0  0  0  0  0  0  0  0
    5.1570    3.6583    1.8228 C   0  0  0  0  0  0  0  0  0  0  0  0
    4.2763    4.4652    2.5428 C   0  0  0  0  0  0  0  0  0  0  0  0
    3.4338    3.9060    3.5143 C   0  0  0  0  0  0  0  0  0  0  0  0
    2.4421    4.7680    4.2367 C   0  0  0  0  0  0  0  0  0  0  0  0
    3.4731    2.5234    3.7423 C   0  0  0  0  0  0  0  0  0  0  0  0
    4.3623    1.7152    3.0294 C   0  0  0  0  0  0  0  0  0  0  0  0
    5.7561    0.0491    0.9808 C   0  0  0  0  0  0  0  0  0  0  0  0
    6.7312   -0.9557    1.0855 C   0  0  0  0  0  0  0  0  0  0  0  0
    6.4300   -2.2770    0.7433 C   0  0  0  0  0  0  0  0  0  0  0  0
    5.1489   -2.6153    0.2869 C   0  0  0  0  0  0  0  0  0  0  0  0
    4.8495   -4.0283   -0.1212 C   0  0  0  0  0  0  0  0  0  0  0  0
    4.1728   -1.6122    0.1645 C   0  0  0  0  0  0  0  0  0  0  0  0
    4.4706   -0.2935    0.5203 C   0  0  0  0  0  0  0  0  0  0  0  0
    8.2937    2.6203    1.3410 C   0  0  0  0  0  0  0  0  0  0  0  0
    8.3762    3.2165    2.9000 S   0  0  0  0  0  0  0  0  0  0  0  0
    9.6634    4.2854    2.5756 C   0  0  0  0  0  0  0  0  0  0  0  0
   10.0604    4.1569    1.2220 C   0  0  0  0  0  0  0  0  0  0  0  0
   11.0489    4.9936    0.5647 N   0  0  0  0  0  0  0  0  0  0  0  0
   11.9713    5.7879    1.3249 C   0  0  0  0  0  0  0  0  0  0  0  0
   11.9938    7.1802    1.1672 C   0  0  0  0  0  0  0  0  0  0  0  0
   12.8746    7.9571    1.9239 C   0  0  0  0  0  0  0  0  0  0  0  0
   13.7427    7.3496    2.8467 C   0  0  0  0  0  0  0  0  0  0  0  0
   14.7141    8.1759    3.6333 C   0  0  0  0  0  0  0  0  0  0  0  0
   13.7391    5.9524    2.9799 C   0  0  0  0  0  0  0  0  0  0  0  0
   12.8585    5.1754    2.2217 C   0  0  0  0  0  0  0  0  0  0  0  0
   11.3634    4.8016   -0.8221 C   0  0  0  0  0  0  0  0  0  0  0  0
   12.1822    3.7335   -1.2162 C   0  0  0  0  0  0  0  0  0  0  0  0
   12.4413    3.5072   -2.5731 C   0  0  0  0  0  0  0  0  0  0  0  0
   11.8827    4.3474   -3.5492 C   0  0  0  0  0  0  0  0  0  0  0  0
   12.1830    4.1173   -4.9998 C   0  0  0  0  0  0  0  0  0  0  0  0
   11.0817    5.4305   -3.1501 C   0  0  0  0  0  0  0  0  0  0  0  0
   10.8208    5.6548   -1.7937 C   0  0  0  0  0  0  0  0  0  0  0  0
    9.2442    3.2156    0.5648 C   0  0  0  0  0  0  0  0  0  0  0  0
    8.8522    2.9634   -1.0509 S   0  0  0  0  0  0  0  0  0  0  0  0
    9.9079    5.4518    3.4367 C   0  0  0  0  0  0  0  0  0  0  0  0
    9.1701    6.5786    3.3567 C   0  0  0  0  0  0  0  0  0  0  0  0
    8.1400    6.8460    2.3379 C   0  0  0  0  0  0  0  0  0  0  0  0
    7.6878    6.0315    1.4899 O   0  0  0  0  0  0  0  0  0  0  0  0
    7.7283    8.2220    2.4454 C   0  0  0  0  0  0  0  0  0  0  0  0
    6.7783    8.8883    1.6694 C   0  0  0  0  0  0  0  0  0  0  0  0
    6.4883   10.2316    1.9558 C   0  0  0  0  0  0  0  0  0  0  0  0
    5.5269   10.8810    1.1692 O   0  0  0  0  0  0  0  0  0  0  0  0
    5.0229   12.1903    1.4353 C   0  0  0  0  0  0  0  0  0  0  0  0
    7.1765   10.8770    3.0102 C   0  0  0  0  0  0  0  0  0  0  0  0
    8.1393   10.1905    3.7679 C   0  0  0  0  0  0  0  0  0  0  0  0
    8.4111    8.8396    3.4771 C   0  0  0  0  0  0  0  0  0  0  0  0
    9.3153    7.8475    4.1441 C   0  0  0  0  0  0  0  0  0  0  0  0
    9.9938    8.0194    5.3150 C   0  0  0  0  0  0  0  0  0  0  0  0
   10.1260    9.2979    5.9634 C   0  0  0  0  0  0  0  0  0  0  0  0
   10.2585   10.3199    6.4953 N   0  0  0  0  0  0  0  0  0  0  0  0
   10.6260    6.9362    6.0182 C   0  0  0  0  0  0  0  0  0  0  0  0
   11.1242    6.0700    6.6066 N   0  0  0  0  0  0  0  0  0  0  0  0
   -8.1838   -6.4351    0.2573 H   0  0  0  0  0  0  0  0  0  0  0  0
   -8.4493   -5.0168    6.3834 H   0  0  0  0  0  0  0  0  0  0  0  0
   -8.5305   -9.8829    4.8460 H   0  0  0  0  0  0  0  0  0  0  0  0
   -7.3523   -9.5639    8.0067 H   0  0  0  0  0  0  0  0  0  0  0  0
   -9.9813  -10.4447    8.1497 H   0  0  0  0  0  0  0  0  0  0  0  0
   -9.1186  -10.4509   10.6641 H   0  0  0  0  0  0  0  0  0  0  0  0
   -8.9512   -7.9727   11.4798 H   0  0  0  0  0  0  0  0  0  0  0  0
   -9.7276   -6.3861    9.4937 H   0  0  0  0  0  0  0  0  0  0  0  0
  -11.3835   -8.4532    9.2323 H   0  0  0  0  0  0  0  0  0  0  0  0
  -10.8001   -7.9537    7.5926 H   0  0  0  0  0  0  0  0  0  0  0  0
   -7.2125   -7.2862    8.7306 H   0  0  0  0  0  0  0  0  0  0  0  0
   -8.3538   -1.7056    3.3054 H   0  0  0  0  0  0  0  0  0  0  0  0
   -7.8772    0.0815    4.9191 H   0  0  0  0  0  0  0  0  0  0  0  0
   -6.1177    1.6407    5.8483 H   0  0  0  0  0  0  0  0  0  0  0  0
   -4.4131    1.0744    5.9886 H   0  0  0  0  0  0  0  0  0  0  0  0
   -5.6928    0.3384    7.0302 H   0  0  0  0  0  0  0  0  0  0  0  0
   -3.7029   -0.9739    4.8662 H   0  0  0  0  0  0  0  0  0  0  0  0
   -4.1493   -2.7134    3.2163 H   0  0  0  0  0  0  0  0  0  0  0  0
   -5.6367   -5.0041    4.1789 H   0  0  0  0  0  0  0  0  0  0  0  0
   -4.0580   -6.8778    3.9554 H   0  0  0  0  0  0  0  0  0  0  0  0
   -1.8934   -7.4525    2.0129 H   0  0  0  0  0  0  0  0  0  0  0  0
   -3.1855   -8.6863    2.3184 H   0  0  0  0  0  0  0  0  0  0  0  0
   -2.8039   -8.1791    0.6319 H   0  0  0  0  0  0  0  0  0  0  0  0
   -3.9245   -6.2598   -0.3120 H   0  0  0  0  0  0  0  0  0  0  0  0
   -5.4817   -4.3858   -0.0870 H   0  0  0  0  0  0  0  0  0  0  0  0
   -7.8471   -2.9764   -5.8502 H   0  0  0  0  0  0  0  0  0  0  0  0
   -5.9061   -3.9464   -6.9823 H   0  0  0  0  0  0  0  0  0  0  0  0
   -3.3234   -5.5663   -5.6348 H   0  0  0  0  0  0  0  0  0  0  0  0
   -3.5397   -4.4163   -7.0162 H   0  0  0  0  0  0  0  0  0  0  0  0
   -2.5391   -3.9350   -5.6000 H   0  0  0  0  0  0  0  0  0  0  0  0
   -3.7131   -3.8841   -3.2806 H   0  0  0  0  0  0  0  0  0  0  0  0
   -5.6415   -2.9644   -2.1353 H   0  0  0  0  0  0  0  0  0  0  0  0
  -10.1486   -0.5232   -3.0413 H   0  0  0  0  0  0  0  0  0  0  0  0
  -12.4934   -1.0032   -3.5139 H   0  0  0  0  0  0  0  0  0  0  0  0
  -14.2130   -2.8254   -3.6255 H   0  0  0  0  0  0  0  0  0  0  0  0
  -13.8722   -3.0182   -5.3926 H   0  0  0  0  0  0  0  0  0  0  0  0
  -13.7735   -4.4411   -4.2800 H   0  0  0  0  0  0  0  0  0  0  0  0
  -11.4281   -5.0024   -4.7165 H   0  0  0  0  0  0  0  0  0  0  0  0
   -9.0741   -4.5185   -4.2597 H   0  0  0  0  0  0  0  0  0  0  0  0
   -8.2036    1.5274   -2.7948 H   0  0  0  0  0  0  0  0  0  0  0  0
  -10.2658    2.1642   -3.9385 H   0  0  0  0  0  0  0  0  0  0  0  0
  -10.5529    1.7478   -6.3550 H   0  0  0  0  0  0  0  0  0  0  0  0
   -8.7702    0.7021   -7.6439 H   0  0  0  0  0  0  0  0  0  0  0  0
   -5.7694    0.5758   -7.2962 H   0  0  0  0  0  0  0  0  0  0  0  0
   -5.6714   -0.8452   -6.1876 H   0  0  0  0  0  0  0  0  0  0  0  0
   -7.1515   -0.4804   -8.8288 H   0  0  0  0  0  0  0  0  0  0  0  0
   -7.7499   -1.7053   -7.6594 H   0  0  0  0  0  0  0  0  0  0  0  0
   -6.0610   -1.7978   -8.2961 H   0  0  0  0  0  0  0  0  0  0  0  0
    9.2961    3.6057   -4.6262 H   0  0  0  0  0  0  0  0  0  0  0  0
    7.6118    3.6031   -4.0708 H   0  0  0  0  0  0  0  0  0  0  0  0
    7.7632    4.3796   -6.4106 H   0  0  0  0  0  0  0  0  0  0  0  0
    6.8559    2.8230   -6.3406 H   0  0  0  0  0  0  0  0  0  0  0  0
    8.5824    2.8537   -6.9077 H   0  0  0  0  0  0  0  0  0  0  0  0
   10.3455    1.4604   -5.5099 H   0  0  0  0  0  0  0  0  0  0  0  0
   10.6791   -0.9200   -4.9716 H   0  0  0  0  0  0  0  0  0  0  0  0
    9.0266   -2.1300   -3.5796 H   0  0  0  0  0  0  0  0  0  0  0  0
    7.0260   -0.9671   -2.7278 H   0  0  0  0  0  0  0  0  0  0  0  0
   -0.3774    1.9043   -1.0232 H   0  0  0  0  0  0  0  0  0  0  0  0
   -2.0645    1.5152   -0.8351 H   0  0  0  0  0  0  0  0  0  0  0  0
   -1.6380   -0.6930   -2.0546 H   0  0  0  0  0  0  0  0  0  0  0  0
   -0.6717   -0.4997   -0.5402 H   0  0  0  0  0  0  0  0  0  0  0  0
    0.1172   -0.2470   -2.1454 H   0  0  0  0  0  0  0  0  0  0  0  0
    0.3538    3.8964   -1.8799 H   0  0  0  0  0  0  0  0  0  0  0  0
    2.0189    4.4481   -2.1124 H   0  0  0  0  0  0  0  0  0  0  0  0
    0.8926    3.3663    0.2848 H   0  0  0  0  0  0  0  0  0  0  0  0
    2.6081    3.7459   -0.0083 H   0  0  0  0  0  0  0  0  0  0  0  0
    1.9905    2.0695   -0.3214 H   0  0  0  0  0  0  0  0  0  0  0  0
    5.7818    4.1196    1.0685 H   0  0  0  0  0  0  0  0  0  0  0  0
    4.2433    5.5280    2.3328 H   0  0  0  0  0  0  0  0  0  0  0  0
    2.8298    5.8022    4.3544 H   0  0  0  0  0  0  0  0  0  0  0  0
    1.4923    4.8042    3.6623 H   0  0  0  0  0  0  0  0  0  0  0  0
    2.2352    4.3631    5.2505 H   0  0  0  0  0  0  0  0  0  0  0  0
    2.8174    2.0712    4.4777 H   0  0  0  0  0  0  0  0  0  0  0  0
    4.3793    0.6541    3.2399 H   0  0  0  0  0  0  0  0  0  0  0  0
    7.7260   -0.7145    1.4383 H   0  0  0  0  0  0  0  0  0  0  0  0
    7.1997   -3.0354    0.8332 H   0  0  0  0  0  0  0  0  0  0  0  0
    3.7569   -4.1908   -0.2403 H   0  0  0  0  0  0  0  0  0  0  0  0
    5.3520   -4.2507   -1.0871 H   0  0  0  0  0  0  0  0  0  0  0  0
    5.2222   -4.7330    0.6518 H   0  0  0  0  0  0  0  0  0  0  0  0
    3.1839   -1.8484   -0.2099 H   0  0  0  0  0  0  0  0  0  0  0  0
    3.7039    0.4634    0.4183 H   0  0  0  0  0  0  0  0  0  0  0  0
   11.3148    7.6589    0.4753 H   0  0  0  0  0  0  0  0  0  0  0  0
   12.8794    9.0321    1.7900 H   0  0  0  0  0  0  0  0  0  0  0  0
   14.8123    7.7763    4.6655 H   0  0  0  0  0  0  0  0  0  0  0  0
   15.7065    8.1484    3.1374 H   0  0  0  0  0  0  0  0  0  0  0  0
   14.3761    9.2314    3.7043 H   0  0  0  0  0  0  0  0  0  0  0  0
   14.4134    5.4651    3.6749 H   0  0  0  0  0  0  0  0  0  0  0  0
   12.8544    4.0975    2.3434 H   0  0  0  0  0  0  0  0  0  0  0  0
   12.5994    3.0633   -0.4723 H   0  0  0  0  0  0  0  0  0  0  0  0
   13.0638    2.6687   -2.8630 H   0  0  0  0  0  0  0  0  0  0  0  0
   13.1538    4.5903   -5.2575 H   0  0  0  0  0  0  0  0  0  0  0  0
   11.3884    4.5496   -5.6461 H   0  0  0  0  0  0  0  0  0  0  0  0
   12.2438    3.0288   -5.2142 H   0  0  0  0  0  0  0  0  0  0  0  0
   10.6525    6.0977   -3.8866 H   0  0  0  0  0  0  0  0  0  0  0  0
   10.1771    6.4715   -1.4956 H   0  0  0  0  0  0  0  0  0  0  0  0
   10.7334    5.3621    4.1138 H   0  0  0  0  0  0  0  0  0  0  0  0
    6.2613    8.3708    0.8688 H   0  0  0  0  0  0  0  0  0  0  0  0
    4.5711   12.2267    2.4500 H   0  0  0  0  0  0  0  0  0  0  0  0
    5.8368   12.9412    1.3521 H   0  0  0  0  0  0  0  0  0  0  0  0
    4.2425   12.4357    0.6890 H   0  0  0  0  0  0  0  0  0  0  0  0
    6.9789   11.9141    3.2406 H   0  0  0  0  0  0  0  0  0  0  0  0
    8.6395   10.7300    4.5491 H   0  0  0  0  0  0  0  0  0  0  0  0
  1  2  2  3
  2  3  1  0
  3  4  2  0
  3  5  1  0
  5  6  2  0
  6  7  1  0
  7  8  2  0
  8  9  1  0
  9 10  2  0
 10 11  1  0
 11 12  2  3
 12 13  1  0
 13 14  3  0
 12 15  1  0
 15 16  3  0
  8 17  1  0
 17 18  1  0
 18 19  1  0
 19 20  2  0
 20 21  1  0
 21 22  1  0
 21 23  1  0
  1 24  1  0
 24 25  2  0
 25 26  1  0
 26 27  1  0
 27 28  2  0
 28 29  1  0
 29 30  2  0
 30 31  1  0
 30 32  1  0
 32 33  2  0
 26 34  1  0
 34 35  2  0
 35 36  1  0
 36 37  2  0
 37 38  1  0
 37 39  1  0
 39 40  2  0
 25 41  1  0
 41 42  1  0
 42 43  1  0
 43 44  2  0
 44 45  1  0
 45 46  1  0
 46 47  2  0
 47 48  1  0
 48 49  2  0
 49 50  1  0
 49 51  1  0
 51 52  2  0
 45 53  1  0
 53 54  2  0
 54 55  1  0
 55 56  2  0
 56 57  1  0
 56 58  1  0
 58 59  2  0
 44 60  1  0
 60 61  1  0
 43 62  1  0
 62 63  2  0
 63 64  1  0
 64 65  2  0
 65 66  1  0
 66 67  2  0
 67 68  1  0
 68 69  2  0
 69 70  1  0
 70 71  1  0
 63 72  1  0
 72 73  1  0
 73 74  1  0
 74 75  1  0
 75 76  1  0
 76 77  1  0
 77 78  2  0
 78 79  1  0
 79 80  1  0
 77 81  1  0
 81 82  1  0
 82 83  1  0
 83 84  1  0
 84 85  1  0
 85 86  1  0
 86 87  2  0
 87 88  1  0
 88 89  1  0
 87 90  1  0
 90 91  2  0
 91 92  1  0
 92 93  2  0
 85 94  2  0
 94 95  1  0
 95 96  1  0
 96 97  1  0
 97 98  1  0
 98 99  1  0
 99100  1  0
100101  1  0
101102  1  0
102103  1  0
103104  1  0
101105  1  0
105106  1  0
 98107  1  0
107108  1  0
 94109  1  0
109110  2  0
110111  1  0
111112  1  0
112113  2  0
113114  1  0
114115  2  0
115116  1  0
115117  1  0
117118  2  0
111119  1  0
119120  2  0
120121  1  0
121122  2  0
122123  1  0
122124  1  0
124125  2  0
110126  1  0
126127  1  0
127128  1  0
128129  2  0
129130  1  0
130131  1  0
131132  2  0
132133  1  0
133134  2  0
134135  1  0
134136  1  0
136137  2  0
130138  1  0
138139  2  0
139140  1  0
140141  2  0
141142  1  0
141143  1  0
143144  2  0
129145  1  0
145146  1  0
128147  1  0
147148  2  3
148149  1  0
149150  2  0
149151  1  0
151152  2  0
152153  1  0
153154  1  0
154155  1  0
153156  2  0
156157  1  0
157158  2  0
158159  1  0
159160  2  3
160161  1  0
161162  3  0
160163  1  0
163164  3  0
 11  2  1  0
 23 17  1  0
 61 24  1  0
104 62  1  0
146109  1  0
159148  1  0
 10  5  1  0
 22 18  1  0
 33 27  1  0
 40 34  1  0
 60 41  2  0
 69 64  1  0
103 72  2  0
118112  1  0
125119  1  0
145126  2  0
158151  1  0
 23  7  1  0
 52 46  1  0
 59 53  1  0
102 74  2  0
137131  1  0
144138  1  0
100 75  2  0
 80 76  2  0
 99 81  2  0
 97 82  2  0
 96 84  2  0
 93 86  1  0
  1165  1  0
  6166  1  0
  9167  1  0
 17168  1  0
 18169  1  0
 19170  1  0
 20171  1  0
 21172  1  0
 22173  1  0
 22174  1  0
 23175  1  0
 28176  1  0
 29177  1  0
 31178  1  0
 31179  1  0
 31180  1  0
 32181  1  0
 33182  1  0
 35183  1  0
 36184  1  0
 38185  1  0
 38186  1  0
 38187  1  0
 39188  1  0
 40189  1  0
 47190  1  0
 48191  1  0
 50192  1  0
 50193  1  0
 50194  1  0
 51195  1  0
 52196  1  0
 54197  1  0
 55198  1  0
 57199  1  0
 57200  1  0
 57201  1  0
 58202  1  0
 59203  1  0
 65204  1  0
 66205  1  0
 67206  1  0
 68207  1  0
 70208  1  0
 70209  1  0
 71210  1  0
 71211  1  0
 71212  1  0
 88213  1  0
 88214  1  0
 89215  1  0
 89216  1  0
 89217  1  0
 90218  1  0
 91219  1  0
 92220  1  0
 93221  1  0
105222  1  0
105223  1  0
106224  1  0
106225  1  0
106226  1  0
107227  1  0
107228  1  0
108229  1  0
108230  1  0
108231  1  0
113232  1  0
114233  1  0
116234  1  0
116235  1  0
116236  1  0
117237  1  0
118238  1  0
120239  1  0
121240  1  0
123241  1  0
123242  1  0
123243  1  0
124244  1  0
125245  1  0
132246  1  0
133247  1  0
135248  1  0
135249  1  0
135250  1  0
136251  1  0
137252  1  0
139253  1  0
140254  1  0
142255  1  0
142256  1  0
142257  1  0
143258  1  0
144259  1  0
147260  1  0
152261  1  0
155262  1  0
155263  1  0
155264  1  0
156265  1  0
157266  1  0
M  END

