
     RDKit          3D

216242  0  0  0  0  0  0  0  0999 V2000
    0.6531    7.8091    2.1011 C   0  0  0  0  0  0  0  0  0  0  0  0
   -0.5247    8.3308    2.5154 C   0  0  0  0  0  0  0  0  0  0  0  0
   -1.8464    7.8331    2.3124 C   0  0  0  0  0  0  0  0  0  0  0  0
   -2.1211    6.6022    2.0627 O   0  0  0  0  0  0  0  0  0  0  0  0
   -2.8305    8.8567    2.4618 C   0  0  0  0  0  0  0  0  0  0  0  0
   -4.2148    8.7828    2.4079 C   0  0  0  0  0  0  0  0  0  0  0  0
   -4.8850    9.8989    2.7818 C   0  0  0  0  0  0  0  0  0  0  0  0
   -4.1852   11.1227    3.0912 C   0  0  0  0  0  0  0  0  0  0  0  0
   -2.8571   11.2907    2.9489 C   0  0  0  0  0  0  0  0  0  0  0  0
   -2.1392   10.0956    2.7359 C   0  0  0  0  0  0  0  0  0  0  0  0
   -0.7004    9.7767    2.8933 C   0  0  0  0  0  0  0  0  0  0  0  0
    0.2336   10.5630    3.4807 C   0  0  0  0  0  0  0  0  0  0  0  0
    0.0859   12.0287    3.6102 C   0  0  0  0  0  0  0  0  0  0  0  0
    0.0436   13.2137    3.6891 N   0  0  0  0  0  0  0  0  0  0  0  0
    1.4324    9.9574    4.0285 C   0  0  0  0  0  0  0  0  0  0  0  0
    2.4444    9.6007    4.5677 N   0  0  0  0  0  0  0  0  0  0  0  0
   -5.4644   11.7875    3.4553 C   0  0  0  0  0  0  0  0  0  0  0  0
   -5.7735   11.9588    4.9931 C   0  0  0  0  0  0  0  0  0  0  0  0
   -7.2499   12.2139    5.1103 C   0  0  0  0  0  0  0  0  0  0  0  0
   -7.8384   11.0666    4.8037 C   0  0  0  0  0  0  0  0  0  0  0  0
   -6.7536   10.0726    4.4950 C   0  0  0  0  0  0  0  0  0  0  0  0
   -5.7112   10.5390    5.5104 C   0  0  0  0  0  0  0  0  0  0  0  0
   -6.1719   10.5483    3.1252 C   0  0  0  0  0  0  0  0  0  0  0  0
    0.9357    6.4448    1.5609 C   0  0  0  0  0  0  0  0  0  0  0  0
    1.8580    6.1355    0.5602 C   0  0  0  0  0  0  0  0  0  0  0  0
    2.3756    7.0861   -0.3583 N   0  0  0  0  0  0  0  0  0  0  0  0
    1.5848    7.3666   -1.5565 C   0  0  0  0  0  0  0  0  0  0  0  0
    1.4402    8.6666   -2.0814 C   0  0  0  0  0  0  0  0  0  0  0  0
    0.4821    8.9459   -3.0729 C   0  0  0  0  0  0  0  0  0  0  0  0
   -0.3517    7.9266   -3.5681 C   0  0  0  0  0  0  0  0  0  0  0  0
   -1.3880    8.2211   -4.5916 C   0  0  0  0  0  0  0  0  0  0  0  0
   -0.1749    6.6271   -3.1157 C   0  0  0  0  0  0  0  0  0  0  0  0
    0.8069    6.3495   -2.1601 C   0  0  0  0  0  0  0  0  0  0  0  0
    3.6535    7.6929   -0.0155 C   0  0  0  0  0  0  0  0  0  0  0  0
    4.5664    8.1484   -0.9732 C   0  0  0  0  0  0  0  0  0  0  0  0
    5.8141    8.7032   -0.5960 C   0  0  0  0  0  0  0  0  0  0  0  0
    6.1425    8.8177    0.7515 C   0  0  0  0  0  0  0  0  0  0  0  0
    7.4222    9.4090    1.2110 C   0  0  0  0  0  0  0  0  0  0  0  0
    5.2538    8.3434    1.7207 C   0  0  0  0  0  0  0  0  0  0  0  0
    4.0525    7.7569    1.3475 C   0  0  0  0  0  0  0  0  0  0  0  0
    2.1033    4.7658    0.4771 C   0  0  0  0  0  0  0  0  0  0  0  0
    3.0711    3.7195   -0.4655 S   0  0  0  0  0  0  0  0  0  0  0  0
    2.6201    2.3026    0.3803 C   0  0  0  0  0  0  0  0  0  0  0  0
    1.6902    2.6463    1.3570 C   0  0  0  0  0  0  0  0  0  0  0  0
    0.9702    1.7128    2.1415 N   0  0  0  0  0  0  0  0  0  0  0  0
   -0.3625    1.3807    1.5974 C   0  0  0  0  0  0  0  0  0  0  0  0
   -1.5550    1.4524    2.3557 C   0  0  0  0  0  0  0  0  0  0  0  0
   -2.7465    1.0190    1.7813 C   0  0  0  0  0  0  0  0  0  0  0  0
   -2.7905    0.5250    0.4530 C   0  0  0  0  0  0  0  0  0  0  0  0
   -4.0310   -0.0197   -0.1244 C   0  0  0  0  0  0  0  0  0  0  0  0
   -1.6858    0.5688   -0.3045 C   0  0  0  0  0  0  0  0  0  0  0  0
   -0.5275    1.0811    0.2574 C   0  0  0  0  0  0  0  0  0  0  0  0
    1.4284    1.5455    3.5245 C   0  0  0  0  0  0  0  0  0  0  0  0
    0.7358    0.7772    4.4751 C   0  0  0  0  0  0  0  0  0  0  0  0
    1.1928    0.6378    5.7867 C   0  0  0  0  0  0  0  0  0  0  0  0
    2.4468    1.1870    6.1248 C   0  0  0  0  0  0  0  0  0  0  0  0
    3.0148    1.0545    7.4906 C   0  0  0  0  0  0  0  0  0  0  0  0
    3.1281    1.9093    5.1841 C   0  0  0  0  0  0  0  0  0  0  0  0
    2.6303    2.1458    3.9238 C   0  0  0  0  0  0  0  0  0  0  0  0
    1.4343    4.0193    1.3754 C   0  0  0  0  0  0  0  0  0  0  0  0
    0.3924    4.9755    2.2774 S   0  0  0  0  0  0  0  0  0  0  0  0
    3.1984    0.9226    0.1564 C   0  0  0  0  0  0  0  0  0  0  0  0
    4.5772    0.5774    0.0189 C   0  0  0  0  0  0  0  0  0  0  0  0
    5.6431    1.6068    0.2959 C   0  0  0  0  0  0  0  0  0  0  0  0
    5.4981    2.3680    1.4570 C   0  0  0  0  0  0  0  0  0  0  0  0
    6.1209    3.5876    1.5720 C   0  0  0  0  0  0  0  0  0  0  0  0
    6.9790    4.0328    0.5810 C   0  0  0  0  0  0  0  0  0  0  0  0
    7.2191    3.2408   -0.5449 C   0  0  0  0  0  0  0  0  0  0  0  0
    8.1769    3.7560   -1.6132 C   0  0  0  0  0  0  0  0  0  0  0  0
    7.4223    4.2135   -2.8518 C   0  0  0  0  0  0  0  0  0  0  0  0
    6.5120    2.0493   -0.6940 C   0  0  0  0  0  0  0  0  0  0  0  0
    4.7048   -0.8478   -0.0418 C   0  0  0  0  0  0  0  0  0  0  0  0
    5.9612   -2.0330   -0.2125 S   0  0  0  0  0  0  0  0  0  0  0  0
    4.8343   -3.3957   -0.1239 C   0  0  0  0  0  0  0  0  0  0  0  0
    4.7148   -4.7728   -0.1919 C   0  0  0  0  0  0  0  0  0  0  0  0
    5.6114   -5.8801   -0.3030 C   0  0  0  0  0  0  0  0  0  0  0  0
    5.1845   -7.1893   -0.0412 C   0  0  0  0  0  0  0  0  0  0  0  0
    6.0366   -8.1666   -0.3323 N   0  0  0  0  0  0  0  0  0  0  0  0
    7.3265   -7.3456   -1.0041 S   0  0  0  0  0  0  0  0  0  0  0  0
    6.8797   -5.7692   -0.9255 N   0  0  0  0  0  0  0  0  0  0  0  0
    3.7678   -7.4010    0.1747 C   0  0  0  0  0  0  0  0  0  0  0  0
    3.0588   -8.5607    0.0943 C   0  0  0  0  0  0  0  0  0  0  0  0
    3.0508  -10.3043    0.1836 S   0  0  0  0  0  0  0  0  0  0  0  0
    1.4220  -10.4577   -0.2422 C   0  0  0  0  0  0  0  0  0  0  0  0
    0.4350  -11.4803   -0.0769 C   0  0  0  0  0  0  0  0  0  0  0  0
    0.4900  -12.2578    1.2096 C   0  0  0  0  0  0  0  0  0  0  0  0
    1.6096  -13.0107    1.5861 C   0  0  0  0  0  0  0  0  0  0  0  0
    1.6939  -13.5007    2.9046 C   0  0  0  0  0  0  0  0  0  0  0  0
    0.6960  -13.2174    3.8744 C   0  0  0  0  0  0  0  0  0  0  0  0
   -0.4101  -12.4212    3.4544 C   0  0  0  0  0  0  0  0  0  0  0  0
   -1.5409  -12.0959    4.4010 C   0  0  0  0  0  0  0  0  0  0  0  0
   -1.7981  -10.5754    4.5111 C   0  0  0  0  0  0  0  0  0  0  0  0
   -0.4808  -11.9518    2.1621 C   0  0  0  0  0  0  0  0  0  0  0  0
   -0.8470  -11.0206   -0.5495 C   0  0  0  0  0  0  0  0  0  0  0  0
   -0.6661   -9.2954   -0.7972 S   0  0  0  0  0  0  0  0  0  0  0  0
    0.9177   -9.1955   -0.4564 C   0  0  0  0  0  0  0  0  0  0  0  0
    1.7820   -8.1731   -0.2549 C   0  0  0  0  0  0  0  0  0  0  0  0
    1.6721   -6.8415   -0.3950 N   0  0  0  0  0  0  0  0  0  0  0  0
    2.8814   -6.3750   -0.0172 C   0  0  0  0  0  0  0  0  0  0  0  0
    3.3644   -5.0053   -0.0197 C   0  0  0  0  0  0  0  0  0  0  0  0
    2.6331   -3.8603    0.1104 N   0  0  0  0  0  0  0  0  0  0  0  0
    3.5898   -2.9098    0.0128 C   0  0  0  0  0  0  0  0  0  0  0  0
    3.5254   -1.5344    0.0705 C   0  0  0  0  0  0  0  0  0  0  0  0
    2.2895   -0.5231    0.2886 S   0  0  0  0  0  0  0  0  0  0  0  0
    1.2973   -3.6715    0.6603 C   0  0  0  0  0  0  0  0  0  0  0  0
    1.2787   -3.2368    2.1020 C   0  0  0  0  0  0  0  0  0  0  0  0
    0.6940   -6.1874   -1.3164 C   0  0  0  0  0  0  0  0  0  0  0  0
    0.9829   -6.5651   -2.7510 C   0  0  0  0  0  0  0  0  0  0  0  0
   -2.2081  -11.6128   -0.6573 C   0  0  0  0  0  0  0  0  0  0  0  0
   -2.9352  -12.4817    0.1152 C   0  0  0  0  0  0  0  0  0  0  0  0
   -4.2263  -12.4339   -0.3644 C   0  0  0  0  0  0  0  0  0  0  0  0
   -4.1821  -11.6097   -1.4676 C   0  0  0  0  0  0  0  0  0  0  0  0
   -2.9590  -11.1858   -1.6332 O   0  0  0  0  0  0  0  0  0  0  0  0
   -5.2886  -11.2239   -2.4202 C   0  0  0  0  0  0  0  0  0  0  0  0
   -5.4922  -10.0077   -2.9275 C   0  0  0  0  0  0  0  0  0  0  0  0
   -6.8060   -9.5945   -3.4946 C   0  0  0  0  0  0  0  0  0  0  0  0
   -7.7394  -10.3591   -3.8559 O   0  0  0  0  0  0  0  0  0  0  0  0
   -6.9558   -8.1321   -3.4152 C   0  0  0  0  0  0  0  0  0  0  0  0
   -7.9714   -7.2795   -3.9154 C   0  0  0  0  0  0  0  0  0  0  0  0
   -7.6967   -5.9175   -3.7735 C   0  0  0  0  0  0  0  0  0  0  0  0
   -6.6312   -5.4443   -2.9648 C   0  0  0  0  0  0  0  0  0  0  0  0
   -5.6929   -6.2790   -2.4285 C   0  0  0  0  0  0  0  0  0  0  0  0
   -5.8260   -7.6350   -2.7491 C   0  0  0  0  0  0  0  0  0  0  0  0
   -4.7871   -8.7232   -2.6230 C   0  0  0  0  0  0  0  0  0  0  0  0
   -3.4692   -8.5119   -2.8081 C   0  0  0  0  0  0  0  0  0  0  0  0
   -2.6389   -9.4126   -3.5178 C   0  0  0  0  0  0  0  0  0  0  0  0
   -1.9220  -10.1449   -4.0999 N   0  0  0  0  0  0  0  0  0  0  0  0
   -2.8983   -7.2188   -2.5463 C   0  0  0  0  0  0  0  0  0  0  0  0
   -2.4406   -6.1784   -2.3229 N   0  0  0  0  0  0  0  0  0  0  0  0
   -7.1044   -4.0294   -3.0911 C   0  0  0  0  0  0  0  0  0  0  0  0
   -6.2322   -3.0420   -3.9088 C   0  0  0  0  0  0  0  0  0  0  0  0
   -5.4071   -3.8751   -4.8482 C   0  0  0  0  0  0  0  0  0  0  0  0
   -6.2653   -4.4369   -5.6758 C   0  0  0  0  0  0  0  0  0  0  0  0
   -7.6388   -3.8752   -5.3618 C   0  0  0  0  0  0  0  0  0  0  0  0
   -7.2441   -2.4789   -4.8668 C   0  0  0  0  0  0  0  0  0  0  0  0
   -8.1226   -4.5204   -4.0388 C   0  0  0  0  0  0  0  0  0  0  0  0
    1.5044    8.4350    2.1609 H   0  0  0  0  0  0  0  0  0  0  0  0
   -4.6797    7.8374    2.2379 H   0  0  0  0  0  0  0  0  0  0  0  0
   -2.3702   12.2287    3.1699 H   0  0  0  0  0  0  0  0  0  0  0  0
   -5.7715   12.6489    2.7827 H   0  0  0  0  0  0  0  0  0  0  0  0
   -5.1204   12.6747    5.4899 H   0  0  0  0  0  0  0  0  0  0  0  0
   -7.6693   13.0989    5.5125 H   0  0  0  0  0  0  0  0  0  0  0  0
   -8.8818   10.8678    4.8789 H   0  0  0  0  0  0  0  0  0  0  0  0
   -7.0350    8.9993    4.5692 H   0  0  0  0  0  0  0  0  0  0  0  0
   -4.6987   10.0668    5.4205 H   0  0  0  0  0  0  0  0  0  0  0  0
   -6.0577   10.4786    6.5646 H   0  0  0  0  0  0  0  0  0  0  0  0
   -6.9213   10.6443    2.2852 H   0  0  0  0  0  0  0  0  0  0  0  0
    2.0028    9.4667   -1.6613 H   0  0  0  0  0  0  0  0  0  0  0  0
    0.3329    9.9520   -3.3987 H   0  0  0  0  0  0  0  0  0  0  0  0
   -1.9306    7.3003   -4.9057 H   0  0  0  0  0  0  0  0  0  0  0  0
   -2.1610    8.9005   -4.1816 H   0  0  0  0  0  0  0  0  0  0  0  0
   -0.9597    8.6730   -5.5105 H   0  0  0  0  0  0  0  0  0  0  0  0
   -0.7980    5.8390   -3.4828 H   0  0  0  0  0  0  0  0  0  0  0  0
    0.8307    5.3437   -1.7818 H   0  0  0  0  0  0  0  0  0  0  0  0
    4.3505    8.0780   -2.0233 H   0  0  0  0  0  0  0  0  0  0  0  0
    6.5331    8.9954   -1.3433 H   0  0  0  0  0  0  0  0  0  0  0  0
    8.2606    8.6809    1.1592 H   0  0  0  0  0  0  0  0  0  0  0  0
    7.6753   10.3505    0.6832 H   0  0  0  0  0  0  0  0  0  0  0  0
    7.3686    9.7155    2.2853 H   0  0  0  0  0  0  0  0  0  0  0  0
    5.5540    8.4064    2.7434 H   0  0  0  0  0  0  0  0  0  0  0  0
    3.3982    7.3438    2.0969 H   0  0  0  0  0  0  0  0  0  0  0  0
   -1.5856    1.9188    3.3202 H   0  0  0  0  0  0  0  0  0  0  0  0
   -3.6643    1.0468    2.3463 H   0  0  0  0  0  0  0  0  0  0  0  0
   -4.0552    0.1946   -1.2145 H   0  0  0  0  0  0  0  0  0  0  0  0
   -4.0382   -1.1269   -0.0121 H   0  0  0  0  0  0  0  0  0  0  0  0
   -4.9405    0.4046    0.3313 H   0  0  0  0  0  0  0  0  0  0  0  0
   -1.6453    0.2334   -1.3130 H   0  0  0  0  0  0  0  0  0  0  0  0
    0.2903    1.1736   -0.3993 H   0  0  0  0  0  0  0  0  0  0  0  0
   -0.1968    0.3014    4.2299 H   0  0  0  0  0  0  0  0  0  0  0  0
    0.5889    0.1551    6.5509 H   0  0  0  0  0  0  0  0  0  0  0  0
    3.2429    2.0732    7.9132 H   0  0  0  0  0  0  0  0  0  0  0  0
    2.3216    0.5205    8.1856 H   0  0  0  0  0  0  0  0  0  0  0  0
    3.9898    0.4829    7.4450 H   0  0  0  0  0  0  0  0  0  0  0  0
    4.0858    2.3152    5.4117 H   0  0  0  0  0  0  0  0  0  0  0  0
    3.1704    2.8199    3.2791 H   0  0  0  0  0  0  0  0  0  0  0  0
    4.8670    2.0100    2.2275 H   0  0  0  0  0  0  0  0  0  0  0  0
    5.9053    4.2332    2.3725 H   0  0  0  0  0  0  0  0  0  0  0  0
    7.4605    5.0217    0.6582 H   0  0  0  0  0  0  0  0  0  0  0  0
    8.9065    2.9738   -1.8878 H   0  0  0  0  0  0  0  0  0  0  0  0
    8.7502    4.6477   -1.2171 H   0  0  0  0  0  0  0  0  0  0  0  0
    8.1243    4.6779   -3.5750 H   0  0  0  0  0  0  0  0  0  0  0  0
    6.9361    3.3497   -3.3388 H   0  0  0  0  0  0  0  0  0  0  0  0
    6.6582    4.9690   -2.5984 H   0  0  0  0  0  0  0  0  0  0  0  0
    6.6612    1.4780   -1.5982 H   0  0  0  0  0  0  0  0  0  0  0  0
    2.4230  -13.2317    0.9240 H   0  0  0  0  0  0  0  0  0  0  0  0
    2.5399  -14.1035    3.2222 H   0  0  0  0  0  0  0  0  0  0  0  0
    0.7534  -13.6061    4.8502 H   0  0  0  0  0  0  0  0  0  0  0  0
   -2.4827  -12.5715    4.0388 H   0  0  0  0  0  0  0  0  0  0  0  0
   -1.3643  -12.4854    5.4200 H   0  0  0  0  0  0  0  0  0  0  0  0
   -2.5198  -10.3386    5.3239 H   0  0  0  0  0  0  0  0  0  0  0  0
   -0.8570  -10.0414    4.7049 H   0  0  0  0  0  0  0  0  0  0  0  0
   -2.2444  -10.1747    3.5774 H   0  0  0  0  0  0  0  0  0  0  0  0
   -1.2524  -11.2974    1.9265 H   0  0  0  0  0  0  0  0  0  0  0  0
    0.7252   -4.5680    0.6261 H   0  0  0  0  0  0  0  0  0  0  0  0
    0.7737   -2.9171    0.0620 H   0  0  0  0  0  0  0  0  0  0  0  0
    2.1637   -2.6838    2.3927 H   0  0  0  0  0  0  0  0  0  0  0  0
    1.1687   -4.1169    2.7648 H   0  0  0  0  0  0  0  0  0  0  0  0
    0.3994   -2.5953    2.3308 H   0  0  0  0  0  0  0  0  0  0  0  0
   -0.2697   -6.5052   -0.9613 H   0  0  0  0  0  0  0  0  0  0  0  0
    0.7320   -5.0919   -1.2549 H   0  0  0  0  0  0  0  0  0  0  0  0
    0.3429   -5.9673   -3.4153 H   0  0  0  0  0  0  0  0  0  0  0  0
    0.8070   -7.6179   -2.9672 H   0  0  0  0  0  0  0  0  0  0  0  0
    2.0234   -6.3356   -2.9656 H   0  0  0  0  0  0  0  0  0  0  0  0
   -2.6754  -13.0145    1.0137 H   0  0  0  0  0  0  0  0  0  0  0  0
   -5.1384  -12.8967    0.0219 H   0  0  0  0  0  0  0  0  0  0  0  0
   -6.0600  -11.9641   -2.5985 H   0  0  0  0  0  0  0  0  0  0  0  0
   -8.7503   -7.6493   -4.5229 H   0  0  0  0  0  0  0  0  0  0  0  0
   -4.8680   -5.8469   -1.9289 H   0  0  0  0  0  0  0  0  0  0  0  0
   -7.5604   -3.6130   -2.1834 H   0  0  0  0  0  0  0  0  0  0  0  0
   -5.6483   -2.3478   -3.2884 H   0  0  0  0  0  0  0  0  0  0  0  0
   -4.3403   -4.0234   -4.8816 H   0  0  0  0  0  0  0  0  0  0  0  0
   -5.9930   -5.0951   -6.4834 H   0  0  0  0  0  0  0  0  0  0  0  0
   -8.3792   -3.8374   -6.2024 H   0  0  0  0  0  0  0  0  0  0  0  0
   -6.7868   -1.8199   -5.6147 H   0  0  0  0  0  0  0  0  0  0  0  0
   -8.0462   -1.9455   -4.3263 H   0  0  0  0  0  0  0  0  0  0  0  0
   -9.1696   -4.2606   -3.7585 H   0  0  0  0  0  0  0  0  0  0  0  0
  1  2  2  3
  2  3  1  0
  3  4  2  0
  3  5  1  0
  5  6  2  0
  6  7  1  0
  7  8  2  0
  8  9  1  0
  9 10  2  0
 10 11  1  0
 11 12  2  3
 12 13  1  0
 13 14  3  0
 12 15  1  0
 15 16  3  0
  8 17  1  0
 17 18  1  0
 18 19  1  0
 19 20  2  0
 20 21  1  0
 21 22  1  0
 21 23  1  0
  1 24  1  0
 24 25  2  0
 25 26  1  0
 26 27  1  0
 27 28  2  0
 28 29  1  0
 29 30  2  0
 30 31  1  0
 30 32  1  0
 32 33  2  0
 26 34  1  0
 34 35  2  0
 35 36  1  0
 36 37  2  0
 37 38  1  0
 37 39  1  0
 39 40  2  0
 25 41  1  0
 41 42  1  0
 42 43  1  0
 43 44  2  0
 44 45  1  0
 45 46  1  0
 46 47  2  0
 47 48  1  0
 48 49  2  0
 49 50  1  0
 49 51  1  0
 51 52  2  0
 45 53  1  0
 53 54  2  0
 54 55  1  0
 55 56  2  0
 56 57  1  0
 56 58  1  0
 58 59  2  0
 44 60  1  0
 60 61  1  0
 43 62  1  0
 62 63  2  0
 63 64  1  0
 64 65  2  0
 65 66  1  0
 66 67  2  0
 67 68  1  0
 68 69  1  0
 69 70  1  0
 68 71  2  0
 63 72  1  0
 72 73  1  0
 73 74  1  0
 74 75  1  0
 75 76  1  0
 76 77  1  0
 77 78  2  0
 78 79  1  0
 79 80  1  0
 77 81  1  0
 81 82  1  0
 82 83  1  0
 83 84  1  0
 84 85  1  0
 85 86  1  0
 86 87  2  0
 87 88  1  0
 88 89  2  0
 89 90  1  0
 90 91  1  0
 91 92  1  0
 90 93  2  0
 85 94  2  0
 94 95  1  0
 95 96  1  0
 96 97  1  0
 97 98  1  0
 98 99  1  0
 99100  1  0
100101  1  0
101102  1  0
102103  1  0
103104  1  0
101105  1  0
105106  1  0
 98107  1  0
107108  1  0
 94109  1  0
109110  2  0
110111  1  0
111112  2  0
112113  1  0
112114  1  0
114115  2  3
115116  1  0
116117  2  0
116118  1  0
118119  2  0
119120  1  0
120121  2  0
121122  1  0
122123  2  0
123124  1  0
124125  2  3
125126  1  0
126127  3  0
125128  1  0
128129  3  0
121130  1  0
130131  1  0
131132  1  0
132133  2  0
133134  1  0
134135  1  0
134136  1  0
 11  2  1  0
 23 17  1  0
 61 24  1  0
104 62  1  0
113109  1  0
124115  1  0
136130  1  0
 10  5  1  0
 22 18  1  0
 33 27  1  0
 40 34  1  0
 60 41  2  0
 71 64  1  0
103 72  2  0
123118  1  0
135131  1  0
 23  7  1  0
 52 46  1  0
 59 53  1  0
102 74  2  0
136120  1  0
100 75  2  0
 80 76  2  0
 99 81  2  0
 97 82  2  0
 96 84  2  0
 93 86  1  0
  1137  1  0
  6138  1  0
  9139  1  0
 17140  1  0
 18141  1  0
 19142  1  0
 20143  1  0
 21144  1  0
 22145  1  0
 22146  1  0
 23147  1  0
 28148  1  0
 29149  1  0
 31150  1  0
 31151  1  0
 31152  1  0
 32153  1  0
 33154  1  0
 35155  1  0
 36156  1  0
 38157  1  0
 38158  1  0
 38159  1  0
 39160  1  0
 40161  1  0
 47162  1  0
 48163  1  0
 50164  1  0
 50165  1  0
 50166  1  0
 51167  1  0
 52168  1  0
 54169  1  0
 55170  1  0
 57171  1  0
 57172  1  0
 57173  1  0
 58174  1  0
 59175  1  0
 65176  1  0
 66177  1  0
 67178  1  0
 69179  1  0
 69180  1  0
 70181  1  0
 70182  1  0
 70183  1  0
 71184  1  0
 87185  1  0
 88186  1  0
 89187  1  0
 91188  1  0
 91189  1  0
 92190  1  0
 92191  1  0
 92192  1  0
 93193  1  0
105194  1  0
105195  1  0
106196  1  0
106197  1  0
106198  1  0
107199  1  0
107200  1  0
108201  1  0
108202  1  0
108203  1  0
110204  1  0
111205  1  0
114206  1  0
119207  1  0
122208  1  0
130209  1  0
131210  1  0
132211  1  0
133212  1  0
134213  1  0
135214  1  0
135215  1  0
136216  1  0
M  END

