
     RDKit          3D

256283  0  0  0  0  0  0  0  0999 V2000
   -2.9102    8.9942   -0.2891 C   0  0  0  0  0  0  0  0  0  0  0  0
   -3.2548    8.4765   -1.4844 C   0  0  0  0  0  0  0  0  0  0  0  0
   -3.1937    7.0551   -1.8627 C   0  0  0  0  0  0  0  0  0  0  0  0
   -2.9847    6.0760   -1.0958 O   0  0  0  0  0  0  0  0  0  0  0  0
   -3.2667    6.9604   -3.3020 C   0  0  0  0  0  0  0  0  0  0  0  0
   -3.2047    5.7828   -4.0850 C   0  0  0  0  0  0  0  0  0  0  0  0
   -3.2306    6.0133   -5.4467 C   0  0  0  0  0  0  0  0  0  0  0  0
   -3.2602    7.3259   -6.0194 C   0  0  0  0  0  0  0  0  0  0  0  0
   -3.2973    8.4825   -5.2618 C   0  0  0  0  0  0  0  0  0  0  0  0
   -3.3393    8.2654   -3.8526 C   0  0  0  0  0  0  0  0  0  0  0  0
   -3.4538    9.2562   -2.7458 C   0  0  0  0  0  0  0  0  0  0  0  0
   -3.9027   10.5357   -2.8357 C   0  0  0  0  0  0  0  0  0  0  0  0
   -4.1861   11.1724   -4.0945 C   0  0  0  0  0  0  0  0  0  0  0  0
   -4.4308   11.7022   -5.0939 N   0  0  0  0  0  0  0  0  0  0  0  0
   -4.2868   11.2981   -1.6722 C   0  0  0  0  0  0  0  0  0  0  0  0
   -4.6025   11.9154   -0.7436 N   0  0  0  0  0  0  0  0  0  0  0  0
   -3.2202    6.7469   -7.4056 C   0  0  0  0  0  0  0  0  0  0  0  0
   -1.8719    6.8056   -8.1837 C   0  0  0  0  0  0  0  0  0  0  0  0
   -0.7038    6.7444   -7.2166 C   0  0  0  0  0  0  0  0  0  0  0  0
   -0.7042    5.5125   -6.7007 C   0  0  0  0  0  0  0  0  0  0  0  0
   -1.8718    4.7832   -7.3229 C   0  0  0  0  0  0  0  0  0  0  0  0
   -1.8203    5.3872   -8.7190 C   0  0  0  0  0  0  0  0  0  0  0  0
   -3.2143    5.3991   -6.8187 C   0  0  0  0  0  0  0  0  0  0  0  0
   -2.6708    8.2119    0.9345 C   0  0  0  0  0  0  0  0  0  0  0  0
   -1.5290    8.3403    1.7275 C   0  0  0  0  0  0  0  0  0  0  0  0
   -0.2939    8.8841    1.2355 N   0  0  0  0  0  0  0  0  0  0  0  0
    0.3237    8.2779    0.0801 C   0  0  0  0  0  0  0  0  0  0  0  0
    0.9520    9.0727   -0.8880 C   0  0  0  0  0  0  0  0  0  0  0  0
    1.5516    8.4857   -2.0104 C   0  0  0  0  0  0  0  0  0  0  0  0
    1.5156    7.0925   -2.1828 C   0  0  0  0  0  0  0  0  0  0  0  0
    2.2090    6.4521   -3.3478 C   0  0  0  0  0  0  0  0  0  0  0  0
    0.9024    6.2938   -1.2135 C   0  0  0  0  0  0  0  0  0  0  0  0
    0.3059    6.8774   -0.0935 C   0  0  0  0  0  0  0  0  0  0  0  0
    0.3803    9.9031    2.0026 C   0  0  0  0  0  0  0  0  0  0  0  0
    1.7780    9.8887    2.1465 C   0  0  0  0  0  0  0  0  0  0  0  0
    2.4257   10.8771    2.8928 C   0  0  0  0  0  0  0  0  0  0  0  0
    1.6847   11.8856    3.5238 C   0  0  0  0  0  0  0  0  0  0  0  0
    2.3850   12.9617    4.2980 C   0  0  0  0  0  0  0  0  0  0  0  0
    0.2917   11.9147    3.3673 C   0  0  0  0  0  0  0  0  0  0  0  0
   -0.3552   10.9282    2.6194 C   0  0  0  0  0  0  0  0  0  0  0  0
   -1.5904    7.4957    2.8361 C   0  0  0  0  0  0  0  0  0  0  0  0
   -0.3991    6.8973    3.8337 S   0  0  0  0  0  0  0  0  0  0  0  0
   -1.2884    5.5469    4.3652 C   0  0  0  0  0  0  0  0  0  0  0  0
   -2.5386    5.5542    3.7092 C   0  0  0  0  0  0  0  0  0  0  0  0
   -3.3637    4.3906    3.5274 N   0  0  0  0  0  0  0  0  0  0  0  0
   -4.5063    4.2341    4.4058 C   0  0  0  0  0  0  0  0  0  0  0  0
   -5.2282    5.3568    4.8526 C   0  0  0  0  0  0  0  0  0  0  0  0
   -6.3379    5.2039    5.6883 C   0  0  0  0  0  0  0  0  0  0  0  0
   -6.7414    3.9323    6.1041 C   0  0  0  0  0  0  0  0  0  0  0  0
   -7.9577    3.7630    6.9661 C   0  0  0  0  0  0  0  0  0  0  0  0
   -6.0276    2.8061    5.6679 C   0  0  0  0  0  0  0  0  0  0  0  0
   -4.9121    2.9576    4.8376 C   0  0  0  0  0  0  0  0  0  0  0  0
   -3.1635    3.5543    2.3482 C   0  0  0  0  0  0  0  0  0  0  0  0
   -4.2053    2.7645    1.8119 C   0  0  0  0  0  0  0  0  0  0  0  0
   -3.9884    1.9442    0.6967 C   0  0  0  0  0  0  0  0  0  0  0  0
   -2.7327    1.9122    0.0725 C   0  0  0  0  0  0  0  0  0  0  0  0
   -2.4854    1.0407   -1.1251 C   0  0  0  0  0  0  0  0  0  0  0  0
   -1.7159    2.7371    0.5540 C   0  0  0  0  0  0  0  0  0  0  0  0
   -1.9248    3.5494    1.6733 C   0  0  0  0  0  0  0  0  0  0  0  0
   -2.6776    6.6824    2.8934 C   0  0  0  0  0  0  0  0  0  0  0  0
   -3.6958    7.0200    1.5997 S   0  0  0  0  0  0  0  0  0  0  0  0
   -0.5797    4.3456    4.8392 C   0  0  0  0  0  0  0  0  0  0  0  0
   -0.9121    3.4648    5.9003 C   0  0  0  0  0  0  0  0  0  0  0  0
   -2.0475    3.6164    6.8357 C   0  0  0  0  0  0  0  0  0  0  0  0
   -2.8140    2.5003    7.2032 C   0  0  0  0  0  0  0  0  0  0  0  0
   -3.8286    2.6241    8.1585 C   0  0  0  0  0  0  0  0  0  0  0  0
   -4.0771    3.8626    8.7539 C   0  0  0  0  0  0  0  0  0  0  0  0
   -3.3067    4.9847    8.4078 C   0  0  0  0  0  0  0  0  0  0  0  0
   -3.5616    6.3139    9.0620 C   0  0  0  0  0  0  0  0  0  0  0  0
   -4.5641    7.1302    8.2546 C   0  0  0  0  0  0  0  0  0  0  0  0
   -2.3029    4.8598    7.4365 C   0  0  0  0  0  0  0  0  0  0  0  0
    0.0366    2.4358    5.9947 C   0  0  0  0  0  0  0  0  0  0  0  0
    0.2162    1.0162    6.9547 S   0  0  0  0  0  0  0  0  0  0  0  0
    1.5914    0.5461    6.0674 C   0  0  0  0  0  0  0  0  0  0  0  0
    2.4321   -0.5275    5.8789 C   0  0  0  0  0  0  0  0  0  0  0  0
    2.6163   -1.7337    6.5594 C   0  0  0  0  0  0  0  0  0  0  0  0
    3.5507   -2.6875    6.0334 C   0  0  0  0  0  0  0  0  0  0  0  0
    3.6746   -3.8578    6.7083 N   0  0  0  0  0  0  0  0  0  0  0  0
    2.6068   -3.5840    7.9447 S   0  0  0  0  0  0  0  0  0  0  0  0
    1.9619   -2.0768    7.6944 N   0  0  0  0  0  0  0  0  0  0  0  0
    4.1936   -2.4090    4.8067 C   0  0  0  0  0  0  0  0  0  0  0  0
    4.7662   -3.2725    3.9037 C   0  0  0  0  0  0  0  0  0  0  0  0
    4.8782   -4.9682    3.8044 S   0  0  0  0  0  0  0  0  0  0  0  0
    4.7709   -4.9349    2.1099 C   0  0  0  0  0  0  0  0  0  0  0  0
    4.4236   -5.9432    1.1995 C   0  0  0  0  0  0  0  0  0  0  0  0
    4.8993   -7.3316    1.3368 C   0  0  0  0  0  0  0  0  0  0  0  0
    6.2601   -7.6000    1.1026 C   0  0  0  0  0  0  0  0  0  0  0  0
    6.7412   -8.9081    1.1487 C   0  0  0  0  0  0  0  0  0  0  0  0
    5.8644   -9.9667    1.4123 C   0  0  0  0  0  0  0  0  0  0  0  0
    4.5035   -9.7163    1.6487 C   0  0  0  0  0  0  0  0  0  0  0  0
    3.5645  -10.8614    1.9047 C   0  0  0  0  0  0  0  0  0  0  0  0
    3.6374  -11.3069    3.3612 C   0  0  0  0  0  0  0  0  0  0  0  0
    4.0322   -8.3870    1.6530 C   0  0  0  0  0  0  0  0  0  0  0  0
    3.8899   -5.4015    0.0107 C   0  0  0  0  0  0  0  0  0  0  0  0
    3.8844   -3.7099    0.1379 S   0  0  0  0  0  0  0  0  0  0  0  0
    4.5802   -3.6531    1.6615 C   0  0  0  0  0  0  0  0  0  0  0  0
    4.6240   -2.6963    2.6725 C   0  0  0  0  0  0  0  0  0  0  0  0
    4.0896   -1.4513    2.7373 N   0  0  0  0  0  0  0  0  0  0  0  0
    3.8969   -1.2477    4.0789 C   0  0  0  0  0  0  0  0  0  0  0  0
    3.1342   -0.2369    4.7022 C   0  0  0  0  0  0  0  0  0  0  0  0
    2.8596    1.0222    4.2594 N   0  0  0  0  0  0  0  0  0  0  0  0
    1.8847    1.4361    5.0936 C   0  0  0  0  0  0  0  0  0  0  0  0
    1.0305    2.5092    5.0606 C   0  0  0  0  0  0  0  0  0  0  0  0
    0.8328    3.8155    4.0557 S   0  0  0  0  0  0  0  0  0  0  0  0
    3.7137    1.8873    3.4357 C   0  0  0  0  0  0  0  0  0  0  0  0
    4.4116    2.9466    4.2842 C   0  0  0  0  0  0  0  0  0  0  0  0
    3.3792   -0.7996    1.6204 C   0  0  0  0  0  0  0  0  0  0  0  0
    4.3634   -0.3143    0.5511 C   0  0  0  0  0  0  0  0  0  0  0  0
    3.0021   -6.1163   -0.9196 C   0  0  0  0  0  0  0  0  0  0  0  0
    2.8530   -5.8966   -2.3068 C   0  0  0  0  0  0  0  0  0  0  0  0
    3.6851   -5.0450   -3.1121 N   0  0  0  0  0  0  0  0  0  0  0  0
    4.6473   -5.6624   -3.9908 C   0  0  0  0  0  0  0  0  0  0  0  0
    5.5025   -6.6655   -3.5096 C   0  0  0  0  0  0  0  0  0  0  0  0
    6.4520   -7.2530   -4.3522 C   0  0  0  0  0  0  0  0  0  0  0  0
    6.5650   -6.8405   -5.6848 C   0  0  0  0  0  0  0  0  0  0  0  0
    7.5782   -7.4782   -6.5926 C   0  0  0  0  0  0  0  0  0  0  0  0
    5.6891   -5.8622   -6.1812 C   0  0  0  0  0  0  0  0  0  0  0  0
    4.7379   -5.2776   -5.3399 C   0  0  0  0  0  0  0  0  0  0  0  0
    3.4847   -3.6160   -3.1121 C   0  0  0  0  0  0  0  0  0  0  0  0
    4.5687   -2.7514   -3.3524 C   0  0  0  0  0  0  0  0  0  0  0  0
    4.3953   -1.3702   -3.3456 C   0  0  0  0  0  0  0  0  0  0  0  0
    3.1395   -0.8196   -3.0590 C   0  0  0  0  0  0  0  0  0  0  0  0
    2.9515    0.6701   -3.0722 C   0  0  0  0  0  0  0  0  0  0  0  0
    2.0497   -1.6683   -2.8236 C   0  0  0  0  0  0  0  0  0  0  0  0
    2.2190   -3.0565   -2.8514 C   0  0  0  0  0  0  0  0  0  0  0  0
    1.7959   -6.6463   -2.8225 C   0  0  0  0  0  0  0  0  0  0  0  0
    1.0379   -6.7575   -4.3206 S   0  0  0  0  0  0  0  0  0  0  0  0
   -0.1880   -7.8094   -3.7579 C   0  0  0  0  0  0  0  0  0  0  0  0
   -0.0058   -8.0475   -2.3842 C   0  0  0  0  0  0  0  0  0  0  0  0
   -1.0037   -8.5913   -1.4963 N   0  0  0  0  0  0  0  0  0  0  0  0
   -1.0837  -10.0201   -1.2760 C   0  0  0  0  0  0  0  0  0  0  0  0
   -2.3286  -10.6332   -1.0375 C   0  0  0  0  0  0  0  0  0  0  0  0
   -2.4247  -12.0247   -0.9234 C   0  0  0  0  0  0  0  0  0  0  0  0
   -1.2838  -12.8290   -1.0557 C   0  0  0  0  0  0  0  0  0  0  0  0
   -1.3888  -14.3248   -0.9522 C   0  0  0  0  0  0  0  0  0  0  0  0
   -0.0361  -12.2213   -1.2564 C   0  0  0  0  0  0  0  0  0  0  0  0
    0.0635  -10.8310   -1.3714 C   0  0  0  0  0  0  0  0  0  0  0  0
   -1.7440   -7.6640   -0.6711 C   0  0  0  0  0  0  0  0  0  0  0  0
   -2.1866   -6.4416   -1.2085 C   0  0  0  0  0  0  0  0  0  0  0  0
   -2.7993   -5.4893   -0.3950 C   0  0  0  0  0  0  0  0  0  0  0  0
   -3.0016   -5.7446    0.9719 C   0  0  0  0  0  0  0  0  0  0  0  0
   -3.6036   -4.6984    1.8640 C   0  0  0  0  0  0  0  0  0  0  0  0
   -2.5568   -6.9601    1.5105 C   0  0  0  0  0  0  0  0  0  0  0  0
   -1.9362   -7.9151    0.6990 C   0  0  0  0  0  0  0  0  0  0  0  0
    1.1139   -7.3794   -1.9119 C   0  0  0  0  0  0  0  0  0  0  0  0
    1.7622   -7.1572   -0.3957 S   0  0  0  0  0  0  0  0  0  0  0  0
   -1.2982   -8.3035   -4.5883 C   0  0  0  0  0  0  0  0  0  0  0  0
   -1.8595   -9.5717   -4.5185 C   0  0  0  0  0  0  0  0  0  0  0  0
   -2.8255   -9.8144   -5.4978 C   0  0  0  0  0  0  0  0  0  0  0  0
   -3.0322   -8.7290   -6.3493 C   0  0  0  0  0  0  0  0  0  0  0  0
   -3.8797   -8.7706   -7.5648 C   0  0  0  0  0  0  0  0  0  0  0  0
   -4.7109   -7.7643   -7.9066 C   0  0  0  0  0  0  0  0  0  0  0  0
   -4.8996   -6.6080   -7.0623 C   0  0  0  0  0  0  0  0  0  0  0  0
   -5.0621   -5.6731   -6.3984 N   0  0  0  0  0  0  0  0  0  0  0  0
   -5.5333   -7.8400   -9.0933 C   0  0  0  0  0  0  0  0  0  0  0  0
   -6.1968   -7.9220  -10.0362 N   0  0  0  0  0  0  0  0  0  0  0  0
   -3.7921   -9.9640   -8.3868 C   0  0  0  0  0  0  0  0  0  0  0  0
   -3.7070  -10.9120   -9.0445 N   0  0  0  0  0  0  0  0  0  0  0  0
   -1.9825   -7.4943   -5.8940 S   0  0  0  0  0  0  0  0  0  0  0  0
   -2.6666   10.0410   -0.2229 H   0  0  0  0  0  0  0  0  0  0  0  0
   -3.1434    4.7899   -3.6640 H   0  0  0  0  0  0  0  0  0  0  0  0
   -3.2661    9.4533   -5.7344 H   0  0  0  0  0  0  0  0  0  0  0  0
   -4.1257    6.9598   -8.0167 H   0  0  0  0  0  0  0  0  0  0  0  0
   -1.7965    7.6035   -8.9501 H   0  0  0  0  0  0  0  0  0  0  0  0
    0.0339    7.5192   -7.0206 H   0  0  0  0  0  0  0  0  0  0  0  0
    0.0258    5.1150   -6.0030 H   0  0  0  0  0  0  0  0  0  0  0  0
   -1.8210    3.6731   -7.2726 H   0  0  0  0  0  0  0  0  0  0  0  0
   -0.8788    5.1517   -9.2636 H   0  0  0  0  0  0  0  0  0  0  0  0
   -2.7004    5.1174   -9.3537 H   0  0  0  0  0  0  0  0  0  0  0  0
   -4.1253    4.8035   -7.0510 H   0  0  0  0  0  0  0  0  0  0  0  0
    0.9692   10.1523   -0.7816 H   0  0  0  0  0  0  0  0  0  0  0  0
    2.0440    9.1144   -2.7397 H   0  0  0  0  0  0  0  0  0  0  0  0
    2.2049    7.1349   -4.2311 H   0  0  0  0  0  0  0  0  0  0  0  0
    1.6949    5.5160   -3.6415 H   0  0  0  0  0  0  0  0  0  0  0  0
    3.2635    6.2215   -3.0727 H   0  0  0  0  0  0  0  0  0  0  0  0
    0.8884    5.2154   -1.3186 H   0  0  0  0  0  0  0  0  0  0  0  0
   -0.1592    6.2347    0.6441 H   0  0  0  0  0  0  0  0  0  0  0  0
    2.3716    9.1049    1.6919 H   0  0  0  0  0  0  0  0  0  0  0  0
    3.5064   10.8542    2.9815 H   0  0  0  0  0  0  0  0  0  0  0  0
    2.6721   13.7800    3.6052 H   0  0  0  0  0  0  0  0  0  0  0  0
    3.2977   12.5576    4.7828 H   0  0  0  0  0  0  0  0  0  0  0  0
    1.7275   13.3722    5.0937 H   0  0  0  0  0  0  0  0  0  0  0  0
   -0.2941   12.7075    3.8190 H   0  0  0  0  0  0  0  0  0  0  0  0
   -1.4322   10.9720    2.5078 H   0  0  0  0  0  0  0  0  0  0  0  0
   -4.9545    6.3537    4.5404 H   0  0  0  0  0  0  0  0  0  0  0  0
   -6.8811    6.0841    6.0070 H   0  0  0  0  0  0  0  0  0  0  0  0
   -8.2120    4.7092    7.4920 H   0  0  0  0  0  0  0  0  0  0  0  0
   -8.8184    3.4593    6.3330 H   0  0  0  0  0  0  0  0  0  0  0  0
   -7.7765    2.9792    7.7317 H   0  0  0  0  0  0  0  0  0  0  0  0
   -6.3315    1.8152    5.9748 H   0  0  0  0  0  0  0  0  0  0  0  0
   -4.3591    2.0820    4.5372 H   0  0  0  0  0  0  0  0  0  0  0  0
   -5.2026    2.7832    2.2350 H   0  0  0  0  0  0  0  0  0  0  0  0
   -4.8012    1.3372    0.3171 H   0  0  0  0  0  0  0  0  0  0  0  0
   -1.5597    0.4432   -0.9723 H   0  0  0  0  0  0  0  0  0  0  0  0
   -2.3579    1.6781   -2.0259 H   0  0  0  0  0  0  0  0  0  0  0  0
   -3.3284    0.3393   -1.2972 H   0  0  0  0  0  0  0  0  0  0  0  0
   -0.7473    2.7538    0.0605 H   0  0  0  0  0  0  0  0  0  0  0  0
   -1.1116    4.1790    1.9928 H   0  0  0  0  0  0  0  0  0  0  0  0
   -2.6455    1.5361    6.7397 H   0  0  0  0  0  0  0  0  0  0  0  0
   -4.4203    1.7550    8.4335 H   0  0  0  0  0  0  0  0  0  0  0  0
   -4.8616    3.9445    9.4934 H   0  0  0  0  0  0  0  0  0  0  0  0
   -3.9454    6.1677   10.0973 H   0  0  0  0  0  0  0  0  0  0  0  0
   -2.6100    6.8860    9.1500 H   0  0  0  0  0  0  0  0  0  0  0  0
   -5.5425    6.5967    8.2094 H   0  0  0  0  0  0  0  0  0  0  0  0
   -4.1841    7.2926    7.2234 H   0  0  0  0  0  0  0  0  0  0  0  0
   -4.7084    8.1167    8.7413 H   0  0  0  0  0  0  0  0  0  0  0  0
   -1.6958    5.7201    7.1742 H   0  0  0  0  0  0  0  0  0  0  0  0
    6.9430   -6.7885    0.8655 H   0  0  0  0  0  0  0  0  0  0  0  0
    7.7891   -9.1082    0.9581 H   0  0  0  0  0  0  0  0  0  0  0  0
    6.2522  -10.9776    1.4272 H   0  0  0  0  0  0  0  0  0  0  0  0
    2.5201  -10.5649    1.6667 H   0  0  0  0  0  0  0  0  0  0  0  0
    3.8252  -11.7150    1.2388 H   0  0  0  0  0  0  0  0  0  0  0  0
    2.9501  -12.1597    3.5223 H   0  0  0  0  0  0  0  0  0  0  0  0
    4.6712  -11.6229    3.6213 H   0  0  0  0  0  0  0  0  0  0  0  0
    3.3313  -10.4707    4.0347 H   0  0  0  0  0  0  0  0  0  0  0  0
    2.9967   -8.1936    1.8873 H   0  0  0  0  0  0  0  0  0  0  0  0
    3.0990    2.3743    2.6485 H   0  0  0  0  0  0  0  0  0  0  0  0
    4.5116    1.2818    2.9566 H   0  0  0  0  0  0  0  0  0  0  0  0
    5.0036    2.4548    5.0856 H   0  0  0  0  0  0  0  0  0  0  0  0
    5.0999    3.5441    3.6415 H   0  0  0  0  0  0  0  0  0  0  0  0
    3.6727    3.6353    4.7408 H   0  0  0  0  0  0  0  0  0  0  0  0
    2.7516    0.0394    1.9552 H   0  0  0  0  0  0  0  0  0  0  0  0
    2.6438   -1.5024    1.1852 H   0  0  0  0  0  0  0  0  0  0  0  0
    5.1547   -1.0680    0.3697 H   0  0  0  0  0  0  0  0  0  0  0  0
    3.8114   -0.1454   -0.3960 H   0  0  0  0  0  0  0  0  0  0  0  0
    4.8339    0.6416    0.8368 H   0  0  0  0  0  0  0  0  0  0  0  0
    5.4394   -6.9783   -2.4743 H   0  0  0  0  0  0  0  0  0  0  0  0
    7.1002   -8.0258   -3.9560 H   0  0  0  0  0  0  0  0  0  0  0  0
    7.9191   -6.7532   -7.3683 H   0  0  0  0  0  0  0  0  0  0  0  0
    7.1234   -8.3607   -7.0939 H   0  0  0  0  0  0  0  0  0  0  0  0
    8.4721   -7.8036   -6.0211 H   0  0  0  0  0  0  0  0  0  0  0  0
    5.7453   -5.5570   -7.2181 H   0  0  0  0  0  0  0  0  0  0  0  0
    4.0675   -4.5266   -5.7407 H   0  0  0  0  0  0  0  0  0  0  0  0
    5.5564   -3.1536   -3.5361 H   0  0  0  0  0  0  0  0  0  0  0  0
    5.2448   -0.7278   -3.5420 H   0  0  0  0  0  0  0  0  0  0  0  0
    2.6565    0.9962   -4.0924 H   0  0  0  0  0  0  0  0  0  0  0  0
    2.1628    0.9707   -2.3512 H   0  0  0  0  0  0  0  0  0  0  0  0
    3.8896    1.1866   -2.7846 H   0  0  0  0  0  0  0  0  0  0  0  0
    1.0669   -1.2623   -2.6196 H   0  0  0  0  0  0  0  0  0  0  0  0
    1.3609   -3.6889   -2.6618 H   0  0  0  0  0  0  0  0  0  0  0  0
   -3.2306  -10.0355   -0.9737 H   0  0  0  0  0  0  0  0  0  0  0  0
   -3.3917  -12.4767   -0.7523 H   0  0  0  0  0  0  0  0  0  0  0  0
   -1.2835  -14.6254    0.1093 H   0  0  0  0  0  0  0  0  0  0  0  0
   -2.3685  -14.6829   -1.3397 H   0  0  0  0  0  0  0  0  0  0  0  0
   -0.5880  -14.8190   -1.5467 H   0  0  0  0  0  0  0  0  0  0  0  0
    0.8555  -12.8306   -1.3356 H   0  0  0  0  0  0  0  0  0  0  0  0
    1.0326  -10.3834   -1.5316 H   0  0  0  0  0  0  0  0  0  0  0  0
   -2.0487   -6.2215   -2.2585 H   0  0  0  0  0  0  0  0  0  0  0  0
   -3.1226   -4.5520   -0.8314 H   0  0  0  0  0  0  0  0  0  0  0  0
   -2.7921   -4.0926    2.3178 H   0  0  0  0  0  0  0  0  0  0  0  0
   -4.1967   -5.1727    2.6738 H   0  0  0  0  0  0  0  0  0  0  0  0
   -4.2780   -4.0274    1.2910 H   0  0  0  0  0  0  0  0  0  0  0  0
   -2.6851   -7.1651    2.5674 H   0  0  0  0  0  0  0  0  0  0  0  0
   -1.5804   -8.8325    1.1498 H   0  0  0  0  0  0  0  0  0  0  0  0
   -1.5539  -10.3323   -3.8107 H   0  0  0  0  0  0  0  0  0  0  0  0
   -3.3330  -10.7636   -5.5991 H   0  0  0  0  0  0  0  0  0  0  0  0
  1  2  2  3
  2  3  1  0
  3  4  2  0
  3  5  1  0
  5  6  2  0
  6  7  1  0
  7  8  2  0
  8  9  1  0
  9 10  2  0
 10 11  1  0
 11 12  2  3
 12 13  1  0
 13 14  3  0
 12 15  1  0
 15 16  3  0
  8 17  1  0
 17 18  1  0
 18 19  1  0
 19 20  2  0
 20 21  1  0
 21 22  1  0
 21 23  1  0
  1 24  1  0
 24 25  2  0
 25 26  1  0
 26 27  1  0
 27 28  2  0
 28 29  1  0
 29 30  2  0
 30 31  1  0
 30 32  1  0
 32 33  2  0
 26 34  1  0
 34 35  2  0
 35 36  1  0
 36 37  2  0
 37 38  1  0
 37 39  1  0
 39 40  2  0
 25 41  1  0
 41 42  1  0
 42 43  1  0
 43 44  2  0
 44 45  1  0
 45 46  1  0
 46 47  2  0
 47 48  1  0
 48 49  2  0
 49 50  1  0
 49 51  1  0
 51 52  2  0
 45 53  1  0
 53 54  2  0
 54 55  1  0
 55 56  2  0
 56 57  1  0
 56 58  1  0
 58 59  2  0
 44 60  1  0
 60 61  1  0
 43 62  1  0
 62 63  2  0
 63 64  1  0
 64 65  2  0
 65 66  1  0
 66 67  2  0
 67 68  1  0
 68 69  1  0
 69 70  1  0
 68 71  2  0
 63 72  1  0
 72 73  1  0
 73 74  1  0
 74 75  1  0
 75 76  1  0
 76 77  1  0
 77 78  2  0
 78 79  1  0
 79 80  1  0
 77 81  1  0
 81 82  1  0
 82 83  1  0
 83 84  1  0
 84 85  1  0
 85 86  1  0
 86 87  2  0
 87 88  1  0
 88 89  2  0
 89 90  1  0
 90 91  1  0
 91 92  1  0
 90 93  2  0
 85 94  2  0
 94 95  1  0
 95 96  1  0
 96 97  1  0
 97 98  1  0
 98 99  1  0
 99100  1  0
100101  1  0
101102  1  0
102103  1  0
103104  1  0
101105  1  0
105106  1  0
 98107  1  0
107108  1  0
 94109  1  0
109110  2  0
110111  1  0
111112  1  0
112113  2  0
113114  1  0
114115  2  0
115116  1  0
115117  1  0
117118  2  0
111119  1  0
119120  2  0
120121  1  0
121122  2  0
122123  1  0
122124  1  0
124125  2  0
110126  1  0
126127  1  0
127128  1  0
128129  2  0
129130  1  0
130131  1  0
131132  2  0
132133  1  0
133134  2  0
134135  1  0
134136  1  0
136137  2  0
130138  1  0
138139  2  0
139140  1  0
140141  2  0
141142  1  0
141143  1  0
143144  2  0
129145  1  0
145146  1  0
128147  1  0
147148  2  0
148149  1  0
149150  2  0
150151  1  0
151152  2  3
152153  1  0
153154  3  0
152155  1  0
155156  3  0
151157  1  0
157158  3  0
150159  1  0
 11  2  1  0
 23 17  1  0
 61 24  1  0
104 62  1  0
146109  1  0
159147  1  0
 10  5  1  0
 22 18  1  0
 33 27  1  0
 40 34  1  0
 60 41  2  0
 71 64  1  0
103 72  2  0
118112  1  0
125119  1  0
145126  2  0
 23  7  1  0
 52 46  1  0
 59 53  1  0
102 74  2  0
137131  1  0
144138  1  0
100 75  2  0
 80 76  2  0
 99 81  2  0
 97 82  2  0
 96 84  2  0
 93 86  1  0
  1160  1  0
  6161  1  0
  9162  1  0
 17163  1  0
 18164  1  0
 19165  1  0
 20166  1  0
 21167  1  0
 22168  1  0
 22169  1  0
 23170  1  0
 28171  1  0
 29172  1  0
 31173  1  0
 31174  1  0
 31175  1  0
 32176  1  0
 33177  1  0
 35178  1  0
 36179  1  0
 38180  1  0
 38181  1  0
 38182  1  0
 39183  1  0
 40184  1  0
 47185  1  0
 48186  1  0
 50187  1  0
 50188  1  0
 50189  1  0
 51190  1  0
 52191  1  0
 54192  1  0
 55193  1  0
 57194  1  0
 57195  1  0
 57196  1  0
 58197  1  0
 59198  1  0
 65199  1  0
 66200  1  0
 67201  1  0
 69202  1  0
 69203  1  0
 70204  1  0
 70205  1  0
 70206  1  0
 71207  1  0
 87208  1  0
 88209  1  0
 89210  1  0
 91211  1  0
 91212  1  0
 92213  1  0
 92214  1  0
 92215  1  0
 93216  1  0
105217  1  0
105218  1  0
106219  1  0
106220  1  0
106221  1  0
107222  1  0
107223  1  0
108224  1  0
108225  1  0
108226  1  0
113227  1  0
114228  1  0
116229  1  0
116230  1  0
116231  1  0
117232  1  0
118233  1  0
120234  1  0
121235  1  0
123236  1  0
123237  1  0
123238  1  0
124239  1  0
125240  1  0
132241  1  0
133242  1  0
135243  1  0
135244  1  0
135245  1  0
136246  1  0
137247  1  0
139248  1  0
140249  1  0
142250  1  0
142251  1  0
142252  1  0
143253  1  0
144254  1  0
148255  1  0
149256  1  0
M  END

