
     RDKit          3D

217240  0  0  0  0  0  0  0  0999 V2000
   -6.2751    3.4953    3.5475 C   0  0  0  0  0  0  0  0  0  0  0  0
   -6.7584    2.2492    3.7095 C   0  0  0  0  0  0  0  0  0  0  0  0
   -5.9668    1.1070    4.1632 C   0  0  0  0  0  0  0  0  0  0  0  0
   -5.1665    1.1061    5.1338 O   0  0  0  0  0  0  0  0  0  0  0  0
   -6.3481   -0.0600    3.4199 C   0  0  0  0  0  0  0  0  0  0  0  0
   -5.6411   -1.2755    3.3490 C   0  0  0  0  0  0  0  0  0  0  0  0
   -6.1271   -2.1400    2.3929 C   0  0  0  0  0  0  0  0  0  0  0  0
   -7.2521   -1.8407    1.5543 C   0  0  0  0  0  0  0  0  0  0  0  0
   -7.9571   -0.6473    1.6336 C   0  0  0  0  0  0  0  0  0  0  0  0
   -7.4707    0.2584    2.6177 C   0  0  0  0  0  0  0  0  0  0  0  0
   -7.8661    1.6655    2.8967 C   0  0  0  0  0  0  0  0  0  0  0  0
   -9.0647    2.2386    2.6459 C   0  0  0  0  0  0  0  0  0  0  0  0
   -9.3848    3.5588    3.1289 C   0  0  0  0  0  0  0  0  0  0  0  0
   -9.6513    4.6199    3.5134 N   0  0  0  0  0  0  0  0  0  0  0  0
  -10.1513    1.5077    2.0533 C   0  0  0  0  0  0  0  0  0  0  0  0
  -11.0347    0.9244    1.5886 N   0  0  0  0  0  0  0  0  0  0  0  0
   -7.1027   -3.1704    0.8636 C   0  0  0  0  0  0  0  0  0  0  0  0
   -8.1198   -4.2970    1.2172 C   0  0  0  0  0  0  0  0  0  0  0  0
   -8.5941   -4.1329    2.6449 C   0  0  0  0  0  0  0  0  0  0  0  0
   -7.5472   -4.4023    3.4290 C   0  0  0  0  0  0  0  0  0  0  0  0
   -6.3951   -4.7393    2.5115 C   0  0  0  0  0  0  0  0  0  0  0  0
   -7.1629   -5.4634    1.4203 C   0  0  0  0  0  0  0  0  0  0  0  0
   -5.9517   -3.4688    1.7269 C   0  0  0  0  0  0  0  0  0  0  0  0
   -4.8283    3.7839    3.6228 C   0  0  0  0  0  0  0  0  0  0  0  0
   -3.9825    3.7804    4.7621 C   0  0  0  0  0  0  0  0  0  0  0  0
   -4.4543    3.7356    6.1337 N   0  0  0  0  0  0  0  0  0  0  0  0
   -5.7324    4.3207    6.4524 C   0  0  0  0  0  0  0  0  0  0  0  0
   -6.0465    5.6218    6.0257 C   0  0  0  0  0  0  0  0  0  0  0  0
   -7.2864    6.1881    6.3376 C   0  0  0  0  0  0  0  0  0  0  0  0
   -8.2314    5.4576    7.0728 C   0  0  0  0  0  0  0  0  0  0  0  0
   -9.5427    6.0846    7.4451 C   0  0  0  0  0  0  0  0  0  0  0  0
   -7.9130    4.1621    7.5158 C   0  0  0  0  0  0  0  0  0  0  0  0
   -6.6742    3.5972    7.2004 C   0  0  0  0  0  0  0  0  0  0  0  0
   -3.6731    3.1560    7.2055 C   0  0  0  0  0  0  0  0  0  0  0  0
   -3.6081    3.7985    8.4537 C   0  0  0  0  0  0  0  0  0  0  0  0
   -2.8744    3.2386    9.5045 C   0  0  0  0  0  0  0  0  0  0  0  0
   -2.2054    2.0179    9.3306 C   0  0  0  0  0  0  0  0  0  0  0  0
   -1.3620    1.4508   10.4359 C   0  0  0  0  0  0  0  0  0  0  0  0
   -2.2645    1.3751    8.0868 C   0  0  0  0  0  0  0  0  0  0  0  0
   -2.9984    1.9338    7.0360 C   0  0  0  0  0  0  0  0  0  0  0  0
   -2.6328    3.8117    4.3619 C   0  0  0  0  0  0  0  0  0  0  0  0
   -1.1572    3.5477    5.1198 S   0  0  0  0  0  0  0  0  0  0  0  0
   -0.2476    3.4053    3.6904 C   0  0  0  0  0  0  0  0  0  0  0  0
   -1.1149    3.5901    2.6008 C   0  0  0  0  0  0  0  0  0  0  0  0
   -0.7178    3.3807    1.2340 N   0  0  0  0  0  0  0  0  0  0  0  0
    0.4251    4.1017    0.7379 C   0  0  0  0  0  0  0  0  0  0  0  0
    1.4632    3.4251    0.0806 C   0  0  0  0  0  0  0  0  0  0  0  0
    2.5683    4.1327   -0.4065 C   0  0  0  0  0  0  0  0  0  0  0  0
    2.6630    5.5195   -0.2120 C   0  0  0  0  0  0  0  0  0  0  0  0
    3.8418    6.2754   -0.7466 C   0  0  0  0  0  0  0  0  0  0  0  0
    1.6192    6.1976    0.4352 C   0  0  0  0  0  0  0  0  0  0  0  0
    0.5105    5.4931    0.9125 C   0  0  0  0  0  0  0  0  0  0  0  0
   -1.4233    2.4469    0.3873 C   0  0  0  0  0  0  0  0  0  0  0  0
   -1.9507    1.2519    0.9117 C   0  0  0  0  0  0  0  0  0  0  0  0
   -2.6039    0.3364    0.0830 C   0  0  0  0  0  0  0  0  0  0  0  0
   -2.7610    0.6066   -1.2860 C   0  0  0  0  0  0  0  0  0  0  0  0
   -3.4203   -0.4010   -2.1769 C   0  0  0  0  0  0  0  0  0  0  0  0
   -2.2405    1.7963   -1.8157 C   0  0  0  0  0  0  0  0  0  0  0  0
   -1.5795    2.7092   -0.9875 C   0  0  0  0  0  0  0  0  0  0  0  0
   -2.4273    3.8195    3.0146 C   0  0  0  0  0  0  0  0  0  0  0  0
   -3.8894    3.8194    2.2077 S   0  0  0  0  0  0  0  0  0  0  0  0
    0.8743    2.4669    3.6047 C   0  0  0  0  0  0  0  0  0  0  0  0
    0.6185    0.8031    3.3912 S   0  0  0  0  0  0  0  0  0  0  0  0
    2.2370    0.4997    3.1461 C   0  0  0  0  0  0  0  0  0  0  0  0
    2.9984   -0.6103    2.6675 C   0  0  0  0  0  0  0  0  0  0  0  0
    4.2965   -0.1509    2.4643 C   0  0  0  0  0  0  0  0  0  0  0  0
    4.4341    1.3381    2.8256 C   0  0  0  0  0  0  0  0  0  0  0  0
    2.9803    1.6286    3.1704 C   0  0  0  0  0  0  0  0  0  0  0  0
    2.2299    2.7826    3.4451 C   0  0  0  0  0  0  0  0  0  0  0  0
    5.2994    1.5329    4.1003 C   0  0  0  0  0  0  0  0  0  0  0  0
    6.7597    1.0913    3.9597 C   0  0  0  0  0  0  0  0  0  0  0  0
    4.9130    2.1281    1.5750 C   0  0  0  0  0  0  0  0  0  0  0  0
    5.1708    3.6215    1.7788 C   0  0  0  0  0  0  0  0  0  0  0  0
    5.2146   -0.9531    1.7610 C   0  0  0  0  0  0  0  0  0  0  0  0
    4.7535   -2.1851    1.2642 C   0  0  0  0  0  0  0  0  0  0  0  0
    5.3862   -3.0608    0.2952 C   0  0  0  0  0  0  0  0  0  0  0  0
    4.4509   -4.0068   -0.1285 C   0  0  0  0  0  0  0  0  0  0  0  0
    3.1123   -3.8094    0.5633 C   0  0  0  0  0  0  0  0  0  0  0  0
    1.9697   -3.4922   -0.4556 C   0  0  0  0  0  0  0  0  0  0  0  0
    2.1982   -2.2262   -1.2971 C   0  0  0  0  0  0  0  0  0  0  0  0
    2.7562   -4.9950    1.4986 C   0  0  0  0  0  0  0  0  0  0  0  0
    2.4546   -6.3176    0.7860 C   0  0  0  0  0  0  0  0  0  0  0  0
    3.4340   -2.6038    1.4266 C   0  0  0  0  0  0  0  0  0  0  0  0
    2.5282   -1.8227    2.1531 C   0  0  0  0  0  0  0  0  0  0  0  0
    4.7068   -4.7999   -1.2596 C   0  0  0  0  0  0  0  0  0  0  0  0
    5.9193   -4.6026   -1.9279 C   0  0  0  0  0  0  0  0  0  0  0  0
    6.2467   -4.9931   -3.2773 C   0  0  0  0  0  0  0  0  0  0  0  0
    7.2522   -4.2042   -3.7514 C   0  0  0  0  0  0  0  0  0  0  0  0
    7.7571   -3.2427   -2.6950 C   0  0  0  0  0  0  0  0  0  0  0  0
    6.8288   -3.6144   -1.5426 C   0  0  0  0  0  0  0  0  0  0  0  0
    6.5861   -2.8416   -0.3928 C   0  0  0  0  0  0  0  0  0  0  0  0
    9.2429   -3.5700   -2.4064 C   0  0  0  0  0  0  0  0  0  0  0  0
    9.8519   -2.8218   -1.2204 C   0  0  0  0  0  0  0  0  0  0  0  0
    7.5440   -1.7635   -3.1448 C   0  0  0  0  0  0  0  0  0  0  0  0
    6.0867   -1.3942   -3.4655 C   0  0  0  0  0  0  0  0  0  0  0  0
    7.2836   -4.0986   -5.1491 C   0  0  0  0  0  0  0  0  0  0  0  0
    6.2278   -4.7933   -5.7636 C   0  0  0  0  0  0  0  0  0  0  0  0
    5.2782   -5.4973   -4.5414 S   0  0  0  0  0  0  0  0  0  0  0  0
    5.7740   -4.6405   -7.1720 C   0  0  0  0  0  0  0  0  0  0  0  0
    6.3659   -3.6943   -8.0326 C   0  0  0  0  0  0  0  0  0  0  0  0
    5.7733   -3.3849   -9.2647 C   0  0  0  0  0  0  0  0  0  0  0  0
    4.5869   -4.0196   -9.6462 C   0  0  0  0  0  0  0  0  0  0  0  0
    4.0566   -5.0354   -8.8477 C   0  0  0  0  0  0  0  0  0  0  0  0
    4.6415   -5.3440   -7.6192 C   0  0  0  0  0  0  0  0  0  0  0  0
    3.8001   -3.5409  -10.7967 C   0  0  0  0  0  0  0  0  0  0  0  0
    2.9703   -2.4857  -10.6915 C   0  0  0  0  0  0  0  0  0  0  0  0
    2.8118   -1.6561   -9.4865 C   0  0  0  0  0  0  0  0  0  0  0  0
    3.6940   -1.4235   -8.6200 O   0  0  0  0  0  0  0  0  0  0  0  0
    1.4404   -1.2048   -9.4150 C   0  0  0  0  0  0  0  0  0  0  0  0
    0.8048   -0.6221   -8.2950 C   0  0  0  0  0  0  0  0  0  0  0  0
   -0.5689   -0.5449   -8.4138 C   0  0  0  0  0  0  0  0  0  0  0  0
   -1.2835   -1.0163   -9.5617 C   0  0  0  0  0  0  0  0  0  0  0  0
   -0.6658   -1.5745  -10.6679 C   0  0  0  0  0  0  0  0  0  0  0  0
    0.7522   -1.6479  -10.5753 C   0  0  0  0  0  0  0  0  0  0  0  0
    1.7221   -2.3171  -11.4845 C   0  0  0  0  0  0  0  0  0  0  0  0
    1.5849   -2.5338  -12.8113 C   0  0  0  0  0  0  0  0  0  0  0  0
    0.3458   -2.3085  -13.5078 C   0  0  0  0  0  0  0  0  0  0  0  0
   -0.6609   -2.1605  -14.0656 N   0  0  0  0  0  0  0  0  0  0  0  0
    2.6959   -2.9533  -13.6280 C   0  0  0  0  0  0  0  0  0  0  0  0
    3.5865   -3.2847  -14.2892 N   0  0  0  0  0  0  0  0  0  0  0  0
   -2.5922   -0.7138   -8.8927 C   0  0  0  0  0  0  0  0  0  0  0  0
   -3.4123   -1.9163   -8.3352 C   0  0  0  0  0  0  0  0  0  0  0  0
   -2.4803   -3.0289   -7.9045 C   0  0  0  0  0  0  0  0  0  0  0  0
   -1.8187   -2.5809   -6.8360 C   0  0  0  0  0  0  0  0  0  0  0  0
   -2.3196   -1.1773   -6.5778 C   0  0  0  0  0  0  0  0  0  0  0  0
   -3.7735   -1.3673   -6.9667 C   0  0  0  0  0  0  0  0  0  0  0  0
   -1.8574   -0.2237   -7.7185 C   0  0  0  0  0  0  0  0  0  0  0  0
   -6.8492    4.1997    2.9614 H   0  0  0  0  0  0  0  0  0  0  0  0
   -4.7614   -1.4952    3.9396 H   0  0  0  0  0  0  0  0  0  0  0  0
   -8.7587   -0.4216    0.9448 H   0  0  0  0  0  0  0  0  0  0  0  0
   -6.8405   -3.0894   -0.2132 H   0  0  0  0  0  0  0  0  0  0  0  0
   -8.9249   -4.4526    0.4726 H   0  0  0  0  0  0  0  0  0  0  0  0
   -9.5996   -3.9082    2.9834 H   0  0  0  0  0  0  0  0  0  0  0  0
   -7.5584   -4.4323    4.5139 H   0  0  0  0  0  0  0  0  0  0  0  0
   -5.5723   -5.3115    2.9856 H   0  0  0  0  0  0  0  0  0  0  0  0
   -6.5374   -5.6902    0.5202 H   0  0  0  0  0  0  0  0  0  0  0  0
   -7.6599   -6.3954    1.7707 H   0  0  0  0  0  0  0  0  0  0  0  0
   -4.9878   -3.5640    1.1799 H   0  0  0  0  0  0  0  0  0  0  0  0
   -5.3268    6.1982    5.4642 H   0  0  0  0  0  0  0  0  0  0  0  0
   -7.5075    7.1968    6.0119 H   0  0  0  0  0  0  0  0  0  0  0  0
   -9.4260    6.6552    8.3919 H   0  0  0  0  0  0  0  0  0  0  0  0
   -9.8852    6.7798    6.6447 H   0  0  0  0  0  0  0  0  0  0  0  0
  -10.3270    5.3111    7.5763 H   0  0  0  0  0  0  0  0  0  0  0  0
   -8.6253    3.5929    8.1043 H   0  0  0  0  0  0  0  0  0  0  0  0
   -6.4495    2.5935    7.5357 H   0  0  0  0  0  0  0  0  0  0  0  0
   -4.1139    4.7425    8.6110 H   0  0  0  0  0  0  0  0  0  0  0  0
   -2.8224    3.7626   10.4514 H   0  0  0  0  0  0  0  0  0  0  0  0
   -1.7120    1.8083   11.4256 H   0  0  0  0  0  0  0  0  0  0  0  0
   -0.3075    1.7629   10.2926 H   0  0  0  0  0  0  0  0  0  0  0  0
   -1.4072    0.3392   10.4314 H   0  0  0  0  0  0  0  0  0  0  0  0
   -1.7294    0.4483    7.9207 H   0  0  0  0  0  0  0  0  0  0  0  0
   -2.9946    1.4277    6.0838 H   0  0  0  0  0  0  0  0  0  0  0  0
    1.4219    2.3504   -0.0449 H   0  0  0  0  0  0  0  0  0  0  0  0
    3.3554    3.5989   -0.9200 H   0  0  0  0  0  0  0  0  0  0  0  0
    4.0359    7.1836   -0.1376 H   0  0  0  0  0  0  0  0  0  0  0  0
    4.7546    5.6449   -0.7190 H   0  0  0  0  0  0  0  0  0  0  0  0
    3.6444    6.5721   -1.7973 H   0  0  0  0  0  0  0  0  0  0  0  0
    1.6604    7.2710    0.5653 H   0  0  0  0  0  0  0  0  0  0  0  0
   -0.2904    6.0311    1.4030 H   0  0  0  0  0  0  0  0  0  0  0  0
   -1.8498    1.0215    1.9656 H   0  0  0  0  0  0  0  0  0  0  0  0
   -2.9825   -0.5866    0.5041 H   0  0  0  0  0  0  0  0  0  0  0  0
   -2.6769   -1.1674   -2.4749 H   0  0  0  0  0  0  0  0  0  0  0  0
   -3.8282    0.0800   -3.0905 H   0  0  0  0  0  0  0  0  0  0  0  0
   -4.2566   -0.8956   -1.6426 H   0  0  0  0  0  0  0  0  0  0  0  0
   -2.3398    2.0167   -2.8699 H   0  0  0  0  0  0  0  0  0  0  0  0
   -1.1950    3.6250   -1.4142 H   0  0  0  0  0  0  0  0  0  0  0  0
    2.6177    3.7879    3.4878 H   0  0  0  0  0  0  0  0  0  0  0  0
    5.2730    2.6019    4.4118 H   0  0  0  0  0  0  0  0  0  0  0  0
    4.8496    0.9594    4.9421 H   0  0  0  0  0  0  0  0  0  0  0  0
    7.2307    1.5463    3.0680 H   0  0  0  0  0  0  0  0  0  0  0  0
    6.8204   -0.0145    3.8957 H   0  0  0  0  0  0  0  0  0  0  0  0
    7.3233    1.4167    4.8558 H   0  0  0  0  0  0  0  0  0  0  0  0
    5.8576    1.6869    1.1920 H   0  0  0  0  0  0  0  0  0  0  0  0
    4.1685    2.0058    0.7576 H   0  0  0  0  0  0  0  0  0  0  0  0
    5.9345    3.8051    2.5637 H   0  0  0  0  0  0  0  0  0  0  0  0
    5.5707    4.0328    0.8322 H   0  0  0  0  0  0  0  0  0  0  0  0
    4.2390    4.1666    2.0065 H   0  0  0  0  0  0  0  0  0  0  0  0
    6.2083   -0.6005    1.5251 H   0  0  0  0  0  0  0  0  0  0  0  0
    1.8528   -4.3361   -1.1653 H   0  0  0  0  0  0  0  0  0  0  0  0
    1.0044   -3.3868    0.0837 H   0  0  0  0  0  0  0  0  0  0  0  0
    1.3730   -2.1228   -2.0335 H   0  0  0  0  0  0  0  0  0  0  0  0
    3.1518   -2.2970   -1.8582 H   0  0  0  0  0  0  0  0  0  0  0  0
    2.2048   -1.3171   -0.6602 H   0  0  0  0  0  0  0  0  0  0  0  0
    1.8648   -4.7261    2.1066 H   0  0  0  0  0  0  0  0  0  0  0  0
    3.5934   -5.1728    2.2127 H   0  0  0  0  0  0  0  0  0  0  0  0
    3.3358   -6.6728    0.2168 H   0  0  0  0  0  0  0  0  0  0  0  0
    1.5822   -6.2137    0.1071 H   0  0  0  0  0  0  0  0  0  0  0  0
    2.2057   -7.0887    1.5433 H   0  0  0  0  0  0  0  0  0  0  0  0
    1.4794   -2.0880    2.2194 H   0  0  0  0  0  0  0  0  0  0  0  0
    3.9478   -5.4405   -1.6905 H   0  0  0  0  0  0  0  0  0  0  0  0
    7.2206   -2.0027   -0.1427 H   0  0  0  0  0  0  0  0  0  0  0  0
    9.3553   -4.6593   -2.2075 H   0  0  0  0  0  0  0  0  0  0  0  0
    9.8471   -3.3434   -3.3142 H   0  0  0  0  0  0  0  0  0  0  0  0
   10.9418   -3.0251   -1.1834 H   0  0  0  0  0  0  0  0  0  0  0  0
    9.4029   -3.1655   -0.2682 H   0  0  0  0  0  0  0  0  0  0  0  0
    9.7223   -1.7279   -1.3181 H   0  0  0  0  0  0  0  0  0  0  0  0
    7.8798   -1.0718   -2.3406 H   0  0  0  0  0  0  0  0  0  0  0  0
    8.1714   -1.5528   -4.0380 H   0  0  0  0  0  0  0  0  0  0  0  0
    6.0402   -0.3414   -3.8093 H   0  0  0  0  0  0  0  0  0  0  0  0
    5.6767   -2.0392   -4.2732 H   0  0  0  0  0  0  0  0  0  0  0  0
    5.4441   -1.4837   -2.5664 H   0  0  0  0  0  0  0  0  0  0  0  0
    7.9574   -3.4273   -5.6616 H   0  0  0  0  0  0  0  0  0  0  0  0
    7.2391   -3.1333   -7.7396 H   0  0  0  0  0  0  0  0  0  0  0  0
    6.1914   -2.5900   -9.8732 H   0  0  0  0  0  0  0  0  0  0  0  0
    3.1353   -5.5286   -9.1326 H   0  0  0  0  0  0  0  0  0  0  0  0
    4.1601   -6.0856   -6.9988 H   0  0  0  0  0  0  0  0  0  0  0  0
    3.6552   -4.2532  -11.5996 H   0  0  0  0  0  0  0  0  0  0  0  0
    1.3270   -0.3535   -7.3871 H   0  0  0  0  0  0  0  0  0  0  0  0
   -1.2467   -2.0079  -11.4665 H   0  0  0  0  0  0  0  0  0  0  0  0
   -3.1825    0.0738   -9.4114 H   0  0  0  0  0  0  0  0  0  0  0  0
   -4.2674   -2.2234   -8.9666 H   0  0  0  0  0  0  0  0  0  0  0  0
   -2.3962   -4.0186   -8.3335 H   0  0  0  0  0  0  0  0  0  0  0  0
   -1.1134   -3.1471   -6.2395 H   0  0  0  0  0  0  0  0  0  0  0  0
   -2.1441   -0.8076   -5.5465 H   0  0  0  0  0  0  0  0  0  0  0  0
   -4.3484   -0.4132   -7.0102 H   0  0  0  0  0  0  0  0  0  0  0  0
   -4.3155   -2.0960   -6.3230 H   0  0  0  0  0  0  0  0  0  0  0  0
   -2.0028    0.8589   -7.5135 H   0  0  0  0  0  0  0  0  0  0  0  0
  1  2  2  3
  2  3  1  0
  3  4  2  0
  3  5  1  0
  5  6  2  0
  6  7  1  0
  7  8  2  0
  8  9  1  0
  9 10  2  0
 10 11  1  0
 11 12  2  3
 12 13  1  0
 13 14  3  0
 12 15  1  0
 15 16  3  0
  8 17  1  0
 17 18  1  0
 18 19  1  0
 19 20  2  0
 20 21  1  0
 21 22  1  0
 21 23  1  0
  1 24  1  0
 24 25  2  0
 25 26  1  0
 26 27  1  0
 27 28  2  0
 28 29  1  0
 29 30  2  0
 30 31  1  0
 30 32  1  0
 32 33  2  0
 26 34  1  0
 34 35  2  0
 35 36  1  0
 36 37  2  0
 37 38  1  0
 37 39  1  0
 39 40  2  0
 25 41  1  0
 41 42  1  0
 42 43  1  0
 43 44  2  0
 44 45  1  0
 45 46  1  0
 46 47  2  0
 47 48  1  0
 48 49  2  0
 49 50  1  0
 49 51  1  0
 51 52  2  0
 45 53  1  0
 53 54  2  0
 54 55  1  0
 55 56  2  0
 56 57  1  0
 56 58  1  0
 58 59  2  0
 44 60  1  0
 60 61  1  0
 43 62  1  0
 62 63  1  0
 63 64  1  0
 64 65  1  0
 65 66  2  0
 66 67  1  0
 67 68  1  0
 68 69  1  0
 67 70  1  0
 70 71  1  0
 67 72  1  0
 72 73  1  0
 66 74  1  0
 74 75  2  0
 75 76  1  0
 76 77  2  0
 77 78  1  0
 78 79  1  0
 79 80  1  0
 78 81  1  0
 81 82  1  0
 78 83  1  0
 83 84  2  0
 77 85  1  0
 85 86  2  0
 86 87  1  0
 87 88  2  0
 88 89  1  0
 89 90  1  0
 90 91  2  0
 89 92  1  0
 92 93  1  0
 89 94  1  0
 94 95  1  0
 88 96  1  0
 96 97  2  0
 97 98  1  0
 97 99  1  0
 99100  2  0
100101  1  0
101102  2  0
102103  1  0
103104  2  0
102105  1  0
105106  2  3
106107  1  0
107108  2  0
107109  1  0
109110  2  0
110111  1  0
111112  2  0
112113  1  0
113114  2  0
114115  1  0
115116  2  3
116117  1  0
117118  3  0
116119  1  0
119120  3  0
112121  1  0
121122  1  0
122123  1  0
123124  2  0
124125  1  0
125126  1  0
125127  1  0
 11  2  1  0
 23 17  1  0
 61 24  1  0
 69 62  2  0
 83 75  1  0
 90 86  1  0
104 99  1  0
115106  1  0
127121  1  0
 10  5  1  0
 22 18  1  0
 33 27  1  0
 40 34  1  0
 60 41  2  0
 68 64  2  0
 91 76  1  0
114109  1  0
126122  1  0
 23  7  1  0
 52 46  1  0
 59 53  1  0
 84 65  1  0
 98 87  1  0
127111  1  0
  1128  1  0
  6129  1  0
  9130  1  0
 17131  1  0
 18132  1  0
 19133  1  0
 20134  1  0
 21135  1  0
 22136  1  0
 22137  1  0
 23138  1  0
 28139  1  0
 29140  1  0
 31141  1  0
 31142  1  0
 31143  1  0
 32144  1  0
 33145  1  0
 35146  1  0
 36147  1  0
 38148  1  0
 38149  1  0
 38150  1  0
 39151  1  0
 40152  1  0
 47153  1  0
 48154  1  0
 50155  1  0
 50156  1  0
 50157  1  0
 51158  1  0
 52159  1  0
 54160  1  0
 55161  1  0
 57162  1  0
 57163  1  0
 57164  1  0
 58165  1  0
 59166  1  0
 69167  1  0
 70168  1  0
 70169  1  0
 71170  1  0
 71171  1  0
 71172  1  0
 72173  1  0
 72174  1  0
 73175  1  0
 73176  1  0
 73177  1  0
 74178  1  0
 79179  1  0
 79180  1  0
 80181  1  0
 80182  1  0
 80183  1  0
 81184  1  0
 81185  1  0
 82186  1  0
 82187  1  0
 82188  1  0
 84189  1  0
 85190  1  0
 91191  1  0
 92192  1  0
 92193  1  0
 93194  1  0
 93195  1  0
 93196  1  0
 94197  1  0
 94198  1  0
 95199  1  0
 95200  1  0
 95201  1  0
 96202  1  0
100203  1  0
101204  1  0
103205  1  0
104206  1  0
105207  1  0
110208  1  0
113209  1  0
121210  1  0
122211  1  0
123212  1  0
124213  1  0
125214  1  0
126215  1  0
126216  1  0
127217  1  0
M  END

