
     RDKit          3D

262290  0  0  0  0  0  0  0  0999 V2000
   -2.2983    6.8558   -2.2662 C   0  0  0  0  0  0  0  0  0  0  0  0
   -2.4326    7.2557   -0.9795 C   0  0  0  0  0  0  0  0  0  0  0  0
   -1.5910    6.7742    0.1259 C   0  0  0  0  0  0  0  0  0  0  0  0
   -0.6670    5.9095    0.0540 O   0  0  0  0  0  0  0  0  0  0  0  0
   -2.0575    7.3349    1.3651 C   0  0  0  0  0  0  0  0  0  0  0  0
   -1.4314    7.2206    2.6264 C   0  0  0  0  0  0  0  0  0  0  0  0
   -2.0618    7.9144    3.6341 C   0  0  0  0  0  0  0  0  0  0  0  0
   -3.2597    8.6723    3.4336 C   0  0  0  0  0  0  0  0  0  0  0  0
   -3.8768    8.8011    2.1950 C   0  0  0  0  0  0  0  0  0  0  0  0
   -3.2275    8.1031    1.1260 C   0  0  0  0  0  0  0  0  0  0  0  0
   -3.5137    8.0982   -0.3481 C   0  0  0  0  0  0  0  0  0  0  0  0
   -4.4892    8.8035   -0.9864 C   0  0  0  0  0  0  0  0  0  0  0  0
   -5.5044    9.5436   -0.2981 C   0  0  0  0  0  0  0  0  0  0  0  0
   -6.3311   10.1547    0.2371 N   0  0  0  0  0  0  0  0  0  0  0  0
   -4.5733    8.8929   -2.4236 C   0  0  0  0  0  0  0  0  0  0  0  0
   -4.6443    8.9929   -3.5731 N   0  0  0  0  0  0  0  0  0  0  0  0
   -3.2856    9.0472    4.8857 C   0  0  0  0  0  0  0  0  0  0  0  0
   -4.3187    8.3020    5.7881 C   0  0  0  0  0  0  0  0  0  0  0  0
   -3.8781    8.5347    7.2121 C   0  0  0  0  0  0  0  0  0  0  0  0
   -2.7528    7.8306    7.3829 C   0  0  0  0  0  0  0  0  0  0  0  0
   -2.4717    7.1499    6.0680 C   0  0  0  0  0  0  0  0  0  0  0  0
   -3.9043    6.8438    5.6546 C   0  0  0  0  0  0  0  0  0  0  0  0
   -2.0497    8.2789    5.0838 C   0  0  0  0  0  0  0  0  0  0  0  0
   -1.0894    6.1563   -2.7409 C   0  0  0  0  0  0  0  0  0  0  0  0
   -1.0279    4.8355   -3.2190 C   0  0  0  0  0  0  0  0  0  0  0  0
   -2.1356    4.1232   -3.7894 N   0  0  0  0  0  0  0  0  0  0  0  0
   -2.0699    3.7469   -5.1845 C   0  0  0  0  0  0  0  0  0  0  0  0
   -2.5237    2.4860   -5.6172 C   0  0  0  0  0  0  0  0  0  0  0  0
   -2.3671    2.1015   -6.9531 C   0  0  0  0  0  0  0  0  0  0  0  0
   -1.7442    2.9589   -7.8704 C   0  0  0  0  0  0  0  0  0  0  0  0
   -1.5904    2.5556   -9.3081 C   0  0  0  0  0  0  0  0  0  0  0  0
   -1.3384    4.2321   -7.4551 C   0  0  0  0  0  0  0  0  0  0  0  0
   -1.4942    4.6208   -6.1251 C   0  0  0  0  0  0  0  0  0  0  0  0
   -3.2195    3.6873   -2.9563 C   0  0  0  0  0  0  0  0  0  0  0  0
   -4.5322    4.0900   -3.2385 C   0  0  0  0  0  0  0  0  0  0  0  0
   -5.6057    3.5614   -2.5121 C   0  0  0  0  0  0  0  0  0  0  0  0
   -5.3777    2.6013   -1.5125 C   0  0  0  0  0  0  0  0  0  0  0  0
   -6.5164    1.9692   -0.7710 C   0  0  0  0  0  0  0  0  0  0  0  0
   -4.0633    2.2121   -1.2224 C   0  0  0  0  0  0  0  0  0  0  0  0
   -2.9900    2.7606   -1.9290 C   0  0  0  0  0  0  0  0  0  0  0  0
    0.2902    4.4012   -3.3210 C   0  0  0  0  0  0  0  0  0  0  0  0
    0.9995    2.8941   -3.4493 S   0  0  0  0  0  0  0  0  0  0  0  0
    2.5840    3.4475   -3.1403 C   0  0  0  0  0  0  0  0  0  0  0  0
    2.5447    4.8392   -2.9187 C   0  0  0  0  0  0  0  0  0  0  0  0
    3.6987    5.6980   -2.8097 N   0  0  0  0  0  0  0  0  0  0  0  0
    3.7058    6.9357   -3.5612 C   0  0  0  0  0  0  0  0  0  0  0  0
    4.1452    8.1259   -2.9628 C   0  0  0  0  0  0  0  0  0  0  0  0
    4.0859    9.3353   -3.6578 C   0  0  0  0  0  0  0  0  0  0  0  0
    3.6023    9.3738   -4.9727 C   0  0  0  0  0  0  0  0  0  0  0  0
    3.4588   10.6832   -5.6902 C   0  0  0  0  0  0  0  0  0  0  0  0
    3.1772    8.1844   -5.5829 C   0  0  0  0  0  0  0  0  0  0  0  0
    3.2419    6.9726   -4.8869 C   0  0  0  0  0  0  0  0  0  0  0  0
    4.8052    5.3909   -1.9448 C   0  0  0  0  0  0  0  0  0  0  0  0
    4.5881    5.1212   -0.5851 C   0  0  0  0  0  0  0  0  0  0  0  0
    5.6708    4.9395    0.2810 C   0  0  0  0  0  0  0  0  0  0  0  0
    6.9898    5.0446   -0.1981 C   0  0  0  0  0  0  0  0  0  0  0  0
    8.1470    4.9489    0.7568 C   0  0  0  0  0  0  0  0  0  0  0  0
    7.2035    5.2982   -1.5624 C   0  0  0  0  0  0  0  0  0  0  0  0
    6.1211    5.4785   -2.4301 C   0  0  0  0  0  0  0  0  0  0  0  0
    1.2379    5.3180   -3.0135 C   0  0  0  0  0  0  0  0  0  0  0  0
    0.5023    6.7490   -2.5592 S   0  0  0  0  0  0  0  0  0  0  0  0
    3.5741    2.5584   -2.5309 C   0  0  0  0  0  0  0  0  0  0  0  0
    4.6773    1.9050   -3.1283 C   0  0  0  0  0  0  0  0  0  0  0  0
    5.0975    2.0213   -4.5430 C   0  0  0  0  0  0  0  0  0  0  0  0
    4.1552    2.0825   -5.5841 C   0  0  0  0  0  0  0  0  0  0  0  0
    4.5763    2.1604   -6.9157 C   0  0  0  0  0  0  0  0  0  0  0  0
    5.9418    2.1676   -7.2216 C   0  0  0  0  0  0  0  0  0  0  0  0
    6.8972    2.1131   -6.1945 C   0  0  0  0  0  0  0  0  0  0  0  0
    8.3657    2.0704   -6.5151 C   0  0  0  0  0  0  0  0  0  0  0  0
    8.8286    0.6288   -6.7102 C   0  0  0  0  0  0  0  0  0  0  0  0
    6.4652    2.0454   -4.8624 C   0  0  0  0  0  0  0  0  0  0  0  0
    5.3089    1.0755   -2.1854 C   0  0  0  0  0  0  0  0  0  0  0  0
    6.4767   -0.1716   -2.3045 S   0  0  0  0  0  0  0  0  0  0  0  0
    6.2607   -0.6019   -0.6751 C   0  0  0  0  0  0  0  0  0  0  0  0
    6.4376   -1.7201    0.0954 C   0  0  0  0  0  0  0  0  0  0  0  0
    7.0354   -2.9486   -0.2072 C   0  0  0  0  0  0  0  0  0  0  0  0
    6.7946   -4.0595    0.6592 C   0  0  0  0  0  0  0  0  0  0  0  0
    7.3519   -5.2459    0.3100 N   0  0  0  0  0  0  0  0  0  0  0  0
    8.1235   -4.7925   -1.0818 S   0  0  0  0  0  0  0  0  0  0  0  0
    7.7983   -3.1805   -1.3016 N   0  0  0  0  0  0  0  0  0  0  0  0
    6.0109   -3.8702    1.8047 C   0  0  0  0  0  0  0  0  0  0  0  0
    5.5064   -4.7466    2.7338 C   0  0  0  0  0  0  0  0  0  0  0  0
    4.9816   -6.3531    2.5891 S   0  0  0  0  0  0  0  0  0  0  0  0
    3.6233   -6.0931    3.5772 C   0  0  0  0  0  0  0  0  0  0  0  0
    2.3892   -6.7671    3.6186 C   0  0  0  0  0  0  0  0  0  0  0  0
    2.2394   -8.2459    3.6698 C   0  0  0  0  0  0  0  0  0  0  0  0
    2.9832   -9.1051    2.8450 C   0  0  0  0  0  0  0  0  0  0  0  0
    2.8284  -10.4896    2.9435 C   0  0  0  0  0  0  0  0  0  0  0  0
    1.9442  -11.0340    3.8812 C   0  0  0  0  0  0  0  0  0  0  0  0
    1.2208  -10.1942    4.7396 C   0  0  0  0  0  0  0  0  0  0  0  0
    0.2640  -10.7598    5.7601 C   0  0  0  0  0  0  0  0  0  0  0  0
    0.9063  -10.7952    7.1421 C   0  0  0  0  0  0  0  0  0  0  0  0
    1.3750   -8.8048    4.6293 C   0  0  0  0  0  0  0  0  0  0  0  0
    1.3353   -5.8602    3.8654 C   0  0  0  0  0  0  0  0  0  0  0  0
    1.9801   -4.3100    4.1324 S   0  0  0  0  0  0  0  0  0  0  0  0
    3.5724   -4.7607    3.9319 C   0  0  0  0  0  0  0  0  0  0  0  0
    4.6722   -4.0090    3.5285 C   0  0  0  0  0  0  0  0  0  0  0  0
    4.6909   -2.6804    3.2394 N   0  0  0  0  0  0  0  0  0  0  0  0
    5.4392   -2.6313    2.1053 C   0  0  0  0  0  0  0  0  0  0  0  0
    5.5828   -1.5556    1.1976 C   0  0  0  0  0  0  0  0  0  0  0  0
    4.8240   -0.4184    1.0654 N   0  0  0  0  0  0  0  0  0  0  0  0
    5.2878    0.1360   -0.0798 C   0  0  0  0  0  0  0  0  0  0  0  0
    4.7447    1.0832   -0.9380 C   0  0  0  0  0  0  0  0  0  0  0  0
    3.4033    2.0710   -0.9129 S   0  0  0  0  0  0  0  0  0  0  0  0
    3.5126   -0.1170    1.6544 C   0  0  0  0  0  0  0  0  0  0  0  0
    2.4013   -0.8653    0.9232 C   0  0  0  0  0  0  0  0  0  0  0  0
    4.9354   -1.7122    4.3263 C   0  0  0  0  0  0  0  0  0  0  0  0
    3.7377   -1.5799    5.2651 C   0  0  0  0  0  0  0  0  0  0  0  0
   -0.1050   -6.0536    3.5709 C   0  0  0  0  0  0  0  0  0  0  0  0
   -0.6553   -6.7230    2.4504 C   0  0  0  0  0  0  0  0  0  0  0  0
    0.0738   -7.4875    1.4698 N   0  0  0  0  0  0  0  0  0  0  0  0
   -0.4670   -8.7830    1.1069 C   0  0  0  0  0  0  0  0  0  0  0  0
   -0.6350   -9.1491   -0.2425 C   0  0  0  0  0  0  0  0  0  0  0  0
   -1.1521  -10.4031   -0.5821 C   0  0  0  0  0  0  0  0  0  0  0  0
   -1.5393  -11.3049    0.4212 C   0  0  0  0  0  0  0  0  0  0  0  0
   -2.0312  -12.6796    0.0705 C   0  0  0  0  0  0  0  0  0  0  0  0
   -1.4160  -10.9273    1.7653 C   0  0  0  0  0  0  0  0  0  0  0  0
   -0.9062   -9.6710    2.1026 C   0  0  0  0  0  0  0  0  0  0  0  0
    1.1294   -6.8701    0.6845 C   0  0  0  0  0  0  0  0  0  0  0  0
    1.2098   -5.4722    0.5458 C   0  0  0  0  0  0  0  0  0  0  0  0
    2.2395   -4.8908   -0.2043 C   0  0  0  0  0  0  0  0  0  0  0  0
    3.2032   -5.6917   -0.8265 C   0  0  0  0  0  0  0  0  0  0  0  0
    4.2702   -5.0651   -1.6761 C   0  0  0  0  0  0  0  0  0  0  0  0
    3.1108   -7.0824   -0.7232 C   0  0  0  0  0  0  0  0  0  0  0  0
    2.0917   -7.6674    0.0341 C   0  0  0  0  0  0  0  0  0  0  0  0
   -1.9799   -6.3413    2.2340 C   0  0  0  0  0  0  0  0  0  0  0  0
   -2.9662   -6.4581    0.8852 S   0  0  0  0  0  0  0  0  0  0  0  0
   -4.0849   -5.3069    1.4366 C   0  0  0  0  0  0  0  0  0  0  0  0
   -3.6774   -4.8204    2.6893 C   0  0  0  0  0  0  0  0  0  0  0  0
   -4.3716   -3.8019    3.4303 N   0  0  0  0  0  0  0  0  0  0  0  0
   -5.2789   -4.1548    4.5084 C   0  0  0  0  0  0  0  0  0  0  0  0
   -5.4721   -5.5030    4.8835 C   0  0  0  0  0  0  0  0  0  0  0  0
   -6.3426   -5.8431    5.9238 C   0  0  0  0  0  0  0  0  0  0  0  0
   -7.0449   -4.8477    6.6156 C   0  0  0  0  0  0  0  0  0  0  0  0
   -8.0029   -5.2016    7.7156 C   0  0  0  0  0  0  0  0  0  0  0  0
   -6.8551   -3.5037    6.2622 C   0  0  0  0  0  0  0  0  0  0  0  0
   -5.9826   -3.1601    5.2251 C   0  0  0  0  0  0  0  0  0  0  0  0
   -4.1006   -2.4279    3.1098 C   0  0  0  0  0  0  0  0  0  0  0  0
   -4.9506   -1.7219    2.2451 C   0  0  0  0  0  0  0  0  0  0  0  0
   -4.7534   -0.3538    2.0221 C   0  0  0  0  0  0  0  0  0  0  0  0
   -3.7262    0.3337    2.6895 C   0  0  0  0  0  0  0  0  0  0  0  0
   -3.5413    1.8096    2.5005 C   0  0  0  0  0  0  0  0  0  0  0  0
   -2.8723   -0.3766    3.5473 C   0  0  0  0  0  0  0  0  0  0  0  0
   -3.0694   -1.7459    3.7660 C   0  0  0  0  0  0  0  0  0  0  0  0
   -2.4872   -5.4254    3.1003 C   0  0  0  0  0  0  0  0  0  0  0  0
   -1.3064   -5.0199    4.2182 S   0  0  0  0  0  0  0  0  0  0  0  0
   -5.0978   -4.7065    0.5656 C   0  0  0  0  0  0  0  0  0  0  0  0
   -4.7751   -3.7946   -0.3771 C   0  0  0  0  0  0  0  0  0  0  0  0
   -3.4169   -3.3143   -0.6648 C   0  0  0  0  0  0  0  0  0  0  0  0
   -2.3935   -3.4710    0.0581 O   0  0  0  0  0  0  0  0  0  0  0  0
   -3.4430   -2.5699   -1.8986 C   0  0  0  0  0  0  0  0  0  0  0  0
   -2.3631   -2.0182   -2.5896 C   0  0  0  0  0  0  0  0  0  0  0  0
   -2.6065   -1.3911   -3.8197 C   0  0  0  0  0  0  0  0  0  0  0  0
   -3.9095   -1.3440   -4.3433 C   0  0  0  0  0  0  0  0  0  0  0  0
   -4.1239   -0.7725   -5.5574 F   0  0  0  0  0  0  0  0  0  0  0  0
   -4.9827   -1.9120   -3.6359 C   0  0  0  0  0  0  0  0  0  0  0  0
   -4.7396   -2.5098   -2.3828 C   0  0  0  0  0  0  0  0  0  0  0  0
   -5.6660   -3.1874   -1.4266 C   0  0  0  0  0  0  0  0  0  0  0  0
   -7.0224   -3.0978   -1.4038 C   0  0  0  0  0  0  0  0  0  0  0  0
   -7.8232   -3.6052   -0.3197 C   0  0  0  0  0  0  0  0  0  0  0  0
   -8.4842   -4.0019    0.5458 N   0  0  0  0  0  0  0  0  0  0  0  0
   -7.7699   -2.3850   -2.4068 C   0  0  0  0  0  0  0  0  0  0  0  0
   -8.3879   -1.8105   -3.1997 N   0  0  0  0  0  0  0  0  0  0  0  0
   -3.0800    7.0023   -2.9876 H   0  0  0  0  0  0  0  0  0  0  0  0
   -0.5144    6.6773    2.7760 H   0  0  0  0  0  0  0  0  0  0  0  0
   -4.7598    9.4094    2.1022 H   0  0  0  0  0  0  0  0  0  0  0  0
   -3.1878   10.1424    5.0699 H   0  0  0  0  0  0  0  0  0  0  0  0
   -5.3860    8.5188    5.5771 H   0  0  0  0  0  0  0  0  0  0  0  0
   -4.4234    9.0742    7.9865 H   0  0  0  0  0  0  0  0  0  0  0  0
   -2.2263    7.6962    8.3189 H   0  0  0  0  0  0  0  0  0  0  0  0
   -1.7815    6.2809    6.1288 H   0  0  0  0  0  0  0  0  0  0  0  0
   -4.4340    6.1600    6.3584 H   0  0  0  0  0  0  0  0  0  0  0  0
   -4.0110    6.4278    4.6242 H   0  0  0  0  0  0  0  0  0  0  0  0
   -1.1620    8.8760    5.3936 H   0  0  0  0  0  0  0  0  0  0  0  0
   -2.9714    1.7917   -4.9163 H   0  0  0  0  0  0  0  0  0  0  0  0
   -2.7097    1.1263   -7.2679 H   0  0  0  0  0  0  0  0  0  0  0  0
   -0.6815    3.0206   -9.7517 H   0  0  0  0  0  0  0  0  0  0  0  0
   -1.4893    1.4530   -9.4076 H   0  0  0  0  0  0  0  0  0  0  0  0
   -2.4775    2.8906   -9.8862 H   0  0  0  0  0  0  0  0  0  0  0  0
   -0.8851    4.9169   -8.1598 H   0  0  0  0  0  0  0  0  0  0  0  0
   -1.1569    5.6056   -5.8288 H   0  0  0  0  0  0  0  0  0  0  0  0
   -4.7238    4.8089   -4.0239 H   0  0  0  0  0  0  0  0  0  0  0  0
   -6.6124    3.8873   -2.7493 H   0  0  0  0  0  0  0  0  0  0  0  0
   -7.5023    2.3560   -1.1104 H   0  0  0  0  0  0  0  0  0  0  0  0
   -6.4123    2.1670    0.3152 H   0  0  0  0  0  0  0  0  0  0  0  0
   -6.4977    0.8690   -0.9360 H   0  0  0  0  0  0  0  0  0  0  0  0
   -3.8746    1.4709   -0.4579 H   0  0  0  0  0  0  0  0  0  0  0  0
   -1.9831    2.4278   -1.7092 H   0  0  0  0  0  0  0  0  0  0  0  0
    4.5110    8.1141   -1.9427 H   0  0  0  0  0  0  0  0  0  0  0  0
    4.4160   10.2429   -3.1603 H   0  0  0  0  0  0  0  0  0  0  0  0
    2.4365   11.0821   -5.5201 H   0  0  0  0  0  0  0  0  0  0  0  0
    4.2012   11.4189   -5.3161 H   0  0  0  0  0  0  0  0  0  0  0  0
    3.6208   10.5488   -6.7791 H   0  0  0  0  0  0  0  0  0  0  0  0
    2.8036    8.1877   -6.5985 H   0  0  0  0  0  0  0  0  0  0  0  0
    2.9071    6.0657   -5.3774 H   0  0  0  0  0  0  0  0  0  0  0  0
    3.5784    5.0781   -0.1965 H   0  0  0  0  0  0  0  0  0  0  0  0
    5.4873    4.7658    1.3317 H   0  0  0  0  0  0  0  0  0  0  0  0
    7.9541    4.1660    1.5199 H   0  0  0  0  0  0  0  0  0  0  0  0
    9.0837    4.6822    0.2215 H   0  0  0  0  0  0  0  0  0  0  0  0
    8.2918    5.9285    1.2623 H   0  0  0  0  0  0  0  0  0  0  0  0
    8.2115    5.3765   -1.9517 H   0  0  0  0  0  0  0  0  0  0  0  0
    6.3012    5.6803   -3.4763 H   0  0  0  0  0  0  0  0  0  0  0  0
    3.0935    2.0381   -5.3814 H   0  0  0  0  0  0  0  0  0  0  0  0
    3.8410    2.1982   -7.7135 H   0  0  0  0  0  0  0  0  0  0  0  0
    6.2495    2.2051   -8.2603 H   0  0  0  0  0  0  0  0  0  0  0  0
    8.9474    2.5229   -5.6866 H   0  0  0  0  0  0  0  0  0  0  0  0
    8.5802    2.6583   -7.4278 H   0  0  0  0  0  0  0  0  0  0  0  0
    8.2819    0.1555   -7.5577 H   0  0  0  0  0  0  0  0  0  0  0  0
    9.9159    0.6060   -6.9297 H   0  0  0  0  0  0  0  0  0  0  0  0
    8.6422    0.0391   -5.7844 H   0  0  0  0  0  0  0  0  0  0  0  0
    7.1996    2.0095   -4.0715 H   0  0  0  0  0  0  0  0  0  0  0  0
    3.6601   -8.7118    2.1020 H   0  0  0  0  0  0  0  0  0  0  0  0
    3.3702  -11.1413    2.2774 H   0  0  0  0  0  0  0  0  0  0  0  0
    1.8294  -12.1084    3.9404 H   0  0  0  0  0  0  0  0  0  0  0  0
   -0.0533  -11.7842    5.4740 H   0  0  0  0  0  0  0  0  0  0  0  0
   -0.6538  -10.1321    5.7927 H   0  0  0  0  0  0  0  0  0  0  0  0
    1.3822   -9.8215    7.3821 H   0  0  0  0  0  0  0  0  0  0  0  0
    1.6829  -11.5874    7.1780 H   0  0  0  0  0  0  0  0  0  0  0  0
    0.1330  -11.0040    7.9042 H   0  0  0  0  0  0  0  0  0  0  0  0
    0.8286   -8.1563    5.3039 H   0  0  0  0  0  0  0  0  0  0  0  0
    3.3170    0.9755    1.6131 H   0  0  0  0  0  0  0  0  0  0  0  0
    3.4631   -0.3874    2.7148 H   0  0  0  0  0  0  0  0  0  0  0  0
    2.3988   -0.6039   -0.1590 H   0  0  0  0  0  0  0  0  0  0  0  0
    2.5608   -1.9617    1.0363 H   0  0  0  0  0  0  0  0  0  0  0  0
    1.4191   -0.6010    1.3689 H   0  0  0  0  0  0  0  0  0  0  0  0
    5.2002   -0.7176    3.9240 H   0  0  0  0  0  0  0  0  0  0  0  0
    5.8165   -2.0386    4.9228 H   0  0  0  0  0  0  0  0  0  0  0  0
    2.8095   -1.3820    4.6963 H   0  0  0  0  0  0  0  0  0  0  0  0
    3.6173   -2.5055    5.8691 H   0  0  0  0  0  0  0  0  0  0  0  0
    3.9125   -0.7320    5.9621 H   0  0  0  0  0  0  0  0  0  0  0  0
   -0.3781   -8.4619   -1.0351 H   0  0  0  0  0  0  0  0  0  0  0  0
   -1.2556  -10.6718   -1.6248 H   0  0  0  0  0  0  0  0  0  0  0  0
   -2.9096  -12.9462    0.7000 H   0  0  0  0  0  0  0  0  0  0  0  0
   -1.2212  -13.4177    0.2498 H   0  0  0  0  0  0  0  0  0  0  0  0
   -2.3389  -12.7384   -0.9946 H   0  0  0  0  0  0  0  0  0  0  0  0
   -1.7172  -11.6074    2.5546 H   0  0  0  0  0  0  0  0  0  0  0  0
   -0.8579   -9.3925    3.1404 H   0  0  0  0  0  0  0  0  0  0  0  0
    0.4766   -4.8211    1.0027 H   0  0  0  0  0  0  0  0  0  0  0  0
    2.2707   -3.8171   -0.3133 H   0  0  0  0  0  0  0  0  0  0  0  0
    3.9384   -5.0515   -2.7327 H   0  0  0  0  0  0  0  0  0  0  0  0
    4.4704   -4.0233   -1.3500 H   0  0  0  0  0  0  0  0  0  0  0  0
    5.2116   -5.6429   -1.5969 H   0  0  0  0  0  0  0  0  0  0  0  0
    3.8248   -7.7149   -1.2318 H   0  0  0  0  0  0  0  0  0  0  0  0
    2.0647   -8.7450    0.1117 H   0  0  0  0  0  0  0  0  0  0  0  0
   -4.9548   -6.3066    4.3781 H   0  0  0  0  0  0  0  0  0  0  0  0
   -6.4691   -6.8859    6.1870 H   0  0  0  0  0  0  0  0  0  0  0  0
   -8.0767   -6.3016    7.8544 H   0  0  0  0  0  0  0  0  0  0  0  0
   -7.6569   -4.7479    8.6679 H   0  0  0  0  0  0  0  0  0  0  0  0
   -9.0141   -4.8113    7.4771 H   0  0  0  0  0  0  0  0  0  0  0  0
   -7.3779   -2.7212    6.7984 H   0  0  0  0  0  0  0  0  0  0  0  0
   -5.8566   -2.1134    4.9954 H   0  0  0  0  0  0  0  0  0  0  0  0
   -5.7781   -2.2239    1.7635 H   0  0  0  0  0  0  0  0  0  0  0  0
   -5.4240    0.1672    1.3536 H   0  0  0  0  0  0  0  0  0  0  0  0
   -3.4321    2.3048    3.4881 H   0  0  0  0  0  0  0  0  0  0  0  0
   -2.6285    2.0008    1.8967 H   0  0  0  0  0  0  0  0  0  0  0  0
   -4.4130    2.2637    1.9833 H   0  0  0  0  0  0  0  0  0  0  0  0
   -2.0752    0.1322    4.0743 H   0  0  0  0  0  0  0  0  0  0  0  0
   -2.4395   -2.2691    4.4720 H   0  0  0  0  0  0  0  0  0  0  0  0
   -6.0924   -5.1023    0.6554 H   0  0  0  0  0  0  0  0  0  0  0  0
   -1.3546   -2.0851   -2.1960 H   0  0  0  0  0  0  0  0  0  0  0  0
   -1.7853   -0.9586   -4.3744 H   0  0  0  0  0  0  0  0  0  0  0  0
   -5.9558   -1.8965   -4.0948 H   0  0  0  0  0  0  0  0  0  0  0  0
  1  2  2  3
  2  3  1  0
  3  4  2  0
  3  5  1  0
  5  6  2  0
  6  7  1  0
  7  8  2  0
  8  9  1  0
  9 10  2  0
 10 11  1  0
 11 12  2  3
 12 13  1  0
 13 14  3  0
 12 15  1  0
 15 16  3  0
  8 17  1  0
 17 18  1  0
 18 19  1  0
 19 20  2  0
 20 21  1  0
 21 22  1  0
 21 23  1  0
  1 24  1  0
 24 25  2  0
 25 26  1  0
 26 27  1  0
 27 28  2  0
 28 29  1  0
 29 30  2  0
 30 31  1  0
 30 32  1  0
 32 33  2  0
 26 34  1  0
 34 35  2  0
 35 36  1  0
 36 37  2  0
 37 38  1  0
 37 39  1  0
 39 40  2  0
 25 41  1  0
 41 42  1  0
 42 43  1  0
 43 44  2  0
 44 45  1  0
 45 46  1  0
 46 47  2  0
 47 48  1  0
 48 49  2  0
 49 50  1  0
 49 51  1  0
 51 52  2  0
 45 53  1  0
 53 54  2  0
 54 55  1  0
 55 56  2  0
 56 57  1  0
 56 58  1  0
 58 59  2  0
 44 60  1  0
 60 61  1  0
 43 62  1  0
 62 63  2  0
 63 64  1  0
 64 65  2  0
 65 66  1  0
 66 67  2  0
 67 68  1  0
 68 69  1  0
 69 70  1  0
 68 71  2  0
 63 72  1  0
 72 73  1  0
 73 74  1  0
 74 75  1  0
 75 76  1  0
 76 77  1  0
 77 78  2  0
 78 79  1  0
 79 80  1  0
 77 81  1  0
 81 82  1  0
 82 83  1  0
 83 84  1  0
 84 85  1  0
 85 86  1  0
 86 87  2  0
 87 88  1  0
 88 89  2  0
 89 90  1  0
 90 91  1  0
 91 92  1  0
 90 93  2  0
 85 94  2  0
 94 95  1  0
 95 96  1  0
 96 97  1  0
 97 98  1  0
 98 99  1  0
 99100  1  0
100101  1  0
101102  1  0
102103  1  0
103104  1  0
101105  1  0
105106  1  0
 98107  1  0
107108  1  0
 94109  1  0
109110  2  0
110111  1  0
111112  1  0
112113  2  0
113114  1  0
114115  2  0
115116  1  0
115117  1  0
117118  2  0
111119  1  0
119120  2  0
120121  1  0
121122  2  0
122123  1  0
122124  1  0
124125  2  0
110126  1  0
126127  1  0
127128  1  0
128129  2  0
129130  1  0
130131  1  0
131132  2  0
132133  1  0
133134  2  0
134135  1  0
134136  1  0
136137  2  0
130138  1  0
138139  2  0
139140  1  0
140141  2  0
141142  1  0
141143  1  0
143144  2  0
129145  1  0
145146  1  0
128147  1  0
147148  2  3
148149  1  0
149150  2  0
149151  1  0
151152  2  0
152153  1  0
153154  2  0
154155  1  0
154156  1  0
156157  2  0
157158  1  0
158159  2  3
159160  1  0
160161  3  0
159162  1  0
162163  3  0
 11  2  1  0
 23 17  1  0
 61 24  1  0
104 62  1  0
146109  1  0
158148  1  0
 10  5  1  0
 22 18  1  0
 33 27  1  0
 40 34  1  0
 60 41  2  0
 71 64  1  0
103 72  2  0
118112  1  0
125119  1  0
145126  2  0
157151  1  0
 23  7  1  0
 52 46  1  0
 59 53  1  0
102 74  2  0
137131  1  0
144138  1  0
100 75  2  0
 80 76  2  0
 99 81  2  0
 97 82  2  0
 96 84  2  0
 93 86  1  0
  1164  1  0
  6165  1  0
  9166  1  0
 17167  1  0
 18168  1  0
 19169  1  0
 20170  1  0
 21171  1  0
 22172  1  0
 22173  1  0
 23174  1  0
 28175  1  0
 29176  1  0
 31177  1  0
 31178  1  0
 31179  1  0
 32180  1  0
 33181  1  0
 35182  1  0
 36183  1  0
 38184  1  0
 38185  1  0
 38186  1  0
 39187  1  0
 40188  1  0
 47189  1  0
 48190  1  0
 50191  1  0
 50192  1  0
 50193  1  0
 51194  1  0
 52195  1  0
 54196  1  0
 55197  1  0
 57198  1  0
 57199  1  0
 57200  1  0
 58201  1  0
 59202  1  0
 65203  1  0
 66204  1  0
 67205  1  0
 69206  1  0
 69207  1  0
 70208  1  0
 70209  1  0
 70210  1  0
 71211  1  0
 87212  1  0
 88213  1  0
 89214  1  0
 91215  1  0
 91216  1  0
 92217  1  0
 92218  1  0
 92219  1  0
 93220  1  0
105221  1  0
105222  1  0
106223  1  0
106224  1  0
106225  1  0
107226  1  0
107227  1  0
108228  1  0
108229  1  0
108230  1  0
113231  1  0
114232  1  0
116233  1  0
116234  1  0
116235  1  0
117236  1  0
118237  1  0
120238  1  0
121239  1  0
123240  1  0
123241  1  0
123242  1  0
124243  1  0
125244  1  0
132245  1  0
133246  1  0
135247  1  0
135248  1  0
135249  1  0
136250  1  0
137251  1  0
139252  1  0
140253  1  0
142254  1  0
142255  1  0
142256  1  0
143257  1  0
144258  1  0
147259  1  0
152260  1  0
153261  1  0
156262  1  0
M  END

