
     RDKit          3D

300331  0  0  0  0  0  0  0  0999 V2000
    8.1404    4.0073    1.7981 C   0  0  0  0  0  0  0  0  0  0  0  0
    7.4128    5.1178    1.5628 C   0  0  0  0  0  0  0  0  0  0  0  0
    6.1783    5.1424    0.7715 C   0  0  0  0  0  0  0  0  0  0  0  0
    6.0053    4.5578   -0.3272 O   0  0  0  0  0  0  0  0  0  0  0  0
    5.2776    6.1250    1.3189 C   0  0  0  0  0  0  0  0  0  0  0  0
    3.9108    6.2804    1.0012 C   0  0  0  0  0  0  0  0  0  0  0  0
    3.2544    7.2139    1.7898 C   0  0  0  0  0  0  0  0  0  0  0  0
    3.9073    7.9316    2.8477 C   0  0  0  0  0  0  0  0  0  0  0  0
    5.2473    7.7568    3.1759 C   0  0  0  0  0  0  0  0  0  0  0  0
    5.9469    6.8480    2.3319 C   0  0  0  0  0  0  0  0  0  0  0  0
    7.3416    6.3292    2.4468 C   0  0  0  0  0  0  0  0  0  0  0  0
    8.3561    6.9294    3.1280 C   0  0  0  0  0  0  0  0  0  0  0  0
    8.2159    8.2473    3.6706 C   0  0  0  0  0  0  0  0  0  0  0  0
    8.1194    9.3196    4.1000 N   0  0  0  0  0  0  0  0  0  0  0  0
    9.6197    6.2868    3.3969 C   0  0  0  0  0  0  0  0  0  0  0  0
   10.6225    5.7801    3.6944 N   0  0  0  0  0  0  0  0  0  0  0  0
    2.6219    8.6126    3.2051 C   0  0  0  0  0  0  0  0  0  0  0  0
    1.8633    8.1298    4.4758 C   0  0  0  0  0  0  0  0  0  0  0  0
    2.1144    6.6635    4.7038 C   0  0  0  0  0  0  0  0  0  0  0  0
    1.5103    6.0015    3.7154 C   0  0  0  0  0  0  0  0  0  0  0  0
    0.8616    7.0504    2.8364 C   0  0  0  0  0  0  0  0  0  0  0  0
    0.4442    8.0353    3.9120 C   0  0  0  0  0  0  0  0  0  0  0  0
    1.9546    7.8893    2.1139 C   0  0  0  0  0  0  0  0  0  0  0  0
    7.4662    2.7066    1.9648 C   0  0  0  0  0  0  0  0  0  0  0  0
    6.7929    1.9096    1.0022 C   0  0  0  0  0  0  0  0  0  0  0  0
    7.0426    1.9437   -0.4187 N   0  0  0  0  0  0  0  0  0  0  0  0
    8.4042    2.1441   -0.8516 C   0  0  0  0  0  0  0  0  0  0  0  0
    9.4346    1.3371   -0.3356 C   0  0  0  0  0  0  0  0  0  0  0  0
   10.7585    1.5776   -0.6933 C   0  0  0  0  0  0  0  0  0  0  0  0
   11.0781    2.6207   -1.5767 C   0  0  0  0  0  0  0  0  0  0  0  0
   12.4997    2.8462   -1.9680 C   0  0  0  0  0  0  0  0  0  0  0  0
   10.0514    3.4118   -2.1096 C   0  0  0  0  0  0  0  0  0  0  0  0
    8.7236    3.1779   -1.7499 C   0  0  0  0  0  0  0  0  0  0  0  0
    6.0031    1.6867   -1.3962 C   0  0  0  0  0  0  0  0  0  0  0  0
    6.2982    1.0081   -2.5994 C   0  0  0  0  0  0  0  0  0  0  0  0
    5.2958    0.7701   -3.5442 C   0  0  0  0  0  0  0  0  0  0  0  0
    3.9833    1.1940   -3.3079 C   0  0  0  0  0  0  0  0  0  0  0  0
    2.9162    0.9654   -4.3265 C   0  0  0  0  0  0  0  0  0  0  0  0
    3.6817    1.8778   -2.1249 C   0  0  0  0  0  0  0  0  0  0  0  0
    4.6766    2.1239   -1.1799 C   0  0  0  0  0  0  0  0  0  0  0  0
    5.9739    0.9727    1.6313 C   0  0  0  0  0  0  0  0  0  0  0  0
    4.6988    0.0118    1.1332 S   0  0  0  0  0  0  0  0  0  0  0  0
    4.1150   -0.3427    2.6894 C   0  0  0  0  0  0  0  0  0  0  0  0
    4.9758    0.2559    3.6299 C   0  0  0  0  0  0  0  0  0  0  0  0
    4.8349    0.1286    5.0572 N   0  0  0  0  0  0  0  0  0  0  0  0
    5.2076    1.2119    5.9271 C   0  0  0  0  0  0  0  0  0  0  0  0
    4.5368    2.4417    5.8435 C   0  0  0  0  0  0  0  0  0  0  0  0
    4.9594    3.5182    6.6294 C   0  0  0  0  0  0  0  0  0  0  0  0
    6.0471    3.3806    7.5094 C   0  0  0  0  0  0  0  0  0  0  0  0
    6.5268    4.5526    8.3069 C   0  0  0  0  0  0  0  0  0  0  0  0
    6.7074    2.1458    7.5847 C   0  0  0  0  0  0  0  0  0  0  0  0
    6.2783    1.0600    6.8169 C   0  0  0  0  0  0  0  0  0  0  0  0
    4.5569   -1.1603    5.6271 C   0  0  0  0  0  0  0  0  0  0  0  0
    5.1132   -2.3237    5.0602 C   0  0  0  0  0  0  0  0  0  0  0  0
    4.7447   -3.5854    5.5322 C   0  0  0  0  0  0  0  0  0  0  0  0
    3.8031   -3.7013    6.5676 C   0  0  0  0  0  0  0  0  0  0  0  0
    3.3959   -5.0543    7.0659 C   0  0  0  0  0  0  0  0  0  0  0  0
    3.2964   -2.5435    7.1749 C   0  0  0  0  0  0  0  0  0  0  0  0
    3.6723   -1.2774    6.7084 C   0  0  0  0  0  0  0  0  0  0  0  0
    5.9833    0.9910    2.9960 C   0  0  0  0  0  0  0  0  0  0  0  0
    7.0380    2.1776    3.5183 S   0  0  0  0  0  0  0  0  0  0  0  0
    2.6578   -0.4625    2.9067 C   0  0  0  0  0  0  0  0  0  0  0  0
    1.7344    0.3623    2.2614 C   0  0  0  0  0  0  0  0  0  0  0  0
    0.4386    0.0371    2.6237 C   0  0  0  0  0  0  0  0  0  0  0  0
   -1.0697    0.5711    2.0709 S   0  0  0  0  0  0  0  0  0  0  0  0
   -1.8579   -0.5605    3.0587 C   0  0  0  0  0  0  0  0  0  0  0  0
   -3.1793   -1.1154    3.0708 C   0  0  0  0  0  0  0  0  0  0  0  0
   -4.2323   -0.7965    2.2136 C   0  0  0  0  0  0  0  0  0  0  0  0
   -5.1574   -1.8135    1.9316 C   0  0  0  0  0  0  0  0  0  0  0  0
   -6.1988   -1.8275    0.8082 C   0  0  0  0  0  0  0  0  0  0  0  0
   -5.7946   -0.8845   -0.3378 C   0  0  0  0  0  0  0  0  0  0  0  0
   -4.6283   -1.1287   -1.1044 C   0  0  0  0  0  0  0  0  0  0  0  0
   -4.1804   -0.1896   -2.0449 C   0  0  0  0  0  0  0  0  0  0  0  0
   -4.8683    1.0204   -2.2242 C   0  0  0  0  0  0  0  0  0  0  0  0
   -4.3345    2.0698   -3.1527 C   0  0  0  0  0  0  0  0  0  0  0  0
   -4.5477    1.6663   -4.4912 O   0  0  0  0  0  0  0  0  0  0  0  0
   -4.5197    2.7978   -5.3411 C   0  0  0  0  0  0  0  0  0  0  0  0
   -4.4381    2.3584   -6.6760 O   0  0  0  0  0  0  0  0  0  0  0  0
   -4.5703    3.4626   -7.5425 C   0  0  0  0  0  0  0  0  0  0  0  0
   -6.0280    1.2669   -1.4815 C   0  0  0  0  0  0  0  0  0  0  0  0
   -6.4750    0.3357   -0.5472 C   0  0  0  0  0  0  0  0  0  0  0  0
   -7.6238   -1.5726    1.3176 C   0  0  0  0  0  0  0  0  0  0  0  0
   -7.9090   -1.2650    2.6644 C   0  0  0  0  0  0  0  0  0  0  0  0
   -9.2263   -1.2420    3.1215 C   0  0  0  0  0  0  0  0  0  0  0  0
  -10.2888   -1.5247    2.2488 C   0  0  0  0  0  0  0  0  0  0  0  0
  -11.7035   -1.5724    2.7472 C   0  0  0  0  0  0  0  0  0  0  0  0
  -12.3718   -2.6897    2.1721 O   0  0  0  0  0  0  0  0  0  0  0  0
  -13.5929   -2.3013    1.5920 C   0  0  0  0  0  0  0  0  0  0  0  0
  -14.2393   -3.4303    1.0324 O   0  0  0  0  0  0  0  0  0  0  0  0
  -13.6117   -3.7963   -0.1751 C   0  0  0  0  0  0  0  0  0  0  0  0
  -10.0160   -1.7389    0.8890 C   0  0  0  0  0  0  0  0  0  0  0  0
   -8.6994   -1.7755    0.4308 C   0  0  0  0  0  0  0  0  0  0  0  0
   -6.1555   -3.3103    0.5023 C   0  0  0  0  0  0  0  0  0  0  0  0
   -5.5897   -4.0290    1.5398 C   0  0  0  0  0  0  0  0  0  0  0  0
   -4.9538   -3.0979    2.4499 C   0  0  0  0  0  0  0  0  0  0  0  0
   -3.9682   -3.3728    3.4133 C   0  0  0  0  0  0  0  0  0  0  0  0
   -3.0929   -2.3265    3.7689 C   0  0  0  0  0  0  0  0  0  0  0  0
   -1.7640   -2.4208    4.5385 C   0  0  0  0  0  0  0  0  0  0  0  0
   -1.2141   -3.8576    4.5881 C   0  0  0  0  0  0  0  0  0  0  0  0
   -0.1224   -4.3091    3.8250 C   0  0  0  0  0  0  0  0  0  0  0  0
    0.4853   -5.5470    4.1114 C   0  0  0  0  0  0  0  0  0  0  0  0
   -0.0398   -6.3879    5.1054 C   0  0  0  0  0  0  0  0  0  0  0  0
    0.6135   -7.7139    5.4528 C   0  0  0  0  0  0  0  0  0  0  0  0
    1.3112   -7.6647    6.6918 O   0  0  0  0  0  0  0  0  0  0  0  0
    0.4292   -7.7848    7.7991 C   0  0  0  0  0  0  0  0  0  0  0  0
    1.1049   -8.3436    8.9170 O   0  0  0  0  0  0  0  0  0  0  0  0
    1.9301   -7.3765    9.5202 C   0  0  0  0  0  0  0  0  0  0  0  0
   -1.2310   -6.0176    5.7373 C   0  0  0  0  0  0  0  0  0  0  0  0
   -1.7908   -4.7622    5.5020 C   0  0  0  0  0  0  0  0  0  0  0  0
   -1.8296   -1.8240    5.9493 C   0  0  0  0  0  0  0  0  0  0  0  0
   -2.9040   -1.0088    6.3839 C   0  0  0  0  0  0  0  0  0  0  0  0
   -2.8080   -0.2617    7.5656 C   0  0  0  0  0  0  0  0  0  0  0  0
   -1.6518   -0.3276    8.3506 C   0  0  0  0  0  0  0  0  0  0  0  0
   -1.4660    0.6033    9.5184 C   0  0  0  0  0  0  0  0  0  0  0  0
   -0.9903    1.8493    9.0489 O   0  0  0  0  0  0  0  0  0  0  0  0
    0.3915    1.9861    9.3143 C   0  0  0  0  0  0  0  0  0  0  0  0
    0.8195    3.2194    8.7685 O   0  0  0  0  0  0  0  0  0  0  0  0
    2.1865    3.4083    9.0581 C   0  0  0  0  0  0  0  0  0  0  0  0
   -0.6061   -1.1685    7.9615 C   0  0  0  0  0  0  0  0  0  0  0  0
   -0.6860   -1.8969    6.7759 C   0  0  0  0  0  0  0  0  0  0  0  0
   -1.0011   -1.3864    3.7386 C   0  0  0  0  0  0  0  0  0  0  0  0
    0.3196   -1.0004    3.5129 C   0  0  0  0  0  0  0  0  0  0  0  0
    1.8456   -1.5755    3.9183 S   0  0  0  0  0  0  0  0  0  0  0  0
   -5.0430   -5.5395    0.9994 S   0  0  0  0  0  0  0  0  0  0  0  0
   -5.6498   -5.2927   -0.5602 C   0  0  0  0  0  0  0  0  0  0  0  0
   -5.2981   -5.9038   -1.7584 C   0  0  0  0  0  0  0  0  0  0  0  0
   -5.5839   -5.0730   -2.8548 C   0  0  0  0  0  0  0  0  0  0  0  0
   -6.3174   -3.6387   -2.2908 S   0  0  0  0  0  0  0  0  0  0  0  0
   -6.2210   -4.0541   -0.6708 C   0  0  0  0  0  0  0  0  0  0  0  0
   -4.8174   -5.1082   -4.1031 C   0  0  0  0  0  0  0  0  0  0  0  0
   -5.0480   -4.2555   -5.1844 C   0  0  0  0  0  0  0  0  0  0  0  0
   -3.8958   -4.0194   -5.9566 C   0  0  0  0  0  0  0  0  0  0  0  0
   -3.7810   -3.0917   -7.0093 C   0  0  0  0  0  0  0  0  0  0  0  0
   -4.9561   -2.3747   -7.5331 C   0  0  0  0  0  0  0  0  0  0  0  0
   -5.3457   -1.1467   -6.9787 C   0  0  0  0  0  0  0  0  0  0  0  0
   -6.4407   -0.4606   -7.5003 C   0  0  0  0  0  0  0  0  0  0  0  0
   -7.1761   -1.0122   -8.5610 C   0  0  0  0  0  0  0  0  0  0  0  0
   -8.5756   -0.1164   -9.2368 S   0  0  0  0  0  0  0  0  0  0  0  0
   -7.6419    0.6327  -10.6191 C   0  0  0  0  0  0  0  0  0  0  0  0
   -6.8427    1.8438  -10.1572 C   0  0  0  0  0  0  0  0  0  0  0  0
   -6.8099   -2.2567   -9.0885 C   0  0  0  0  0  0  0  0  0  0  0  0
   -7.5119   -2.7982  -10.1196 F   0  0  0  0  0  0  0  0  0  0  0  0
   -5.6999   -2.9303   -8.5841 C   0  0  0  0  0  0  0  0  0  0  0  0
   -2.4828   -2.8094   -7.4799 C   0  0  0  0  0  0  0  0  0  0  0  0
   -1.3521   -3.4279   -6.9507 C   0  0  0  0  0  0  0  0  0  0  0  0
   -1.4752   -4.4217   -5.9602 C   0  0  0  0  0  0  0  0  0  0  0  0
   -0.2979   -5.0465   -5.3296 C   0  0  0  0  0  0  0  0  0  0  0  0
    0.1139   -4.6515   -4.0479 C   0  0  0  0  0  0  0  0  0  0  0  0
    1.1558   -5.3271   -3.4077 C   0  0  0  0  0  0  0  0  0  0  0  0
    1.8024   -6.3986   -4.0447 C   0  0  0  0  0  0  0  0  0  0  0  0
    2.9932   -7.3907   -3.1276 S   0  0  0  0  0  0  0  0  0  0  0  0
    4.4899   -6.4813   -3.6703 C   0  0  0  0  0  0  0  0  0  0  0  0
    5.6391   -6.7604   -2.6945 C   0  0  0  0  0  0  0  0  0  0  0  0
    1.3912   -6.7888   -5.3276 C   0  0  0  0  0  0  0  0  0  0  0  0
    0.3582   -6.1001   -5.9756 C   0  0  0  0  0  0  0  0  0  0  0  0
    1.9573   -7.8589   -5.9294 F   0  0  0  0  0  0  0  0  0  0  0  0
   -2.7703   -4.6950   -5.4848 C   0  0  0  0  0  0  0  0  0  0  0  0
   -3.1997   -5.6031   -4.1388 S   0  0  0  0  0  0  0  0  0  0  0  0
   -0.1483   -2.8534   -7.3768 C   0  0  0  0  0  0  0  0  0  0  0  0
   -0.3416   -1.7520   -8.2127 C   0  0  0  0  0  0  0  0  0  0  0  0
   -2.0029   -1.5257   -8.4496 S   0  0  0  0  0  0  0  0  0  0  0  0
    0.6526   -0.6820   -8.3709 C   0  0  0  0  0  0  0  0  0  0  0  0
    0.7597    0.3245   -7.4819 C   0  0  0  0  0  0  0  0  0  0  0  0
   -0.1696    0.5538   -6.3645 C   0  0  0  0  0  0  0  0  0  0  0  0
   -0.9181   -0.2945   -5.8140 O   0  0  0  0  0  0  0  0  0  0  0  0
   -0.0831    1.9391   -5.9790 C   0  0  0  0  0  0  0  0  0  0  0  0
   -0.9578    2.6056   -5.1099 C   0  0  0  0  0  0  0  0  0  0  0  0
   -0.7667    3.9677   -5.0699 C   0  0  0  0  0  0  0  0  0  0  0  0
    0.2670    4.6465   -5.7969 C   0  0  0  0  0  0  0  0  0  0  0  0
    1.1577    3.9784   -6.6331 C   0  0  0  0  0  0  0  0  0  0  0  0
    0.9461    2.5717   -6.7149 C   0  0  0  0  0  0  0  0  0  0  0  0
    1.6106    1.5519   -7.5794 C   0  0  0  0  0  0  0  0  0  0  0  0
    2.8711    1.6235   -8.0731 C   0  0  0  0  0  0  0  0  0  0  0  0
    3.4960    0.4821   -8.6877 C   0  0  0  0  0  0  0  0  0  0  0  0
    4.0145   -0.4313   -9.1729 N   0  0  0  0  0  0  0  0  0  0  0  0
    3.7235    2.7604   -7.8427 C   0  0  0  0  0  0  0  0  0  0  0  0
    4.4161    3.6724   -7.6637 N   0  0  0  0  0  0  0  0  0  0  0  0
   -0.2108    5.9668   -5.2543 C   0  0  0  0  0  0  0  0  0  0  0  0
    0.6262    6.6032   -4.0987 C   0  0  0  0  0  0  0  0  0  0  0  0
   -0.2657    7.6532   -3.4831 C   0  0  0  0  0  0  0  0  0  0  0  0
   -1.2321    7.0016   -2.8263 C   0  0  0  0  0  0  0  0  0  0  0  0
   -0.9640    5.5299   -3.0333 C   0  0  0  0  0  0  0  0  0  0  0  0
    0.5572    5.5595   -2.9981 C   0  0  0  0  0  0  0  0  0  0  0  0
   -1.2734    5.2612   -4.5328 C   0  0  0  0  0  0  0  0  0  0  0  0
    9.0269    4.0812    2.4047 H   0  0  0  0  0  0  0  0  0  0  0  0
    3.3865    5.6914    0.2632 H   0  0  0  0  0  0  0  0  0  0  0  0
    5.6686    8.2442    4.0449 H   0  0  0  0  0  0  0  0  0  0  0  0
    2.6418    9.7119    3.0527 H   0  0  0  0  0  0  0  0  0  0  0  0
    1.9682    8.7779    5.3686 H   0  0  0  0  0  0  0  0  0  0  0  0
    2.6129    6.2044    5.5557 H   0  0  0  0  0  0  0  0  0  0  0  0
    1.4258    4.9178    3.6328 H   0  0  0  0  0  0  0  0  0  0  0  0
    0.0465    6.6790    2.1853 H   0  0  0  0  0  0  0  0  0  0  0  0
   -0.2903    7.6211    4.6461 H   0  0  0  0  0  0  0  0  0  0  0  0
    0.0586    9.0073    3.5095 H   0  0  0  0  0  0  0  0  0  0  0  0
    1.5811    8.5557    1.3030 H   0  0  0  0  0  0  0  0  0  0  0  0
    9.2016    0.5391    0.3572 H   0  0  0  0  0  0  0  0  0  0  0  0
   11.5424    0.9528   -0.2738 H   0  0  0  0  0  0  0  0  0  0  0  0
   12.6223    3.7868   -2.5483 H   0  0  0  0  0  0  0  0  0  0  0  0
   12.8535    1.9923   -2.5891 H   0  0  0  0  0  0  0  0  0  0  0  0
   13.1360    2.9169   -1.0573 H   0  0  0  0  0  0  0  0  0  0  0  0
   10.2724    4.2111   -2.8030 H   0  0  0  0  0  0  0  0  0  0  0  0
    7.9411    3.7982   -2.1693 H   0  0  0  0  0  0  0  0  0  0  0  0
    7.2973    0.6443   -2.8009 H   0  0  0  0  0  0  0  0  0  0  0  0
    5.5535    0.2555   -4.4610 H   0  0  0  0  0  0  0  0  0  0  0  0
    2.5838    1.9550   -4.7032 H   0  0  0  0  0  0  0  0  0  0  0  0
    2.0546    0.4422   -3.8621 H   0  0  0  0  0  0  0  0  0  0  0  0
    3.2866    0.3658   -5.1802 H   0  0  0  0  0  0  0  0  0  0  0  0
    2.6711    2.2141   -1.9352 H   0  0  0  0  0  0  0  0  0  0  0  0
    4.4035    2.6403   -0.2684 H   0  0  0  0  0  0  0  0  0  0  0  0
    3.7105    2.5632    5.1559 H   0  0  0  0  0  0  0  0  0  0  0  0
    4.4380    4.4675    6.5464 H   0  0  0  0  0  0  0  0  0  0  0  0
    5.6624    5.1047    8.7280 H   0  0  0  0  0  0  0  0  0  0  0  0
    7.1148    5.2300    7.6528 H   0  0  0  0  0  0  0  0  0  0  0  0
    7.1711    4.2192    9.1464 H   0  0  0  0  0  0  0  0  0  0  0  0
    7.5667    2.0231    8.2362 H   0  0  0  0  0  0  0  0  0  0  0  0
    6.8163    0.1214    6.8767 H   0  0  0  0  0  0  0  0  0  0  0  0
    5.8102   -2.2601    4.2357 H   0  0  0  0  0  0  0  0  0  0  0  0
    5.1691   -4.4671    5.0669 H   0  0  0  0  0  0  0  0  0  0  0  0
    2.2969   -5.0794    7.2341 H   0  0  0  0  0  0  0  0  0  0  0  0
    3.9223   -5.2506    8.0210 H   0  0  0  0  0  0  0  0  0  0  0  0
    3.6510   -5.8457    6.3337 H   0  0  0  0  0  0  0  0  0  0  0  0
    2.5828   -2.6180    7.9862 H   0  0  0  0  0  0  0  0  0  0  0  0
    3.2219   -0.3979    7.1433 H   0  0  0  0  0  0  0  0  0  0  0  0
    1.9884    1.1379    1.5533 H   0  0  0  0  0  0  0  0  0  0  0  0
   -4.2400    0.1401    1.6783 H   0  0  0  0  0  0  0  0  0  0  0  0
   -4.0485   -2.0277   -0.9423 H   0  0  0  0  0  0  0  0  0  0  0  0
   -3.2815   -0.3923   -2.6102 H   0  0  0  0  0  0  0  0  0  0  0  0
   -4.8066    3.0547   -2.9173 H   0  0  0  0  0  0  0  0  0  0  0  0
   -3.2486    2.1924   -2.9616 H   0  0  0  0  0  0  0  0  0  0  0  0
   -3.6380    3.4365   -5.1128 H   0  0  0  0  0  0  0  0  0  0  0  0
   -5.4530    3.3857   -5.1716 H   0  0  0  0  0  0  0  0  0  0  0  0
   -3.8680    4.2850   -7.2766 H   0  0  0  0  0  0  0  0  0  0  0  0
   -4.3303    3.1334   -8.5750 H   0  0  0  0  0  0  0  0  0  0  0  0
   -5.6178    3.8338   -7.5325 H   0  0  0  0  0  0  0  0  0  0  0  0
   -6.5659    2.1984   -1.6027 H   0  0  0  0  0  0  0  0  0  0  0  0
   -7.3334    0.6118    0.0521 H   0  0  0  0  0  0  0  0  0  0  0  0
   -7.1161   -1.0603    3.3711 H   0  0  0  0  0  0  0  0  0  0  0  0
   -9.4190   -1.0366    4.1691 H   0  0  0  0  0  0  0  0  0  0  0  0
  -12.1793   -0.5853    2.5296 H   0  0  0  0  0  0  0  0  0  0  0  0
  -11.7167   -1.7056    3.8496 H   0  0  0  0  0  0  0  0  0  0  0  0
  -14.2697   -1.8950    2.3773 H   0  0  0  0  0  0  0  0  0  0  0  0
  -13.4547   -1.5013    0.8257 H   0  0  0  0  0  0  0  0  0  0  0  0
  -14.1344   -4.6812   -0.5895 H   0  0  0  0  0  0  0  0  0  0  0  0
  -12.5468   -4.0791   -0.0162 H   0  0  0  0  0  0  0  0  0  0  0  0
  -13.6860   -2.9826   -0.9309 H   0  0  0  0  0  0  0  0  0  0  0  0
  -10.8174   -1.9168    0.1860 H   0  0  0  0  0  0  0  0  0  0  0  0
   -8.5177   -1.9979   -0.6111 H   0  0  0  0  0  0  0  0  0  0  0  0
   -3.8025   -4.3896    3.7454 H   0  0  0  0  0  0  0  0  0  0  0  0
    0.2861   -3.7090    3.0302 H   0  0  0  0  0  0  0  0  0  0  0  0
    1.3730   -5.8414    3.5522 H   0  0  0  0  0  0  0  0  0  0  0  0
    1.3533   -7.9692    4.6601 H   0  0  0  0  0  0  0  0  0  0  0  0
   -0.1325   -8.5342    5.4126 H   0  0  0  0  0  0  0  0  0  0  0  0
    0.0013   -6.7845    8.0490 H   0  0  0  0  0  0  0  0  0  0  0  0
   -0.4253   -8.4644    7.5816 H   0  0  0  0  0  0  0  0  0  0  0  0
    2.3735   -7.8138   10.4394 H   0  0  0  0  0  0  0  0  0  0  0  0
    2.7686   -7.1209    8.8466 H   0  0  0  0  0  0  0  0  0  0  0  0
    1.3590   -6.4714    9.8406 H   0  0  0  0  0  0  0  0  0  0  0  0
   -1.7151   -6.6807    6.4470 H   0  0  0  0  0  0  0  0  0  0  0  0
   -2.6757   -4.4829    6.0625 H   0  0  0  0  0  0  0  0  0  0  0  0
   -3.8048   -0.8922    5.7946 H   0  0  0  0  0  0  0  0  0  0  0  0
   -3.6284    0.3966    7.8419 H   0  0  0  0  0  0  0  0  0  0  0  0
   -0.8237    0.1201   10.2838 H   0  0  0  0  0  0  0  0  0  0  0  0
   -2.4435    0.7669   10.0165 H   0  0  0  0  0  0  0  0  0  0  0  0
    0.5562    1.9837   10.4178 H   0  0  0  0  0  0  0  0  0  0  0  0
    0.9683    1.1644    8.8328 H   0  0  0  0  0  0  0  0  0  0  0  0
    2.4900    4.3938    8.6467 H   0  0  0  0  0  0  0  0  0  0  0  0
    2.8163    2.6394    8.5604 H   0  0  0  0  0  0  0  0  0  0  0  0
    2.3802    3.4311   10.1544 H   0  0  0  0  0  0  0  0  0  0  0  0
    0.2940   -1.2360    8.5670 H   0  0  0  0  0  0  0  0  0  0  0  0
    0.1780   -2.4817    6.4749 H   0  0  0  0  0  0  0  0  0  0  0  0
   -4.6872   -6.7996   -1.8134 H   0  0  0  0  0  0  0  0  0  0  0  0
   -5.9732   -3.7274   -5.3186 H   0  0  0  0  0  0  0  0  0  0  0  0
   -4.7803   -0.7184   -6.1594 H   0  0  0  0  0  0  0  0  0  0  0  0
   -6.7177    0.4968   -7.0809 H   0  0  0  0  0  0  0  0  0  0  0  0
   -8.3791    0.9515  -11.3833 H   0  0  0  0  0  0  0  0  0  0  0  0
   -6.9652   -0.1113  -11.0882 H   0  0  0  0  0  0  0  0  0  0  0  0
   -6.3247    2.2973  -11.0303 H   0  0  0  0  0  0  0  0  0  0  0  0
   -7.5121    2.6026   -9.7039 H   0  0  0  0  0  0  0  0  0  0  0  0
   -6.0766    1.5362   -9.4129 H   0  0  0  0  0  0  0  0  0  0  0  0
   -5.4007   -3.8759   -9.0151 H   0  0  0  0  0  0  0  0  0  0  0  0
   -0.3968   -3.8395   -3.5400 H   0  0  0  0  0  0  0  0  0  0  0  0
    1.4297   -5.0461   -2.3979 H   0  0  0  0  0  0  0  0  0  0  0  0
    4.3029   -5.3827   -3.7111 H   0  0  0  0  0  0  0  0  0  0  0  0
    4.7772   -6.8350   -4.6807 H   0  0  0  0  0  0  0  0  0  0  0  0
    5.8571   -7.8532   -2.6649 H   0  0  0  0  0  0  0  0  0  0  0  0
    5.3608   -6.4211   -1.6703 H   0  0  0  0  0  0  0  0  0  0  0  0
    6.5554   -6.2264   -3.0309 H   0  0  0  0  0  0  0  0  0  0  0  0
    0.0341   -6.4253   -6.9580 H   0  0  0  0  0  0  0  0  0  0  0  0
    0.8213   -3.1199   -6.9864 H   0  0  0  0  0  0  0  0  0  0  0  0
    1.2817   -0.7135   -9.2530 H   0  0  0  0  0  0  0  0  0  0  0  0
   -1.7363    2.1017   -4.5619 H   0  0  0  0  0  0  0  0  0  0  0  0
    1.8897    4.5211   -7.2182 H   0  0  0  0  0  0  0  0  0  0  0  0
   -0.5711    6.6539   -6.0410 H   0  0  0  0  0  0  0  0  0  0  0  0
    1.6400    6.9532   -4.3860 H   0  0  0  0  0  0  0  0  0  0  0  0
   -0.1144    8.7246   -3.4925 H   0  0  0  0  0  0  0  0  0  0  0  0
   -2.0028    7.4633   -2.2103 H   0  0  0  0  0  0  0  0  0  0  0  0
   -1.4709    4.8350   -2.3233 H   0  0  0  0  0  0  0  0  0  0  0  0
    1.0573    4.5977   -3.2574 H   0  0  0  0  0  0  0  0  0  0  0  0
    0.9669    5.9165   -2.0213 H   0  0  0  0  0  0  0  0  0  0  0  0
   -2.2996    5.4885   -4.8762 H   0  0  0  0  0  0  0  0  0  0  0  0
  1  2  2  3
  2  3  1  0
  3  4  2  0
  3  5  1  0
  5  6  2  0
  6  7  1  0
  7  8  2  0
  8  9  1  0
  9 10  2  0
 10 11  1  0
 11 12  2  3
 12 13  1  0
 13 14  3  0
 12 15  1  0
 15 16  3  0
  8 17  1  0
 17 18  1  0
 18 19  1  0
 19 20  2  0
 20 21  1  0
 21 22  1  0
 21 23  1  0
  1 24  1  0
 24 25  2  0
 25 26  1  0
 26 27  1  0
 27 28  2  0
 28 29  1  0
 29 30  2  0
 30 31  1  0
 30 32  1  0
 32 33  2  0
 26 34  1  0
 34 35  2  0
 35 36  1  0
 36 37  2  0
 37 38  1  0
 37 39  1  0
 39 40  2  0
 25 41  1  0
 41 42  1  0
 42 43  1  0
 43 44  2  0
 44 45  1  0
 45 46  1  0
 46 47  2  0
 47 48  1  0
 48 49  2  0
 49 50  1  0
 49 51  1  0
 51 52  2  0
 45 53  1  0
 53 54  2  0
 54 55  1  0
 55 56  2  0
 56 57  1  0
 56 58  1  0
 58 59  2  0
 44 60  1  0
 60 61  1  0
 43 62  1  0
 62 63  2  0
 63 64  1  0
 64 65  1  0
 65 66  1  0
 66 67  1  0
 67 68  2  0
 68 69  1  0
 69 70  1  0
 70 71  1  0
 71 72  2  0
 72 73  1  0
 73 74  2  0
 74 75  1  0
 75 76  1  0
 76 77  1  0
 77 78  1  0
 78 79  1  0
 74 80  1  0
 80 81  2  0
 70 82  1  0
 82 83  2  0
 83 84  1  0
 84 85  2  0
 85 86  1  0
 86 87  1  0
 87 88  1  0
 88 89  1  0
 89 90  1  0
 85 91  1  0
 91 92  2  0
 70 93  1  0
 93 94  2  0
 94 95  1  0
 95 96  1  0
 96 97  2  0
 97 98  1  0
 98 99  1  0
 99100  2  0
100101  1  0
101102  2  0
102103  1  0
103104  1  0
104105  1  0
105106  1  0
106107  1  0
102108  1  0
108109  2  0
 98110  1  0
110111  2  0
111112  1  0
112113  2  0
113114  1  0
114115  1  0
115116  1  0
116117  1  0
117118  1  0
113119  1  0
119120  2  0
 98121  1  0
121122  1  0
122123  1  0
 94124  1  0
124125  1  0
125126  1  0
126127  2  0
127128  1  0
128129  1  0
127130  1  0
130131  2  0
131132  1  0
132133  2  0
133134  1  0
134135  2  0
135136  1  0
136137  2  0
137138  1  0
138139  1  0
139140  1  0
137141  1  0
141142  1  0
141143  2  0
133144  1  0
144145  2  0
145146  1  0
146147  1  0
147148  2  0
148149  1  0
149150  2  0
150151  1  0
151152  1  0
152153  1  0
150154  1  0
154155  2  0
154156  1  0
146157  2  0
157158  1  0
145159  1  0
159160  2  0
160161  1  0
160162  1  0
162163  2  3
163164  1  0
164165  2  0
164166  1  0
166167  2  0
167168  1  0
168169  2  0
169170  1  0
170171  2  0
171172  1  0
172173  2  3
173174  1  0
174175  3  0
173176  1  0
176177  3  0
169178  1  0
178179  1  0
179180  1  0
180181  2  0
181182  1  0
182183  1  0
182184  1  0
 11  2  1  0
 23 17  1  0
 61 24  1  0
123 62  1  0
129125  2  0
158130  1  0
172163  1  0
184178  1  0
 10  5  1  0
 22 18  1  0
 33 27  1  0
 40 34  1  0
 60 41  2  0
122 64  2  0
157132  1  0
171166  1  0
183179  1  0
 23  7  1  0
 52 46  1  0
 59 53  1  0
121 66  2  0
143134  1  0
161144  1  0
184168  1  0
 97 67  1  0
109 99  1  0
120110  1  0
155147  1  0
 95 69  2  0
 81 71  1  0
 92 82  1  0
129 93  1  0
  1185  1  0
  6186  1  0
  9187  1  0
 17188  1  0
 18189  1  0
 19190  1  0
 20191  1  0
 21192  1  0
 22193  1  0
 22194  1  0
 23195  1  0
 28196  1  0
 29197  1  0
 31198  1  0
 31199  1  0
 31200  1  0
 32201  1  0
 33202  1  0
 35203  1  0
 36204  1  0
 38205  1  0
 38206  1  0
 38207  1  0
 39208  1  0
 40209  1  0
 47210  1  0
 48211  1  0
 50212  1  0
 50213  1  0
 50214  1  0
 51215  1  0
 52216  1  0
 54217  1  0
 55218  1  0
 57219  1  0
 57220  1  0
 57221  1  0
 58222  1  0
 59223  1  0
 63224  1  0
 68225  1  0
 72226  1  0
 73227  1  0
 75228  1  0
 75229  1  0
 77230  1  0
 77231  1  0
 79232  1  0
 79233  1  0
 79234  1  0
 80235  1  0
 81236  1  0
 83237  1  0
 84238  1  0
 86239  1  0
 86240  1  0
 88241  1  0
 88242  1  0
 90243  1  0
 90244  1  0
 90245  1  0
 91246  1  0
 92247  1  0
 96248  1  0
100249  1  0
101250  1  0
103251  1  0
103252  1  0
105253  1  0
105254  1  0
107255  1  0
107256  1  0
107257  1  0
108258  1  0
109259  1  0
111260  1  0
112261  1  0
114262  1  0
114263  1  0
116264  1  0
116265  1  0
118266  1  0
118267  1  0
118268  1  0
119269  1  0
120270  1  0
126271  1  0
131272  1  0
135273  1  0
136274  1  0
139275  1  0
139276  1  0
140277  1  0
140278  1  0
140279  1  0
143280  1  0
148281  1  0
149282  1  0
152283  1  0
152284  1  0
153285  1  0
153286  1  0
153287  1  0
155288  1  0
159289  1  0
162290  1  0
167291  1  0
170292  1  0
178293  1  0
179294  1  0
180295  1  0
181296  1  0
182297  1  0
183298  1  0
183299  1  0
184300  1  0
M  END

