
     RDKit          3D

262290  0  0  0  0  0  0  0  0999 V2000
    2.2680   -6.0207   -2.7439 C   0  0  0  0  0  0  0  0  0  0  0  0
    2.8384   -4.9151   -3.2672 C   0  0  0  0  0  0  0  0  0  0  0  0
    2.9680   -4.6927   -4.7057 C   0  0  0  0  0  0  0  0  0  0  0  0
    2.3527   -5.3232   -5.6081 O   0  0  0  0  0  0  0  0  0  0  0  0
    3.9526   -3.6522   -4.9290 C   0  0  0  0  0  0  0  0  0  0  0  0
    4.3030   -3.0538   -6.1618 C   0  0  0  0  0  0  0  0  0  0  0  0
    5.1879   -1.9985   -6.0349 C   0  0  0  0  0  0  0  0  0  0  0  0
    5.7371   -1.5821   -4.7781 C   0  0  0  0  0  0  0  0  0  0  0  0
    5.3979   -2.1590   -3.5708 C   0  0  0  0  0  0  0  0  0  0  0  0
    4.4516   -3.2154   -3.6753 C   0  0  0  0  0  0  0  0  0  0  0  0
    3.7004   -3.8991   -2.5922 C   0  0  0  0  0  0  0  0  0  0  0  0
    3.4817   -3.3562   -1.3815 C   0  0  0  0  0  0  0  0  0  0  0  0
    2.1505   -3.2319   -0.8717 C   0  0  0  0  0  0  0  0  0  0  0  0
    1.0779   -3.1026   -0.4554 N   0  0  0  0  0  0  0  0  0  0  0  0
    4.5108   -2.6777   -0.6423 C   0  0  0  0  0  0  0  0  0  0  0  0
    5.3416   -2.1495   -0.0330 N   0  0  0  0  0  0  0  0  0  0  0  0
    6.4680   -0.4560   -5.4487 C   0  0  0  0  0  0  0  0  0  0  0  0
    5.9154    0.9862   -5.2193 C   0  0  0  0  0  0  0  0  0  0  0  0
    4.4224    0.9295   -4.9826 C   0  0  0  0  0  0  0  0  0  0  0  0
    3.8693    0.5561   -6.1377 C   0  0  0  0  0  0  0  0  0  0  0  0
    5.0043    0.3757   -7.1230 C   0  0  0  0  0  0  0  0  0  0  0  0
    5.9092    1.4978   -6.6484 C   0  0  0  0  0  0  0  0  0  0  0  0
    5.8751   -0.8595   -6.7280 C   0  0  0  0  0  0  0  0  0  0  0  0
    2.2944   -6.3667   -1.3114 C   0  0  0  0  0  0  0  0  0  0  0  0
    3.4188   -6.4799   -0.4573 C   0  0  0  0  0  0  0  0  0  0  0  0
    4.7691   -6.8559   -0.8276 N   0  0  0  0  0  0  0  0  0  0  0  0
    5.2958   -6.6665   -2.1524 C   0  0  0  0  0  0  0  0  0  0  0  0
    6.2156   -5.6394   -2.3982 C   0  0  0  0  0  0  0  0  0  0  0  0
    6.7731   -5.4823   -3.6727 C   0  0  0  0  0  0  0  0  0  0  0  0
    6.4249   -6.3634   -4.7069 C   0  0  0  0  0  0  0  0  0  0  0  0
    6.9931   -6.1919   -6.0842 C   0  0  0  0  0  0  0  0  0  0  0  0
    5.5513   -7.4281   -4.4420 C   0  0  0  0  0  0  0  0  0  0  0  0
    4.9967   -7.5837   -3.1662 C   0  0  0  0  0  0  0  0  0  0  0  0
    5.4984   -7.7623    0.0215 C   0  0  0  0  0  0  0  0  0  0  0  0
    6.8292   -7.4884    0.3783 C   0  0  0  0  0  0  0  0  0  0  0  0
    7.5528   -8.3981    1.1566 C   0  0  0  0  0  0  0  0  0  0  0  0
    6.9557   -9.5925    1.5876 C   0  0  0  0  0  0  0  0  0  0  0  0
    7.7470  -10.6135    2.3503 C   0  0  0  0  0  0  0  0  0  0  0  0
    5.6254   -9.8620    1.2384 C   0  0  0  0  0  0  0  0  0  0  0  0
    4.8998   -8.9529    0.4646 C   0  0  0  0  0  0  0  0  0  0  0  0
    3.0179   -6.3486    0.8753 C   0  0  0  0  0  0  0  0  0  0  0  0
    3.8475   -5.8797    2.2454 S   0  0  0  0  0  0  0  0  0  0  0  0
    2.4624   -5.5093    3.1727 C   0  0  0  0  0  0  0  0  0  0  0  0
    1.3197   -5.8137    2.3833 C   0  0  0  0  0  0  0  0  0  0  0  0
   -0.0491   -5.7155    2.8421 N   0  0  0  0  0  0  0  0  0  0  0  0
   -0.4114   -6.2311    4.1455 C   0  0  0  0  0  0  0  0  0  0  0  0
    0.2475   -7.3540    4.6799 C   0  0  0  0  0  0  0  0  0  0  0  0
   -0.0302   -7.7927    5.9757 C   0  0  0  0  0  0  0  0  0  0  0  0
   -0.9698   -7.1149    6.7651 C   0  0  0  0  0  0  0  0  0  0  0  0
   -1.2620   -7.5698    8.1627 C   0  0  0  0  0  0  0  0  0  0  0  0
   -1.6637   -6.0240    6.2245 C   0  0  0  0  0  0  0  0  0  0  0  0
   -1.3857   -5.5811    4.9279 C   0  0  0  0  0  0  0  0  0  0  0  0
   -1.0470   -5.0922    2.0128 C   0  0  0  0  0  0  0  0  0  0  0  0
   -0.9082   -3.7535    1.6253 C   0  0  0  0  0  0  0  0  0  0  0  0
   -1.8641   -3.1429    0.8137 C   0  0  0  0  0  0  0  0  0  0  0  0
   -2.9743   -3.8689    0.3612 C   0  0  0  0  0  0  0  0  0  0  0  0
   -3.9969   -3.2179   -0.5249 C   0  0  0  0  0  0  0  0  0  0  0  0
   -3.1449   -5.1956    0.7854 C   0  0  0  0  0  0  0  0  0  0  0  0
   -2.1884   -5.8031    1.6107 C   0  0  0  0  0  0  0  0  0  0  0  0
    1.6830   -6.2325    1.0974 C   0  0  0  0  0  0  0  0  0  0  0  0
    0.8779   -6.2742   -0.3689 S   0  0  0  0  0  0  0  0  0  0  0  0
    2.4867   -4.4825    4.2522 C   0  0  0  0  0  0  0  0  0  0  0  0
    3.6431   -3.8927    4.8277 C   0  0  0  0  0  0  0  0  0  0  0  0
    4.9969   -4.4713    4.7761 C   0  0  0  0  0  0  0  0  0  0  0  0
    6.0052   -3.8591    4.0167 C   0  0  0  0  0  0  0  0  0  0  0  0
    7.2786   -4.4282    3.9513 C   0  0  0  0  0  0  0  0  0  0  0  0
    7.5559   -5.6033    4.6555 C   0  0  0  0  0  0  0  0  0  0  0  0
    6.5607   -6.2152    5.4321 C   0  0  0  0  0  0  0  0  0  0  0  0
    6.8573   -7.4895    6.1752 C   0  0  0  0  0  0  0  0  0  0  0  0
    6.6533   -8.7014    5.2737 C   0  0  0  0  0  0  0  0  0  0  0  0
    5.2719   -5.6590    5.4689 C   0  0  0  0  0  0  0  0  0  0  0  0
    3.3871   -2.5964    5.3091 C   0  0  0  0  0  0  0  0  0  0  0  0
    4.4216   -1.2830    5.6109 S   0  0  0  0  0  0  0  0  0  0  0  0
    3.1416   -0.1684    5.5625 C   0  0  0  0  0  0  0  0  0  0  0  0
    3.0720    1.1116    5.0754 C   0  0  0  0  0  0  0  0  0  0  0  0
    4.1092    1.9946    4.7159 C   0  0  0  0  0  0  0  0  0  0  0  0
    3.8242    3.0887    3.8385 C   0  0  0  0  0  0  0  0  0  0  0  0
    4.8613    3.8871    3.4800 N   0  0  0  0  0  0  0  0  0  0  0  0
    6.0818    3.1282    4.3039 S   0  0  0  0  0  0  0  0  0  0  0  0
    5.4017    1.8426    5.0959 N   0  0  0  0  0  0  0  0  0  0  0  0
    2.5136    3.2563    3.3886 C   0  0  0  0  0  0  0  0  0  0  0  0
    1.9304    4.1472    2.5222 C   0  0  0  0  0  0  0  0  0  0  0  0
    2.2803    5.4820    1.5152 S   0  0  0  0  0  0  0  0  0  0  0  0
    0.6385    5.5820    1.0164 C   0  0  0  0  0  0  0  0  0  0  0  0
   -0.0887    6.3707    0.1117 C   0  0  0  0  0  0  0  0  0  0  0  0
    0.4483    7.5785   -0.5250 C   0  0  0  0  0  0  0  0  0  0  0  0
    0.9829    7.5235   -1.8187 C   0  0  0  0  0  0  0  0  0  0  0  0
    1.5069    8.6774   -2.4105 C   0  0  0  0  0  0  0  0  0  0  0  0
    1.5056    9.8895   -1.7127 C   0  0  0  0  0  0  0  0  0  0  0  0
    0.9958    9.9500   -0.4016 C   0  0  0  0  0  0  0  0  0  0  0  0
    1.0534   11.2363    0.3781 C   0  0  0  0  0  0  0  0  0  0  0  0
    2.3583   11.3380    1.1648 C   0  0  0  0  0  0  0  0  0  0  0  0
    0.4765    8.7860    0.1884 C   0  0  0  0  0  0  0  0  0  0  0  0
   -1.4314    5.9231    0.0356 C   0  0  0  0  0  0  0  0  0  0  0  0
   -1.6737    4.6231    1.1121 S   0  0  0  0  0  0  0  0  0  0  0  0
   -0.1086    4.6237    1.6436 C   0  0  0  0  0  0  0  0  0  0  0  0
    0.6168    3.8271    2.4884 C   0  0  0  0  0  0  0  0  0  0  0  0
    0.2704    2.8181    3.3146 N   0  0  0  0  0  0  0  0  0  0  0  0
    1.4764    2.4043    3.8016 C   0  0  0  0  0  0  0  0  0  0  0  0
    1.7729    1.2564    4.5714 C   0  0  0  0  0  0  0  0  0  0  0  0
    1.0869    0.0667    4.6258 N   0  0  0  0  0  0  0  0  0  0  0  0
    1.9497   -0.7747    5.2634 C   0  0  0  0  0  0  0  0  0  0  0  0
    2.0989   -2.1611    5.1523 C   0  0  0  0  0  0  0  0  0  0  0  0
    1.2248   -3.3633    4.4059 S   0  0  0  0  0  0  0  0  0  0  0  0
    0.0465   -0.3890    3.6838 C   0  0  0  0  0  0  0  0  0  0  0  0
   -1.1667   -0.9843    4.4124 C   0  0  0  0  0  0  0  0  0  0  0  0
   -1.0135    2.7593    4.0258 C   0  0  0  0  0  0  0  0  0  0  0  0
   -1.1326    3.9069    5.0295 C   0  0  0  0  0  0  0  0  0  0  0  0
   -2.5766    6.4741   -0.7037 C   0  0  0  0  0  0  0  0  0  0  0  0
   -2.8543    6.2409   -2.0764 C   0  0  0  0  0  0  0  0  0  0  0  0
   -1.8907    5.7537   -3.0337 N   0  0  0  0  0  0  0  0  0  0  0  0
   -1.2923    6.6587   -3.9995 C   0  0  0  0  0  0  0  0  0  0  0  0
   -0.2509    6.2121   -4.8403 C   0  0  0  0  0  0  0  0  0  0  0  0
    0.2881    7.0499   -5.8181 C   0  0  0  0  0  0  0  0  0  0  0  0
   -0.1916    8.3557   -5.9723 C   0  0  0  0  0  0  0  0  0  0  0  0
    0.3506    9.2182   -7.0735 C   0  0  0  0  0  0  0  0  0  0  0  0
   -1.2045    8.8216   -5.1227 C   0  0  0  0  0  0  0  0  0  0  0  0
   -1.7468    7.9862   -4.1403 C   0  0  0  0  0  0  0  0  0  0  0  0
   -1.8880    4.3373   -3.3023 C   0  0  0  0  0  0  0  0  0  0  0  0
   -2.4554    3.8437   -4.4884 C   0  0  0  0  0  0  0  0  0  0  0  0
   -2.5201    2.4701   -4.7259 C   0  0  0  0  0  0  0  0  0  0  0  0
   -2.0123    1.5677   -3.7779 C   0  0  0  0  0  0  0  0  0  0  0  0
   -2.0890    0.0893   -4.0099 C   0  0  0  0  0  0  0  0  0  0  0  0
   -1.3871    2.0595   -2.6230 C   0  0  0  0  0  0  0  0  0  0  0  0
   -1.3234    3.4373   -2.3883 C   0  0  0  0  0  0  0  0  0  0  0  0
   -4.2407    6.1577   -2.3062 C   0  0  0  0  0  0  0  0  0  0  0  0
   -5.1426    5.4648   -3.5465 S   0  0  0  0  0  0  0  0  0  0  0  0
   -6.5041    5.1239   -2.5768 C   0  0  0  0  0  0  0  0  0  0  0  0
   -6.2608    5.6002   -1.2787 C   0  0  0  0  0  0  0  0  0  0  0  0
   -6.9649    5.1233   -0.1161 N   0  0  0  0  0  0  0  0  0  0  0  0
   -7.3404    6.0732    0.8978 C   0  0  0  0  0  0  0  0  0  0  0  0
   -7.9733    7.2742    0.5370 C   0  0  0  0  0  0  0  0  0  0  0  0
   -8.3202    8.2110    1.5139 C   0  0  0  0  0  0  0  0  0  0  0  0
   -8.0208    7.9687    2.8615 C   0  0  0  0  0  0  0  0  0  0  0  0
   -8.4121    8.9563    3.9195 C   0  0  0  0  0  0  0  0  0  0  0  0
   -7.3986    6.7670    3.2260 C   0  0  0  0  0  0  0  0  0  0  0  0
   -7.0558    5.8262    2.2509 C   0  0  0  0  0  0  0  0  0  0  0  0
   -7.1461    3.7011    0.1012 C   0  0  0  0  0  0  0  0  0  0  0  0
   -8.2841    3.2227    0.7740 C   0  0  0  0  0  0  0  0  0  0  0  0
   -8.4813    1.8518    0.9568 C   0  0  0  0  0  0  0  0  0  0  0  0
   -7.5397    0.9271    0.4744 C   0  0  0  0  0  0  0  0  0  0  0  0
   -7.7560   -0.5492    0.6454 C   0  0  0  0  0  0  0  0  0  0  0  0
   -6.4013    1.3948   -0.1961 C   0  0  0  0  0  0  0  0  0  0  0  0
   -6.1985    2.7675   -0.3681 C   0  0  0  0  0  0  0  0  0  0  0  0
   -5.0188    6.2300   -1.1919 C   0  0  0  0  0  0  0  0  0  0  0  0
   -4.0602    6.5297    0.1288 S   0  0  0  0  0  0  0  0  0  0  0  0
   -7.7409    4.4029   -2.9403 C   0  0  0  0  0  0  0  0  0  0  0  0
   -7.8364    3.1949   -3.5400 C   0  0  0  0  0  0  0  0  0  0  0  0
   -6.7924    2.4763   -4.2954 C   0  0  0  0  0  0  0  0  0  0  0  0
   -5.6170    2.8662   -4.5193 O   0  0  0  0  0  0  0  0  0  0  0  0
   -7.3960    1.3402   -4.9559 C   0  0  0  0  0  0  0  0  0  0  0  0
   -6.8250    0.4907   -5.9134 C   0  0  0  0  0  0  0  0  0  0  0  0
   -5.5029    0.5595   -6.2067 F   0  0  0  0  0  0  0  0  0  0  0  0
   -7.6509   -0.4474   -6.5514 C   0  0  0  0  0  0  0  0  0  0  0  0
   -9.0296   -0.4714   -6.2844 C   0  0  0  0  0  0  0  0  0  0  0  0
   -9.5830    0.4027   -5.3317 C   0  0  0  0  0  0  0  0  0  0  0  0
   -8.7384    1.2805   -4.6337 C   0  0  0  0  0  0  0  0  0  0  0  0
   -9.0720    2.3404   -3.6453 C   0  0  0  0  0  0  0  0  0  0  0  0
  -10.1846    2.3637   -2.8574 C   0  0  0  0  0  0  0  0  0  0  0  0
  -11.1352    1.2842   -2.8555 C   0  0  0  0  0  0  0  0  0  0  0  0
  -11.8989    0.4132   -2.8246 N   0  0  0  0  0  0  0  0  0  0  0  0
  -10.4641    3.3971   -1.9010 C   0  0  0  0  0  0  0  0  0  0  0  0
  -10.7153    4.2311   -1.1331 N   0  0  0  0  0  0  0  0  0  0  0  0
    1.6976   -6.6734   -3.3946 H   0  0  0  0  0  0  0  0  0  0  0  0
    3.8720   -3.3469   -7.1102 H   0  0  0  0  0  0  0  0  0  0  0  0
    5.7961   -1.7805   -2.6446 H   0  0  0  0  0  0  0  0  0  0  0  0
    7.5762   -0.5491   -5.4164 H   0  0  0  0  0  0  0  0  0  0  0  0
    6.4840    1.6044   -4.4908 H   0  0  0  0  0  0  0  0  0  0  0  0
    3.8923    1.1871   -4.0710 H   0  0  0  0  0  0  0  0  0  0  0  0
    2.8064    0.4565   -6.3315 H   0  0  0  0  0  0  0  0  0  0  0  0
    4.7053    0.4229   -8.1921 H   0  0  0  0  0  0  0  0  0  0  0  0
    5.4510    2.5121   -6.7542 H   0  0  0  0  0  0  0  0  0  0  0  0
    6.9149    1.4893   -7.1305 H   0  0  0  0  0  0  0  0  0  0  0  0
    6.6203   -1.1718   -7.4938 H   0  0  0  0  0  0  0  0  0  0  0  0
    6.4637   -4.9375   -1.6157 H   0  0  0  0  0  0  0  0  0  0  0  0
    7.4548   -4.6615   -3.8531 H   0  0  0  0  0  0  0  0  0  0  0  0
    6.1703   -6.1594   -6.8295 H   0  0  0  0  0  0  0  0  0  0  0  0
    7.6569   -7.0488   -6.3192 H   0  0  0  0  0  0  0  0  0  0  0  0
    7.5802   -5.2530   -6.1701 H   0  0  0  0  0  0  0  0  0  0  0  0
    5.2984   -8.1362   -5.2224 H   0  0  0  0  0  0  0  0  0  0  0  0
    4.3379   -8.4168   -2.9680 H   0  0  0  0  0  0  0  0  0  0  0  0
    7.3072   -6.5754    0.0506 H   0  0  0  0  0  0  0  0  0  0  0  0
    8.5803   -8.1755    1.4139 H   0  0  0  0  0  0  0  0  0  0  0  0
    7.1468  -11.0028    3.2019 H   0  0  0  0  0  0  0  0  0  0  0  0
    8.6856  -10.1782    2.7571 H   0  0  0  0  0  0  0  0  0  0  0  0
    8.0055  -11.4594    1.6777 H   0  0  0  0  0  0  0  0  0  0  0  0
    5.1540  -10.7854    1.5516 H   0  0  0  0  0  0  0  0  0  0  0  0
    3.8784   -9.1875    0.1927 H   0  0  0  0  0  0  0  0  0  0  0  0
    0.9851   -7.8867    4.0950 H   0  0  0  0  0  0  0  0  0  0  0  0
    0.4972   -8.6530    6.3673 H   0  0  0  0  0  0  0  0  0  0  0  0
   -1.3736   -6.6928    8.8351 H   0  0  0  0  0  0  0  0  0  0  0  0
   -2.2019   -8.1568    8.1710 H   0  0  0  0  0  0  0  0  0  0  0  0
   -0.4377   -8.2003    8.5591 H   0  0  0  0  0  0  0  0  0  0  0  0
   -2.4037   -5.5010    6.8175 H   0  0  0  0  0  0  0  0  0  0  0  0
   -1.9074   -4.7116    4.5498 H   0  0  0  0  0  0  0  0  0  0  0  0
   -0.0468   -3.1860    1.9376 H   0  0  0  0  0  0  0  0  0  0  0  0
   -1.7234   -2.1105    0.5184 H   0  0  0  0  0  0  0  0  0  0  0  0
   -3.5794   -2.3081   -1.0095 H   0  0  0  0  0  0  0  0  0  0  0  0
   -4.3064   -3.9179   -1.3314 H   0  0  0  0  0  0  0  0  0  0  0  0
   -4.8844   -2.9302    0.0756 H   0  0  0  0  0  0  0  0  0  0  0  0
   -4.0146   -5.7614    0.4728 H   0  0  0  0  0  0  0  0  0  0  0  0
   -2.3211   -6.8319    1.9202 H   0  0  0  0  0  0  0  0  0  0  0  0
    5.7924   -2.9592    3.4512 H   0  0  0  0  0  0  0  0  0  0  0  0
    8.0463   -3.9627    3.3484 H   0  0  0  0  0  0  0  0  0  0  0  0
    8.5473   -6.0352    4.5969 H   0  0  0  0  0  0  0  0  0  0  0  0
    6.1985   -7.5822    7.0660 H   0  0  0  0  0  0  0  0  0  0  0  0
    7.9071   -7.4770    6.5438 H   0  0  0  0  0  0  0  0  0  0  0  0
    5.5846   -8.7935    4.9836 H   0  0  0  0  0  0  0  0  0  0  0  0
    6.9628   -9.6217    5.8142 H   0  0  0  0  0  0  0  0  0  0  0  0
    7.2741   -8.6017    4.3610 H   0  0  0  0  0  0  0  0  0  0  0  0
    4.4915   -6.1398    6.0456 H   0  0  0  0  0  0  0  0  0  0  0  0
    1.0153    6.5852   -2.3571 H   0  0  0  0  0  0  0  0  0  0  0  0
    1.9197    8.6289   -3.4106 H   0  0  0  0  0  0  0  0  0  0  0  0
    1.9236   10.7735   -2.1775 H   0  0  0  0  0  0  0  0  0  0  0  0
    0.1996   11.2886    1.0896 H   0  0  0  0  0  0  0  0  0  0  0  0
    0.9671   12.1074   -0.3070 H   0  0  0  0  0  0  0  0  0  0  0  0
    2.3524   12.2697    1.7721 H   0  0  0  0  0  0  0  0  0  0  0  0
    2.4638   10.4687    1.8485 H   0  0  0  0  0  0  0  0  0  0  0  0
    3.2249   11.3712    0.4709 H   0  0  0  0  0  0  0  0  0  0  0  0
    0.1033    8.8153    1.2073 H   0  0  0  0  0  0  0  0  0  0  0  0
    0.4806   -1.1363    2.9919 H   0  0  0  0  0  0  0  0  0  0  0  0
   -0.2979    0.4181    3.0141 H   0  0  0  0  0  0  0  0  0  0  0  0
   -0.8667   -1.7733    5.1256 H   0  0  0  0  0  0  0  0  0  0  0  0
   -1.8617   -1.4277    3.6683 H   0  0  0  0  0  0  0  0  0  0  0  0
   -1.7166   -0.2156    4.9869 H   0  0  0  0  0  0  0  0  0  0  0  0
   -1.1037    1.8258    4.6021 H   0  0  0  0  0  0  0  0  0  0  0  0
   -1.8574    2.8044    3.3035 H   0  0  0  0  0  0  0  0  0  0  0  0
   -1.0721    4.8938    4.5156 H   0  0  0  0  0  0  0  0  0  0  0  0
   -0.3158    3.8350    5.7834 H   0  0  0  0  0  0  0  0  0  0  0  0
   -2.1049    3.8347    5.5574 H   0  0  0  0  0  0  0  0  0  0  0  0
    0.1427    5.2099   -4.7448 H   0  0  0  0  0  0  0  0  0  0  0  0
    1.0691    6.6726   -6.4681 H   0  0  0  0  0  0  0  0  0  0  0  0
    1.4603    9.1851   -7.0643 H   0  0  0  0  0  0  0  0  0  0  0  0
    0.0258   10.2743   -6.9603 H   0  0  0  0  0  0  0  0  0  0  0  0
   -0.0127    8.8347   -8.0518 H   0  0  0  0  0  0  0  0  0  0  0  0
   -1.5794    9.8318   -5.2228 H   0  0  0  0  0  0  0  0  0  0  0  0
   -2.5323    8.3759   -3.5090 H   0  0  0  0  0  0  0  0  0  0  0  0
   -2.8677    4.5289   -5.2178 H   0  0  0  0  0  0  0  0  0  0  0  0
   -2.9789    2.1104   -5.6419 H   0  0  0  0  0  0  0  0  0  0  0  0
   -2.5040   -0.4096   -3.1081 H   0  0  0  0  0  0  0  0  0  0  0  0
   -1.0723   -0.3096   -4.2096 H   0  0  0  0  0  0  0  0  0  0  0  0
   -2.7460   -0.1539   -4.8741 H   0  0  0  0  0  0  0  0  0  0  0  0
   -0.9446    1.3737   -1.9068 H   0  0  0  0  0  0  0  0  0  0  0  0
   -0.8137    3.7953   -1.5097 H   0  0  0  0  0  0  0  0  0  0  0  0
   -8.2084    7.4756   -0.5006 H   0  0  0  0  0  0  0  0  0  0  0  0
   -8.8247    9.1214    1.2184 H   0  0  0  0  0  0  0  0  0  0  0  0
   -9.3647    8.6400    4.3897 H   0  0  0  0  0  0  0  0  0  0  0  0
   -8.5421    9.9726    3.4896 H   0  0  0  0  0  0  0  0  0  0  0  0
   -7.6260    9.0161    4.7009 H   0  0  0  0  0  0  0  0  0  0  0  0
   -7.1771    6.5581    4.2663 H   0  0  0  0  0  0  0  0  0  0  0  0
   -6.5529    4.9157    2.5524 H   0  0  0  0  0  0  0  0  0  0  0  0
   -9.0312    3.9134    1.1349 H   0  0  0  0  0  0  0  0  0  0  0  0
   -9.3760    1.5102    1.4653 H   0  0  0  0  0  0  0  0  0  0  0  0
   -7.9991   -1.0073   -0.3385 H   0  0  0  0  0  0  0  0  0  0  0  0
   -8.5873   -0.7554    1.3515 H   0  0  0  0  0  0  0  0  0  0  0  0
   -6.8350   -1.0220    1.0453 H   0  0  0  0  0  0  0  0  0  0  0  0
   -5.6692    0.6964   -0.5810 H   0  0  0  0  0  0  0  0  0  0  0  0
   -5.2999    3.0970   -0.8727 H   0  0  0  0  0  0  0  0  0  0  0  0
   -8.6226    4.8627   -2.5360 H   0  0  0  0  0  0  0  0  0  0  0  0
   -7.2342   -1.1140   -7.2936 H   0  0  0  0  0  0  0  0  0  0  0  0
   -9.6691   -1.1576   -6.8253 H   0  0  0  0  0  0  0  0  0  0  0  0
  -10.6529    0.4077   -5.1969 H   0  0  0  0  0  0  0  0  0  0  0  0
  1  2  2  3
  2  3  1  0
  3  4  2  0
  3  5  1  0
  5  6  2  0
  6  7  1  0
  7  8  2  0
  8  9  1  0
  9 10  2  0
 10 11  1  0
 11 12  2  3
 12 13  1  0
 13 14  3  0
 12 15  1  0
 15 16  3  0
  8 17  1  0
 17 18  1  0
 18 19  1  0
 19 20  2  0
 20 21  1  0
 21 22  1  0
 21 23  1  0
  1 24  1  0
 24 25  2  0
 25 26  1  0
 26 27  1  0
 27 28  2  0
 28 29  1  0
 29 30  2  0
 30 31  1  0
 30 32  1  0
 32 33  2  0
 26 34  1  0
 34 35  2  0
 35 36  1  0
 36 37  2  0
 37 38  1  0
 37 39  1  0
 39 40  2  0
 25 41  1  0
 41 42  1  0
 42 43  1  0
 43 44  2  0
 44 45  1  0
 45 46  1  0
 46 47  2  0
 47 48  1  0
 48 49  2  0
 49 50  1  0
 49 51  1  0
 51 52  2  0
 45 53  1  0
 53 54  2  0
 54 55  1  0
 55 56  2  0
 56 57  1  0
 56 58  1  0
 58 59  2  0
 44 60  1  0
 60 61  1  0
 43 62  1  0
 62 63  2  0
 63 64  1  0
 64 65  2  0
 65 66  1  0
 66 67  2  0
 67 68  1  0
 68 69  1  0
 69 70  1  0
 68 71  2  0
 63 72  1  0
 72 73  1  0
 73 74  1  0
 74 75  1  0
 75 76  1  0
 76 77  1  0
 77 78  2  0
 78 79  1  0
 79 80  1  0
 77 81  1  0
 81 82  1  0
 82 83  1  0
 83 84  1  0
 84 85  1  0
 85 86  1  0
 86 87  2  0
 87 88  1  0
 88 89  2  0
 89 90  1  0
 90 91  1  0
 91 92  1  0
 90 93  2  0
 85 94  2  0
 94 95  1  0
 95 96  1  0
 96 97  1  0
 97 98  1  0
 98 99  1  0
 99100  1  0
100101  1  0
101102  1  0
102103  1  0
103104  1  0
101105  1  0
105106  1  0
 98107  1  0
107108  1  0
 94109  1  0
109110  2  0
110111  1  0
111112  1  0
112113  2  0
113114  1  0
114115  2  0
115116  1  0
115117  1  0
117118  2  0
111119  1  0
119120  2  0
120121  1  0
121122  2  0
122123  1  0
122124  1  0
124125  2  0
110126  1  0
126127  1  0
127128  1  0
128129  2  0
129130  1  0
130131  1  0
131132  2  0
132133  1  0
133134  2  0
134135  1  0
134136  1  0
136137  2  0
130138  1  0
138139  2  0
139140  1  0
140141  2  0
141142  1  0
141143  1  0
143144  2  0
129145  1  0
145146  1  0
128147  1  0
147148  2  3
148149  1  0
149150  2  0
149151  1  0
151152  2  0
152153  1  0
152154  1  0
154155  2  0
155156  1  0
156157  2  0
157158  1  0
158159  2  3
159160  1  0
160161  3  0
159162  1  0
162163  3  0
 11  2  1  0
 23 17  1  0
 61 24  1  0
104 62  1  0
146109  1  0
158148  1  0
 10  5  1  0
 22 18  1  0
 33 27  1  0
 40 34  1  0
 60 41  2  0
 71 64  1  0
103 72  2  0
118112  1  0
125119  1  0
145126  2  0
157151  1  0
 23  7  1  0
 52 46  1  0
 59 53  1  0
102 74  2  0
137131  1  0
144138  1  0
100 75  2  0
 80 76  2  0
 99 81  2  0
 97 82  2  0
 96 84  2  0
 93 86  1  0
  1164  1  0
  6165  1  0
  9166  1  0
 17167  1  0
 18168  1  0
 19169  1  0
 20170  1  0
 21171  1  0
 22172  1  0
 22173  1  0
 23174  1  0
 28175  1  0
 29176  1  0
 31177  1  0
 31178  1  0
 31179  1  0
 32180  1  0
 33181  1  0
 35182  1  0
 36183  1  0
 38184  1  0
 38185  1  0
 38186  1  0
 39187  1  0
 40188  1  0
 47189  1  0
 48190  1  0
 50191  1  0
 50192  1  0
 50193  1  0
 51194  1  0
 52195  1  0
 54196  1  0
 55197  1  0
 57198  1  0
 57199  1  0
 57200  1  0
 58201  1  0
 59202  1  0
 65203  1  0
 66204  1  0
 67205  1  0
 69206  1  0
 69207  1  0
 70208  1  0
 70209  1  0
 70210  1  0
 71211  1  0
 87212  1  0
 88213  1  0
 89214  1  0
 91215  1  0
 91216  1  0
 92217  1  0
 92218  1  0
 92219  1  0
 93220  1  0
105221  1  0
105222  1  0
106223  1  0
106224  1  0
106225  1  0
107226  1  0
107227  1  0
108228  1  0
108229  1  0
108230  1  0
113231  1  0
114232  1  0
116233  1  0
116234  1  0
116235  1  0
117236  1  0
118237  1  0
120238  1  0
121239  1  0
123240  1  0
123241  1  0
123242  1  0
124243  1  0
125244  1  0
132245  1  0
133246  1  0
135247  1  0
135248  1  0
135249  1  0
136250  1  0
137251  1  0
139252  1  0
140253  1  0
142254  1  0
142255  1  0
142256  1  0
143257  1  0
144258  1  0
147259  1  0
154260  1  0
155261  1  0
156262  1  0
M  END

