
     RDKit          3D

246273  0  0  0  0  0  0  0  0999 V2000
   -5.5519    0.3617   -5.1963 C   0  0  0  0  0  0  0  0  0  0  0  0
   -5.7571    0.2735   -6.5254 C   0  0  0  0  0  0  0  0  0  0  0  0
   -4.6956    0.2260   -7.5385 C   0  0  0  0  0  0  0  0  0  0  0  0
   -3.4826    0.5228   -7.3702 O   0  0  0  0  0  0  0  0  0  0  0  0
   -5.2583   -0.2301   -8.7839 C   0  0  0  0  0  0  0  0  0  0  0  0
   -4.5639   -0.4399   -9.9965 C   0  0  0  0  0  0  0  0  0  0  0  0
   -5.3580   -0.9118  -11.0190 C   0  0  0  0  0  0  0  0  0  0  0  0
   -6.7534   -1.1826  -10.8639 C   0  0  0  0  0  0  0  0  0  0  0  0
   -7.4392   -0.9864   -9.6748 C   0  0  0  0  0  0  0  0  0  0  0  0
   -6.6468   -0.4624   -8.6115 C   0  0  0  0  0  0  0  0  0  0  0  0
   -7.0380   -0.0645   -7.2233 C   0  0  0  0  0  0  0  0  0  0  0  0
   -8.2976    0.1271   -6.7514 C   0  0  0  0  0  0  0  0  0  0  0  0
   -8.5581    0.8110   -5.5116 C   0  0  0  0  0  0  0  0  0  0  0  0
   -8.7735    1.3667   -4.5198 N   0  0  0  0  0  0  0  0  0  0  0  0
   -9.4759   -0.2427   -7.4920 C   0  0  0  0  0  0  0  0  0  0  0  0
  -10.4365   -0.5397   -8.0636 N   0  0  0  0  0  0  0  0  0  0  0  0
   -6.8388   -1.6414  -12.2913 C   0  0  0  0  0  0  0  0  0  0  0  0
   -6.9299   -3.1741  -12.5667 C   0  0  0  0  0  0  0  0  0  0  0  0
   -6.2085   -3.9397  -11.4816 C   0  0  0  0  0  0  0  0  0  0  0  0
   -4.9095   -3.6831  -11.6326 C   0  0  0  0  0  0  0  0  0  0  0  0
   -4.7906   -2.7400  -12.8076 C   0  0  0  0  0  0  0  0  0  0  0  0
   -5.9001   -3.3017  -13.6748 C   0  0  0  0  0  0  0  0  0  0  0  0
   -5.4086   -1.3530  -12.4502 C   0  0  0  0  0  0  0  0  0  0  0  0
   -4.2038    0.3903   -4.6218 C   0  0  0  0  0  0  0  0  0  0  0  0
   -3.4223   -0.7513   -4.3870 C   0  0  0  0  0  0  0  0  0  0  0  0
   -3.9301   -2.1017   -4.3867 N   0  0  0  0  0  0  0  0  0  0  0  0
   -5.1972   -2.3963   -3.7621 C   0  0  0  0  0  0  0  0  0  0  0  0
   -6.1378   -3.2030   -4.4221 C   0  0  0  0  0  0  0  0  0  0  0  0
   -7.3570   -3.5111   -3.8115 C   0  0  0  0  0  0  0  0  0  0  0  0
   -7.6458   -3.0278   -2.5265 C   0  0  0  0  0  0  0  0  0  0  0  0
   -8.9428   -3.3722   -1.8576 C   0  0  0  0  0  0  0  0  0  0  0  0
   -6.7133   -2.2073   -1.8713 C   0  0  0  0  0  0  0  0  0  0  0  0
   -5.4977   -1.8953   -2.4858 C   0  0  0  0  0  0  0  0  0  0  0  0
   -3.1515   -3.1773   -4.9471 C   0  0  0  0  0  0  0  0  0  0  0  0
   -3.0082   -4.3877   -4.2479 C   0  0  0  0  0  0  0  0  0  0  0  0
   -2.2482   -5.4294   -4.7875 C   0  0  0  0  0  0  0  0  0  0  0  0
   -1.6246   -5.2798   -6.0325 C   0  0  0  0  0  0  0  0  0  0  0  0
   -0.8163   -6.4086   -6.5988 C   0  0  0  0  0  0  0  0  0  0  0  0
   -1.7640   -4.0700   -6.7329 C   0  0  0  0  0  0  0  0  0  0  0  0
   -2.5227   -3.0270   -6.1934 C   0  0  0  0  0  0  0  0  0  0  0  0
   -2.0932   -0.4015   -4.1666 C   0  0  0  0  0  0  0  0  0  0  0  0
   -0.6727   -1.2525   -3.9114 S   0  0  0  0  0  0  0  0  0  0  0  0
    0.3104    0.1386   -3.8377 C   0  0  0  0  0  0  0  0  0  0  0  0
   -0.5009    1.2820   -3.9832 C   0  0  0  0  0  0  0  0  0  0  0  0
   -0.0600    2.6432   -3.8450 N   0  0  0  0  0  0  0  0  0  0  0  0
   -0.1360    3.5189   -4.9913 C   0  0  0  0  0  0  0  0  0  0  0  0
   -0.6246    4.8319   -4.8608 C   0  0  0  0  0  0  0  0  0  0  0  0
   -0.7181    5.6673   -5.9787 C   0  0  0  0  0  0  0  0  0  0  0  0
   -0.3466    5.1993   -7.2469 C   0  0  0  0  0  0  0  0  0  0  0  0
   -0.4188    6.0990   -8.4454 C   0  0  0  0  0  0  0  0  0  0  0  0
    0.1484    3.8931   -7.3795 C   0  0  0  0  0  0  0  0  0  0  0  0
    0.2399    3.0571   -6.2624 C   0  0  0  0  0  0  0  0  0  0  0  0
    0.2575    3.1525   -2.5285 C   0  0  0  0  0  0  0  0  0  0  0  0
   -0.3940    2.6515   -1.3848 C   0  0  0  0  0  0  0  0  0  0  0  0
   -0.0254    3.0837   -0.1093 C   0  0  0  0  0  0  0  0  0  0  0  0
    0.9916    4.0372    0.0493 C   0  0  0  0  0  0  0  0  0  0  0  0
    1.4237    4.4699    1.4188 C   0  0  0  0  0  0  0  0  0  0  0  0
    1.6452    4.5396   -1.0847 C   0  0  0  0  0  0  0  0  0  0  0  0
    1.2779    4.1074   -2.3626 C   0  0  0  0  0  0  0  0  0  0  0  0
   -1.8331    0.9296   -4.1873 C   0  0  0  0  0  0  0  0  0  0  0  0
   -3.2365    1.7910   -4.5132 S   0  0  0  0  0  0  0  0  0  0  0  0
    1.7765    0.0861   -3.6611 C   0  0  0  0  0  0  0  0  0  0  0  0
    2.6311   -0.9151   -4.1795 C   0  0  0  0  0  0  0  0  0  0  0  0
    2.2748   -1.8440   -5.2813 C   0  0  0  0  0  0  0  0  0  0  0  0
    1.6103   -1.3519   -6.4190 C   0  0  0  0  0  0  0  0  0  0  0  0
    1.3257   -2.1943   -7.4949 C   0  0  0  0  0  0  0  0  0  0  0  0
    1.7093   -3.5351   -7.4580 C   0  0  0  0  0  0  0  0  0  0  0  0
    2.3694   -4.0474   -6.3309 C   0  0  0  0  0  0  0  0  0  0  0  0
    2.8581   -5.4713   -6.3249 C   0  0  0  0  0  0  0  0  0  0  0  0
    4.2943   -5.5489   -6.8328 C   0  0  0  0  0  0  0  0  0  0  0  0
    2.6387   -3.2013   -5.2422 C   0  0  0  0  0  0  0  0  0  0  0  0
    3.8932   -0.8521   -3.5747 C   0  0  0  0  0  0  0  0  0  0  0  0
    5.1905   -1.9461   -3.4851 S   0  0  0  0  0  0  0  0  0  0  0  0
    5.9613   -1.0383   -2.2718 C   0  0  0  0  0  0  0  0  0  0  0  0
    6.7058   -1.3858   -1.1736 C   0  0  0  0  0  0  0  0  0  0  0  0
    7.0859   -2.6749   -0.7675 C   0  0  0  0  0  0  0  0  0  0  0  0
    7.2792   -2.9308    0.6222 C   0  0  0  0  0  0  0  0  0  0  0  0
    7.5275   -4.2136    0.9871 N   0  0  0  0  0  0  0  0  0  0  0  0
    7.4738   -4.9413   -0.4981 S   0  0  0  0  0  0  0  0  0  0  0  0
    7.1477   -3.7462   -1.5983 N   0  0  0  0  0  0  0  0  0  0  0  0
    7.2029   -1.8625    1.5178 C   0  0  0  0  0  0  0  0  0  0  0  0
    7.1666   -1.8298    2.8866 C   0  0  0  0  0  0  0  0  0  0  0  0
    6.3921   -2.8621    3.9931 S   0  0  0  0  0  0  0  0  0  0  0  0
    5.9079   -1.5597    4.9773 C   0  0  0  0  0  0  0  0  0  0  0  0
    4.9240   -1.4359    5.9677 C   0  0  0  0  0  0  0  0  0  0  0  0
    4.2057   -2.5689    6.5815 C   0  0  0  0  0  0  0  0  0  0  0  0
    3.5733   -3.5264    5.7756 C   0  0  0  0  0  0  0  0  0  0  0  0
    2.8910   -4.5962    6.3604 C   0  0  0  0  0  0  0  0  0  0  0  0
    2.8361   -4.7182    7.7506 C   0  0  0  0  0  0  0  0  0  0  0  0
    3.4476   -3.7572    8.5711 C   0  0  0  0  0  0  0  0  0  0  0  0
    3.4113   -3.8980   10.0708 C   0  0  0  0  0  0  0  0  0  0  0  0
    4.6615   -4.6076   10.5817 C   0  0  0  0  0  0  0  0  0  0  0  0
    4.1297   -2.6799    7.9784 C   0  0  0  0  0  0  0  0  0  0  0  0
    4.6227   -0.0801    6.2022 C   0  0  0  0  0  0  0  0  0  0  0  0
    5.5087    0.9040    5.1379 S   0  0  0  0  0  0  0  0  0  0  0  0
    6.3298   -0.3727    4.4395 C   0  0  0  0  0  0  0  0  0  0  0  0
    7.0005   -0.5153    3.2334 C   0  0  0  0  0  0  0  0  0  0  0  0
    6.9210    0.3024    2.1602 N   0  0  0  0  0  0  0  0  0  0  0  0
    6.9556   -0.5558    1.0952 C   0  0  0  0  0  0  0  0  0  0  0  0
    6.5166   -0.3520   -0.2387 C   0  0  0  0  0  0  0  0  0  0  0  0
    5.5496    0.5185   -0.6827 N   0  0  0  0  0  0  0  0  0  0  0  0
    5.2368    0.0640   -1.9219 C   0  0  0  0  0  0  0  0  0  0  0  0
    4.0536    0.1555   -2.6566 C   0  0  0  0  0  0  0  0  0  0  0  0
    2.6130    0.9874   -2.4907 S   0  0  0  0  0  0  0  0  0  0  0  0
    4.6737    1.3842    0.1207 C   0  0  0  0  0  0  0  0  0  0  0  0
    3.6628    0.5651    0.9215 C   0  0  0  0  0  0  0  0  0  0  0  0
    7.3885    1.7017    2.2268 C   0  0  0  0  0  0  0  0  0  0  0  0
    8.1806    2.1378    0.9889 C   0  0  0  0  0  0  0  0  0  0  0  0
    3.4719    0.4373    6.9502 C   0  0  0  0  0  0  0  0  0  0  0  0
    3.4901    1.6075    7.7016 C   0  0  0  0  0  0  0  0  0  0  0  0
    2.2034    2.0757    8.0266 C   0  0  0  0  0  0  0  0  0  0  0  0
    1.9087    3.2734    8.7086 C   0  0  0  0  0  0  0  0  0  0  0  0
    2.9601    4.0811    9.3638 C   0  0  0  0  0  0  0  0  0  0  0  0
    3.1637    5.4488    9.2112 C   0  0  0  0  0  0  0  0  0  0  0  0
    4.2569    5.9304    9.9459 C   0  0  0  0  0  0  0  0  0  0  0  0
    4.9057    4.9535   10.6882 C   0  0  0  0  0  0  0  0  0  0  0  0
    6.1744    5.1567   11.4224 C   0  0  0  0  0  0  0  0  0  0  0  0
    6.5904    4.4147   12.4625 C   0  0  0  0  0  0  0  0  0  0  0  0
    5.7411    3.4611   13.1929 C   0  0  0  0  0  0  0  0  0  0  0  0
    6.1135    2.1746   13.5573 C   0  0  0  0  0  0  0  0  0  0  0  0
    5.1203    1.4944   14.2729 C   0  0  0  0  0  0  0  0  0  0  0  0
    3.9888    2.2670   14.5056 C   0  0  0  0  0  0  0  0  0  0  0  0
    2.7183    1.7958   15.1431 C   0  0  0  0  0  0  0  0  0  0  0  0
    1.7844    1.1815   14.1035 C   0  0  0  0  0  0  0  0  0  0  0  0
    4.2006    3.7783   13.8010 S   0  0  0  0  0  0  0  0  0  0  0  0
    4.1406    3.4804   10.4028 S   0  0  0  0  0  0  0  0  0  0  0  0
    0.5541    3.6497    8.7600 C   0  0  0  0  0  0  0  0  0  0  0  0
   -0.4713    2.8798    8.1952 C   0  0  0  0  0  0  0  0  0  0  0  0
   -0.1780    1.6654    7.5343 C   0  0  0  0  0  0  0  0  0  0  0  0
   -1.2149    0.8690    6.8372 C   0  0  0  0  0  0  0  0  0  0  0  0
   -1.3634   -0.5139    6.8890 C   0  0  0  0  0  0  0  0  0  0  0  0
   -2.4075   -0.9957    6.0896 C   0  0  0  0  0  0  0  0  0  0  0  0
   -3.0893    0.0041    5.4056 C   0  0  0  0  0  0  0  0  0  0  0  0
   -4.2690   -0.2138    4.5447 C   0  0  0  0  0  0  0  0  0  0  0  0
   -4.9624    0.7965    4.0038 C   0  0  0  0  0  0  0  0  0  0  0  0
   -6.1838    0.5841    3.2058 C   0  0  0  0  0  0  0  0  0  0  0  0
   -6.9656    1.6007    2.6712 C   0  0  0  0  0  0  0  0  0  0  0  0
   -8.1066    1.1379    2.0037 C   0  0  0  0  0  0  0  0  0  0  0  0
   -8.2230   -0.2469    2.0107 C   0  0  0  0  0  0  0  0  0  0  0  0
   -9.3271   -1.0344    1.3722 C   0  0  0  0  0  0  0  0  0  0  0  0
  -10.0731   -1.8769    2.4030 C   0  0  0  0  0  0  0  0  0  0  0  0
   -6.9074   -0.8972    2.8354 S   0  0  0  0  0  0  0  0  0  0  0  0
   -2.3735    1.4832    5.7785 S   0  0  0  0  0  0  0  0  0  0  0  0
    1.1801    1.2906    7.4805 C   0  0  0  0  0  0  0  0  0  0  0  0
    1.8737    0.0066    6.6375 S   0  0  0  0  0  0  0  0  0  0  0  0
   -1.7467    3.4393    8.3936 C   0  0  0  0  0  0  0  0  0  0  0  0
   -1.7225    4.6645    9.0541 C   0  0  0  0  0  0  0  0  0  0  0  0
   -0.1226    5.0188    9.4689 S   0  0  0  0  0  0  0  0  0  0  0  0
   -2.9351    5.4604    9.3738 C   0  0  0  0  0  0  0  0  0  0  0  0
   -2.9656    6.7818    9.6270 C   0  0  0  0  0  0  0  0  0  0  0  0
   -1.8021    7.6264    9.5538 C   0  0  0  0  0  0  0  0  0  0  0  0
   -0.8673    8.3067    9.4833 N   0  0  0  0  0  0  0  0  0  0  0  0
   -4.2265    7.4207    9.9069 C   0  0  0  0  0  0  0  0  0  0  0  0
   -5.2426    7.9291   10.1290 N   0  0  0  0  0  0  0  0  0  0  0  0
   -6.3578    0.2122   -4.4983 H   0  0  0  0  0  0  0  0  0  0  0  0
   -3.5063   -0.2577  -10.1155 H   0  0  0  0  0  0  0  0  0  0  0  0
   -8.4848   -1.2310   -9.6049 H   0  0  0  0  0  0  0  0  0  0  0  0
   -7.5017   -1.0158  -12.9335 H   0  0  0  0  0  0  0  0  0  0  0  0
   -7.9457   -3.5585  -12.8093 H   0  0  0  0  0  0  0  0  0  0  0  0
   -6.6344   -4.6496  -10.7792 H   0  0  0  0  0  0  0  0  0  0  0  0
   -4.1002   -4.1388  -11.0701 H   0  0  0  0  0  0  0  0  0  0  0  0
   -3.7876   -2.7009  -13.2783 H   0  0  0  0  0  0  0  0  0  0  0  0
   -6.1301   -2.6759  -14.5692 H   0  0  0  0  0  0  0  0  0  0  0  0
   -5.7185   -4.3554  -13.9966 H   0  0  0  0  0  0  0  0  0  0  0  0
   -5.1993   -0.5410  -13.1819 H   0  0  0  0  0  0  0  0  0  0  0  0
   -5.9258   -3.5900   -5.4114 H   0  0  0  0  0  0  0  0  0  0  0  0
   -8.0683   -4.1324   -4.3406 H   0  0  0  0  0  0  0  0  0  0  0  0
   -9.5308   -4.0949   -2.4621 H   0  0  0  0  0  0  0  0  0  0  0  0
   -8.7427   -3.8348   -0.8681 H   0  0  0  0  0  0  0  0  0  0  0  0
   -9.5497   -2.4523   -1.7210 H   0  0  0  0  0  0  0  0  0  0  0  0
   -6.9235   -1.8232   -0.8826 H   0  0  0  0  0  0  0  0  0  0  0  0
   -4.7809   -1.2773   -1.9610 H   0  0  0  0  0  0  0  0  0  0  0  0
   -3.4740   -4.5197   -3.2788 H   0  0  0  0  0  0  0  0  0  0  0  0
   -2.1425   -6.3541   -4.2308 H   0  0  0  0  0  0  0  0  0  0  0  0
   -0.3906   -6.1460   -7.5897 H   0  0  0  0  0  0  0  0  0  0  0  0
    0.0163   -6.6528   -5.9065 H   0  0  0  0  0  0  0  0  0  0  0  0
   -1.4594   -7.3055   -6.7179 H   0  0  0  0  0  0  0  0  0  0  0  0
   -1.2874   -3.9308   -7.6939 H   0  0  0  0  0  0  0  0  0  0  0  0
   -2.6251   -2.1034   -6.7472 H   0  0  0  0  0  0  0  0  0  0  0  0
   -0.9381    5.2106   -3.8971 H   0  0  0  0  0  0  0  0  0  0  0  0
   -1.0867    6.6777   -5.8568 H   0  0  0  0  0  0  0  0  0  0  0  0
    0.5724    6.5675   -8.6121 H   0  0  0  0  0  0  0  0  0  0  0  0
   -1.1782    6.8973   -8.2966 H   0  0  0  0  0  0  0  0  0  0  0  0
   -0.7037    5.5193   -9.3507 H   0  0  0  0  0  0  0  0  0  0  0  0
    0.4578    3.5219   -8.3490 H   0  0  0  0  0  0  0  0  0  0  0  0
    0.6257    2.0537   -6.3880 H   0  0  0  0  0  0  0  0  0  0  0  0
   -1.1827    1.9165   -1.4776 H   0  0  0  0  0  0  0  0  0  0  0  0
   -0.5283    2.6696    0.7562 H   0  0  0  0  0  0  0  0  0  0  0  0
    0.6295    4.2737    2.1698 H   0  0  0  0  0  0  0  0  0  0  0  0
    1.6394    5.5592    1.4243 H   0  0  0  0  0  0  0  0  0  0  0  0
    2.3398    3.9156    1.7108 H   0  0  0  0  0  0  0  0  0  0  0  0
    2.4508    5.2559   -0.9785 H   0  0  0  0  0  0  0  0  0  0  0  0
    1.8142    4.4888   -3.2226 H   0  0  0  0  0  0  0  0  0  0  0  0
    1.3295   -0.3098   -6.4828 H   0  0  0  0  0  0  0  0  0  0  0  0
    0.8188   -1.8018   -8.3684 H   0  0  0  0  0  0  0  0  0  0  0  0
    1.5005   -4.1704   -8.3092 H   0  0  0  0  0  0  0  0  0  0  0  0
    2.2125   -6.1064   -6.9716 H   0  0  0  0  0  0  0  0  0  0  0  0
    2.8104   -5.8875   -5.2948 H   0  0  0  0  0  0  0  0  0  0  0  0
    4.9715   -4.9892   -6.1535 H   0  0  0  0  0  0  0  0  0  0  0  0
    4.3690   -5.1177   -7.8541 H   0  0  0  0  0  0  0  0  0  0  0  0
    4.6220   -6.6104   -6.8690 H   0  0  0  0  0  0  0  0  0  0  0  0
    3.1316   -3.6102   -4.3690 H   0  0  0  0  0  0  0  0  0  0  0  0
    3.5896   -3.4365    4.6979 H   0  0  0  0  0  0  0  0  0  0  0  0
    2.4034   -5.3306    5.7342 H   0  0  0  0  0  0  0  0  0  0  0  0
    2.3107   -5.5568    8.1889 H   0  0  0  0  0  0  0  0  0  0  0  0
    3.3320   -2.8941   10.5472 H   0  0  0  0  0  0  0  0  0  0  0  0
    2.5135   -4.4735   10.3759 H   0  0  0  0  0  0  0  0  0  0  0  0
    4.7608   -5.6089   10.1092 H   0  0  0  0  0  0  0  0  0  0  0  0
    5.5687   -4.0089   10.3536 H   0  0  0  0  0  0  0  0  0  0  0  0
    4.5974   -4.7404   11.6830 H   0  0  0  0  0  0  0  0  0  0  0  0
    4.6144   -1.9357    8.6012 H   0  0  0  0  0  0  0  0  0  0  0  0
    4.1390    2.1045   -0.5285 H   0  0  0  0  0  0  0  0  0  0  0  0
    5.2564    2.0150    0.7951 H   0  0  0  0  0  0  0  0  0  0  0  0
    2.9871    1.2462    1.4794 H   0  0  0  0  0  0  0  0  0  0  0  0
    3.0475   -0.0623    0.2425 H   0  0  0  0  0  0  0  0  0  0  0  0
    4.1787   -0.0930    1.6499 H   0  0  0  0  0  0  0  0  0  0  0  0
    6.5451    2.3927    2.4336 H   0  0  0  0  0  0  0  0  0  0  0  0
    8.0854    1.8075    3.0884 H   0  0  0  0  0  0  0  0  0  0  0  0
    9.0078    1.4226    0.7891 H   0  0  0  0  0  0  0  0  0  0  0  0
    7.5311    2.2055    0.0953 H   0  0  0  0  0  0  0  0  0  0  0  0
    8.6173    3.1413    1.1641 H   0  0  0  0  0  0  0  0  0  0  0  0
    4.4057    2.1370    7.9303 H   0  0  0  0  0  0  0  0  0  0  0  0
    2.5652    6.0770    8.5669 H   0  0  0  0  0  0  0  0  0  0  0  0
    4.5717    6.9670    9.9165 H   0  0  0  0  0  0  0  0  0  0  0  0
    6.8438    5.9236   11.0511 H   0  0  0  0  0  0  0  0  0  0  0  0
    7.6001    4.5589   12.8250 H   0  0  0  0  0  0  0  0  0  0  0  0
    7.0627    1.7286   13.2896 H   0  0  0  0  0  0  0  0  0  0  0  0
    5.2216    0.4677   14.5952 H   0  0  0  0  0  0  0  0  0  0  0  0
    2.9457    1.0438   15.9325 H   0  0  0  0  0  0  0  0  0  0  0  0
    2.2109    2.6536   15.6322 H   0  0  0  0  0  0  0  0  0  0  0  0
    2.2374    0.2654   13.6693 H   0  0  0  0  0  0  0  0  0  0  0  0
    1.5763    1.9067   13.2854 H   0  0  0  0  0  0  0  0  0  0  0  0
    0.8228    0.9112   14.5886 H   0  0  0  0  0  0  0  0  0  0  0  0
   -0.7461   -1.1604    7.4965 H   0  0  0  0  0  0  0  0  0  0  0  0
   -2.6712   -2.0436    6.0307 H   0  0  0  0  0  0  0  0  0  0  0  0
   -4.5895   -1.2367    4.3854 H   0  0  0  0  0  0  0  0  0  0  0  0
   -4.6438    1.8211    4.1675 H   0  0  0  0  0  0  0  0  0  0  0  0
   -6.7272    2.6501    2.7699 H   0  0  0  0  0  0  0  0  0  0  0  0
   -8.8231    1.7972    1.5359 H   0  0  0  0  0  0  0  0  0  0  0  0
  -10.0473   -0.3484    0.8728 H   0  0  0  0  0  0  0  0  0  0  0  0
   -8.8943   -1.6995    0.5991 H   0  0  0  0  0  0  0  0  0  0  0  0
  -10.4892   -1.2311    3.2073 H   0  0  0  0  0  0  0  0  0  0  0  0
   -9.3846   -2.6262    2.8517 H   0  0  0  0  0  0  0  0  0  0  0  0
  -10.9062   -2.4201    1.9077 H   0  0  0  0  0  0  0  0  0  0  0  0
   -2.6703    2.9739    8.0821 H   0  0  0  0  0  0  0  0  0  0  0  0
   -3.8752    4.9244    9.3558 H   0  0  0  0  0  0  0  0  0  0  0  0
  1  2  2  3
  2  3  1  0
  3  4  2  0
  3  5  1  0
  5  6  2  0
  6  7  1  0
  7  8  2  0
  8  9  1  0
  9 10  2  0
 10 11  1  0
 11 12  2  3
 12 13  1  0
 13 14  3  0
 12 15  1  0
 15 16  3  0
  8 17  1  0
 17 18  1  0
 18 19  1  0
 19 20  2  0
 20 21  1  0
 21 22  1  0
 21 23  1  0
  1 24  1  0
 24 25  2  0
 25 26  1  0
 26 27  1  0
 27 28  2  0
 28 29  1  0
 29 30  2  0
 30 31  1  0
 30 32  1  0
 32 33  2  0
 26 34  1  0
 34 35  2  0
 35 36  1  0
 36 37  2  0
 37 38  1  0
 37 39  1  0
 39 40  2  0
 25 41  1  0
 41 42  1  0
 42 43  1  0
 43 44  2  0
 44 45  1  0
 45 46  1  0
 46 47  2  0
 47 48  1  0
 48 49  2  0
 49 50  1  0
 49 51  1  0
 51 52  2  0
 45 53  1  0
 53 54  2  0
 54 55  1  0
 55 56  2  0
 56 57  1  0
 56 58  1  0
 58 59  2  0
 44 60  1  0
 60 61  1  0
 43 62  1  0
 62 63  2  0
 63 64  1  0
 64 65  2  0
 65 66  1  0
 66 67  2  0
 67 68  1  0
 68 69  1  0
 69 70  1  0
 68 71  2  0
 63 72  1  0
 72 73  1  0
 73 74  1  0
 74 75  1  0
 75 76  1  0
 76 77  1  0
 77 78  2  0
 78 79  1  0
 79 80  1  0
 77 81  1  0
 81 82  1  0
 82 83  1  0
 83 84  1  0
 84 85  1  0
 85 86  1  0
 86 87  2  0
 87 88  1  0
 88 89  2  0
 89 90  1  0
 90 91  1  0
 91 92  1  0
 90 93  2  0
 85 94  2  0
 94 95  1  0
 95 96  1  0
 96 97  1  0
 97 98  1  0
 98 99  1  0
 99100  1  0
100101  1  0
101102  1  0
102103  1  0
103104  1  0
101105  1  0
105106  1  0
 98107  1  0
107108  1  0
 94109  1  0
109110  2  0
110111  1  0
111112  2  0
112113  1  0
113114  2  0
114115  1  0
115116  2  0
116117  1  0
117118  2  3
118119  1  0
119120  2  0
120121  1  0
121122  2  0
122123  1  0
123124  1  0
122125  1  0
116126  1  0
112127  1  0
127128  2  0
128129  1  0
129130  1  0
130131  2  0
131132  1  0
132133  2  0
133134  1  0
134135  2  3
135136  1  0
136137  2  0
137138  1  0
138139  2  0
139140  1  0
140141  1  0
139142  1  0
133143  1  0
129144  2  0
144145  1  0
128146  1  0
146147  2  0
147148  1  0
147149  1  0
149150  2  3
150151  1  0
151152  3  0
150153  1  0
153154  3  0
 11  2  1  0
 23 17  1  0
 61 24  1  0
104 62  1  0
145109  1  0
 10  5  1  0
 22 18  1  0
 33 27  1  0
 40 34  1  0
 60 41  2  0
 71 64  1  0
103 72  2  0
144111  1  0
 23  7  1  0
 52 46  1  0
 59 53  1  0
102 74  2  0
126113  1  0
148127  1  0
100 75  2  0
125119  1  0
143130  1  0
 80 76  2  0
 99 81  2  0
142136  1  0
 97 82  2  0
 96 84  2  0
 93 86  1  0
  1155  1  0
  6156  1  0
  9157  1  0
 17158  1  0
 18159  1  0
 19160  1  0
 20161  1  0
 21162  1  0
 22163  1  0
 22164  1  0
 23165  1  0
 28166  1  0
 29167  1  0
 31168  1  0
 31169  1  0
 31170  1  0
 32171  1  0
 33172  1  0
 35173  1  0
 36174  1  0
 38175  1  0
 38176  1  0
 38177  1  0
 39178  1  0
 40179  1  0
 47180  1  0
 48181  1  0
 50182  1  0
 50183  1  0
 50184  1  0
 51185  1  0
 52186  1  0
 54187  1  0
 55188  1  0
 57189  1  0
 57190  1  0
 57191  1  0
 58192  1  0
 59193  1  0
 65194  1  0
 66195  1  0
 67196  1  0
 69197  1  0
 69198  1  0
 70199  1  0
 70200  1  0
 70201  1  0
 71202  1  0
 87203  1  0
 88204  1  0
 89205  1  0
 91206  1  0
 91207  1  0
 92208  1  0
 92209  1  0
 92210  1  0
 93211  1  0
105212  1  0
105213  1  0
106214  1  0
106215  1  0
106216  1  0
107217  1  0
107218  1  0
108219  1  0
108220  1  0
108221  1  0
110222  1  0
114223  1  0
115224  1  0
117225  1  0
118226  1  0
120227  1  0
121228  1  0
123229  1  0
123230  1  0
124231  1  0
124232  1  0
124233  1  0
131234  1  0
132235  1  0
134236  1  0
135237  1  0
137238  1  0
138239  1  0
140240  1  0
140241  1  0
141242  1  0
141243  1  0
141244  1  0
146245  1  0
149246  1  0
M  END

