
     RDKit          3D

229254  0  0  0  0  0  0  0  0999 V2000
    2.0843   -5.8603    0.4508 C   0  0  0  0  0  0  0  0  0  0  0  0
    1.2638   -6.7164   -0.1869 C   0  0  0  0  0  0  0  0  0  0  0  0
    1.6993   -7.4613   -1.3656 C   0  0  0  0  0  0  0  0  0  0  0  0
    2.8721   -7.4921   -1.8265 O   0  0  0  0  0  0  0  0  0  0  0  0
    0.5616   -8.1364   -1.9454 C   0  0  0  0  0  0  0  0  0  0  0  0
    0.5940   -9.0831   -2.9945 C   0  0  0  0  0  0  0  0  0  0  0  0
   -0.5970   -9.7589   -3.1756 C   0  0  0  0  0  0  0  0  0  0  0  0
   -1.7684   -9.5070   -2.3924 C   0  0  0  0  0  0  0  0  0  0  0  0
   -1.8173   -8.5586   -1.3855 C   0  0  0  0  0  0  0  0  0  0  0  0
   -0.5948   -7.8512   -1.1707 C   0  0  0  0  0  0  0  0  0  0  0  0
   -0.2033   -6.9786   -0.0223 C   0  0  0  0  0  0  0  0  0  0  0  0
   -0.9437   -6.8091    1.0961 C   0  0  0  0  0  0  0  0  0  0  0  0
   -2.3833   -6.7519    1.0544 C   0  0  0  0  0  0  0  0  0  0  0  0
   -3.5374   -6.6894    1.0375 N   0  0  0  0  0  0  0  0  0  0  0  0
   -0.3687   -6.9089    2.4097 C   0  0  0  0  0  0  0  0  0  0  0  0
    0.0619   -7.0322    3.4758 N   0  0  0  0  0  0  0  0  0  0  0  0
   -2.4995  -10.6122   -3.0965 C   0  0  0  0  0  0  0  0  0  0  0  0
   -3.5625  -10.1922   -4.1539 C   0  0  0  0  0  0  0  0  0  0  0  0
   -3.8405  -11.4281   -4.9744 C   0  0  0  0  0  0  0  0  0  0  0  0
   -2.7407  -11.6517   -5.7087 C   0  0  0  0  0  0  0  0  0  0  0  0
   -1.7619  -10.5594   -5.3540 C   0  0  0  0  0  0  0  0  0  0  0  0
   -2.7434   -9.4128   -5.1715 C   0  0  0  0  0  0  0  0  0  0  0  0
   -1.2999  -10.8629   -3.9009 C   0  0  0  0  0  0  0  0  0  0  0  0
    1.6785   -4.8724    1.4526 C   0  0  0  0  0  0  0  0  0  0  0  0
    1.0792   -3.6252    1.1942 C   0  0  0  0  0  0  0  0  0  0  0  0
    0.7325   -3.1413   -0.1131 N   0  0  0  0  0  0  0  0  0  0  0  0
    1.8044   -2.9162   -1.0506 C   0  0  0  0  0  0  0  0  0  0  0  0
    2.9195   -2.1519   -0.6727 C   0  0  0  0  0  0  0  0  0  0  0  0
    3.9401   -1.8949   -1.5888 C   0  0  0  0  0  0  0  0  0  0  0  0
    3.8649   -2.4054   -2.8926 C   0  0  0  0  0  0  0  0  0  0  0  0
    4.9265   -2.0622   -3.8979 C   0  0  0  0  0  0  0  0  0  0  0  0
    2.7551   -3.1775   -3.2702 C   0  0  0  0  0  0  0  0  0  0  0  0
    1.7349   -3.4415   -2.3505 C   0  0  0  0  0  0  0  0  0  0  0  0
   -0.6412   -2.7934   -0.4301 C   0  0  0  0  0  0  0  0  0  0  0  0
   -1.7059   -3.3045    0.3373 C   0  0  0  0  0  0  0  0  0  0  0  0
   -3.0317   -2.9957    0.0186 C   0  0  0  0  0  0  0  0  0  0  0  0
   -3.3206   -2.1550   -1.0661 C   0  0  0  0  0  0  0  0  0  0  0  0
   -4.7425   -1.8517   -1.4452 C   0  0  0  0  0  0  0  0  0  0  0  0
   -2.2717   -1.6321   -1.8296 C   0  0  0  0  0  0  0  0  0  0  0  0
   -0.9426   -1.9283   -1.5031 C   0  0  0  0  0  0  0  0  0  0  0  0
    1.0486   -2.8398    2.3419 C   0  0  0  0  0  0  0  0  0  0  0  0
    0.6793   -1.2323    2.6655 S   0  0  0  0  0  0  0  0  0  0  0  0
    1.1578   -1.3258    4.3033 C   0  0  0  0  0  0  0  0  0  0  0  0
    1.6332   -2.6116    4.5762 C   0  0  0  0  0  0  0  0  0  0  0  0
    2.0903   -3.0701    5.8551 N   0  0  0  0  0  0  0  0  0  0  0  0
    1.1530   -3.6639    6.7859 C   0  0  0  0  0  0  0  0  0  0  0  0
    1.4718   -3.7547    8.1541 C   0  0  0  0  0  0  0  0  0  0  0  0
    0.5782   -4.3476    9.0543 C   0  0  0  0  0  0  0  0  0  0  0  0
   -0.6530   -4.8495    8.6082 C   0  0  0  0  0  0  0  0  0  0  0  0
   -1.6049   -5.5080    9.5651 C   0  0  0  0  0  0  0  0  0  0  0  0
   -0.9717   -4.7734    7.2465 C   0  0  0  0  0  0  0  0  0  0  0  0
   -0.0868   -4.1726    6.3457 C   0  0  0  0  0  0  0  0  0  0  0  0
    3.5078   -3.2562    6.0191 C   0  0  0  0  0  0  0  0  0  0  0  0
    4.3788   -2.1660    5.8939 C   0  0  0  0  0  0  0  0  0  0  0  0
    5.7607   -2.3516    5.9910 C   0  0  0  0  0  0  0  0  0  0  0  0
    6.2887   -3.6328    6.2045 C   0  0  0  0  0  0  0  0  0  0  0  0
    7.7740   -3.8192    6.2734 C   0  0  0  0  0  0  0  0  0  0  0  0
    5.4173   -4.7264    6.3237 C   0  0  0  0  0  0  0  0  0  0  0  0
    4.0346   -4.5405    6.2395 C   0  0  0  0  0  0  0  0  0  0  0  0
    1.5906   -3.4134    3.4436 C   0  0  0  0  0  0  0  0  0  0  0  0
    2.2199   -4.9165    3.0657 S   0  0  0  0  0  0  0  0  0  0  0  0
    1.3097   -0.1641    5.1802 C   0  0  0  0  0  0  0  0  0  0  0  0
    0.5095    0.1606    6.2858 C   0  0  0  0  0  0  0  0  0  0  0  0
   -0.6663   -0.6052    6.7342 C   0  0  0  0  0  0  0  0  0  0  0  0
   -0.7978   -0.9609    8.0881 C   0  0  0  0  0  0  0  0  0  0  0  0
   -1.9240   -1.6584    8.5217 C   0  0  0  0  0  0  0  0  0  0  0  0
   -2.9353   -1.9950    7.6183 C   0  0  0  0  0  0  0  0  0  0  0  0
   -2.8193   -1.6377    6.2661 C   0  0  0  0  0  0  0  0  0  0  0  0
   -3.9548   -1.9182    5.3173 C   0  0  0  0  0  0  0  0  0  0  0  0
   -5.0490   -0.8598    5.4662 C   0  0  0  0  0  0  0  0  0  0  0  0
   -1.6829   -0.9415    5.8295 C   0  0  0  0  0  0  0  0  0  0  0  0
    0.8076    1.4470    6.7522 C   0  0  0  0  0  0  0  0  0  0  0  0
   -0.2499    2.5928    7.4117 S   0  0  0  0  0  0  0  0  0  0  0  0
    0.6946    3.9021    6.8861 C   0  0  0  0  0  0  0  0  0  0  0  0
    0.2999    5.0631    6.2620 C   0  0  0  0  0  0  0  0  0  0  0  0
   -0.9950    5.5917    6.2339 C   0  0  0  0  0  0  0  0  0  0  0  0
   -1.3874    6.3967    5.1363 C   0  0  0  0  0  0  0  0  0  0  0  0
   -2.6832    6.8015    5.0956 N   0  0  0  0  0  0  0  0  0  0  0  0
   -3.2436    6.0952    6.4834 S   0  0  0  0  0  0  0  0  0  0  0  0
   -1.9587    5.2885    7.1407 N   0  0  0  0  0  0  0  0  0  0  0  0
   -0.4580    6.6701    4.1365 C   0  0  0  0  0  0  0  0  0  0  0  0
   -0.6833    7.1279    2.8681 C   0  0  0  0  0  0  0  0  0  0  0  0
   -2.0357    7.0364    1.8431 S   0  0  0  0  0  0  0  0  0  0  0  0
   -1.0543    6.8522    0.4627 C   0  0  0  0  0  0  0  0  0  0  0  0
   -1.3134    6.4380   -0.8548 C   0  0  0  0  0  0  0  0  0  0  0  0
   -2.6677    6.1759   -1.4036 C   0  0  0  0  0  0  0  0  0  0  0  0
   -3.0069    6.5962   -2.7008 C   0  0  0  0  0  0  0  0  0  0  0  0
   -4.2801    6.3588   -3.2176 C   0  0  0  0  0  0  0  0  0  0  0  0
   -5.2431    5.7144   -2.4420 C   0  0  0  0  0  0  0  0  0  0  0  0
   -4.9332    5.2948   -1.1384 C   0  0  0  0  0  0  0  0  0  0  0  0
   -5.9865    4.6410   -0.2847 C   0  0  0  0  0  0  0  0  0  0  0  0
   -5.8459    3.1216   -0.2944 C   0  0  0  0  0  0  0  0  0  0  0  0
   -3.6390    5.5025   -0.6373 C   0  0  0  0  0  0  0  0  0  0  0  0
   -0.0961    6.1587   -1.5233 C   0  0  0  0  0  0  0  0  0  0  0  0
    1.2131    6.3299   -0.4536 S   0  0  0  0  0  0  0  0  0  0  0  0
    0.2718    6.8566    0.8208 C   0  0  0  0  0  0  0  0  0  0  0  0
    0.4798    6.9828    2.1894 C   0  0  0  0  0  0  0  0  0  0  0  0
    1.4711    6.4658    2.9527 N   0  0  0  0  0  0  0  0  0  0  0  0
    0.8816    6.2191    4.1769 C   0  0  0  0  0  0  0  0  0  0  0  0
    1.2641    5.3471    5.2616 C   0  0  0  0  0  0  0  0  0  0  0  0
    2.2425    4.3806    5.3105 N   0  0  0  0  0  0  0  0  0  0  0  0
    1.8072    3.4744    6.2175 C   0  0  0  0  0  0  0  0  0  0  0  0
    1.8399    2.0849    6.0964 C   0  0  0  0  0  0  0  0  0  0  0  0
    2.3372    1.1275    4.8123 S   0  0  0  0  0  0  0  0  0  0  0  0
    3.5815    4.3459    4.7009 C   0  0  0  0  0  0  0  0  0  0  0  0
    4.6431    3.7110    5.6121 C   0  0  0  0  0  0  0  0  0  0  0  0
    2.8842    6.6509    2.5900 C   0  0  0  0  0  0  0  0  0  0  0  0
    3.5397    7.7175    3.4631 C   0  0  0  0  0  0  0  0  0  0  0  0
    0.0815    5.5634   -2.8668 C   0  0  0  0  0  0  0  0  0  0  0  0
    0.2324    4.1636   -2.9515 C   0  0  0  0  0  0  0  0  0  0  0  0
   -0.0803    3.1290   -1.4963 S   0  0  0  0  0  0  0  0  0  0  0  0
   -1.7429    2.6083   -2.0348 C   0  0  0  0  0  0  0  0  0  0  0  0
   -2.4133    1.8191   -0.9256 C   0  0  0  0  0  0  0  0  0  0  0  0
    0.6522    3.5732   -4.1509 C   0  0  0  0  0  0  0  0  0  0  0  0
    0.9656    1.7872   -4.2238 S   0  0  0  0  0  0  0  0  0  0  0  0
    2.7570    1.8943   -3.8777 C   0  0  0  0  0  0  0  0  0  0  0  0
    3.0462    1.5941   -2.4135 C   0  0  0  0  0  0  0  0  0  0  0  0
    0.7868    4.3546   -5.3182 C   0  0  0  0  0  0  0  0  0  0  0  0
    0.5897    5.7621   -5.2678 C   0  0  0  0  0  0  0  0  0  0  0  0
    0.2895    6.3799   -4.0148 C   0  0  0  0  0  0  0  0  0  0  0  0
    0.2059    7.8809   -3.9351 C   0  0  0  0  0  0  0  0  0  0  0  0
    0.0865    8.4862   -2.8372 O   0  0  0  0  0  0  0  0  0  0  0  0
    0.2685    8.6737   -5.1692 C   0  0  0  0  0  0  0  0  0  0  0  0
    0.5150    8.0686   -6.3944 C   0  0  0  0  0  0  0  0  0  0  0  0
    0.7183    6.6196   -6.4961 C   0  0  0  0  0  0  0  0  0  0  0  0
    0.9805    6.1282   -7.6243 O   0  0  0  0  0  0  0  0  0  0  0  0
    0.5333    8.9554   -7.4682 C   0  0  0  0  0  0  0  0  0  0  0  0
    0.2415   10.4966   -6.8601 S   0  0  0  0  0  0  0  0  0  0  0  0
    0.0930   10.0514   -5.2428 C   0  0  0  0  0  0  0  0  0  0  0  0
    1.3705    3.6943   -6.4964 C   0  0  0  0  0  0  0  0  0  0  0  0
    0.7460    3.1979   -7.5843 C   0  0  0  0  0  0  0  0  0  0  0  0
    1.5347    2.5469   -8.6360 C   0  0  0  0  0  0  0  0  0  0  0  0
    2.7514    2.2283   -8.5466 O   0  0  0  0  0  0  0  0  0  0  0  0
    0.7069    2.3491   -9.8044 C   0  0  0  0  0  0  0  0  0  0  0  0
    1.0658    1.8752  -11.0740 C   0  0  0  0  0  0  0  0  0  0  0  0
    2.6599    1.2199  -11.4083 Cl  0  0  0  0  0  0  0  0  0  0  0  0
    0.1137    1.9388  -12.1002 C   0  0  0  0  0  0  0  0  0  0  0  0
   -1.1522    2.4933  -11.8609 C   0  0  0  0  0  0  0  0  0  0  0  0
   -2.4035    2.6580  -13.2932 Br  0  0  0  0  0  0  0  0  0  0  0  0
   -1.4946    2.9539  -10.5766 C   0  0  0  0  0  0  0  0  0  0  0  0
   -0.5624    2.8269   -9.5325 C   0  0  0  0  0  0  0  0  0  0  0  0
   -0.6702    3.2630   -8.1039 C   0  0  0  0  0  0  0  0  0  0  0  0
   -1.8471    3.4083   -7.4360 C   0  0  0  0  0  0  0  0  0  0  0  0
   -1.9880    3.8474   -6.0822 C   0  0  0  0  0  0  0  0  0  0  0  0
   -2.1764    4.2038   -4.9961 N   0  0  0  0  0  0  0  0  0  0  0  0
   -3.1002    3.0155   -8.0261 C   0  0  0  0  0  0  0  0  0  0  0  0
   -4.1141    2.6946   -8.4781 N   0  0  0  0  0  0  0  0  0  0  0  0
    3.1327   -5.8341    0.1767 H   0  0  0  0  0  0  0  0  0  0  0  0
    1.4907   -9.3230   -3.5476 H   0  0  0  0  0  0  0  0  0  0  0  0
   -2.6986   -8.4577   -0.7784 H   0  0  0  0  0  0  0  0  0  0  0  0
   -2.7867  -11.4537   -2.4278 H   0  0  0  0  0  0  0  0  0  0  0  0
   -4.4606   -9.6752   -3.7574 H   0  0  0  0  0  0  0  0  0  0  0  0
   -4.7673  -11.9928   -5.0232 H   0  0  0  0  0  0  0  0  0  0  0  0
   -2.6223  -12.4116   -6.4724 H   0  0  0  0  0  0  0  0  0  0  0  0
   -0.9470  -10.3883   -6.0883 H   0  0  0  0  0  0  0  0  0  0  0  0
   -2.2766   -8.4813   -4.7803 H   0  0  0  0  0  0  0  0  0  0  0  0
   -3.3117   -9.1646   -6.0973 H   0  0  0  0  0  0  0  0  0  0  0  0
   -0.8466  -11.8671   -3.7455 H   0  0  0  0  0  0  0  0  0  0  0  0
    2.9837   -1.7329    0.3234 H   0  0  0  0  0  0  0  0  0  0  0  0
    4.7797   -1.2780   -1.2896 H   0  0  0  0  0  0  0  0  0  0  0  0
    5.0076   -2.8518   -4.6743 H   0  0  0  0  0  0  0  0  0  0  0  0
    4.6702   -1.1001   -4.3866 H   0  0  0  0  0  0  0  0  0  0  0  0
    5.9183   -1.9600   -3.4064 H   0  0  0  0  0  0  0  0  0  0  0  0
    2.6742   -3.5650   -4.2771 H   0  0  0  0  0  0  0  0  0  0  0  0
    0.8860   -4.0378   -2.6539 H   0  0  0  0  0  0  0  0  0  0  0  0
   -1.5167   -3.9494    1.1831 H   0  0  0  0  0  0  0  0  0  0  0  0
   -3.8281   -3.4159    0.6204 H   0  0  0  0  0  0  0  0  0  0  0  0
   -5.4449   -2.0982   -0.6196 H   0  0  0  0  0  0  0  0  0  0  0  0
   -4.8475   -0.7708   -1.6777 H   0  0  0  0  0  0  0  0  0  0  0  0
   -5.0212   -2.4434   -2.3427 H   0  0  0  0  0  0  0  0  0  0  0  0
   -2.4743   -0.9806   -2.6725 H   0  0  0  0  0  0  0  0  0  0  0  0
   -0.1560   -1.4741   -2.0913 H   0  0  0  0  0  0  0  0  0  0  0  0
    2.4091   -3.3636    8.5302 H   0  0  0  0  0  0  0  0  0  0  0  0
    0.8458   -4.4130   10.1016 H   0  0  0  0  0  0  0  0  0  0  0  0
   -2.6521   -5.2271    9.3147 H   0  0  0  0  0  0  0  0  0  0  0  0
   -1.4940   -6.6111    9.4936 H   0  0  0  0  0  0  0  0  0  0  0  0
   -1.4027   -5.1913   10.6098 H   0  0  0  0  0  0  0  0  0  0  0  0
   -1.9104   -5.1690    6.8821 H   0  0  0  0  0  0  0  0  0  0  0  0
   -0.3694   -4.1319    5.3024 H   0  0  0  0  0  0  0  0  0  0  0  0
    3.9914   -1.1684    5.7291 H   0  0  0  0  0  0  0  0  0  0  0  0
    6.4209   -1.4979    5.8942 H   0  0  0  0  0  0  0  0  0  0  0  0
    8.1922   -3.1760    7.0780 H   0  0  0  0  0  0  0  0  0  0  0  0
    8.2296   -3.5261    5.3029 H   0  0  0  0  0  0  0  0  0  0  0  0
    8.0426   -4.8744    6.4895 H   0  0  0  0  0  0  0  0  0  0  0  0
    5.8057   -5.7261    6.4775 H   0  0  0  0  0  0  0  0  0  0  0  0
    3.3758   -5.3954    6.3154 H   0  0  0  0  0  0  0  0  0  0  0  0
   -0.0238   -0.7041    8.8007 H   0  0  0  0  0  0  0  0  0  0  0  0
   -2.0156   -1.9456    9.5634 H   0  0  0  0  0  0  0  0  0  0  0  0
   -3.8089   -2.5272    7.9720 H   0  0  0  0  0  0  0  0  0  0  0  0
   -4.3813   -2.9227    5.5301 H   0  0  0  0  0  0  0  0  0  0  0  0
   -3.5950   -1.9239    4.2653 H   0  0  0  0  0  0  0  0  0  0  0  0
   -5.4473   -0.8585    6.5052 H   0  0  0  0  0  0  0  0  0  0  0  0
   -4.6442    0.1474    5.2272 H   0  0  0  0  0  0  0  0  0  0  0  0
   -5.8831   -1.0859    4.7671 H   0  0  0  0  0  0  0  0  0  0  0  0
   -1.6043   -0.6346    4.7946 H   0  0  0  0  0  0  0  0  0  0  0  0
   -2.2962    7.1302   -3.3118 H   0  0  0  0  0  0  0  0  0  0  0  0
   -4.5268    6.6877   -4.2210 H   0  0  0  0  0  0  0  0  0  0  0  0
   -6.2306    5.5522   -2.8518 H   0  0  0  0  0  0  0  0  0  0  0  0
   -5.9068    5.0128    0.7611 H   0  0  0  0  0  0  0  0  0  0  0  0
   -7.0006    4.9071   -0.6564 H   0  0  0  0  0  0  0  0  0  0  0  0
   -6.7252    2.6682    0.2183 H   0  0  0  0  0  0  0  0  0  0  0  0
   -4.9277    2.8179    0.2537 H   0  0  0  0  0  0  0  0  0  0  0  0
   -5.8049    2.7343   -1.3372 H   0  0  0  0  0  0  0  0  0  0  0  0
   -3.3883    5.1250    0.3442 H   0  0  0  0  0  0  0  0  0  0  0  0
    3.5450    3.7961    3.7343 H   0  0  0  0  0  0  0  0  0  0  0  0
    3.9445    5.3706    4.5811 H   0  0  0  0  0  0  0  0  0  0  0  0
    4.5728    4.1383    6.6360 H   0  0  0  0  0  0  0  0  0  0  0  0
    5.6592    3.9342    5.2140 H   0  0  0  0  0  0  0  0  0  0  0  0
    4.5406    2.6072    5.6636 H   0  0  0  0  0  0  0  0  0  0  0  0
    2.9643    7.0255    1.5492 H   0  0  0  0  0  0  0  0  0  0  0  0
    3.4263    5.6962    2.5521 H   0  0  0  0  0  0  0  0  0  0  0  0
    4.6337    7.7369    3.2594 H   0  0  0  0  0  0  0  0  0  0  0  0
    3.1129    8.7130    3.2170 H   0  0  0  0  0  0  0  0  0  0  0  0
    3.3756    7.5283    4.5451 H   0  0  0  0  0  0  0  0  0  0  0  0
   -2.3628    3.4949   -2.2901 H   0  0  0  0  0  0  0  0  0  0  0  0
   -1.6548    1.9596   -2.9339 H   0  0  0  0  0  0  0  0  0  0  0  0
   -1.7774    0.9545   -0.6328 H   0  0  0  0  0  0  0  0  0  0  0  0
   -2.5731    2.4769   -0.0451 H   0  0  0  0  0  0  0  0  0  0  0  0
   -3.3941    1.4392   -1.2830 H   0  0  0  0  0  0  0  0  0  0  0  0
    3.2760    1.1424   -4.5024 H   0  0  0  0  0  0  0  0  0  0  0  0
    3.1722    2.8934   -4.1292 H   0  0  0  0  0  0  0  0  0  0  0  0
    4.1419    1.4678   -2.2640 H   0  0  0  0  0  0  0  0  0  0  0  0
    2.5350    0.6594   -2.0963 H   0  0  0  0  0  0  0  0  0  0  0  0
    2.6953    2.4328   -1.7730 H   0  0  0  0  0  0  0  0  0  0  0  0
    0.6815    8.6981   -8.5046 H   0  0  0  0  0  0  0  0  0  0  0  0
   -0.1251   10.7124   -4.4157 H   0  0  0  0  0  0  0  0  0  0  0  0
    2.4441    3.5649   -6.4222 H   0  0  0  0  0  0  0  0  0  0  0  0
    0.3646    1.5811  -13.0870 H   0  0  0  0  0  0  0  0  0  0  0  0
   -2.4484    3.4374  -10.4348 H   0  0  0  0  0  0  0  0  0  0  0  0
  1  2  2  3
  2  3  1  0
  3  4  2  0
  3  5  1  0
  5  6  2  0
  6  7  1  0
  7  8  2  0
  8  9  1  0
  9 10  2  0
 10 11  1  0
 11 12  2  3
 12 13  1  0
 13 14  3  0
 12 15  1  0
 15 16  3  0
  8 17  1  0
 17 18  1  0
 18 19  1  0
 19 20  2  0
 20 21  1  0
 21 22  1  0
 21 23  1  0
  1 24  1  0
 24 25  2  0
 25 26  1  0
 26 27  1  0
 27 28  2  0
 28 29  1  0
 29 30  2  0
 30 31  1  0
 30 32  1  0
 32 33  2  0
 26 34  1  0
 34 35  2  0
 35 36  1  0
 36 37  2  0
 37 38  1  0
 37 39  1  0
 39 40  2  0
 25 41  1  0
 41 42  1  0
 42 43  1  0
 43 44  2  0
 44 45  1  0
 45 46  1  0
 46 47  2  0
 47 48  1  0
 48 49  2  0
 49 50  1  0
 49 51  1  0
 51 52  2  0
 45 53  1  0
 53 54  2  0
 54 55  1  0
 55 56  2  0
 56 57  1  0
 56 58  1  0
 58 59  2  0
 44 60  1  0
 60 61  1  0
 43 62  1  0
 62 63  2  0
 63 64  1  0
 64 65  2  0
 65 66  1  0
 66 67  2  0
 67 68  1  0
 68 69  1  0
 69 70  1  0
 68 71  2  0
 63 72  1  0
 72 73  1  0
 73 74  1  0
 74 75  1  0
 75 76  1  0
 76 77  1  0
 77 78  2  0
 78 79  1  0
 79 80  1  0
 77 81  1  0
 81 82  1  0
 82 83  1  0
 83 84  1  0
 84 85  1  0
 85 86  1  0
 86 87  2  0
 87 88  1  0
 88 89  2  0
 89 90  1  0
 90 91  1  0
 91 92  1  0
 90 93  2  0
 85 94  2  0
 94 95  1  0
 95 96  1  0
 96 97  1  0
 97 98  1  0
 98 99  1  0
 99100  1  0
100101  1  0
101102  1  0
102103  1  0
103104  1  0
101105  1  0
105106  1  0
 98107  1  0
107108  1  0
 94109  1  0
109110  2  0
110111  1  0
111112  1  0
112113  1  0
110114  1  0
114115  1  0
115116  1  0
116117  1  0
114118  2  0
118119  1  0
119120  2  0
120121  1  0
121122  2  0
121123  1  0
123124  1  0
124125  1  0
125126  2  0
124127  2  0
127128  1  0
128129  1  0
118130  1  0
130131  2  3
131132  1  0
132133  2  0
132134  1  0
134135  2  0
135136  1  0
135137  1  0
137138  2  0
138139  1  0
138140  1  0
140141  2  0
141142  1  0
142143  2  3
143144  1  0
144145  3  0
143146  1  0
146147  3  0
 11  2  1  0
 23 17  1  0
 61 24  1  0
104 62  1  0
120109  1  0
129123  2  0
142131  1  0
 10  5  1  0
 22 18  1  0
 33 27  1  0
 40 34  1  0
 60 41  2  0
 71 64  1  0
103 72  2  0
125119  1  0
141134  1  0
 23  7  1  0
 52 46  1  0
 59 53  1  0
102 74  2  0
100 75  2  0
 80 76  2  0
 99 81  2  0
 97 82  2  0
 96 84  2  0
 93 86  1  0
  1148  1  0
  6149  1  0
  9150  1  0
 17151  1  0
 18152  1  0
 19153  1  0
 20154  1  0
 21155  1  0
 22156  1  0
 22157  1  0
 23158  1  0
 28159  1  0
 29160  1  0
 31161  1  0
 31162  1  0
 31163  1  0
 32164  1  0
 33165  1  0
 35166  1  0
 36167  1  0
 38168  1  0
 38169  1  0
 38170  1  0
 39171  1  0
 40172  1  0
 47173  1  0
 48174  1  0
 50175  1  0
 50176  1  0
 50177  1  0
 51178  1  0
 52179  1  0
 54180  1  0
 55181  1  0
 57182  1  0
 57183  1  0
 57184  1  0
 58185  1  0
 59186  1  0
 65187  1  0
 66188  1  0
 67189  1  0
 69190  1  0
 69191  1  0
 70192  1  0
 70193  1  0
 70194  1  0
 71195  1  0
 87196  1  0
 88197  1  0
 89198  1  0
 91199  1  0
 91200  1  0
 92201  1  0
 92202  1  0
 92203  1  0
 93204  1  0
105205  1  0
105206  1  0
106207  1  0
106208  1  0
106209  1  0
107210  1  0
107211  1  0
108212  1  0
108213  1  0
108214  1  0
112215  1  0
112216  1  0
113217  1  0
113218  1  0
113219  1  0
116220  1  0
116221  1  0
117222  1  0
117223  1  0
117224  1  0
127225  1  0
129226  1  0
130227  1  0
137228  1  0
140229  1  0
M  END

