
     RDKit          3D

266294  0  0  0  0  0  0  0  0999 V2000
    0.3153   -3.8884    9.3941 C   0  0  0  0  0  0  0  0  0  0  0  0
    0.4129   -2.8018   10.1960 C   0  0  0  0  0  0  0  0  0  0  0  0
    0.5658   -1.4245    9.6943 C   0  0  0  0  0  0  0  0  0  0  0  0
   -0.1732   -0.8563    8.8498 O   0  0  0  0  0  0  0  0  0  0  0  0
    1.6631   -0.7863   10.3885 C   0  0  0  0  0  0  0  0  0  0  0  0
    2.3244    0.4122   10.0233 C   0  0  0  0  0  0  0  0  0  0  0  0
    3.4931    0.6382   10.7245 C   0  0  0  0  0  0  0  0  0  0  0  0
    4.0007   -0.2611   11.7173 C   0  0  0  0  0  0  0  0  0  0  0  0
    3.3417   -1.4202   12.0970 C   0  0  0  0  0  0  0  0  0  0  0  0
    2.1136   -1.6547   11.4117 C   0  0  0  0  0  0  0  0  0  0  0  0
    1.2075   -2.8352   11.4533 C   0  0  0  0  0  0  0  0  0  0  0  0
    1.0531   -3.7187   12.4677 C   0  0  0  0  0  0  0  0  0  0  0  0
    1.8693   -3.6715   13.6524 C   0  0  0  0  0  0  0  0  0  0  0  0
    2.5249   -3.6456   14.6086 N   0  0  0  0  0  0  0  0  0  0  0  0
   -0.0137   -4.6861   12.4599 C   0  0  0  0  0  0  0  0  0  0  0  0
   -0.8773   -5.4576   12.4613 N   0  0  0  0  0  0  0  0  0  0  0  0
    5.2207    0.5940   11.8872 C   0  0  0  0  0  0  0  0  0  0  0  0
    6.5402    0.0914   11.2232 C   0  0  0  0  0  0  0  0  0  0  0  0
    7.4742    1.2816   11.2046 C   0  0  0  0  0  0  0  0  0  0  0  0
    6.9743    2.1376   10.3065 C   0  0  0  0  0  0  0  0  0  0  0  0
    5.7284    1.4977    9.7443 C   0  0  0  0  0  0  0  0  0  0  0  0
    6.1906    0.0512    9.7450 C   0  0  0  0  0  0  0  0  0  0  0  0
    4.6818    1.5303   10.8937 C   0  0  0  0  0  0  0  0  0  0  0  0
    0.6939   -3.7835    7.9762 C   0  0  0  0  0  0  0  0  0  0  0  0
    2.0297   -3.9291    7.5539 C   0  0  0  0  0  0  0  0  0  0  0  0
    2.8255   -5.0612    7.9398 N   0  0  0  0  0  0  0  0  0  0  0  0
    2.3844   -6.3773    7.5509 C   0  0  0  0  0  0  0  0  0  0  0  0
    1.9921   -6.6380    6.2259 C   0  0  0  0  0  0  0  0  0  0  0  0
    1.4632   -7.8800    5.8710 C   0  0  0  0  0  0  0  0  0  0  0  0
    1.3100   -8.8874    6.8370 C   0  0  0  0  0  0  0  0  0  0  0  0
    0.7014  -10.2034    6.4542 C   0  0  0  0  0  0  0  0  0  0  0  0
    1.7130   -8.6392    8.1587 C   0  0  0  0  0  0  0  0  0  0  0  0
    2.2509   -7.3960    8.5125 C   0  0  0  0  0  0  0  0  0  0  0  0
    4.0379   -4.9002    8.6922 C   0  0  0  0  0  0  0  0  0  0  0  0
    3.9877   -4.5097   10.0335 C   0  0  0  0  0  0  0  0  0  0  0  0
    5.1560   -4.4122   10.7927 C   0  0  0  0  0  0  0  0  0  0  0  0
    6.3930   -4.7301   10.2209 C   0  0  0  0  0  0  0  0  0  0  0  0
    7.6446   -4.6026   11.0402 C   0  0  0  0  0  0  0  0  0  0  0  0
    6.4471   -5.1440    8.8789 C   0  0  0  0  0  0  0  0  0  0  0  0
    5.2709   -5.2337    8.1196 C   0  0  0  0  0  0  0  0  0  0  0  0
    2.2269   -3.2782    6.3435 C   0  0  0  0  0  0  0  0  0  0  0  0
    3.5587   -3.0367    5.3438 S   0  0  0  0  0  0  0  0  0  0  0  0
    2.6470   -2.2215    4.1532 C   0  0  0  0  0  0  0  0  0  0  0  0
    1.2873   -2.2035    4.5151 C   0  0  0  0  0  0  0  0  0  0  0  0
    0.2197   -2.0543    3.5588 N   0  0  0  0  0  0  0  0  0  0  0  0
   -0.9723   -1.3221    3.8987 C   0  0  0  0  0  0  0  0  0  0  0  0
   -2.2383   -1.8863    3.6636 C   0  0  0  0  0  0  0  0  0  0  0  0
   -3.3991   -1.1622    3.9468 C   0  0  0  0  0  0  0  0  0  0  0  0
   -3.3074    0.1411    4.4641 C   0  0  0  0  0  0  0  0  0  0  0  0
   -4.5568    0.9055    4.7837 C   0  0  0  0  0  0  0  0  0  0  0  0
   -2.0447    0.6903    4.7367 C   0  0  0  0  0  0  0  0  0  0  0  0
   -0.8830   -0.0330    4.4506 C   0  0  0  0  0  0  0  0  0  0  0  0
    0.3091   -2.7660    2.3039 C   0  0  0  0  0  0  0  0  0  0  0  0
   -0.0675   -2.1428    1.1023 C   0  0  0  0  0  0  0  0  0  0  0  0
    0.1509   -2.7818   -0.1227 C   0  0  0  0  0  0  0  0  0  0  0  0
    0.7554   -4.0460   -0.1639 C   0  0  0  0  0  0  0  0  0  0  0  0
    1.0673   -4.6932   -1.4803 C   0  0  0  0  0  0  0  0  0  0  0  0
    1.0514   -4.7066    1.0360 C   0  0  0  0  0  0  0  0  0  0  0  0
    0.8415   -4.0673    2.2605 C   0  0  0  0  0  0  0  0  0  0  0  0
    1.1082   -2.7599    5.7728 C   0  0  0  0  0  0  0  0  0  0  0  0
   -0.2181   -2.9929    6.7709 S   0  0  0  0  0  0  0  0  0  0  0  0
    3.1954   -1.4503    3.0267 C   0  0  0  0  0  0  0  0  0  0  0  0
    4.3051   -1.7606    2.2152 C   0  0  0  0  0  0  0  0  0  0  0  0
    5.0757   -3.0077    2.3184 C   0  0  0  0  0  0  0  0  0  0  0  0
    4.5569   -4.1880    1.7741 C   0  0  0  0  0  0  0  0  0  0  0  0
    5.1850   -5.4120    2.0116 C   0  0  0  0  0  0  0  0  0  0  0  0
    6.3482   -5.4580    2.7835 C   0  0  0  0  0  0  0  0  0  0  0  0
    6.9135   -4.2743    3.2886 C   0  0  0  0  0  0  0  0  0  0  0  0
    8.1570   -4.3327    4.1321 C   0  0  0  0  0  0  0  0  0  0  0  0
    7.8045   -4.5507    5.5974 C   0  0  0  0  0  0  0  0  0  0  0  0
    6.2642   -3.0480    3.0608 C   0  0  0  0  0  0  0  0  0  0  0  0
    4.4700   -0.7980    1.2107 C   0  0  0  0  0  0  0  0  0  0  0  0
    5.4532   -0.6753   -0.1853 S   0  0  0  0  0  0  0  0  0  0  0  0
    4.6201    0.7266   -0.6862 C   0  0  0  0  0  0  0  0  0  0  0  0
    4.5913    1.6375   -1.7070 C   0  0  0  0  0  0  0  0  0  0  0  0
    5.4113    1.8173   -2.8255 C   0  0  0  0  0  0  0  0  0  0  0  0
    5.1068    2.8776   -3.7317 C   0  0  0  0  0  0  0  0  0  0  0  0
    5.9102    3.0028   -4.8186 N   0  0  0  0  0  0  0  0  0  0  0  0
    6.9736    1.7656   -4.5228 S   0  0  0  0  0  0  0  0  0  0  0  0
    6.4874    1.0444   -3.1134 N   0  0  0  0  0  0  0  0  0  0  0  0
    3.9855    3.6877   -3.4830 C   0  0  0  0  0  0  0  0  0  0  0  0
    3.2914    4.5070   -4.3387 C   0  0  0  0  0  0  0  0  0  0  0  0
    3.2528    4.5790   -6.0373 S   0  0  0  0  0  0  0  0  0  0  0  0
    1.5951    4.9398   -6.0552 C   0  0  0  0  0  0  0  0  0  0  0  0
    0.6353    4.7647   -7.0590 C   0  0  0  0  0  0  0  0  0  0  0  0
    0.9664    4.6317   -8.4861 C   0  0  0  0  0  0  0  0  0  0  0  0
    0.9361    3.3861   -9.1231 C   0  0  0  0  0  0  0  0  0  0  0  0
    1.2086    3.2912  -10.4899 C   0  0  0  0  0  0  0  0  0  0  0  0
    1.5342    4.4373  -11.2229 C   0  0  0  0  0  0  0  0  0  0  0  0
    1.6036    5.6863  -10.5858 C   0  0  0  0  0  0  0  0  0  0  0  0
    1.9720    6.9217  -11.3649 C   0  0  0  0  0  0  0  0  0  0  0  0
    0.7547    7.8161  -11.5871 C   0  0  0  0  0  0  0  0  0  0  0  0
    1.3141    5.7768   -9.2153 C   0  0  0  0  0  0  0  0  0  0  0  0
   -0.6652    4.6727   -6.5245 C   0  0  0  0  0  0  0  0  0  0  0  0
   -0.5684    4.7920   -4.8395 S   0  0  0  0  0  0  0  0  0  0  0  0
    1.0954    4.9647   -4.7752 C   0  0  0  0  0  0  0  0  0  0  0  0
    2.0504    4.6917   -3.7911 C   0  0  0  0  0  0  0  0  0  0  0  0
    1.9177    4.0531   -2.5957 N   0  0  0  0  0  0  0  0  0  0  0  0
    3.1435    3.4735   -2.3804 C   0  0  0  0  0  0  0  0  0  0  0  0
    3.5064    2.4845   -1.4268 C   0  0  0  0  0  0  0  0  0  0  0  0
    2.9445    2.1831   -0.2094 N   0  0  0  0  0  0  0  0  0  0  0  0
    3.6359    1.0801    0.1732 C   0  0  0  0  0  0  0  0  0  0  0  0
    3.5588    0.2290    1.2567 C   0  0  0  0  0  0  0  0  0  0  0  0
    2.4834    0.0043    2.5059 S   0  0  0  0  0  0  0  0  0  0  0  0
    2.3526    3.1414    0.7360 C   0  0  0  0  0  0  0  0  0  0  0  0
    0.9887    2.6837    1.2734 C   0  0  0  0  0  0  0  0  0  0  0  0
    0.6301    3.6363   -2.0273 C   0  0  0  0  0  0  0  0  0  0  0  0
   -0.0992    4.8238   -1.3858 C   0  0  0  0  0  0  0  0  0  0  0  0
   -1.7993    3.9711   -7.1391 C   0  0  0  0  0  0  0  0  0  0  0  0
   -3.1332    4.4034   -7.0726 C   0  0  0  0  0  0  0  0  0  0  0  0
   -3.5200    5.7374   -6.6853 N   0  0  0  0  0  0  0  0  0  0  0  0
   -3.0612    6.8596   -7.4825 C   0  0  0  0  0  0  0  0  0  0  0  0
   -2.8473    8.1228   -6.8982 C   0  0  0  0  0  0  0  0  0  0  0  0
   -2.4415    9.2077   -7.6810 C   0  0  0  0  0  0  0  0  0  0  0  0
   -2.2098    9.0455   -9.0512 C   0  0  0  0  0  0  0  0  0  0  0  0
   -1.8048   10.2250   -9.8873 C   0  0  0  0  0  0  0  0  0  0  0  0
   -2.3962    7.7862   -9.6334 C   0  0  0  0  0  0  0  0  0  0  0  0
   -2.8142    6.7033   -8.8586 C   0  0  0  0  0  0  0  0  0  0  0  0
   -4.3699    5.9197   -5.5273 C   0  0  0  0  0  0  0  0  0  0  0  0
   -4.2072    5.1134   -4.3858 C   0  0  0  0  0  0  0  0  0  0  0  0
   -5.0492    5.2612   -3.2819 C   0  0  0  0  0  0  0  0  0  0  0  0
   -6.0650    6.2271   -3.2928 C   0  0  0  0  0  0  0  0  0  0  0  0
   -6.9986    6.3466   -2.1253 C   0  0  0  0  0  0  0  0  0  0  0  0
   -6.2496    7.0173   -4.4362 C   0  0  0  0  0  0  0  0  0  0  0  0
   -5.4102    6.8654   -5.5436 C   0  0  0  0  0  0  0  0  0  0  0  0
   -4.0318    3.3390   -7.2017 C   0  0  0  0  0  0  0  0  0  0  0  0
   -5.6668    3.2043   -6.8907 S   0  0  0  0  0  0  0  0  0  0  0  0
   -5.6636    1.5038   -6.8475 C   0  0  0  0  0  0  0  0  0  0  0  0
   -4.3514    1.0155   -7.0817 C   0  0  0  0  0  0  0  0  0  0  0  0
   -3.9259   -0.3666   -6.9218 N   0  0  0  0  0  0  0  0  0  0  0  0
   -4.8515   -1.4216   -6.6221 C   0  0  0  0  0  0  0  0  0  0  0  0
   -5.5790   -2.0328   -7.6529 C   0  0  0  0  0  0  0  0  0  0  0  0
   -6.4373   -3.1014   -7.3691 C   0  0  0  0  0  0  0  0  0  0  0  0
   -6.5807   -3.5650   -6.0525 C   0  0  0  0  0  0  0  0  0  0  0  0
   -7.5061   -4.6992   -5.7284 C   0  0  0  0  0  0  0  0  0  0  0  0
   -5.8510   -2.9530   -5.0252 C   0  0  0  0  0  0  0  0  0  0  0  0
   -4.9834   -1.8986   -5.3095 C   0  0  0  0  0  0  0  0  0  0  0  0
   -2.5641   -0.7602   -7.1405 C   0  0  0  0  0  0  0  0  0  0  0  0
   -1.7680   -1.1765   -6.0636 C   0  0  0  0  0  0  0  0  0  0  0  0
   -0.4381   -1.5516   -6.2711 C   0  0  0  0  0  0  0  0  0  0  0  0
    0.1195   -1.4898   -7.5556 C   0  0  0  0  0  0  0  0  0  0  0  0
    1.5451   -1.9044   -7.7724 C   0  0  0  0  0  0  0  0  0  0  0  0
   -0.6817   -1.0949   -8.6378 C   0  0  0  0  0  0  0  0  0  0  0  0
   -2.0207   -0.7409   -8.4328 C   0  0  0  0  0  0  0  0  0  0  0  0
   -3.4753    2.0975   -7.2872 C   0  0  0  0  0  0  0  0  0  0  0  0
   -1.8063    2.2753   -7.2463 S   0  0  0  0  0  0  0  0  0  0  0  0
   -6.7665    0.7922   -6.1903 C   0  0  0  0  0  0  0  0  0  0  0  0
   -6.7876    0.6012   -4.8570 C   0  0  0  0  0  0  0  0  0  0  0  0
   -5.7413    1.0356   -3.9143 C   0  0  0  0  0  0  0  0  0  0  0  0
   -4.5881    1.4519   -4.2036 O   0  0  0  0  0  0  0  0  0  0  0  0
   -6.2573    0.9208   -2.5720 C   0  0  0  0  0  0  0  0  0  0  0  0
   -5.6725    1.3811   -1.3953 C   0  0  0  0  0  0  0  0  0  0  0  0
   -6.4349    1.3587   -0.2075 C   0  0  0  0  0  0  0  0  0  0  0  0
   -5.9337    1.8558    1.0061 O   0  0  0  0  0  0  0  0  0  0  0  0
   -4.6656    2.4898    1.1510 C   0  0  0  0  0  0  0  0  0  0  0  0
   -7.7508    0.8562   -0.2435 C   0  0  0  0  0  0  0  0  0  0  0  0
   -8.3163    0.3945   -1.4459 C   0  0  0  0  0  0  0  0  0  0  0  0
   -7.5389    0.4063   -2.6132 C   0  0  0  0  0  0  0  0  0  0  0  0
   -7.9054    0.0667   -4.0149 C   0  0  0  0  0  0  0  0  0  0  0  0
   -8.9133   -0.7588   -4.4019 C   0  0  0  0  0  0  0  0  0  0  0  0
   -9.7264   -1.4584   -3.4442 C   0  0  0  0  0  0  0  0  0  0  0  0
  -10.3671   -2.0345   -2.6773 N   0  0  0  0  0  0  0  0  0  0  0  0
   -9.1296   -1.1323   -5.7736 C   0  0  0  0  0  0  0  0  0  0  0  0
   -9.3115   -1.4331   -6.8768 N   0  0  0  0  0  0  0  0  0  0  0  0
    0.4801   -4.8612    9.8433 H   0  0  0  0  0  0  0  0  0  0  0  0
    1.9885    1.0568    9.2236 H   0  0  0  0  0  0  0  0  0  0  0  0
    3.7783   -2.1001   12.8103 H   0  0  0  0  0  0  0  0  0  0  0  0
    5.3299    1.0194   12.9094 H   0  0  0  0  0  0  0  0  0  0  0  0
    6.9760   -0.8391   11.6431 H   0  0  0  0  0  0  0  0  0  0  0  0
    8.4075    1.4028   11.7468 H   0  0  0  0  0  0  0  0  0  0  0  0
    7.4221    3.0781   10.0126 H   0  0  0  0  0  0  0  0  0  0  0  0
    5.3863    1.9030    8.7678 H   0  0  0  0  0  0  0  0  0  0  0  0
    7.0714   -0.1347    9.0824 H   0  0  0  0  0  0  0  0  0  0  0  0
    5.4024   -0.6874    9.4820 H   0  0  0  0  0  0  0  0  0  0  0  0
    4.4344    2.5426   11.2952 H   0  0  0  0  0  0  0  0  0  0  0  0
    2.0849   -5.8732    5.4672 H   0  0  0  0  0  0  0  0  0  0  0  0
    1.1509   -8.0507    4.8469 H   0  0  0  0  0  0  0  0  0  0  0  0
   -0.3826  -10.0671    6.2483 H   0  0  0  0  0  0  0  0  0  0  0  0
    1.1958  -10.5988    5.5406 H   0  0  0  0  0  0  0  0  0  0  0  0
    0.8200  -10.9502    7.2673 H   0  0  0  0  0  0  0  0  0  0  0  0
    1.5976   -9.3988    8.9219 H   0  0  0  0  0  0  0  0  0  0  0  0
    2.5300   -7.2087    9.5400 H   0  0  0  0  0  0  0  0  0  0  0  0
    3.0379   -4.3282   10.4973 H   0  0  0  0  0  0  0  0  0  0  0  0
    5.0906   -4.1073   11.8309 H   0  0  0  0  0  0  0  0  0  0  0  0
    7.9074   -3.5293   11.1375 H   0  0  0  0  0  0  0  0  0  0  0  0
    8.4943   -5.1460   10.5679 H   0  0  0  0  0  0  0  0  0  0  0  0
    7.4837   -5.0292   12.0550 H   0  0  0  0  0  0  0  0  0  0  0  0
    7.3958   -5.4010    8.4226 H   0  0  0  0  0  0  0  0  0  0  0  0
    5.3188   -5.5746    7.0930 H   0  0  0  0  0  0  0  0  0  0  0  0
   -2.3230   -2.8874    3.2585 H   0  0  0  0  0  0  0  0  0  0  0  0
   -4.3674   -1.6148    3.7631 H   0  0  0  0  0  0  0  0  0  0  0  0
   -4.3487    1.9905    4.8831 H   0  0  0  0  0  0  0  0  0  0  0  0
   -5.2961    0.7730    3.9637 H   0  0  0  0  0  0  0  0  0  0  0  0
   -4.9913    0.5296    5.7336 H   0  0  0  0  0  0  0  0  0  0  0  0
   -1.9582    1.6835    5.1662 H   0  0  0  0  0  0  0  0  0  0  0  0
    0.0859    0.4137    4.6458 H   0  0  0  0  0  0  0  0  0  0  0  0
   -0.4867   -1.1470    1.1120 H   0  0  0  0  0  0  0  0  0  0  0  0
   -0.1115   -2.2717   -1.0431 H   0  0  0  0  0  0  0  0  0  0  0  0
    1.8968   -5.4262   -1.3695 H   0  0  0  0  0  0  0  0  0  0  0  0
    1.3889   -3.9252   -2.2146 H   0  0  0  0  0  0  0  0  0  0  0  0
    0.1662   -5.2171   -1.8617 H   0  0  0  0  0  0  0  0  0  0  0  0
    1.4962   -5.6925    1.0247 H   0  0  0  0  0  0  0  0  0  0  0  0
    1.1193   -4.5815    3.1716 H   0  0  0  0  0  0  0  0  0  0  0  0
    3.6575   -4.1587    1.1811 H   0  0  0  0  0  0  0  0  0  0  0  0
    4.7615   -6.3255    1.6103 H   0  0  0  0  0  0  0  0  0  0  0  0
    6.8084   -6.4137    2.9867 H   0  0  0  0  0  0  0  0  0  0  0  0
    8.7331   -3.3859    4.0348 H   0  0  0  0  0  0  0  0  0  0  0  0
    8.8142   -5.1601    3.7851 H   0  0  0  0  0  0  0  0  0  0  0  0
    8.7306   -4.5453    6.2115 H   0  0  0  0  0  0  0  0  0  0  0  0
    7.1312   -3.7418    5.9553 H   0  0  0  0  0  0  0  0  0  0  0  0
    7.3026   -5.5335    5.7201 H   0  0  0  0  0  0  0  0  0  0  0  0
    6.6592   -2.1354    3.4926 H   0  0  0  0  0  0  0  0  0  0  0  0
    0.7092    2.4890   -8.5657 H   0  0  0  0  0  0  0  0  0  0  0  0
    1.1758    2.3277  -10.9825 H   0  0  0  0  0  0  0  0  0  0  0  0
    1.7371    4.3463  -12.2828 H   0  0  0  0  0  0  0  0  0  0  0  0
    2.7521    7.4861  -10.8119 H   0  0  0  0  0  0  0  0  0  0  0  0
    2.3996    6.6477  -12.3521 H   0  0  0  0  0  0  0  0  0  0  0  0
    1.0426    8.6854  -12.2142 H   0  0  0  0  0  0  0  0  0  0  0  0
   -0.0514    7.2555  -12.1046 H   0  0  0  0  0  0  0  0  0  0  0  0
    0.3745    8.1924  -10.6149 H   0  0  0  0  0  0  0  0  0  0  0  0
    1.3525    6.7385   -8.7178 H   0  0  0  0  0  0  0  0  0  0  0  0
    3.0452    3.2957    1.5922 H   0  0  0  0  0  0  0  0  0  0  0  0
    2.2674    4.1358    0.2606 H   0  0  0  0  0  0  0  0  0  0  0  0
    0.6036    1.8091    0.7106 H   0  0  0  0  0  0  0  0  0  0  0  0
    0.2520    3.5112    1.2055 H   0  0  0  0  0  0  0  0  0  0  0  0
    1.0686    2.4113    2.3472 H   0  0  0  0  0  0  0  0  0  0  0  0
    0.7605    2.8264   -1.3031 H   0  0  0  0  0  0  0  0  0  0  0  0
   -0.0074    3.1763   -2.8090 H   0  0  0  0  0  0  0  0  0  0  0  0
    0.5029    5.2728   -0.5777 H   0  0  0  0  0  0  0  0  0  0  0  0
   -0.3108    5.6145   -2.1358 H   0  0  0  0  0  0  0  0  0  0  0  0
   -1.0641    4.4760   -0.9612 H   0  0  0  0  0  0  0  0  0  0  0  0
   -3.0000    8.2757   -5.8388 H   0  0  0  0  0  0  0  0  0  0  0  0
   -2.3108   10.1795   -7.2167 H   0  0  0  0  0  0  0  0  0  0  0  0
   -2.6558   10.9354   -9.9573 H   0  0  0  0  0  0  0  0  0  0  0  0
   -1.5178    9.9168  -10.9186 H   0  0  0  0  0  0  0  0  0  0  0  0
   -0.9382   10.7367   -9.4186 H   0  0  0  0  0  0  0  0  0  0  0  0
   -2.2264    7.6420  -10.6905 H   0  0  0  0  0  0  0  0  0  0  0  0
   -2.9665    5.7477   -9.3447 H   0  0  0  0  0  0  0  0  0  0  0  0
   -3.4308    4.3623   -4.3533 H   0  0  0  0  0  0  0  0  0  0  0  0
   -4.9104    4.6185   -2.4217 H   0  0  0  0  0  0  0  0  0  0  0  0
   -6.4459    6.2047   -1.1720 H   0  0  0  0  0  0  0  0  0  0  0  0
   -7.4740    7.3512   -2.1017 H   0  0  0  0  0  0  0  0  0  0  0  0
   -7.7933    5.5730   -2.2048 H   0  0  0  0  0  0  0  0  0  0  0  0
   -7.0471    7.7484   -4.4762 H   0  0  0  0  0  0  0  0  0  0  0  0
   -5.5788    7.4776   -6.4209 H   0  0  0  0  0  0  0  0  0  0  0  0
   -5.4659   -1.6888   -8.6738 H   0  0  0  0  0  0  0  0  0  0  0  0
   -6.9878   -3.5651   -8.1783 H   0  0  0  0  0  0  0  0  0  0  0  0
   -8.0215   -5.0811   -6.6353 H   0  0  0  0  0  0  0  0  0  0  0  0
   -6.9285   -5.5331   -5.2789 H   0  0  0  0  0  0  0  0  0  0  0  0
   -8.2752   -4.3613   -5.0034 H   0  0  0  0  0  0  0  0  0  0  0  0
   -5.9575   -3.2880   -4.0022 H   0  0  0  0  0  0  0  0  0  0  0  0
   -4.4304   -1.4369   -4.5030 H   0  0  0  0  0  0  0  0  0  0  0  0
   -2.1669   -1.1965   -5.0604 H   0  0  0  0  0  0  0  0  0  0  0  0
    0.1596   -1.8744   -5.4258 H   0  0  0  0  0  0  0  0  0  0  0  0
    2.1682   -1.6409   -6.8907 H   0  0  0  0  0  0  0  0  0  0  0  0
    1.5858   -2.9994   -7.9350 H   0  0  0  0  0  0  0  0  0  0  0  0
    1.9730   -1.3894   -8.6595 H   0  0  0  0  0  0  0  0  0  0  0  0
   -0.2709   -1.0548   -9.6388 H   0  0  0  0  0  0  0  0  0  0  0  0
   -2.6271   -0.4248   -9.2736 H   0  0  0  0  0  0  0  0  0  0  0  0
   -7.6393    0.6170   -6.7898 H   0  0  0  0  0  0  0  0  0  0  0  0
   -4.6645    1.7766   -1.4181 H   0  0  0  0  0  0  0  0  0  0  0  0
   -3.8514    1.7662    0.9488 H   0  0  0  0  0  0  0  0  0  0  0  0
   -4.5632    2.8655    2.1881 H   0  0  0  0  0  0  0  0  0  0  0  0
   -4.5892    3.3578    0.4579 H   0  0  0  0  0  0  0  0  0  0  0  0
   -8.3524    0.8626    0.6547 H   0  0  0  0  0  0  0  0  0  0  0  0
   -9.3538    0.1081   -1.4531 H   0  0  0  0  0  0  0  0  0  0  0  0
  1  2  2  3
  2  3  1  0
  3  4  2  0
  3  5  1  0
  5  6  2  0
  6  7  1  0
  7  8  2  0
  8  9  1  0
  9 10  2  0
 10 11  1  0
 11 12  2  3
 12 13  1  0
 13 14  3  0
 12 15  1  0
 15 16  3  0
  8 17  1  0
 17 18  1  0
 18 19  1  0
 19 20  2  0
 20 21  1  0
 21 22  1  0
 21 23  1  0
  1 24  1  0
 24 25  2  0
 25 26  1  0
 26 27  1  0
 27 28  2  0
 28 29  1  0
 29 30  2  0
 30 31  1  0
 30 32  1  0
 32 33  2  0
 26 34  1  0
 34 35  2  0
 35 36  1  0
 36 37  2  0
 37 38  1  0
 37 39  1  0
 39 40  2  0
 25 41  1  0
 41 42  1  0
 42 43  1  0
 43 44  2  0
 44 45  1  0
 45 46  1  0
 46 47  2  0
 47 48  1  0
 48 49  2  0
 49 50  1  0
 49 51  1  0
 51 52  2  0
 45 53  1  0
 53 54  2  0
 54 55  1  0
 55 56  2  0
 56 57  1  0
 56 58  1  0
 58 59  2  0
 44 60  1  0
 60 61  1  0
 43 62  1  0
 62 63  2  0
 63 64  1  0
 64 65  2  0
 65 66  1  0
 66 67  2  0
 67 68  1  0
 68 69  1  0
 69 70  1  0
 68 71  2  0
 63 72  1  0
 72 73  1  0
 73 74  1  0
 74 75  1  0
 75 76  1  0
 76 77  1  0
 77 78  2  0
 78 79  1  0
 79 80  1  0
 77 81  1  0
 81 82  1  0
 82 83  1  0
 83 84  1  0
 84 85  1  0
 85 86  1  0
 86 87  2  0
 87 88  1  0
 88 89  2  0
 89 90  1  0
 90 91  1  0
 91 92  1  0
 90 93  2  0
 85 94  2  0
 94 95  1  0
 95 96  1  0
 96 97  1  0
 97 98  1  0
 98 99  1  0
 99100  1  0
100101  1  0
101102  1  0
102103  1  0
103104  1  0
101105  1  0
105106  1  0
 98107  1  0
107108  1  0
 94109  1  0
109110  2  0
110111  1  0
111112  1  0
112113  2  0
113114  1  0
114115  2  0
115116  1  0
115117  1  0
117118  2  0
111119  1  0
119120  2  0
120121  1  0
121122  2  0
122123  1  0
122124  1  0
124125  2  0
110126  1  0
126127  1  0
127128  1  0
128129  2  0
129130  1  0
130131  1  0
131132  2  0
132133  1  0
133134  2  0
134135  1  0
134136  1  0
136137  2  0
130138  1  0
138139  2  0
139140  1  0
140141  2  0
141142  1  0
141143  1  0
143144  2  0
129145  1  0
145146  1  0
128147  1  0
147148  2  3
148149  1  0
149150  2  0
149151  1  0
151152  2  0
152153  1  0
153154  1  0
154155  1  0
153156  2  0
156157  1  0
157158  2  0
158159  1  0
159160  2  3
160161  1  0
161162  3  0
160163  1  0
163164  3  0
 11  2  1  0
 23 17  1  0
 61 24  1  0
104 62  1  0
146109  1  0
159148  1  0
 10  5  1  0
 22 18  1  0
 33 27  1  0
 40 34  1  0
 60 41  2  0
 71 64  1  0
103 72  2  0
118112  1  0
125119  1  0
145126  2  0
158151  1  0
 23  7  1  0
 52 46  1  0
 59 53  1  0
102 74  2  0
137131  1  0
144138  1  0
100 75  2  0
 80 76  2  0
 99 81  2  0
 97 82  2  0
 96 84  2  0
 93 86  1  0
  1165  1  0
  6166  1  0
  9167  1  0
 17168  1  0
 18169  1  0
 19170  1  0
 20171  1  0
 21172  1  0
 22173  1  0
 22174  1  0
 23175  1  0
 28176  1  0
 29177  1  0
 31178  1  0
 31179  1  0
 31180  1  0
 32181  1  0
 33182  1  0
 35183  1  0
 36184  1  0
 38185  1  0
 38186  1  0
 38187  1  0
 39188  1  0
 40189  1  0
 47190  1  0
 48191  1  0
 50192  1  0
 50193  1  0
 50194  1  0
 51195  1  0
 52196  1  0
 54197  1  0
 55198  1  0
 57199  1  0
 57200  1  0
 57201  1  0
 58202  1  0
 59203  1  0
 65204  1  0
 66205  1  0
 67206  1  0
 69207  1  0
 69208  1  0
 70209  1  0
 70210  1  0
 70211  1  0
 71212  1  0
 87213  1  0
 88214  1  0
 89215  1  0
 91216  1  0
 91217  1  0
 92218  1  0
 92219  1  0
 92220  1  0
 93221  1  0
105222  1  0
105223  1  0
106224  1  0
106225  1  0
106226  1  0
107227  1  0
107228  1  0
108229  1  0
108230  1  0
108231  1  0
113232  1  0
114233  1  0
116234  1  0
116235  1  0
116236  1  0
117237  1  0
118238  1  0
120239  1  0
121240  1  0
123241  1  0
123242  1  0
123243  1  0
124244  1  0
125245  1  0
132246  1  0
133247  1  0
135248  1  0
135249  1  0
135250  1  0
136251  1  0
137252  1  0
139253  1  0
140254  1  0
142255  1  0
142256  1  0
142257  1  0
143258  1  0
144259  1  0
147260  1  0
152261  1  0
155262  1  0
155263  1  0
155264  1  0
156265  1  0
157266  1  0
M  END

