
     RDKit          3D

259287  0  0  0  0  0  0  0  0999 V2000
    4.1343   -6.5184    3.6578 C   0  0  0  0  0  0  0  0  0  0  0  0
    3.6480   -7.7808    3.6487 C   0  0  0  0  0  0  0  0  0  0  0  0
    2.6983   -8.3177    2.6575 C   0  0  0  0  0  0  0  0  0  0  0  0
    2.0145   -7.6556    1.8329 O   0  0  0  0  0  0  0  0  0  0  0  0
    2.6805   -9.7520    2.7527 C   0  0  0  0  0  0  0  0  0  0  0  0
    2.0037  -10.6428    1.8905 C   0  0  0  0  0  0  0  0  0  0  0  0
    2.3224  -11.9659    2.1059 C   0  0  0  0  0  0  0  0  0  0  0  0
    3.2684  -12.3982    3.0909 C   0  0  0  0  0  0  0  0  0  0  0  0
    3.9175  -11.5250    3.9551 C   0  0  0  0  0  0  0  0  0  0  0  0
    3.5654  -10.1565    3.7815 C   0  0  0  0  0  0  0  0  0  0  0  0
    4.0978   -8.9450    4.4733 C   0  0  0  0  0  0  0  0  0  0  0  0
    4.6542   -8.9070    5.7110 C   0  0  0  0  0  0  0  0  0  0  0  0
    4.9644   -7.6757    6.3859 C   0  0  0  0  0  0  0  0  0  0  0  0
    5.2141   -6.6884    6.9422 N   0  0  0  0  0  0  0  0  0  0  0  0
    4.8431  -10.0955    6.5042 C   0  0  0  0  0  0  0  0  0  0  0  0
    4.9864  -11.0424    7.1544 N   0  0  0  0  0  0  0  0  0  0  0  0
    3.1348  -13.8169    2.6151 C   0  0  0  0  0  0  0  0  0  0  0  0
    4.2796  -14.3996    1.7281 C   0  0  0  0  0  0  0  0  0  0  0  0
    4.9157  -13.2989    0.9096 C   0  0  0  0  0  0  0  0  0  0  0  0
    4.0041  -12.9163    0.0109 C   0  0  0  0  0  0  0  0  0  0  0  0
    2.7749  -13.7575    0.2604 C   0  0  0  0  0  0  0  0  0  0  0  0
    3.4528  -15.0621    0.6379 C   0  0  0  0  0  0  0  0  0  0  0  0
    2.1392  -13.3767    1.6307 C   0  0  0  0  0  0  0  0  0  0  0  0
    3.7290   -5.5355    2.6477 C   0  0  0  0  0  0  0  0  0  0  0  0
    2.6152   -4.6789    2.7460 C   0  0  0  0  0  0  0  0  0  0  0  0
    1.9556   -4.2955    3.9712 N   0  0  0  0  0  0  0  0  0  0  0  0
    1.7567   -2.8901    4.2622 C   0  0  0  0  0  0  0  0  0  0  0  0
    0.6396   -2.4568    5.0002 C   0  0  0  0  0  0  0  0  0  0  0  0
    0.4546   -1.0979    5.2776 C   0  0  0  0  0  0  0  0  0  0  0  0
    1.3759   -0.1486    4.8152 C   0  0  0  0  0  0  0  0  0  0  0  0
    1.2171    1.3045    5.1570 C   0  0  0  0  0  0  0  0  0  0  0  0
    2.4878   -0.5742    4.0784 C   0  0  0  0  0  0  0  0  0  0  0  0
    2.6784   -1.9300    3.8031 C   0  0  0  0  0  0  0  0  0  0  0  0
    1.4932   -5.3099    4.8854 C   0  0  0  0  0  0  0  0  0  0  0  0
    0.7103   -6.3763    4.4196 C   0  0  0  0  0  0  0  0  0  0  0  0
    0.3283   -7.4063    5.2841 C   0  0  0  0  0  0  0  0  0  0  0  0
    0.7014   -7.3634    6.6376 C   0  0  0  0  0  0  0  0  0  0  0  0
    0.3002   -8.4622    7.5798 C   0  0  0  0  0  0  0  0  0  0  0  0
    1.4518   -6.2798    7.1125 C   0  0  0  0  0  0  0  0  0  0  0  0
    1.8474   -5.2587    6.2412 C   0  0  0  0  0  0  0  0  0  0  0  0
    2.2061   -4.2490    1.4858 C   0  0  0  0  0  0  0  0  0  0  0  0
    0.7717   -3.6001    0.9315 S   0  0  0  0  0  0  0  0  0  0  0  0
    1.0993   -3.9122   -0.7149 C   0  0  0  0  0  0  0  0  0  0  0  0
    2.3632   -4.5291   -0.8275 C   0  0  0  0  0  0  0  0  0  0  0  0
    2.9840   -4.9231   -2.0700 N   0  0  0  0  0  0  0  0  0  0  0  0
    3.6996   -6.1731   -2.1623 C   0  0  0  0  0  0  0  0  0  0  0  0
    3.1361   -7.3548   -1.6523 C   0  0  0  0  0  0  0  0  0  0  0  0
    3.8631   -8.5495   -1.6667 C   0  0  0  0  0  0  0  0  0  0  0  0
    5.1652   -8.5801   -2.1856 C   0  0  0  0  0  0  0  0  0  0  0  0
    5.9380   -9.8665   -2.2079 C   0  0  0  0  0  0  0  0  0  0  0  0
    5.7195   -7.4065   -2.7203 C   0  0  0  0  0  0  0  0  0  0  0  0
    4.9953   -6.2131   -2.7018 C   0  0  0  0  0  0  0  0  0  0  0  0
    3.0926   -3.9512   -3.1277 C   0  0  0  0  0  0  0  0  0  0  0  0
    3.4182   -2.6153   -2.8350 C   0  0  0  0  0  0  0  0  0  0  0  0
    3.4461   -1.6563   -3.8490 C   0  0  0  0  0  0  0  0  0  0  0  0
    3.1729   -2.0225   -5.1741 C   0  0  0  0  0  0  0  0  0  0  0  0
    3.1385   -0.9816   -6.2536 C   0  0  0  0  0  0  0  0  0  0  0  0
    2.8639   -3.3588   -5.4712 C   0  0  0  0  0  0  0  0  0  0  0  0
    2.8386   -4.3211   -4.4570 C   0  0  0  0  0  0  0  0  0  0  0  0
    2.9398   -4.7069    0.4364 C   0  0  0  0  0  0  0  0  0  0  0  0
    4.1831   -5.6730    1.0128 S   0  0  0  0  0  0  0  0  0  0  0  0
    0.0358   -3.9113   -1.7349 C   0  0  0  0  0  0  0  0  0  0  0  0
   -1.2517   -4.4455   -1.5257 C   0  0  0  0  0  0  0  0  0  0  0  0
   -1.5955   -5.3675   -0.4252 C   0  0  0  0  0  0  0  0  0  0  0  0
   -0.9261   -6.5983   -0.3243 C   0  0  0  0  0  0  0  0  0  0  0  0
   -1.1890   -7.4591    0.7453 C   0  0  0  0  0  0  0  0  0  0  0  0
   -2.1271   -7.1045    1.7169 C   0  0  0  0  0  0  0  0  0  0  0  0
   -2.8072   -5.8775    1.6293 C   0  0  0  0  0  0  0  0  0  0  0  0
   -3.8362   -5.5133    2.6631 C   0  0  0  0  0  0  0  0  0  0  0  0
   -5.1946   -6.1088    2.3009 C   0  0  0  0  0  0  0  0  0  0  0  0
   -2.5468   -5.0152    0.5470 C   0  0  0  0  0  0  0  0  0  0  0  0
   -2.1491   -3.9976   -2.4948 C   0  0  0  0  0  0  0  0  0  0  0  0
   -3.8418   -3.8203   -2.4660 S   0  0  0  0  0  0  0  0  0  0  0  0
   -3.8035   -2.7425   -3.7801 C   0  0  0  0  0  0  0  0  0  0  0  0
   -4.5246   -1.6223   -4.1068 C   0  0  0  0  0  0  0  0  0  0  0  0
   -5.8035   -1.2148   -3.7239 C   0  0  0  0  0  0  0  0  0  0  0  0
   -6.2055    0.1238   -3.9989 C   0  0  0  0  0  0  0  0  0  0  0  0
   -7.4398    0.4896   -3.5701 N   0  0  0  0  0  0  0  0  0  0  0  0
   -7.9368   -0.9324   -2.8837 S   0  0  0  0  0  0  0  0  0  0  0  0
   -6.6882   -2.0046   -3.0670 N   0  0  0  0  0  0  0  0  0  0  0  0
   -5.2817    1.0045   -4.5916 C   0  0  0  0  0  0  0  0  0  0  0  0
   -5.2663    2.3730   -4.5471 C   0  0  0  0  0  0  0  0  0  0  0  0
   -6.0820    3.4472   -3.5126 S   0  0  0  0  0  0  0  0  0  0  0  0
   -4.7527    4.4939   -3.4262 C   0  0  0  0  0  0  0  0  0  0  0  0
   -4.4174    5.5122   -2.5215 C   0  0  0  0  0  0  0  0  0  0  0  0
   -5.3091    5.9758   -1.4413 C   0  0  0  0  0  0  0  0  0  0  0  0
   -5.6436    7.3326   -1.3375 C   0  0  0  0  0  0  0  0  0  0  0  0
   -6.4678    7.7763   -0.3014 C   0  0  0  0  0  0  0  0  0  0  0  0
   -6.9557    6.8701    0.6454 C   0  0  0  0  0  0  0  0  0  0  0  0
   -6.6135    5.5112    0.5638 C   0  0  0  0  0  0  0  0  0  0  0  0
   -7.1324    4.5347    1.5841 C   0  0  0  0  0  0  0  0  0  0  0  0
   -8.5370    4.0647    1.2268 C   0  0  0  0  0  0  0  0  0  0  0  0
   -5.8085    5.0655   -0.4966 C   0  0  0  0  0  0  0  0  0  0  0  0
   -3.0434    5.8153   -2.5971 C   0  0  0  0  0  0  0  0  0  0  0  0
   -2.3110    4.8200   -3.7527 S   0  0  0  0  0  0  0  0  0  0  0  0
   -3.7078    4.0000   -4.1679 C   0  0  0  0  0  0  0  0  0  0  0  0
   -3.9735    2.7648   -4.7632 C   0  0  0  0  0  0  0  0  0  0  0  0
   -3.1396    1.7066   -4.9648 N   0  0  0  0  0  0  0  0  0  0  0  0
   -3.9700    0.6086   -4.9022 C   0  0  0  0  0  0  0  0  0  0  0  0
   -3.6221   -0.7604   -4.7456 C   0  0  0  0  0  0  0  0  0  0  0  0
   -2.3988   -1.3510   -4.8787 N   0  0  0  0  0  0  0  0  0  0  0  0
   -2.5329   -2.5194   -4.2180 C   0  0  0  0  0  0  0  0  0  0  0  0
   -1.5937   -3.2057   -3.4662 C   0  0  0  0  0  0  0  0  0  0  0  0
    0.0112   -2.8934   -3.0989 S   0  0  0  0  0  0  0  0  0  0  0  0
   -1.5112   -1.2161   -6.0445 C   0  0  0  0  0  0  0  0  0  0  0  0
   -1.8700   -2.2374   -7.1210 C   0  0  0  0  0  0  0  0  0  0  0  0
   -1.6969    1.7558   -4.6871 C   0  0  0  0  0  0  0  0  0  0  0  0
   -0.9362    2.4167   -5.8412 C   0  0  0  0  0  0  0  0  0  0  0  0
   -2.2681    6.5767   -1.6113 C   0  0  0  0  0  0  0  0  0  0  0  0
   -1.2228    6.0741   -0.8083 C   0  0  0  0  0  0  0  0  0  0  0  0
   -0.6640    4.7525   -0.9058 N   0  0  0  0  0  0  0  0  0  0  0  0
   -1.0400    3.7873    0.0967 C   0  0  0  0  0  0  0  0  0  0  0  0
   -0.0602    3.0452    0.7790 C   0  0  0  0  0  0  0  0  0  0  0  0
   -0.4324    2.0759    1.7133 C   0  0  0  0  0  0  0  0  0  0  0  0
   -1.7853    1.8482    1.9966 C   0  0  0  0  0  0  0  0  0  0  0  0
   -2.1738    0.8293    3.0262 C   0  0  0  0  0  0  0  0  0  0  0  0
   -2.7623    2.6263    1.3564 C   0  0  0  0  0  0  0  0  0  0  0  0
   -2.3894    3.5830    0.4094 C   0  0  0  0  0  0  0  0  0  0  0  0
    0.3358    4.4542   -1.9204 C   0  0  0  0  0  0  0  0  0  0  0  0
    0.9553    5.4923   -2.6498 C   0  0  0  0  0  0  0  0  0  0  0  0
    1.8467    5.2063   -3.6859 C   0  0  0  0  0  0  0  0  0  0  0  0
    2.1604    3.8787   -4.0064 C   0  0  0  0  0  0  0  0  0  0  0  0
    3.0547    3.5819   -5.1712 C   0  0  0  0  0  0  0  0  0  0  0  0
    1.5636    2.8406   -3.2829 C   0  0  0  0  0  0  0  0  0  0  0  0
    0.6556    3.1213   -2.2584 C   0  0  0  0  0  0  0  0  0  0  0  0
   -0.6147    7.0896   -0.0842 C   0  0  0  0  0  0  0  0  0  0  0  0
    0.8076    7.1697    0.7942 S   0  0  0  0  0  0  0  0  0  0  0  0
    0.8030    8.8742    0.9066 C   0  0  0  0  0  0  0  0  0  0  0  0
   -0.2873    9.3720    0.1625 C   0  0  0  0  0  0  0  0  0  0  0  0
   -0.3862   10.7164   -0.3375 N   0  0  0  0  0  0  0  0  0  0  0  0
    0.6738   11.2342   -1.1697 C   0  0  0  0  0  0  0  0  0  0  0  0
    1.3859   10.3819   -2.0339 C   0  0  0  0  0  0  0  0  0  0  0  0
    2.4594   10.8675   -2.7813 C   0  0  0  0  0  0  0  0  0  0  0  0
    2.8239   12.2183   -2.7005 C   0  0  0  0  0  0  0  0  0  0  0  0
    4.0215   12.7215   -3.4501 C   0  0  0  0  0  0  0  0  0  0  0  0
    2.1083   13.0758   -1.8512 C   0  0  0  0  0  0  0  0  0  0  0  0
    1.0377   12.5879   -1.0938 C   0  0  0  0  0  0  0  0  0  0  0  0
   -1.6481   11.4079   -0.2383 C   0  0  0  0  0  0  0  0  0  0  0  0
   -2.1846   12.0839   -1.3474 C   0  0  0  0  0  0  0  0  0  0  0  0
   -3.4276   12.7131   -1.2607 C   0  0  0  0  0  0  0  0  0  0  0  0
   -4.1523   12.6847   -0.0604 C   0  0  0  0  0  0  0  0  0  0  0  0
   -5.5044   13.3302    0.0185 C   0  0  0  0  0  0  0  0  0  0  0  0
   -3.6298   11.9919    1.0418 C   0  0  0  0  0  0  0  0  0  0  0  0
   -2.3847   11.3639    0.9573 C   0  0  0  0  0  0  0  0  0  0  0  0
   -1.0805    8.3379   -0.3280 C   0  0  0  0  0  0  0  0  0  0  0  0
   -2.3280    8.2697   -1.4513 S   0  0  0  0  0  0  0  0  0  0  0  0
    1.9132    9.6909    1.4524 C   0  0  0  0  0  0  0  0  0  0  0  0
    2.6438    9.3618    2.5380 C   0  0  0  0  0  0  0  0  0  0  0  0
    2.4159    8.2026    3.4336 C   0  0  0  0  0  0  0  0  0  0  0  0
    1.3267    7.6118    3.6404 O   0  0  0  0  0  0  0  0  0  0  0  0
    3.6230    8.0050    4.2008 C   0  0  0  0  0  0  0  0  0  0  0  0
    4.0090    7.1233    5.2047 C   0  0  0  0  0  0  0  0  0  0  0  0
    5.2686    7.4607    5.7064 C   0  0  0  0  0  0  0  0  0  0  0  0
    5.8487    8.8519    4.9124 S   0  0  0  0  0  0  0  0  0  0  0  0
    4.5060    8.9877    3.9145 C   0  0  0  0  0  0  0  0  0  0  0  0
    3.9663    9.9521    2.9423 C   0  0  0  0  0  0  0  0  0  0  0  0
    4.5273   11.1386    2.6158 C   0  0  0  0  0  0  0  0  0  0  0  0
    5.8419   11.4890    3.0848 C   0  0  0  0  0  0  0  0  0  0  0  0
    6.8980   11.7736    3.4654 N   0  0  0  0  0  0  0  0  0  0  0  0
    3.8375   12.1499    1.8625 C   0  0  0  0  0  0  0  0  0  0  0  0
    3.2884   12.9794    1.2673 N   0  0  0  0  0  0  0  0  0  0  0  0
    4.9183   -6.2216    4.3307 H   0  0  0  0  0  0  0  0  0  0  0  0
    1.3538  -10.3214    1.0831 H   0  0  0  0  0  0  0  0  0  0  0  0
    4.6736  -11.8778    4.6405 H   0  0  0  0  0  0  0  0  0  0  0  0
    2.7324  -14.5197    3.3799 H   0  0  0  0  0  0  0  0  0  0  0  0
    4.9953  -15.0665    2.2519 H   0  0  0  0  0  0  0  0  0  0  0  0
    5.9293  -12.9208    0.9964 H   0  0  0  0  0  0  0  0  0  0  0  0
    4.1392  -12.1757   -0.7694 H   0  0  0  0  0  0  0  0  0  0  0  0
    2.0670  -13.8166   -0.5940 H   0  0  0  0  0  0  0  0  0  0  0  0
    4.0705  -15.4953   -0.1841 H   0  0  0  0  0  0  0  0  0  0  0  0
    2.7441  -15.8312    1.0180 H   0  0  0  0  0  0  0  0  0  0  0  0
    1.1189  -13.7886    1.8060 H   0  0  0  0  0  0  0  0  0  0  0  0
   -0.0992   -3.1670    5.3548 H   0  0  0  0  0  0  0  0  0  0  0  0
   -0.4094   -0.7876    5.8536 H   0  0  0  0  0  0  0  0  0  0  0  0
    1.7802    1.5238    6.0865 H   0  0  0  0  0  0  0  0  0  0  0  0
    0.1466    1.5563    5.3118 H   0  0  0  0  0  0  0  0  0  0  0  0
    1.6055    1.9442    4.3366 H   0  0  0  0  0  0  0  0  0  0  0  0
    3.2121    0.1443    3.7240 H   0  0  0  0  0  0  0  0  0  0  0  0
    3.5546   -2.2317    3.2417 H   0  0  0  0  0  0  0  0  0  0  0  0
    0.3929   -6.4103    3.3856 H   0  0  0  0  0  0  0  0  0  0  0  0
   -0.2553   -8.2330    4.8982 H   0  0  0  0  0  0  0  0  0  0  0  0
    1.1969   -9.0429    7.8827 H   0  0  0  0  0  0  0  0  0  0  0  0
   -0.4286   -9.1525    7.1073 H   0  0  0  0  0  0  0  0  0  0  0  0
   -0.1722   -8.0268    8.4847 H   0  0  0  0  0  0  0  0  0  0  0  0
    1.7396   -6.2303    8.1567 H   0  0  0  0  0  0  0  0  0  0  0  0
    2.4398   -4.4360    6.6196 H   0  0  0  0  0  0  0  0  0  0  0  0
    2.1441   -7.3470   -1.2245 H   0  0  0  0  0  0  0  0  0  0  0  0
    3.4186   -9.4500   -1.2584 H   0  0  0  0  0  0  0  0  0  0  0  0
    7.0248   -9.6758   -2.3366 H   0  0  0  0  0  0  0  0  0  0  0  0
    5.5819  -10.4933   -3.0491 H   0  0  0  0  0  0  0  0  0  0  0  0
    5.7959  -10.4164   -1.2548 H   0  0  0  0  0  0  0  0  0  0  0  0
    6.7212   -7.4113   -3.1317 H   0  0  0  0  0  0  0  0  0  0  0  0
    5.4589   -5.3135   -3.0839 H   0  0  0  0  0  0  0  0  0  0  0  0
    3.6307   -2.3138   -1.8170 H   0  0  0  0  0  0  0  0  0  0  0  0
    3.6709   -0.6277   -3.5990 H   0  0  0  0  0  0  0  0  0  0  0  0
    3.8448   -0.1570   -6.0249 H   0  0  0  0  0  0  0  0  0  0  0  0
    3.4335   -1.4246   -7.2287 H   0  0  0  0  0  0  0  0  0  0  0  0
    2.1115   -0.5677   -6.3393 H   0  0  0  0  0  0  0  0  0  0  0  0
    2.6269   -3.6503   -6.4873 H   0  0  0  0  0  0  0  0  0  0  0  0
    2.5792   -5.3428   -4.7001 H   0  0  0  0  0  0  0  0  0  0  0  0
   -0.2006   -6.8860   -1.0770 H   0  0  0  0  0  0  0  0  0  0  0  0
   -0.6678   -8.4059    0.8177 H   0  0  0  0  0  0  0  0  0  0  0  0
   -2.3339   -7.7914    2.5315 H   0  0  0  0  0  0  0  0  0  0  0  0
   -3.5220   -5.8969    3.6569 H   0  0  0  0  0  0  0  0  0  0  0  0
   -3.9271   -4.4087    2.7437 H   0  0  0  0  0  0  0  0  0  0  0  0
   -5.1367   -7.2204    2.2867 H   0  0  0  0  0  0  0  0  0  0  0  0
   -5.5198   -5.7434    1.3032 H   0  0  0  0  0  0  0  0  0  0  0  0
   -5.9478   -5.8030    3.0605 H   0  0  0  0  0  0  0  0  0  0  0  0
   -3.0541   -4.0571    0.4808 H   0  0  0  0  0  0  0  0  0  0  0  0
   -5.2778    8.0435   -2.0680 H   0  0  0  0  0  0  0  0  0  0  0  0
   -6.7336    8.8225   -0.2317 H   0  0  0  0  0  0  0  0  0  0  0  0
   -7.5855    7.2261    1.4478 H   0  0  0  0  0  0  0  0  0  0  0  0
   -6.4559    3.6574    1.6515 H   0  0  0  0  0  0  0  0  0  0  0  0
   -7.1532    5.0090    2.5878 H   0  0  0  0  0  0  0  0  0  0  0  0
   -9.2448    4.9220    1.2352 H   0  0  0  0  0  0  0  0  0  0  0  0
   -8.5439    3.5884    0.2235 H   0  0  0  0  0  0  0  0  0  0  0  0
   -8.8799    3.3195    1.9807 H   0  0  0  0  0  0  0  0  0  0  0  0
   -5.5551    4.0150   -0.5756 H   0  0  0  0  0  0  0  0  0  0  0  0
   -1.6185   -0.2208   -6.5058 H   0  0  0  0  0  0  0  0  0  0  0  0
   -0.4557   -1.3643   -5.7401 H   0  0  0  0  0  0  0  0  0  0  0  0
   -1.2453   -2.0604   -8.0196 H   0  0  0  0  0  0  0  0  0  0  0  0
   -1.6796   -3.2689   -6.7538 H   0  0  0  0  0  0  0  0  0  0  0  0
   -2.9403   -2.1404   -7.4013 H   0  0  0  0  0  0  0  0  0  0  0  0
   -1.5176    2.2819   -3.7358 H   0  0  0  0  0  0  0  0  0  0  0  0
   -1.2689    0.7642   -4.4818 H   0  0  0  0  0  0  0  0  0  0  0  0
    0.1523    2.3295   -5.6635 H   0  0  0  0  0  0  0  0  0  0  0  0
   -1.1792    1.9296   -6.8066 H   0  0  0  0  0  0  0  0  0  0  0  0
   -1.1966    3.4916   -5.9335 H   0  0  0  0  0  0  0  0  0  0  0  0
    0.9920    3.2113    0.5793 H   0  0  0  0  0  0  0  0  0  0  0  0
    0.3358    1.4971    2.2090 H   0  0  0  0  0  0  0  0  0  0  0  0
   -3.2381    0.5340    2.9095 H   0  0  0  0  0  0  0  0  0  0  0  0
   -2.0255    1.2587    4.0389 H   0  0  0  0  0  0  0  0  0  0  0  0
   -1.5434   -0.0810    2.9252 H   0  0  0  0  0  0  0  0  0  0  0  0
   -3.8101    2.4901    1.5823 H   0  0  0  0  0  0  0  0  0  0  0  0
   -3.1516    4.1628   -0.0862 H   0  0  0  0  0  0  0  0  0  0  0  0
    0.7331    6.5283   -2.4426 H   0  0  0  0  0  0  0  0  0  0  0  0
    2.2805    6.0240   -4.2469 H   0  0  0  0  0  0  0  0  0  0  0  0
    3.4419    2.5427   -5.1198 H   0  0  0  0  0  0  0  0  0  0  0  0
    3.9194    4.2766   -5.1736 H   0  0  0  0  0  0  0  0  0  0  0  0
    2.4856    3.7038   -6.1168 H   0  0  0  0  0  0  0  0  0  0  0  0
    1.7753    1.8069   -3.5280 H   0  0  0  0  0  0  0  0  0  0  0  0
    0.1813    2.2877   -1.7588 H   0  0  0  0  0  0  0  0  0  0  0  0
    1.1186    9.3380   -2.1243 H   0  0  0  0  0  0  0  0  0  0  0  0
    3.0131   10.1873   -3.4147 H   0  0  0  0  0  0  0  0  0  0  0  0
    4.1793   12.1358   -4.3808 H   0  0  0  0  0  0  0  0  0  0  0  0
    4.9211   12.6266   -2.8074 H   0  0  0  0  0  0  0  0  0  0  0  0
    3.8850   13.7855   -3.7338 H   0  0  0  0  0  0  0  0  0  0  0  0
    2.3876   14.1173   -1.7608 H   0  0  0  0  0  0  0  0  0  0  0  0
    0.5105   13.2563   -0.4247 H   0  0  0  0  0  0  0  0  0  0  0  0
   -1.6508   12.1051   -2.2887 H   0  0  0  0  0  0  0  0  0  0  0  0
   -3.8238   13.2200   -2.1315 H   0  0  0  0  0  0  0  0  0  0  0  0
   -6.2847   12.5950   -0.2718 H   0  0  0  0  0  0  0  0  0  0  0  0
   -5.5566   14.2078   -0.6616 H   0  0  0  0  0  0  0  0  0  0  0  0
   -5.7065   13.6843    1.0520 H   0  0  0  0  0  0  0  0  0  0  0  0
   -4.1883   11.9452    1.9692 H   0  0  0  0  0  0  0  0  0  0  0  0
   -1.9934   10.8453    1.8231 H   0  0  0  0  0  0  0  0  0  0  0  0
    2.1835   10.5557    0.8805 H   0  0  0  0  0  0  0  0  0  0  0  0
    3.4028    6.3012    5.5641 H   0  0  0  0  0  0  0  0  0  0  0  0
    5.7833    6.9376    6.4998 H   0  0  0  0  0  0  0  0  0  0  0  0
  1  2  2  3
  2  3  1  0
  3  4  2  0
  3  5  1  0
  5  6  2  0
  6  7  1  0
  7  8  2  0
  8  9  1  0
  9 10  2  0
 10 11  1  0
 11 12  2  3
 12 13  1  0
 13 14  3  0
 12 15  1  0
 15 16  3  0
  8 17  1  0
 17 18  1  0
 18 19  1  0
 19 20  2  0
 20 21  1  0
 21 22  1  0
 21 23  1  0
  1 24  1  0
 24 25  2  0
 25 26  1  0
 26 27  1  0
 27 28  2  0
 28 29  1  0
 29 30  2  0
 30 31  1  0
 30 32  1  0
 32 33  2  0
 26 34  1  0
 34 35  2  0
 35 36  1  0
 36 37  2  0
 37 38  1  0
 37 39  1  0
 39 40  2  0
 25 41  1  0
 41 42  1  0
 42 43  1  0
 43 44  2  0
 44 45  1  0
 45 46  1  0
 46 47  2  0
 47 48  1  0
 48 49  2  0
 49 50  1  0
 49 51  1  0
 51 52  2  0
 45 53  1  0
 53 54  2  0
 54 55  1  0
 55 56  2  0
 56 57  1  0
 56 58  1  0
 58 59  2  0
 44 60  1  0
 60 61  1  0
 43 62  1  0
 62 63  2  0
 63 64  1  0
 64 65  2  0
 65 66  1  0
 66 67  2  0
 67 68  1  0
 68 69  1  0
 69 70  1  0
 68 71  2  0
 63 72  1  0
 72 73  1  0
 73 74  1  0
 74 75  1  0
 75 76  1  0
 76 77  1  0
 77 78  2  0
 78 79  1  0
 79 80  1  0
 77 81  1  0
 81 82  1  0
 82 83  1  0
 83 84  1  0
 84 85  1  0
 85 86  1  0
 86 87  2  0
 87 88  1  0
 88 89  2  0
 89 90  1  0
 90 91  1  0
 91 92  1  0
 90 93  2  0
 85 94  2  0
 94 95  1  0
 95 96  1  0
 96 97  1  0
 97 98  1  0
 98 99  1  0
 99100  1  0
100101  1  0
101102  1  0
102103  1  0
103104  1  0
101105  1  0
105106  1  0
 98107  1  0
107108  1  0
 94109  1  0
109110  2  0
110111  1  0
111112  1  0
112113  2  0
113114  1  0
114115  2  0
115116  1  0
115117  1  0
117118  2  0
111119  1  0
119120  2  0
120121  1  0
121122  2  0
122123  1  0
122124  1  0
124125  2  0
110126  1  0
126127  1  0
127128  1  0
128129  2  0
129130  1  0
130131  1  0
131132  2  0
132133  1  0
133134  2  0
134135  1  0
134136  1  0
136137  2  0
130138  1  0
138139  2  0
139140  1  0
140141  2  0
141142  1  0
141143  1  0
143144  2  0
129145  1  0
145146  1  0
128147  1  0
147148  2  3
148149  1  0
149150  2  0
149151  1  0
151152  1  0
152153  2  0
153154  1  0
154155  1  0
155156  1  0
156157  2  3
157158  1  0
158159  3  0
157160  1  0
160161  3  0
 11  2  1  0
 23 17  1  0
 61 24  1  0
104 62  1  0
146109  1  0
156148  1  0
 10  5  1  0
 22 18  1  0
 33 27  1  0
 40 34  1  0
 60 41  2  0
 71 64  1  0
103 72  2  0
118112  1  0
125119  1  0
145126  2  0
155151  2  0
 23  7  1  0
 52 46  1  0
 59 53  1  0
102 74  2  0
137131  1  0
144138  1  0
100 75  2  0
 80 76  2  0
 99 81  2  0
 97 82  2  0
 96 84  2  0
 93 86  1  0
  1162  1  0
  6163  1  0
  9164  1  0
 17165  1  0
 18166  1  0
 19167  1  0
 20168  1  0
 21169  1  0
 22170  1  0
 22171  1  0
 23172  1  0
 28173  1  0
 29174  1  0
 31175  1  0
 31176  1  0
 31177  1  0
 32178  1  0
 33179  1  0
 35180  1  0
 36181  1  0
 38182  1  0
 38183  1  0
 38184  1  0
 39185  1  0
 40186  1  0
 47187  1  0
 48188  1  0
 50189  1  0
 50190  1  0
 50191  1  0
 51192  1  0
 52193  1  0
 54194  1  0
 55195  1  0
 57196  1  0
 57197  1  0
 57198  1  0
 58199  1  0
 59200  1  0
 65201  1  0
 66202  1  0
 67203  1  0
 69204  1  0
 69205  1  0
 70206  1  0
 70207  1  0
 70208  1  0
 71209  1  0
 87210  1  0
 88211  1  0
 89212  1  0
 91213  1  0
 91214  1  0
 92215  1  0
 92216  1  0
 92217  1  0
 93218  1  0
105219  1  0
105220  1  0
106221  1  0
106222  1  0
106223  1  0
107224  1  0
107225  1  0
108226  1  0
108227  1  0
108228  1  0
113229  1  0
114230  1  0
116231  1  0
116232  1  0
116233  1  0
117234  1  0
118235  1  0
120236  1  0
121237  1  0
123238  1  0
123239  1  0
123240  1  0
124241  1  0
125242  1  0
132243  1  0
133244  1  0
135245  1  0
135246  1  0
135247  1  0
136248  1  0
137249  1  0
139250  1  0
140251  1  0
142252  1  0
142253  1  0
142254  1  0
143255  1  0
144256  1  0
147257  1  0
152258  1  0
153259  1  0
M  END

