
     RDKit          3D

224249  0  0  0  0  0  0  0  0999 V2000
    2.9482   -6.4234    3.8421 C   0  0  0  0  0  0  0  0  0  0  0  0
    4.1238   -6.8419    3.3501 C   0  0  0  0  0  0  0  0  0  0  0  0
    4.2553   -7.9479    2.3941 C   0  0  0  0  0  0  0  0  0  0  0  0
    3.4016   -8.8480    2.1654 O   0  0  0  0  0  0  0  0  0  0  0  0
    5.5254   -7.8317    1.7239 C   0  0  0  0  0  0  0  0  0  0  0  0
    5.9721   -8.6125    0.6351 C   0  0  0  0  0  0  0  0  0  0  0  0
    7.1546   -8.1723    0.0816 C   0  0  0  0  0  0  0  0  0  0  0  0
    7.8662   -7.0307    0.5703 C   0  0  0  0  0  0  0  0  0  0  0  0
    7.4502   -6.2818    1.6599 C   0  0  0  0  0  0  0  0  0  0  0  0
    6.2368   -6.7270    2.2578 C   0  0  0  0  0  0  0  0  0  0  0  0
    5.4425   -6.1385    3.3840 C   0  0  0  0  0  0  0  0  0  0  0  0
    5.8516   -5.1822    4.2580 C   0  0  0  0  0  0  0  0  0  0  0  0
    7.1255   -4.5311    4.1718 C   0  0  0  0  0  0  0  0  0  0  0  0
    8.1379   -3.9678    4.0952 N   0  0  0  0  0  0  0  0  0  0  0  0
    5.0562   -4.7927    5.3967 C   0  0  0  0  0  0  0  0  0  0  0  0
    4.4191   -4.4639    6.3050 N   0  0  0  0  0  0  0  0  0  0  0  0
    8.8710   -7.1738   -0.5293 C   0  0  0  0  0  0  0  0  0  0  0  0
    8.7665   -6.1672   -1.7062 C   0  0  0  0  0  0  0  0  0  0  0  0
    9.5931   -6.7471   -2.8297 C   0  0  0  0  0  0  0  0  0  0  0  0
    8.9289   -7.8123   -3.2840 C   0  0  0  0  0  0  0  0  0  0  0  0
    7.6732   -7.9139   -2.4487 C   0  0  0  0  0  0  0  0  0  0  0  0
    7.3848   -6.4329   -2.2775 C   0  0  0  0  0  0  0  0  0  0  0  0
    8.1423   -8.3476   -1.0256 C   0  0  0  0  0  0  0  0  0  0  0  0
    1.6840   -6.7855    3.1807 C   0  0  0  0  0  0  0  0  0  0  0  0
    1.4166   -6.5061    1.8323 C   0  0  0  0  0  0  0  0  0  0  0  0
    2.1499   -5.4803    1.1182 N   0  0  0  0  0  0  0  0  0  0  0  0
    2.4168   -4.2100    1.7643 C   0  0  0  0  0  0  0  0  0  0  0  0
    1.4545   -3.6088    2.5935 C   0  0  0  0  0  0  0  0  0  0  0  0
    1.7014   -2.3640    3.1819 C   0  0  0  0  0  0  0  0  0  0  0  0
    2.9086   -1.6951    2.9337 C   0  0  0  0  0  0  0  0  0  0  0  0
    3.1878   -0.3692    3.5737 C   0  0  0  0  0  0  0  0  0  0  0  0
    3.8743   -2.2990    2.1127 C   0  0  0  0  0  0  0  0  0  0  0  0
    3.6357   -3.5460    1.5287 C   0  0  0  0  0  0  0  0  0  0  0  0
    2.2892   -5.5434   -0.3165 C   0  0  0  0  0  0  0  0  0  0  0  0
    1.7825   -4.5040   -1.1204 C   0  0  0  0  0  0  0  0  0  0  0  0
    1.9365   -4.5428   -2.5069 C   0  0  0  0  0  0  0  0  0  0  0  0
    2.6246   -5.6002   -3.1118 C   0  0  0  0  0  0  0  0  0  0  0  0
    2.7985   -5.6446   -4.5971 C   0  0  0  0  0  0  0  0  0  0  0  0
    3.1290   -6.6465   -2.3157 C   0  0  0  0  0  0  0  0  0  0  0  0
    2.9529   -6.6214   -0.9279 C   0  0  0  0  0  0  0  0  0  0  0  0
    0.0863   -6.7979    1.5212 C   0  0  0  0  0  0  0  0  0  0  0  0
   -0.8416   -6.2253    0.2704 S   0  0  0  0  0  0  0  0  0  0  0  0
   -2.3076   -6.1621    1.1218 C   0  0  0  0  0  0  0  0  0  0  0  0
   -2.0631   -6.6390    2.4347 C   0  0  0  0  0  0  0  0  0  0  0  0
   -2.9461   -6.4824    3.5664 N   0  0  0  0  0  0  0  0  0  0  0  0
   -3.0302   -7.5545    4.5268 C   0  0  0  0  0  0  0  0  0  0  0  0
   -2.9312   -7.2858    5.9061 C   0  0  0  0  0  0  0  0  0  0  0  0
   -2.9022   -8.3303    6.8290 C   0  0  0  0  0  0  0  0  0  0  0  0
   -2.9741   -9.6641    6.4001 C   0  0  0  0  0  0  0  0  0  0  0  0
   -2.8521  -10.7830    7.4014 C   0  0  0  0  0  0  0  0  0  0  0  0
   -3.0687   -9.9392    5.0292 C   0  0  0  0  0  0  0  0  0  0  0  0
   -3.1048   -8.8941    4.0994 C   0  0  0  0  0  0  0  0  0  0  0  0
   -3.5584   -5.2117    3.8680 C   0  0  0  0  0  0  0  0  0  0  0  0
   -2.8320   -4.0187    3.7366 C   0  0  0  0  0  0  0  0  0  0  0  0
   -3.4693   -2.7817    3.8830 C   0  0  0  0  0  0  0  0  0  0  0  0
   -4.8417   -2.7221    4.1726 C   0  0  0  0  0  0  0  0  0  0  0  0
   -5.5405   -1.3980    4.2693 C   0  0  0  0  0  0  0  0  0  0  0  0
   -5.5436   -3.9157    4.4136 C   0  0  0  0  0  0  0  0  0  0  0  0
   -4.9055   -5.1529    4.2672 C   0  0  0  0  0  0  0  0  0  0  0  0
   -0.7203   -7.0214    2.6042 C   0  0  0  0  0  0  0  0  0  0  0  0
    0.2251   -7.0777    3.9930 S   0  0  0  0  0  0  0  0  0  0  0  0
   -3.2157   -5.0654    0.7718 C   0  0  0  0  0  0  0  0  0  0  0  0
   -4.6354   -5.0019    0.8134 C   0  0  0  0  0  0  0  0  0  0  0  0
   -5.5215   -6.1683    1.0646 C   0  0  0  0  0  0  0  0  0  0  0  0
   -5.1596   -7.4500    0.6043 C   0  0  0  0  0  0  0  0  0  0  0  0
   -5.9468   -8.5651    0.9151 C   0  0  0  0  0  0  0  0  0  0  0  0
   -7.0958   -8.4218    1.6898 C   0  0  0  0  0  0  0  0  0  0  0  0
   -7.4801   -7.1527    2.1424 C   0  0  0  0  0  0  0  0  0  0  0  0
   -8.7408   -6.9906    2.9500 C   0  0  0  0  0  0  0  0  0  0  0  0
   -9.9364   -6.7465    2.0333 C   0  0  0  0  0  0  0  0  0  0  0  0
   -6.7043   -6.0300    1.8083 C   0  0  0  0  0  0  0  0  0  0  0  0
   -5.0521   -3.6597    0.6419 C   0  0  0  0  0  0  0  0  0  0  0  0
   -6.5378   -2.7899    0.6529 S   0  0  0  0  0  0  0  0  0  0  0  0
   -5.7264   -1.2862    0.5631 C   0  0  0  0  0  0  0  0  0  0  0  0
   -5.9463    0.0703    0.4517 C   0  0  0  0  0  0  0  0  0  0  0  0
   -7.0813    0.8516    0.1846 C   0  0  0  0  0  0  0  0  0  0  0  0
   -6.9078    2.2409   -0.1146 C   0  0  0  0  0  0  0  0  0  0  0  0
   -8.0295    2.9443   -0.4047 N   0  0  0  0  0  0  0  0  0  0  0  0
   -9.1631    1.7419   -0.2754 S   0  0  0  0  0  0  0  0  0  0  0  0
   -8.3419    0.3608    0.1275 N   0  0  0  0  0  0  0  0  0  0  0  0
   -5.6195    2.7969   -0.0358 C   0  0  0  0  0  0  0  0  0  0  0  0
   -5.1064    4.0578   -0.2180 C   0  0  0  0  0  0  0  0  0  0  0  0
   -5.4817    5.5221   -1.0039 S   0  0  0  0  0  0  0  0  0  0  0  0
   -3.8645    6.0822   -0.8157 C   0  0  0  0  0  0  0  0  0  0  0  0
   -3.1144    7.1319   -1.3759 C   0  0  0  0  0  0  0  0  0  0  0  0
   -3.6862    8.1763   -2.2644 C   0  0  0  0  0  0  0  0  0  0  0  0
   -4.9246    8.7657   -1.9519 C   0  0  0  0  0  0  0  0  0  0  0  0
   -5.4643    9.7693   -2.7652 C   0  0  0  0  0  0  0  0  0  0  0  0
   -4.7531   10.2277   -3.8706 C   0  0  0  0  0  0  0  0  0  0  0  0
   -3.5057    9.6682   -4.1934 C   0  0  0  0  0  0  0  0  0  0  0  0
   -2.7368   10.1575   -5.3991 C   0  0  0  0  0  0  0  0  0  0  0  0
   -3.0593    9.3082   -6.6283 C   0  0  0  0  0  0  0  0  0  0  0  0
   -2.9967    8.6258   -3.4060 C   0  0  0  0  0  0  0  0  0  0  0  0
   -1.7340    6.9777   -1.0815 C   0  0  0  0  0  0  0  0  0  0  0  0
   -1.4791    5.5470   -0.1932 S   0  0  0  0  0  0  0  0  0  0  0  0
   -3.1040    5.1519   -0.1556 C   0  0  0  0  0  0  0  0  0  0  0  0
   -3.8046    4.0108    0.1553 C   0  0  0  0  0  0  0  0  0  0  0  0
   -3.4023    2.7875    0.5524 N   0  0  0  0  0  0  0  0  0  0  0  0
   -4.5175    2.0276    0.3470 C   0  0  0  0  0  0  0  0  0  0  0  0
   -4.6588    0.6342    0.4350 C   0  0  0  0  0  0  0  0  0  0  0  0
   -3.6863   -0.3193    0.3456 N   0  0  0  0  0  0  0  0  0  0  0  0
   -4.3854   -1.4632    0.4865 C   0  0  0  0  0  0  0  0  0  0  0  0
   -4.0135   -2.7762    0.4889 C   0  0  0  0  0  0  0  0  0  0  0  0
   -2.5464   -3.5280    0.5321 S   0  0  0  0  0  0  0  0  0  0  0  0
   -2.3783   -0.2148   -0.3364 C   0  0  0  0  0  0  0  0  0  0  0  0
   -2.4773   -0.7074   -1.7805 C   0  0  0  0  0  0  0  0  0  0  0  0
   -2.3057    2.5387    1.5007 C   0  0  0  0  0  0  0  0  0  0  0  0
   -2.5982    3.1865    2.8575 C   0  0  0  0  0  0  0  0  0  0  0  0
   -0.6144    7.8464   -1.5028 C   0  0  0  0  0  0  0  0  0  0  0  0
   -0.5415    9.2119   -1.1654 C   0  0  0  0  0  0  0  0  0  0  0  0
   -1.5128    9.9483   -0.4645 C   0  0  0  0  0  0  0  0  0  0  0  0
   -1.1604   11.2845   -0.2982 C   0  0  0  0  0  0  0  0  0  0  0  0
   -2.0532   12.3405    0.2548 C   0  0  0  0  0  0  0  0  0  0  0  0
   -2.9500   12.9045   -0.8443 C   0  0  0  0  0  0  0  0  0  0  0  0
    0.3669   11.5530   -0.9765 S   0  0  0  0  0  0  0  0  0  0  0  0
    0.5901    9.9711   -1.4995 C   0  0  0  0  0  0  0  0  0  0  0  0
    1.7107    9.4114   -2.1408 C   0  0  0  0  0  0  0  0  0  0  0  0
    1.6014    8.0722   -2.5698 C   0  0  0  0  0  0  0  0  0  0  0  0
    0.4662    7.3166   -2.2370 C   0  0  0  0  0  0  0  0  0  0  0  0
    0.6201    5.7838   -2.9093 S   0  0  0  0  0  0  0  0  0  0  0  0
    2.1043    6.0702   -3.6413 C   0  0  0  0  0  0  0  0  0  0  0  0
    2.9052    5.0307   -4.3564 C   0  0  0  0  0  0  0  0  0  0  0  0
    3.9342    4.4091   -3.4184 C   0  0  0  0  0  0  0  0  0  0  0  0
    2.5313    7.3619   -3.3505 C   0  0  0  0  0  0  0  0  0  0  0  0
    2.9104   10.2297   -2.3975 C   0  0  0  0  0  0  0  0  0  0  0  0
    4.1775    9.8899   -2.0846 C   0  0  0  0  0  0  0  0  0  0  0  0
    5.3092   10.4265   -2.8191 C   0  0  0  0  0  0  0  0  0  0  0  0
    5.2910   11.4675   -3.5255 O   0  0  0  0  0  0  0  0  0  0  0  0
    6.4504    9.5302   -2.6487 C   0  0  0  0  0  0  0  0  0  0  0  0
    7.7146    9.6279   -3.2299 C   0  0  0  0  0  0  0  0  0  0  0  0
    8.0638   10.8603   -4.4438 Cl  0  0  0  0  0  0  0  0  0  0  0  0
    8.6997    8.7011   -2.8502 C   0  0  0  0  0  0  0  0  0  0  0  0
   10.2902    8.7525   -3.6170 Cl  0  0  0  0  0  0  0  0  0  0  0  0
    8.4332    7.7628   -1.8363 C   0  0  0  0  0  0  0  0  0  0  0  0
    9.7158    6.6727   -1.3065 Cl  0  0  0  0  0  0  0  0  0  0  0  0
    7.1548    7.7024   -1.2244 C   0  0  0  0  0  0  0  0  0  0  0  0
    7.0065    6.8069    0.2789 Cl  0  0  0  0  0  0  0  0  0  0  0  0
    6.1223    8.5232   -1.7357 C   0  0  0  0  0  0  0  0  0  0  0  0
    4.6934    8.7137   -1.3118 C   0  0  0  0  0  0  0  0  0  0  0  0
    3.9762    8.0039   -0.4107 C   0  0  0  0  0  0  0  0  0  0  0  0
    3.0064    8.6460    0.4316 C   0  0  0  0  0  0  0  0  0  0  0  0
    2.2328    9.1841    1.1114 N   0  0  0  0  0  0  0  0  0  0  0  0
    4.1098    6.5717   -0.2514 C   0  0  0  0  0  0  0  0  0  0  0  0
    4.2098    5.4270   -0.1309 N   0  0  0  0  0  0  0  0  0  0  0  0
    2.8688   -5.6112    4.5585 H   0  0  0  0  0  0  0  0  0  0  0  0
    5.4117   -9.4384    0.2285 H   0  0  0  0  0  0  0  0  0  0  0  0
    7.9915   -5.4017    1.9555 H   0  0  0  0  0  0  0  0  0  0  0  0
    9.8981   -7.3834   -0.1610 H   0  0  0  0  0  0  0  0  0  0  0  0
    8.9933   -5.1110   -1.4542 H   0  0  0  0  0  0  0  0  0  0  0  0
   10.5143   -6.3512   -3.2339 H   0  0  0  0  0  0  0  0  0  0  0  0
    9.2032   -8.4219   -4.1322 H   0  0  0  0  0  0  0  0  0  0  0  0
    6.8554   -8.5206   -2.8853 H   0  0  0  0  0  0  0  0  0  0  0  0
    6.5471   -6.2058   -1.5786 H   0  0  0  0  0  0  0  0  0  0  0  0
    7.1945   -5.9065   -3.2388 H   0  0  0  0  0  0  0  0  0  0  0  0
    8.7010   -9.3101   -0.9753 H   0  0  0  0  0  0  0  0  0  0  0  0
    0.5018   -4.0854    2.7617 H   0  0  0  0  0  0  0  0  0  0  0  0
    0.9514   -1.9273    3.8260 H   0  0  0  0  0  0  0  0  0  0  0  0
    2.2492    0.1017    3.9378 H   0  0  0  0  0  0  0  0  0  0  0  0
    3.6566    0.3215    2.8467 H   0  0  0  0  0  0  0  0  0  0  0  0
    3.8696   -0.5175    4.4342 H   0  0  0  0  0  0  0  0  0  0  0  0
    4.8140   -1.7982    1.9207 H   0  0  0  0  0  0  0  0  0  0  0  0
    4.3836   -3.9978    0.8981 H   0  0  0  0  0  0  0  0  0  0  0  0
    1.2574   -3.6666   -0.6672 H   0  0  0  0  0  0  0  0  0  0  0  0
    1.5068   -3.7426   -3.1065 H   0  0  0  0  0  0  0  0  0  0  0  0
    2.2037   -6.4873   -5.0261 H   0  0  0  0  0  0  0  0  0  0  0  0
    2.4588   -4.6939   -5.0706 H   0  0  0  0  0  0  0  0  0  0  0  0
    3.8738   -5.7961   -4.8485 H   0  0  0  0  0  0  0  0  0  0  0  0
    3.6674   -7.4713   -2.7798 H   0  0  0  0  0  0  0  0  0  0  0  0
    3.3643   -7.4166   -0.3219 H   0  0  0  0  0  0  0  0  0  0  0  0
   -2.8440   -6.2652    6.2553 H   0  0  0  0  0  0  0  0  0  0  0  0
   -2.8004   -8.0962    7.8820 H   0  0  0  0  0  0  0  0  0  0  0  0
   -3.3949  -10.5219    8.3341 H   0  0  0  0  0  0  0  0  0  0  0  0
   -1.7778  -10.9442    7.6313 H   0  0  0  0  0  0  0  0  0  0  0  0
   -3.2815  -11.7205    6.9927 H   0  0  0  0  0  0  0  0  0  0  0  0
   -3.1110  -10.9625    4.6796 H   0  0  0  0  0  0  0  0  0  0  0  0
   -3.1810   -9.1256    3.0472 H   0  0  0  0  0  0  0  0  0  0  0  0
   -1.7863   -4.0438    3.4753 H   0  0  0  0  0  0  0  0  0  0  0  0
   -2.9047   -1.8748    3.7313 H   0  0  0  0  0  0  0  0  0  0  0  0
   -6.5973   -1.4879    3.9386 H   0  0  0  0  0  0  0  0  0  0  0  0
   -5.5145   -1.0460    5.3190 H   0  0  0  0  0  0  0  0  0  0  0  0
   -5.0451   -0.6435    3.6215 H   0  0  0  0  0  0  0  0  0  0  0  0
   -6.5873   -3.8882    4.6737 H   0  0  0  0  0  0  0  0  0  0  0  0
   -5.4692   -6.0631    4.4184 H   0  0  0  0  0  0  0  0  0  0  0  0
   -4.2771   -7.5929   -0.0016 H   0  0  0  0  0  0  0  0  0  0  0  0
   -5.6533   -9.5429    0.5653 H   0  0  0  0  0  0  0  0  0  0  0  0
   -7.6949   -9.2924    1.9165 H   0  0  0  0  0  0  0  0  0  0  0  0
   -8.9276   -7.9031    3.5555 H   0  0  0  0  0  0  0  0  0  0  0  0
   -8.6382   -6.1385    3.6568 H   0  0  0  0  0  0  0  0  0  0  0  0
  -10.0592   -7.5911    1.3213 H   0  0  0  0  0  0  0  0  0  0  0  0
  -10.8633   -6.6583    2.6393 H   0  0  0  0  0  0  0  0  0  0  0  0
   -9.7963   -5.8046    1.4608 H   0  0  0  0  0  0  0  0  0  0  0  0
   -6.9978   -5.0642    2.1949 H   0  0  0  0  0  0  0  0  0  0  0  0
   -5.4742    8.4583   -1.0693 H   0  0  0  0  0  0  0  0  0  0  0  0
   -6.4298   10.1983   -2.5216 H   0  0  0  0  0  0  0  0  0  0  0  0
   -5.1790   11.0117   -4.4866 H   0  0  0  0  0  0  0  0  0  0  0  0
   -1.6458   10.1115   -5.1861 H   0  0  0  0  0  0  0  0  0  0  0  0
   -2.9874   11.2213   -5.6119 H   0  0  0  0  0  0  0  0  0  0  0  0
   -2.4041    9.6151   -7.4713 H   0  0  0  0  0  0  0  0  0  0  0  0
   -4.1286    9.4446   -6.9086 H   0  0  0  0  0  0  0  0  0  0  0  0
   -2.8768    8.2260   -6.4061 H   0  0  0  0  0  0  0  0  0  0  0  0
   -2.0684    8.1587   -3.6949 H   0  0  0  0  0  0  0  0  0  0  0  0
   -2.0414    0.8342   -0.4099 H   0  0  0  0  0  0  0  0  0  0  0  0
   -1.6140   -0.7891    0.2168 H   0  0  0  0  0  0  0  0  0  0  0  0
   -2.6913   -1.7936   -1.8142 H   0  0  0  0  0  0  0  0  0  0  0  0
   -1.5108   -0.5325   -2.2838 H   0  0  0  0  0  0  0  0  0  0  0  0
   -3.2700   -0.1568   -2.3193 H   0  0  0  0  0  0  0  0  0  0  0  0
   -2.1744    1.4528    1.6974 H   0  0  0  0  0  0  0  0  0  0  0  0
   -1.3501    2.9292    1.0895 H   0  0  0  0  0  0  0  0  0  0  0  0
   -3.5489    2.7751    3.2625 H   0  0  0  0  0  0  0  0  0  0  0  0
   -1.7780    2.9610    3.5602 H   0  0  0  0  0  0  0  0  0  0  0  0
   -2.6866    4.2887    2.7537 H   0  0  0  0  0  0  0  0  0  0  0  0
   -2.4481    9.5340   -0.1001 H   0  0  0  0  0  0  0  0  0  0  0  0
   -1.4365   13.1570    0.6978 H   0  0  0  0  0  0  0  0  0  0  0  0
   -2.6891   11.9140    1.0608 H   0  0  0  0  0  0  0  0  0  0  0  0
   -3.6307   13.6659   -0.4177 H   0  0  0  0  0  0  0  0  0  0  0  0
   -2.3358   13.3796   -1.6442 H   0  0  0  0  0  0  0  0  0  0  0  0
   -3.5702   12.0967   -1.2852 H   0  0  0  0  0  0  0  0  0  0  0  0
    2.2293    4.2405   -4.7394 H   0  0  0  0  0  0  0  0  0  0  0  0
    3.4315    5.4843   -5.2236 H   0  0  0  0  0  0  0  0  0  0  0  0
    3.4282    4.0267   -2.5060 H   0  0  0  0  0  0  0  0  0  0  0  0
    4.4467    3.5580   -3.9287 H   0  0  0  0  0  0  0  0  0  0  0  0
    4.7001    5.1620   -3.1299 H   0  0  0  0  0  0  0  0  0  0  0  0
    3.4563    7.7642   -3.7132 H   0  0  0  0  0  0  0  0  0  0  0  0
    2.7475   11.1274   -2.9906 H   0  0  0  0  0  0  0  0  0  0  0  0
  1  2  2  3
  2  3  1  0
  3  4  2  0
  3  5  1  0
  5  6  2  0
  6  7  1  0
  7  8  2  0
  8  9  1  0
  9 10  2  0
 10 11  1  0
 11 12  2  3
 12 13  1  0
 13 14  3  0
 12 15  1  0
 15 16  3  0
  8 17  1  0
 17 18  1  0
 18 19  1  0
 19 20  2  0
 20 21  1  0
 21 22  1  0
 21 23  1  0
  1 24  1  0
 24 25  2  0
 25 26  1  0
 26 27  1  0
 27 28  2  0
 28 29  1  0
 29 30  2  0
 30 31  1  0
 30 32  1  0
 32 33  2  0
 26 34  1  0
 34 35  2  0
 35 36  1  0
 36 37  2  0
 37 38  1  0
 37 39  1  0
 39 40  2  0
 25 41  1  0
 41 42  1  0
 42 43  1  0
 43 44  2  0
 44 45  1  0
 45 46  1  0
 46 47  2  0
 47 48  1  0
 48 49  2  0
 49 50  1  0
 49 51  1  0
 51 52  2  0
 45 53  1  0
 53 54  2  0
 54 55  1  0
 55 56  2  0
 56 57  1  0
 56 58  1  0
 58 59  2  0
 44 60  1  0
 60 61  1  0
 43 62  1  0
 62 63  2  0
 63 64  1  0
 64 65  2  0
 65 66  1  0
 66 67  2  0
 67 68  1  0
 68 69  1  0
 69 70  1  0
 68 71  2  0
 63 72  1  0
 72 73  1  0
 73 74  1  0
 74 75  1  0
 75 76  1  0
 76 77  1  0
 77 78  2  0
 78 79  1  0
 79 80  1  0
 77 81  1  0
 81 82  1  0
 82 83  1  0
 83 84  1  0
 84 85  1  0
 85 86  1  0
 86 87  2  0
 87 88  1  0
 88 89  2  0
 89 90  1  0
 90 91  1  0
 91 92  1  0
 90 93  2  0
 85 94  2  0
 94 95  1  0
 95 96  1  0
 96 97  1  0
 97 98  1  0
 98 99  1  0
 99100  1  0
100101  1  0
101102  1  0
102103  1  0
103104  1  0
101105  1  0
105106  1  0
 98107  1  0
107108  1  0
 94109  1  0
109110  2  0
110111  1  0
111112  2  0
112113  1  0
113114  1  0
112115  1  0
115116  1  0
116117  2  0
117118  1  0
118119  2  0
119120  1  0
120121  1  0
121122  1  0
122123  1  0
121124  2  0
117125  1  0
125126  2  3
126127  1  0
127128  2  0
127129  1  0
129130  2  0
130131  1  0
130132  1  0
132133  1  0
132134  2  0
134135  1  0
134136  1  0
136137  1  0
136138  2  0
138139  1  0
139140  2  3
140141  1  0
141142  3  0
140143  1  0
143144  3  0
 11  2  1  0
 23 17  1  0
 61 24  1  0
104 62  1  0
119109  1  0
139126  1  0
 10  5  1  0
 22 18  1  0
 33 27  1  0
 40 34  1  0
 60 41  2  0
 71 64  1  0
103 72  2  0
116110  1  0
124118  1  0
138129  1  0
 23  7  1  0
 52 46  1  0
 59 53  1  0
102 74  2  0
100 75  2  0
 80 76  2  0
 99 81  2  0
 97 82  2  0
 96 84  2  0
 93 86  1  0
  1145  1  0
  6146  1  0
  9147  1  0
 17148  1  0
 18149  1  0
 19150  1  0
 20151  1  0
 21152  1  0
 22153  1  0
 22154  1  0
 23155  1  0
 28156  1  0
 29157  1  0
 31158  1  0
 31159  1  0
 31160  1  0
 32161  1  0
 33162  1  0
 35163  1  0
 36164  1  0
 38165  1  0
 38166  1  0
 38167  1  0
 39168  1  0
 40169  1  0
 47170  1  0
 48171  1  0
 50172  1  0
 50173  1  0
 50174  1  0
 51175  1  0
 52176  1  0
 54177  1  0
 55178  1  0
 57179  1  0
 57180  1  0
 57181  1  0
 58182  1  0
 59183  1  0
 65184  1  0
 66185  1  0
 67186  1  0
 69187  1  0
 69188  1  0
 70189  1  0
 70190  1  0
 70191  1  0
 71192  1  0
 87193  1  0
 88194  1  0
 89195  1  0
 91196  1  0
 91197  1  0
 92198  1  0
 92199  1  0
 92200  1  0
 93201  1  0
105202  1  0
105203  1  0
106204  1  0
106205  1  0
106206  1  0
107207  1  0
107208  1  0
108209  1  0
108210  1  0
108211  1  0
111212  1  0
113213  1  0
113214  1  0
114215  1  0
114216  1  0
114217  1  0
122218  1  0
122219  1  0
123220  1  0
123221  1  0
123222  1  0
124223  1  0
125224  1  0
M  END

