
     RDKit          3D

225252  0  0  0  0  0  0  0  0999 V2000
    3.7503    2.4935   -7.2243 C   0  0  0  0  0  0  0  0  0  0  0  0
    3.7938    3.5512   -6.3952 C   0  0  0  0  0  0  0  0  0  0  0  0
    3.5303    3.4834   -4.9497 C   0  0  0  0  0  0  0  0  0  0  0  0
    3.2841    2.4584   -4.2689 O   0  0  0  0  0  0  0  0  0  0  0  0
    3.6425    4.7899   -4.3799 C   0  0  0  0  0  0  0  0  0  0  0  0
    3.5623    5.0915   -3.0004 C   0  0  0  0  0  0  0  0  0  0  0  0
    3.7016    6.4402   -2.7268 C   0  0  0  0  0  0  0  0  0  0  0  0
    3.8897    7.4367   -3.7412 C   0  0  0  0  0  0  0  0  0  0  0  0
    3.9982    7.1370   -5.0913 C   0  0  0  0  0  0  0  0  0  0  0  0
    3.8847    5.7400   -5.4044 C   0  0  0  0  0  0  0  0  0  0  0  0
    4.0273    5.0085   -6.7084 C   0  0  0  0  0  0  0  0  0  0  0  0
    4.2641    5.5885   -7.9221 C   0  0  0  0  0  0  0  0  0  0  0  0
    4.3146    7.0153   -8.1232 C   0  0  0  0  0  0  0  0  0  0  0  0
    4.3568    8.1641   -8.3138 N   0  0  0  0  0  0  0  0  0  0  0  0
    4.4889    4.8268   -9.1249 C   0  0  0  0  0  0  0  0  0  0  0  0
    4.6749    4.2376  -10.1089 N   0  0  0  0  0  0  0  0  0  0  0  0
    3.8320    8.5188   -2.7011 C   0  0  0  0  0  0  0  0  0  0  0  0
    2.5022    9.3366   -2.6008 C   0  0  0  0  0  0  0  0  0  0  0  0
    2.5613   10.0559   -1.2755 C   0  0  0  0  0  0  0  0  0  0  0  0
    2.4208    9.1153   -0.3261 C   0  0  0  0  0  0  0  0  0  0  0  0
    2.2771    7.7983   -1.0440 C   0  0  0  0  0  0  0  0  0  0  0  0
    1.4675    8.2813   -2.2407 C   0  0  0  0  0  0  0  0  0  0  0  0
    3.6776    7.4939   -1.6618 C   0  0  0  0  0  0  0  0  0  0  0  0
    3.1350    1.2220   -6.8260 C   0  0  0  0  0  0  0  0  0  0  0  0
    1.7509    1.0512   -6.6462 C   0  0  0  0  0  0  0  0  0  0  0  0
    0.7513    1.9945   -7.1192 N   0  0  0  0  0  0  0  0  0  0  0  0
   -0.4659    2.2260   -6.3695 C   0  0  0  0  0  0  0  0  0  0  0  0
   -0.4211    2.4228   -4.9745 C   0  0  0  0  0  0  0  0  0  0  0  0
   -1.5976    2.6569   -4.2548 C   0  0  0  0  0  0  0  0  0  0  0  0
   -2.8383    2.7094   -4.9243 C   0  0  0  0  0  0  0  0  0  0  0  0
   -4.0947    2.9769   -4.1543 C   0  0  0  0  0  0  0  0  0  0  0  0
   -2.8772    2.5462   -6.3196 C   0  0  0  0  0  0  0  0  0  0  0  0
   -1.7029    2.2971   -7.0363 C   0  0  0  0  0  0  0  0  0  0  0  0
    0.9505    2.6908   -8.3591 C   0  0  0  0  0  0  0  0  0  0  0  0
    0.7126    4.0705   -8.4468 C   0  0  0  0  0  0  0  0  0  0  0  0
    0.9628    4.7660   -9.6342 C   0  0  0  0  0  0  0  0  0  0  0  0
    1.4772    4.0879  -10.7518 C   0  0  0  0  0  0  0  0  0  0  0  0
    1.7690    4.8405  -12.0186 C   0  0  0  0  0  0  0  0  0  0  0  0
    1.7069    2.7037  -10.6792 C   0  0  0  0  0  0  0  0  0  0  0  0
    1.4474    2.0137   -9.4918 C   0  0  0  0  0  0  0  0  0  0  0  0
    1.4755   -0.0991   -5.9002 C   0  0  0  0  0  0  0  0  0  0  0  0
    0.1104   -0.8047   -5.2111 S   0  0  0  0  0  0  0  0  0  0  0  0
    0.9569   -2.0464   -4.4034 C   0  0  0  0  0  0  0  0  0  0  0  0
    2.3277   -1.8861   -4.6630 C   0  0  0  0  0  0  0  0  0  0  0  0
    3.3407   -2.8129   -4.2642 N   0  0  0  0  0  0  0  0  0  0  0  0
    3.6992   -3.8415   -5.2053 C   0  0  0  0  0  0  0  0  0  0  0  0
    4.9961   -3.9067   -5.7315 C   0  0  0  0  0  0  0  0  0  0  0  0
    5.3104   -4.8463   -6.7214 C   0  0  0  0  0  0  0  0  0  0  0  0
    4.3312   -5.7375   -7.1888 C   0  0  0  0  0  0  0  0  0  0  0  0
    4.6620   -6.7017   -8.2835 C   0  0  0  0  0  0  0  0  0  0  0  0
    3.0313   -5.6828   -6.6518 C   0  0  0  0  0  0  0  0  0  0  0  0
    2.7255   -4.7469   -5.6608 C   0  0  0  0  0  0  0  0  0  0  0  0
    4.1449   -2.5867   -3.0866 C   0  0  0  0  0  0  0  0  0  0  0  0
    4.3343   -1.2870   -2.5761 C   0  0  0  0  0  0  0  0  0  0  0  0
    5.1854   -1.0768   -1.4769 C   0  0  0  0  0  0  0  0  0  0  0  0
    5.8468   -2.1587   -0.8835 C   0  0  0  0  0  0  0  0  0  0  0  0
    6.7538   -1.9314    0.2876 C   0  0  0  0  0  0  0  0  0  0  0  0
    5.5970   -3.4689   -1.3354 C   0  0  0  0  0  0  0  0  0  0  0  0
    4.7636   -3.6747   -2.4391 C   0  0  0  0  0  0  0  0  0  0  0  0
    2.5700   -0.8015   -5.5113 C   0  0  0  0  0  0  0  0  0  0  0  0
    3.9699   -0.0774   -6.0966 S   0  0  0  0  0  0  0  0  0  0  0  0
    0.3556   -3.0331   -3.4801 C   0  0  0  0  0  0  0  0  0  0  0  0
   -0.8756   -3.6995   -3.6562 C   0  0  0  0  0  0  0  0  0  0  0  0
   -1.7634   -3.5461   -4.8312 C   0  0  0  0  0  0  0  0  0  0  0  0
   -1.2560   -3.6866   -6.1393 C   0  0  0  0  0  0  0  0  0  0  0  0
   -2.0569   -3.3781   -7.2445 C   0  0  0  0  0  0  0  0  0  0  0  0
   -3.3696   -2.9271   -7.0601 C   0  0  0  0  0  0  0  0  0  0  0  0
   -3.8871   -2.7798   -5.7589 C   0  0  0  0  0  0  0  0  0  0  0  0
   -5.2543   -2.2005   -5.5367 C   0  0  0  0  0  0  0  0  0  0  0  0
   -5.1573   -0.8549   -4.7977 C   0  0  0  0  0  0  0  0  0  0  0  0
   -3.0853   -3.1075   -4.6517 C   0  0  0  0  0  0  0  0  0  0  0  0
   -1.2693   -4.3666   -2.4862 C   0  0  0  0  0  0  0  0  0  0  0  0
   -2.7011   -5.1889   -2.0040 S   0  0  0  0  0  0  0  0  0  0  0  0
   -2.1376   -5.2958   -0.4087 C   0  0  0  0  0  0  0  0  0  0  0  0
   -2.5749   -5.6718    0.8337 C   0  0  0  0  0  0  0  0  0  0  0  0
   -3.7416   -6.3045    1.2594 C   0  0  0  0  0  0  0  0  0  0  0  0
   -3.9578   -6.4752    2.6533 C   0  0  0  0  0  0  0  0  0  0  0  0
   -5.1028   -7.0911    3.0311 N   0  0  0  0  0  0  0  0  0  0  0  0
   -5.7564   -7.3940    1.5370 S   0  0  0  0  0  0  0  0  0  0  0  0
   -4.7042   -6.7748    0.4241 N   0  0  0  0  0  0  0  0  0  0  0  0
   -3.0219   -5.9416    3.5514 C   0  0  0  0  0  0  0  0  0  0  0  0
   -3.1879   -5.6406    4.8830 C   0  0  0  0  0  0  0  0  0  0  0  0
   -4.5185   -5.4990    5.9361 S   0  0  0  0  0  0  0  0  0  0  0  0
   -3.6870   -4.3753    6.9257 C   0  0  0  0  0  0  0  0  0  0  0  0
   -4.0899   -3.5539    7.9992 C   0  0  0  0  0  0  0  0  0  0  0  0
   -5.4964   -3.4615    8.4228 C   0  0  0  0  0  0  0  0  0  0  0  0
   -5.9369   -4.0082    9.6389 C   0  0  0  0  0  0  0  0  0  0  0  0
   -7.3004   -3.9899    9.9668 C   0  0  0  0  0  0  0  0  0  0  0  0
   -8.2324   -3.4231    9.0831 C   0  0  0  0  0  0  0  0  0  0  0  0
   -7.7930   -2.8357    7.8796 C   0  0  0  0  0  0  0  0  0  0  0  0
   -8.7929   -2.2923    6.8932 C   0  0  0  0  0  0  0  0  0  0  0  0
   -9.2684   -3.3933    5.9475 C   0  0  0  0  0  0  0  0  0  0  0  0
   -6.4248   -2.8785    7.5457 C   0  0  0  0  0  0  0  0  0  0  0  0
   -3.0892   -2.6181    8.2979 C   0  0  0  0  0  0  0  0  0  0  0  0
   -1.7945   -2.8003    7.2126 S   0  0  0  0  0  0  0  0  0  0  0  0
   -2.4710   -4.0759    6.3825 C   0  0  0  0  0  0  0  0  0  0  0  0
   -2.1918   -4.7763    5.2116 C   0  0  0  0  0  0  0  0  0  0  0  0
   -1.3693   -4.5007    4.1546 N   0  0  0  0  0  0  0  0  0  0  0  0
   -1.8631   -5.2679    3.1319 C   0  0  0  0  0  0  0  0  0  0  0  0
   -1.5844   -5.2291    1.7305 C   0  0  0  0  0  0  0  0  0  0  0  0
   -0.5105   -4.7196    1.0385 N   0  0  0  0  0  0  0  0  0  0  0  0
   -0.9210   -4.7330   -0.2487 C   0  0  0  0  0  0  0  0  0  0  0  0
   -0.3989   -4.2411   -1.4434 C   0  0  0  0  0  0  0  0  0  0  0  0
    0.9167   -3.3009   -1.8893 S   0  0  0  0  0  0  0  0  0  0  0  0
    0.9002   -4.7771    1.4221 C   0  0  0  0  0  0  0  0  0  0  0  0
    1.5556   -6.0656    0.9394 C   0  0  0  0  0  0  0  0  0  0  0  0
   -0.5098   -3.3063    4.0819 C   0  0  0  0  0  0  0  0  0  0  0  0
    0.7940   -3.5221    4.8647 C   0  0  0  0  0  0  0  0  0  0  0  0
   -3.1752   -1.4551    9.2008 C   0  0  0  0  0  0  0  0  0  0  0  0
   -3.3022   -0.1426    8.6709 C   0  0  0  0  0  0  0  0  0  0  0  0
   -4.2023    0.1698    7.5058 C   0  0  0  0  0  0  0  0  0  0  0  0
   -3.7896    1.4061    6.6930 C   0  0  0  0  0  0  0  0  0  0  0  0
   -2.5776    0.7996    9.4377 C   0  0  0  0  0  0  0  0  0  0  0  0
   -1.9375    0.3026   10.5350 C   0  0  0  0  0  0  0  0  0  0  0  0
   -2.1918   -1.3540   10.5723 S   0  0  0  0  0  0  0  0  0  0  0  0
   -0.9268    1.1026   11.0729 C   0  0  0  0  0  0  0  0  0  0  0  0
   -0.7060    2.2428   10.2964 C   0  0  0  0  0  0  0  0  0  0  0  0
   -1.8641    2.2691    9.0590 S   0  0  0  0  0  0  0  0  0  0  0  0
    0.5029    3.1001   10.2306 C   0  0  0  0  0  0  0  0  0  0  0  0
    1.6445    2.9557   10.9186 C   0  0  0  0  0  0  0  0  0  0  0  0
    2.6685    4.0052   10.7209 C   0  0  0  0  0  0  0  0  0  0  0  0
    2.5573    5.1986   11.1173 O   0  0  0  0  0  0  0  0  0  0  0  0
    3.7729    3.5035    9.9198 C   0  0  0  0  0  0  0  0  0  0  0  0
    4.8684    4.2107    9.3737 C   0  0  0  0  0  0  0  0  0  0  0  0
    5.6208    3.4433    8.4877 C   0  0  0  0  0  0  0  0  0  0  0  0
    5.3011    2.0827    8.1468 C   0  0  0  0  0  0  0  0  0  0  0  0
    4.2615    1.3760    8.7306 C   0  0  0  0  0  0  0  0  0  0  0  0
    3.5202    2.1340    9.6721 C   0  0  0  0  0  0  0  0  0  0  0  0
    2.4291    1.7210   10.5864 C   0  0  0  0  0  0  0  0  0  0  0  0
    2.5498    0.6342   11.3716 C   0  0  0  0  0  0  0  0  0  0  0  0
    1.9898    0.6125   12.6925 C   0  0  0  0  0  0  0  0  0  0  0  0
    1.5159    0.6570   13.7433 N   0  0  0  0  0  0  0  0  0  0  0  0
    3.2247   -0.5586   10.9204 C   0  0  0  0  0  0  0  0  0  0  0  0
    3.7413   -1.5243   10.5254 N   0  0  0  0  0  0  0  0  0  0  0  0
    6.4453    2.0530    7.1706 C   0  0  0  0  0  0  0  0  0  0  0  0
    6.0841    2.1594    5.6552 C   0  0  0  0  0  0  0  0  0  0  0  0
    7.3799    2.5030    4.9502 C   0  0  0  0  0  0  0  0  0  0  0  0
    7.6762    3.7620    5.2997 C   0  0  0  0  0  0  0  0  0  0  0  0
    6.5763    4.2265    6.2218 C   0  0  0  0  0  0  0  0  0  0  0  0
    5.4050    3.5151    5.5577 C   0  0  0  0  0  0  0  0  0  0  0  0
    6.7733    3.4356    7.5392 C   0  0  0  0  0  0  0  0  0  0  0  0
    4.0486    2.5615   -8.2357 H   0  0  0  0  0  0  0  0  0  0  0  0
    3.3683    4.3520   -2.2235 H   0  0  0  0  0  0  0  0  0  0  0  0
    4.1419    7.9458   -5.7923 H   0  0  0  0  0  0  0  0  0  0  0  0
    4.7705    9.1160   -2.6314 H   0  0  0  0  0  0  0  0  0  0  0  0
    2.2612    9.9736   -3.4722 H   0  0  0  0  0  0  0  0  0  0  0  0
    2.6249   11.1240   -1.0991 H   0  0  0  0  0  0  0  0  0  0  0  0
    2.3478    9.2929    0.7433 H   0  0  0  0  0  0  0  0  0  0  0  0
    1.8313    6.9689   -0.4489 H   0  0  0  0  0  0  0  0  0  0  0  0
    0.4659    8.7008   -1.9615 H   0  0  0  0  0  0  0  0  0  0  0  0
    1.2877    7.5097   -3.0199 H   0  0  0  0  0  0  0  0  0  0  0  0
    4.5235    7.4235   -0.9503 H   0  0  0  0  0  0  0  0  0  0  0  0
    0.5226    2.3940   -4.4528 H   0  0  0  0  0  0  0  0  0  0  0  0
   -1.5486    2.7988   -3.1815 H   0  0  0  0  0  0  0  0  0  0  0  0
   -4.0075    2.5916   -3.1193 H   0  0  0  0  0  0  0  0  0  0  0  0
   -4.2656    4.0769   -4.1226 H   0  0  0  0  0  0  0  0  0  0  0  0
   -4.9615    2.4819   -4.6414 H   0  0  0  0  0  0  0  0  0  0  0  0
   -3.8182    2.6148   -6.8633 H   0  0  0  0  0  0  0  0  0  0  0  0
   -1.7762    2.1715   -8.1056 H   0  0  0  0  0  0  0  0  0  0  0  0
    0.3343    4.6092   -7.5856 H   0  0  0  0  0  0  0  0  0  0  0  0
    0.7567    5.8337   -9.6769 H   0  0  0  0  0  0  0  0  0  0  0  0
    2.6370    4.3890  -12.5449 H   0  0  0  0  0  0  0  0  0  0  0  0
    0.8812    4.7923  -12.6845 H   0  0  0  0  0  0  0  0  0  0  0  0
    2.0079    5.8992  -11.8003 H   0  0  0  0  0  0  0  0  0  0  0  0
    2.0977    2.1679  -11.5398 H   0  0  0  0  0  0  0  0  0  0  0  0
    1.6333    0.9470   -9.4524 H   0  0  0  0  0  0  0  0  0  0  0  0
    5.7602   -3.2099   -5.4035 H   0  0  0  0  0  0  0  0  0  0  0  0
    6.3142   -4.8721   -7.1317 H   0  0  0  0  0  0  0  0  0  0  0  0
    5.6034   -7.2354   -8.0541 H   0  0  0  0  0  0  0  0  0  0  0  0
    4.7756   -6.1450   -9.2383 H   0  0  0  0  0  0  0  0  0  0  0  0
    3.8514   -7.4528   -8.4223 H   0  0  0  0  0  0  0  0  0  0  0  0
    2.2570   -6.3587   -7.0005 H   0  0  0  0  0  0  0  0  0  0  0  0
    1.7317   -4.7283   -5.2518 H   0  0  0  0  0  0  0  0  0  0  0  0
    3.8611   -0.4308   -3.0356 H   0  0  0  0  0  0  0  0  0  0  0  0
    5.3530   -0.0612   -1.1228 H   0  0  0  0  0  0  0  0  0  0  0  0
    7.4656   -2.7650    0.4170 H   0  0  0  0  0  0  0  0  0  0  0  0
    7.3411   -0.9980    0.1359 H   0  0  0  0  0  0  0  0  0  0  0  0
    6.1496   -1.8204    1.2145 H   0  0  0  0  0  0  0  0  0  0  0  0
    6.0693   -4.3211   -0.8639 H   0  0  0  0  0  0  0  0  0  0  0  0
    4.6049   -4.6915   -2.7907 H   0  0  0  0  0  0  0  0  0  0  0  0
   -0.2387   -3.9995   -6.2980 H   0  0  0  0  0  0  0  0  0  0  0  0
   -1.6524   -3.4758   -8.2450 H   0  0  0  0  0  0  0  0  0  0  0  0
   -3.9602   -2.6632   -7.9243 H   0  0  0  0  0  0  0  0  0  0  0  0
   -5.8593   -2.9112   -4.9314 H   0  0  0  0  0  0  0  0  0  0  0  0
   -5.7799   -2.0475   -6.5046 H   0  0  0  0  0  0  0  0  0  0  0  0
   -4.9144   -1.0187   -3.7255 H   0  0  0  0  0  0  0  0  0  0  0  0
   -6.1283   -0.3269   -4.8623 H   0  0  0  0  0  0  0  0  0  0  0  0
   -4.3692   -0.2101   -5.2523 H   0  0  0  0  0  0  0  0  0  0  0  0
   -3.4865   -2.9508   -3.6516 H   0  0  0  0  0  0  0  0  0  0  0  0
   -5.2313   -4.4656   10.3109 H   0  0  0  0  0  0  0  0  0  0  0  0
   -7.6442   -4.4357   10.8974 H   0  0  0  0  0  0  0  0  0  0  0  0
   -9.2854   -3.4217    9.3478 H   0  0  0  0  0  0  0  0  0  0  0  0
   -8.3303   -1.4761    6.2994 H   0  0  0  0  0  0  0  0  0  0  0  0
   -9.6631   -1.8645    7.4334 H   0  0  0  0  0  0  0  0  0  0  0  0
   -8.4120   -3.7989    5.3676 H   0  0  0  0  0  0  0  0  0  0  0  0
   -9.7355   -4.2192    6.5230 H   0  0  0  0  0  0  0  0  0  0  0  0
  -10.0168   -2.9816    5.2419 H   0  0  0  0  0  0  0  0  0  0  0  0
   -6.1018   -2.4614    6.5898 H   0  0  0  0  0  0  0  0  0  0  0  0
    1.4370   -3.9022    1.0018 H   0  0  0  0  0  0  0  0  0  0  0  0
    1.0220   -4.7645    2.5096 H   0  0  0  0  0  0  0  0  0  0  0  0
    1.4915   -6.1668   -0.1733 H   0  0  0  0  0  0  0  0  0  0  0  0
    2.6422   -6.0570    1.2113 H   0  0  0  0  0  0  0  0  0  0  0  0
    1.0640   -6.9544    1.4019 H   0  0  0  0  0  0  0  0  0  0  0  0
   -1.0311   -2.4102    4.4808 H   0  0  0  0  0  0  0  0  0  0  0  0
   -0.2904   -3.0226    3.0314 H   0  0  0  0  0  0  0  0  0  0  0  0
    1.5851   -2.8360    4.4967 H   0  0  0  0  0  0  0  0  0  0  0  0
    1.1454   -4.5694    4.7688 H   0  0  0  0  0  0  0  0  0  0  0  0
    0.6463   -3.3186    5.9466 H   0  0  0  0  0  0  0  0  0  0  0  0
   -4.2286   -0.6870    6.7987 H   0  0  0  0  0  0  0  0  0  0  0  0
   -5.2187    0.3384    7.8910 H   0  0  0  0  0  0  0  0  0  0  0  0
   -4.4237    1.4924    5.7844 H   0  0  0  0  0  0  0  0  0  0  0  0
   -2.7182    1.3231    6.3924 H   0  0  0  0  0  0  0  0  0  0  0  0
   -3.9664    2.3159    7.3054 H   0  0  0  0  0  0  0  0  0  0  0  0
   -0.3304    0.7719   11.8960 H   0  0  0  0  0  0  0  0  0  0  0  0
    0.5791    3.6573    9.2760 H   0  0  0  0  0  0  0  0  0  0  0  0
    5.0872    5.2516    9.5898 H   0  0  0  0  0  0  0  0  0  0  0  0
    4.0322    0.3399    8.4784 H   0  0  0  0  0  0  0  0  0  0  0  0
    7.2287    1.3098    7.4446 H   0  0  0  0  0  0  0  0  0  0  0  0
    5.5242    1.3055    5.2277 H   0  0  0  0  0  0  0  0  0  0  0  0
    7.9291    1.8867    4.2480 H   0  0  0  0  0  0  0  0  0  0  0  0
    8.5042    4.3482    4.9172 H   0  0  0  0  0  0  0  0  0  0  0  0
    6.4863    5.3262    6.3182 H   0  0  0  0  0  0  0  0  0  0  0  0
    5.2242    3.8630    4.5005 H   0  0  0  0  0  0  0  0  0  0  0  0
    4.4516    3.5851    6.1188 H   0  0  0  0  0  0  0  0  0  0  0  0
    7.7575    3.5593    8.0380 H   0  0  0  0  0  0  0  0  0  0  0  0
  1  2  2  3
  2  3  1  0
  3  4  2  0
  3  5  1  0
  5  6  2  0
  6  7  1  0
  7  8  2  0
  8  9  1  0
  9 10  2  0
 10 11  1  0
 11 12  2  3
 12 13  1  0
 13 14  3  0
 12 15  1  0
 15 16  3  0
  8 17  1  0
 17 18  1  0
 18 19  1  0
 19 20  2  0
 20 21  1  0
 21 22  1  0
 21 23  1  0
  1 24  1  0
 24 25  2  0
 25 26  1  0
 26 27  1  0
 27 28  2  0
 28 29  1  0
 29 30  2  0
 30 31  1  0
 30 32  1  0
 32 33  2  0
 26 34  1  0
 34 35  2  0
 35 36  1  0
 36 37  2  0
 37 38  1  0
 37 39  1  0
 39 40  2  0
 25 41  1  0
 41 42  1  0
 42 43  1  0
 43 44  2  0
 44 45  1  0
 45 46  1  0
 46 47  2  0
 47 48  1  0
 48 49  2  0
 49 50  1  0
 49 51  1  0
 51 52  2  0
 45 53  1  0
 53 54  2  0
 54 55  1  0
 55 56  2  0
 56 57  1  0
 56 58  1  0
 58 59  2  0
 44 60  1  0
 60 61  1  0
 43 62  1  0
 62 63  2  0
 63 64  1  0
 64 65  2  0
 65 66  1  0
 66 67  2  0
 67 68  1  0
 68 69  1  0
 69 70  1  0
 68 71  2  0
 63 72  1  0
 72 73  1  0
 73 74  1  0
 74 75  1  0
 75 76  1  0
 76 77  1  0
 77 78  2  0
 78 79  1  0
 79 80  1  0
 77 81  1  0
 81 82  1  0
 82 83  1  0
 83 84  1  0
 84 85  1  0
 85 86  1  0
 86 87  2  0
 87 88  1  0
 88 89  2  0
 89 90  1  0
 90 91  1  0
 91 92  1  0
 90 93  2  0
 85 94  2  0
 94 95  1  0
 95 96  1  0
 96 97  1  0
 97 98  1  0
 98 99  1  0
 99100  1  0
100101  1  0
101102  1  0
102103  1  0
103104  1  0
101105  1  0
105106  1  0
 98107  1  0
107108  1  0
 94109  1  0
109110  2  0
110111  1  0
111112  1  0
110113  1  0
113114  2  0
114115  1  0
114116  1  0
116117  2  0
117118  1  0
117119  1  0
119120  2  3
120121  1  0
121122  2  0
121123  1  0
123124  2  0
124125  1  0
125126  2  0
126127  1  0
127128  2  0
128129  1  0
129130  2  3
130131  1  0
131132  3  0
130133  1  0
133134  3  0
126135  1  0
135136  1  0
136137  1  0
137138  2  0
138139  1  0
139140  1  0
139141  1  0
 11  2  1  0
 23 17  1  0
 61 24  1  0
104 62  1  0
115109  1  0
129120  1  0
141135  1  0
 10  5  1  0
 22 18  1  0
 33 27  1  0
 40 34  1  0
 60 41  2  0
 71 64  1  0
103 72  2  0
118113  1  0
128123  1  0
140136  1  0
 23  7  1  0
 52 46  1  0
 59 53  1  0
102 74  2  0
141125  1  0
100 75  2  0
 80 76  2  0
 99 81  2  0
 97 82  2  0
 96 84  2  0
 93 86  1  0
  1142  1  0
  6143  1  0
  9144  1  0
 17145  1  0
 18146  1  0
 19147  1  0
 20148  1  0
 21149  1  0
 22150  1  0
 22151  1  0
 23152  1  0
 28153  1  0
 29154  1  0
 31155  1  0
 31156  1  0
 31157  1  0
 32158  1  0
 33159  1  0
 35160  1  0
 36161  1  0
 38162  1  0
 38163  1  0
 38164  1  0
 39165  1  0
 40166  1  0
 47167  1  0
 48168  1  0
 50169  1  0
 50170  1  0
 50171  1  0
 51172  1  0
 52173  1  0
 54174  1  0
 55175  1  0
 57176  1  0
 57177  1  0
 57178  1  0
 58179  1  0
 59180  1  0
 65181  1  0
 66182  1  0
 67183  1  0
 69184  1  0
 69185  1  0
 70186  1  0
 70187  1  0
 70188  1  0
 71189  1  0
 87190  1  0
 88191  1  0
 89192  1  0
 91193  1  0
 91194  1  0
 92195  1  0
 92196  1  0
 92197  1  0
 93198  1  0
105199  1  0
105200  1  0
106201  1  0
106202  1  0
106203  1  0
107204  1  0
107205  1  0
108206  1  0
108207  1  0
108208  1  0
111209  1  0
111210  1  0
112211  1  0
112212  1  0
112213  1  0
116214  1  0
119215  1  0
124216  1  0
127217  1  0
135218  1  0
136219  1  0
137220  1  0
138221  1  0
139222  1  0
140223  1  0
140224  1  0
141225  1  0
M  END

