
     RDKit          3D

166187  0  0  0  0  0  0  0  0999 V2000
   -7.1593    6.1241    1.6631 C   0  0  0  0  0  0  0  0  0  0  0  0
   -6.6380    5.6215    2.8039 C   0  0  0  0  0  0  0  0  0  0  0  0
   -5.5081    4.6785    2.8767 C   0  0  0  0  0  0  0  0  0  0  0  0
   -4.9863    4.0507    1.9139 O   0  0  0  0  0  0  0  0  0  0  0  0
   -5.0060    4.6546    4.2288 C   0  0  0  0  0  0  0  0  0  0  0  0
   -3.8681    3.9581    4.6968 C   0  0  0  0  0  0  0  0  0  0  0  0
   -3.5707    4.2008    6.0234 C   0  0  0  0  0  0  0  0  0  0  0  0
   -4.3323    5.0920    6.8454 C   0  0  0  0  0  0  0  0  0  0  0  0
   -5.4446    5.7814    6.3888 C   0  0  0  0  0  0  0  0  0  0  0  0
   -5.7917    5.5195    5.0311 C   0  0  0  0  0  0  0  0  0  0  0  0
   -6.9055    6.0738    4.2036 C   0  0  0  0  0  0  0  0  0  0  0  0
   -8.0547    6.6331    4.6652 C   0  0  0  0  0  0  0  0  0  0  0  0
   -9.1794    6.8955    3.8056 C   0  0  0  0  0  0  0  0  0  0  0  0
  -10.0881    7.1031    3.1181 N   0  0  0  0  0  0  0  0  0  0  0  0
   -8.2970    6.8685    6.0627 C   0  0  0  0  0  0  0  0  0  0  0  0
   -8.5127    7.0609    7.1833 N   0  0  0  0  0  0  0  0  0  0  0  0
   -3.4106    4.8351    8.0036 C   0  0  0  0  0  0  0  0  0  0  0  0
   -2.3778    5.9404    8.3854 C   0  0  0  0  0  0  0  0  0  0  0  0
   -1.9824    6.7272    7.1567 C   0  0  0  0  0  0  0  0  0  0  0  0
   -1.2789    5.8992    6.3840 C   0  0  0  0  0  0  0  0  0  0  0  0
   -1.2176    4.5766    7.1141 C   0  0  0  0  0  0  0  0  0  0  0  0
   -1.1274    5.0919    8.5384 C   0  0  0  0  0  0  0  0  0  0  0  0
   -2.6330    3.9221    7.1590 C   0  0  0  0  0  0  0  0  0  0  0  0
   -6.7612    5.6090    0.3449 C   0  0  0  0  0  0  0  0  0  0  0  0
   -7.1641    4.3248   -0.0451 C   0  0  0  0  0  0  0  0  0  0  0  0
   -6.4651    3.6536   -1.0491 C   0  0  0  0  0  0  0  0  0  0  0  0
   -5.3575    4.2591   -1.6638 C   0  0  0  0  0  0  0  0  0  0  0  0
   -5.0732    5.6063   -1.3913 C   0  0  0  0  0  0  0  0  0  0  0  0
   -5.7768    6.2814   -0.3900 C   0  0  0  0  0  0  0  0  0  0  0  0
   -4.2985    3.3956   -2.2143 C   0  0  0  0  0  0  0  0  0  0  0  0
   -3.4071    3.6947   -3.2683 C   0  0  0  0  0  0  0  0  0  0  0  0
   -3.6161    4.7669   -4.2645 C   0  0  0  0  0  0  0  0  0  0  0  0
   -4.8641    4.8959   -4.8964 C   0  0  0  0  0  0  0  0  0  0  0  0
   -5.0692    5.8909   -5.8557 C   0  0  0  0  0  0  0  0  0  0  0  0
   -4.0398    6.7750   -6.1815 C   0  0  0  0  0  0  0  0  0  0  0  0
   -2.7943    6.6772   -5.5431 C   0  0  0  0  0  0  0  0  0  0  0  0
   -1.6776    7.6182   -5.9117 C   0  0  0  0  0  0  0  0  0  0  0  0
   -0.8493    7.0500   -7.0578 C   0  0  0  0  0  0  0  0  0  0  0  0
   -2.5838    5.6651   -4.5911 C   0  0  0  0  0  0  0  0  0  0  0  0
   -2.2793    2.8568   -3.2142 C   0  0  0  0  0  0  0  0  0  0  0  0
   -0.7652    2.8768   -3.9959 S   0  0  0  0  0  0  0  0  0  0  0  0
   -0.1517    1.6869   -2.9491 C   0  0  0  0  0  0  0  0  0  0  0  0
    1.0903    1.4179   -2.4431 C   0  0  0  0  0  0  0  0  0  0  0  0
    2.3522    1.8678   -2.8484 C   0  0  0  0  0  0  0  0  0  0  0  0
    3.4683    1.6460   -1.9893 C   0  0  0  0  0  0  0  0  0  0  0  0
    4.6784    2.0691   -2.4336 N   0  0  0  0  0  0  0  0  0  0  0  0
    4.2303    2.7166   -3.8907 S   0  0  0  0  0  0  0  0  0  0  0  0
    2.5924    2.5016   -4.0223 N   0  0  0  0  0  0  0  0  0  0  0  0
    3.2609    1.0033   -0.7618 C   0  0  0  0  0  0  0  0  0  0  0  0
    4.1644    0.4601    0.1089 C   0  0  0  0  0  0  0  0  0  0  0  0
    5.7999    0.0358   -0.0458 S   0  0  0  0  0  0  0  0  0  0  0  0
    5.6149   -1.3048    0.9833 C   0  0  0  0  0  0  0  0  0  0  0  0
    6.4023   -2.4491    1.2033 C   0  0  0  0  0  0  0  0  0  0  0  0
    7.8250   -2.5996    0.8122 C   0  0  0  0  0  0  0  0  0  0  0  0
    8.7261   -3.2138    1.6998 C   0  0  0  0  0  0  0  0  0  0  0  0
   10.0806   -3.3207    1.3740 C   0  0  0  0  0  0  0  0  0  0  0  0
   10.5521   -2.8148    0.1614 C   0  0  0  0  0  0  0  0  0  0  0  0
    9.6646   -2.2210   -0.7484 C   0  0  0  0  0  0  0  0  0  0  0  0
   10.1781   -1.6389   -2.0364 C   0  0  0  0  0  0  0  0  0  0  0  0
   10.6122   -0.1904   -1.8387 C   0  0  0  0  0  0  0  0  0  0  0  0
    8.3030   -2.1205   -0.4193 C   0  0  0  0  0  0  0  0  0  0  0  0
    5.6463   -3.4662    1.8235 C   0  0  0  0  0  0  0  0  0  0  0  0
    4.0541   -2.9243    2.0532 S   0  0  0  0  0  0  0  0  0  0  0  0
    4.3104   -1.4056    1.4075 C   0  0  0  0  0  0  0  0  0  0  0  0
    3.4762   -0.4067    0.9045 C   0  0  0  0  0  0  0  0  0  0  0  0
    2.1407   -0.4076    0.6357 N   0  0  0  0  0  0  0  0  0  0  0  0
    2.0042    0.5092   -0.3779 C   0  0  0  0  0  0  0  0  0  0  0  0
    0.8770    0.7977   -1.2012 C   0  0  0  0  0  0  0  0  0  0  0  0
   -0.4608    0.7892   -0.8938 N   0  0  0  0  0  0  0  0  0  0  0  0
   -1.0542    1.3115   -2.0004 C   0  0  0  0  0  0  0  0  0  0  0  0
   -2.2673    1.9671   -2.1692 C   0  0  0  0  0  0  0  0  0  0  0  0
   -3.6441    2.1557   -1.2549 S   0  0  0  0  0  0  0  0  0  0  0  0
   -1.0466    0.8316    0.4539 C   0  0  0  0  0  0  0  0  0  0  0  0
   -2.0724   -0.2904    0.6632 C   0  0  0  0  0  0  0  0  0  0  0  0
    1.2345   -1.5125    0.9718 C   0  0  0  0  0  0  0  0  0  0  0  0
    0.8971   -1.5286    2.4647 C   0  0  0  0  0  0  0  0  0  0  0  0
    5.9187   -4.9034    1.7185 C   0  0  0  0  0  0  0  0  0  0  0  0
    5.4062   -5.8524    2.5985 C   0  0  0  0  0  0  0  0  0  0  0  0
    5.2350   -7.1251    2.0259 C   0  0  0  0  0  0  0  0  0  0  0  0
    4.6067   -8.2436    2.7632 C   0  0  0  0  0  0  0  0  0  0  0  0
    4.4392   -9.3620    2.2036 O   0  0  0  0  0  0  0  0  0  0  0  0
    4.2175   -8.0589    4.0941 O   0  0  0  0  0  0  0  0  0  0  0  0
    3.5884   -9.0810    4.8582 C   0  0  0  0  0  0  0  0  0  0  0  0
    5.6126   -7.1689    0.6771 C   0  0  0  0  0  0  0  0  0  0  0  0
    6.1520   -5.6456    0.2278 S   0  0  0  0  0  0  0  0  0  0  0  0
    5.1882   -8.1758   -0.3067 C   0  0  0  0  0  0  0  0  0  0  0  0
    3.9468   -8.1842   -0.8459 C   0  0  0  0  0  0  0  0  0  0  0  0
    2.9282   -7.1452   -0.6105 C   0  0  0  0  0  0  0  0  0  0  0  0
    3.0123   -6.1751    0.1887 O   0  0  0  0  0  0  0  0  0  0  0  0
    1.7928   -7.3958   -1.4594 C   0  0  0  0  0  0  0  0  0  0  0  0
    0.6203   -6.6104   -1.5446 C   0  0  0  0  0  0  0  0  0  0  0  0
   -0.3255   -7.1101   -2.4146 C   0  0  0  0  0  0  0  0  0  0  0  0
   -0.1392   -8.3151   -3.1625 C   0  0  0  0  0  0  0  0  0  0  0  0
    1.0144   -9.0800   -3.0932 C   0  0  0  0  0  0  0  0  0  0  0  0
    2.0136   -8.5809   -2.2060 C   0  0  0  0  0  0  0  0  0  0  0  0
    3.3595   -9.1402   -1.8505 C   0  0  0  0  0  0  0  0  0  0  0  0
    3.8998  -10.3075   -2.3001 C   0  0  0  0  0  0  0  0  0  0  0  0
    5.1276  -10.8567   -1.7891 C   0  0  0  0  0  0  0  0  0  0  0  0
    6.1153  -11.3173   -1.3923 N   0  0  0  0  0  0  0  0  0  0  0  0
    3.2777  -11.1282   -3.3024 C   0  0  0  0  0  0  0  0  0  0  0  0
    2.7977  -11.8060   -4.1083 N   0  0  0  0  0  0  0  0  0  0  0  0
   -1.5099   -8.1745   -3.7609 C   0  0  0  0  0  0  0  0  0  0  0  0
   -2.6428   -9.0997   -3.2228 C   0  0  0  0  0  0  0  0  0  0  0  0
   -2.3927   -9.4401   -1.7717 C   0  0  0  0  0  0  0  0  0  0  0  0
   -2.5631   -8.3107   -1.0829 C   0  0  0  0  0  0  0  0  0  0  0  0
   -2.9183   -7.2401   -2.0895 C   0  0  0  0  0  0  0  0  0  0  0  0
   -3.7499   -8.0780   -3.0422 C   0  0  0  0  0  0  0  0  0  0  0  0
   -1.6942   -6.9342   -3.0015 C   0  0  0  0  0  0  0  0  0  0  0  0
   -7.7991    6.9898    1.6788 H   0  0  0  0  0  0  0  0  0  0  0  0
   -3.2648    3.3083    4.0725 H   0  0  0  0  0  0  0  0  0  0  0  0
   -5.9565    6.4819    7.0263 H   0  0  0  0  0  0  0  0  0  0  0  0
   -3.9003    4.3364    8.8687 H   0  0  0  0  0  0  0  0  0  0  0  0
   -2.6491    6.5578    9.2680 H   0  0  0  0  0  0  0  0  0  0  0  0
   -2.1475    7.7828    6.9707 H   0  0  0  0  0  0  0  0  0  0  0  0
   -0.7737    6.1659    5.4626 H   0  0  0  0  0  0  0  0  0  0  0  0
   -0.3943    3.9021    6.7958 H   0  0  0  0  0  0  0  0  0  0  0  0
   -0.2064    5.6911    8.7358 H   0  0  0  0  0  0  0  0  0  0  0  0
   -1.2221    4.2900    9.3073 H   0  0  0  0  0  0  0  0  0  0  0  0
   -2.6509    2.8662    7.5100 H   0  0  0  0  0  0  0  0  0  0  0  0
   -7.9259    3.7952    0.5177 H   0  0  0  0  0  0  0  0  0  0  0  0
   -6.6984    2.6122   -1.2420 H   0  0  0  0  0  0  0  0  0  0  0  0
   -4.2099    6.0842   -1.8331 H   0  0  0  0  0  0  0  0  0  0  0  0
   -5.4586    7.2742   -0.0959 H   0  0  0  0  0  0  0  0  0  0  0  0
   -5.6718    4.2134   -4.6602 H   0  0  0  0  0  0  0  0  0  0  0  0
   -6.0281    5.9744   -6.3503 H   0  0  0  0  0  0  0  0  0  0  0  0
   -4.2127    7.5385   -6.9309 H   0  0  0  0  0  0  0  0  0  0  0  0
   -1.0180    7.7919   -5.0339 H   0  0  0  0  0  0  0  0  0  0  0  0
   -2.0933    8.6048   -6.2110 H   0  0  0  0  0  0  0  0  0  0  0  0
   -1.4984    6.8205   -7.9276 H   0  0  0  0  0  0  0  0  0  0  0  0
   -0.3302    6.1232   -6.7336 H   0  0  0  0  0  0  0  0  0  0  0  0
   -0.0866    7.7948   -7.3749 H   0  0  0  0  0  0  0  0  0  0  0  0
   -1.6274    5.5945   -4.0911 H   0  0  0  0  0  0  0  0  0  0  0  0
    8.3844   -3.5908    2.6575 H   0  0  0  0  0  0  0  0  0  0  0  0
   10.7665   -3.7854    2.0705 H   0  0  0  0  0  0  0  0  0  0  0  0
   11.6078   -2.8895   -0.0688 H   0  0  0  0  0  0  0  0  0  0  0  0
    9.3874   -1.6796   -2.8162 H   0  0  0  0  0  0  0  0  0  0  0  0
   11.0389   -2.2348   -2.4078 H   0  0  0  0  0  0  0  0  0  0  0  0
   10.9735    0.2225   -2.8011 H   0  0  0  0  0  0  0  0  0  0  0  0
   11.4334   -0.1320   -1.0911 H   0  0  0  0  0  0  0  0  0  0  0  0
    9.7551    0.4241   -1.4902 H   0  0  0  0  0  0  0  0  0  0  0  0
    7.6205   -1.6832   -1.1360 H   0  0  0  0  0  0  0  0  0  0  0  0
   -1.5274    1.8170    0.6239 H   0  0  0  0  0  0  0  0  0  0  0  0
   -0.2529    0.7803    1.2145 H   0  0  0  0  0  0  0  0  0  0  0  0
   -3.0968    0.0569    0.4312 H   0  0  0  0  0  0  0  0  0  0  0  0
   -2.0601   -0.6135    1.7253 H   0  0  0  0  0  0  0  0  0  0  0  0
   -1.8597   -1.1657    0.0144 H   0  0  0  0  0  0  0  0  0  0  0  0
    1.6983   -2.4794    0.6834 H   0  0  0  0  0  0  0  0  0  0  0  0
    0.3160   -1.4617    0.3699 H   0  0  0  0  0  0  0  0  0  0  0  0
    0.2297   -2.3881    2.6838 H   0  0  0  0  0  0  0  0  0  0  0  0
    0.3853   -0.5996    2.7797 H   0  0  0  0  0  0  0  0  0  0  0  0
    1.8126   -1.6265    3.0796 H   0  0  0  0  0  0  0  0  0  0  0  0
    5.0562   -5.5986    3.5919 H   0  0  0  0  0  0  0  0  0  0  0  0
    2.6061   -9.3414    4.4105 H   0  0  0  0  0  0  0  0  0  0  0  0
    3.4257   -8.7168    5.8937 H   0  0  0  0  0  0  0  0  0  0  0  0
    4.2325   -9.9844    4.8946 H   0  0  0  0  0  0  0  0  0  0  0  0
    5.9442   -8.8771   -0.5973 H   0  0  0  0  0  0  0  0  0  0  0  0
    0.4642   -5.7077   -0.9682 H   0  0  0  0  0  0  0  0  0  0  0  0
    1.0911   -9.9740   -3.6830 H   0  0  0  0  0  0  0  0  0  0  0  0
   -1.5075   -8.0263   -4.8651 H   0  0  0  0  0  0  0  0  0  0  0  0
   -2.8956   -9.9660   -3.8693 H   0  0  0  0  0  0  0  0  0  0  0  0
   -2.2109  -10.4217   -1.3492 H   0  0  0  0  0  0  0  0  0  0  0  0
   -2.5396   -8.2168   -0.0023 H   0  0  0  0  0  0  0  0  0  0  0  0
   -3.4285   -6.3480   -1.6667 H   0  0  0  0  0  0  0  0  0  0  0  0
   -4.0252   -7.5430   -3.9815 H   0  0  0  0  0  0  0  0  0  0  0  0
   -4.6712   -8.4998   -2.5744 H   0  0  0  0  0  0  0  0  0  0  0  0
   -1.7997   -6.0325   -3.6422 H   0  0  0  0  0  0  0  0  0  0  0  0
  1  2  2  3
  2  3  1  0
  3  4  2  0
  3  5  1  0
  5  6  2  0
  6  7  1  0
  7  8  2  0
  8  9  1  0
  9 10  2  0
 10 11  1  0
 11 12  2  3
 12 13  1  0
 13 14  3  0
 12 15  1  0
 15 16  3  0
  8 17  1  0
 17 18  1  0
 18 19  1  0
 19 20  2  0
 20 21  1  0
 21 22  1  0
 21 23  1  0
  1 24  1  0
 24 25  2  0
 25 26  1  0
 26 27  2  0
 27 28  1  0
 28 29  2  0
 27 30  1  0
 30 31  2  0
 31 32  1  0
 32 33  2  0
 33 34  1  0
 34 35  2  0
 35 36  1  0
 36 37  1  0
 37 38  1  0
 36 39  2  0
 31 40  1  0
 40 41  1  0
 41 42  1  0
 42 43  1  0
 43 44  1  0
 44 45  1  0
 45 46  2  0
 46 47  1  0
 47 48  1  0
 45 49  1  0
 49 50  1  0
 50 51  1  0
 51 52  1  0
 52 53  1  0
 53 54  1  0
 54 55  2  0
 55 56  1  0
 56 57  2  0
 57 58  1  0
 58 59  1  0
 59 60  1  0
 58 61  2  0
 53 62  2  0
 62 63  1  0
 63 64  1  0
 64 65  1  0
 65 66  1  0
 66 67  1  0
 67 68  1  0
 68 69  1  0
 69 70  1  0
 70 71  1  0
 71 72  1  0
 69 73  1  0
 73 74  1  0
 66 75  1  0
 75 76  1  0
 62 77  1  0
 77 78  2  0
 78 79  1  0
 79 80  1  0
 80 81  2  0
 80 82  1  0
 82 83  1  0
 79 84  2  0
 84 85  1  0
 84 86  1  0
 86 87  2  3
 87 88  1  0
 88 89  2  0
 88 90  1  0
 90 91  2  0
 91 92  1  0
 92 93  2  0
 93 94  1  0
 94 95  2  0
 95 96  1  0
 96 97  2  3
 97 98  1  0
 98 99  3  0
 97100  1  0
100101  3  0
 93102  1  0
102103  1  0
103104  1  0
104105  2  0
105106  1  0
106107  1  0
106108  1  0
 11  2  1  0
 23 17  1  0
 29 24  1  0
 72 30  1  0
 85 77  1  0
 96 87  1  0
108102  1  0
 10  5  1  0
 22 18  1  0
 39 32  1  0
 71 40  2  0
 95 90  1  0
107103  1  0
 23  7  1  0
 70 42  2  0
108 92  1  0
 68 43  2  0
 48 44  2  0
 67 49  2  0
 65 50  2  0
 64 52  2  0
 61 54  1  0
  1109  1  0
  6110  1  0
  9111  1  0
 17112  1  0
 18113  1  0
 19114  1  0
 20115  1  0
 21116  1  0
 22117  1  0
 22118  1  0
 23119  1  0
 25120  1  0
 26121  1  0
 28122  1  0
 29123  1  0
 33124  1  0
 34125  1  0
 35126  1  0
 37127  1  0
 37128  1  0
 38129  1  0
 38130  1  0
 38131  1  0
 39132  1  0
 55133  1  0
 56134  1  0
 57135  1  0
 59136  1  0
 59137  1  0
 60138  1  0
 60139  1  0
 60140  1  0
 61141  1  0
 73142  1  0
 73143  1  0
 74144  1  0
 74145  1  0
 74146  1  0
 75147  1  0
 75148  1  0
 76149  1  0
 76150  1  0
 76151  1  0
 78152  1  0
 83153  1  0
 83154  1  0
 83155  1  0
 86156  1  0
 91157  1  0
 94158  1  0
102159  1  0
103160  1  0
104161  1  0
105162  1  0
106163  1  0
107164  1  0
107165  1  0
108166  1  0
M  END

