
     RDKit          3D

265293  0  0  0  0  0  0  0  0999 V2000
    7.2766   -1.3398   -8.0307 C   0  0  0  0  0  0  0  0  0  0  0  0
    6.8506   -2.6187   -8.0741 C   0  0  0  0  0  0  0  0  0  0  0  0
    7.7724   -3.7399   -8.2661 C   0  0  0  0  0  0  0  0  0  0  0  0
    8.9001   -3.6761   -8.8200 O   0  0  0  0  0  0  0  0  0  0  0  0
    7.2389   -4.8975   -7.5654 C   0  0  0  0  0  0  0  0  0  0  0  0
    7.9062   -6.1106   -7.2825 C   0  0  0  0  0  0  0  0  0  0  0  0
    7.2141   -6.9409   -6.4207 C   0  0  0  0  0  0  0  0  0  0  0  0
    5.9463   -6.5977   -5.8518 C   0  0  0  0  0  0  0  0  0  0  0  0
    5.2938   -5.4061   -6.1143 C   0  0  0  0  0  0  0  0  0  0  0  0
    5.9732   -4.5599   -7.0276 C   0  0  0  0  0  0  0  0  0  0  0  0
    5.6184   -3.1889   -7.4560 C   0  0  0  0  0  0  0  0  0  0  0  0
    4.3640   -2.7101   -7.6316 C   0  0  0  0  0  0  0  0  0  0  0  0
    3.2006   -3.4985   -7.3161 C   0  0  0  0  0  0  0  0  0  0  0  0
    2.2623   -4.1314   -7.0817 N   0  0  0  0  0  0  0  0  0  0  0  0
    4.1223   -1.4891   -8.3522 C   0  0  0  0  0  0  0  0  0  0  0  0
    3.9218   -0.5195   -8.9533 N   0  0  0  0  0  0  0  0  0  0  0  0
    5.9292   -7.8791   -5.0756 C   0  0  0  0  0  0  0  0  0  0  0  0
    6.2218   -7.8064   -3.5446 C   0  0  0  0  0  0  0  0  0  0  0  0
    7.1659   -6.6615   -3.2490 C   0  0  0  0  0  0  0  0  0  0  0  0
    8.3430   -6.9934   -3.7775 C   0  0  0  0  0  0  0  0  0  0  0  0
    8.1615   -8.3505   -4.4174 C   0  0  0  0  0  0  0  0  0  0  0  0
    7.1958   -8.9612   -3.4185 C   0  0  0  0  0  0  0  0  0  0  0  0
    7.2283   -8.2362   -5.6600 C   0  0  0  0  0  0  0  0  0  0  0  0
    6.8002   -0.3753   -7.0146 C   0  0  0  0  0  0  0  0  0  0  0  0
    6.9130    1.0321   -7.0506 C   0  0  0  0  0  0  0  0  0  0  0  0
    7.2251    1.8013   -8.2239 N   0  0  0  0  0  0  0  0  0  0  0  0
    8.5362    1.6699   -8.7939 C   0  0  0  0  0  0  0  0  0  0  0  0
    8.6897    1.2891  -10.1342 C   0  0  0  0  0  0  0  0  0  0  0  0
    9.9694    1.1900  -10.6959 C   0  0  0  0  0  0  0  0  0  0  0  0
   11.1038    1.4682   -9.9172 C   0  0  0  0  0  0  0  0  0  0  0  0
   12.4735    1.4123  -10.5280 C   0  0  0  0  0  0  0  0  0  0  0  0
   10.9464    1.8794   -8.5881 C   0  0  0  0  0  0  0  0  0  0  0  0
    9.6712    1.9671   -8.0246 C   0  0  0  0  0  0  0  0  0  0  0  0
    6.2855    2.7877   -8.7245 C   0  0  0  0  0  0  0  0  0  0  0  0
    4.9062    2.6707   -8.4518 C   0  0  0  0  0  0  0  0  0  0  0  0
    4.0020    3.6316   -8.9030 C   0  0  0  0  0  0  0  0  0  0  0  0
    4.4447    4.7225   -9.6589 C   0  0  0  0  0  0  0  0  0  0  0  0
    3.4627    5.7651  -10.1119 C   0  0  0  0  0  0  0  0  0  0  0  0
    5.8152    4.8602   -9.9273 C   0  0  0  0  0  0  0  0  0  0  0  0
    6.7249    3.9003   -9.4713 C   0  0  0  0  0  0  0  0  0  0  0  0
    6.4948    1.6008   -5.8433 C   0  0  0  0  0  0  0  0  0  0  0  0
    6.3202    3.1703   -5.2562 S   0  0  0  0  0  0  0  0  0  0  0  0
    5.6377    2.6571   -3.7755 C   0  0  0  0  0  0  0  0  0  0  0  0
    5.5429    1.2606   -3.7578 C   0  0  0  0  0  0  0  0  0  0  0  0
    4.8700    0.4857   -2.7531 N   0  0  0  0  0  0  0  0  0  0  0  0
    5.6645   -0.3599   -1.9081 C   0  0  0  0  0  0  0  0  0  0  0  0
    6.4629    0.1960   -0.9000 C   0  0  0  0  0  0  0  0  0  0  0  0
    7.2350   -0.6284   -0.0789 C   0  0  0  0  0  0  0  0  0  0  0  0
    7.2114   -2.0210   -0.2524 C   0  0  0  0  0  0  0  0  0  0  0  0
    8.0324   -2.9209    0.6233 C   0  0  0  0  0  0  0  0  0  0  0  0
    6.3955   -2.5766   -1.2496 C   0  0  0  0  0  0  0  0  0  0  0  0
    5.6210   -1.7509   -2.0690 C   0  0  0  0  0  0  0  0  0  0  0  0
    3.4244    0.4089   -2.7227 C   0  0  0  0  0  0  0  0  0  0  0  0
    2.7575    0.0391   -1.5396 C   0  0  0  0  0  0  0  0  0  0  0  0
    1.3627    0.0380   -1.4784 C   0  0  0  0  0  0  0  0  0  0  0  0
    0.6021    0.4290   -2.5887 C   0  0  0  0  0  0  0  0  0  0  0  0
   -0.8958    0.4150   -2.5176 C   0  0  0  0  0  0  0  0  0  0  0  0
    1.2547    0.7666   -3.7815 C   0  0  0  0  0  0  0  0  0  0  0  0
    2.6518    0.7557   -3.8514 C   0  0  0  0  0  0  0  0  0  0  0  0
    6.0624    0.7112   -4.9158 C   0  0  0  0  0  0  0  0  0  0  0  0
    6.1989   -0.8482   -5.4877 S   0  0  0  0  0  0  0  0  0  0  0  0
    5.2437    3.5160   -2.6598 C   0  0  0  0  0  0  0  0  0  0  0  0
    6.0925    3.9558   -1.6084 C   0  0  0  0  0  0  0  0  0  0  0  0
    7.5810    3.9906   -1.6435 C   0  0  0  0  0  0  0  0  0  0  0  0
    8.3374    2.9519   -2.2148 C   0  0  0  0  0  0  0  0  0  0  0  0
    9.7296    3.0336   -2.2740 C   0  0  0  0  0  0  0  0  0  0  0  0
   10.3873    4.1457   -1.7540 C   0  0  0  0  0  0  0  0  0  0  0  0
    9.6577    5.1806   -1.1569 C   0  0  0  0  0  0  0  0  0  0  0  0
   10.3733    6.4008   -0.6387 C   0  0  0  0  0  0  0  0  0  0  0  0
   10.5607    7.4253   -1.7524 C   0  0  0  0  0  0  0  0  0  0  0  0
    8.2577    5.1028   -1.1148 C   0  0  0  0  0  0  0  0  0  0  0  0
    5.3285    4.3036   -0.4802 C   0  0  0  0  0  0  0  0  0  0  0  0
    5.7156    4.4777    1.1832 S   0  0  0  0  0  0  0  0  0  0  0  0
    4.0770    4.3246    1.6174 C   0  0  0  0  0  0  0  0  0  0  0  0
    3.2934    4.1072    2.7224 C   0  0  0  0  0  0  0  0  0  0  0  0
    3.5118    4.2589    4.0976 C   0  0  0  0  0  0  0  0  0  0  0  0
    2.4262    4.0135    4.9971 C   0  0  0  0  0  0  0  0  0  0  0  0
    2.6751    4.1813    6.3161 N   0  0  0  0  0  0  0  0  0  0  0  0
    4.2618    4.6607    6.2448 S   0  0  0  0  0  0  0  0  0  0  0  0
    4.6849    4.6684    4.6415 N   0  0  0  0  0  0  0  0  0  0  0  0
    1.2110    3.5469    4.4755 C   0  0  0  0  0  0  0  0  0  0  0  0
    0.0704    3.0696    5.0702 C   0  0  0  0  0  0  0  0  0  0  0  0
   -0.6943    2.9514    6.5858 S   0  0  0  0  0  0  0  0  0  0  0  0
   -2.0131    2.0887    5.8979 C   0  0  0  0  0  0  0  0  0  0  0  0
   -3.2872    1.6902    6.3471 C   0  0  0  0  0  0  0  0  0  0  0  0
   -3.7996    1.9473    7.7115 C   0  0  0  0  0  0  0  0  0  0  0  0
   -4.4645    0.9343    8.4209 C   0  0  0  0  0  0  0  0  0  0  0  0
   -4.9055    1.1601    9.7278 C   0  0  0  0  0  0  0  0  0  0  0  0
   -4.6956    2.3993   10.3334 C   0  0  0  0  0  0  0  0  0  0  0  0
   -4.0409    3.4283    9.6394 C   0  0  0  0  0  0  0  0  0  0  0  0
   -3.8069    4.7645   10.2991 C   0  0  0  0  0  0  0  0  0  0  0  0
   -5.1148    5.5269   10.5074 C   0  0  0  0  0  0  0  0  0  0  0  0
   -3.5868    3.1876    8.3337 C   0  0  0  0  0  0  0  0  0  0  0  0
   -4.0327    1.1297    5.2829 C   0  0  0  0  0  0  0  0  0  0  0  0
   -3.0917    1.1187    3.8596 S   0  0  0  0  0  0  0  0  0  0  0  0
   -1.7891    1.8597    4.5699 C   0  0  0  0  0  0  0  0  0  0  0  0
   -0.6460    2.4652    4.0967 C   0  0  0  0  0  0  0  0  0  0  0  0
   -0.0698    2.5272    2.8754 N   0  0  0  0  0  0  0  0  0  0  0  0
    1.0454    3.2864    3.1074 C   0  0  0  0  0  0  0  0  0  0  0  0
    2.0503    3.7022    2.2111 C   0  0  0  0  0  0  0  0  0  0  0  0
    2.0112    3.8008    0.8481 N   0  0  0  0  0  0  0  0  0  0  0  0
    3.2798    4.1444    0.5365 C   0  0  0  0  0  0  0  0  0  0  0  0
    3.9735    4.1579   -0.6509 C   0  0  0  0  0  0  0  0  0  0  0  0
    3.6162    3.5855   -2.1687 S   0  0  0  0  0  0  0  0  0  0  0  0
    0.8419    4.0502   -0.0100 C   0  0  0  0  0  0  0  0  0  0  0  0
    0.7742    5.5145   -0.4462 C   0  0  0  0  0  0  0  0  0  0  0  0
   -0.2688    1.5059    1.8326 C   0  0  0  0  0  0  0  0  0  0  0  0
    0.1968    0.1330    2.3193 C   0  0  0  0  0  0  0  0  0  0  0  0
   -5.4983    1.0262    5.1844 C   0  0  0  0  0  0  0  0  0  0  0  0
   -6.2142    1.6429    4.1350 C   0  0  0  0  0  0  0  0  0  0  0  0
   -5.7572    2.8240    3.4404 N   0  0  0  0  0  0  0  0  0  0  0  0
   -5.8079    2.9221    2.0019 C   0  0  0  0  0  0  0  0  0  0  0  0
   -6.1087    4.1521    1.3904 C   0  0  0  0  0  0  0  0  0  0  0  0
   -6.0816    4.2776    0.0011 C   0  0  0  0  0  0  0  0  0  0  0  0
   -5.7665    3.1757   -0.8048 C   0  0  0  0  0  0  0  0  0  0  0  0
   -5.6724    3.3388   -2.2911 C   0  0  0  0  0  0  0  0  0  0  0  0
   -5.4576    1.9460   -0.2005 C   0  0  0  0  0  0  0  0  0  0  0  0
   -5.4820    1.8202    1.1918 C   0  0  0  0  0  0  0  0  0  0  0  0
   -5.1441    3.8850    4.2061 C   0  0  0  0  0  0  0  0  0  0  0  0
   -3.9132    4.4321    3.8030 C   0  0  0  0  0  0  0  0  0  0  0  0
   -3.2619    5.3777    4.6000 C   0  0  0  0  0  0  0  0  0  0  0  0
   -3.8474    5.8148    5.7955 C   0  0  0  0  0  0  0  0  0  0  0  0
   -3.1077    6.7685    6.6867 C   0  0  0  0  0  0  0  0  0  0  0  0
   -5.0874    5.2887    6.1901 C   0  0  0  0  0  0  0  0  0  0  0  0
   -5.7298    4.3295    5.4024 C   0  0  0  0  0  0  0  0  0  0  0  0
   -7.4011    0.9713    3.8608 C   0  0  0  0  0  0  0  0  0  0  0  0
   -8.4978    0.9886    2.5794 S   0  0  0  0  0  0  0  0  0  0  0  0
   -9.3475   -0.3790    3.1315 C   0  0  0  0  0  0  0  0  0  0  0  0
   -8.7750   -0.8416    4.3235 C   0  0  0  0  0  0  0  0  0  0  0  0
   -9.4128   -1.7874    5.1898 N   0  0  0  0  0  0  0  0  0  0  0  0
   -9.1659   -3.2031    5.0936 C   0  0  0  0  0  0  0  0  0  0  0  0
  -10.2188   -4.1149    5.2871 C   0  0  0  0  0  0  0  0  0  0  0  0
   -9.9824   -5.4881    5.2521 C   0  0  0  0  0  0  0  0  0  0  0  0
   -8.6871   -5.9774    5.0458 C   0  0  0  0  0  0  0  0  0  0  0  0
   -8.4493   -7.4566    5.0092 C   0  0  0  0  0  0  0  0  0  0  0  0
   -7.6358   -5.0754    4.8237 C   0  0  0  0  0  0  0  0  0  0  0  0
   -7.8731   -3.6965    4.8499 C   0  0  0  0  0  0  0  0  0  0  0  0
  -10.3786   -1.2826    6.1207 C   0  0  0  0  0  0  0  0  0  0  0  0
  -10.0287   -1.1059    7.4649 C   0  0  0  0  0  0  0  0  0  0  0  0
  -10.9666   -0.6166    8.3782 C   0  0  0  0  0  0  0  0  0  0  0  0
  -12.2720   -0.3143    7.9564 C   0  0  0  0  0  0  0  0  0  0  0  0
  -13.2741    0.2202    8.9366 C   0  0  0  0  0  0  0  0  0  0  0  0
  -12.6150   -0.4750    6.6055 C   0  0  0  0  0  0  0  0  0  0  0  0
  -11.6737   -0.9553    5.6931 C   0  0  0  0  0  0  0  0  0  0  0  0
   -7.6779   -0.0696    4.6875 C   0  0  0  0  0  0  0  0  0  0  0  0
   -6.4089   -0.2941    5.7652 S   0  0  0  0  0  0  0  0  0  0  0  0
  -10.2861   -1.1541    2.3134 C   0  0  0  0  0  0  0  0  0  0  0  0
   -9.9038   -2.2832    1.6833 C   0  0  0  0  0  0  0  0  0  0  0  0
   -8.5447   -2.8398    1.6919 C   0  0  0  0  0  0  0  0  0  0  0  0
   -7.4802   -2.2105    1.9214 O   0  0  0  0  0  0  0  0  0  0  0  0
   -8.6315   -4.2482    1.3777 C   0  0  0  0  0  0  0  0  0  0  0  0
   -7.6249   -5.2104    1.4592 C   0  0  0  0  0  0  0  0  0  0  0  0
   -7.9614   -6.5607    1.2660 C   0  0  0  0  0  0  0  0  0  0  0  0
   -6.8961   -7.6134    1.3583 C   0  0  0  0  0  0  0  0  0  0  0  0
   -9.3051   -6.9111    1.0145 C   0  0  0  0  0  0  0  0  0  0  0  0
  -10.3038   -5.9253    0.9564 C   0  0  0  0  0  0  0  0  0  0  0  0
   -9.9460   -4.5787    1.1066 C   0  0  0  0  0  0  0  0  0  0  0  0
  -10.7871   -3.3477    1.1314 C   0  0  0  0  0  0  0  0  0  0  0  0
  -12.0005   -3.1778    0.5538 C   0  0  0  0  0  0  0  0  0  0  0  0
  -12.5974   -1.8744    0.4013 C   0  0  0  0  0  0  0  0  0  0  0  0
  -13.0707   -0.8250    0.2681 N   0  0  0  0  0  0  0  0  0  0  0  0
  -12.6916   -4.2526   -0.1100 C   0  0  0  0  0  0  0  0  0  0  0  0
  -13.2544   -5.1069   -0.6472 N   0  0  0  0  0  0  0  0  0  0  0  0
    8.1968   -1.0792   -8.5394 H   0  0  0  0  0  0  0  0  0  0  0  0
    8.8872   -6.3462   -7.6669 H   0  0  0  0  0  0  0  0  0  0  0  0
    4.3778   -5.1422   -5.6108 H   0  0  0  0  0  0  0  0  0  0  0  0
    5.1070   -8.5699   -5.3631 H   0  0  0  0  0  0  0  0  0  0  0  0
    5.3278   -7.8601   -2.8899 H   0  0  0  0  0  0  0  0  0  0  0  0
    6.9684   -5.7881   -2.6399 H   0  0  0  0  0  0  0  0  0  0  0  0
    9.2672   -6.4367   -3.6646 H   0  0  0  0  0  0  0  0  0  0  0  0
    9.1028   -8.9181   -4.5840 H   0  0  0  0  0  0  0  0  0  0  0  0
    6.7772   -9.9428   -3.7502 H   0  0  0  0  0  0  0  0  0  0  0  0
    7.6274   -9.0720   -2.3928 H   0  0  0  0  0  0  0  0  0  0  0  0
    7.1977   -9.1381   -6.3116 H   0  0  0  0  0  0  0  0  0  0  0  0
    7.8210    1.0685  -10.7419 H   0  0  0  0  0  0  0  0  0  0  0  0
   10.0741    0.8991  -11.7350 H   0  0  0  0  0  0  0  0  0  0  0  0
   12.5229    0.6143  -11.2973 H   0  0  0  0  0  0  0  0  0  0  0  0
   13.2362    1.1902   -9.7517 H   0  0  0  0  0  0  0  0  0  0  0  0
   12.7096    2.3904  -10.9964 H   0  0  0  0  0  0  0  0  0  0  0  0
   11.8085    2.1382   -7.9902 H   0  0  0  0  0  0  0  0  0  0  0  0
    9.5573    2.2955   -6.9995 H   0  0  0  0  0  0  0  0  0  0  0  0
    4.5298    1.8369   -7.8751 H   0  0  0  0  0  0  0  0  0  0  0  0
    2.9492    3.5253   -8.6694 H   0  0  0  0  0  0  0  0  0  0  0  0
    3.8566    6.3467  -10.9722 H   0  0  0  0  0  0  0  0  0  0  0  0
    3.2478    6.4616   -9.2727 H   0  0  0  0  0  0  0  0  0  0  0  0
    2.5084    5.2876  -10.4289 H   0  0  0  0  0  0  0  0  0  0  0  0
    6.1793    5.7108  -10.4887 H   0  0  0  0  0  0  0  0  0  0  0  0
    7.7767    4.0420   -9.6856 H   0  0  0  0  0  0  0  0  0  0  0  0
    6.4627    1.2648   -0.7341 H   0  0  0  0  0  0  0  0  0  0  0  0
    7.8415   -0.1797    0.6976 H   0  0  0  0  0  0  0  0  0  0  0  0
    8.6377   -2.3419    1.3543 H   0  0  0  0  0  0  0  0  0  0  0  0
    7.3626   -3.6032    1.1873 H   0  0  0  0  0  0  0  0  0  0  0  0
    8.7198   -3.5237   -0.0075 H   0  0  0  0  0  0  0  0  0  0  0  0
    6.3592   -3.6505   -1.3890 H   0  0  0  0  0  0  0  0  0  0  0  0
    4.9875   -2.1929   -2.8299 H   0  0  0  0  0  0  0  0  0  0  0  0
    3.3140   -0.2301   -0.6507 H   0  0  0  0  0  0  0  0  0  0  0  0
    0.8754   -0.2598   -0.5630 H   0  0  0  0  0  0  0  0  0  0  0  0
   -1.2762   -0.5564   -2.8996 H   0  0  0  0  0  0  0  0  0  0  0  0
   -1.3239    1.2382   -3.1289 H   0  0  0  0  0  0  0  0  0  0  0  0
   -1.2435    0.5511   -1.4702 H   0  0  0  0  0  0  0  0  0  0  0  0
    0.6811    1.0518   -4.6546 H   0  0  0  0  0  0  0  0  0  0  0  0
    3.1247    1.0295   -4.7839 H   0  0  0  0  0  0  0  0  0  0  0  0
    7.8714    2.0631   -2.6037 H   0  0  0  0  0  0  0  0  0  0  0  0
   10.3030    2.2307   -2.7233 H   0  0  0  0  0  0  0  0  0  0  0  0
   11.4654    4.2070   -1.8225 H   0  0  0  0  0  0  0  0  0  0  0  0
    9.7999    6.8626    0.1982 H   0  0  0  0  0  0  0  0  0  0  0  0
   11.3719    6.1186   -0.2323 H   0  0  0  0  0  0  0  0  0  0  0  0
    9.5742    7.7275   -2.1684 H   0  0  0  0  0  0  0  0  0  0  0  0
   11.1833    7.0013   -2.5702 H   0  0  0  0  0  0  0  0  0  0  0  0
   11.0697    8.3272   -1.3515 H   0  0  0  0  0  0  0  0  0  0  0  0
    7.6934    5.9215   -0.6855 H   0  0  0  0  0  0  0  0  0  0  0  0
   -4.6012   -0.0459    7.9827 H   0  0  0  0  0  0  0  0  0  0  0  0
   -5.3978    0.3658   10.2746 H   0  0  0  0  0  0  0  0  0  0  0  0
   -5.0336    2.5588   11.3483 H   0  0  0  0  0  0  0  0  0  0  0  0
   -3.1244    5.3949    9.6900 H   0  0  0  0  0  0  0  0  0  0  0  0
   -3.3205    4.6069   11.2832 H   0  0  0  0  0  0  0  0  0  0  0  0
   -5.5829    5.7802    9.5304 H   0  0  0  0  0  0  0  0  0  0  0  0
   -5.8338    4.9192   11.1025 H   0  0  0  0  0  0  0  0  0  0  0  0
   -4.9180    6.4680   11.0603 H   0  0  0  0  0  0  0  0  0  0  0  0
   -3.0668    3.9667    7.7968 H   0  0  0  0  0  0  0  0  0  0  0  0
    0.8894    3.3946   -0.9064 H   0  0  0  0  0  0  0  0  0  0  0  0
   -0.1007    3.8441    0.5373 H   0  0  0  0  0  0  0  0  0  0  0  0
    0.7284    6.1711    0.4487 H   0  0  0  0  0  0  0  0  0  0  0  0
   -0.1404    5.6784   -1.0540 H   0  0  0  0  0  0  0  0  0  0  0  0
    1.6577    5.7881   -1.0564 H   0  0  0  0  0  0  0  0  0  0  0  0
    0.3113    1.7285    0.9240 H   0  0  0  0  0  0  0  0  0  0  0  0
   -1.3412    1.4621    1.5525 H   0  0  0  0  0  0  0  0  0  0  0  0
   -0.2932   -0.1437    3.2746 H   0  0  0  0  0  0  0  0  0  0  0  0
   -0.0588   -0.6390    1.5648 H   0  0  0  0  0  0  0  0  0  0  0  0
    1.2988    0.1417    2.4707 H   0  0  0  0  0  0  0  0  0  0  0  0
   -6.3544    5.0143    1.9941 H   0  0  0  0  0  0  0  0  0  0  0  0
   -6.2951    5.2403   -0.4486 H   0  0  0  0  0  0  0  0  0  0  0  0
   -4.6547    3.6939   -2.5570 H   0  0  0  0  0  0  0  0  0  0  0  0
   -5.8696    2.3756   -2.8080 H   0  0  0  0  0  0  0  0  0  0  0  0
   -6.4180    4.0804   -2.6470 H   0  0  0  0  0  0  0  0  0  0  0  0
   -5.1890    1.0896   -0.8063 H   0  0  0  0  0  0  0  0  0  0  0  0
   -5.2264    0.8686    1.6408 H   0  0  0  0  0  0  0  0  0  0  0  0
   -3.4366    4.0917    2.8905 H   0  0  0  0  0  0  0  0  0  0  0  0
   -2.2946    5.7547    4.2935 H   0  0  0  0  0  0  0  0  0  0  0  0
   -3.7980    7.2713    7.4000 H   0  0  0  0  0  0  0  0  0  0  0  0
   -2.3383    6.2147    7.2664 H   0  0  0  0  0  0  0  0  0  0  0  0
   -2.6036    7.5529    6.0827 H   0  0  0  0  0  0  0  0  0  0  0  0
   -5.5506    5.6063    7.1145 H   0  0  0  0  0  0  0  0  0  0  0  0
   -6.6813    3.9272    5.7241 H   0  0  0  0  0  0  0  0  0  0  0  0
  -11.2273   -3.7617    5.4592 H   0  0  0  0  0  0  0  0  0  0  0  0
  -10.8122   -6.1686    5.4025 H   0  0  0  0  0  0  0  0  0  0  0  0
   -8.6796   -7.8463    3.9958 H   0  0  0  0  0  0  0  0  0  0  0  0
   -7.3951   -7.6950    5.2635 H   0  0  0  0  0  0  0  0  0  0  0  0
   -9.1055   -7.9699    5.7466 H   0  0  0  0  0  0  0  0  0  0  0  0
   -6.6333   -5.4375    4.6357 H   0  0  0  0  0  0  0  0  0  0  0  0
   -7.0427   -3.0203    4.6967 H   0  0  0  0  0  0  0  0  0  0  0  0
   -9.0257   -1.3411    7.7989 H   0  0  0  0  0  0  0  0  0  0  0  0
  -10.6827   -0.4716    9.4136 H   0  0  0  0  0  0  0  0  0  0  0  0
  -13.1852   -0.3183    9.9037 H   0  0  0  0  0  0  0  0  0  0  0  0
  -14.3141    0.0801    8.5651 H   0  0  0  0  0  0  0  0  0  0  0  0
  -13.0944    1.3029    9.1044 H   0  0  0  0  0  0  0  0  0  0  0  0
  -13.6148   -0.2422    6.2598 H   0  0  0  0  0  0  0  0  0  0  0  0
  -11.9556   -1.0919    4.6583 H   0  0  0  0  0  0  0  0  0  0  0  0
  -11.3221   -0.8627    2.3567 H   0  0  0  0  0  0  0  0  0  0  0  0
   -6.6065   -4.9219    1.7042 H   0  0  0  0  0  0  0  0  0  0  0  0
   -6.3477   -7.5134    2.3206 H   0  0  0  0  0  0  0  0  0  0  0  0
   -6.1820   -7.4926    0.5163 H   0  0  0  0  0  0  0  0  0  0  0  0
   -7.3301   -8.6349    1.3079 H   0  0  0  0  0  0  0  0  0  0  0  0
   -9.5850   -7.9541    0.8936 H   0  0  0  0  0  0  0  0  0  0  0  0
  -11.3308   -6.2277    0.8351 H   0  0  0  0  0  0  0  0  0  0  0  0
  1  2  2  3
  2  3  1  0
  3  4  2  0
  3  5  1  0
  5  6  2  0
  6  7  1  0
  7  8  2  0
  8  9  1  0
  9 10  2  0
 10 11  1  0
 11 12  2  3
 12 13  1  0
 13 14  3  0
 12 15  1  0
 15 16  3  0
  8 17  1  0
 17 18  1  0
 18 19  1  0
 19 20  2  0
 20 21  1  0
 21 22  1  0
 21 23  1  0
  1 24  1  0
 24 25  2  0
 25 26  1  0
 26 27  1  0
 27 28  2  0
 28 29  1  0
 29 30  2  0
 30 31  1  0
 30 32  1  0
 32 33  2  0
 26 34  1  0
 34 35  2  0
 35 36  1  0
 36 37  2  0
 37 38  1  0
 37 39  1  0
 39 40  2  0
 25 41  1  0
 41 42  1  0
 42 43  1  0
 43 44  2  0
 44 45  1  0
 45 46  1  0
 46 47  2  0
 47 48  1  0
 48 49  2  0
 49 50  1  0
 49 51  1  0
 51 52  2  0
 45 53  1  0
 53 54  2  0
 54 55  1  0
 55 56  2  0
 56 57  1  0
 56 58  1  0
 58 59  2  0
 44 60  1  0
 60 61  1  0
 43 62  1  0
 62 63  2  0
 63 64  1  0
 64 65  2  0
 65 66  1  0
 66 67  2  0
 67 68  1  0
 68 69  1  0
 69 70  1  0
 68 71  2  0
 63 72  1  0
 72 73  1  0
 73 74  1  0
 74 75  1  0
 75 76  1  0
 76 77  1  0
 77 78  2  0
 78 79  1  0
 79 80  1  0
 77 81  1  0
 81 82  1  0
 82 83  1  0
 83 84  1  0
 84 85  1  0
 85 86  1  0
 86 87  2  0
 87 88  1  0
 88 89  2  0
 89 90  1  0
 90 91  1  0
 91 92  1  0
 90 93  2  0
 85 94  2  0
 94 95  1  0
 95 96  1  0
 96 97  1  0
 97 98  1  0
 98 99  1  0
 99100  1  0
100101  1  0
101102  1  0
102103  1  0
103104  1  0
101105  1  0
105106  1  0
 98107  1  0
107108  1  0
 94109  1  0
109110  2  0
110111  1  0
111112  1  0
112113  2  0
113114  1  0
114115  2  0
115116  1  0
115117  1  0
117118  2  0
111119  1  0
119120  2  0
120121  1  0
121122  2  0
122123  1  0
122124  1  0
124125  2  0
110126  1  0
126127  1  0
127128  1  0
128129  2  0
129130  1  0
130131  1  0
131132  2  0
132133  1  0
133134  2  0
134135  1  0
134136  1  0
136137  2  0
130138  1  0
138139  2  0
139140  1  0
140141  2  0
141142  1  0
141143  1  0
143144  2  0
129145  1  0
145146  1  0
128147  1  0
147148  2  3
148149  1  0
149150  2  0
149151  1  0
151152  2  0
152153  1  0
153154  1  0
153155  2  0
155156  1  0
156157  2  0
157158  1  0
158159  2  3
159160  1  0
160161  3  0
159162  1  0
162163  3  0
 11  2  1  0
 23 17  1  0
 61 24  1  0
104 62  1  0
146109  1  0
158148  1  0
 10  5  1  0
 22 18  1  0
 33 27  1  0
 40 34  1  0
 60 41  2  0
 71 64  1  0
103 72  2  0
118112  1  0
125119  1  0
145126  2  0
157151  1  0
 23  7  1  0
 52 46  1  0
 59 53  1  0
102 74  2  0
137131  1  0
144138  1  0
100 75  2  0
 80 76  2  0
 99 81  2  0
 97 82  2  0
 96 84  2  0
 93 86  1  0
  1164  1  0
  6165  1  0
  9166  1  0
 17167  1  0
 18168  1  0
 19169  1  0
 20170  1  0
 21171  1  0
 22172  1  0
 22173  1  0
 23174  1  0
 28175  1  0
 29176  1  0
 31177  1  0
 31178  1  0
 31179  1  0
 32180  1  0
 33181  1  0
 35182  1  0
 36183  1  0
 38184  1  0
 38185  1  0
 38186  1  0
 39187  1  0
 40188  1  0
 47189  1  0
 48190  1  0
 50191  1  0
 50192  1  0
 50193  1  0
 51194  1  0
 52195  1  0
 54196  1  0
 55197  1  0
 57198  1  0
 57199  1  0
 57200  1  0
 58201  1  0
 59202  1  0
 65203  1  0
 66204  1  0
 67205  1  0
 69206  1  0
 69207  1  0
 70208  1  0
 70209  1  0
 70210  1  0
 71211  1  0
 87212  1  0
 88213  1  0
 89214  1  0
 91215  1  0
 91216  1  0
 92217  1  0
 92218  1  0
 92219  1  0
 93220  1  0
105221  1  0
105222  1  0
106223  1  0
106224  1  0
106225  1  0
107226  1  0
107227  1  0
108228  1  0
108229  1  0
108230  1  0
113231  1  0
114232  1  0
116233  1  0
116234  1  0
116235  1  0
117236  1  0
118237  1  0
120238  1  0
121239  1  0
123240  1  0
123241  1  0
123242  1  0
124243  1  0
125244  1  0
132245  1  0
133246  1  0
135247  1  0
135248  1  0
135249  1  0
136250  1  0
137251  1  0
139252  1  0
140253  1  0
142254  1  0
142255  1  0
142256  1  0
143257  1  0
144258  1  0
147259  1  0
152260  1  0
154261  1  0
154262  1  0
154263  1  0
155264  1  0
156265  1  0
M  END

