
     RDKit          3D

213237  0  0  0  0  0  0  0  0999 V2000
    3.0547   -0.6708   -6.3340 C   0  0  0  0  0  0  0  0  0  0  0  0
    3.2889   -1.5897   -7.2970 C   0  0  0  0  0  0  0  0  0  0  0  0
    4.1057   -2.8027   -7.1822 C   0  0  0  0  0  0  0  0  0  0  0  0
    5.1699   -2.9243   -6.5177 O   0  0  0  0  0  0  0  0  0  0  0  0
    3.6034   -3.7896   -8.1127 C   0  0  0  0  0  0  0  0  0  0  0  0
    3.9438   -5.1577   -8.1696 C   0  0  0  0  0  0  0  0  0  0  0  0
    3.2188   -5.8726   -9.1055 C   0  0  0  0  0  0  0  0  0  0  0  0
    2.2105   -5.2805   -9.9351 C   0  0  0  0  0  0  0  0  0  0  0  0
    1.8605   -3.9413   -9.8691 C   0  0  0  0  0  0  0  0  0  0  0  0
    2.6136   -3.1853   -8.9279 C   0  0  0  0  0  0  0  0  0  0  0  0
    2.4921   -1.7494   -8.5524 C   0  0  0  0  0  0  0  0  0  0  0  0
    1.9871   -0.7529   -9.3223 C   0  0  0  0  0  0  0  0  0  0  0  0
    1.3606   -0.9984  -10.5970 C   0  0  0  0  0  0  0  0  0  0  0  0
    0.8544   -1.1767  -11.6260 N   0  0  0  0  0  0  0  0  0  0  0  0
    2.1759    0.6371   -8.9950 C   0  0  0  0  0  0  0  0  0  0  0  0
    2.3238    1.7539   -8.7419 N   0  0  0  0  0  0  0  0  0  0  0  0
    1.9224   -6.6099  -10.5618 C   0  0  0  0  0  0  0  0  0  0  0  0
    0.6058   -7.3133  -10.1201 C   0  0  0  0  0  0  0  0  0  0  0  0
    0.7372   -8.7513  -10.5559 C   0  0  0  0  0  0  0  0  0  0  0  0
    1.6642   -9.3065   -9.7629 C   0  0  0  0  0  0  0  0  0  0  0  0
    2.1289   -8.2208   -8.8241 C   0  0  0  0  0  0  0  0  0  0  0  0
    0.8023   -7.5064   -8.6268 C   0  0  0  0  0  0  0  0  0  0  0  0
    2.9425   -7.2215   -9.7008 C   0  0  0  0  0  0  0  0  0  0  0  0
    3.5612   -0.7210   -4.9419 C   0  0  0  0  0  0  0  0  0  0  0  0
    3.4556    0.3397   -4.0157 C   0  0  0  0  0  0  0  0  0  0  0  0
    2.7104    1.5451   -4.2768 N   0  0  0  0  0  0  0  0  0  0  0  0
    1.5053    1.7511   -3.5089 C   0  0  0  0  0  0  0  0  0  0  0  0
    1.2869    2.9630   -2.8309 C   0  0  0  0  0  0  0  0  0  0  0  0
    0.2147    3.0952   -1.9426 C   0  0  0  0  0  0  0  0  0  0  0  0
   -0.6615    2.0165   -1.7215 C   0  0  0  0  0  0  0  0  0  0  0  0
   -1.7294    2.1084   -0.6734 C   0  0  0  0  0  0  0  0  0  0  0  0
   -0.4536    0.8122   -2.4089 C   0  0  0  0  0  0  0  0  0  0  0  0
    0.6127    0.6842   -3.3014 C   0  0  0  0  0  0  0  0  0  0  0  0
    3.1792    2.5219   -5.2358 C   0  0  0  0  0  0  0  0  0  0  0  0
    2.2748    3.4030   -5.8627 C   0  0  0  0  0  0  0  0  0  0  0  0
    2.7328    4.3599   -6.7718 C   0  0  0  0  0  0  0  0  0  0  0  0
    4.0901    4.4397   -7.0940 C   0  0  0  0  0  0  0  0  0  0  0  0
    4.5588    5.4568   -8.0983 C   0  0  0  0  0  0  0  0  0  0  0  0
    4.9977    3.5553   -6.4927 C   0  0  0  0  0  0  0  0  0  0  0  0
    4.5441    2.6023   -5.5726 C   0  0  0  0  0  0  0  0  0  0  0  0
    3.7656   -0.0826   -2.7170 C   0  0  0  0  0  0  0  0  0  0  0  0
    3.5259    0.5979   -1.1984 S   0  0  0  0  0  0  0  0  0  0  0  0
    3.7585   -0.8603   -0.3527 C   0  0  0  0  0  0  0  0  0  0  0  0
    3.9734   -1.8927   -1.2743 C   0  0  0  0  0  0  0  0  0  0  0  0
    3.8508   -3.2892   -0.9516 N   0  0  0  0  0  0  0  0  0  0  0  0
    2.8043   -4.0588   -1.5877 C   0  0  0  0  0  0  0  0  0  0  0  0
    3.0610   -5.3591   -2.0509 C   0  0  0  0  0  0  0  0  0  0  0  0
    2.0688   -6.0750   -2.7333 C   0  0  0  0  0  0  0  0  0  0  0  0
    0.8068   -5.5031   -2.9582 C   0  0  0  0  0  0  0  0  0  0  0  0
   -0.2326   -6.2441   -3.7431 C   0  0  0  0  0  0  0  0  0  0  0  0
    0.5511   -4.1978   -2.5081 C   0  0  0  0  0  0  0  0  0  0  0  0
    1.5379   -3.4851   -1.8259 C   0  0  0  0  0  0  0  0  0  0  0  0
    4.7417   -3.8759    0.0247 C   0  0  0  0  0  0  0  0  0  0  0  0
    4.2876   -4.8789    0.8997 C   0  0  0  0  0  0  0  0  0  0  0  0
    5.1580   -5.4576    1.8264 C   0  0  0  0  0  0  0  0  0  0  0  0
    6.4985   -5.0471    1.8959 C   0  0  0  0  0  0  0  0  0  0  0  0
    7.4266   -5.6510    2.9075 C   0  0  0  0  0  0  0  0  0  0  0  0
    6.9471   -4.0211    1.0523 C   0  0  0  0  0  0  0  0  0  0  0  0
    6.0779   -3.4420    0.1235 C   0  0  0  0  0  0  0  0  0  0  0  0
    4.0011   -1.4091   -2.5782 C   0  0  0  0  0  0  0  0  0  0  0  0
    3.8920   -2.1501   -4.0719 S   0  0  0  0  0  0  0  0  0  0  0  0
    3.2984   -1.0757    1.0228 C   0  0  0  0  0  0  0  0  0  0  0  0
    3.9118   -0.6133    2.1963 C   0  0  0  0  0  0  0  0  0  0  0  0
    5.0758    0.2794    2.2289 C   0  0  0  0  0  0  0  0  0  0  0  0
    4.9401    1.6194    1.8454 C   0  0  0  0  0  0  0  0  0  0  0  0
    6.0454    2.4729    1.8652 C   0  0  0  0  0  0  0  0  0  0  0  0
    7.2965    1.9901    2.2576 C   0  0  0  0  0  0  0  0  0  0  0  0
    7.4479    0.6461    2.6366 C   0  0  0  0  0  0  0  0  0  0  0  0
    8.7864    0.1395    3.1011 C   0  0  0  0  0  0  0  0  0  0  0  0
    8.9624    0.3774    4.5965 C   0  0  0  0  0  0  0  0  0  0  0  0
    6.3270   -0.2026    2.6406 C   0  0  0  0  0  0  0  0  0  0  0  0
    3.1950   -1.0089    3.3280 C   0  0  0  0  0  0  0  0  0  0  0  0
    3.2810   -0.5778    4.9703 S   0  0  0  0  0  0  0  0  0  0  0  0
    1.8232   -1.3923    5.2990 C   0  0  0  0  0  0  0  0  0  0  0  0
    0.8311   -1.2585    6.2302 C   0  0  0  0  0  0  0  0  0  0  0  0
    0.8239   -0.4873    7.3967 C   0  0  0  0  0  0  0  0  0  0  0  0
   -0.4199   -0.2042    8.0231 C   0  0  0  0  0  0  0  0  0  0  0  0
   -0.3912    0.5986    9.1161 N   0  0  0  0  0  0  0  0  0  0  0  0
    1.2358    0.8904    9.2056 S   0  0  0  0  0  0  0  0  0  0  0  0
    1.9294    0.0740    7.9417 N   0  0  0  0  0  0  0  0  0  0  0  0
   -1.5873   -0.7339    7.4721 C   0  0  0  0  0  0  0  0  0  0  0  0
   -2.8962   -0.4312    7.7496 C   0  0  0  0  0  0  0  0  0  0  0  0
   -3.6145    1.0037    8.3025 S   0  0  0  0  0  0  0  0  0  0  0  0
   -4.9372    0.8307    7.2481 C   0  0  0  0  0  0  0  0  0  0  0  0
   -5.7251    1.8389    6.6804 C   0  0  0  0  0  0  0  0  0  0  0  0
   -6.1572    3.0583    7.4222 C   0  0  0  0  0  0  0  0  0  0  0  0
   -6.2821    4.3136    6.7984 C   0  0  0  0  0  0  0  0  0  0  0  0
   -6.7536    5.4191    7.5123 C   0  0  0  0  0  0  0  0  0  0  0  0
   -7.1086    5.2883    8.8543 C   0  0  0  0  0  0  0  0  0  0  0  0
   -6.9963    4.0483    9.4955 C   0  0  0  0  0  0  0  0  0  0  0  0
   -7.3942    3.9024   10.9414 C   0  0  0  0  0  0  0  0  0  0  0  0
   -6.1897    4.0751   11.8600 C   0  0  0  0  0  0  0  0  0  0  0  0
   -6.5025    2.9443    8.7817 C   0  0  0  0  0  0  0  0  0  0  0  0
   -6.0820    1.4945    5.3608 C   0  0  0  0  0  0  0  0  0  0  0  0
   -5.5373   -0.0714    4.9894 S   0  0  0  0  0  0  0  0  0  0  0  0
   -4.7800   -0.2964    6.4698 C   0  0  0  0  0  0  0  0  0  0  0  0
   -3.6381   -1.0249    6.7726 C   0  0  0  0  0  0  0  0  0  0  0  0
   -2.8921   -1.7673    5.9245 N   0  0  0  0  0  0  0  0  0  0  0  0
   -1.5930   -1.5355    6.3120 C   0  0  0  0  0  0  0  0  0  0  0  0
   -0.3475   -1.7604    5.6324 C   0  0  0  0  0  0  0  0  0  0  0  0
   -0.0751   -2.1468    4.3354 N   0  0  0  0  0  0  0  0  0  0  0  0
    1.2554   -1.9155    4.1864 C   0  0  0  0  0  0  0  0  0  0  0  0
    2.0457   -1.7115    3.0612 C   0  0  0  0  0  0  0  0  0  0  0  0
    1.8625   -1.8999    1.4054 S   0  0  0  0  0  0  0  0  0  0  0  0
   -0.9787   -2.4284    3.2148 C   0  0  0  0  0  0  0  0  0  0  0  0
   -1.6989   -1.1621    2.7552 C   0  0  0  0  0  0  0  0  0  0  0  0
   -3.4925   -2.9181    5.2346 C   0  0  0  0  0  0  0  0  0  0  0  0
   -2.8651   -4.2417    5.6818 C   0  0  0  0  0  0  0  0  0  0  0  0
   -6.7163    2.3719    4.3739 C   0  0  0  0  0  0  0  0  0  0  0  0
   -8.1149    2.4886    4.4064 C   0  0  0  0  0  0  0  0  0  0  0  0
   -8.7876    3.3320    3.5117 C   0  0  0  0  0  0  0  0  0  0  0  0
   -8.0782    4.0890    2.5658 C   0  0  0  0  0  0  0  0  0  0  0  0
   -6.6709    4.0088    2.5625 C   0  0  0  0  0  0  0  0  0  0  0  0
   -5.6742    4.7313    1.7448 C   0  0  0  0  0  0  0  0  0  0  0  0
   -5.8650    5.8299    0.9911 C   0  0  0  0  0  0  0  0  0  0  0  0
   -4.8389    6.4243    0.1137 C   0  0  0  0  0  0  0  0  0  0  0  0
   -4.6961    7.8109   -0.0471 C   0  0  0  0  0  0  0  0  0  0  0  0
   -3.7400    8.1662   -0.9907 C   0  0  0  0  0  0  0  0  0  0  0  0
   -3.0983    6.7588   -1.6422 S   0  0  0  0  0  0  0  0  0  0  0  0
   -4.0251    5.6829   -0.7399 C   0  0  0  0  0  0  0  0  0  0  0  0
   -4.3926    4.1715    2.1721 C   0  0  0  0  0  0  0  0  0  0  0  0
   -3.2585    4.5700    1.7940 O   0  0  0  0  0  0  0  0  0  0  0  0
   -4.5672    3.1974    3.1985 N   0  0  0  0  0  0  0  0  0  0  0  0
   -3.4410    2.6617    3.9747 C   0  0  0  0  0  0  0  0  0  0  0  0
   -3.0220    3.6228    5.0822 C   0  0  0  0  0  0  0  0  0  0  0  0
   -5.9934    3.1403    3.4240 C   0  0  0  0  0  0  0  0  0  0  0  0
   -8.8357    4.9104    1.6167 C   0  0  0  0  0  0  0  0  0  0  0  0
   -9.6561    5.9783    1.9634 C   0  0  0  0  0  0  0  0  0  0  0  0
  -10.2339    6.6087    0.8571 C   0  0  0  0  0  0  0  0  0  0  0  0
   -9.8802    6.0201   -0.3496 C   0  0  0  0  0  0  0  0  0  0  0  0
  -10.2885    6.4844   -1.6454 C   0  0  0  0  0  0  0  0  0  0  0  0
  -10.6150    6.8632   -2.6857 N   0  0  0  0  0  0  0  0  0  0  0  0
   -8.8520    4.7213   -0.0582 S   0  0  0  0  0  0  0  0  0  0  0  0
    2.3413    0.1149   -6.5259 H   0  0  0  0  0  0  0  0  0  0  0  0
    4.6649   -5.6184   -7.5084 H   0  0  0  0  0  0  0  0  0  0  0  0
    1.0469   -3.5491  -10.4587 H   0  0  0  0  0  0  0  0  0  0  0  0
    2.1454   -6.6411  -11.6546 H   0  0  0  0  0  0  0  0  0  0  0  0
   -0.3339   -6.8122  -10.4300 H   0  0  0  0  0  0  0  0  0  0  0  0
    0.1272   -9.2708  -11.2865 H   0  0  0  0  0  0  0  0  0  0  0  0
    1.9356  -10.3560   -9.7382 H   0  0  0  0  0  0  0  0  0  0  0  0
    2.6303   -8.5759   -7.8995 H   0  0  0  0  0  0  0  0  0  0  0  0
    0.8748   -6.5581   -8.0484 H   0  0  0  0  0  0  0  0  0  0  0  0
    0.0173   -8.1483   -8.1587 H   0  0  0  0  0  0  0  0  0  0  0  0
    3.8131   -7.6550  -10.2398 H   0  0  0  0  0  0  0  0  0  0  0  0
    1.9732    3.7934   -2.9619 H   0  0  0  0  0  0  0  0  0  0  0  0
    0.0829    4.0279   -1.4030 H   0  0  0  0  0  0  0  0  0  0  0  0
   -2.0914    3.1526   -0.5728 H   0  0  0  0  0  0  0  0  0  0  0  0
   -1.3103    1.7789    0.2990 H   0  0  0  0  0  0  0  0  0  0  0  0
   -2.5955    1.4617   -0.9292 H   0  0  0  0  0  0  0  0  0  0  0  0
   -1.1049   -0.0380   -2.2363 H   0  0  0  0  0  0  0  0  0  0  0  0
    0.7691   -0.2625   -3.8013 H   0  0  0  0  0  0  0  0  0  0  0  0
    1.2145    3.3522   -5.6578 H   0  0  0  0  0  0  0  0  0  0  0  0
    2.0237    5.0350   -7.2360 H   0  0  0  0  0  0  0  0  0  0  0  0
    4.0991    5.2387   -9.0856 H   0  0  0  0  0  0  0  0  0  0  0  0
    4.2530    6.4723   -7.7722 H   0  0  0  0  0  0  0  0  0  0  0  0
    5.6632    5.4407   -8.2128 H   0  0  0  0  0  0  0  0  0  0  0  0
    6.0517    3.6085   -6.7288 H   0  0  0  0  0  0  0  0  0  0  0  0
    5.2698    1.9433   -5.1135 H   0  0  0  0  0  0  0  0  0  0  0  0
    4.0357   -5.8090   -1.9082 H   0  0  0  0  0  0  0  0  0  0  0  0
    2.2907   -7.0705   -3.0992 H   0  0  0  0  0  0  0  0  0  0  0  0
   -0.0778   -6.0561   -4.8261 H   0  0  0  0  0  0  0  0  0  0  0  0
   -1.2530   -5.9074   -3.4646 H   0  0  0  0  0  0  0  0  0  0  0  0
   -0.1633   -7.3355   -3.5474 H   0  0  0  0  0  0  0  0  0  0  0  0
   -0.4095   -3.7322   -2.6893 H   0  0  0  0  0  0  0  0  0  0  0  0
    1.3206   -2.4749   -1.5005 H   0  0  0  0  0  0  0  0  0  0  0  0
    3.2541   -5.2033    0.8733 H   0  0  0  0  0  0  0  0  0  0  0  0
    4.7866   -6.2274    2.4907 H   0  0  0  0  0  0  0  0  0  0  0  0
    7.4803   -4.9997    3.8045 H   0  0  0  0  0  0  0  0  0  0  0  0
    8.4457   -5.7616    2.4811 H   0  0  0  0  0  0  0  0  0  0  0  0
    7.0762   -6.6587    3.2160 H   0  0  0  0  0  0  0  0  0  0  0  0
    7.9708   -3.6714    1.1115 H   0  0  0  0  0  0  0  0  0  0  0  0
    6.4508   -2.6646   -0.5289 H   0  0  0  0  0  0  0  0  0  0  0  0
    3.9771    2.0075    1.5435 H   0  0  0  0  0  0  0  0  0  0  0  0
    5.9338    3.5102    1.5765 H   0  0  0  0  0  0  0  0  0  0  0  0
    8.1435    2.6630    2.2761 H   0  0  0  0  0  0  0  0  0  0  0  0
    9.5991    0.6558    2.5472 H   0  0  0  0  0  0  0  0  0  0  0  0
    8.8776   -0.9480    2.8893 H   0  0  0  0  0  0  0  0  0  0  0  0
    8.1920   -0.1842    5.1675 H   0  0  0  0  0  0  0  0  0  0  0  0
    8.8720    1.4618    4.8259 H   0  0  0  0  0  0  0  0  0  0  0  0
    9.9685    0.0296    4.9129 H   0  0  0  0  0  0  0  0  0  0  0  0
    6.4360   -1.2408    2.9408 H   0  0  0  0  0  0  0  0  0  0  0  0
   -5.9987    4.4628    5.7691 H   0  0  0  0  0  0  0  0  0  0  0  0
   -6.8455    6.3792    7.0219 H   0  0  0  0  0  0  0  0  0  0  0  0
   -7.4798    6.1525    9.3905 H   0  0  0  0  0  0  0  0  0  0  0  0
   -8.1691    4.6525   11.2072 H   0  0  0  0  0  0  0  0  0  0  0  0
   -7.8399    2.8978   11.1120 H   0  0  0  0  0  0  0  0  0  0  0  0
   -5.4222    3.2973   11.6508 H   0  0  0  0  0  0  0  0  0  0  0  0
   -5.7394    5.0827   11.7214 H   0  0  0  0  0  0  0  0  0  0  0  0
   -6.5167    3.9774   12.9173 H   0  0  0  0  0  0  0  0  0  0  0  0
   -6.4285    1.9831    9.2809 H   0  0  0  0  0  0  0  0  0  0  0  0
   -1.6416   -3.2628    3.4470 H   0  0  0  0  0  0  0  0  0  0  0  0
   -0.4167   -2.8385    2.3565 H   0  0  0  0  0  0  0  0  0  0  0  0
   -2.4264   -1.4111    1.9540 H   0  0  0  0  0  0  0  0  0  0  0  0
   -2.2419   -0.6809    3.5946 H   0  0  0  0  0  0  0  0  0  0  0  0
   -0.9597   -0.4353    2.3534 H   0  0  0  0  0  0  0  0  0  0  0  0
   -4.5741   -2.9830    5.4994 H   0  0  0  0  0  0  0  0  0  0  0  0
   -3.5157   -2.7716    4.1439 H   0  0  0  0  0  0  0  0  0  0  0  0
   -2.9892   -4.3674    6.7776 H   0  0  0  0  0  0  0  0  0  0  0  0
   -3.3695   -5.0846    5.1677 H   0  0  0  0  0  0  0  0  0  0  0  0
   -1.7835   -4.2801    5.4494 H   0  0  0  0  0  0  0  0  0  0  0  0
   -8.6982    1.9218    5.1257 H   0  0  0  0  0  0  0  0  0  0  0  0
   -9.8690    3.3819    3.5494 H   0  0  0  0  0  0  0  0  0  0  0  0
   -6.8091    6.3451    1.0176 H   0  0  0  0  0  0  0  0  0  0  0  0
   -5.2768    8.5391    0.5030 H   0  0  0  0  0  0  0  0  0  0  0  0
   -3.4676    9.1756   -1.2668 H   0  0  0  0  0  0  0  0  0  0  0  0
   -4.0133    4.6053   -0.8333 H   0  0  0  0  0  0  0  0  0  0  0  0
   -2.5714    2.5150    3.2950 H   0  0  0  0  0  0  0  0  0  0  0  0
   -3.6597    1.6718    4.3904 H   0  0  0  0  0  0  0  0  0  0  0  0
   -2.8752    4.6464    4.6788 H   0  0  0  0  0  0  0  0  0  0  0  0
   -3.7861    3.6532    5.8794 H   0  0  0  0  0  0  0  0  0  0  0  0
   -2.0688    3.2755    5.5375 H   0  0  0  0  0  0  0  0  0  0  0  0
   -9.8102    6.3097    2.9819 H   0  0  0  0  0  0  0  0  0  0  0  0
  -10.8826    7.4733    0.9369 H   0  0  0  0  0  0  0  0  0  0  0  0
  1  2  2  3
  2  3  1  0
  3  4  2  0
  3  5  1  0
  5  6  2  0
  6  7  1  0
  7  8  2  0
  8  9  1  0
  9 10  2  0
 10 11  1  0
 11 12  2  3
 12 13  1  0
 13 14  3  0
 12 15  1  0
 15 16  3  0
  8 17  1  0
 17 18  1  0
 18 19  1  0
 19 20  2  0
 20 21  1  0
 21 22  1  0
 21 23  1  0
  1 24  1  0
 24 25  2  0
 25 26  1  0
 26 27  1  0
 27 28  2  0
 28 29  1  0
 29 30  2  0
 30 31  1  0
 30 32  1  0
 32 33  2  0
 26 34  1  0
 34 35  2  0
 35 36  1  0
 36 37  2  0
 37 38  1  0
 37 39  1  0
 39 40  2  0
 25 41  1  0
 41 42  1  0
 42 43  1  0
 43 44  2  0
 44 45  1  0
 45 46  1  0
 46 47  2  0
 47 48  1  0
 48 49  2  0
 49 50  1  0
 49 51  1  0
 51 52  2  0
 45 53  1  0
 53 54  2  0
 54 55  1  0
 55 56  2  0
 56 57  1  0
 56 58  1  0
 58 59  2  0
 44 60  1  0
 60 61  1  0
 43 62  1  0
 62 63  2  0
 63 64  1  0
 64 65  2  0
 65 66  1  0
 66 67  2  0
 67 68  1  0
 68 69  1  0
 69 70  1  0
 68 71  2  0
 63 72  1  0
 72 73  1  0
 73 74  1  0
 74 75  1  0
 75 76  1  0
 76 77  1  0
 77 78  2  0
 78 79  1  0
 79 80  1  0
 77 81  1  0
 81 82  1  0
 82 83  1  0
 83 84  1  0
 84 85  1  0
 85 86  1  0
 86 87  2  0
 87 88  1  0
 88 89  2  0
 89 90  1  0
 90 91  1  0
 91 92  1  0
 90 93  2  0
 85 94  2  0
 94 95  1  0
 95 96  1  0
 96 97  1  0
 97 98  1  0
 98 99  1  0
 99100  1  0
100101  1  0
101102  1  0
102103  1  0
103104  1  0
101105  1  0
105106  1  0
 98107  1  0
107108  1  0
 94109  1  0
109110  2  0
110111  1  0
111112  2  0
112113  1  0
113114  1  0
114115  2  3
115116  1  0
116117  1  0
117118  2  0
118119  1  0
119120  1  0
114121  1  0
121122  2  0
121123  1  0
123124  1  0
124125  1  0
123126  1  0
112127  1  0
127128  2  0
128129  1  0
129130  2  0
130131  1  0
131132  3  0
130133  1  0
 11  2  1  0
 23 17  1  0
 61 24  1  0
104 62  1  0
126109  1  0
133127  1  0
 10  5  1  0
 22 18  1  0
 33 27  1  0
 40 34  1  0
 60 41  2  0
 71 64  1  0
103 72  2  0
126113  2  0
 23  7  1  0
 52 46  1  0
 59 53  1  0
102 74  2  0
120116  2  0
100 75  2  0
 80 76  2  0
 99 81  2  0
 97 82  2  0
 96 84  2  0
 93 86  1  0
  1134  1  0
  6135  1  0
  9136  1  0
 17137  1  0
 18138  1  0
 19139  1  0
 20140  1  0
 21141  1  0
 22142  1  0
 22143  1  0
 23144  1  0
 28145  1  0
 29146  1  0
 31147  1  0
 31148  1  0
 31149  1  0
 32150  1  0
 33151  1  0
 35152  1  0
 36153  1  0
 38154  1  0
 38155  1  0
 38156  1  0
 39157  1  0
 40158  1  0
 47159  1  0
 48160  1  0
 50161  1  0
 50162  1  0
 50163  1  0
 51164  1  0
 52165  1  0
 54166  1  0
 55167  1  0
 57168  1  0
 57169  1  0
 57170  1  0
 58171  1  0
 59172  1  0
 65173  1  0
 66174  1  0
 67175  1  0
 69176  1  0
 69177  1  0
 70178  1  0
 70179  1  0
 70180  1  0
 71181  1  0
 87182  1  0
 88183  1  0
 89184  1  0
 91185  1  0
 91186  1  0
 92187  1  0
 92188  1  0
 92189  1  0
 93190  1  0
105191  1  0
105192  1  0
106193  1  0
106194  1  0
106195  1  0
107196  1  0
107197  1  0
108198  1  0
108199  1  0
108200  1  0
110201  1  0
111202  1  0
115203  1  0
117204  1  0
118205  1  0
120206  1  0
124207  1  0
124208  1  0
125209  1  0
125210  1  0
125211  1  0
128212  1  0
129213  1  0
M  END

