
     RDKit          3D

227254  0  0  0  0  0  0  0  0999 V2000
   -4.4770    5.9452   -0.6750 C   0  0  0  0  0  0  0  0  0  0  0  0
   -4.3679    5.3966    0.5550 C   0  0  0  0  0  0  0  0  0  0  0  0
   -4.6122    6.2139    1.7559 C   0  0  0  0  0  0  0  0  0  0  0  0
   -4.9249    7.4329    1.7659 O   0  0  0  0  0  0  0  0  0  0  0  0
   -4.4034    5.4155    2.9443 C   0  0  0  0  0  0  0  0  0  0  0  0
   -4.3333    5.8716    4.2861 C   0  0  0  0  0  0  0  0  0  0  0  0
   -3.8640    4.9280    5.1820 C   0  0  0  0  0  0  0  0  0  0  0  0
   -3.4920    3.6011    4.7874 C   0  0  0  0  0  0  0  0  0  0  0  0
   -3.5714    3.1448    3.4855 C   0  0  0  0  0  0  0  0  0  0  0  0
   -4.0712    4.0987    2.5503 C   0  0  0  0  0  0  0  0  0  0  0  0
   -4.0778    4.0025    1.0592 C   0  0  0  0  0  0  0  0  0  0  0  0
   -3.9123    2.8413    0.3842 C   0  0  0  0  0  0  0  0  0  0  0  0
   -4.2405    1.5698    0.9846 C   0  0  0  0  0  0  0  0  0  0  0  0
   -4.5148    0.5457    1.4462 N   0  0  0  0  0  0  0  0  0  0  0  0
   -3.2263    2.7457   -0.8706 C   0  0  0  0  0  0  0  0  0  0  0  0
   -2.6540    2.6009   -1.8645 N   0  0  0  0  0  0  0  0  0  0  0  0
   -3.0683    3.2824    6.1865 C   0  0  0  0  0  0  0  0  0  0  0  0
   -4.0270    2.3733    7.0135 C   0  0  0  0  0  0  0  0  0  0  0  0
   -3.5894    2.5111    8.4500 C   0  0  0  0  0  0  0  0  0  0  0  0
   -3.9242    3.7485    8.8292 C   0  0  0  0  0  0  0  0  0  0  0  0
   -4.5766    4.4042    7.6326 C   0  0  0  0  0  0  0  0  0  0  0  0
   -5.3040    3.1928    7.0778 C   0  0  0  0  0  0  0  0  0  0  0  0
   -3.4422    4.6409    6.5930 C   0  0  0  0  0  0  0  0  0  0  0  0
   -4.2406    5.3193   -1.9781 C   0  0  0  0  0  0  0  0  0  0  0  0
   -5.0485    4.3961   -2.6776 C   0  0  0  0  0  0  0  0  0  0  0  0
   -6.3352    3.9135   -2.2153 N   0  0  0  0  0  0  0  0  0  0  0  0
   -6.9098    2.7154   -2.7566 C   0  0  0  0  0  0  0  0  0  0  0  0
   -8.0142    2.8003   -3.6176 C   0  0  0  0  0  0  0  0  0  0  0  0
   -8.5526    1.6422   -4.1900 C   0  0  0  0  0  0  0  0  0  0  0  0
   -8.0058    0.3852   -3.8951 C   0  0  0  0  0  0  0  0  0  0  0  0
   -8.6125   -0.8601   -4.4661 C   0  0  0  0  0  0  0  0  0  0  0  0
   -6.9179    0.2991   -3.0097 C   0  0  0  0  0  0  0  0  0  0  0  0
   -6.3699    1.4590   -2.4481 C   0  0  0  0  0  0  0  0  0  0  0  0
   -7.1833    4.7654   -1.4216 C   0  0  0  0  0  0  0  0  0  0  0  0
   -7.4084    6.0928   -1.8129 C   0  0  0  0  0  0  0  0  0  0  0  0
   -8.1848    6.9388   -1.0214 C   0  0  0  0  0  0  0  0  0  0  0  0
   -8.7579    6.4628    0.1685 C   0  0  0  0  0  0  0  0  0  0  0  0
   -9.5889    7.3689    1.0285 C   0  0  0  0  0  0  0  0  0  0  0  0
   -8.5627    5.1254    0.5403 C   0  0  0  0  0  0  0  0  0  0  0  0
   -7.7831    4.2779   -0.2503 C   0  0  0  0  0  0  0  0  0  0  0  0
   -4.4430    4.0443   -3.9018 C   0  0  0  0  0  0  0  0  0  0  0  0
   -4.5645    2.7227   -4.9361 S   0  0  0  0  0  0  0  0  0  0  0  0
   -3.0803    2.9726   -5.7431 C   0  0  0  0  0  0  0  0  0  0  0  0
   -2.5095    4.1564   -5.2071 C   0  0  0  0  0  0  0  0  0  0  0  0
   -1.2046    4.6551   -5.5904 N   0  0  0  0  0  0  0  0  0  0  0  0
   -0.1982    5.0428   -4.6114 C   0  0  0  0  0  0  0  0  0  0  0  0
    0.6690    6.1290   -4.8632 C   0  0  0  0  0  0  0  0  0  0  0  0
    1.7043    6.4417   -3.9740 C   0  0  0  0  0  0  0  0  0  0  0  0
    1.9056    5.6727   -2.8223 C   0  0  0  0  0  0  0  0  0  0  0  0
    3.0131    5.9985   -1.8618 C   0  0  0  0  0  0  0  0  0  0  0  0
    1.0207    4.6286   -2.5333 C   0  0  0  0  0  0  0  0  0  0  0  0
   -0.0215    4.3241   -3.4109 C   0  0  0  0  0  0  0  0  0  0  0  0
   -0.9157    4.7875   -7.0008 C   0  0  0  0  0  0  0  0  0  0  0  0
   -1.9087    5.2101   -7.9022 C   0  0  0  0  0  0  0  0  0  0  0  0
   -1.6079    5.4005   -9.2538 C   0  0  0  0  0  0  0  0  0  0  0  0
   -0.3001    5.2119   -9.7143 C   0  0  0  0  0  0  0  0  0  0  0  0
    0.0166    5.4313  -11.1627 C   0  0  0  0  0  0  0  0  0  0  0  0
    0.6753    4.7097   -8.8385 C   0  0  0  0  0  0  0  0  0  0  0  0
    0.3663    4.4700   -7.4998 C   0  0  0  0  0  0  0  0  0  0  0  0
   -3.2781    4.6942   -4.1753 C   0  0  0  0  0  0  0  0  0  0  0  0
   -2.9089    5.7547   -2.9315 S   0  0  0  0  0  0  0  0  0  0  0  0
   -2.2028    1.8165   -5.9999 C   0  0  0  0  0  0  0  0  0  0  0  0
   -2.2532    0.7745   -6.9735 C   0  0  0  0  0  0  0  0  0  0  0  0
   -3.1781    0.7050   -8.1310 C   0  0  0  0  0  0  0  0  0  0  0  0
   -3.6679   -0.5371   -8.5729 C   0  0  0  0  0  0  0  0  0  0  0  0
   -4.4909   -0.6148   -9.6983 C   0  0  0  0  0  0  0  0  0  0  0  0
   -4.8546    0.5445  -10.3778 C   0  0  0  0  0  0  0  0  0  0  0  0
   -4.4005    1.7929   -9.9401 C   0  0  0  0  0  0  0  0  0  0  0  0
   -4.7695    3.0331  -10.7146 C   0  0  0  0  0  0  0  0  0  0  0  0
   -3.8281    3.2514  -11.9070 C   0  0  0  0  0  0  0  0  0  0  0  0
   -3.5621    1.8707   -8.8199 C   0  0  0  0  0  0  0  0  0  0  0  0
   -1.2366   -0.1785   -6.7085 C   0  0  0  0  0  0  0  0  0  0  0  0
   -0.5882   -1.6041   -7.4372 S   0  0  0  0  0  0  0  0  0  0  0  0
    0.6412   -1.7473   -6.2502 C   0  0  0  0  0  0  0  0  0  0  0  0
    1.6771   -2.5378   -5.7885 C   0  0  0  0  0  0  0  0  0  0  0  0
    2.1622   -3.8132   -6.1294 C   0  0  0  0  0  0  0  0  0  0  0  0
    3.1889   -4.4073   -5.3150 C   0  0  0  0  0  0  0  0  0  0  0  0
    3.5916   -5.6541   -5.6503 N   0  0  0  0  0  0  0  0  0  0  0  0
    2.6010   -5.9254   -6.9529 S   0  0  0  0  0  0  0  0  0  0  0  0
    1.6728   -4.5645   -7.1431 N   0  0  0  0  0  0  0  0  0  0  0  0
    3.7337   -3.6565   -4.2552 C   0  0  0  0  0  0  0  0  0  0  0  0
    4.6929   -3.8993   -3.2956 C   0  0  0  0  0  0  0  0  0  0  0  0
    5.2989   -5.2455   -2.4475 S   0  0  0  0  0  0  0  0  0  0  0  0
    5.7050   -4.2738   -1.0910 C   0  0  0  0  0  0  0  0  0  0  0  0
    5.9655   -4.5729    0.2484 C   0  0  0  0  0  0  0  0  0  0  0  0
    6.4464   -5.8742    0.7383 C   0  0  0  0  0  0  0  0  0  0  0  0
    7.6234   -5.9338    1.5053 C   0  0  0  0  0  0  0  0  0  0  0  0
    8.0652   -7.1564    2.0157 C   0  0  0  0  0  0  0  0  0  0  0  0
    7.3336   -8.3218    1.7686 C   0  0  0  0  0  0  0  0  0  0  0  0
    6.1598   -8.2742    1.0034 C   0  0  0  0  0  0  0  0  0  0  0  0
    5.3136   -9.5025    0.8435 C   0  0  0  0  0  0  0  0  0  0  0  0
    4.3758   -9.6501    2.0343 C   0  0  0  0  0  0  0  0  0  0  0  0
    5.7249   -7.0467    0.4759 C   0  0  0  0  0  0  0  0  0  0  0  0
    5.7432   -3.4502    1.0776 C   0  0  0  0  0  0  0  0  0  0  0  0
    5.2605   -2.1220    0.1336 S   0  0  0  0  0  0  0  0  0  0  0  0
    5.3533   -2.9685   -1.3038 C   0  0  0  0  0  0  0  0  0  0  0  0
    4.7888   -2.7632   -2.5416 C   0  0  0  0  0  0  0  0  0  0  0  0
    3.9698   -1.7815   -2.9610 N   0  0  0  0  0  0  0  0  0  0  0  0
    3.2624   -2.3713   -3.9591 C   0  0  0  0  0  0  0  0  0  0  0  0
    2.1511   -1.8778   -4.6441 C   0  0  0  0  0  0  0  0  0  0  0  0
    1.3583   -0.8384   -4.2910 N   0  0  0  0  0  0  0  0  0  0  0  0
    0.5248   -0.7479   -5.3434 C   0  0  0  0  0  0  0  0  0  0  0  0
   -0.5058    0.1014   -5.5949 C   0  0  0  0  0  0  0  0  0  0  0  0
   -0.9934    1.4827   -4.8647 S   0  0  0  0  0  0  0  0  0  0  0  0
    0.9665   -0.4460   -2.9200 C   0  0  0  0  0  0  0  0  0  0  0  0
   -0.3183   -1.1624   -2.4608 C   0  0  0  0  0  0  0  0  0  0  0  0
    4.1741   -0.3427   -2.7079 C   0  0  0  0  0  0  0  0  0  0  0  0
    5.5974    0.0837   -3.0424 C   0  0  0  0  0  0  0  0  0  0  0  0
    5.5969   -3.4633    2.5509 C   0  0  0  0  0  0  0  0  0  0  0  0
    6.0614   -2.4011    3.3319 C   0  0  0  0  0  0  0  0  0  0  0  0
    6.6953   -1.2851    2.9405 N   0  0  0  0  0  0  0  0  0  0  0  0
    6.8713   -0.5841    4.0550 N   0  0  0  0  0  0  0  0  0  0  0  0
    7.4468    0.7553    4.0753 C   0  0  0  0  0  0  0  0  0  0  0  0
    6.4027    1.7775    3.6395 C   0  0  0  0  0  0  0  0  0  0  0  0
    6.3683   -1.1802    5.1306 N   0  0  0  0  0  0  0  0  0  0  0  0
    5.8565   -2.3352    4.6774 C   0  0  0  0  0  0  0  0  0  0  0  0
    5.1690   -3.3273    5.3761 C   0  0  0  0  0  0  0  0  0  0  0  0
    4.6210   -4.3843    4.6108 C   0  0  0  0  0  0  0  0  0  0  0  0
    4.8409   -4.4572    3.2179 C   0  0  0  0  0  0  0  0  0  0  0  0
    4.2187   -5.4366    2.5148 F   0  0  0  0  0  0  0  0  0  0  0  0
    3.8209   -5.3120    5.1968 F   0  0  0  0  0  0  0  0  0  0  0  0
    4.8818   -3.1741    6.8156 C   0  0  0  0  0  0  0  0  0  0  0  0
    4.9671   -4.1713    7.7154 C   0  0  0  0  0  0  0  0  0  0  0  0
    5.7224   -5.4205    7.5378 C   0  0  0  0  0  0  0  0  0  0  0  0
    6.2773   -5.8214    6.4785 O   0  0  0  0  0  0  0  0  0  0  0  0
    5.8741   -6.0587    8.8253 C   0  0  0  0  0  0  0  0  0  0  0  0
    6.5720   -7.2573    9.1089 C   0  0  0  0  0  0  0  0  0  0  0  0
    6.6211   -7.5705   10.4525 C   0  0  0  0  0  0  0  0  0  0  0  0
    6.0271   -6.7519   11.4664 C   0  0  0  0  0  0  0  0  0  0  0  0
    5.3327   -5.5882   11.2002 C   0  0  0  0  0  0  0  0  0  0  0  0
    5.2423   -5.2620    9.8172 C   0  0  0  0  0  0  0  0  0  0  0  0
    4.5632   -4.1081    9.1536 C   0  0  0  0  0  0  0  0  0  0  0  0
    3.5666   -3.3517    9.6738 C   0  0  0  0  0  0  0  0  0  0  0  0
    2.7675   -2.4623    8.8656 C   0  0  0  0  0  0  0  0  0  0  0  0
    2.1207   -1.7483    8.2248 N   0  0  0  0  0  0  0  0  0  0  0  0
    3.1257   -3.4683   11.0406 C   0  0  0  0  0  0  0  0  0  0  0  0
    2.7585   -3.5502   12.1368 N   0  0  0  0  0  0  0  0  0  0  0  0
    6.5286   -7.6794   12.5318 C   0  0  0  0  0  0  0  0  0  0  0  0
    7.7699   -7.2360   13.3686 C   0  0  0  0  0  0  0  0  0  0  0  0
    8.6742   -6.3615   12.5278 C   0  0  0  0  0  0  0  0  0  0  0  0
    9.2065   -7.1520   11.5968 C   0  0  0  0  0  0  0  0  0  0  0  0
    8.6358   -8.5315   11.8224 C   0  0  0  0  0  0  0  0  0  0  0  0
    8.5705   -8.5226   13.3382 C   0  0  0  0  0  0  0  0  0  0  0  0
    7.1103   -8.5316   11.4910 C   0  0  0  0  0  0  0  0  0  0  0  0
   -4.6593    7.0146   -0.7356 H   0  0  0  0  0  0  0  0  0  0  0  0
   -4.5502    6.8914    4.5768 H   0  0  0  0  0  0  0  0  0  0  0  0
   -3.1848    2.1745    3.2210 H   0  0  0  0  0  0  0  0  0  0  0  0
   -1.9822    3.0560    6.2826 H   0  0  0  0  0  0  0  0  0  0  0  0
   -4.1382    1.3267    6.6503 H   0  0  0  0  0  0  0  0  0  0  0  0
   -3.1718    1.7374    9.0885 H   0  0  0  0  0  0  0  0  0  0  0  0
   -3.8282    4.1553    9.8313 H   0  0  0  0  0  0  0  0  0  0  0  0
   -5.2005    5.2925    7.8635 H   0  0  0  0  0  0  0  0  0  0  0  0
   -5.7853    3.3680    6.0876 H   0  0  0  0  0  0  0  0  0  0  0  0
   -6.0666    2.7734    7.7760 H   0  0  0  0  0  0  0  0  0  0  0  0
   -2.5888    5.2617    6.9397 H   0  0  0  0  0  0  0  0  0  0  0  0
   -8.4457    3.7660   -3.8553 H   0  0  0  0  0  0  0  0  0  0  0  0
   -9.4170    1.7331   -4.8416 H   0  0  0  0  0  0  0  0  0  0  0  0
   -9.2140   -1.3679   -3.6844 H   0  0  0  0  0  0  0  0  0  0  0  0
   -7.8105   -1.5463   -4.8144 H   0  0  0  0  0  0  0  0  0  0  0  0
   -9.2653   -0.6323   -5.3341 H   0  0  0  0  0  0  0  0  0  0  0  0
   -6.5073   -0.6645   -2.7429 H   0  0  0  0  0  0  0  0  0  0  0  0
   -5.5347    1.3758   -1.7688 H   0  0  0  0  0  0  0  0  0  0  0  0
   -6.9671    6.4759   -2.7270 H   0  0  0  0  0  0  0  0  0  0  0  0
   -8.3342    7.9662   -1.3380 H   0  0  0  0  0  0  0  0  0  0  0  0
  -10.6504    7.0488    0.9762 H   0  0  0  0  0  0  0  0  0  0  0  0
   -9.2454    7.3162    2.0812 H   0  0  0  0  0  0  0  0  0  0  0  0
   -9.5214    8.4256    0.6924 H   0  0  0  0  0  0  0  0  0  0  0  0
   -9.0129    4.7413    1.4455 H   0  0  0  0  0  0  0  0  0  0  0  0
   -7.6234    3.2539    0.0547 H   0  0  0  0  0  0  0  0  0  0  0  0
    0.5526    6.7282   -5.7547 H   0  0  0  0  0  0  0  0  0  0  0  0
    2.3568    7.2787   -4.1972 H   0  0  0  0  0  0  0  0  0  0  0  0
    2.6135    6.6136   -1.0317 H   0  0  0  0  0  0  0  0  0  0  0  0
    3.4450    5.0623   -1.4420 H   0  0  0  0  0  0  0  0  0  0  0  0
    3.8276    6.5538   -2.3746 H   0  0  0  0  0  0  0  0  0  0  0  0
    1.1382    4.0438   -1.6224 H   0  0  0  0  0  0  0  0  0  0  0  0
   -0.6876    3.5212   -3.1485 H   0  0  0  0  0  0  0  0  0  0  0  0
   -2.9177    5.3707   -7.5554 H   0  0  0  0  0  0  0  0  0  0  0  0
   -2.4057    5.6353   -9.9420 H   0  0  0  0  0  0  0  0  0  0  0  0
    1.1141    5.4733  -11.3420 H   0  0  0  0  0  0  0  0  0  0  0  0
   -0.4212    4.6038  -11.7670 H   0  0  0  0  0  0  0  0  0  0  0  0
   -0.4206    6.4007  -11.4929 H   0  0  0  0  0  0  0  0  0  0  0  0
    1.6617    4.4563   -9.2093 H   0  0  0  0  0  0  0  0  0  0  0  0
    1.1113    4.0357   -6.8406 H   0  0  0  0  0  0  0  0  0  0  0  0
   -3.4152   -1.4548   -8.0449 H   0  0  0  0  0  0  0  0  0  0  0  0
   -4.8485   -1.5796  -10.0353 H   0  0  0  0  0  0  0  0  0  0  0  0
   -5.4825    0.4663  -11.2579 H   0  0  0  0  0  0  0  0  0  0  0  0
   -4.7521    3.9291  -10.0553 H   0  0  0  0  0  0  0  0  0  0  0  0
   -5.8183    2.9359  -11.0845 H   0  0  0  0  0  0  0  0  0  0  0  0
   -4.3779    3.7738  -12.7211 H   0  0  0  0  0  0  0  0  0  0  0  0
   -3.4523    2.2843  -12.3111 H   0  0  0  0  0  0  0  0  0  0  0  0
   -2.9535    3.8713  -11.6023 H   0  0  0  0  0  0  0  0  0  0  0  0
   -3.1754    2.8291   -8.5081 H   0  0  0  0  0  0  0  0  0  0  0  0
    8.1892   -5.0355    1.7066 H   0  0  0  0  0  0  0  0  0  0  0  0
    8.9686   -7.1946    2.6076 H   0  0  0  0  0  0  0  0  0  0  0  0
    7.6801   -9.2590    2.1916 H   0  0  0  0  0  0  0  0  0  0  0  0
    4.7161   -9.4435   -0.0892 H   0  0  0  0  0  0  0  0  0  0  0  0
    5.9653  -10.4017    0.7679 H   0  0  0  0  0  0  0  0  0  0  0  0
    3.6576   -8.8001    2.0606 H   0  0  0  0  0  0  0  0  0  0  0  0
    3.8084  -10.5961    1.9429 H   0  0  0  0  0  0  0  0  0  0  0  0
    4.9530   -9.6620    2.9862 H   0  0  0  0  0  0  0  0  0  0  0  0
    4.7965   -6.9968   -0.0805 H   0  0  0  0  0  0  0  0  0  0  0  0
    0.8229    0.6570   -2.8744 H   0  0  0  0  0  0  0  0  0  0  0  0
    1.7418   -0.6995   -2.1821 H   0  0  0  0  0  0  0  0  0  0  0  0
   -0.9975   -0.4394   -1.9616 H   0  0  0  0  0  0  0  0  0  0  0  0
   -0.0630   -1.9624   -1.7301 H   0  0  0  0  0  0  0  0  0  0  0  0
   -0.8606   -1.6437   -3.2953 H   0  0  0  0  0  0  0  0  0  0  0  0
    3.5037    0.2598   -3.3477 H   0  0  0  0  0  0  0  0  0  0  0  0
    3.9644   -0.1139   -1.6445 H   0  0  0  0  0  0  0  0  0  0  0  0
    6.3186   -0.3872   -2.3403 H   0  0  0  0  0  0  0  0  0  0  0  0
    5.6815    1.1882   -2.9439 H   0  0  0  0  0  0  0  0  0  0  0  0
    5.8509   -0.1965   -4.0950 H   0  0  0  0  0  0  0  0  0  0  0  0
    7.7984    0.9996    5.1006 H   0  0  0  0  0  0  0  0  0  0  0  0
    8.3144    0.7950    3.3839 H   0  0  0  0  0  0  0  0  0  0  0  0
    5.5103    1.7079    4.2935 H   0  0  0  0  0  0  0  0  0  0  0  0
    6.0979    1.5913    2.5887 H   0  0  0  0  0  0  0  0  0  0  0  0
    6.8278    2.8016    3.7213 H   0  0  0  0  0  0  0  0  0  0  0  0
    4.6002   -2.1841    7.1418 H   0  0  0  0  0  0  0  0  0  0  0  0
    7.0469   -7.8568    8.3498 H   0  0  0  0  0  0  0  0  0  0  0  0
    4.9413   -4.9857   12.0015 H   0  0  0  0  0  0  0  0  0  0  0  0
    5.7186   -8.1795   13.1137 H   0  0  0  0  0  0  0  0  0  0  0  0
    7.5358   -6.8347   14.3772 H   0  0  0  0  0  0  0  0  0  0  0  0
    8.9392   -5.3309   12.6992 H   0  0  0  0  0  0  0  0  0  0  0  0
    9.9768   -6.8715   10.8882 H   0  0  0  0  0  0  0  0  0  0  0  0
    9.2200   -9.3660   11.3791 H   0  0  0  0  0  0  0  0  0  0  0  0
    9.5707   -8.4353   13.8212 H   0  0  0  0  0  0  0  0  0  0  0  0
    8.0278   -9.3980   13.7649 H   0  0  0  0  0  0  0  0  0  0  0  0
    6.6404   -9.5416   11.4293 H   0  0  0  0  0  0  0  0  0  0  0  0
  1  2  2  3
  2  3  1  0
  3  4  2  0
  3  5  1  0
  5  6  2  0
  6  7  1  0
  7  8  2  0
  8  9  1  0
  9 10  2  0
 10 11  1  0
 11 12  2  3
 12 13  1  0
 13 14  3  0
 12 15  1  0
 15 16  3  0
  8 17  1  0
 17 18  1  0
 18 19  1  0
 19 20  2  0
 20 21  1  0
 21 22  1  0
 21 23  1  0
  1 24  1  0
 24 25  2  0
 25 26  1  0
 26 27  1  0
 27 28  2  0
 28 29  1  0
 29 30  2  0
 30 31  1  0
 30 32  1  0
 32 33  2  0
 26 34  1  0
 34 35  2  0
 35 36  1  0
 36 37  2  0
 37 38  1  0
 37 39  1  0
 39 40  2  0
 25 41  1  0
 41 42  1  0
 42 43  1  0
 43 44  2  0
 44 45  1  0
 45 46  1  0
 46 47  2  0
 47 48  1  0
 48 49  2  0
 49 50  1  0
 49 51  1  0
 51 52  2  0
 45 53  1  0
 53 54  2  0
 54 55  1  0
 55 56  2  0
 56 57  1  0
 56 58  1  0
 58 59  2  0
 44 60  1  0
 60 61  1  0
 43 62  1  0
 62 63  2  0
 63 64  1  0
 64 65  2  0
 65 66  1  0
 66 67  2  0
 67 68  1  0
 68 69  1  0
 69 70  1  0
 68 71  2  0
 63 72  1  0
 72 73  1  0
 73 74  1  0
 74 75  1  0
 75 76  1  0
 76 77  1  0
 77 78  2  0
 78 79  1  0
 79 80  1  0
 77 81  1  0
 81 82  1  0
 82 83  1  0
 83 84  1  0
 84 85  1  0
 85 86  1  0
 86 87  2  0
 87 88  1  0
 88 89  2  0
 89 90  1  0
 90 91  1  0
 91 92  1  0
 90 93  2  0
 85 94  2  0
 94 95  1  0
 95 96  1  0
 96 97  1  0
 97 98  1  0
 98 99  1  0
 99100  1  0
100101  1  0
101102  1  0
102103  1  0
103104  1  0
101105  1  0
105106  1  0
 98107  1  0
107108  1  0
 94109  1  0
109110  1  0
110111  2  0
111112  1  0
112113  1  0
113114  1  0
112115  1  0
115116  2  0
116117  1  0
117118  2  0
118119  1  0
119120  1  0
118121  1  0
117122  1  0
122123  2  3
123124  1  0
124125  2  0
124126  1  0
126127  2  0
127128  1  0
128129  2  0
129130  1  0
130131  2  0
131132  1  0
132133  2  3
133134  1  0
134135  3  0
133136  1  0
136137  3  0
129138  1  0
138139  1  0
139140  1  0
140141  2  0
141142  1  0
142143  1  0
142144  1  0
 11  2  1  0
 23 17  1  0
 61 24  1  0
104 62  1  0
119109  2  0
132123  1  0
144138  1  0
 10  5  1  0
 22 18  1  0
 33 27  1  0
 40 34  1  0
 60 41  2  0
 71 64  1  0
103 72  2  0
116110  1  0
131126  1  0
143139  1  0
 23  7  1  0
 52 46  1  0
 59 53  1  0
102 74  2  0
144128  1  0
100 75  2  0
 80 76  2  0
 99 81  2  0
 97 82  2  0
 96 84  2  0
 93 86  1  0
  1145  1  0
  6146  1  0
  9147  1  0
 17148  1  0
 18149  1  0
 19150  1  0
 20151  1  0
 21152  1  0
 22153  1  0
 22154  1  0
 23155  1  0
 28156  1  0
 29157  1  0
 31158  1  0
 31159  1  0
 31160  1  0
 32161  1  0
 33162  1  0
 35163  1  0
 36164  1  0
 38165  1  0
 38166  1  0
 38167  1  0
 39168  1  0
 40169  1  0
 47170  1  0
 48171  1  0
 50172  1  0
 50173  1  0
 50174  1  0
 51175  1  0
 52176  1  0
 54177  1  0
 55178  1  0
 57179  1  0
 57180  1  0
 57181  1  0
 58182  1  0
 59183  1  0
 65184  1  0
 66185  1  0
 67186  1  0
 69187  1  0
 69188  1  0
 70189  1  0
 70190  1  0
 70191  1  0
 71192  1  0
 87193  1  0
 88194  1  0
 89195  1  0
 91196  1  0
 91197  1  0
 92198  1  0
 92199  1  0
 92200  1  0
 93201  1  0
105202  1  0
105203  1  0
106204  1  0
106205  1  0
106206  1  0
107207  1  0
107208  1  0
108209  1  0
108210  1  0
108211  1  0
113212  1  0
113213  1  0
114214  1  0
114215  1  0
114216  1  0
122217  1  0
127218  1  0
130219  1  0
138220  1  0
139221  1  0
140222  1  0
141223  1  0
142224  1  0
143225  1  0
143226  1  0
144227  1  0
M  END

