
     RDKit          3D

251281  0  0  0  0  0  0  0  0999 V2000
   -0.0506    3.8190    7.7234 C   0  0  0  0  0  0  0  0  0  0  0  0
   -0.6568    5.0027    7.9273 C   0  0  0  0  0  0  0  0  0  0  0  0
   -0.9058    6.0001    6.8866 C   0  0  0  0  0  0  0  0  0  0  0  0
   -0.4627    5.9726    5.7138 O   0  0  0  0  0  0  0  0  0  0  0  0
   -1.5187    7.1606    7.4771 C   0  0  0  0  0  0  0  0  0  0  0  0
   -2.0219    8.2859    6.7893 C   0  0  0  0  0  0  0  0  0  0  0  0
   -2.6739    9.1889    7.5991 C   0  0  0  0  0  0  0  0  0  0  0  0
   -2.8335    9.0070    9.0091 C   0  0  0  0  0  0  0  0  0  0  0  0
   -2.3263    7.9120    9.6940 C   0  0  0  0  0  0  0  0  0  0  0  0
   -1.6175    6.9760    8.8798 C   0  0  0  0  0  0  0  0  0  0  0  0
   -1.0267    5.6473    9.2359 C   0  0  0  0  0  0  0  0  0  0  0  0
   -0.9512    5.1056   10.4801 C   0  0  0  0  0  0  0  0  0  0  0  0
   -1.1901    5.8699   11.6773 C   0  0  0  0  0  0  0  0  0  0  0  0
   -1.3755    6.4724   12.6483 N   0  0  0  0  0  0  0  0  0  0  0  0
   -0.6282    3.7189   10.7086 C   0  0  0  0  0  0  0  0  0  0  0  0
   -0.3751    2.6076   10.9105 N   0  0  0  0  0  0  0  0  0  0  0  0
   -3.6635   10.2562    9.0882 C   0  0  0  0  0  0  0  0  0  0  0  0
   -5.2056   10.0688    9.2377 C   0  0  0  0  0  0  0  0  0  0  0  0
   -5.8240   11.4005    8.8863 C   0  0  0  0  0  0  0  0  0  0  0  0
   -5.6620   11.5590    7.5688 C   0  0  0  0  0  0  0  0  0  0  0  0
   -4.9336   10.3334    7.0759 C   0  0  0  0  0  0  0  0  0  0  0  0
   -5.5810    9.2981    7.9824 C   0  0  0  0  0  0  0  0  0  0  0  0
   -3.4889   10.4450    7.6455 C   0  0  0  0  0  0  0  0  0  0  0  0
   -0.6900    2.7764    6.8912 C   0  0  0  0  0  0  0  0  0  0  0  0
   -1.0496    2.7957    5.5258 C   0  0  0  0  0  0  0  0  0  0  0  0
   -0.4242    3.6060    4.5122 N   0  0  0  0  0  0  0  0  0  0  0  0
   -1.2575    4.1278    3.4492 C   0  0  0  0  0  0  0  0  0  0  0  0
   -2.5044    4.7050    3.7505 C   0  0  0  0  0  0  0  0  0  0  0  0
   -3.3509    5.1402    2.7268 C   0  0  0  0  0  0  0  0  0  0  0  0
   -2.9809    4.9854    1.3841 C   0  0  0  0  0  0  0  0  0  0  0  0
   -3.8849    5.4621    0.2866 C   0  0  0  0  0  0  0  0  0  0  0  0
   -1.7309    4.4247    1.0784 C   0  0  0  0  0  0  0  0  0  0  0  0
   -0.8798    3.9933    2.0992 C   0  0  0  0  0  0  0  0  0  0  0  0
    1.0185    3.5975    4.3846 C   0  0  0  0  0  0  0  0  0  0  0  0
    1.6926    4.7192    3.8703 C   0  0  0  0  0  0  0  0  0  0  0  0
    3.0807    4.6974    3.6955 C   0  0  0  0  0  0  0  0  0  0  0  0
    3.8208    3.5588    4.0453 C   0  0  0  0  0  0  0  0  0  0  0  0
    5.3010    3.5162    3.8074 C   0  0  0  0  0  0  0  0  0  0  0  0
    3.1529    2.4316    4.5390 C   0  0  0  0  0  0  0  0  0  0  0  0
    1.7679    2.4515    4.7179 C   0  0  0  0  0  0  0  0  0  0  0  0
   -1.7388    1.6336    5.1825 C   0  0  0  0  0  0  0  0  0  0  0  0
   -2.1159    0.9524    3.7067 S   0  0  0  0  0  0  0  0  0  0  0  0
   -2.4667   -0.5905    4.3279 C   0  0  0  0  0  0  0  0  0  0  0  0
   -2.2418   -0.5740    5.7179 C   0  0  0  0  0  0  0  0  0  0  0  0
   -2.1202   -1.7476    6.5368 N   0  0  0  0  0  0  0  0  0  0  0  0
   -3.2944   -2.3180    7.1536 C   0  0  0  0  0  0  0  0  0  0  0  0
   -3.3540   -3.6969    7.4223 C   0  0  0  0  0  0  0  0  0  0  0  0
   -4.4587   -4.2508    8.0696 C   0  0  0  0  0  0  0  0  0  0  0  0
   -5.5386   -3.4408    8.4426 C   0  0  0  0  0  0  0  0  0  0  0  0
   -6.7224   -4.0307    9.1454 C   0  0  0  0  0  0  0  0  0  0  0  0
   -5.4846   -2.0608    8.1902 C   0  0  0  0  0  0  0  0  0  0  0  0
   -4.3744   -1.5061    7.5470 C   0  0  0  0  0  0  0  0  0  0  0  0
   -0.8027   -2.1898    6.9338 C   0  0  0  0  0  0  0  0  0  0  0  0
   -0.5227   -2.4702    8.2823 C   0  0  0  0  0  0  0  0  0  0  0  0
    0.7411   -2.9302    8.6631 C   0  0  0  0  0  0  0  0  0  0  0  0
    1.7436   -3.1166    7.7007 C   0  0  0  0  0  0  0  0  0  0  0  0
    3.1045   -3.5943    8.1038 C   0  0  0  0  0  0  0  0  0  0  0  0
    1.4819   -2.7990    6.3628 C   0  0  0  0  0  0  0  0  0  0  0  0
    0.2213   -2.3328    5.9830 C   0  0  0  0  0  0  0  0  0  0  0  0
   -1.8515    0.6959    6.1529 C   0  0  0  0  0  0  0  0  0  0  0  0
   -1.1547    1.2756    7.5605 S   0  0  0  0  0  0  0  0  0  0  0  0
   -2.3820   -1.7660    3.4561 C   0  0  0  0  0  0  0  0  0  0  0  0
   -3.2742   -2.8589    3.3328 C   0  0  0  0  0  0  0  0  0  0  0  0
   -4.5601   -2.9983    4.0449 C   0  0  0  0  0  0  0  0  0  0  0  0
   -5.3934   -1.8849    4.2531 C   0  0  0  0  0  0  0  0  0  0  0  0
   -6.6095   -2.0277    4.9250 C   0  0  0  0  0  0  0  0  0  0  0  0
   -7.0016   -3.2763    5.4061 C   0  0  0  0  0  0  0  0  0  0  0  0
   -6.1876   -4.4002    5.1990 C   0  0  0  0  0  0  0  0  0  0  0  0
   -6.6193   -5.7567    5.6845 C   0  0  0  0  0  0  0  0  0  0  0  0
   -7.3817   -6.5007    4.5979 C   0  0  0  0  0  0  0  0  0  0  0  0
   -4.9734   -4.2556    4.5082 C   0  0  0  0  0  0  0  0  0  0  0  0
   -2.8362   -3.7251    2.3150 C   0  0  0  0  0  0  0  0  0  0  0  0
   -3.4784   -5.1037    1.5082 S   0  0  0  0  0  0  0  0  0  0  0  0
   -2.2283   -5.0694    0.3455 C   0  0  0  0  0  0  0  0  0  0  0  0
   -1.7566   -5.7004   -0.7881 C   0  0  0  0  0  0  0  0  0  0  0  0
   -2.0813   -6.8932   -1.4554 C   0  0  0  0  0  0  0  0  0  0  0  0
   -1.2979   -7.2834   -2.5975 C   0  0  0  0  0  0  0  0  0  0  0  0
   -1.6394   -8.4454   -3.2032 N   0  0  0  0  0  0  0  0  0  0  0  0
   -2.9038   -8.9058   -2.2347 S   0  0  0  0  0  0  0  0  0  0  0  0
   -3.0791   -7.7300   -1.0784 N   0  0  0  0  0  0  0  0  0  0  0  0
   -0.2834   -6.4216   -3.0516 C   0  0  0  0  0  0  0  0  0  0  0  0
    0.4931   -6.3823   -4.1887 C   0  0  0  0  0  0  0  0  0  0  0  0
    0.9647   -7.3070   -5.5463 S   0  0  0  0  0  0  0  0  0  0  0  0
    1.9157   -6.0114   -6.1672 C   0  0  0  0  0  0  0  0  0  0  0  0
    2.8325   -5.8321   -7.2272 C   0  0  0  0  0  0  0  0  0  0  0  0
    3.2752   -6.8877   -8.1609 C   0  0  0  0  0  0  0  0  0  0  0  0
    3.5344   -8.1887   -7.7016 C   0  0  0  0  0  0  0  0  0  0  0  0
    3.9887   -9.1731   -8.5825 C   0  0  0  0  0  0  0  0  0  0  0  0
    4.1898   -8.8702   -9.9300 C   0  0  0  0  0  0  0  0  0  0  0  0
    3.9440   -7.5721  -10.4057 C   0  0  0  0  0  0  0  0  0  0  0  0
    4.1489   -7.2428  -11.8642 C   0  0  0  0  0  0  0  0  0  0  0  0
    2.8574   -7.4393  -12.6507 C   0  0  0  0  0  0  0  0  0  0  0  0
    3.4708   -6.5913   -9.5197 C   0  0  0  0  0  0  0  0  0  0  0  0
    3.3609   -4.5180   -7.1958 C   0  0  0  0  0  0  0  0  0  0  0  0
    2.6925   -3.6488   -5.8984 S   0  0  0  0  0  0  0  0  0  0  0  0
    1.7830   -4.9151   -5.3618 C   0  0  0  0  0  0  0  0  0  0  0  0
    1.0414   -5.1424   -4.2307 C   0  0  0  0  0  0  0  0  0  0  0  0
    0.7316   -4.3648   -3.1740 N   0  0  0  0  0  0  0  0  0  0  0  0
   -0.0334   -5.1987   -2.4124 C   0  0  0  0  0  0  0  0  0  0  0  0
   -0.6758   -4.9161   -1.2038 C   0  0  0  0  0  0  0  0  0  0  0  0
   -0.3686   -3.9474   -0.3022 N   0  0  0  0  0  0  0  0  0  0  0  0
   -1.3742   -4.0469    0.5865 C   0  0  0  0  0  0  0  0  0  0  0  0
   -1.6951   -3.3101    1.6917 C   0  0  0  0  0  0  0  0  0  0  0  0
   -1.1371   -1.8768    2.3047 S   0  0  0  0  0  0  0  0  0  0  0  0
    0.9771   -3.4469    0.0158 C   0  0  0  0  0  0  0  0  0  0  0  0
    1.5509   -4.1504    1.2474 C   0  0  0  0  0  0  0  0  0  0  0  0
    0.7110   -2.8888   -3.1929 C   0  0  0  0  0  0  0  0  0  0  0  0
    2.1055   -2.2805   -2.9879 C   0  0  0  0  0  0  0  0  0  0  0  0
    4.5084   -3.9434   -7.9132 C   0  0  0  0  0  0  0  0  0  0  0  0
    5.4998   -3.4006   -7.0848 C   0  0  0  0  0  0  0  0  0  0  0  0
    5.7083   -2.0239   -7.2716 C   0  0  0  0  0  0  0  0  0  0  0  0
    6.1711   -1.1440   -6.2669 C   0  0  0  0  0  0  0  0  0  0  0  0
    6.6243   -1.6569   -4.9610 C   0  0  0  0  0  0  0  0  0  0  0  0
    5.7058   -1.6131   -3.5550 S   0  0  0  0  0  0  0  0  0  0  0  0
    6.7552   -2.5391   -2.6215 C   0  0  0  0  0  0  0  0  0  0  0  0
    6.4650   -2.9961   -1.2243 C   0  0  0  0  0  0  0  0  0  0  0  0
    5.7287   -4.3323   -1.2368 C   0  0  0  0  0  0  0  0  0  0  0  0
    7.8334   -2.9246   -3.4161 C   0  0  0  0  0  0  0  0  0  0  0  0
    9.1369   -3.9599   -2.8492 Cl  0  0  0  0  0  0  0  0  0  0  0  0
    7.7565   -2.4327   -4.7287 C   0  0  0  0  0  0  0  0  0  0  0  0
    8.9479   -2.7927   -5.9730 Cl  0  0  0  0  0  0  0  0  0  0  0  0
    5.8898    0.2222   -6.4424 C   0  0  0  0  0  0  0  0  0  0  0  0
    5.2520    0.7176   -7.5862 C   0  0  0  0  0  0  0  0  0  0  0  0
    4.8924   -0.1504   -8.6336 C   0  0  0  0  0  0  0  0  0  0  0  0
    4.2338    0.3516   -9.8497 C   0  0  0  0  0  0  0  0  0  0  0  0
    2.9413    0.0597  -10.2721 C   0  0  0  0  0  0  0  0  0  0  0  0
    2.6302    0.6282  -11.5147 C   0  0  0  0  0  0  0  0  0  0  0  0
    3.6810    1.3531  -12.0641 C   0  0  0  0  0  0  0  0  0  0  0  0
    3.6604    2.0688  -13.3752 C   0  0  0  0  0  0  0  0  0  0  0  0
    3.3419    3.5463  -13.1816 C   0  0  0  0  0  0  0  0  0  0  0  0
    4.9880    1.3061  -11.0079 S   0  0  0  0  0  0  0  0  0  0  0  0
    5.0758   -1.5275   -8.4114 C   0  0  0  0  0  0  0  0  0  0  0  0
    4.1742   -2.7747   -9.0845 S   0  0  0  0  0  0  0  0  0  0  0  0
    4.7924    2.0370   -7.4385 C   0  0  0  0  0  0  0  0  0  0  0  0
    5.0441    2.5596   -6.1709 C   0  0  0  0  0  0  0  0  0  0  0  0
    5.8855    1.4182   -5.2585 S   0  0  0  0  0  0  0  0  0  0  0  0
    4.2658    3.6511   -5.5734 C   0  0  0  0  0  0  0  0  0  0  0  0
    3.0935    3.4333   -4.9344 C   0  0  0  0  0  0  0  0  0  0  0  0
    2.3574    2.1562   -4.9097 C   0  0  0  0  0  0  0  0  0  0  0  0
    2.7901    1.0284   -5.2680 O   0  0  0  0  0  0  0  0  0  0  0  0
    1.0038    2.4062   -4.4679 C   0  0  0  0  0  0  0  0  0  0  0  0
   -0.0634    1.4788   -4.4358 C   0  0  0  0  0  0  0  0  0  0  0  0
   -1.2809    2.0371   -4.1005 C   0  0  0  0  0  0  0  0  0  0  0  0
   -1.4516    3.4302   -3.8170 C   0  0  0  0  0  0  0  0  0  0  0  0
   -0.4087    4.3418   -3.8443 C   0  0  0  0  0  0  0  0  0  0  0  0
    0.8610    3.7849   -4.1698 C   0  0  0  0  0  0  0  0  0  0  0  0
    2.1820    4.4607   -4.3371 C   0  0  0  0  0  0  0  0  0  0  0  0
    2.5464    5.6626   -3.8175 C   0  0  0  0  0  0  0  0  0  0  0  0
    3.9158    6.1105   -3.7947 C   0  0  0  0  0  0  0  0  0  0  0  0
    5.0132    6.4767   -3.7693 N   0  0  0  0  0  0  0  0  0  0  0  0
    1.6226    6.5128   -3.1137 C   0  0  0  0  0  0  0  0  0  0  0  0
    0.8917    7.2049   -2.5410 N   0  0  0  0  0  0  0  0  0  0  0  0
   -2.9298    3.2295   -3.6435 C   0  0  0  0  0  0  0  0  0  0  0  0
   -3.8715    3.7171   -4.7868 C   0  0  0  0  0  0  0  0  0  0  0  0
   -3.1573    3.6329   -6.1164 C   0  0  0  0  0  0  0  0  0  0  0  0
   -2.9958    2.3362   -6.3775 C   0  0  0  0  0  0  0  0  0  0  0  0
   -3.6025    1.5808   -5.2159 C   0  0  0  0  0  0  0  0  0  0  0  0
   -4.7698    2.5013   -4.9197 C   0  0  0  0  0  0  0  0  0  0  0  0
   -2.7512    1.8033   -3.9282 C   0  0  0  0  0  0  0  0  0  0  0  0
    0.5119    3.3910    8.5350 H   0  0  0  0  0  0  0  0  0  0  0  0
   -1.9679    8.3967    5.7129 H   0  0  0  0  0  0  0  0  0  0  0  0
   -2.5308    7.7873   10.7421 H   0  0  0  0  0  0  0  0  0  0  0  0
   -3.2150   11.0545    9.7237 H   0  0  0  0  0  0  0  0  0  0  0  0
   -5.5443    9.6260   10.1952 H   0  0  0  0  0  0  0  0  0  0  0  0
   -6.3847   12.0573    9.5415 H   0  0  0  0  0  0  0  0  0  0  0  0
   -6.0704   12.3653    6.9674 H   0  0  0  0  0  0  0  0  0  0  0  0
   -5.0036   10.1366    5.9853 H   0  0  0  0  0  0  0  0  0  0  0  0
   -5.1345    8.2832    7.9175 H   0  0  0  0  0  0  0  0  0  0  0  0
   -6.6842    9.2010    7.8315 H   0  0  0  0  0  0  0  0  0  0  0  0
   -2.9252   11.3594    7.3597 H   0  0  0  0  0  0  0  0  0  0  0  0
   -2.8231    4.8102    4.7801 H   0  0  0  0  0  0  0  0  0  0  0  0
   -4.3019    5.5874    2.9840 H   0  0  0  0  0  0  0  0  0  0  0  0
   -4.9490    5.3747    0.5918 H   0  0  0  0  0  0  0  0  0  0  0  0
   -3.7396    4.8543   -0.6321 H   0  0  0  0  0  0  0  0  0  0  0  0
   -3.6579    6.5233    0.0548 H   0  0  0  0  0  0  0  0  0  0  0  0
   -1.4234    4.3049    0.0474 H   0  0  0  0  0  0  0  0  0  0  0  0
    0.0608    3.5242    1.8346 H   0  0  0  0  0  0  0  0  0  0  0  0
    1.1394    5.6074    3.5934 H   0  0  0  0  0  0  0  0  0  0  0  0
    3.5776    5.5683    3.2853 H   0  0  0  0  0  0  0  0  0  0  0  0
    5.7541    4.5121    3.9888 H   0  0  0  0  0  0  0  0  0  0  0  0
    5.7850    2.7904    4.4941 H   0  0  0  0  0  0  0  0  0  0  0  0
    5.4997    3.2101    2.7593 H   0  0  0  0  0  0  0  0  0  0  0  0
    3.7018    1.5318    4.7855 H   0  0  0  0  0  0  0  0  0  0  0  0
    1.2793    1.5583    5.0886 H   0  0  0  0  0  0  0  0  0  0  0  0
   -2.5408   -4.3440    7.1213 H   0  0  0  0  0  0  0  0  0  0  0  0
   -4.4789   -5.3165    8.2660 H   0  0  0  0  0  0  0  0  0  0  0  0
   -6.5937   -3.9166   10.2453 H   0  0  0  0  0  0  0  0  0  0  0  0
   -7.6599   -3.5146    8.8323 H   0  0  0  0  0  0  0  0  0  0  0  0
   -6.8271   -5.1128    8.9060 H   0  0  0  0  0  0  0  0  0  0  0  0
   -6.3055   -1.4178    8.4862 H   0  0  0  0  0  0  0  0  0  0  0  0
   -4.3538   -0.4369    7.3729 H   0  0  0  0  0  0  0  0  0  0  0  0
   -1.2829   -2.3266    9.0410 H   0  0  0  0  0  0  0  0  0  0  0  0
    0.9338   -3.1420    9.7077 H   0  0  0  0  0  0  0  0  0  0  0  0
    3.5116   -4.2912    7.3392 H   0  0  0  0  0  0  0  0  0  0  0  0
    3.7899   -2.7257    8.2003 H   0  0  0  0  0  0  0  0  0  0  0  0
    3.0692   -4.1372    9.0731 H   0  0  0  0  0  0  0  0  0  0  0  0
    2.2504   -2.9190    5.6090 H   0  0  0  0  0  0  0  0  0  0  0  0
    0.0389   -2.1044    4.9455 H   0  0  0  0  0  0  0  0  0  0  0  0
   -5.1110   -0.9063    3.8875 H   0  0  0  0  0  0  0  0  0  0  0  0
   -7.2437   -1.1648    5.0826 H   0  0  0  0  0  0  0  0  0  0  0  0
   -7.9472   -3.3738    5.9291 H   0  0  0  0  0  0  0  0  0  0  0  0
   -5.7302   -6.3555    5.9841 H   0  0  0  0  0  0  0  0  0  0  0  0
   -7.2700   -5.6580    6.5802 H   0  0  0  0  0  0  0  0  0  0  0  0
   -7.7141   -7.4858    4.9846 H   0  0  0  0  0  0  0  0  0  0  0  0
   -8.2773   -5.9195    4.2912 H   0  0  0  0  0  0  0  0  0  0  0  0
   -6.7304   -6.6648    3.7131 H   0  0  0  0  0  0  0  0  0  0  0  0
   -4.3434   -5.1229    4.3551 H   0  0  0  0  0  0  0  0  0  0  0  0
    3.4163   -8.4363   -6.6542 H   0  0  0  0  0  0  0  0  0  0  0  0
    4.1971  -10.1713   -8.2149 H   0  0  0  0  0  0  0  0  0  0  0  0
    4.5421   -9.6438  -10.6011 H   0  0  0  0  0  0  0  0  0  0  0  0
    4.4916   -6.1919  -11.9698 H   0  0  0  0  0  0  0  0  0  0  0  0
    4.9405   -7.8920  -12.2960 H   0  0  0  0  0  0  0  0  0  0  0  0
    2.0611   -6.7708  -12.2618 H   0  0  0  0  0  0  0  0  0  0  0  0
    2.5212   -8.4969  -12.5813 H   0  0  0  0  0  0  0  0  0  0  0  0
    3.0366   -7.1916  -13.7192 H   0  0  0  0  0  0  0  0  0  0  0  0
    3.2462   -5.6004   -9.8951 H   0  0  0  0  0  0  0  0  0  0  0  0
    0.9480   -2.3495    0.1775 H   0  0  0  0  0  0  0  0  0  0  0  0
    1.6716   -3.6725   -0.8113 H   0  0  0  0  0  0  0  0  0  0  0  0
    1.3799   -5.2456    1.1756 H   0  0  0  0  0  0  0  0  0  0  0  0
    2.6418   -3.9663    1.3120 H   0  0  0  0  0  0  0  0  0  0  0  0
    1.0823   -3.7714    2.1754 H   0  0  0  0  0  0  0  0  0  0  0  0
    0.3009   -2.5449   -4.1678 H   0  0  0  0  0  0  0  0  0  0  0  0
    0.0163   -2.4903   -2.4242 H   0  0  0  0  0  0  0  0  0  0  0  0
    2.1447   -1.7158   -2.0314 H   0  0  0  0  0  0  0  0  0  0  0  0
    2.8926   -3.0653   -2.9728 H   0  0  0  0  0  0  0  0  0  0  0  0
    2.3334   -1.5608   -3.8052 H   0  0  0  0  0  0  0  0  0  0  0  0
    5.7789   -3.8992   -6.1640 H   0  0  0  0  0  0  0  0  0  0  0  0
    5.8360   -2.2377   -0.7102 H   0  0  0  0  0  0  0  0  0  0  0  0
    7.4117   -3.0973   -0.6526 H   0  0  0  0  0  0  0  0  0  0  0  0
    4.7626   -4.2351   -1.7754 H   0  0  0  0  0  0  0  0  0  0  0  0
    5.5214   -4.6516   -0.1931 H   0  0  0  0  0  0  0  0  0  0  0  0
    6.3480   -5.1076   -1.7349 H   0  0  0  0  0  0  0  0  0  0  0  0
    2.2443   -0.5350   -9.7015 H   0  0  0  0  0  0  0  0  0  0  0  0
    1.6714    0.5062  -11.9991 H   0  0  0  0  0  0  0  0  0  0  0  0
    4.6538    1.9656  -13.8652 H   0  0  0  0  0  0  0  0  0  0  0  0
    2.8982    1.6093  -14.0423 H   0  0  0  0  0  0  0  0  0  0  0  0
    4.0964    4.0227  -12.5201 H   0  0  0  0  0  0  0  0  0  0  0  0
    3.3627    4.0613  -14.1652 H   0  0  0  0  0  0  0  0  0  0  0  0
    2.3336    3.6687  -12.7345 H   0  0  0  0  0  0  0  0  0  0  0  0
    4.1490    2.5304   -8.1547 H   0  0  0  0  0  0  0  0  0  0  0  0
    4.6352    4.6506   -5.7301 H   0  0  0  0  0  0  0  0  0  0  0  0
    0.0467    0.4354   -4.7028 H   0  0  0  0  0  0  0  0  0  0  0  0
   -0.5959    5.3903   -3.6910 H   0  0  0  0  0  0  0  0  0  0  0  0
   -3.2930    3.4366   -2.6141 H   0  0  0  0  0  0  0  0  0  0  0  0
   -4.3940    4.6768   -4.5949 H   0  0  0  0  0  0  0  0  0  0  0  0
   -2.8883    4.4524   -6.7731 H   0  0  0  0  0  0  0  0  0  0  0  0
   -2.5680    1.9190   -7.2812 H   0  0  0  0  0  0  0  0  0  0  0  0
   -3.8704    0.5240   -5.4316 H   0  0  0  0  0  0  0  0  0  0  0  0
   -5.4977    2.5792   -5.7620 H   0  0  0  0  0  0  0  0  0  0  0  0
   -5.3140    2.2437   -3.9817 H   0  0  0  0  0  0  0  0  0  0  0  0
   -3.0067    1.1375   -3.0745 H   0  0  0  0  0  0  0  0  0  0  0  0
  1  2  2  3
  2  3  1  0
  3  4  2  0
  3  5  1  0
  5  6  2  0
  6  7  1  0
  7  8  2  0
  8  9  1  0
  9 10  2  0
 10 11  1  0
 11 12  2  3
 12 13  1  0
 13 14  3  0
 12 15  1  0
 15 16  3  0
  8 17  1  0
 17 18  1  0
 18 19  1  0
 19 20  2  0
 20 21  1  0
 21 22  1  0
 21 23  1  0
  1 24  1  0
 24 25  2  0
 25 26  1  0
 26 27  1  0
 27 28  2  0
 28 29  1  0
 29 30  2  0
 30 31  1  0
 30 32  1  0
 32 33  2  0
 26 34  1  0
 34 35  2  0
 35 36  1  0
 36 37  2  0
 37 38  1  0
 37 39  1  0
 39 40  2  0
 25 41  1  0
 41 42  1  0
 42 43  1  0
 43 44  2  0
 44 45  1  0
 45 46  1  0
 46 47  2  0
 47 48  1  0
 48 49  2  0
 49 50  1  0
 49 51  1  0
 51 52  2  0
 45 53  1  0
 53 54  2  0
 54 55  1  0
 55 56  2  0
 56 57  1  0
 56 58  1  0
 58 59  2  0
 44 60  1  0
 60 61  1  0
 43 62  1  0
 62 63  2  0
 63 64  1  0
 64 65  2  0
 65 66  1  0
 66 67  2  0
 67 68  1  0
 68 69  1  0
 69 70  1  0
 68 71  2  0
 63 72  1  0
 72 73  1  0
 73 74  1  0
 74 75  1  0
 75 76  1  0
 76 77  1  0
 77 78  2  0
 78 79  1  0
 79 80  1  0
 77 81  1  0
 81 82  1  0
 82 83  1  0
 83 84  1  0
 84 85  1  0
 85 86  1  0
 86 87  2  0
 87 88  1  0
 88 89  2  0
 89 90  1  0
 90 91  1  0
 91 92  1  0
 90 93  2  0
 85 94  2  0
 94 95  1  0
 95 96  1  0
 96 97  1  0
 97 98  1  0
 98 99  1  0
 99100  1  0
100101  1  0
101102  1  0
102103  1  0
103104  1  0
101105  1  0
105106  1  0
 98107  1  0
107108  1  0
 94109  1  0
109110  2  0
110111  1  0
111112  2  0
112113  1  0
113114  1  0
114115  1  0
115116  1  0
116117  1  0
115118  2  0
118119  1  0
118120  1  0
120121  1  0
112122  1  0
122123  2  0
123124  1  0
124125  1  0
125126  2  0
126127  1  0
127128  2  0
128129  1  0
129130  1  0
128131  1  0
124132  2  0
132133  1  0
123134  1  0
134135  2  0
135136  1  0
135137  1  0
137138  2  3
138139  1  0
139140  2  0
139141  1  0
141142  2  0
142143  1  0
143144  2  0
144145  1  0
145146  2  0
146147  1  0
147148  2  3
148149  1  0
149150  3  0
148151  1  0
151152  3  0
144153  1  0
153154  1  0
154155  1  0
155156  2  0
156157  1  0
157158  1  0
157159  1  0
 11  2  1  0
 23 17  1  0
 61 24  1  0
104 62  1  0
133109  1  0
147138  1  0
159153  1  0
 10  5  1  0
 22 18  1  0
 33 27  1  0
 40 34  1  0
 60 41  2  0
 71 64  1  0
103 72  2  0
132111  1  0
146141  1  0
158154  1  0
 23  7  1  0
 52 46  1  0
 59 53  1  0
102 74  2  0
120113  2  0
136122  1  0
159143  1  0
100 75  2  0
131125  1  0
 80 76  2  0
 99 81  2  0
 97 82  2  0
 96 84  2  0
 93 86  1  0
  1160  1  0
  6161  1  0
  9162  1  0
 17163  1  0
 18164  1  0
 19165  1  0
 20166  1  0
 21167  1  0
 22168  1  0
 22169  1  0
 23170  1  0
 28171  1  0
 29172  1  0
 31173  1  0
 31174  1  0
 31175  1  0
 32176  1  0
 33177  1  0
 35178  1  0
 36179  1  0
 38180  1  0
 38181  1  0
 38182  1  0
 39183  1  0
 40184  1  0
 47185  1  0
 48186  1  0
 50187  1  0
 50188  1  0
 50189  1  0
 51190  1  0
 52191  1  0
 54192  1  0
 55193  1  0
 57194  1  0
 57195  1  0
 57196  1  0
 58197  1  0
 59198  1  0
 65199  1  0
 66200  1  0
 67201  1  0
 69202  1  0
 69203  1  0
 70204  1  0
 70205  1  0
 70206  1  0
 71207  1  0
 87208  1  0
 88209  1  0
 89210  1  0
 91211  1  0
 91212  1  0
 92213  1  0
 92214  1  0
 92215  1  0
 93216  1  0
105217  1  0
105218  1  0
106219  1  0
106220  1  0
106221  1  0
107222  1  0
107223  1  0
108224  1  0
108225  1  0
108226  1  0
110227  1  0
116228  1  0
116229  1  0
117230  1  0
117231  1  0
117232  1  0
126233  1  0
127234  1  0
129235  1  0
129236  1  0
130237  1  0
130238  1  0
130239  1  0
134240  1  0
137241  1  0
142242  1  0
145243  1  0
153244  1  0
154245  1  0
155246  1  0
156247  1  0
157248  1  0
158249  1  0
158250  1  0
159251  1  0
M  END

