
     RDKit          3D

229256  0  0  0  0  0  0  0  0999 V2000
    2.5047    2.8430   -6.9389 C   0  0  0  0  0  0  0  0  0  0  0  0
    2.5164    1.5164   -6.6771 C   0  0  0  0  0  0  0  0  0  0  0  0
    2.6967    0.9008   -5.3439 C   0  0  0  0  0  0  0  0  0  0  0  0
    2.4839    1.4312   -4.2256 O   0  0  0  0  0  0  0  0  0  0  0  0
    3.1821   -0.4436   -5.5029 C   0  0  0  0  0  0  0  0  0  0  0  0
    3.7463   -1.2465   -4.4899 C   0  0  0  0  0  0  0  0  0  0  0  0
    4.4364   -2.3402   -4.9709 C   0  0  0  0  0  0  0  0  0  0  0  0
    4.5129   -2.6703   -6.3639 C   0  0  0  0  0  0  0  0  0  0  0  0
    3.9271   -1.8947   -7.3579 C   0  0  0  0  0  0  0  0  0  0  0  0
    3.2323   -0.7490   -6.8804 C   0  0  0  0  0  0  0  0  0  0  0  0
    2.6833    0.3984   -7.6551 C   0  0  0  0  0  0  0  0  0  0  0  0
    2.2115    0.3431   -8.9216 C   0  0  0  0  0  0  0  0  0  0  0  0
    1.6617    1.4864   -9.6004 C   0  0  0  0  0  0  0  0  0  0  0  0
    1.2302    2.3970  -10.1635 N   0  0  0  0  0  0  0  0  0  0  0  0
    2.0578   -0.9160   -9.6058 C   0  0  0  0  0  0  0  0  0  0  0  0
    1.9049   -1.9279  -10.1403 N   0  0  0  0  0  0  0  0  0  0  0  0
    5.3668   -3.8649   -6.0460 C   0  0  0  0  0  0  0  0  0  0  0  0
    4.6800   -5.2600   -6.0846 C   0  0  0  0  0  0  0  0  0  0  0  0
    5.6265   -6.2019   -5.3723 C   0  0  0  0  0  0  0  0  0  0  0  0
    5.5891   -5.8637   -4.0756 C   0  0  0  0  0  0  0  0  0  0  0  0
    4.6167   -4.7166   -3.9569 C   0  0  0  0  0  0  0  0  0  0  0  0
    3.6096   -5.1448   -5.0112 C   0  0  0  0  0  0  0  0  0  0  0  0
    5.3167   -3.5025   -4.6247 C   0  0  0  0  0  0  0  0  0  0  0  0
    2.6228    3.8492   -5.8633 C   0  0  0  0  0  0  0  0  0  0  0  0
    1.6794    4.0111   -4.8318 C   0  0  0  0  0  0  0  0  0  0  0  0
    0.2537    3.7641   -4.9673 N   0  0  0  0  0  0  0  0  0  0  0  0
   -0.6389    4.1625   -3.9177 C   0  0  0  0  0  0  0  0  0  0  0  0
   -1.4151    3.2097   -3.2396 C   0  0  0  0  0  0  0  0  0  0  0  0
   -2.3038    3.6140   -2.2416 C   0  0  0  0  0  0  0  0  0  0  0  0
   -2.4486    4.9732   -1.9266 C   0  0  0  0  0  0  0  0  0  0  0  0
   -3.3827    5.4016   -0.8358 C   0  0  0  0  0  0  0  0  0  0  0  0
   -1.6566    5.9228   -2.5912 C   0  0  0  0  0  0  0  0  0  0  0  0
   -0.7705    5.5189   -3.5889 C   0  0  0  0  0  0  0  0  0  0  0  0
   -0.3419    3.5689   -6.2614 C   0  0  0  0  0  0  0  0  0  0  0  0
   -1.0660    2.4001   -6.5377 C   0  0  0  0  0  0  0  0  0  0  0  0
   -1.6669    2.2254   -7.7866 C   0  0  0  0  0  0  0  0  0  0  0  0
   -1.5405    3.2072   -8.7787 C   0  0  0  0  0  0  0  0  0  0  0  0
   -2.1856    3.0056  -10.1182 C   0  0  0  0  0  0  0  0  0  0  0  0
   -0.8055    4.3729   -8.5035 C   0  0  0  0  0  0  0  0  0  0  0  0
   -0.2142    4.5532   -7.2521 C   0  0  0  0  0  0  0  0  0  0  0  0
    2.3215    4.2982   -3.6158 C   0  0  0  0  0  0  0  0  0  0  0  0
    1.9070    3.8734   -2.0577 S   0  0  0  0  0  0  0  0  0  0  0  0
    3.4828    3.9916   -1.4342 C   0  0  0  0  0  0  0  0  0  0  0  0
    4.3806    4.3864   -2.4522 C   0  0  0  0  0  0  0  0  0  0  0  0
    5.4846    5.2642   -2.1438 N   0  0  0  0  0  0  0  0  0  0  0  0
    6.8775    4.9659   -2.4032 C   0  0  0  0  0  0  0  0  0  0  0  0
    7.8658    5.3767   -1.4914 C   0  0  0  0  0  0  0  0  0  0  0  0
    9.2255    5.2092   -1.7795 C   0  0  0  0  0  0  0  0  0  0  0  0
    9.6261    4.6377   -2.9966 C   0  0  0  0  0  0  0  0  0  0  0  0
   11.0866    4.5260   -3.3288 C   0  0  0  0  0  0  0  0  0  0  0  0
    8.6521    4.2235   -3.9076 C   0  0  0  0  0  0  0  0  0  0  0  0
    7.2941    4.3673   -3.6067 C   0  0  0  0  0  0  0  0  0  0  0  0
    5.1263    6.5841   -1.7096 C   0  0  0  0  0  0  0  0  0  0  0  0
    5.0603    6.8846   -0.3413 C   0  0  0  0  0  0  0  0  0  0  0  0
    4.5418    8.1093    0.0856 C   0  0  0  0  0  0  0  0  0  0  0  0
    4.0754    9.0460   -0.8519 C   0  0  0  0  0  0  0  0  0  0  0  0
    3.4888   10.3514   -0.4086 C   0  0  0  0  0  0  0  0  0  0  0  0
    4.1495    8.7440   -2.2207 C   0  0  0  0  0  0  0  0  0  0  0  0
    4.6729    7.5223   -2.6460 C   0  0  0  0  0  0  0  0  0  0  0  0
    3.6730    4.5070   -3.6669 C   0  0  0  0  0  0  0  0  0  0  0  0
    4.1548    4.2399   -5.2468 S   0  0  0  0  0  0  0  0  0  0  0  0
    3.7880    3.5668   -0.0533 C   0  0  0  0  0  0  0  0  0  0  0  0
    4.8939    2.7944    0.3874 C   0  0  0  0  0  0  0  0  0  0  0  0
    6.0555    2.3752   -0.4241 C   0  0  0  0  0  0  0  0  0  0  0  0
    7.3469    2.5705    0.0833 C   0  0  0  0  0  0  0  0  0  0  0  0
    8.4594    2.0681   -0.5926 C   0  0  0  0  0  0  0  0  0  0  0  0
    8.2930    1.3198   -1.7607 C   0  0  0  0  0  0  0  0  0  0  0  0
    7.0097    1.0878   -2.2691 C   0  0  0  0  0  0  0  0  0  0  0  0
    6.8334    0.2223   -3.4867 C   0  0  0  0  0  0  0  0  0  0  0  0
    6.5813    1.0586   -4.7345 C   0  0  0  0  0  0  0  0  0  0  0  0
    5.8880    1.6244   -1.6046 C   0  0  0  0  0  0  0  0  0  0  0  0
    4.6391    2.2243    1.6450 C   0  0  0  0  0  0  0  0  0  0  0  0
    5.2980    0.8297    2.3852 S   0  0  0  0  0  0  0  0  0  0  0  0
    3.9399    0.6747    3.3899 C   0  0  0  0  0  0  0  0  0  0  0  0
    3.3316   -0.3071    4.1224 C   0  0  0  0  0  0  0  0  0  0  0  0
    3.8081   -1.5061    4.6687 C   0  0  0  0  0  0  0  0  0  0  0  0
    2.9122   -2.3134    5.4283 C   0  0  0  0  0  0  0  0  0  0  0  0
    3.4201   -3.4532    5.9646 N   0  0  0  0  0  0  0  0  0  0  0  0
    4.9802   -3.3427    5.4255 S   0  0  0  0  0  0  0  0  0  0  0  0
    5.0885   -1.9411    4.5523 N   0  0  0  0  0  0  0  0  0  0  0  0
    1.5761   -1.9099    5.5515 C   0  0  0  0  0  0  0  0  0  0  0  0
    0.4774   -2.5468    6.0588 C   0  0  0  0  0  0  0  0  0  0  0  0
    0.0651   -4.0466    6.7482 S   0  0  0  0  0  0  0  0  0  0  0  0
   -1.6016   -3.7351    6.5118 C   0  0  0  0  0  0  0  0  0  0  0  0
   -2.7844   -4.4468    6.7721 C   0  0  0  0  0  0  0  0  0  0  0  0
   -2.8428   -5.7667    7.4453 C   0  0  0  0  0  0  0  0  0  0  0  0
   -3.8042   -6.0101    8.4408 C   0  0  0  0  0  0  0  0  0  0  0  0
   -3.8314   -7.2329    9.1123 C   0  0  0  0  0  0  0  0  0  0  0  0
   -2.8964   -8.2236    8.8050 C   0  0  0  0  0  0  0  0  0  0  0  0
   -1.9248   -7.9969    7.8168 C   0  0  0  0  0  0  0  0  0  0  0  0
   -0.9235   -9.0726    7.4775 C   0  0  0  0  0  0  0  0  0  0  0  0
   -1.4907  -10.0338    6.4404 C   0  0  0  0  0  0  0  0  0  0  0  0
   -1.9157   -6.7738    7.1276 C   0  0  0  0  0  0  0  0  0  0  0  0
   -3.9063   -3.6953    6.3538 C   0  0  0  0  0  0  0  0  0  0  0  0
   -3.4033   -2.2220    5.6571 S   0  0  0  0  0  0  0  0  0  0  0  0
   -1.7863   -2.5193    5.9062 C   0  0  0  0  0  0  0  0  0  0  0  0
   -0.6067   -1.8456    5.6549 C   0  0  0  0  0  0  0  0  0  0  0  0
   -0.2976   -0.7914    4.8604 N   0  0  0  0  0  0  0  0  0  0  0  0
    1.0745   -0.7713    4.8918 C   0  0  0  0  0  0  0  0  0  0  0  0
    1.9951    0.1036    4.2545 C   0  0  0  0  0  0  0  0  0  0  0  0
    1.8074    1.3457    3.7134 N   0  0  0  0  0  0  0  0  0  0  0  0
    3.0115    1.6332    3.1656 C   0  0  0  0  0  0  0  0  0  0  0  0
    3.4070    2.5274    2.1850 C   0  0  0  0  0  0  0  0  0  0  0  0
    2.5565    3.4908    1.1279 S   0  0  0  0  0  0  0  0  0  0  0  0
    0.7672    2.3324    4.0382 C   0  0  0  0  0  0  0  0  0  0  0  0
    1.3489    3.5405    4.7688 C   0  0  0  0  0  0  0  0  0  0  0  0
   -1.1687   -0.3306    3.7614 C   0  0  0  0  0  0  0  0  0  0  0  0
   -1.3945   -1.4329    2.7236 C   0  0  0  0  0  0  0  0  0  0  0  0
   -5.3070   -4.1388    6.2564 C   0  0  0  0  0  0  0  0  0  0  0  0
   -5.6383   -5.2271    5.4238 C   0  0  0  0  0  0  0  0  0  0  0  0
   -6.9585   -5.3912    4.9531 C   0  0  0  0  0  0  0  0  0  0  0  0
   -7.9632   -4.4666    5.3018 C   0  0  0  0  0  0  0  0  0  0  0  0
   -7.6398   -3.4669    6.2269 C   0  0  0  0  0  0  0  0  0  0  0  0
   -8.4247   -2.3359    6.7246 C   0  0  0  0  0  0  0  0  0  0  0  0
   -9.6280   -2.0936    6.4391 O   0  0  0  0  0  0  0  0  0  0  0  0
   -7.6201   -1.4998    7.5577 N   0  0  0  0  0  0  0  0  0  0  0  0
   -7.8974   -0.1071    7.9021 C   0  0  0  0  0  0  0  0  0  0  0  0
   -7.5964    0.8011    6.7148 C   0  0  0  0  0  0  0  0  0  0  0  0
   -6.3273   -2.1028    7.5196 C   0  0  0  0  0  0  0  0  0  0  0  0
   -5.3228   -1.6488    8.1305 O   0  0  0  0  0  0  0  0  0  0  0  0
   -6.3507   -3.3146    6.6997 C   0  0  0  0  0  0  0  0  0  0  0  0
   -9.2482   -4.4505    4.5877 C   0  0  0  0  0  0  0  0  0  0  0  0
   -9.3704   -3.9557    3.3362 C   0  0  0  0  0  0  0  0  0  0  0  0
   -8.2537   -3.5293    2.4820 C   0  0  0  0  0  0  0  0  0  0  0  0
   -7.0792   -3.2715    2.8566 O   0  0  0  0  0  0  0  0  0  0  0  0
   -8.7271   -3.4207    1.1204 C   0  0  0  0  0  0  0  0  0  0  0  0
   -7.9465   -3.1712   -0.0300 C   0  0  0  0  0  0  0  0  0  0  0  0
   -8.6627   -3.2115   -1.2115 C   0  0  0  0  0  0  0  0  0  0  0  0
  -10.0676   -3.4837   -1.2655 C   0  0  0  0  0  0  0  0  0  0  0  0
  -10.8371   -3.7332   -0.1387 C   0  0  0  0  0  0  0  0  0  0  0  0
  -10.1226   -3.6796    1.0922 C   0  0  0  0  0  0  0  0  0  0  0  0
  -10.6025   -3.9117    2.4879 C   0  0  0  0  0  0  0  0  0  0  0  0
  -11.8913   -3.8328    2.9217 C   0  0  0  0  0  0  0  0  0  0  0  0
  -12.2376   -3.7880    4.3206 C   0  0  0  0  0  0  0  0  0  0  0  0
  -12.5313   -3.7448    5.4406 N   0  0  0  0  0  0  0  0  0  0  0  0
  -13.0071   -3.6678    2.0293 C   0  0  0  0  0  0  0  0  0  0  0  0
  -13.9198   -3.5415    1.3303 N   0  0  0  0  0  0  0  0  0  0  0  0
  -10.0424   -3.4013   -2.7635 C   0  0  0  0  0  0  0  0  0  0  0  0
  -10.1186   -4.7523   -3.5326 C   0  0  0  0  0  0  0  0  0  0  0  0
   -9.6848   -4.4478   -4.9458 C   0  0  0  0  0  0  0  0  0  0  0  0
   -8.3706   -4.1934   -4.8947 C   0  0  0  0  0  0  0  0  0  0  0  0
   -7.9649   -4.3326   -3.4465 C   0  0  0  0  0  0  0  0  0  0  0  0
   -8.8742   -5.4870   -3.0597 C   0  0  0  0  0  0  0  0  0  0  0  0
   -8.6039   -3.1212   -2.7057 C   0  0  0  0  0  0  0  0  0  0  0  0
    2.5785    3.2131   -7.9501 H   0  0  0  0  0  0  0  0  0  0  0  0
    3.7311   -0.9775   -3.4403 H   0  0  0  0  0  0  0  0  0  0  0  0
    4.0712   -2.1134   -8.4054 H   0  0  0  0  0  0  0  0  0  0  0  0
    6.3817   -3.8183   -6.4987 H   0  0  0  0  0  0  0  0  0  0  0  0
    4.3362   -5.6037   -7.0827 H   0  0  0  0  0  0  0  0  0  0  0  0
    6.1716   -7.0386   -5.7971 H   0  0  0  0  0  0  0  0  0  0  0  0
    6.1013   -6.3758   -3.2685 H   0  0  0  0  0  0  0  0  0  0  0  0
    4.2122   -4.5377   -2.9389 H   0  0  0  0  0  0  0  0  0  0  0  0
    2.8213   -4.3853   -5.2254 H   0  0  0  0  0  0  0  0  0  0  0  0
    3.1134   -6.1175   -4.7706 H   0  0  0  0  0  0  0  0  0  0  0  0
    6.2990   -3.2057   -4.1884 H   0  0  0  0  0  0  0  0  0  0  0  0
   -1.3353    2.1595   -3.4892 H   0  0  0  0  0  0  0  0  0  0  0  0
   -2.9047    2.8699   -1.7287 H   0  0  0  0  0  0  0  0  0  0  0  0
   -4.2811    4.7487   -0.8152 H   0  0  0  0  0  0  0  0  0  0  0  0
   -3.7235    6.4480   -1.0026 H   0  0  0  0  0  0  0  0  0  0  0  0
   -2.8643    5.3391    0.1457 H   0  0  0  0  0  0  0  0  0  0  0  0
   -1.7395    6.9733   -2.3471 H   0  0  0  0  0  0  0  0  0  0  0  0
   -0.1816    6.2597   -4.1109 H   0  0  0  0  0  0  0  0  0  0  0  0
   -1.1633    1.6279   -5.7889 H   0  0  0  0  0  0  0  0  0  0  0  0
   -2.2234    1.3164   -7.9826 H   0  0  0  0  0  0  0  0  0  0  0  0
   -1.7462    2.1136  -10.6087 H   0  0  0  0  0  0  0  0  0  0  0  0
   -2.0331    3.8858  -10.7787 H   0  0  0  0  0  0  0  0  0  0  0  0
   -3.2764    2.8519   -9.9890 H   0  0  0  0  0  0  0  0  0  0  0  0
   -0.7055    5.1458   -9.2537 H   0  0  0  0  0  0  0  0  0  0  0  0
    0.3324    5.4663   -7.0490 H   0  0  0  0  0  0  0  0  0  0  0  0
    7.5938    5.8275   -0.5499 H   0  0  0  0  0  0  0  0  0  0  0  0
    9.9691    5.5371   -1.0626 H   0  0  0  0  0  0  0  0  0  0  0  0
   11.5043    5.5387   -3.5156 H   0  0  0  0  0  0  0  0  0  0  0  0
   11.2494    3.9071   -4.2382 H   0  0  0  0  0  0  0  0  0  0  0  0
   11.6369    4.0565   -2.4856 H   0  0  0  0  0  0  0  0  0  0  0  0
    8.9391    3.7919   -4.8567 H   0  0  0  0  0  0  0  0  0  0  0  0
    6.5844    4.0393   -4.3366 H   0  0  0  0  0  0  0  0  0  0  0  0
    5.3748    6.1510    0.3921 H   0  0  0  0  0  0  0  0  0  0  0  0
    4.4850    8.3132    1.1484 H   0  0  0  0  0  0  0  0  0  0  0  0
    2.4476   10.4382   -0.7832 H   0  0  0  0  0  0  0  0  0  0  0  0
    4.0964   11.1865   -0.8153 H   0  0  0  0  0  0  0  0  0  0  0  0
    3.4721   10.4367    0.6977 H   0  0  0  0  0  0  0  0  0  0  0  0
    3.7837    9.4463   -2.9569 H   0  0  0  0  0  0  0  0  0  0  0  0
    4.6952    7.2854   -3.7014 H   0  0  0  0  0  0  0  0  0  0  0  0
    7.4962    3.1078    1.0100 H   0  0  0  0  0  0  0  0  0  0  0  0
    9.4511    2.2337   -0.1941 H   0  0  0  0  0  0  0  0  0  0  0  0
    9.1679    0.9275   -2.2634 H   0  0  0  0  0  0  0  0  0  0  0  0
    5.9884   -0.4644   -3.3142 H   0  0  0  0  0  0  0  0  0  0  0  0
    7.7299   -0.4145   -3.6502 H   0  0  0  0  0  0  0  0  0  0  0  0
    5.6557    1.6633   -4.6205 H   0  0  0  0  0  0  0  0  0  0  0  0
    7.4519    1.7138   -4.9237 H   0  0  0  0  0  0  0  0  0  0  0  0
    6.4672    0.3798   -5.6100 H   0  0  0  0  0  0  0  0  0  0  0  0
    4.8930    1.4235   -1.9800 H   0  0  0  0  0  0  0  0  0  0  0  0
   -4.5177   -5.2441    8.7173 H   0  0  0  0  0  0  0  0  0  0  0  0
   -4.5703   -7.4094    9.8814 H   0  0  0  0  0  0  0  0  0  0  0  0
   -2.9278   -9.1676    9.3372 H   0  0  0  0  0  0  0  0  0  0  0  0
    0.0101   -8.6144    7.0830 H   0  0  0  0  0  0  0  0  0  0  0  0
   -0.6508   -9.6363    8.3938 H   0  0  0  0  0  0  0  0  0  0  0  0
   -1.7344   -9.4904    5.5029 H   0  0  0  0  0  0  0  0  0  0  0  0
   -2.4037  -10.5265    6.8318 H   0  0  0  0  0  0  0  0  0  0  0  0
   -0.7337  -10.8168    6.2088 H   0  0  0  0  0  0  0  0  0  0  0  0
   -1.1875   -6.6111    6.3438 H   0  0  0  0  0  0  0  0  0  0  0  0
    0.2640    2.6723    3.1096 H   0  0  0  0  0  0  0  0  0  0  0  0
    0.0187    1.8919    4.7275 H   0  0  0  0  0  0  0  0  0  0  0  0
    1.9972    4.1336    4.0900 H   0  0  0  0  0  0  0  0  0  0  0  0
    1.9522    3.2051    5.6446 H   0  0  0  0  0  0  0  0  0  0  0  0
    0.5288    4.1922    5.1361 H   0  0  0  0  0  0  0  0  0  0  0  0
   -2.1429    0.0070    4.1713 H   0  0  0  0  0  0  0  0  0  0  0  0
   -0.7222    0.5047    3.2043 H   0  0  0  0  0  0  0  0  0  0  0  0
   -1.9056   -2.3119    3.1718 H   0  0  0  0  0  0  0  0  0  0  0  0
   -0.4187   -1.7656    2.3052 H   0  0  0  0  0  0  0  0  0  0  0  0
   -2.0264   -1.0419    1.8941 H   0  0  0  0  0  0  0  0  0  0  0  0
   -4.8601   -5.8810    5.0487 H   0  0  0  0  0  0  0  0  0  0  0  0
   -7.1705   -6.1816    4.2445 H   0  0  0  0  0  0  0  0  0  0  0  0
   -7.2709    0.1972    8.7676 H   0  0  0  0  0  0  0  0  0  0  0  0
   -8.9623   -0.0041    8.1932 H   0  0  0  0  0  0  0  0  0  0  0  0
   -6.5339    0.6855    6.4037 H   0  0  0  0  0  0  0  0  0  0  0  0
   -7.7775    1.8588    6.9951 H   0  0  0  0  0  0  0  0  0  0  0  0
   -8.2560    0.5438    5.8592 H   0  0  0  0  0  0  0  0  0  0  0  0
  -10.0998   -4.8480    5.1181 H   0  0  0  0  0  0  0  0  0  0  0  0
   -6.8775   -3.0024    0.0014 H   0  0  0  0  0  0  0  0  0  0  0  0
  -11.8796   -3.9826   -0.2319 H   0  0  0  0  0  0  0  0  0  0  0  0
  -10.6587   -2.5711   -3.1774 H   0  0  0  0  0  0  0  0  0  0  0  0
  -11.0739   -5.3090   -3.4359 H   0  0  0  0  0  0  0  0  0  0  0  0
  -10.2795   -4.5284   -5.8490 H   0  0  0  0  0  0  0  0  0  0  0  0
   -7.7218   -4.0338   -5.7507 H   0  0  0  0  0  0  0  0  0  0  0  0
   -6.8800   -4.4902   -3.2723 H   0  0  0  0  0  0  0  0  0  0  0  0
   -8.8685   -5.7264   -1.9723 H   0  0  0  0  0  0  0  0  0  0  0  0
   -8.6738   -6.4253   -3.6322 H   0  0  0  0  0  0  0  0  0  0  0  0
   -8.3082   -2.1159   -3.0807 H   0  0  0  0  0  0  0  0  0  0  0  0
  1  2  2  3
  2  3  1  0
  3  4  2  0
  3  5  1  0
  5  6  2  0
  6  7  1  0
  7  8  2  0
  8  9  1  0
  9 10  2  0
 10 11  1  0
 11 12  2  3
 12 13  1  0
 13 14  3  0
 12 15  1  0
 15 16  3  0
  8 17  1  0
 17 18  1  0
 18 19  1  0
 19 20  2  0
 20 21  1  0
 21 22  1  0
 21 23  1  0
  1 24  1  0
 24 25  2  0
 25 26  1  0
 26 27  1  0
 27 28  2  0
 28 29  1  0
 29 30  2  0
 30 31  1  0
 30 32  1  0
 32 33  2  0
 26 34  1  0
 34 35  2  0
 35 36  1  0
 36 37  2  0
 37 38  1  0
 37 39  1  0
 39 40  2  0
 25 41  1  0
 41 42  1  0
 42 43  1  0
 43 44  2  0
 44 45  1  0
 45 46  1  0
 46 47  2  0
 47 48  1  0
 48 49  2  0
 49 50  1  0
 49 51  1  0
 51 52  2  0
 45 53  1  0
 53 54  2  0
 54 55  1  0
 55 56  2  0
 56 57  1  0
 56 58  1  0
 58 59  2  0
 44 60  1  0
 60 61  1  0
 43 62  1  0
 62 63  2  0
 63 64  1  0
 64 65  2  0
 65 66  1  0
 66 67  2  0
 67 68  1  0
 68 69  1  0
 69 70  1  0
 68 71  2  0
 63 72  1  0
 72 73  1  0
 73 74  1  0
 74 75  1  0
 75 76  1  0
 76 77  1  0
 77 78  2  0
 78 79  1  0
 79 80  1  0
 77 81  1  0
 81 82  1  0
 82 83  1  0
 83 84  1  0
 84 85  1  0
 85 86  1  0
 86 87  2  0
 87 88  1  0
 88 89  2  0
 89 90  1  0
 90 91  1  0
 91 92  1  0
 90 93  2  0
 85 94  2  0
 94 95  1  0
 95 96  1  0
 96 97  1  0
 97 98  1  0
 98 99  1  0
 99100  1  0
100101  1  0
101102  1  0
102103  1  0
103104  1  0
101105  1  0
105106  1  0
 98107  1  0
107108  1  0
 94109  1  0
109110  2  0
110111  1  0
111112  2  0
112113  1  0
113114  1  0
114115  2  0
114116  1  0
116117  1  0
117118  1  0
116119  1  0
119120  2  0
119121  1  0
112122  1  0
122123  2  3
123124  1  0
124125  2  0
124126  1  0
126127  2  0
127128  1  0
128129  2  0
129130  1  0
130131  2  0
131132  1  0
132133  2  3
133134  1  0
134135  3  0
133136  1  0
136137  3  0
129138  1  0
138139  1  0
139140  1  0
140141  2  0
141142  1  0
142143  1  0
142144  1  0
 11  2  1  0
 23 17  1  0
 61 24  1  0
104 62  1  0
121109  1  0
132123  1  0
144138  1  0
 10  5  1  0
 22 18  1  0
 33 27  1  0
 40 34  1  0
 60 41  2  0
 71 64  1  0
103 72  2  0
121113  2  0
131126  1  0
143139  1  0
 23  7  1  0
 52 46  1  0
 59 53  1  0
102 74  2  0
144128  1  0
100 75  2  0
 80 76  2  0
 99 81  2  0
 97 82  2  0
 96 84  2  0
 93 86  1  0
  1145  1  0
  6146  1  0
  9147  1  0
 17148  1  0
 18149  1  0
 19150  1  0
 20151  1  0
 21152  1  0
 22153  1  0
 22154  1  0
 23155  1  0
 28156  1  0
 29157  1  0
 31158  1  0
 31159  1  0
 31160  1  0
 32161  1  0
 33162  1  0
 35163  1  0
 36164  1  0
 38165  1  0
 38166  1  0
 38167  1  0
 39168  1  0
 40169  1  0
 47170  1  0
 48171  1  0
 50172  1  0
 50173  1  0
 50174  1  0
 51175  1  0
 52176  1  0
 54177  1  0
 55178  1  0
 57179  1  0
 57180  1  0
 57181  1  0
 58182  1  0
 59183  1  0
 65184  1  0
 66185  1  0
 67186  1  0
 69187  1  0
 69188  1  0
 70189  1  0
 70190  1  0
 70191  1  0
 71192  1  0
 87193  1  0
 88194  1  0
 89195  1  0
 91196  1  0
 91197  1  0
 92198  1  0
 92199  1  0
 92200  1  0
 93201  1  0
105202  1  0
105203  1  0
106204  1  0
106205  1  0
106206  1  0
107207  1  0
107208  1  0
108209  1  0
108210  1  0
108211  1  0
110212  1  0
111213  1  0
117214  1  0
117215  1  0
118216  1  0
118217  1  0
118218  1  0
122219  1  0
127220  1  0
130221  1  0
138222  1  0
139223  1  0
140224  1  0
141225  1  0
142226  1  0
143227  1  0
143228  1  0
144229  1  0
M  END

