
     RDKit          3D

258286  0  0  0  0  0  0  0  0999 V2000
    5.0218   -4.3037    0.7070 C   0  0  0  0  0  0  0  0  0  0  0  0
    6.1771   -3.7810    0.2553 C   0  0  0  0  0  0  0  0  0  0  0  0
    7.0081   -2.8495    1.0288 C   0  0  0  0  0  0  0  0  0  0  0  0
    7.1345   -2.8440    2.2832 O   0  0  0  0  0  0  0  0  0  0  0  0
    7.6587   -1.9374    0.1266 C   0  0  0  0  0  0  0  0  0  0  0  0
    8.3660   -0.7724    0.4810 C   0  0  0  0  0  0  0  0  0  0  0  0
    8.6684    0.0349   -0.5897 C   0  0  0  0  0  0  0  0  0  0  0  0
    8.3049   -0.2707   -1.9405 C   0  0  0  0  0  0  0  0  0  0  0  0
    7.6281   -1.4257   -2.2967 C   0  0  0  0  0  0  0  0  0  0  0  0
    7.3227   -2.2915   -1.2082 C   0  0  0  0  0  0  0  0  0  0  0  0
    6.5106   -3.5412   -1.1795 C   0  0  0  0  0  0  0  0  0  0  0  0
    6.1875   -4.3361   -2.2327 C   0  0  0  0  0  0  0  0  0  0  0  0
    5.5448   -5.6110   -2.0569 C   0  0  0  0  0  0  0  0  0  0  0  0
    5.0317   -6.6443   -1.9354 N   0  0  0  0  0  0  0  0  0  0  0  0
    6.4994   -3.9928   -3.5925 C   0  0  0  0  0  0  0  0  0  0  0  0
    6.7148   -3.7077   -4.6961 N   0  0  0  0  0  0  0  0  0  0  0  0
    8.8803    1.0344   -2.4076 C   0  0  0  0  0  0  0  0  0  0  0  0
   10.2373    1.0195   -3.1761 C   0  0  0  0  0  0  0  0  0  0  0  0
   11.0620   -0.1641   -2.7274 C   0  0  0  0  0  0  0  0  0  0  0  0
   11.4137    0.0701   -1.4650 C   0  0  0  0  0  0  0  0  0  0  0  0
   10.8292    1.4175   -1.0966 C   0  0  0  0  0  0  0  0  0  0  0  0
   10.9690    2.1215   -2.4331 C   0  0  0  0  0  0  0  0  0  0  0  0
    9.2769    1.3301   -1.0250 C   0  0  0  0  0  0  0  0  0  0  0  0
    4.3213   -3.7029    1.8563 C   0  0  0  0  0  0  0  0  0  0  0  0
    3.5368   -4.3820    2.8066 C   0  0  0  0  0  0  0  0  0  0  0  0
    3.3756   -5.8068    2.8442 N   0  0  0  0  0  0  0  0  0  0  0  0
    2.0761   -6.3649    2.5510 C   0  0  0  0  0  0  0  0  0  0  0  0
    1.2365   -5.7518    1.6006 C   0  0  0  0  0  0  0  0  0  0  0  0
   -0.0326   -6.2669    1.3303 C   0  0  0  0  0  0  0  0  0  0  0  0
   -0.4901   -7.4026    2.0062 C   0  0  0  0  0  0  0  0  0  0  0  0
   -1.8785   -7.9135    1.7547 C   0  0  0  0  0  0  0  0  0  0  0  0
    0.3318   -8.0122    2.9711 C   0  0  0  0  0  0  0  0  0  0  0  0
    1.6052   -7.4977    3.2420 C   0  0  0  0  0  0  0  0  0  0  0  0
    4.5315   -6.6398    3.0805 C   0  0  0  0  0  0  0  0  0  0  0  0
    4.7166   -7.8351    2.3602 C   0  0  0  0  0  0  0  0  0  0  0  0
    5.8496   -8.6211    2.5717 C   0  0  0  0  0  0  0  0  0  0  0  0
    6.8244   -8.2273    3.4982 C   0  0  0  0  0  0  0  0  0  0  0  0
    8.0192   -9.0925    3.7495 C   0  0  0  0  0  0  0  0  0  0  0  0
    6.6387   -7.0441    4.2319 C   0  0  0  0  0  0  0  0  0  0  0  0
    5.5056   -6.2561    4.0234 C   0  0  0  0  0  0  0  0  0  0  0  0
    2.7733   -3.4870    3.5600 C   0  0  0  0  0  0  0  0  0  0  0  0
    1.5750   -3.6379    4.7334 S   0  0  0  0  0  0  0  0  0  0  0  0
    1.2096   -1.9675    4.7308 C   0  0  0  0  0  0  0  0  0  0  0  0
    2.0050   -1.3102    3.7767 C   0  0  0  0  0  0  0  0  0  0  0  0
    1.6925   -0.0257    3.2212 N   0  0  0  0  0  0  0  0  0  0  0  0
    2.7016    0.9912    3.1920 C   0  0  0  0  0  0  0  0  0  0  0  0
    3.3159    1.3351    1.9814 C   0  0  0  0  0  0  0  0  0  0  0  0
    4.3045    2.3174    1.9446 C   0  0  0  0  0  0  0  0  0  0  0  0
    4.6974    2.9693    3.1230 C   0  0  0  0  0  0  0  0  0  0  0  0
    5.7431    4.0394    3.0812 C   0  0  0  0  0  0  0  0  0  0  0  0
    4.0836    2.6252    4.3426 C   0  0  0  0  0  0  0  0  0  0  0  0
    3.0902    1.6388    4.3739 C   0  0  0  0  0  0  0  0  0  0  0  0
    0.5376    0.1066    2.3703 C   0  0  0  0  0  0  0  0  0  0  0  0
   -0.3103    1.2181    2.5033 C   0  0  0  0  0  0  0  0  0  0  0  0
   -1.4524    1.3310    1.7049 C   0  0  0  0  0  0  0  0  0  0  0  0
   -1.7579    0.3399    0.7595 C   0  0  0  0  0  0  0  0  0  0  0  0
   -3.0261    0.4204   -0.0382 C   0  0  0  0  0  0  0  0  0  0  0  0
   -0.8951   -0.7552    0.6044 C   0  0  0  0  0  0  0  0  0  0  0  0
    0.2457   -0.8719    1.4010 C   0  0  0  0  0  0  0  0  0  0  0  0
    2.8955   -2.1868    3.1898 C   0  0  0  0  0  0  0  0  0  0  0  0
    3.9637   -2.0403    1.9170 S   0  0  0  0  0  0  0  0  0  0  0  0
    0.2601   -1.2789    5.6121 C   0  0  0  0  0  0  0  0  0  0  0  0
    0.6491   -0.2397    6.4976 C   0  0  0  0  0  0  0  0  0  0  0  0
    1.8645   -0.2167    7.3781 C   0  0  0  0  0  0  0  0  0  0  0  0
    3.0600   -0.8967    7.0669 C   0  0  0  0  0  0  0  0  0  0  0  0
    4.1298   -0.8937    7.9600 C   0  0  0  0  0  0  0  0  0  0  0  0
    4.0518   -0.2001    9.1705 C   0  0  0  0  0  0  0  0  0  0  0  0
    2.8858    0.4989    9.5019 C   0  0  0  0  0  0  0  0  0  0  0  0
    2.7907    1.2757   10.7929 C   0  0  0  0  0  0  0  0  0  0  0  0
    1.8287    0.6074   11.7750 C   0  0  0  0  0  0  0  0  0  0  0  0
    1.7986    0.4719    8.6134 C   0  0  0  0  0  0  0  0  0  0  0  0
   -0.3423    0.7531    6.5532 C   0  0  0  0  0  0  0  0  0  0  0  0
   -0.1861    2.4303    6.8085 S   0  0  0  0  0  0  0  0  0  0  0  0
   -1.7178    2.7234    6.1601 C   0  0  0  0  0  0  0  0  0  0  0  0
   -2.3178    3.7788    5.5196 C   0  0  0  0  0  0  0  0  0  0  0  0
   -1.8392    5.0699    5.2275 C   0  0  0  0  0  0  0  0  0  0  0  0
   -2.5002    5.8411    4.2137 C   0  0  0  0  0  0  0  0  0  0  0  0
   -1.9609    7.0456    3.9052 N   0  0  0  0  0  0  0  0  0  0  0  0
   -0.6666    7.0426    4.9423 S   0  0  0  0  0  0  0  0  0  0  0  0
   -0.7240    5.6102    5.7724 N   0  0  0  0  0  0  0  0  0  0  0  0
   -3.6503    5.3104    3.6136 C   0  0  0  0  0  0  0  0  0  0  0  0
   -4.4729    5.7585    2.6034 C   0  0  0  0  0  0  0  0  0  0  0  0
   -4.1262    6.6051    1.1678 S   0  0  0  0  0  0  0  0  0  0  0  0
   -5.1984    5.6512    0.2526 C   0  0  0  0  0  0  0  0  0  0  0  0
   -5.2154    5.3468   -1.1266 C   0  0  0  0  0  0  0  0  0  0  0  0
   -4.8715    6.3133   -2.1855 C   0  0  0  0  0  0  0  0  0  0  0  0
   -3.6592    7.0151   -2.1520 C   0  0  0  0  0  0  0  0  0  0  0  0
   -3.3884    8.0027   -3.1024 C   0  0  0  0  0  0  0  0  0  0  0  0
   -4.3407    8.3243   -4.0718 C   0  0  0  0  0  0  0  0  0  0  0  0
   -5.5726    7.6546   -4.1048 C   0  0  0  0  0  0  0  0  0  0  0  0
   -6.6464    8.0901   -5.0748 C   0  0  0  0  0  0  0  0  0  0  0  0
   -6.3654    7.6107   -6.4942 C   0  0  0  0  0  0  0  0  0  0  0  0
   -5.8204    6.6239   -3.1789 C   0  0  0  0  0  0  0  0  0  0  0  0
   -5.6738    4.0266   -1.3422 C   0  0  0  0  0  0  0  0  0  0  0  0
   -6.1156    3.3504    0.1496 S   0  0  0  0  0  0  0  0  0  0  0  0
   -5.7451    4.6820    1.0625 C   0  0  0  0  0  0  0  0  0  0  0  0
   -5.3916    4.7648    2.3966 C   0  0  0  0  0  0  0  0  0  0  0  0
   -5.2579    3.7267    3.2587 N   0  0  0  0  0  0  0  0  0  0  0  0
   -4.1238    4.0407    3.9365 C   0  0  0  0  0  0  0  0  0  0  0  0
   -3.3800    3.2149    4.8034 C   0  0  0  0  0  0  0  0  0  0  0  0
   -3.3502    1.8431    4.8677 N   0  0  0  0  0  0  0  0  0  0  0  0
   -2.3173    1.5858    5.7113 C   0  0  0  0  0  0  0  0  0  0  0  0
   -1.5100    0.4696    5.8895 C   0  0  0  0  0  0  0  0  0  0  0  0
   -1.3208   -0.9728    5.0615 S   0  0  0  0  0  0  0  0  0  0  0  0
   -3.9776    0.8784    3.9563 C   0  0  0  0  0  0  0  0  0  0  0  0
   -4.8975   -0.0798    4.7107 C   0  0  0  0  0  0  0  0  0  0  0  0
   -6.4184    3.1825    3.9792 C   0  0  0  0  0  0  0  0  0  0  0  0
   -7.4028    2.4669    3.0618 C   0  0  0  0  0  0  0  0  0  0  0  0
   -5.5497    3.1546   -2.5310 C   0  0  0  0  0  0  0  0  0  0  0  0
   -4.4691    3.0200   -3.4398 C   0  0  0  0  0  0  0  0  0  0  0  0
   -3.3178    3.8781   -3.5412 N   0  0  0  0  0  0  0  0  0  0  0  0
   -3.1412    4.7188   -4.7172 C   0  0  0  0  0  0  0  0  0  0  0  0
   -4.0101    4.6261   -5.8297 C   0  0  0  0  0  0  0  0  0  0  0  0
   -3.7902    5.4042   -6.9710 C   0  0  0  0  0  0  0  0  0  0  0  0
   -2.7146    6.2941   -7.0317 C   0  0  0  0  0  0  0  0  0  0  0  0
   -2.4800    7.0995   -8.2723 C   0  0  0  0  0  0  0  0  0  0  0  0
   -1.8535    6.4064   -5.9296 C   0  0  0  0  0  0  0  0  0  0  0  0
   -2.0704    5.6348   -4.7856 C   0  0  0  0  0  0  0  0  0  0  0  0
   -2.1672    3.5457   -2.7379 C   0  0  0  0  0  0  0  0  0  0  0  0
   -1.0142    2.9986   -3.3385 C   0  0  0  0  0  0  0  0  0  0  0  0
    0.1541    2.8024   -2.5920 C   0  0  0  0  0  0  0  0  0  0  0  0
    0.1808    3.1359   -1.2290 C   0  0  0  0  0  0  0  0  0  0  0  0
    1.4424    2.9996   -0.4334 C   0  0  0  0  0  0  0  0  0  0  0  0
   -0.9641    3.6700   -0.6286 C   0  0  0  0  0  0  0  0  0  0  0  0
   -2.1309    3.8496   -1.3684 C   0  0  0  0  0  0  0  0  0  0  0  0
   -4.5734    1.8257   -4.1680 C   0  0  0  0  0  0  0  0  0  0  0  0
   -3.6014    1.0134   -5.2788 S   0  0  0  0  0  0  0  0  0  0  0  0
   -4.5823   -0.3923   -5.3139 C   0  0  0  0  0  0  0  0  0  0  0  0
   -5.6391   -0.2303   -4.4032 C   0  0  0  0  0  0  0  0  0  0  0  0
   -6.4532   -1.3006   -3.9030 N   0  0  0  0  0  0  0  0  0  0  0  0
   -6.1340   -1.7703   -2.5776 C   0  0  0  0  0  0  0  0  0  0  0  0
   -4.9109   -2.4055   -2.3224 C   0  0  0  0  0  0  0  0  0  0  0  0
   -4.5377   -2.7319   -1.0161 C   0  0  0  0  0  0  0  0  0  0  0  0
   -5.3759   -2.3992    0.0594 C   0  0  0  0  0  0  0  0  0  0  0  0
   -4.9158   -2.6525    1.4648 C   0  0  0  0  0  0  0  0  0  0  0  0
   -6.6106   -1.7809   -0.1933 C   0  0  0  0  0  0  0  0  0  0  0  0
   -6.9951   -1.4795   -1.5032 C   0  0  0  0  0  0  0  0  0  0  0  0
   -7.7404   -1.5878   -4.4978 C   0  0  0  0  0  0  0  0  0  0  0  0
   -8.4003   -2.7934   -4.1999 C   0  0  0  0  0  0  0  0  0  0  0  0
   -9.6775   -3.0445   -4.7060 C   0  0  0  0  0  0  0  0  0  0  0  0
  -10.3280   -2.0969   -5.5013 C   0  0  0  0  0  0  0  0  0  0  0  0
  -11.7043   -2.3654   -6.0352 C   0  0  0  0  0  0  0  0  0  0  0  0
   -9.6538   -0.9140   -5.8522 C   0  0  0  0  0  0  0  0  0  0  0  0
   -8.3739   -0.6600   -5.3488 C   0  0  0  0  0  0  0  0  0  0  0  0
   -5.6194    1.0336   -3.8345 C   0  0  0  0  0  0  0  0  0  0  0  0
   -6.5214    1.7618   -2.6479 S   0  0  0  0  0  0  0  0  0  0  0  0
   -4.2680   -1.6424   -6.0255 C   0  0  0  0  0  0  0  0  0  0  0  0
   -4.1649   -1.7291   -7.3608 C   0  0  0  0  0  0  0  0  0  0  0  0
   -4.3864   -0.6868   -8.3785 C   0  0  0  0  0  0  0  0  0  0  0  0
   -4.6632    0.5227   -8.1668 O   0  0  0  0  0  0  0  0  0  0  0  0
   -4.2880   -1.3136   -9.6934 C   0  0  0  0  0  0  0  0  0  0  0  0
   -4.4630   -0.7498  -10.9556 C   0  0  0  0  0  0  0  0  0  0  0  0
   -4.3514   -1.5853  -12.0838 C   0  0  0  0  0  0  0  0  0  0  0  0
   -4.5928   -0.8910  -13.6781 Cl  0  0  0  0  0  0  0  0  0  0  0  0
   -4.0580   -2.9637  -11.9204 C   0  0  0  0  0  0  0  0  0  0  0  0
   -3.9276   -4.0323  -13.3106 Cl  0  0  0  0  0  0  0  0  0  0  0  0
   -3.8917   -3.5086  -10.6356 C   0  0  0  0  0  0  0  0  0  0  0  0
   -4.0131   -2.6574   -9.5375 C   0  0  0  0  0  0  0  0  0  0  0  0
   -3.9251   -2.9654   -8.1126 C   0  0  0  0  0  0  0  0  0  0  0  0
   -3.6899   -4.0965   -7.6180 O   0  0  0  0  0  0  0  0  0  0  0  0
    4.4053   -4.9124    0.0695 H   0  0  0  0  0  0  0  0  0  0  0  0
    8.5977   -0.5006    1.5036 H   0  0  0  0  0  0  0  0  0  0  0  0
    7.3237   -1.5845   -3.3195 H   0  0  0  0  0  0  0  0  0  0  0  0
    8.1214    1.7470   -2.8109 H   0  0  0  0  0  0  0  0  0  0  0  0
   10.1621    1.1544   -4.2771 H   0  0  0  0  0  0  0  0  0  0  0  0
   11.3341   -1.0306   -3.3188 H   0  0  0  0  0  0  0  0  0  0  0  0
   11.9952   -0.5908   -0.8293 H   0  0  0  0  0  0  0  0  0  0  0  0
   11.3146    1.9250   -0.2377 H   0  0  0  0  0  0  0  0  0  0  0  0
   12.0280    2.2553   -2.7514 H   0  0  0  0  0  0  0  0  0  0  0  0
   10.4423    3.1038   -2.4792 H   0  0  0  0  0  0  0  0  0  0  0  0
    8.7739    2.2276   -0.5900 H   0  0  0  0  0  0  0  0  0  0  0  0
    1.5600   -4.8737    1.0584 H   0  0  0  0  0  0  0  0  0  0  0  0
   -0.6561   -5.7661    0.5975 H   0  0  0  0  0  0  0  0  0  0  0  0
   -2.6064   -7.2852    2.3121 H   0  0  0  0  0  0  0  0  0  0  0  0
   -2.1229   -7.8641    0.6705 H   0  0  0  0  0  0  0  0  0  0  0  0
   -1.9884   -8.9718    2.0783 H   0  0  0  0  0  0  0  0  0  0  0  0
   -0.0144   -8.8750    3.5184 H   0  0  0  0  0  0  0  0  0  0  0  0
    2.2215   -7.9682    3.9964 H   0  0  0  0  0  0  0  0  0  0  0  0
    3.9913   -8.1475    1.6245 H   0  0  0  0  0  0  0  0  0  0  0  0
    5.9677   -9.5373    2.0123 H   0  0  0  0  0  0  0  0  0  0  0  0
    8.3191   -9.6217    2.8194 H   0  0  0  0  0  0  0  0  0  0  0  0
    8.8869   -8.4855    4.0872 H   0  0  0  0  0  0  0  0  0  0  0  0
    7.7769   -9.8450    4.5311 H   0  0  0  0  0  0  0  0  0  0  0  0
    7.3733   -6.7395    4.9669 H   0  0  0  0  0  0  0  0  0  0  0  0
    5.3786   -5.3487    4.5997 H   0  0  0  0  0  0  0  0  0  0  0  0
    3.0350    0.8356    1.0633 H   0  0  0  0  0  0  0  0  0  0  0  0
    4.7664    2.5678    0.9939 H   0  0  0  0  0  0  0  0  0  0  0  0
    5.2581    5.0336    3.1506 H   0  0  0  0  0  0  0  0  0  0  0  0
    6.3215    3.9926    2.1337 H   0  0  0  0  0  0  0  0  0  0  0  0
    6.4507    3.9143    3.9248 H   0  0  0  0  0  0  0  0  0  0  0  0
    4.3733    3.1226    5.2634 H   0  0  0  0  0  0  0  0  0  0  0  0
    2.6131    1.3948    5.3134 H   0  0  0  0  0  0  0  0  0  0  0  0
   -0.1056    1.9721    3.2564 H   0  0  0  0  0  0  0  0  0  0  0  0
   -2.1123    2.1803    1.8432 H   0  0  0  0  0  0  0  0  0  0  0  0
   -3.0645   -0.3736   -0.8138 H   0  0  0  0  0  0  0  0  0  0  0  0
   -3.8989    0.2941    0.6370 H   0  0  0  0  0  0  0  0  0  0  0  0
   -3.0983    1.3986   -0.5532 H   0  0  0  0  0  0  0  0  0  0  0  0
   -1.1040   -1.5259   -0.1274 H   0  0  0  0  0  0  0  0  0  0  0  0
    0.9000   -1.7274    1.2640 H   0  0  0  0  0  0  0  0  0  0  0  0
    3.2010   -1.4126    6.1410 H   0  0  0  0  0  0  0  0  0  0  0  0
    5.0333   -1.4397    7.7146 H   0  0  0  0  0  0  0  0  0  0  0  0
    4.8985   -0.2038    9.8448 H   0  0  0  0  0  0  0  0  0  0  0  0
    3.7855    1.3667   11.2732 H   0  0  0  0  0  0  0  0  0  0  0  0
    2.4377    2.3059   10.5753 H   0  0  0  0  0  0  0  0  0  0  0  0
    1.7296    1.2441   12.6799 H   0  0  0  0  0  0  0  0  0  0  0  0
    0.8162    0.4875   11.3302 H   0  0  0  0  0  0  0  0  0  0  0  0
    2.2110   -0.3915   12.0826 H   0  0  0  0  0  0  0  0  0  0  0  0
    0.8879    0.9767    8.9042 H   0  0  0  0  0  0  0  0  0  0  0  0
   -2.9094    6.7876   -1.4030 H   0  0  0  0  0  0  0  0  0  0  0  0
   -2.4387    8.5207   -3.0866 H   0  0  0  0  0  0  0  0  0  0  0  0
   -4.1270    9.1117   -4.7879 H   0  0  0  0  0  0  0  0  0  0  0  0
   -7.6405    7.7058   -4.7589 H   0  0  0  0  0  0  0  0  0  0  0  0
   -6.7123    9.1994   -5.0736 H   0  0  0  0  0  0  0  0  0  0  0  0
   -6.4187    6.5025   -6.5415 H   0  0  0  0  0  0  0  0  0  0  0  0
   -7.1279    8.0327   -7.1817 H   0  0  0  0  0  0  0  0  0  0  0  0
   -5.3624    7.9535   -6.8283 H   0  0  0  0  0  0  0  0  0  0  0  0
   -6.7703    6.1055   -3.1941 H   0  0  0  0  0  0  0  0  0  0  0  0
   -4.5456    1.3887    3.1639 H   0  0  0  0  0  0  0  0  0  0  0  0
   -3.2033    0.2915    3.4324 H   0  0  0  0  0  0  0  0  0  0  0  0
   -5.7120   -0.4213    4.0361 H   0  0  0  0  0  0  0  0  0  0  0  0
   -4.3307   -0.9733    5.0356 H   0  0  0  0  0  0  0  0  0  0  0  0
   -5.3515    0.4121    5.5948 H   0  0  0  0  0  0  0  0  0  0  0  0
   -6.9499    4.0121    4.4942 H   0  0  0  0  0  0  0  0  0  0  0  0
   -6.0939    2.4773    4.7641 H   0  0  0  0  0  0  0  0  0  0  0  0
   -7.8803    3.1909    2.3754 H   0  0  0  0  0  0  0  0  0  0  0  0
   -6.8869    1.6706    2.4862 H   0  0  0  0  0  0  0  0  0  0  0  0
   -8.1993    1.9986    3.6774 H   0  0  0  0  0  0  0  0  0  0  0  0
   -4.8545    3.9478   -5.8343 H   0  0  0  0  0  0  0  0  0  0  0  0
   -4.4681    5.3116   -7.8145 H   0  0  0  0  0  0  0  0  0  0  0  0
   -2.1109    6.4338   -9.0812 H   0  0  0  0  0  0  0  0  0  0  0  0
   -3.4252    7.5804   -8.6035 H   0  0  0  0  0  0  0  0  0  0  0  0
   -1.7278    7.9008   -8.1000 H   0  0  0  0  0  0  0  0  0  0  0  0
   -1.0146    7.0838   -5.9569 H   0  0  0  0  0  0  0  0  0  0  0  0
   -1.3941    5.7591   -3.9507 H   0  0  0  0  0  0  0  0  0  0  0  0
   -1.0176    2.7598   -4.3928 H   0  0  0  0  0  0  0  0  0  0  0  0
    1.0340    2.4042   -3.0865 H   0  0  0  0  0  0  0  0  0  0  0  0
    2.1375    2.2653   -0.8941 H   0  0  0  0  0  0  0  0  0  0  0  0
    1.9498    3.9851   -0.3661 H   0  0  0  0  0  0  0  0  0  0  0  0
    1.2055    2.6551    0.5928 H   0  0  0  0  0  0  0  0  0  0  0  0
   -0.9489    3.9541    0.4181 H   0  0  0  0  0  0  0  0  0  0  0  0
   -2.9866    4.2570   -0.8691 H   0  0  0  0  0  0  0  0  0  0  0  0
   -4.2321   -2.6299   -3.1324 H   0  0  0  0  0  0  0  0  0  0  0  0
   -3.5808   -3.2105   -0.8413 H   0  0  0  0  0  0  0  0  0  0  0  0
   -4.7252   -3.7358    1.6070 H   0  0  0  0  0  0  0  0  0  0  0  0
   -5.6758   -2.3274    2.2043 H   0  0  0  0  0  0  0  0  0  0  0  0
   -3.9793   -2.0852    1.6544 H   0  0  0  0  0  0  0  0  0  0  0  0
   -7.2656   -1.5097    0.6257 H   0  0  0  0  0  0  0  0  0  0  0  0
   -7.9335   -0.9672   -1.6780 H   0  0  0  0  0  0  0  0  0  0  0  0
   -7.9306   -3.5405   -3.5750 H   0  0  0  0  0  0  0  0  0  0  0  0
  -10.1705   -3.9762   -4.4541 H   0  0  0  0  0  0  0  0  0  0  0  0
  -12.2422   -1.4159   -6.2364 H   0  0  0  0  0  0  0  0  0  0  0  0
  -12.2979   -2.9473   -5.2984 H   0  0  0  0  0  0  0  0  0  0  0  0
  -11.6314   -2.9439   -6.9779 H   0  0  0  0  0  0  0  0  0  0  0  0
  -10.1313   -0.1854   -6.4940 H   0  0  0  0  0  0  0  0  0  0  0  0
   -7.8946    0.2743   -5.6128 H   0  0  0  0  0  0  0  0  0  0  0  0
   -4.2133   -2.5556   -5.4494 H   0  0  0  0  0  0  0  0  0  0  0  0
   -4.6889    0.3044  -11.0647 H   0  0  0  0  0  0  0  0  0  0  0  0
   -3.6830   -4.5617  -10.4978 H   0  0  0  0  0  0  0  0  0  0  0  0
  1  2  2  3
  2  3  1  0
  3  4  2  0
  3  5  1  0
  5  6  2  0
  6  7  1  0
  7  8  2  0
  8  9  1  0
  9 10  2  0
 10 11  1  0
 11 12  2  3
 12 13  1  0
 13 14  3  0
 12 15  1  0
 15 16  3  0
  8 17  1  0
 17 18  1  0
 18 19  1  0
 19 20  2  0
 20 21  1  0
 21 22  1  0
 21 23  1  0
  1 24  1  0
 24 25  2  0
 25 26  1  0
 26 27  1  0
 27 28  2  0
 28 29  1  0
 29 30  2  0
 30 31  1  0
 30 32  1  0
 32 33  2  0
 26 34  1  0
 34 35  2  0
 35 36  1  0
 36 37  2  0
 37 38  1  0
 37 39  1  0
 39 40  2  0
 25 41  1  0
 41 42  1  0
 42 43  1  0
 43 44  2  0
 44 45  1  0
 45 46  1  0
 46 47  2  0
 47 48  1  0
 48 49  2  0
 49 50  1  0
 49 51  1  0
 51 52  2  0
 45 53  1  0
 53 54  2  0
 54 55  1  0
 55 56  2  0
 56 57  1  0
 56 58  1  0
 58 59  2  0
 44 60  1  0
 60 61  1  0
 43 62  1  0
 62 63  2  0
 63 64  1  0
 64 65  2  0
 65 66  1  0
 66 67  2  0
 67 68  1  0
 68 69  1  0
 69 70  1  0
 68 71  2  0
 63 72  1  0
 72 73  1  0
 73 74  1  0
 74 75  1  0
 75 76  1  0
 76 77  1  0
 77 78  2  0
 78 79  1  0
 79 80  1  0
 77 81  1  0
 81 82  1  0
 82 83  1  0
 83 84  1  0
 84 85  1  0
 85 86  1  0
 86 87  2  0
 87 88  1  0
 88 89  2  0
 89 90  1  0
 90 91  1  0
 91 92  1  0
 90 93  2  0
 85 94  2  0
 94 95  1  0
 95 96  1  0
 96 97  1  0
 97 98  1  0
 98 99  1  0
 99100  1  0
100101  1  0
101102  1  0
102103  1  0
103104  1  0
101105  1  0
105106  1  0
 98107  1  0
107108  1  0
 94109  1  0
109110  2  0
110111  1  0
111112  1  0
112113  2  0
113114  1  0
114115  2  0
115116  1  0
115117  1  0
117118  2  0
111119  1  0
119120  2  0
120121  1  0
121122  2  0
122123  1  0
122124  1  0
124125  2  0
110126  1  0
126127  1  0
127128  1  0
128129  2  0
129130  1  0
130131  1  0
131132  2  0
132133  1  0
133134  2  0
134135  1  0
134136  1  0
136137  2  0
130138  1  0
138139  2  0
139140  1  0
140141  2  0
141142  1  0
141143  1  0
143144  2  0
129145  1  0
145146  1  0
128147  1  0
147148  2  3
148149  1  0
149150  2  0
149151  1  0
151152  2  0
152153  1  0
153154  1  0
153155  2  0
155156  1  0
155157  1  0
157158  2  0
158159  1  0
159160  2  0
 11  2  1  0
 23 17  1  0
 61 24  1  0
104 62  1  0
146109  1  0
159148  1  0
 10  5  1  0
 22 18  1  0
 33 27  1  0
 40 34  1  0
 60 41  2  0
 71 64  1  0
103 72  2  0
118112  1  0
125119  1  0
145126  2  0
158151  1  0
 23  7  1  0
 52 46  1  0
 59 53  1  0
102 74  2  0
137131  1  0
144138  1  0
100 75  2  0
 80 76  2  0
 99 81  2  0
 97 82  2  0
 96 84  2  0
 93 86  1  0
  1161  1  0
  6162  1  0
  9163  1  0
 17164  1  0
 18165  1  0
 19166  1  0
 20167  1  0
 21168  1  0
 22169  1  0
 22170  1  0
 23171  1  0
 28172  1  0
 29173  1  0
 31174  1  0
 31175  1  0
 31176  1  0
 32177  1  0
 33178  1  0
 35179  1  0
 36180  1  0
 38181  1  0
 38182  1  0
 38183  1  0
 39184  1  0
 40185  1  0
 47186  1  0
 48187  1  0
 50188  1  0
 50189  1  0
 50190  1  0
 51191  1  0
 52192  1  0
 54193  1  0
 55194  1  0
 57195  1  0
 57196  1  0
 57197  1  0
 58198  1  0
 59199  1  0
 65200  1  0
 66201  1  0
 67202  1  0
 69203  1  0
 69204  1  0
 70205  1  0
 70206  1  0
 70207  1  0
 71208  1  0
 87209  1  0
 88210  1  0
 89211  1  0
 91212  1  0
 91213  1  0
 92214  1  0
 92215  1  0
 92216  1  0
 93217  1  0
105218  1  0
105219  1  0
106220  1  0
106221  1  0
106222  1  0
107223  1  0
107224  1  0
108225  1  0
108226  1  0
108227  1  0
113228  1  0
114229  1  0
116230  1  0
116231  1  0
116232  1  0
117233  1  0
118234  1  0
120235  1  0
121236  1  0
123237  1  0
123238  1  0
123239  1  0
124240  1  0
125241  1  0
132242  1  0
133243  1  0
135244  1  0
135245  1  0
135246  1  0
136247  1  0
137248  1  0
139249  1  0
140250  1  0
142251  1  0
142252  1  0
142253  1  0
143254  1  0
144255  1  0
147256  1  0
152257  1  0
157258  1  0
M  END

