
     RDKit          3D

259289  0  0  0  0  0  0  0  0999 V2000
    5.6475   -6.0965    0.1503 C   0  0  0  0  0  0  0  0  0  0  0  0
    5.8595   -5.2437    1.1652 C   0  0  0  0  0  0  0  0  0  0  0  0
    5.5504   -3.8064    1.1375 C   0  0  0  0  0  0  0  0  0  0  0  0
    4.8896   -3.1982    0.2561 O   0  0  0  0  0  0  0  0  0  0  0  0
    6.2554   -3.1622    2.2237 C   0  0  0  0  0  0  0  0  0  0  0  0
    6.2923   -1.7774    2.5055 C   0  0  0  0  0  0  0  0  0  0  0  0
    7.1241   -1.4421    3.5580 C   0  0  0  0  0  0  0  0  0  0  0  0
    7.8859   -2.4092    4.2898 C   0  0  0  0  0  0  0  0  0  0  0  0
    7.8608   -3.7655    4.0116 C   0  0  0  0  0  0  0  0  0  0  0  0
    6.9944   -4.1371    2.9456 C   0  0  0  0  0  0  0  0  0  0  0  0
    6.7184   -5.4828    2.3664 C   0  0  0  0  0  0  0  0  0  0  0  0
    6.9786   -6.6883    2.9405 C   0  0  0  0  0  0  0  0  0  0  0  0
    6.4367   -7.9208    2.4251 C   0  0  0  0  0  0  0  0  0  0  0  0
    6.0051   -8.9147    2.0164 N   0  0  0  0  0  0  0  0  0  0  0  0
    7.7279   -6.8292    4.1572 C   0  0  0  0  0  0  0  0  0  0  0  0
    8.3376   -6.9650    5.1337 N   0  0  0  0  0  0  0  0  0  0  0  0
    8.4519   -1.3289    5.1619 C   0  0  0  0  0  0  0  0  0  0  0  0
    7.9022   -1.1992    6.6161 C   0  0  0  0  0  0  0  0  0  0  0  0
    6.4598   -1.6549    6.6674 C   0  0  0  0  0  0  0  0  0  0  0  0
    5.7520   -0.7545    5.9839 C   0  0  0  0  0  0  0  0  0  0  0  0
    6.7340    0.2838    5.4897 C   0  0  0  0  0  0  0  0  0  0  0  0
    7.6790    0.3025    6.6781 C   0  0  0  0  0  0  0  0  0  0  0  0
    7.6743   -0.3381    4.4118 C   0  0  0  0  0  0  0  0  0  0  0  0
    4.6760   -5.8572   -0.9245 C   0  0  0  0  0  0  0  0  0  0  0  0
    4.9132   -6.0599   -2.2903 C   0  0  0  0  0  0  0  0  0  0  0  0
    6.2270   -6.1739   -2.8598 N   0  0  0  0  0  0  0  0  0  0  0  0
    7.0317   -4.9851   -2.9060 C   0  0  0  0  0  0  0  0  0  0  0  0
    7.9929   -4.7420   -1.9141 C   0  0  0  0  0  0  0  0  0  0  0  0
    8.7388   -3.5606   -1.9301 C   0  0  0  0  0  0  0  0  0  0  0  0
    8.5347   -2.6102   -2.9439 C   0  0  0  0  0  0  0  0  0  0  0  0
    9.3722   -1.3654   -2.9928 C   0  0  0  0  0  0  0  0  0  0  0  0
    7.5933   -2.8671   -3.9529 C   0  0  0  0  0  0  0  0  0  0  0  0
    6.8409   -4.0441   -3.9289 C   0  0  0  0  0  0  0  0  0  0  0  0
    6.7172   -7.4358   -3.3718 C   0  0  0  0  0  0  0  0  0  0  0  0
    6.0847   -8.6440   -3.0230 C   0  0  0  0  0  0  0  0  0  0  0  0
    6.5531   -9.8618   -3.5202 C   0  0  0  0  0  0  0  0  0  0  0  0
    7.6576   -9.8961   -4.3870 C   0  0  0  0  0  0  0  0  0  0  0  0
    8.1246  -11.2066   -4.9415 C   0  0  0  0  0  0  0  0  0  0  0  0
    8.2904   -8.6980   -4.7420 C   0  0  0  0  0  0  0  0  0  0  0  0
    7.8288   -7.4785   -4.2368 C   0  0  0  0  0  0  0  0  0  0  0  0
    3.7628   -5.8315   -3.0399 C   0  0  0  0  0  0  0  0  0  0  0  0
    3.4592   -5.6254   -4.6807 S   0  0  0  0  0  0  0  0  0  0  0  0
    1.8820   -5.0302   -4.4458 C   0  0  0  0  0  0  0  0  0  0  0  0
    1.6200   -4.9393   -3.0637 C   0  0  0  0  0  0  0  0  0  0  0  0
    0.6104   -4.0859   -2.4986 N   0  0  0  0  0  0  0  0  0  0  0  0
    0.9575   -2.7977   -1.9191 C   0  0  0  0  0  0  0  0  0  0  0  0
    0.0650   -2.1265   -1.0593 C   0  0  0  0  0  0  0  0  0  0  0  0
    0.3810   -0.8674   -0.5428 C   0  0  0  0  0  0  0  0  0  0  0  0
    1.6027   -0.2583   -0.8560 C   0  0  0  0  0  0  0  0  0  0  0  0
    1.9667    1.0758   -0.2757 C   0  0  0  0  0  0  0  0  0  0  0  0
    2.5174   -0.9374   -1.6698 C   0  0  0  0  0  0  0  0  0  0  0  0
    2.1966   -2.1894   -2.2016 C   0  0  0  0  0  0  0  0  0  0  0  0
   -0.7603   -4.5173   -2.5677 C   0  0  0  0  0  0  0  0  0  0  0  0
   -1.7160   -3.7265   -3.2227 C   0  0  0  0  0  0  0  0  0  0  0  0
   -3.0612   -4.1109   -3.2212 C   0  0  0  0  0  0  0  0  0  0  0  0
   -3.4607   -5.2858   -2.5689 C   0  0  0  0  0  0  0  0  0  0  0  0
   -4.8991   -5.7101   -2.5638 C   0  0  0  0  0  0  0  0  0  0  0  0
   -2.4965   -6.0939   -1.9452 C   0  0  0  0  0  0  0  0  0  0  0  0
   -1.1533   -5.7115   -1.9459 C   0  0  0  0  0  0  0  0  0  0  0  0
    2.6813   -5.4413   -2.3190 C   0  0  0  0  0  0  0  0  0  0  0  0
    3.0528   -5.3934   -0.6869 S   0  0  0  0  0  0  0  0  0  0  0  0
    1.2021   -4.2010   -5.4392 C   0  0  0  0  0  0  0  0  0  0  0  0
    0.1764   -4.5631   -6.3432 C   0  0  0  0  0  0  0  0  0  0  0  0
   -0.3750   -5.9288   -6.5350 C   0  0  0  0  0  0  0  0  0  0  0  0
   -0.7298   -6.3591   -7.8230 C   0  0  0  0  0  0  0  0  0  0  0  0
   -1.2290   -7.6491   -8.0264 C   0  0  0  0  0  0  0  0  0  0  0  0
   -1.3739   -8.5278   -6.9504 C   0  0  0  0  0  0  0  0  0  0  0  0
   -1.0196   -8.1184   -5.6561 C   0  0  0  0  0  0  0  0  0  0  0  0
   -1.1792   -9.0622   -4.4934 C   0  0  0  0  0  0  0  0  0  0  0  0
   -2.6469   -9.1937   -4.0968 C   0  0  0  0  0  0  0  0  0  0  0  0
   -0.5376   -6.8131   -5.4534 C   0  0  0  0  0  0  0  0  0  0  0  0
   -0.3133   -3.4143   -6.9951 C   0  0  0  0  0  0  0  0  0  0  0  0
   -1.7849   -3.0947   -7.7964 S   0  0  0  0  0  0  0  0  0  0  0  0
   -1.5521   -1.4132   -7.6740 C   0  0  0  0  0  0  0  0  0  0  0  0
   -2.4203   -0.3726   -7.4791 C   0  0  0  0  0  0  0  0  0  0  0  0
   -3.7045   -0.1021   -7.9655 C   0  0  0  0  0  0  0  0  0  0  0  0
   -4.3448    1.1162   -7.5718 C   0  0  0  0  0  0  0  0  0  0  0  0
   -5.5879    1.3413   -8.0681 N   0  0  0  0  0  0  0  0  0  0  0  0
   -5.7650   -0.0138   -9.0066 S   0  0  0  0  0  0  0  0  0  0  0  0
   -4.3818   -0.9037   -8.8214 N   0  0  0  0  0  0  0  0  0  0  0  0
   -3.6936    1.9590   -6.6532 C   0  0  0  0  0  0  0  0  0  0  0  0
   -4.1861    2.9643   -5.8629 C   0  0  0  0  0  0  0  0  0  0  0  0
   -5.7269    3.6100   -5.5442 S   0  0  0  0  0  0  0  0  0  0  0  0
   -5.2505    4.0773   -3.9766 C   0  0  0  0  0  0  0  0  0  0  0  0
   -5.9619    4.5565   -2.8705 C   0  0  0  0  0  0  0  0  0  0  0  0
   -7.2963    5.1670   -2.9595 C   0  0  0  0  0  0  0  0  0  0  0  0
   -8.3902    4.4400   -3.4489 C   0  0  0  0  0  0  0  0  0  0  0  0
   -9.6262    5.0709   -3.6312 C   0  0  0  0  0  0  0  0  0  0  0  0
   -9.7746    6.4309   -3.3374 C   0  0  0  0  0  0  0  0  0  0  0  0
   -8.6865    7.1680   -2.8445 C   0  0  0  0  0  0  0  0  0  0  0  0
   -8.8143    8.6422   -2.5552 C   0  0  0  0  0  0  0  0  0  0  0  0
   -8.1340    9.4791   -3.6346 C   0  0  0  0  0  0  0  0  0  0  0  0
   -7.4508    6.5293   -2.6602 C   0  0  0  0  0  0  0  0  0  0  0  0
   -5.1950    4.4315   -1.6962 C   0  0  0  0  0  0  0  0  0  0  0  0
   -3.6694    3.7757   -2.0735 S   0  0  0  0  0  0  0  0  0  0  0  0
   -3.9687    3.6742   -3.7117 C   0  0  0  0  0  0  0  0  0  0  0  0
   -3.3406    3.0792   -4.7988 C   0  0  0  0  0  0  0  0  0  0  0  0
   -2.2670    2.2539   -4.8890 N   0  0  0  0  0  0  0  0  0  0  0  0
   -2.4631    1.6063   -6.0835 C   0  0  0  0  0  0  0  0  0  0  0  0
   -1.7656    0.4944   -6.6030 C   0  0  0  0  0  0  0  0  0  0  0  0
   -0.4894    0.0914   -6.3448 N   0  0  0  0  0  0  0  0  0  0  0  0
   -0.4032   -1.0973   -6.9946 C   0  0  0  0  0  0  0  0  0  0  0  0
    0.2944   -2.2360   -6.6298 C   0  0  0  0  0  0  0  0  0  0  0  0
    1.4397   -2.5322   -5.4622 S   0  0  0  0  0  0  0  0  0  0  0  0
    0.6322    1.0442   -6.2528 C   0  0  0  0  0  0  0  0  0  0  0  0
    1.6628    0.6658   -5.1931 C   0  0  0  0  0  0  0  0  0  0  0  0
   -1.4873    1.7702   -3.7366 C   0  0  0  0  0  0  0  0  0  0  0  0
   -0.4965    2.8229   -3.2424 C   0  0  0  0  0  0  0  0  0  0  0  0
   -5.6678    4.5315   -0.3093 C   0  0  0  0  0  0  0  0  0  0  0  0
   -5.3320    3.6107    0.6755 C   0  0  0  0  0  0  0  0  0  0  0  0
   -5.6814    4.0274    1.9641 C   0  0  0  0  0  0  0  0  0  0  0  0
   -5.4200    3.3244    3.1516 C   0  0  0  0  0  0  0  0  0  0  0  0
   -4.8561    1.9613    3.1524 C   0  0  0  0  0  0  0  0  0  0  0  0
   -5.6516    0.8909    3.5840 C   0  0  0  0  0  0  0  0  0  0  0  0
   -5.1406   -0.4068    3.5959 C   0  0  0  0  0  0  0  0  0  0  0  0
   -3.8230   -0.6501    3.1863 C   0  0  0  0  0  0  0  0  0  0  0  0
   -3.1800   -2.3254    3.2100 S   0  0  0  0  0  0  0  0  0  0  0  0
   -2.6508   -2.2289    4.9532 C   0  0  0  0  0  0  0  0  0  0  0  0
   -2.0117   -3.5447    5.3748 C   0  0  0  0  0  0  0  0  0  0  0  0
   -3.0210    0.4187    2.7588 C   0  0  0  0  0  0  0  0  0  0  0  0
   -1.7463    0.1924    2.3430 F   0  0  0  0  0  0  0  0  0  0  0  0
   -3.5343    1.7192    2.7394 C   0  0  0  0  0  0  0  0  0  0  0  0
   -5.7158    3.9793    4.3514 C   0  0  0  0  0  0  0  0  0  0  0  0
   -6.2843    5.2585    4.3962 C   0  0  0  0  0  0  0  0  0  0  0  0
   -6.6549    5.9214    3.2019 C   0  0  0  0  0  0  0  0  0  0  0  0
   -7.4428    7.1766    3.2201 C   0  0  0  0  0  0  0  0  0  0  0  0
   -8.6441    7.2275    3.9451 C   0  0  0  0  0  0  0  0  0  0  0  0
   -9.4685    8.3529    3.8717 C   0  0  0  0  0  0  0  0  0  0  0  0
   -9.1090    9.4356    3.0633 C   0  0  0  0  0  0  0  0  0  0  0  0
  -10.2333   10.8313    2.8920 S   0  0  0  0  0  0  0  0  0  0  0  0
  -11.3247   10.0113    1.6692 C   0  0  0  0  0  0  0  0  0  0  0  0
  -10.6709    9.9431    0.2953 C   0  0  0  0  0  0  0  0  0  0  0  0
   -7.8853    9.4164    2.3801 C   0  0  0  0  0  0  0  0  0  0  0  0
   -7.0499    8.2960    2.4674 C   0  0  0  0  0  0  0  0  0  0  0  0
   -7.5118   10.4754    1.6158 F   0  0  0  0  0  0  0  0  0  0  0  0
   -6.3001    5.2852    1.9941 C   0  0  0  0  0  0  0  0  0  0  0  0
   -6.4376    5.8513    0.4078 S   0  0  0  0  0  0  0  0  0  0  0  0
   -6.2542    5.8159    5.6868 C   0  0  0  0  0  0  0  0  0  0  0  0
   -5.6621    4.9733    6.6274 C   0  0  0  0  0  0  0  0  0  0  0  0
   -5.2143    3.5283    5.8866 S   0  0  0  0  0  0  0  0  0  0  0  0
   -4.9455    5.4382    7.8236 C   0  0  0  0  0  0  0  0  0  0  0  0
   -3.6713    5.8816    7.7271 C   0  0  0  0  0  0  0  0  0  0  0  0
   -2.9274    6.0653    6.4718 C   0  0  0  0  0  0  0  0  0  0  0  0
   -3.4110    6.3345    5.3389 O   0  0  0  0  0  0  0  0  0  0  0  0
   -1.5204    5.8978    6.7396 C   0  0  0  0  0  0  0  0  0  0  0  0
   -0.4797    5.8058    5.7865 C   0  0  0  0  0  0  0  0  0  0  0  0
    0.7467    5.4692    6.3250 C   0  0  0  0  0  0  0  0  0  0  0  0
    0.9457    5.2125    7.7207 C   0  0  0  0  0  0  0  0  0  0  0  0
   -0.0734    5.3135    8.6628 C   0  0  0  0  0  0  0  0  0  0  0  0
   -1.3363    5.7022    8.1293 C   0  0  0  0  0  0  0  0  0  0  0  0
   -2.6509    5.8499    8.8126 C   0  0  0  0  0  0  0  0  0  0  0  0
   -2.8566    6.1687   10.1113 C   0  0  0  0  0  0  0  0  0  0  0  0
   -1.7741    6.3202   11.0535 C   0  0  0  0  0  0  0  0  0  0  0  0
   -0.9160    6.4528   11.8229 N   0  0  0  0  0  0  0  0  0  0  0  0
   -4.1686    6.5025   10.6082 C   0  0  0  0  0  0  0  0  0  0  0  0
   -5.2251    6.7627   11.0107 N   0  0  0  0  0  0  0  0  0  0  0  0
    2.3934    4.8911    7.4711 C   0  0  0  0  0  0  0  0  0  0  0  0
    2.8468    3.3979    7.4770 C   0  0  0  0  0  0  0  0  0  0  0  0
    1.7110    2.5081    7.0237 C   0  0  0  0  0  0  0  0  0  0  0  0
    1.5206    2.7643    5.7292 C   0  0  0  0  0  0  0  0  0  0  0  0
    2.5347    3.8231    5.3439 C   0  0  0  0  0  0  0  0  0  0  0  0
    3.6914    3.3696    6.2163 C   0  0  0  0  0  0  0  0  0  0  0  0
    2.1896    5.1743    6.0447 C   0  0  0  0  0  0  0  0  0  0  0  0
    6.2138   -7.0104    0.0765 H   0  0  0  0  0  0  0  0  0  0  0  0
    5.7295   -1.0429    1.9467 H   0  0  0  0  0  0  0  0  0  0  0  0
    8.4818   -4.4417    4.5703 H   0  0  0  0  0  0  0  0  0  0  0  0
    9.5518   -1.1956    5.0602 H   0  0  0  0  0  0  0  0  0  0  0  0
    8.5554   -1.6161    7.4086 H   0  0  0  0  0  0  0  0  0  0  0  0
    6.0557   -2.4957    7.2214 H   0  0  0  0  0  0  0  0  0  0  0  0
    4.6727   -0.7334    5.8911 H   0  0  0  0  0  0  0  0  0  0  0  0
    6.2865    1.2615    5.2156 H   0  0  0  0  0  0  0  0  0  0  0  0
    7.1947    0.6422    7.6236 H   0  0  0  0  0  0  0  0  0  0  0  0
    8.6069    0.8979    6.5014 H   0  0  0  0  0  0  0  0  0  0  0  0
    8.2982    0.3946    3.8537 H   0  0  0  0  0  0  0  0  0  0  0  0
    8.1570   -5.4640   -1.1258 H   0  0  0  0  0  0  0  0  0  0  0  0
    9.4762   -3.3862   -1.1554 H   0  0  0  0  0  0  0  0  0  0  0  0
    9.6399   -1.0300   -1.9681 H   0  0  0  0  0  0  0  0  0  0  0  0
   10.3016   -1.5737   -3.5652 H   0  0  0  0  0  0  0  0  0  0  0  0
    8.8194   -0.5396   -3.4927 H   0  0  0  0  0  0  0  0  0  0  0  0
    7.4446   -2.1568   -4.7585 H   0  0  0  0  0  0  0  0  0  0  0  0
    6.1155   -4.2300   -4.7098 H   0  0  0  0  0  0  0  0  0  0  0  0
    5.2331   -8.6530   -2.3566 H   0  0  0  0  0  0  0  0  0  0  0  0
    6.0523  -10.7795   -3.2369 H   0  0  0  0  0  0  0  0  0  0  0  0
    8.3597  -11.9033   -4.1085 H   0  0  0  0  0  0  0  0  0  0  0  0
    9.0369  -11.0812   -5.5608 H   0  0  0  0  0  0  0  0  0  0  0  0
    7.3249  -11.6470   -5.5740 H   0  0  0  0  0  0  0  0  0  0  0  0
    9.1450   -8.7016   -5.4082 H   0  0  0  0  0  0  0  0  0  0  0  0
    8.3433   -6.5733   -4.5283 H   0  0  0  0  0  0  0  0  0  0  0  0
   -0.8753   -2.5749   -0.7776 H   0  0  0  0  0  0  0  0  0  0  0  0
   -0.3334   -0.3697    0.1031 H   0  0  0  0  0  0  0  0  0  0  0  0
    2.4034    1.7238   -1.0640 H   0  0  0  0  0  0  0  0  0  0  0  0
    1.0764    1.5920    0.1402 H   0  0  0  0  0  0  0  0  0  0  0  0
    2.7145    0.9336    0.5304 H   0  0  0  0  0  0  0  0  0  0  0  0
    3.4782   -0.4942   -1.9003 H   0  0  0  0  0  0  0  0  0  0  0  0
    2.9258   -2.6672   -2.8430 H   0  0  0  0  0  0  0  0  0  0  0  0
   -1.4231   -2.8120   -3.7228 H   0  0  0  0  0  0  0  0  0  0  0  0
   -3.7889   -3.4834   -3.7252 H   0  0  0  0  0  0  0  0  0  0  0  0
   -5.5704   -4.8606   -2.8206 H   0  0  0  0  0  0  0  0  0  0  0  0
   -5.1828   -6.0851   -1.5569 H   0  0  0  0  0  0  0  0  0  0  0  0
   -5.0483   -6.5218   -3.3068 H   0  0  0  0  0  0  0  0  0  0  0  0
   -2.7848   -7.0187   -1.4634 H   0  0  0  0  0  0  0  0  0  0  0  0
   -0.4177   -6.3344   -1.4533 H   0  0  0  0  0  0  0  0  0  0  0  0
   -0.5983   -5.7093   -8.6748 H   0  0  0  0  0  0  0  0  0  0  0  0
   -1.4971   -7.9734   -9.0226 H   0  0  0  0  0  0  0  0  0  0  0  0
   -1.7554   -9.5252   -7.1238 H   0  0  0  0  0  0  0  0  0  0  0  0
   -0.7807  -10.0654   -4.7634 H   0  0  0  0  0  0  0  0  0  0  0  0
   -0.5965   -8.7037   -3.6130 H   0  0  0  0  0  0  0  0  0  0  0  0
   -2.7394   -9.8880   -3.2328 H   0  0  0  0  0  0  0  0  0  0  0  0
   -3.2476   -9.5954   -4.9443 H   0  0  0  0  0  0  0  0  0  0  0  0
   -3.0526   -8.2019   -3.8054 H   0  0  0  0  0  0  0  0  0  0  0  0
   -0.2936   -6.5059   -4.4530 H   0  0  0  0  0  0  0  0  0  0  0  0
   -8.2848    3.3934   -3.7018 H   0  0  0  0  0  0  0  0  0  0  0  0
  -10.4662    4.5083   -4.0178 H   0  0  0  0  0  0  0  0  0  0  0  0
  -10.7294    6.9104   -3.5020 H   0  0  0  0  0  0  0  0  0  0  0  0
   -9.8832    8.9406   -2.4875 H   0  0  0  0  0  0  0  0  0  0  0  0
   -8.3417    8.8673   -1.5739 H   0  0  0  0  0  0  0  0  0  0  0  0
   -8.2682   10.5573   -3.4062 H   0  0  0  0  0  0  0  0  0  0  0  0
   -7.0452    9.2533   -3.6704 H   0  0  0  0  0  0  0  0  0  0  0  0
   -8.5854    9.2665   -4.6277 H   0  0  0  0  0  0  0  0  0  0  0  0
   -6.5978    7.1023   -2.3155 H   0  0  0  0  0  0  0  0  0  0  0  0
    1.1343    1.1115   -7.2455 H   0  0  0  0  0  0  0  0  0  0  0  0
    0.2491    2.0627   -6.0380 H   0  0  0  0  0  0  0  0  0  0  0  0
    1.1967    0.1462   -4.3306 H   0  0  0  0  0  0  0  0  0  0  0  0
    2.4527    0.0258   -5.6371 H   0  0  0  0  0  0  0  0  0  0  0  0
    2.1612    1.5858   -4.8171 H   0  0  0  0  0  0  0  0  0  0  0  0
   -0.9512    0.8355   -3.9730 H   0  0  0  0  0  0  0  0  0  0  0  0
   -2.1786    1.5045   -2.9101 H   0  0  0  0  0  0  0  0  0  0  0  0
   -1.0105    3.7806   -3.0361 H   0  0  0  0  0  0  0  0  0  0  0  0
    0.2969    3.0119   -3.9924 H   0  0  0  0  0  0  0  0  0  0  0  0
   -0.0234    2.4684   -2.3041 H   0  0  0  0  0  0  0  0  0  0  0  0
   -4.8152    2.6835    0.4588 H   0  0  0  0  0  0  0  0  0  0  0  0
   -6.6690    1.0667    3.9126 H   0  0  0  0  0  0  0  0  0  0  0  0
   -5.7681   -1.2250    3.9255 H   0  0  0  0  0  0  0  0  0  0  0  0
   -3.5286   -2.0270    5.6040 H   0  0  0  0  0  0  0  0  0  0  0  0
   -1.9090   -1.4087    5.0748 H   0  0  0  0  0  0  0  0  0  0  0  0
   -2.7479   -4.3728    5.2775 H   0  0  0  0  0  0  0  0  0  0  0  0
   -1.1231   -3.7611    4.7436 H   0  0  0  0  0  0  0  0  0  0  0  0
   -1.6882   -3.4807    6.4354 H   0  0  0  0  0  0  0  0  0  0  0  0
   -2.9066    2.5397    2.4108 H   0  0  0  0  0  0  0  0  0  0  0  0
   -8.9650    6.3800    4.5400 H   0  0  0  0  0  0  0  0  0  0  0  0
  -10.4079    8.3624    4.4136 H   0  0  0  0  0  0  0  0  0  0  0  0
  -12.2688   10.5965    1.5874 H   0  0  0  0  0  0  0  0  0  0  0  0
  -11.5915    8.9875    2.0100 H   0  0  0  0  0  0  0  0  0  0  0  0
  -11.3884    9.5131   -0.4392 H   0  0  0  0  0  0  0  0  0  0  0  0
   -9.7802    9.2836    0.3343 H   0  0  0  0  0  0  0  0  0  0  0  0
  -10.3658   10.9586   -0.0397 H   0  0  0  0  0  0  0  0  0  0  0  0
   -6.1126    8.2960    1.9288 H   0  0  0  0  0  0  0  0  0  0  0  0
   -6.5006    6.8473    5.9019 H   0  0  0  0  0  0  0  0  0  0  0  0
   -5.3343    5.1176    8.7755 H   0  0  0  0  0  0  0  0  0  0  0  0
   -0.6326    5.9536    4.7280 H   0  0  0  0  0  0  0  0  0  0  0  0
    0.0986    5.0712    9.7006 H   0  0  0  0  0  0  0  0  0  0  0  0
    3.0995    5.5942    7.9689 H   0  0  0  0  0  0  0  0  0  0  0  0
    3.3628    3.0629    8.3998 H   0  0  0  0  0  0  0  0  0  0  0  0
    1.2348    1.7160    7.5860 H   0  0  0  0  0  0  0  0  0  0  0  0
    0.8497    2.2279    5.0652 H   0  0  0  0  0  0  0  0  0  0  0  0
    2.7549    3.8916    4.2584 H   0  0  0  0  0  0  0  0  0  0  0  0
    4.0711    2.3529    5.9611 H   0  0  0  0  0  0  0  0  0  0  0  0
    4.5413    4.0914    6.2271 H   0  0  0  0  0  0  0  0  0  0  0  0
    2.7696    6.0496    5.6765 H   0  0  0  0  0  0  0  0  0  0  0  0
  1  2  2  3
  2  3  1  0
  3  4  2  0
  3  5  1  0
  5  6  2  0
  6  7  1  0
  7  8  2  0
  8  9  1  0
  9 10  2  0
 10 11  1  0
 11 12  2  3
 12 13  1  0
 13 14  3  0
 12 15  1  0
 15 16  3  0
  8 17  1  0
 17 18  1  0
 18 19  1  0
 19 20  2  0
 20 21  1  0
 21 22  1  0
 21 23  1  0
  1 24  1  0
 24 25  2  0
 25 26  1  0
 26 27  1  0
 27 28  2  0
 28 29  1  0
 29 30  2  0
 30 31  1  0
 30 32  1  0
 32 33  2  0
 26 34  1  0
 34 35  2  0
 35 36  1  0
 36 37  2  0
 37 38  1  0
 37 39  1  0
 39 40  2  0
 25 41  1  0
 41 42  1  0
 42 43  1  0
 43 44  2  0
 44 45  1  0
 45 46  1  0
 46 47  2  0
 47 48  1  0
 48 49  2  0
 49 50  1  0
 49 51  1  0
 51 52  2  0
 45 53  1  0
 53 54  2  0
 54 55  1  0
 55 56  2  0
 56 57  1  0
 56 58  1  0
 58 59  2  0
 44 60  1  0
 60 61  1  0
 43 62  1  0
 62 63  2  0
 63 64  1  0
 64 65  2  0
 65 66  1  0
 66 67  2  0
 67 68  1  0
 68 69  1  0
 69 70  1  0
 68 71  2  0
 63 72  1  0
 72 73  1  0
 73 74  1  0
 74 75  1  0
 75 76  1  0
 76 77  1  0
 77 78  2  0
 78 79  1  0
 79 80  1  0
 77 81  1  0
 81 82  1  0
 82 83  1  0
 83 84  1  0
 84 85  1  0
 85 86  1  0
 86 87  2  0
 87 88  1  0
 88 89  2  0
 89 90  1  0
 90 91  1  0
 91 92  1  0
 90 93  2  0
 85 94  2  0
 94 95  1  0
 95 96  1  0
 96 97  1  0
 97 98  1  0
 98 99  1  0
 99100  1  0
100101  1  0
101102  1  0
102103  1  0
103104  1  0
101105  1  0
105106  1  0
 98107  1  0
107108  1  0
 94109  1  0
109110  2  0
110111  1  0
111112  2  0
112113  1  0
113114  2  0
114115  1  0
115116  2  0
116117  1  0
117118  1  0
118119  1  0
116120  1  0
120121  1  0
120122  2  0
112123  1  0
123124  2  0
124125  1  0
125126  1  0
126127  2  0
127128  1  0
128129  2  0
129130  1  0
130131  1  0
131132  1  0
129133  1  0
133134  2  0
133135  1  0
125136  2  0
136137  1  0
124138  1  0
138139  2  0
139140  1  0
139141  1  0
141142  2  3
142143  1  0
143144  2  0
143145  1  0
145146  2  0
146147  1  0
147148  2  0
148149  1  0
149150  2  0
150151  1  0
151152  2  3
152153  1  0
153154  3  0
152155  1  0
155156  3  0
148157  1  0
157158  1  0
158159  1  0
159160  2  0
160161  1  0
161162  1  0
161163  1  0
 11  2  1  0
 23 17  1  0
 61 24  1  0
104 62  1  0
137109  1  0
151142  1  0
163157  1  0
 10  5  1  0
 22 18  1  0
 33 27  1  0
 40 34  1  0
 60 41  2  0
 71 64  1  0
103 72  2  0
136111  1  0
150145  1  0
162158  1  0
 23  7  1  0
 52 46  1  0
 59 53  1  0
102 74  2  0
122113  1  0
140123  1  0
163147  1  0
100 75  2  0
134126  1  0
 80 76  2  0
 99 81  2  0
 97 82  2  0
 96 84  2  0
 93 86  1  0
  1164  1  0
  6165  1  0
  9166  1  0
 17167  1  0
 18168  1  0
 19169  1  0
 20170  1  0
 21171  1  0
 22172  1  0
 22173  1  0
 23174  1  0
 28175  1  0
 29176  1  0
 31177  1  0
 31178  1  0
 31179  1  0
 32180  1  0
 33181  1  0
 35182  1  0
 36183  1  0
 38184  1  0
 38185  1  0
 38186  1  0
 39187  1  0
 40188  1  0
 47189  1  0
 48190  1  0
 50191  1  0
 50192  1  0
 50193  1  0
 51194  1  0
 52195  1  0
 54196  1  0
 55197  1  0
 57198  1  0
 57199  1  0
 57200  1  0
 58201  1  0
 59202  1  0
 65203  1  0
 66204  1  0
 67205  1  0
 69206  1  0
 69207  1  0
 70208  1  0
 70209  1  0
 70210  1  0
 71211  1  0
 87212  1  0
 88213  1  0
 89214  1  0
 91215  1  0
 91216  1  0
 92217  1  0
 92218  1  0
 92219  1  0
 93220  1  0
105221  1  0
105222  1  0
106223  1  0
106224  1  0
106225  1  0
107226  1  0
107227  1  0
108228  1  0
108229  1  0
108230  1  0
110231  1  0
114232  1  0
115233  1  0
118234  1  0
118235  1  0
119236  1  0
119237  1  0
119238  1  0
122239  1  0
127240  1  0
128241  1  0
131242  1  0
131243  1  0
132244  1  0
132245  1  0
132246  1  0
134247  1  0
138248  1  0
141249  1  0
146250  1  0
149251  1  0
157252  1  0
158253  1  0
159254  1  0
160255  1  0
161256  1  0
162257  1  0
162258  1  0
163259  1  0
M  END

