
     RDKit          3D

256286  0  0  0  0  0  0  0  0999 V2000
    4.1567    1.2524   -2.1027 C   0  0  0  0  0  0  0  0  0  0  0  0
    5.0228    1.1111   -3.1172 C   0  0  0  0  0  0  0  0  0  0  0  0
    4.8187    1.7650   -4.4100 C   0  0  0  0  0  0  0  0  0  0  0  0
    4.0236    2.7147   -4.6411 O   0  0  0  0  0  0  0  0  0  0  0  0
    5.6151    1.0784   -5.4026 C   0  0  0  0  0  0  0  0  0  0  0  0
    5.6391    1.3112   -6.7969 C   0  0  0  0  0  0  0  0  0  0  0  0
    6.4124    0.4073   -7.4994 C   0  0  0  0  0  0  0  0  0  0  0  0
    7.1007   -0.6865   -6.8788 C   0  0  0  0  0  0  0  0  0  0  0  0
    7.0822   -0.9181   -5.5128 C   0  0  0  0  0  0  0  0  0  0  0  0
    6.3395    0.0374   -4.7657 C   0  0  0  0  0  0  0  0  0  0  0  0
    6.1389    0.1368   -3.2941 C   0  0  0  0  0  0  0  0  0  0  0  0
    7.0830   -0.1665   -2.3734 C   0  0  0  0  0  0  0  0  0  0  0  0
    8.2152   -0.9980   -2.6888 C   0  0  0  0  0  0  0  0  0  0  0  0
    9.1145   -1.6871   -2.9448 N   0  0  0  0  0  0  0  0  0  0  0  0
    7.1033    0.4229   -1.0607 C   0  0  0  0  0  0  0  0  0  0  0  0
    7.1502    0.8887   -0.0006 N   0  0  0  0  0  0  0  0  0  0  0  0
    7.5725   -1.1693   -8.2168 C   0  0  0  0  0  0  0  0  0  0  0  0
    6.8412   -2.4117   -8.8102 C   0  0  0  0  0  0  0  0  0  0  0  0
    7.2085   -2.4481  -10.2750 C   0  0  0  0  0  0  0  0  0  0  0  0
    6.5846   -1.4123  -10.8500 C   0  0  0  0  0  0  0  0  0  0  0  0
    5.8146   -0.7149   -9.7545 C   0  0  0  0  0  0  0  0  0  0  0  0
    5.4033   -1.9351   -8.9442 C   0  0  0  0  0  0  0  0  0  0  0  0
    6.8838   -0.0384   -8.8479 C   0  0  0  0  0  0  0  0  0  0  0  0
    4.0951    0.4224   -0.8898 C   0  0  0  0  0  0  0  0  0  0  0  0
    3.8810   -0.9690   -0.7886 C   0  0  0  0  0  0  0  0  0  0  0  0
    3.7596   -1.8793   -1.8972 N   0  0  0  0  0  0  0  0  0  0  0  0
    4.4943   -3.1287   -1.8962 C   0  0  0  0  0  0  0  0  0  0  0  0
    3.9259   -4.3009   -2.4270 C   0  0  0  0  0  0  0  0  0  0  0  0
    4.6481   -5.4986   -2.4422 C   0  0  0  0  0  0  0  0  0  0  0  0
    5.9433   -5.5490   -1.9102 C   0  0  0  0  0  0  0  0  0  0  0  0
    6.7429   -6.8168   -1.9759 C   0  0  0  0  0  0  0  0  0  0  0  0
    6.5137   -4.3873   -1.3775 C   0  0  0  0  0  0  0  0  0  0  0  0
    5.7861   -3.1933   -1.3465 C   0  0  0  0  0  0  0  0  0  0  0  0
    2.7512   -1.6475   -2.8973 C   0  0  0  0  0  0  0  0  0  0  0  0
    3.0996   -1.6167   -4.2552 C   0  0  0  0  0  0  0  0  0  0  0  0
    2.1112   -1.4910   -5.2357 C   0  0  0  0  0  0  0  0  0  0  0  0
    0.7582   -1.4364   -4.8718 C   0  0  0  0  0  0  0  0  0  0  0  0
   -0.3014   -1.3563   -5.9309 C   0  0  0  0  0  0  0  0  0  0  0  0
    0.4077   -1.5198   -3.5172 C   0  0  0  0  0  0  0  0  0  0  0  0
    1.3992   -1.5876   -2.5336 C   0  0  0  0  0  0  0  0  0  0  0  0
    3.6838   -1.3451    0.5451 C   0  0  0  0  0  0  0  0  0  0  0  0
    3.1919   -2.7486    1.3239 S   0  0  0  0  0  0  0  0  0  0  0  0
    3.0742   -2.0368    2.8790 C   0  0  0  0  0  0  0  0  0  0  0  0
    3.4274   -0.6734    2.7679 C   0  0  0  0  0  0  0  0  0  0  0  0
    3.4761    0.2765    3.8506 N   0  0  0  0  0  0  0  0  0  0  0  0
    2.8201    1.5517    3.6816 C   0  0  0  0  0  0  0  0  0  0  0  0
    1.4878    1.6165    3.2434 C   0  0  0  0  0  0  0  0  0  0  0  0
    0.8681    2.8560    3.0504 C   0  0  0  0  0  0  0  0  0  0  0  0
    1.5714    4.0459    3.2945 C   0  0  0  0  0  0  0  0  0  0  0  0
    0.9262    5.3822    3.0821 C   0  0  0  0  0  0  0  0  0  0  0  0
    2.9032    3.9827    3.7227 C   0  0  0  0  0  0  0  0  0  0  0  0
    3.5244    2.7485    3.9101 C   0  0  0  0  0  0  0  0  0  0  0  0
    4.4047    0.0922    4.9434 C   0  0  0  0  0  0  0  0  0  0  0  0
    4.1226    0.6505    6.2011 C   0  0  0  0  0  0  0  0  0  0  0  0
    5.0589    0.5915    7.2344 C   0  0  0  0  0  0  0  0  0  0  0  0
    6.2881   -0.0485    7.0373 C   0  0  0  0  0  0  0  0  0  0  0  0
    7.3224   -0.0310    8.1249 C   0  0  0  0  0  0  0  0  0  0  0  0
    6.5775   -0.6135    5.7861 C   0  0  0  0  0  0  0  0  0  0  0  0
    5.6401   -0.5531    4.7494 C   0  0  0  0  0  0  0  0  0  0  0  0
    3.7326   -0.3338    1.4489 C   0  0  0  0  0  0  0  0  0  0  0  0
    4.0002    1.1186    0.6595 S   0  0  0  0  0  0  0  0  0  0  0  0
    2.4301   -2.7050    4.0334 C   0  0  0  0  0  0  0  0  0  0  0  0
    1.8868   -3.9950    3.9997 C   0  0  0  0  0  0  0  0  0  0  0  0
    1.0480   -4.2348    5.0902 C   0  0  0  0  0  0  0  0  0  0  0  0
   -0.3394   -5.1636    5.1143 S   0  0  0  0  0  0  0  0  0  0  0  0
   -1.1165   -4.2397    6.3131 C   0  0  0  0  0  0  0  0  0  0  0  0
   -2.3819   -3.5386    6.0441 C   0  0  0  0  0  0  0  0  0  0  0  0
   -2.1714   -2.2033    6.3937 C   0  0  0  0  0  0  0  0  0  0  0  0
   -1.0503   -2.1366    7.4236 C   0  0  0  0  0  0  0  0  0  0  0  0
   -1.5879   -2.5856    8.7916 C   0  0  0  0  0  0  0  0  0  0  0  0
   -2.8769   -2.2063    9.2257 C   0  0  0  0  0  0  0  0  0  0  0  0
   -3.3609   -2.6152   10.4722 C   0  0  0  0  0  0  0  0  0  0  0  0
   -2.5532   -3.3700   11.3327 C   0  0  0  0  0  0  0  0  0  0  0  0
   -3.0874   -3.8494   12.6564 C   0  0  0  0  0  0  0  0  0  0  0  0
   -3.6937   -5.2427   12.5144 C   0  0  0  0  0  0  0  0  0  0  0  0
   -1.2587   -3.7199   10.9279 C   0  0  0  0  0  0  0  0  0  0  0  0
   -0.7748   -3.3185    9.6791 C   0  0  0  0  0  0  0  0  0  0  0  0
   -0.3327   -0.8051    7.6717 C   0  0  0  0  0  0  0  0  0  0  0  0
    0.9882   -0.8036    8.1676 C   0  0  0  0  0  0  0  0  0  0  0  0
    1.6266    0.3885    8.5092 C   0  0  0  0  0  0  0  0  0  0  0  0
    0.9564    1.6114    8.3818 C   0  0  0  0  0  0  0  0  0  0  0  0
    1.6652    2.9053    8.6874 C   0  0  0  0  0  0  0  0  0  0  0  0
    1.4933    3.2839   10.1553 C   0  0  0  0  0  0  0  0  0  0  0  0
   -0.4046    1.6070    8.0585 C   0  0  0  0  0  0  0  0  0  0  0  0
   -1.0534    0.4047    7.7651 C   0  0  0  0  0  0  0  0  0  0  0  0
   -0.2374   -3.2688    6.8069 C   0  0  0  0  0  0  0  0  0  0  0  0
    0.9237   -3.2160    6.0020 C   0  0  0  0  0  0  0  0  0  0  0  0
    1.8158   -1.9170    5.4053 S   0  0  0  0  0  0  0  0  0  0  0  0
   -2.5537   -1.2017    5.4880 C   0  0  0  0  0  0  0  0  0  0  0  0
   -3.2476   -1.5370    4.3115 C   0  0  0  0  0  0  0  0  0  0  0  0
   -3.4397   -0.5388    3.2526 C   0  0  0  0  0  0  0  0  0  0  0  0
   -3.8768   -0.9045    1.9774 C   0  0  0  0  0  0  0  0  0  0  0  0
   -4.3488   -2.3206    1.6351 C   0  0  0  0  0  0  0  0  0  0  0  0
   -4.2939   -3.2502    2.8683 C   0  0  0  0  0  0  0  0  0  0  0  0
   -3.6277   -2.8756    4.0673 C   0  0  0  0  0  0  0  0  0  0  0  0
   -3.2478   -3.8792    4.9927 C   0  0  0  0  0  0  0  0  0  0  0  0
   -3.6591   -5.2045    4.8014 C   0  0  0  0  0  0  0  0  0  0  0  0
   -4.4556   -5.5381    3.7086 C   0  0  0  0  0  0  0  0  0  0  0  0
   -4.7623   -4.5769    2.7485 C   0  0  0  0  0  0  0  0  0  0  0  0
   -5.8013   -2.1678    1.1379 C   0  0  0  0  0  0  0  0  0  0  0  0
   -6.0986   -1.8970   -0.2155 C   0  0  0  0  0  0  0  0  0  0  0  0
   -7.4085   -1.6581   -0.6324 C   0  0  0  0  0  0  0  0  0  0  0  0
   -8.4607   -1.6646    0.2903 C   0  0  0  0  0  0  0  0  0  0  0  0
   -9.8635   -1.3527   -0.1571 C   0  0  0  0  0  0  0  0  0  0  0  0
  -10.1306    0.1457   -0.0737 C   0  0  0  0  0  0  0  0  0  0  0  0
   -8.1789   -1.8858    1.6434 C   0  0  0  0  0  0  0  0  0  0  0  0
   -6.8664   -2.1158    2.0643 C   0  0  0  0  0  0  0  0  0  0  0  0
   -3.3727   -2.9591    0.6203 C   0  0  0  0  0  0  0  0  0  0  0  0
   -3.7934   -3.9572   -0.2872 C   0  0  0  0  0  0  0  0  0  0  0  0
   -2.8750   -4.6276   -1.1009 C   0  0  0  0  0  0  0  0  0  0  0  0
   -1.5063   -4.3418   -1.0124 C   0  0  0  0  0  0  0  0  0  0  0  0
   -0.5088   -5.1062   -1.8437 C   0  0  0  0  0  0  0  0  0  0  0  0
    0.1779   -6.1840   -1.0091 C   0  0  0  0  0  0  0  0  0  0  0  0
   -1.0655   -3.3950   -0.0802 C   0  0  0  0  0  0  0  0  0  0  0  0
   -1.9811   -2.7268    0.7346 C   0  0  0  0  0  0  0  0  0  0  0  0
   -3.6030    0.1255    1.0662 C   0  0  0  0  0  0  0  0  0  0  0  0
   -3.0253    1.2426    1.5926 C   0  0  0  0  0  0  0  0  0  0  0  0
   -2.7676    1.0315    3.2279 S   0  0  0  0  0  0  0  0  0  0  0  0
   -2.5078    2.1568    0.6792 C   0  0  0  0  0  0  0  0  0  0  0  0
   -2.6970    1.6938   -0.6243 C   0  0  0  0  0  0  0  0  0  0  0  0
   -3.4737    0.1816   -0.6039 S   0  0  0  0  0  0  0  0  0  0  0  0
   -2.1157    2.2845   -1.8322 C   0  0  0  0  0  0  0  0  0  0  0  0
   -2.5859    3.5204   -2.3114 C   0  0  0  0  0  0  0  0  0  0  0  0
   -2.1866    3.9252   -3.5826 C   0  0  0  0  0  0  0  0  0  0  0  0
   -2.7529    4.9688   -4.4241 C   0  0  0  0  0  0  0  0  0  0  0  0
   -3.6099    5.8241   -4.0849 O   0  0  0  0  0  0  0  0  0  0  0  0
   -2.2470    4.7295   -5.7719 C   0  0  0  0  0  0  0  0  0  0  0  0
   -1.3891    3.6424   -5.7392 C   0  0  0  0  0  0  0  0  0  0  0  0
   -1.3473    3.1438   -4.3636 C   0  0  0  0  0  0  0  0  0  0  0  0
   -0.8237    1.9478   -3.8822 C   0  0  0  0  0  0  0  0  0  0  0  0
   -1.2098    1.5229   -2.6031 C   0  0  0  0  0  0  0  0  0  0  0  0
   -0.9620    3.0214   -6.9167 C   0  0  0  0  0  0  0  0  0  0  0  0
   -1.4599    3.4965   -8.1437 C   0  0  0  0  0  0  0  0  0  0  0  0
   -2.3849    4.5620   -8.1689 C   0  0  0  0  0  0  0  0  0  0  0  0
   -2.7524    5.2123   -6.9730 C   0  0  0  0  0  0  0  0  0  0  0  0
   -3.1762    4.8423   -9.3767 C   0  0  0  0  0  0  0  0  0  0  0  0
   -4.4704    4.4721   -9.4313 C   0  0  0  0  0  0  0  0  0  0  0  0
   -5.1091    3.6158   -8.4239 C   0  0  0  0  0  0  0  0  0  0  0  0
   -4.5662    2.6592   -7.8137 O   0  0  0  0  0  0  0  0  0  0  0  0
   -6.4357    4.1192   -8.1611 C   0  0  0  0  0  0  0  0  0  0  0  0
   -7.1895    3.8729   -6.9909 C   0  0  0  0  0  0  0  0  0  0  0  0
   -8.1792    4.8060   -6.7651 C   0  0  0  0  0  0  0  0  0  0  0  0
   -8.4390    5.9049   -7.6442 C   0  0  0  0  0  0  0  0  0  0  0  0
   -7.7324    6.1265   -8.8150 C   0  0  0  0  0  0  0  0  0  0  0  0
   -6.6963    5.1841   -9.0623 C   0  0  0  0  0  0  0  0  0  0  0  0
   -5.5538    5.3096  -10.0012 C   0  0  0  0  0  0  0  0  0  0  0  0
   -5.5347    5.9640  -11.1855 C   0  0  0  0  0  0  0  0  0  0  0  0
   -6.6817    6.6735  -11.6868 C   0  0  0  0  0  0  0  0  0  0  0  0
   -7.5928    7.2614  -12.0953 N   0  0  0  0  0  0  0  0  0  0  0  0
   -4.3869    5.9213  -12.0519 C   0  0  0  0  0  0  0  0  0  0  0  0
   -3.4620    5.9041  -12.7447 N   0  0  0  0  0  0  0  0  0  0  0  0
   -9.4246    6.4723   -6.6671 C   0  0  0  0  0  0  0  0  0  0  0  0
   -8.9399    7.7052   -5.8442 C   0  0  0  0  0  0  0  0  0  0  0  0
   -9.9011    7.8383   -4.6883 C   0  0  0  0  0  0  0  0  0  0  0  0
   -9.6563    6.8070   -3.8707 C   0  0  0  0  0  0  0  0  0  0  0  0
   -8.5439    6.0115   -4.5064 C   0  0  0  0  0  0  0  0  0  0  0  0
   -7.7386    7.1643   -5.0830 C   0  0  0  0  0  0  0  0  0  0  0  0
   -9.1624    5.3409   -5.7712 C   0  0  0  0  0  0  0  0  0  0  0  0
    3.4138    2.0394   -2.1701 H   0  0  0  0  0  0  0  0  0  0  0  0
    5.0762    2.0985   -7.2797 H   0  0  0  0  0  0  0  0  0  0  0  0
    7.5688   -1.7794   -5.0830 H   0  0  0  0  0  0  0  0  0  0  0  0
    8.6803   -1.1629   -8.3282 H   0  0  0  0  0  0  0  0  0  0  0  0
    6.9861   -3.3634   -8.2589 H   0  0  0  0  0  0  0  0  0  0  0  0
    7.7834   -3.2110  -10.7882 H   0  0  0  0  0  0  0  0  0  0  0  0
    6.5708   -1.1869  -11.9113 H   0  0  0  0  0  0  0  0  0  0  0  0
    4.9891   -0.0572  -10.0986 H   0  0  0  0  0  0  0  0  0  0  0  0
    4.7526   -2.6427   -9.5134 H   0  0  0  0  0  0  0  0  0  0  0  0
    4.9096   -1.7033   -7.9747 H   0  0  0  0  0  0  0  0  0  0  0  0
    7.5555    0.6927   -9.3533 H   0  0  0  0  0  0  0  0  0  0  0  0
    2.9218   -4.2983   -2.8264 H   0  0  0  0  0  0  0  0  0  0  0  0
    4.1958   -6.3860   -2.8653 H   0  0  0  0  0  0  0  0  0  0  0  0
    7.3885   -6.9146   -1.0774 H   0  0  0  0  0  0  0  0  0  0  0  0
    7.3842   -6.8016   -2.8810 H   0  0  0  0  0  0  0  0  0  0  0  0
    6.0780   -7.7050   -2.0179 H   0  0  0  0  0  0  0  0  0  0  0  0
    7.5206   -4.4045   -0.9770 H   0  0  0  0  0  0  0  0  0  0  0  0
    6.2389   -2.3207   -0.9021 H   0  0  0  0  0  0  0  0  0  0  0  0
    4.1345   -1.7083   -4.5515 H   0  0  0  0  0  0  0  0  0  0  0  0
    2.3988   -1.4577   -6.2787 H   0  0  0  0  0  0  0  0  0  0  0  0
   -0.0101   -0.6184   -6.7078 H   0  0  0  0  0  0  0  0  0  0  0  0
   -1.2753   -1.0352   -5.5020 H   0  0  0  0  0  0  0  0  0  0  0  0
   -0.4285   -2.3526   -6.4043 H   0  0  0  0  0  0  0  0  0  0  0  0
   -0.6338   -1.5353   -3.2218 H   0  0  0  0  0  0  0  0  0  0  0  0
    1.1153   -1.6481   -1.4918 H   0  0  0  0  0  0  0  0  0  0  0  0
    0.9332    0.7064    3.0493 H   0  0  0  0  0  0  0  0  0  0  0  0
   -0.1568    2.8859    2.7077 H   0  0  0  0  0  0  0  0  0  0  0  0
    1.4438    5.9169    2.2575 H   0  0  0  0  0  0  0  0  0  0  0  0
    1.0079    5.9884    4.0096 H   0  0  0  0  0  0  0  0  0  0  0  0
   -0.1484    5.2808    2.8223 H   0  0  0  0  0  0  0  0  0  0  0  0
    3.4635    4.8930    3.9003 H   0  0  0  0  0  0  0  0  0  0  0  0
    4.5640    2.7250    4.2143 H   0  0  0  0  0  0  0  0  0  0  0  0
    3.1850    1.1637    6.3666 H   0  0  0  0  0  0  0  0  0  0  0  0
    4.8333    1.0616    8.1834 H   0  0  0  0  0  0  0  0  0  0  0  0
    7.9874   -0.9173    8.0496 H   0  0  0  0  0  0  0  0  0  0  0  0
    7.9330    0.8925    8.0328 H   0  0  0  0  0  0  0  0  0  0  0  0
    6.8379   -0.0443    9.1264 H   0  0  0  0  0  0  0  0  0  0  0  0
    7.5358   -1.0843    5.6067 H   0  0  0  0  0  0  0  0  0  0  0  0
    5.9001   -0.9655    3.7834 H   0  0  0  0  0  0  0  0  0  0  0  0
    1.9278   -4.6435    3.1350 H   0  0  0  0  0  0  0  0  0  0  0  0
   -3.5168   -1.6049    8.5933 H   0  0  0  0  0  0  0  0  0  0  0  0
   -4.3666   -2.3414   10.7668 H   0  0  0  0  0  0  0  0  0  0  0  0
   -2.2707   -3.8741   13.4093 H   0  0  0  0  0  0  0  0  0  0  0  0
   -3.8606   -3.1483   13.0355 H   0  0  0  0  0  0  0  0  0  0  0  0
   -4.5605   -5.2181   11.8195 H   0  0  0  0  0  0  0  0  0  0  0  0
   -2.9345   -5.9619   12.1359 H   0  0  0  0  0  0  0  0  0  0  0  0
   -4.0487   -5.5958   13.5059 H   0  0  0  0  0  0  0  0  0  0  0  0
   -0.6215   -4.2988   11.5835 H   0  0  0  0  0  0  0  0  0  0  0  0
    0.2348   -3.5908    9.4014 H   0  0  0  0  0  0  0  0  0  0  0  0
    1.5294   -1.7319    8.2985 H   0  0  0  0  0  0  0  0  0  0  0  0
    2.6449    0.3574    8.8702 H   0  0  0  0  0  0  0  0  0  0  0  0
    2.7478    2.8123    8.4539 H   0  0  0  0  0  0  0  0  0  0  0  0
    1.2591    3.7180    8.0456 H   0  0  0  0  0  0  0  0  0  0  0  0
    2.0494    4.2241   10.3585 H   0  0  0  0  0  0  0  0  0  0  0  0
    1.8942    2.4829   10.8112 H   0  0  0  0  0  0  0  0  0  0  0  0
    0.4211    3.4494   10.3873 H   0  0  0  0  0  0  0  0  0  0  0  0
   -0.9718    2.5310    8.0672 H   0  0  0  0  0  0  0  0  0  0  0  0
   -2.1278    0.4237    7.6493 H   0  0  0  0  0  0  0  0  0  0  0  0
   -2.1810   -0.2008    5.5853 H   0  0  0  0  0  0  0  0  0  0  0  0
   -3.3825   -5.9747    5.5116 H   0  0  0  0  0  0  0  0  0  0  0  0
   -4.7983   -6.5564    3.5844 H   0  0  0  0  0  0  0  0  0  0  0  0
   -5.3282   -4.8822    1.8799 H   0  0  0  0  0  0  0  0  0  0  0  0
   -5.3189   -1.8627   -0.9610 H   0  0  0  0  0  0  0  0  0  0  0  0
   -7.6020   -1.4506   -1.6769 H   0  0  0  0  0  0  0  0  0  0  0  0
  -10.5986   -1.8944    0.4770 H   0  0  0  0  0  0  0  0  0  0  0  0
  -10.0149   -1.6944   -1.2046 H   0  0  0  0  0  0  0  0  0  0  0  0
  -10.0531    0.4928    0.9789 H   0  0  0  0  0  0  0  0  0  0  0  0
   -9.4007    0.7060   -0.6984 H   0  0  0  0  0  0  0  0  0  0  0  0
  -11.1543    0.3623   -0.4438 H   0  0  0  0  0  0  0  0  0  0  0  0
   -8.9742   -1.8561    2.3770 H   0  0  0  0  0  0  0  0  0  0  0  0
   -6.6866   -2.2440    3.1240 H   0  0  0  0  0  0  0  0  0  0  0  0
   -4.8337   -4.2437   -0.3537 H   0  0  0  0  0  0  0  0  0  0  0  0
   -3.2328   -5.3887   -1.7835 H   0  0  0  0  0  0  0  0  0  0  0  0
   -1.0096   -5.5824   -2.7124 H   0  0  0  0  0  0  0  0  0  0  0  0
    0.2560   -4.4077   -2.2439 H   0  0  0  0  0  0  0  0  0  0  0  0
    0.7472   -5.7247   -0.1731 H   0  0  0  0  0  0  0  0  0  0  0  0
   -0.5743   -6.8893   -0.5956 H   0  0  0  0  0  0  0  0  0  0  0  0
    0.8858   -6.7528   -1.6476 H   0  0  0  0  0  0  0  0  0  0  0  0
   -0.0068   -3.2017    0.0428 H   0  0  0  0  0  0  0  0  0  0  0  0
   -1.5896   -2.0426    1.4777 H   0  0  0  0  0  0  0  0  0  0  0  0
   -1.9317    3.0326    0.9431 H   0  0  0  0  0  0  0  0  0  0  0  0
   -3.3272    4.0891   -1.7618 H   0  0  0  0  0  0  0  0  0  0  0  0
   -0.1913    1.3258   -4.5025 H   0  0  0  0  0  0  0  0  0  0  0  0
   -0.8505    0.5766   -2.2250 H   0  0  0  0  0  0  0  0  0  0  0  0
   -0.3418    2.1359   -6.8864 H   0  0  0  0  0  0  0  0  0  0  0  0
   -1.2111    2.9695   -9.0577 H   0  0  0  0  0  0  0  0  0  0  0  0
   -3.5107    5.9876   -6.9735 H   0  0  0  0  0  0  0  0  0  0  0  0
   -2.8054    5.6320  -10.0136 H   0  0  0  0  0  0  0  0  0  0  0  0
   -6.9179    3.1265   -6.2565 H   0  0  0  0  0  0  0  0  0  0  0  0
   -7.8815    7.0257   -9.3908 H   0  0  0  0  0  0  0  0  0  0  0  0
  -10.4627    6.5311   -7.0564 H   0  0  0  0  0  0  0  0  0  0  0  0
   -8.7636    8.6361   -6.4232 H   0  0  0  0  0  0  0  0  0  0  0  0
  -10.5684    8.6671   -4.4764 H   0  0  0  0  0  0  0  0  0  0  0  0
  -10.0885    6.6574   -2.8867 H   0  0  0  0  0  0  0  0  0  0  0  0
   -7.9945    5.3323   -3.8226 H   0  0  0  0  0  0  0  0  0  0  0  0
   -7.3501    7.8679   -4.3056 H   0  0  0  0  0  0  0  0  0  0  0  0
   -6.8912    6.8522   -5.7299 H   0  0  0  0  0  0  0  0  0  0  0  0
  -10.0360    4.6745   -5.5923 H   0  0  0  0  0  0  0  0  0  0  0  0
  1  2  2  3
  2  3  1  0
  3  4  2  0
  3  5  1  0
  5  6  2  0
  6  7  1  0
  7  8  2  0
  8  9  1  0
  9 10  2  0
 10 11  1  0
 11 12  2  3
 12 13  1  0
 13 14  3  0
 12 15  1  0
 15 16  3  0
  8 17  1  0
 17 18  1  0
 18 19  1  0
 19 20  2  0
 20 21  1  0
 21 22  1  0
 21 23  1  0
  1 24  1  0
 24 25  2  0
 25 26  1  0
 26 27  1  0
 27 28  2  0
 28 29  1  0
 29 30  2  0
 30 31  1  0
 30 32  1  0
 32 33  2  0
 26 34  1  0
 34 35  2  0
 35 36  1  0
 36 37  2  0
 37 38  1  0
 37 39  1  0
 39 40  2  0
 25 41  1  0
 41 42  1  0
 42 43  1  0
 43 44  2  0
 44 45  1  0
 45 46  1  0
 46 47  2  0
 47 48  1  0
 48 49  2  0
 49 50  1  0
 49 51  1  0
 51 52  2  0
 45 53  1  0
 53 54  2  0
 54 55  1  0
 55 56  2  0
 56 57  1  0
 56 58  1  0
 58 59  2  0
 44 60  1  0
 60 61  1  0
 43 62  1  0
 62 63  2  0
 63 64  1  0
 64 65  1  0
 65 66  1  0
 66 67  1  0
 67 68  2  0
 68 69  1  0
 69 70  1  0
 70 71  2  0
 71 72  1  0
 72 73  2  0
 73 74  1  0
 74 75  1  0
 73 76  1  0
 76 77  2  0
 69 78  1  0
 78 79  2  0
 79 80  1  0
 80 81  2  0
 81 82  1  0
 82 83  1  0
 81 84  1  0
 84 85  2  0
 69 86  1  0
 86 87  1  0
 87 88  1  0
 68 89  1  0
 89 90  2  0
 90 91  1  0
 91 92  2  0
 92 93  1  0
 93 94  1  0
 94 95  1  0
 95 96  2  0
 96 97  1  0
 97 98  2  0
 98 99  1  0
 93100  1  0
100101  2  0
101102  1  0
102103  2  0
103104  1  0
104105  1  0
103106  1  0
106107  2  0
 93108  1  0
108109  2  0
109110  1  0
110111  2  0
111112  1  0
112113  1  0
111114  1  0
114115  2  0
 92116  1  0
116117  2  0
117118  1  0
117119  1  0
119120  2  0
120121  1  0
120122  1  0
122123  2  0
123124  1  0
124125  1  0
125126  2  0
125127  1  0
127128  2  0
128129  1  0
129130  1  0
130131  2  0
128132  1  0
132133  2  0
133134  1  0
134135  2  0
134136  1  0
136137  2  3
137138  1  0
138139  2  0
138140  1  0
140141  2  0
141142  1  0
142143  2  0
143144  1  0
144145  2  0
145146  1  0
146147  2  3
147148  1  0
148149  3  0
147150  1  0
150151  3  0
143152  1  0
152153  1  0
153154  1  0
154155  2  0
155156  1  0
156157  1  0
156158  1  0
 11  2  1  0
 23 17  1  0
 61 24  1  0
 88 62  1  0
 95 90  1  0
107100  1  0
115108  1  0
121116  1  0
131122  1  0
146137  1  0
158152  1  0
 10  5  1  0
 22 18  1  0
 33 27  1  0
 40 34  1  0
 60 41  2  0
 87 64  2  0
118 91  1  0
129124  2  0
145140  1  0
157153  1  0
 23  7  1  0
 52 46  1  0
 59 53  1  0
 86 66  2  0
 99 94  2  0
135127  1  0
158142  1  0
 96 67  1  0
 77 70  1  0
 85 78  1  0
  1159  1  0
  6160  1  0
  9161  1  0
 17162  1  0
 18163  1  0
 19164  1  0
 20165  1  0
 21166  1  0
 22167  1  0
 22168  1  0
 23169  1  0
 28170  1  0
 29171  1  0
 31172  1  0
 31173  1  0
 31174  1  0
 32175  1  0
 33176  1  0
 35177  1  0
 36178  1  0
 38179  1  0
 38180  1  0
 38181  1  0
 39182  1  0
 40183  1  0
 47184  1  0
 48185  1  0
 50186  1  0
 50187  1  0
 50188  1  0
 51189  1  0
 52190  1  0
 54191  1  0
 55192  1  0
 57193  1  0
 57194  1  0
 57195  1  0
 58196  1  0
 59197  1  0
 63198  1  0
 71199  1  0
 72200  1  0
 74201  1  0
 74202  1  0
 75203  1  0
 75204  1  0
 75205  1  0
 76206  1  0
 77207  1  0
 79208  1  0
 80209  1  0
 82210  1  0
 82211  1  0
 83212  1  0
 83213  1  0
 83214  1  0
 84215  1  0
 85216  1  0
 89217  1  0
 97218  1  0
 98219  1  0
 99220  1  0
101221  1  0
102222  1  0
104223  1  0
104224  1  0
105225  1  0
105226  1  0
105227  1  0
106228  1  0
107229  1  0
109230  1  0
110231  1  0
112232  1  0
112233  1  0
113234  1  0
113235  1  0
113236  1  0
114237  1  0
115238  1  0
119239  1  0
123240  1  0
130241  1  0
131242  1  0
132243  1  0
133244  1  0
135245  1  0
136246  1  0
141247  1  0
144248  1  0
152249  1  0
153250  1  0
154251  1  0
155252  1  0
156253  1  0
157254  1  0
157255  1  0
158256  1  0
M  END

