
     RDKit          3D

242268  0  0  0  0  0  0  0  0999 V2000
   -5.3382    4.9271   -2.8126 C   0  0  0  0  0  0  0  0  0  0  0  0
   -5.1270    5.0791   -1.4822 C   0  0  0  0  0  0  0  0  0  0  0  0
   -4.0055    4.5309   -0.6998 C   0  0  0  0  0  0  0  0  0  0  0  0
   -3.1678    3.6643   -1.0782 O   0  0  0  0  0  0  0  0  0  0  0  0
   -3.9324    5.2203    0.5695 C   0  0  0  0  0  0  0  0  0  0  0  0
   -2.9892    5.0087    1.6035 C   0  0  0  0  0  0  0  0  0  0  0  0
   -3.0955    5.9028    2.6570 C   0  0  0  0  0  0  0  0  0  0  0  0
   -4.0559    6.9614    2.6791 C   0  0  0  0  0  0  0  0  0  0  0  0
   -4.9940    7.1613    1.6753 C   0  0  0  0  0  0  0  0  0  0  0  0
   -4.9401    6.2141    0.6142 C   0  0  0  0  0  0  0  0  0  0  0  0
   -5.8031    6.0855   -0.6005 C   0  0  0  0  0  0  0  0  0  0  0  0
   -7.0681    6.5502   -0.7315 C   0  0  0  0  0  0  0  0  0  0  0  0
   -7.6767    7.4452    0.2192 C   0  0  0  0  0  0  0  0  0  0  0  0
   -8.1786    8.1866    0.9573 N   0  0  0  0  0  0  0  0  0  0  0  0
   -7.9246    6.1491   -1.8113 C   0  0  0  0  0  0  0  0  0  0  0  0
   -8.6164    5.8359   -2.6831 N   0  0  0  0  0  0  0  0  0  0  0  0
   -3.5102    7.4536    3.9907 C   0  0  0  0  0  0  0  0  0  0  0  0
   -2.5876    8.7165    3.9827 C   0  0  0  0  0  0  0  0  0  0  0  0
   -1.7972    8.7838    2.6916 C   0  0  0  0  0  0  0  0  0  0  0  0
   -0.9328    7.7690    2.7181 C   0  0  0  0  0  0  0  0  0  0  0  0
   -1.1648    7.0483    4.0258 C   0  0  0  0  0  0  0  0  0  0  0  0
   -1.4910    8.2340    4.9146 C   0  0  0  0  0  0  0  0  0  0  0  0
   -2.5525    6.3393    3.9940 C   0  0  0  0  0  0  0  0  0  0  0  0
   -4.6075    3.9642   -3.6726 C   0  0  0  0  0  0  0  0  0  0  0  0
   -3.9406    4.2663   -4.8818 C   0  0  0  0  0  0  0  0  0  0  0  0
   -4.3466    5.3223   -5.7957 N   0  0  0  0  0  0  0  0  0  0  0  0
   -5.7508    5.6542   -5.9253 C   0  0  0  0  0  0  0  0  0  0  0  0
   -6.7339    4.6447   -5.8842 C   0  0  0  0  0  0  0  0  0  0  0  0
   -8.0862    4.9590   -6.0508 C   0  0  0  0  0  0  0  0  0  0  0  0
   -8.4770    6.2828   -6.3065 C   0  0  0  0  0  0  0  0  0  0  0  0
   -9.9226    6.6156   -6.4829 C   0  0  0  0  0  0  0  0  0  0  0  0
   -7.5056    7.2961   -6.3464 C   0  0  0  0  0  0  0  0  0  0  0  0
   -6.1530    6.9793   -6.1689 C   0  0  0  0  0  0  0  0  0  0  0  0
   -3.5524    5.5982   -6.9609 C   0  0  0  0  0  0  0  0  0  0  0  0
   -2.6319    6.6544   -6.9607 C   0  0  0  0  0  0  0  0  0  0  0  0
   -1.8779    6.9278   -8.1046 C   0  0  0  0  0  0  0  0  0  0  0  0
   -2.0470    6.1525   -9.2672 C   0  0  0  0  0  0  0  0  0  0  0  0
   -1.2571    6.4709  -10.5009 C   0  0  0  0  0  0  0  0  0  0  0  0
   -2.9783    5.1044   -9.2671 C   0  0  0  0  0  0  0  0  0  0  0  0
   -3.7291    4.8295   -8.1250 C   0  0  0  0  0  0  0  0  0  0  0  0
   -3.1124    3.1928   -5.2496 C   0  0  0  0  0  0  0  0  0  0  0  0
   -1.7477    3.0526   -6.2215 S   0  0  0  0  0  0  0  0  0  0  0  0
   -1.3837    1.4600   -5.7520 C   0  0  0  0  0  0  0  0  0  0  0  0
   -2.3311    1.0390   -4.7968 C   0  0  0  0  0  0  0  0  0  0  0  0
   -2.2979   -0.2554   -4.1482 N   0  0  0  0  0  0  0  0  0  0  0  0
   -2.8263   -0.4193   -2.8183 C   0  0  0  0  0  0  0  0  0  0  0  0
   -3.8625   -1.3357   -2.5840 C   0  0  0  0  0  0  0  0  0  0  0  0
   -4.5170   -1.3590   -1.3505 C   0  0  0  0  0  0  0  0  0  0  0  0
   -4.1510   -0.4588   -0.3459 C   0  0  0  0  0  0  0  0  0  0  0  0
   -4.9849   -0.3799    0.8962 C   0  0  0  0  0  0  0  0  0  0  0  0
   -3.0503    0.3909   -0.5395 C   0  0  0  0  0  0  0  0  0  0  0  0
   -2.3767    0.3941   -1.7661 C   0  0  0  0  0  0  0  0  0  0  0  0
   -2.0136   -1.4422   -4.9131 C   0  0  0  0  0  0  0  0  0  0  0  0
   -2.6733   -1.6754   -6.1286 C   0  0  0  0  0  0  0  0  0  0  0  0
   -2.4736   -2.8735   -6.8214 C   0  0  0  0  0  0  0  0  0  0  0  0
   -1.5858   -3.8417   -6.3239 C   0  0  0  0  0  0  0  0  0  0  0  0
   -1.3790   -5.1346   -7.0563 C   0  0  0  0  0  0  0  0  0  0  0  0
   -0.9187   -3.6092   -5.1084 C   0  0  0  0  0  0  0  0  0  0  0  0
   -1.1344   -2.4163   -4.4086 C   0  0  0  0  0  0  0  0  0  0  0  0
   -3.2478    2.0553   -4.5190 C   0  0  0  0  0  0  0  0  0  0  0  0
   -4.3698    2.3241   -3.3002 S   0  0  0  0  0  0  0  0  0  0  0  0
   -0.0243    0.9062   -5.8107 C   0  0  0  0  0  0  0  0  0  0  0  0
    0.4242   -0.0846   -6.7136 C   0  0  0  0  0  0  0  0  0  0  0  0
   -0.1048   -0.2494   -8.0997 C   0  0  0  0  0  0  0  0  0  0  0  0
   -0.5309    0.8841   -8.8117 C   0  0  0  0  0  0  0  0  0  0  0  0
   -0.9912    0.7773  -10.1245 C   0  0  0  0  0  0  0  0  0  0  0  0
   -0.9953   -0.4625  -10.7620 C   0  0  0  0  0  0  0  0  0  0  0  0
   -0.5635   -1.6056  -10.0798 C   0  0  0  0  0  0  0  0  0  0  0  0
   -0.4499   -2.9251  -10.7970 C   0  0  0  0  0  0  0  0  0  0  0  0
    1.0144   -3.2491  -11.0976 C   0  0  0  0  0  0  0  0  0  0  0  0
   -0.1353   -1.4995   -8.7435 C   0  0  0  0  0  0  0  0  0  0  0  0
    1.4720   -0.8261   -6.1366 C   0  0  0  0  0  0  0  0  0  0  0  0
    2.1049   -2.4031   -6.3919 S   0  0  0  0  0  0  0  0  0  0  0  0
    2.8353   -2.4282   -4.8575 C   0  0  0  0  0  0  0  0  0  0  0  0
    3.4146   -3.2902   -3.9556 C   0  0  0  0  0  0  0  0  0  0  0  0
    3.8479   -4.6145   -4.0485 C   0  0  0  0  0  0  0  0  0  0  0  0
    4.4278   -5.2337   -2.8934 C   0  0  0  0  0  0  0  0  0  0  0  0
    4.8471   -6.5171   -3.0277 N   0  0  0  0  0  0  0  0  0  0  0  0
    4.4555   -6.7656   -4.6175 S   0  0  0  0  0  0  0  0  0  0  0  0
    3.7655   -5.3645   -5.1704 N   0  0  0  0  0  0  0  0  0  0  0  0
    4.5044   -4.4925   -1.7017 C   0  0  0  0  0  0  0  0  0  0  0  0
    4.8213   -4.8470   -0.4135 C   0  0  0  0  0  0  0  0  0  0  0  0
    5.1016   -6.2674    0.5001 S   0  0  0  0  0  0  0  0  0  0  0  0
    4.8446   -5.4159    1.9605 C   0  0  0  0  0  0  0  0  0  0  0  0
    4.8120   -5.7721    3.3118 C   0  0  0  0  0  0  0  0  0  0  0  0
    4.8265   -7.1725    3.7607 C   0  0  0  0  0  0  0  0  0  0  0  0
    6.0360   -7.8514    3.9567 C   0  0  0  0  0  0  0  0  0  0  0  0
    6.0281   -9.1944    4.3474 C   0  0  0  0  0  0  0  0  0  0  0  0
    4.8158   -9.8748    4.5085 C   0  0  0  0  0  0  0  0  0  0  0  0
    3.5993   -9.2174    4.2674 C   0  0  0  0  0  0  0  0  0  0  0  0
    2.2930   -9.9600    4.3858 C   0  0  0  0  0  0  0  0  0  0  0  0
    1.6198   -9.6654    5.7259 C   0  0  0  0  0  0  0  0  0  0  0  0
    3.6106   -7.8601    3.9093 C   0  0  0  0  0  0  0  0  0  0  0  0
    4.4873   -4.6614    4.1302 C   0  0  0  0  0  0  0  0  0  0  0  0
    4.2119   -3.3010    3.1347 S   0  0  0  0  0  0  0  0  0  0  0  0
    4.5045   -4.1198    1.7119 C   0  0  0  0  0  0  0  0  0  0  0  0
    4.4729   -3.7997    0.3728 C   0  0  0  0  0  0  0  0  0  0  0  0
    3.8426   -2.8052   -0.2988 N   0  0  0  0  0  0  0  0  0  0  0  0
    3.9808   -3.1963   -1.6053 C   0  0  0  0  0  0  0  0  0  0  0  0
    3.5151   -2.5592   -2.7646 C   0  0  0  0  0  0  0  0  0  0  0  0
    3.0949   -1.2720   -2.9284 N   0  0  0  0  0  0  0  0  0  0  0  0
    2.6416   -1.2664   -4.2030 C   0  0  0  0  0  0  0  0  0  0  0  0
    1.8709   -0.3681   -4.9052 C   0  0  0  0  0  0  0  0  0  0  0  0
    0.9147    0.8903   -4.3956 S   0  0  0  0  0  0  0  0  0  0  0  0
    3.6090   -0.0742   -2.2444 C   0  0  0  0  0  0  0  0  0  0  0  0
    4.7197    0.5774   -3.0633 C   0  0  0  0  0  0  0  0  0  0  0  0
    2.6862   -2.0840    0.2669 C   0  0  0  0  0  0  0  0  0  0  0  0
    1.5262   -3.0477    0.5350 C   0  0  0  0  0  0  0  0  0  0  0  0
    4.6070   -4.5460    5.6108 C   0  0  0  0  0  0  0  0  0  0  0  0
    5.6909   -5.1490    6.2772 C   0  0  0  0  0  0  0  0  0  0  0  0
    6.0435   -4.7598    7.5710 C   0  0  0  0  0  0  0  0  0  0  0  0
    5.3596   -3.7198    8.2108 C   0  0  0  0  0  0  0  0  0  0  0  0
    4.2429   -3.1475    7.5839 C   0  0  0  0  0  0  0  0  0  0  0  0
    3.5884   -2.0984    8.1561 N   0  0  0  0  0  0  0  0  0  0  0  0
    2.5126   -1.5108    7.5680 C   0  0  0  0  0  0  0  0  0  0  0  0
    2.0384   -0.2159    8.1104 C   0  0  0  0  0  0  0  0  0  0  0  0
    1.9286   -0.0209    9.5013 C   0  0  0  0  0  0  0  0  0  0  0  0
    1.5499    1.2266   10.0106 C   0  0  0  0  0  0  0  0  0  0  0  0
    1.2851    2.2982    9.1430 C   0  0  0  0  0  0  0  0  0  0  0  0
    0.8733    3.6417    9.6993 C   0  0  0  0  0  0  0  0  0  0  0  0
    1.9929    4.6677    9.5621 C   0  0  0  0  0  0  0  0  0  0  0  0
    1.4146    2.1128    7.7567 C   0  0  0  0  0  0  0  0  0  0  0  0
    1.7996    0.8705    7.2457 C   0  0  0  0  0  0  0  0  0  0  0  0
    1.9887   -2.0923    6.3824 C   0  0  0  0  0  0  0  0  0  0  0  0
    2.7007   -3.0802    5.7769 N   0  0  0  0  0  0  0  0  0  0  0  0
    3.8363   -3.5950    6.3127 C   0  0  0  0  0  0  0  0  0  0  0  0
    0.6663   -1.7227    5.8155 C   0  0  0  0  0  0  0  0  0  0  0  0
    0.4592   -1.7521    4.4266 C   0  0  0  0  0  0  0  0  0  0  0  0
   -0.8066   -1.4687    3.8934 C   0  0  0  0  0  0  0  0  0  0  0  0
   -1.8753   -1.1472    4.7436 C   0  0  0  0  0  0  0  0  0  0  0  0
   -3.2355   -0.8338    4.1840 C   0  0  0  0  0  0  0  0  0  0  0  0
   -3.5645    0.6479    4.3286 C   0  0  0  0  0  0  0  0  0  0  0  0
   -1.6784   -1.1494    6.1331 C   0  0  0  0  0  0  0  0  0  0  0  0
   -0.4160   -1.4378    6.6627 C   0  0  0  0  0  0  0  0  0  0  0  0
    5.8214   -3.2342    9.5215 C   0  0  0  0  0  0  0  0  0  0  0  0
    6.3288   -2.0000    9.7159 C   0  0  0  0  0  0  0  0  0  0  0  0
    6.4755   -0.9635    8.6826 C   0  0  0  0  0  0  0  0  0  0  0  0
    6.4777   -1.1463    7.4351 O   0  0  0  0  0  0  0  0  0  0  0  0
    6.6452    0.3198    9.3351 C   0  0  0  0  0  0  0  0  0  0  0  0
    6.6780    0.1349   10.7112 C   0  0  0  0  0  0  0  0  0  0  0  0
    6.7555    1.2596   11.5572 C   0  0  0  0  0  0  0  0  0  0  0  0
    6.8498    2.5409   10.9841 C   0  0  0  0  0  0  0  0  0  0  0  0
    6.9389    3.6278   11.7939 F   0  0  0  0  0  0  0  0  0  0  0  0
    6.8355    2.7024    9.5865 C   0  0  0  0  0  0  0  0  0  0  0  0
    6.9086    3.9468    9.0575 F   0  0  0  0  0  0  0  0  0  0  0  0
    6.7220    1.5852    8.7487 C   0  0  0  0  0  0  0  0  0  0  0  0
    6.6770    1.7416    7.3975 F   0  0  0  0  0  0  0  0  0  0  0  0
    6.6078   -1.3229   11.0246 C   0  0  0  0  0  0  0  0  0  0  0  0
    6.9328   -1.9124   12.2061 C   0  0  0  0  0  0  0  0  0  0  0  0
    7.2888   -1.1577   13.3829 C   0  0  0  0  0  0  0  0  0  0  0  0
    7.5729   -0.5629   14.3346 N   0  0  0  0  0  0  0  0  0  0  0  0
    7.0495   -3.3383   12.3619 C   0  0  0  0  0  0  0  0  0  0  0  0
    7.1466   -4.4824   12.5144 N   0  0  0  0  0  0  0  0  0  0  0  0
   -5.9844    5.6288   -3.3133 H   0  0  0  0  0  0  0  0  0  0  0  0
   -2.2475    4.2162    1.5743 H   0  0  0  0  0  0  0  0  0  0  0  0
   -5.6661    7.9978    1.7012 H   0  0  0  0  0  0  0  0  0  0  0  0
   -4.2400    7.4101    4.8269 H   0  0  0  0  0  0  0  0  0  0  0  0
   -3.0899    9.6578    4.2710 H   0  0  0  0  0  0  0  0  0  0  0  0
   -1.8284    9.5610    1.9339 H   0  0  0  0  0  0  0  0  0  0  0  0
   -0.1528    7.5746    1.9974 H   0  0  0  0  0  0  0  0  0  0  0  0
   -0.3156    6.4279    4.3646 H   0  0  0  0  0  0  0  0  0  0  0  0
   -1.8606    7.9456    5.9293 H   0  0  0  0  0  0  0  0  0  0  0  0
   -0.6450    8.9588    5.0138 H   0  0  0  0  0  0  0  0  0  0  0  0
   -2.7136    5.6071    4.8100 H   0  0  0  0  0  0  0  0  0  0  0  0
   -6.4568    3.6124   -5.7204 H   0  0  0  0  0  0  0  0  0  0  0  0
   -8.8229    4.1625   -5.9858 H   0  0  0  0  0  0  0  0  0  0  0  0
  -10.4359    5.8037   -7.0453 H   0  0  0  0  0  0  0  0  0  0  0  0
  -10.3996    6.7297   -5.4847 H   0  0  0  0  0  0  0  0  0  0  0  0
  -10.0481    7.5618   -7.0516 H   0  0  0  0  0  0  0  0  0  0  0  0
   -7.7909    8.3246   -6.5280 H   0  0  0  0  0  0  0  0  0  0  0  0
   -5.4151    7.7669   -6.2199 H   0  0  0  0  0  0  0  0  0  0  0  0
   -2.5086    7.2693   -6.0757 H   0  0  0  0  0  0  0  0  0  0  0  0
   -1.1642    7.7452   -8.0890 H   0  0  0  0  0  0  0  0  0  0  0  0
   -0.1731    6.5015  -10.2599 H   0  0  0  0  0  0  0  0  0  0  0  0
   -1.4226    5.7078  -11.2930 H   0  0  0  0  0  0  0  0  0  0  0  0
   -1.5716    7.4602  -10.8914 H   0  0  0  0  0  0  0  0  0  0  0  0
   -3.1170    4.4869  -10.1472 H   0  0  0  0  0  0  0  0  0  0  0  0
   -4.4411    4.0110   -8.1327 H   0  0  0  0  0  0  0  0  0  0  0  0
   -4.2048   -1.9956   -3.3720 H   0  0  0  0  0  0  0  0  0  0  0  0
   -5.3449   -2.0401   -1.2042 H   0  0  0  0  0  0  0  0  0  0  0  0
   -6.0326   -0.1383    0.6168 H   0  0  0  0  0  0  0  0  0  0  0  0
   -4.6104    0.4122    1.5735 H   0  0  0  0  0  0  0  0  0  0  0  0
   -4.9665   -1.3591    1.4226 H   0  0  0  0  0  0  0  0  0  0  0  0
   -2.7511    1.0953    0.2220 H   0  0  0  0  0  0  0  0  0  0  0  0
   -1.5720    1.0990   -1.9305 H   0  0  0  0  0  0  0  0  0  0  0  0
   -3.3662   -0.9384   -6.5265 H   0  0  0  0  0  0  0  0  0  0  0  0
   -3.0124   -3.0387   -7.7463 H   0  0  0  0  0  0  0  0  0  0  0  0
   -1.8721   -5.9619   -6.5001 H   0  0  0  0  0  0  0  0  0  0  0  0
   -1.8184   -5.0954   -8.0767 H   0  0  0  0  0  0  0  0  0  0  0  0
   -0.2927   -5.3506   -7.1615 H   0  0  0  0  0  0  0  0  0  0  0  0
   -0.2294   -4.3446   -4.7075 H   0  0  0  0  0  0  0  0  0  0  0  0
   -0.6113   -2.2384   -3.4790 H   0  0  0  0  0  0  0  0  0  0  0  0
   -0.4621    1.8722   -8.3796 H   0  0  0  0  0  0  0  0  0  0  0  0
   -1.3116    1.6610  -10.6556 H   0  0  0  0  0  0  0  0  0  0  0  0
   -1.3207   -0.5224  -11.7910 H   0  0  0  0  0  0  0  0  0  0  0  0
   -1.0176   -2.8994  -11.7489 H   0  0  0  0  0  0  0  0  0  0  0  0
   -0.8851   -3.7271  -10.1647 H   0  0  0  0  0  0  0  0  0  0  0  0
    1.4864   -2.4197  -11.6693 H   0  0  0  0  0  0  0  0  0  0  0  0
    1.5747   -3.4010  -10.1503 H   0  0  0  0  0  0  0  0  0  0  0  0
    1.0712   -4.1792  -11.7011 H   0  0  0  0  0  0  0  0  0  0  0  0
    0.1663   -2.3959   -8.2246 H   0  0  0  0  0  0  0  0  0  0  0  0
    6.9794   -7.3371    3.8176 H   0  0  0  0  0  0  0  0  0  0  0  0
    6.9671   -9.7137    4.5225 H   0  0  0  0  0  0  0  0  0  0  0  0
    4.8266  -10.9174    4.8084 H   0  0  0  0  0  0  0  0  0  0  0  0
    1.6177   -9.6558    3.5582 H   0  0  0  0  0  0  0  0  0  0  0  0
    2.4572  -11.0551    4.2980 H   0  0  0  0  0  0  0  0  0  0  0  0
    0.6563  -10.2172    5.7758 H   0  0  0  0  0  0  0  0  0  0  0  0
    1.4136   -8.5782    5.8268 H   0  0  0  0  0  0  0  0  0  0  0  0
    2.2645  -10.0018    6.5662 H   0  0  0  0  0  0  0  0  0  0  0  0
    2.6732   -7.3430    3.7154 H   0  0  0  0  0  0  0  0  0  0  0  0
    2.7828    0.6509   -2.0927 H   0  0  0  0  0  0  0  0  0  0  0  0
    4.0309   -0.3237   -1.2549 H   0  0  0  0  0  0  0  0  0  0  0  0
    5.5535   -0.1365   -3.2361 H   0  0  0  0  0  0  0  0  0  0  0  0
    4.3406    0.9185   -4.0488 H   0  0  0  0  0  0  0  0  0  0  0  0
    5.1164    1.4608   -2.5181 H   0  0  0  0  0  0  0  0  0  0  0  0
    2.2967   -1.3165   -0.4257 H   0  0  0  0  0  0  0  0  0  0  0  0
    2.9861   -1.5825    1.2103 H   0  0  0  0  0  0  0  0  0  0  0  0
    0.6558   -2.4658    0.9151 H   0  0  0  0  0  0  0  0  0  0  0  0
    1.7924   -3.8103    1.2983 H   0  0  0  0  0  0  0  0  0  0  0  0
    1.2284   -3.5526   -0.4144 H   0  0  0  0  0  0  0  0  0  0  0  0
    6.3247   -5.8570    5.7634 H   0  0  0  0  0  0  0  0  0  0  0  0
    6.9057   -5.2218    8.0493 H   0  0  0  0  0  0  0  0  0  0  0  0
    2.1258   -0.8375   10.1900 H   0  0  0  0  0  0  0  0  0  0  0  0
    1.4580    1.3582   11.0855 H   0  0  0  0  0  0  0  0  0  0  0  0
   -0.0298    4.0054    9.1618 H   0  0  0  0  0  0  0  0  0  0  0  0
    0.6085    3.5507   10.7746 H   0  0  0  0  0  0  0  0  0  0  0  0
    2.9078    4.3086   10.0862 H   0  0  0  0  0  0  0  0  0  0  0  0
    1.6774    5.6334   10.0203 H   0  0  0  0  0  0  0  0  0  0  0  0
    2.2182    4.8569    8.4905 H   0  0  0  0  0  0  0  0  0  0  0  0
    1.2447    2.9363    7.0704 H   0  0  0  0  0  0  0  0  0  0  0  0
    1.9209    0.7589    6.1726 H   0  0  0  0  0  0  0  0  0  0  0  0
    1.2690   -1.9956    3.7515 H   0  0  0  0  0  0  0  0  0  0  0  0
   -0.9487   -1.4997    2.8217 H   0  0  0  0  0  0  0  0  0  0  0  0
   -3.2791   -1.1150    3.1118 H   0  0  0  0  0  0  0  0  0  0  0  0
   -4.0032   -1.4391    4.7185 H   0  0  0  0  0  0  0  0  0  0  0  0
   -3.5788    0.9325    5.4023 H   0  0  0  0  0  0  0  0  0  0  0  0
   -4.5735    0.8469    3.9104 H   0  0  0  0  0  0  0  0  0  0  0  0
   -2.8162    1.2699    3.7866 H   0  0  0  0  0  0  0  0  0  0  0  0
   -2.4980   -0.9385    6.8101 H   0  0  0  0  0  0  0  0  0  0  0  0
   -0.3048   -1.4865    7.7403 H   0  0  0  0  0  0  0  0  0  0  0  0
    5.6581   -3.9083   10.3483 H   0  0  0  0  0  0  0  0  0  0  0  0
    6.7321    1.1787   12.6309 H   0  0  0  0  0  0  0  0  0  0  0  0
  1  2  2  3
  2  3  1  0
  3  4  2  0
  3  5  1  0
  5  6  2  0
  6  7  1  0
  7  8  2  0
  8  9  1  0
  9 10  2  0
 10 11  1  0
 11 12  2  3
 12 13  1  0
 13 14  3  0
 12 15  1  0
 15 16  3  0
  8 17  1  0
 17 18  1  0
 18 19  1  0
 19 20  2  0
 20 21  1  0
 21 22  1  0
 21 23  1  0
  1 24  1  0
 24 25  2  0
 25 26  1  0
 26 27  1  0
 27 28  2  0
 28 29  1  0
 29 30  2  0
 30 31  1  0
 30 32  1  0
 32 33  2  0
 26 34  1  0
 34 35  2  0
 35 36  1  0
 36 37  2  0
 37 38  1  0
 37 39  1  0
 39 40  2  0
 25 41  1  0
 41 42  1  0
 42 43  1  0
 43 44  2  0
 44 45  1  0
 45 46  1  0
 46 47  2  0
 47 48  1  0
 48 49  2  0
 49 50  1  0
 49 51  1  0
 51 52  2  0
 45 53  1  0
 53 54  2  0
 54 55  1  0
 55 56  2  0
 56 57  1  0
 56 58  1  0
 58 59  2  0
 44 60  1  0
 60 61  1  0
 43 62  1  0
 62 63  2  0
 63 64  1  0
 64 65  2  0
 65 66  1  0
 66 67  2  0
 67 68  1  0
 68 69  1  0
 69 70  1  0
 68 71  2  0
 63 72  1  0
 72 73  1  0
 73 74  1  0
 74 75  1  0
 75 76  1  0
 76 77  1  0
 77 78  2  0
 78 79  1  0
 79 80  1  0
 77 81  1  0
 81 82  1  0
 82 83  1  0
 83 84  1  0
 84 85  1  0
 85 86  1  0
 86 87  2  0
 87 88  1  0
 88 89  2  0
 89 90  1  0
 90 91  1  0
 91 92  1  0
 90 93  2  0
 85 94  2  0
 94 95  1  0
 95 96  1  0
 96 97  1  0
 97 98  1  0
 98 99  1  0
 99100  1  0
100101  1  0
101102  1  0
102103  1  0
103104  1  0
101105  1  0
105106  1  0
 98107  1  0
107108  1  0
 94109  1  0
109110  2  0
110111  1  0
111112  2  0
112113  1  0
113114  2  0
114115  1  0
115116  1  0
116117  2  0
117118  1  0
118119  2  0
119120  1  0
120121  1  0
119122  1  0
122123  2  0
115124  2  0
124125  1  0
125126  2  0
124127  1  0
127128  2  0
128129  1  0
129130  2  0
130131  1  0
131132  1  0
130133  1  0
133134  2  0
112135  1  0
135136  2  3
136137  1  0
137138  2  0
137139  1  0
139140  2  0
140141  1  0
141142  2  0
142143  1  0
142144  1  0
144145  1  0
144146  2  0
146147  1  0
140148  1  0
148149  2  3
149150  1  0
150151  3  0
149152  1  0
152153  3  0
 11  2  1  0
 23 17  1  0
 61 24  1  0
104 62  1  0
126109  1  0
134127  1  0
148136  1  0
 10  5  1  0
 22 18  1  0
 33 27  1  0
 40 34  1  0
 60 41  2  0
 71 64  1  0
103 72  2  0
126113  1  0
146139  1  0
 23  7  1  0
 52 46  1  0
 59 53  1  0
102 74  2  0
123116  1  0
100 75  2  0
 80 76  2  0
 99 81  2  0
 97 82  2  0
 96 84  2  0
 93 86  1  0
  1154  1  0
  6155  1  0
  9156  1  0
 17157  1  0
 18158  1  0
 19159  1  0
 20160  1  0
 21161  1  0
 22162  1  0
 22163  1  0
 23164  1  0
 28165  1  0
 29166  1  0
 31167  1  0
 31168  1  0
 31169  1  0
 32170  1  0
 33171  1  0
 35172  1  0
 36173  1  0
 38174  1  0
 38175  1  0
 38176  1  0
 39177  1  0
 40178  1  0
 47179  1  0
 48180  1  0
 50181  1  0
 50182  1  0
 50183  1  0
 51184  1  0
 52185  1  0
 54186  1  0
 55187  1  0
 57188  1  0
 57189  1  0
 57190  1  0
 58191  1  0
 59192  1  0
 65193  1  0
 66194  1  0
 67195  1  0
 69196  1  0
 69197  1  0
 70198  1  0
 70199  1  0
 70200  1  0
 71201  1  0
 87202  1  0
 88203  1  0
 89204  1  0
 91205  1  0
 91206  1  0
 92207  1  0
 92208  1  0
 92209  1  0
 93210  1  0
105211  1  0
105212  1  0
106213  1  0
106214  1  0
106215  1  0
107216  1  0
107217  1  0
108218  1  0
108219  1  0
108220  1  0
110221  1  0
111222  1  0
117223  1  0
118224  1  0
120225  1  0
120226  1  0
121227  1  0
121228  1  0
121229  1  0
122230  1  0
123231  1  0
128232  1  0
129233  1  0
131234  1  0
131235  1  0
132236  1  0
132237  1  0
132238  1  0
133239  1  0
134240  1  0
135241  1  0
141242  1  0
M  END

