
     RDKit          3D

259289  0  0  0  0  0  0  0  0999 V2000
    2.9948   -4.4105   -4.5428 C   0  0  0  0  0  0  0  0  0  0  0  0
    1.7159   -4.0153   -4.7246 C   0  0  0  0  0  0  0  0  0  0  0  0
    1.1053   -2.8587   -4.0472 C   0  0  0  0  0  0  0  0  0  0  0  0
    1.6280   -2.1640   -3.1355 O   0  0  0  0  0  0  0  0  0  0  0  0
   -0.2446   -2.6957   -4.5147 C   0  0  0  0  0  0  0  0  0  0  0  0
   -1.1280   -1.6519   -4.1570 C   0  0  0  0  0  0  0  0  0  0  0  0
   -2.3396   -1.6993   -4.8100 C   0  0  0  0  0  0  0  0  0  0  0  0
   -2.6767   -2.7180   -5.7551 C   0  0  0  0  0  0  0  0  0  0  0  0
   -1.8213   -3.7565   -6.0921 C   0  0  0  0  0  0  0  0  0  0  0  0
   -0.5551   -3.7288   -5.4337 C   0  0  0  0  0  0  0  0  0  0  0  0
    0.6440   -4.6221   -5.5896 C   0  0  0  0  0  0  0  0  0  0  0  0
    0.7444   -5.7135   -6.4014 C   0  0  0  0  0  0  0  0  0  0  0  0
   -0.3631   -6.2274   -7.1649 C   0  0  0  0  0  0  0  0  0  0  0  0
   -1.2358   -6.6583   -7.7959 N   0  0  0  0  0  0  0  0  0  0  0  0
    1.9681   -6.4365   -6.6002 C   0  0  0  0  0  0  0  0  0  0  0  0
    2.9508   -7.0251   -6.7810 N   0  0  0  0  0  0  0  0  0  0  0  0
   -4.0198   -2.0851   -5.9789 C   0  0  0  0  0  0  0  0  0  0  0  0
   -5.2359   -2.8139   -5.3471 C   0  0  0  0  0  0  0  0  0  0  0  0
   -6.3692   -1.8136   -5.3317 C   0  0  0  0  0  0  0  0  0  0  0  0
   -6.0518   -0.8919   -4.4149 C   0  0  0  0  0  0  0  0  0  0  0  0
   -4.7155   -1.2982   -3.8469 C   0  0  0  0  0  0  0  0  0  0  0  0
   -4.9054   -2.8047   -3.8695 C   0  0  0  0  0  0  0  0  0  0  0  0
   -3.6806   -1.0597   -4.9855 C   0  0  0  0  0  0  0  0  0  0  0  0
    3.9843   -3.5540   -3.8748 C   0  0  0  0  0  0  0  0  0  0  0  0
    4.5930   -3.8142   -2.6429 C   0  0  0  0  0  0  0  0  0  0  0  0
    4.5066   -5.0602   -1.9360 N   0  0  0  0  0  0  0  0  0  0  0  0
    5.7119   -5.8474   -1.8309 C   0  0  0  0  0  0  0  0  0  0  0  0
    6.0964   -6.4167   -0.6044 C   0  0  0  0  0  0  0  0  0  0  0  0
    7.3176   -7.0903   -0.4913 C   0  0  0  0  0  0  0  0  0  0  0  0
    8.1746   -7.1993   -1.5965 C   0  0  0  0  0  0  0  0  0  0  0  0
    9.5174   -7.8588   -1.4709 C   0  0  0  0  0  0  0  0  0  0  0  0
    7.7914   -6.6377   -2.8205 C   0  0  0  0  0  0  0  0  0  0  0  0
    6.5721   -5.9694   -2.9356 C   0  0  0  0  0  0  0  0  0  0  0  0
    3.2852   -5.4184   -1.2522 C   0  0  0  0  0  0  0  0  0  0  0  0
    2.9155   -6.7663   -1.1090 C   0  0  0  0  0  0  0  0  0  0  0  0
    1.7411   -7.1105   -0.4334 C   0  0  0  0  0  0  0  0  0  0  0  0
    0.9068   -6.1131    0.0932 C   0  0  0  0  0  0  0  0  0  0  0  0
   -0.3214   -6.4833    0.8742 C   0  0  0  0  0  0  0  0  0  0  0  0
    1.2685   -4.7666   -0.0499 C   0  0  0  0  0  0  0  0  0  0  0  0
    2.4434   -4.4220   -0.7188 C   0  0  0  0  0  0  0  0  0  0  0  0
    5.2810   -2.7056   -2.1722 C   0  0  0  0  0  0  0  0  0  0  0  0
    5.9055   -2.2652   -0.6798 S   0  0  0  0  0  0  0  0  0  0  0  0
    6.1772   -0.6355   -1.1162 C   0  0  0  0  0  0  0  0  0  0  0  0
    5.7582   -0.4557   -2.4513 C   0  0  0  0  0  0  0  0  0  0  0  0
    5.9540    0.7312   -3.2357 N   0  0  0  0  0  0  0  0  0  0  0  0
    7.0465    0.7210   -4.1807 C   0  0  0  0  0  0  0  0  0  0  0  0
    8.2971    0.1933   -3.8117 C   0  0  0  0  0  0  0  0  0  0  0  0
    9.3405    0.1228   -4.7358 C   0  0  0  0  0  0  0  0  0  0  0  0
    9.1504    0.5654   -6.0524 C   0  0  0  0  0  0  0  0  0  0  0  0
   10.2845    0.5086   -7.0313 C   0  0  0  0  0  0  0  0  0  0  0  0
    7.9114    1.1092   -6.4236 C   0  0  0  0  0  0  0  0  0  0  0  0
    6.8672    1.1852   -5.4974 C   0  0  0  0  0  0  0  0  0  0  0  0
    4.9890    1.8089   -3.2047 C   0  0  0  0  0  0  0  0  0  0  0  0
    5.4132    3.1380   -3.3825 C   0  0  0  0  0  0  0  0  0  0  0  0
    4.5157    4.1978   -3.2281 C   0  0  0  0  0  0  0  0  0  0  0  0
    3.1758    3.9457   -2.8971 C   0  0  0  0  0  0  0  0  0  0  0  0
    2.2175    5.0790   -2.6696 C   0  0  0  0  0  0  0  0  0  0  0  0
    2.7427    2.6246   -2.7377 C   0  0  0  0  0  0  0  0  0  0  0  0
    3.6379    1.5634   -2.8940 C   0  0  0  0  0  0  0  0  0  0  0  0
    5.2641   -1.6319   -2.9962 C   0  0  0  0  0  0  0  0  0  0  0  0
    4.3812   -1.9729   -4.3801 S   0  0  0  0  0  0  0  0  0  0  0  0
    6.4070    0.4351   -0.1224 C   0  0  0  0  0  0  0  0  0  0  0  0
    7.0821    0.3043    1.1169 C   0  0  0  0  0  0  0  0  0  0  0  0
    8.1023   -0.7327    1.4039 C   0  0  0  0  0  0  0  0  0  0  0  0
    9.0677   -1.0307    0.4304 C   0  0  0  0  0  0  0  0  0  0  0  0
   10.0815   -1.9515    0.6928 C   0  0  0  0  0  0  0  0  0  0  0  0
   10.1480   -2.5821    1.9348 C   0  0  0  0  0  0  0  0  0  0  0  0
    9.1872   -2.3063    2.9206 C   0  0  0  0  0  0  0  0  0  0  0  0
    9.3025   -2.9502    4.2775 C   0  0  0  0  0  0  0  0  0  0  0  0
   10.1907   -2.1197    5.1990 C   0  0  0  0  0  0  0  0  0  0  0  0
    8.1657   -1.3769    2.6518 C   0  0  0  0  0  0  0  0  0  0  0  0
    6.7559    1.3702    1.9775 C   0  0  0  0  0  0  0  0  0  0  0  0
    7.0014    1.6970    3.6397 S   0  0  0  0  0  0  0  0  0  0  0  0
    6.0433    3.1009    3.5619 C   0  0  0  0  0  0  0  0  0  0  0  0
    5.2856    3.8477    4.4268 C   0  0  0  0  0  0  0  0  0  0  0  0
    5.0635    3.6810    5.8030 C   0  0  0  0  0  0  0  0  0  0  0  0
    3.9240    4.3087    6.3986 C   0  0  0  0  0  0  0  0  0  0  0  0
    3.7058    4.0621    7.7119 N   0  0  0  0  0  0  0  0  0  0  0  0
    4.9782    3.0486    8.0255 S   0  0  0  0  0  0  0  0  0  0  0  0
    5.8106    2.8807    6.6041 N   0  0  0  0  0  0  0  0  0  0  0  0
    3.1166    5.1332    5.6064 C   0  0  0  0  0  0  0  0  0  0  0  0
    1.9426    5.7973    5.8715 C   0  0  0  0  0  0  0  0  0  0  0  0
    0.5851    5.4473    6.8371 S   0  0  0  0  0  0  0  0  0  0  0  0
   -0.4915    6.1348    5.7009 C   0  0  0  0  0  0  0  0  0  0  0  0
   -1.8525    5.8825    5.4556 C   0  0  0  0  0  0  0  0  0  0  0  0
   -2.8408    5.6083    6.5156 C   0  0  0  0  0  0  0  0  0  0  0  0
   -3.9345    6.4753    6.6677 C   0  0  0  0  0  0  0  0  0  0  0  0
   -4.9016    6.2293    7.6442 C   0  0  0  0  0  0  0  0  0  0  0  0
   -4.7769    5.1238    8.4890 C   0  0  0  0  0  0  0  0  0  0  0  0
   -3.6887    4.2453    8.3504 C   0  0  0  0  0  0  0  0  0  0  0  0
   -3.5488    3.0658    9.2757 C   0  0  0  0  0  0  0  0  0  0  0  0
   -2.6543    3.4168   10.4567 C   0  0  0  0  0  0  0  0  0  0  0  0
   -2.7145    4.4985    7.3654 C   0  0  0  0  0  0  0  0  0  0  0  0
   -2.1665    6.0475    4.0867 C   0  0  0  0  0  0  0  0  0  0  0  0
   -0.7714    6.5770    3.2664 S   0  0  0  0  0  0  0  0  0  0  0  0
    0.2103    6.5850    4.6097 C   0  0  0  0  0  0  0  0  0  0  0  0
    1.5754    6.3996    4.7059 C   0  0  0  0  0  0  0  0  0  0  0  0
    2.4568    6.2010    3.7030 N   0  0  0  0  0  0  0  0  0  0  0  0
    3.3768    5.3449    4.2451 C   0  0  0  0  0  0  0  0  0  0  0  0
    4.3944    4.5771    3.6185 C   0  0  0  0  0  0  0  0  0  0  0  0
    4.4820    4.1649    2.3140 N   0  0  0  0  0  0  0  0  0  0  0  0
    5.5267    3.2990    2.3231 C   0  0  0  0  0  0  0  0  0  0  0  0
    5.9175    2.3089    1.4342 C   0  0  0  0  0  0  0  0  0  0  0  0
    5.4660    1.8474   -0.0982 S   0  0  0  0  0  0  0  0  0  0  0  0
    3.4015    4.1172    1.3180 C   0  0  0  0  0  0  0  0  0  0  0  0
    2.3707    3.0526    1.6790 C   0  0  0  0  0  0  0  0  0  0  0  0
    2.5953    7.1927    2.6127 C   0  0  0  0  0  0  0  0  0  0  0  0
    4.0503    7.5170    2.2575 C   0  0  0  0  0  0  0  0  0  0  0  0
   -3.2725    5.3954    3.3435 C   0  0  0  0  0  0  0  0  0  0  0  0
   -4.3498    4.6647    3.8631 C   0  0  0  0  0  0  0  0  0  0  0  0
   -5.0058    3.8782    2.8979 C   0  0  0  0  0  0  0  0  0  0  0  0
   -6.0501    2.9624    3.1445 C   0  0  0  0  0  0  0  0  0  0  0  0
   -6.6732    2.8195    4.4770 C   0  0  0  0  0  0  0  0  0  0  0  0
   -6.5756    1.6081    5.1775 C   0  0  0  0  0  0  0  0  0  0  0  0
   -7.2093    1.4576    6.4139 C   0  0  0  0  0  0  0  0  0  0  0  0
   -7.9564    2.5063    6.9651 C   0  0  0  0  0  0  0  0  0  0  0  0
   -8.6019    2.2888    8.1904 O   0  0  0  0  0  0  0  0  0  0  0  0
   -9.4944    3.2141    8.8046 C   0  0  0  0  0  0  0  0  0  0  0  0
  -10.0237    2.6281   10.1073 C   0  0  0  0  0  0  0  0  0  0  0  0
   -8.0370    3.7307    6.2723 C   0  0  0  0  0  0  0  0  0  0  0  0
   -7.3906    3.8856    5.0414 C   0  0  0  0  0  0  0  0  0  0  0  0
   -6.4510    2.1524    2.0656 C   0  0  0  0  0  0  0  0  0  0  0  0
   -5.8504    2.2237    0.8010 C   0  0  0  0  0  0  0  0  0  0  0  0
   -4.8134    3.1440    0.5534 C   0  0  0  0  0  0  0  0  0  0  0  0
   -4.0444    3.1561   -0.7134 C   0  0  0  0  0  0  0  0  0  0  0  0
   -3.9409    4.3370   -1.4602 C   0  0  0  0  0  0  0  0  0  0  0  0
   -3.1455    4.3805   -2.6085 C   0  0  0  0  0  0  0  0  0  0  0  0
   -2.4370    3.2389   -3.0274 C   0  0  0  0  0  0  0  0  0  0  0  0
   -1.6125    3.2408   -4.1618 O   0  0  0  0  0  0  0  0  0  0  0  0
   -1.4147    4.3741   -5.0053 C   0  0  0  0  0  0  0  0  0  0  0  0
   -0.4515    4.0141   -6.1276 C   0  0  0  0  0  0  0  0  0  0  0  0
   -2.5495    2.0579   -2.2840 C   0  0  0  0  0  0  0  0  0  0  0  0
   -3.3426    2.0143   -1.1331 C   0  0  0  0  0  0  0  0  0  0  0  0
   -4.4399    3.9747    1.6248 C   0  0  0  0  0  0  0  0  0  0  0  0
   -3.1546    5.0443    1.6918 S   0  0  0  0  0  0  0  0  0  0  0  0
   -6.3631    1.2867   -0.1085 C   0  0  0  0  0  0  0  0  0  0  0  0
   -7.3424    0.4734    0.4616 C   0  0  0  0  0  0  0  0  0  0  0  0
   -7.6168    0.9359    2.0592 S   0  0  0  0  0  0  0  0  0  0  0  0
   -7.9780   -0.6809   -0.1784 C   0  0  0  0  0  0  0  0  0  0  0  0
   -7.2824   -1.7362   -0.6342 C   0  0  0  0  0  0  0  0  0  0  0  0
   -5.8652   -2.0191   -0.3502 C   0  0  0  0  0  0  0  0  0  0  0  0
   -5.0038   -1.2082    0.0843 O   0  0  0  0  0  0  0  0  0  0  0  0
   -5.6192   -3.4229   -0.5743 C   0  0  0  0  0  0  0  0  0  0  0  0
   -4.3983   -4.1117   -0.3950 C   0  0  0  0  0  0  0  0  0  0  0  0
   -4.4753   -5.4628   -0.6631 C   0  0  0  0  0  0  0  0  0  0  0  0
   -5.6843   -6.1134   -1.0690 C   0  0  0  0  0  0  0  0  0  0  0  0
   -6.8813   -5.4403   -1.2568 C   0  0  0  0  0  0  0  0  0  0  0  0
   -6.8155   -4.0387   -1.0223 C   0  0  0  0  0  0  0  0  0  0  0  0
   -7.8588   -2.9896   -1.2055 C   0  0  0  0  0  0  0  0  0  0  0  0
   -8.9586   -3.0729   -1.9990 C   0  0  0  0  0  0  0  0  0  0  0  0
   -9.3162   -4.2744   -2.7093 C   0  0  0  0  0  0  0  0  0  0  0  0
   -9.6124   -5.2240   -3.2988 N   0  0  0  0  0  0  0  0  0  0  0  0
   -9.7567   -1.9142   -2.3128 C   0  0  0  0  0  0  0  0  0  0  0  0
  -10.3942   -0.9832   -2.5610 N   0  0  0  0  0  0  0  0  0  0  0  0
   -4.9789   -7.4402   -1.0983 C   0  0  0  0  0  0  0  0  0  0  0  0
   -4.6420   -8.0560   -2.4907 C   0  0  0  0  0  0  0  0  0  0  0  0
   -4.4356   -6.9539   -3.5068 C   0  0  0  0  0  0  0  0  0  0  0  0
   -3.3110   -6.3262   -3.1604 C   0  0  0  0  0  0  0  0  0  0  0  0
   -2.7875   -7.0260   -1.9239 C   0  0  0  0  0  0  0  0  0  0  0  0
   -3.1947   -8.4498   -2.2601 C   0  0  0  0  0  0  0  0  0  0  0  0
   -3.7354   -6.7661   -0.7119 C   0  0  0  0  0  0  0  0  0  0  0  0
    3.3531   -5.3635   -4.8777 H   0  0  0  0  0  0  0  0  0  0  0  0
   -0.8740   -0.8727   -3.4509 H   0  0  0  0  0  0  0  0  0  0  0  0
   -2.1323   -4.4860   -6.8136 H   0  0  0  0  0  0  0  0  0  0  0  0
   -4.1680   -1.7002   -7.0122 H   0  0  0  0  0  0  0  0  0  0  0  0
   -5.4829   -3.8038   -5.7829 H   0  0  0  0  0  0  0  0  0  0  0  0
   -7.3127   -1.8803   -5.8637 H   0  0  0  0  0  0  0  0  0  0  0  0
   -6.6896   -0.0816   -4.0779 H   0  0  0  0  0  0  0  0  0  0  0  0
   -4.4608   -0.8560   -2.8615 H   0  0  0  0  0  0  0  0  0  0  0  0
   -5.7610   -3.1660   -3.2612 H   0  0  0  0  0  0  0  0  0  0  0  0
   -3.9989   -3.3791   -3.5902 H   0  0  0  0  0  0  0  0  0  0  0  0
   -3.6335   -0.0256   -5.3886 H   0  0  0  0  0  0  0  0  0  0  0  0
    5.4699   -6.3081    0.2706 H   0  0  0  0  0  0  0  0  0  0  0  0
    7.6012   -7.5095    0.4670 H   0  0  0  0  0  0  0  0  0  0  0  0
    9.6469   -8.3373   -0.4770 H   0  0  0  0  0  0  0  0  0  0  0  0
    9.6279   -8.6385   -2.2551 H   0  0  0  0  0  0  0  0  0  0  0  0
   10.3160   -7.0975   -1.6062 H   0  0  0  0  0  0  0  0  0  0  0  0
    8.4415   -6.7102   -3.6842 H   0  0  0  0  0  0  0  0  0  0  0  0
    6.2973   -5.5410   -3.8915 H   0  0  0  0  0  0  0  0  0  0  0  0
    3.5364   -7.5515   -1.5209 H   0  0  0  0  0  0  0  0  0  0  0  0
    1.4836   -8.1563   -0.3168 H   0  0  0  0  0  0  0  0  0  0  0  0
   -0.0673   -6.5480    1.9530 H   0  0  0  0  0  0  0  0  0  0  0  0
   -0.7196   -7.4655    0.5406 H   0  0  0  0  0  0  0  0  0  0  0  0
   -1.1170   -5.7223    0.7279 H   0  0  0  0  0  0  0  0  0  0  0  0
    0.6453   -3.9859    0.3685 H   0  0  0  0  0  0  0  0  0  0  0  0
    2.7056   -3.3776   -0.8030 H   0  0  0  0  0  0  0  0  0  0  0  0
    8.4604   -0.1735   -2.8078 H   0  0  0  0  0  0  0  0  0  0  0  0
   10.2961   -0.2820   -4.4273 H   0  0  0  0  0  0  0  0  0  0  0  0
   10.9379    1.3950   -6.8897 H   0  0  0  0  0  0  0  0  0  0  0  0
    9.9065    0.4977   -8.0753 H   0  0  0  0  0  0  0  0  0  0  0  0
   10.8856   -0.4124   -6.8740 H   0  0  0  0  0  0  0  0  0  0  0  0
    7.7504    1.4704   -7.4323 H   0  0  0  0  0  0  0  0  0  0  0  0
    5.9095    1.5750   -5.8167 H   0  0  0  0  0  0  0  0  0  0  0  0
    6.4526    3.3603   -3.5925 H   0  0  0  0  0  0  0  0  0  0  0  0
    4.8756    5.2143   -3.3382 H   0  0  0  0  0  0  0  0  0  0  0  0
    2.6910    6.0617   -2.8827 H   0  0  0  0  0  0  0  0  0  0  0  0
    1.3392    4.9603   -3.3356 H   0  0  0  0  0  0  0  0  0  0  0  0
    1.8784    5.0733   -1.6115 H   0  0  0  0  0  0  0  0  0  0  0  0
    1.7147    2.4189   -2.4701 H   0  0  0  0  0  0  0  0  0  0  0  0
    3.2810    0.5569   -2.7335 H   0  0  0  0  0  0  0  0  0  0  0  0
    9.0573   -0.5279   -0.5271 H   0  0  0  0  0  0  0  0  0  0  0  0
   10.8305   -2.1596   -0.0603 H   0  0  0  0  0  0  0  0  0  0  0  0
   10.9573   -3.2753    2.1343 H   0  0  0  0  0  0  0  0  0  0  0  0
    8.2963   -3.0637    4.7359 H   0  0  0  0  0  0  0  0  0  0  0  0
    9.7364   -3.9703    4.1765 H   0  0  0  0  0  0  0  0  0  0  0  0
    9.7266   -1.1285    5.3834 H   0  0  0  0  0  0  0  0  0  0  0  0
   11.1973   -1.9783    4.7512 H   0  0  0  0  0  0  0  0  0  0  0  0
   10.3073   -2.6444    6.1702 H   0  0  0  0  0  0  0  0  0  0  0  0
    7.4243   -1.1647    3.4097 H   0  0  0  0  0  0  0  0  0  0  0  0
   -4.0437    7.3373    6.0213 H   0  0  0  0  0  0  0  0  0  0  0  0
   -5.7466    6.8970    7.7474 H   0  0  0  0  0  0  0  0  0  0  0  0
   -5.5325    4.9487    9.2440 H   0  0  0  0  0  0  0  0  0  0  0  0
   -3.1179    2.2051    8.7230 H   0  0  0  0  0  0  0  0  0  0  0  0
   -4.5462    2.7550    9.6520 H   0  0  0  0  0  0  0  0  0  0  0  0
   -3.1073    4.2470   11.0453 H   0  0  0  0  0  0  0  0  0  0  0  0
   -2.5350    2.5336   11.1183 H   0  0  0  0  0  0  0  0  0  0  0  0
   -1.6513    3.7393   10.0952 H   0  0  0  0  0  0  0  0  0  0  0  0
   -1.8778    3.8206    7.2493 H   0  0  0  0  0  0  0  0  0  0  0  0
    2.8954    5.0759    1.2240 H   0  0  0  0  0  0  0  0  0  0  0  0
    3.8164    3.9282    0.3079 H   0  0  0  0  0  0  0  0  0  0  0  0
    1.8522    3.3339    2.6234 H   0  0  0  0  0  0  0  0  0  0  0  0
    1.6141    2.9765    0.8683 H   0  0  0  0  0  0  0  0  0  0  0  0
    2.8681    2.0635    1.8089 H   0  0  0  0  0  0  0  0  0  0  0  0
    2.0038    6.8995    1.7235 H   0  0  0  0  0  0  0  0  0  0  0  0
    2.1424    8.1512    2.9455 H   0  0  0  0  0  0  0  0  0  0  0  0
    4.6280    7.7512    3.1763 H   0  0  0  0  0  0  0  0  0  0  0  0
    4.5371    6.6848    1.7137 H   0  0  0  0  0  0  0  0  0  0  0  0
    4.0745    8.4066    1.5939 H   0  0  0  0  0  0  0  0  0  0  0  0
   -4.6100    4.6217    4.9075 H   0  0  0  0  0  0  0  0  0  0  0  0
   -6.0125    0.7814    4.7619 H   0  0  0  0  0  0  0  0  0  0  0  0
   -7.1337    0.5139    6.9373 H   0  0  0  0  0  0  0  0  0  0  0  0
  -10.3482    3.4198    8.1210 H   0  0  0  0  0  0  0  0  0  0  0  0
   -8.9601    4.1646    9.0253 H   0  0  0  0  0  0  0  0  0  0  0  0
   -9.1823    2.4317   10.8060 H   0  0  0  0  0  0  0  0  0  0  0  0
  -10.5603    1.6767    9.9029 H   0  0  0  0  0  0  0  0  0  0  0  0
  -10.7262    3.3456   10.5846 H   0  0  0  0  0  0  0  0  0  0  0  0
   -8.5978    4.5649    6.6703 H   0  0  0  0  0  0  0  0  0  0  0  0
   -7.4686    4.8298    4.5162 H   0  0  0  0  0  0  0  0  0  0  0  0
   -4.4681    5.2303   -1.1469 H   0  0  0  0  0  0  0  0  0  0  0  0
   -3.0794    5.3087   -3.1565 H   0  0  0  0  0  0  0  0  0  0  0  0
   -2.3865    4.6837   -5.4453 H   0  0  0  0  0  0  0  0  0  0  0  0
   -0.9868    5.2127   -4.4158 H   0  0  0  0  0  0  0  0  0  0  0  0
    0.5388    3.7432   -5.7052 H   0  0  0  0  0  0  0  0  0  0  0  0
   -0.8497    3.1578   -6.7116 H   0  0  0  0  0  0  0  0  0  0  0  0
   -0.3287    4.8869   -6.8042 H   0  0  0  0  0  0  0  0  0  0  0  0
   -2.0069    1.1733   -2.5928 H   0  0  0  0  0  0  0  0  0  0  0  0
   -3.3925    1.0976   -0.5591 H   0  0  0  0  0  0  0  0  0  0  0  0
   -6.0185    1.1778   -1.1306 H   0  0  0  0  0  0  0  0  0  0  0  0
   -9.0573   -0.7076   -0.1623 H   0  0  0  0  0  0  0  0  0  0  0  0
   -3.4851   -3.6332   -0.0707 H   0  0  0  0  0  0  0  0  0  0  0  0
   -7.7775   -5.9726   -1.5283 H   0  0  0  0  0  0  0  0  0  0  0  0
   -5.3459   -8.1683   -0.3341 H   0  0  0  0  0  0  0  0  0  0  0  0
   -5.3141   -8.8779   -2.8184 H   0  0  0  0  0  0  0  0  0  0  0  0
   -5.0235   -6.7614   -4.3988 H   0  0  0  0  0  0  0  0  0  0  0  0
   -2.8226   -5.5395   -3.7282 H   0  0  0  0  0  0  0  0  0  0  0  0
   -1.7044   -6.8722   -1.7244 H   0  0  0  0  0  0  0  0  0  0  0  0
   -2.6926   -8.8503   -3.1766 H   0  0  0  0  0  0  0  0  0  0  0  0
   -3.0548   -9.1664   -1.4132 H   0  0  0  0  0  0  0  0  0  0  0  0
   -3.3409   -7.0952    0.2744 H   0  0  0  0  0  0  0  0  0  0  0  0
  1  2  2  3
  2  3  1  0
  3  4  2  0
  3  5  1  0
  5  6  2  0
  6  7  1  0
  7  8  2  0
  8  9  1  0
  9 10  2  0
 10 11  1  0
 11 12  2  3
 12 13  1  0
 13 14  3  0
 12 15  1  0
 15 16  3  0
  8 17  1  0
 17 18  1  0
 18 19  1  0
 19 20  2  0
 20 21  1  0
 21 22  1  0
 21 23  1  0
  1 24  1  0
 24 25  2  0
 25 26  1  0
 26 27  1  0
 27 28  2  0
 28 29  1  0
 29 30  2  0
 30 31  1  0
 30 32  1  0
 32 33  2  0
 26 34  1  0
 34 35  2  0
 35 36  1  0
 36 37  2  0
 37 38  1  0
 37 39  1  0
 39 40  2  0
 25 41  1  0
 41 42  1  0
 42 43  1  0
 43 44  2  0
 44 45  1  0
 45 46  1  0
 46 47  2  0
 47 48  1  0
 48 49  2  0
 49 50  1  0
 49 51  1  0
 51 52  2  0
 45 53  1  0
 53 54  2  0
 54 55  1  0
 55 56  2  0
 56 57  1  0
 56 58  1  0
 58 59  2  0
 44 60  1  0
 60 61  1  0
 43 62  1  0
 62 63  2  0
 63 64  1  0
 64 65  2  0
 65 66  1  0
 66 67  2  0
 67 68  1  0
 68 69  1  0
 69 70  1  0
 68 71  2  0
 63 72  1  0
 72 73  1  0
 73 74  1  0
 74 75  1  0
 75 76  1  0
 76 77  1  0
 77 78  2  0
 78 79  1  0
 79 80  1  0
 77 81  1  0
 81 82  1  0
 82 83  1  0
 83 84  1  0
 84 85  1  0
 85 86  1  0
 86 87  2  0
 87 88  1  0
 88 89  2  0
 89 90  1  0
 90 91  1  0
 91 92  1  0
 90 93  2  0
 85 94  2  0
 94 95  1  0
 95 96  1  0
 96 97  1  0
 97 98  1  0
 98 99  1  0
 99100  1  0
100101  1  0
101102  1  0
102103  1  0
103104  1  0
101105  1  0
105106  1  0
 98107  1  0
107108  1  0
 94109  1  0
109110  2  0
110111  1  0
111112  2  0
112113  1  0
113114  2  0
114115  1  0
115116  2  0
116117  1  0
117118  1  0
118119  1  0
116120  1  0
120121  2  0
112122  1  0
122123  2  0
123124  1  0
124125  1  0
125126  2  0
126127  1  0
127128  2  0
128129  1  0
129130  1  0
130131  1  0
128132  1  0
132133  2  0
124134  2  0
134135  1  0
123136  1  0
136137  2  0
137138  1  0
137139  1  0
139140  2  3
140141  1  0
141142  2  0
141143  1  0
143144  2  0
144145  1  0
145146  2  0
146147  1  0
147148  2  0
148149  1  0
149150  2  3
150151  1  0
151152  3  0
150153  1  0
153154  3  0
146155  1  0
155156  1  0
156157  1  0
157158  2  0
158159  1  0
159160  1  0
159161  1  0
 11  2  1  0
 23 17  1  0
 61 24  1  0
104 62  1  0
135109  1  0
149140  1  0
161155  1  0
 10  5  1  0
 22 18  1  0
 33 27  1  0
 40 34  1  0
 60 41  2  0
 71 64  1  0
103 72  2  0
134111  1  0
148143  1  0
160156  1  0
 23  7  1  0
 52 46  1  0
 59 53  1  0
102 74  2  0
121113  1  0
138122  1  0
161145  1  0
100 75  2  0
133125  1  0
 80 76  2  0
 99 81  2  0
 97 82  2  0
 96 84  2  0
 93 86  1  0
  1162  1  0
  6163  1  0
  9164  1  0
 17165  1  0
 18166  1  0
 19167  1  0
 20168  1  0
 21169  1  0
 22170  1  0
 22171  1  0
 23172  1  0
 28173  1  0
 29174  1  0
 31175  1  0
 31176  1  0
 31177  1  0
 32178  1  0
 33179  1  0
 35180  1  0
 36181  1  0
 38182  1  0
 38183  1  0
 38184  1  0
 39185  1  0
 40186  1  0
 47187  1  0
 48188  1  0
 50189  1  0
 50190  1  0
 50191  1  0
 51192  1  0
 52193  1  0
 54194  1  0
 55195  1  0
 57196  1  0
 57197  1  0
 57198  1  0
 58199  1  0
 59200  1  0
 65201  1  0
 66202  1  0
 67203  1  0
 69204  1  0
 69205  1  0
 70206  1  0
 70207  1  0
 70208  1  0
 71209  1  0
 87210  1  0
 88211  1  0
 89212  1  0
 91213  1  0
 91214  1  0
 92215  1  0
 92216  1  0
 92217  1  0
 93218  1  0
105219  1  0
105220  1  0
106221  1  0
106222  1  0
106223  1  0
107224  1  0
107225  1  0
108226  1  0
108227  1  0
108228  1  0
110229  1  0
114230  1  0
115231  1  0
118232  1  0
118233  1  0
119234  1  0
119235  1  0
119236  1  0
120237  1  0
121238  1  0
126239  1  0
127240  1  0
130241  1  0
130242  1  0
131243  1  0
131244  1  0
131245  1  0
132246  1  0
133247  1  0
136248  1  0
139249  1  0
144250  1  0
147251  1  0
155252  1  0
156253  1  0
157254  1  0
158255  1  0
159256  1  0
160257  1  0
160258  1  0
161259  1  0
M  END

