
     RDKit          3D

253283  0  0  0  0  0  0  0  0999 V2000
   -3.3829   -7.3787   -4.0457 C   0  0  0  0  0  0  0  0  0  0  0  0
   -3.8488   -8.5742   -3.5895 C   0  0  0  0  0  0  0  0  0  0  0  0
   -4.0212   -9.1142   -2.3024 C   0  0  0  0  0  0  0  0  0  0  0  0
   -3.0572   -9.0496   -1.4147 O   0  0  0  0  0  0  0  0  0  0  0  0
   -5.3085   -9.7146   -2.1328 C   0  0  0  0  0  0  0  0  0  0  0  0
   -5.8547  -10.2765   -0.9911 C   0  0  0  0  0  0  0  0  0  0  0  0
   -7.1423  -10.7049   -1.0528 C   0  0  0  0  0  0  0  0  0  0  0  0
   -7.8727  -10.6115   -2.1574 C   0  0  0  0  0  0  0  0  0  0  0  0
   -7.3578  -10.0551   -3.3220 C   0  0  0  0  0  0  0  0  0  0  0  0
   -6.0359   -9.6012   -3.3026 C   0  0  0  0  0  0  0  0  0  0  0  0
   -5.1696   -8.9000   -4.3062 C   0  0  0  0  0  0  0  0  0  0  0  0
   -5.3905   -8.9117   -5.5810 C   0  0  0  0  0  0  0  0  0  0  0  0
   -6.7783   -9.2102   -6.0550 C   0  0  0  0  0  0  0  0  0  0  0  0
   -7.8536   -9.4334   -6.4412 N   0  0  0  0  0  0  0  0  0  0  0  0
   -4.3572   -9.0281   -6.6336 C   0  0  0  0  0  0  0  0  0  0  0  0
   -3.5014   -9.1192   -7.4768 N   0  0  0  0  0  0  0  0  0  0  0  0
   -9.1781  -11.1003   -1.5845 C   0  0  0  0  0  0  0  0  0  0  0  0
   -9.6228  -12.4196   -2.1025 C   0  0  0  0  0  0  0  0  0  0  0  0
   -8.4458  -13.0774   -2.7471 C   0  0  0  0  0  0  0  0  0  0  0  0
   -7.5451  -13.2280   -1.7476 C   0  0  0  0  0  0  0  0  0  0  0  0
   -8.1976  -12.8977   -0.4790 C   0  0  0  0  0  0  0  0  0  0  0  0
   -9.6540  -13.2236   -0.7963 C   0  0  0  0  0  0  0  0  0  0  0  0
   -8.2809  -11.3907   -0.3881 C   0  0  0  0  0  0  0  0  0  0  0  0
   -2.9993   -6.3003   -3.1196 C   0  0  0  0  0  0  0  0  0  0  0  0
   -3.9914   -5.6239   -2.4323 C   0  0  0  0  0  0  0  0  0  0  0  0
   -5.4192   -5.9235   -2.3829 N   0  0  0  0  0  0  0  0  0  0  0  0
   -5.8515   -6.5431   -1.1934 C   0  0  0  0  0  0  0  0  0  0  0  0
   -7.1223   -6.6162   -0.6612 C   0  0  0  0  0  0  0  0  0  0  0  0
   -7.3742   -7.0254    0.6537 C   0  0  0  0  0  0  0  0  0  0  0  0
   -6.3891   -7.3817    1.5069 C   0  0  0  0  0  0  0  0  0  0  0  0
   -6.5701   -7.8467    2.9137 C   0  0  0  0  0  0  0  0  0  0  0  0
   -5.1040   -7.3289    1.0277 C   0  0  0  0  0  0  0  0  0  0  0  0
   -4.8690   -6.9378   -0.2231 C   0  0  0  0  0  0  0  0  0  0  0  0
   -6.2144   -5.3598   -3.3728 C   0  0  0  0  0  0  0  0  0  0  0  0
   -7.3822   -4.6755   -3.0310 C   0  0  0  0  0  0  0  0  0  0  0  0
   -8.1868   -4.0289   -3.9370 C   0  0  0  0  0  0  0  0  0  0  0  0
   -7.8425   -4.0390   -5.2907 C   0  0  0  0  0  0  0  0  0  0  0  0
   -8.6466   -3.3021   -6.3095 C   0  0  0  0  0  0  0  0  0  0  0  0
   -6.7174   -4.7034   -5.6343 C   0  0  0  0  0  0  0  0  0  0  0  0
   -5.9239   -5.3418   -4.7065 C   0  0  0  0  0  0  0  0  0  0  0  0
   -3.5773   -4.5778   -1.6495 C   0  0  0  0  0  0  0  0  0  0  0  0
   -4.3667   -3.3493   -0.7047 S   0  0  0  0  0  0  0  0  0  0  0  0
   -2.9419   -2.4569   -0.2588 C   0  0  0  0  0  0  0  0  0  0  0  0
   -1.9319   -3.1394   -0.8256 C   0  0  0  0  0  0  0  0  0  0  0  0
   -0.5526   -2.8036   -0.6397 N   0  0  0  0  0  0  0  0  0  0  0  0
    0.1804   -3.0758    0.5357 C   0  0  0  0  0  0  0  0  0  0  0  0
    1.0060   -2.0702    1.0351 C   0  0  0  0  0  0  0  0  0  0  0  0
    1.7588   -2.3074    2.1745 C   0  0  0  0  0  0  0  0  0  0  0  0
    1.7270   -3.4944    2.8250 C   0  0  0  0  0  0  0  0  0  0  0  0
    2.5585   -3.6992    4.0195 C   0  0  0  0  0  0  0  0  0  0  0  0
    0.9184   -4.5112    2.3550 C   0  0  0  0  0  0  0  0  0  0  0  0
    0.1607   -4.2648    1.2110 C   0  0  0  0  0  0  0  0  0  0  0  0
    0.1691   -2.1941   -1.7141 C   0  0  0  0  0  0  0  0  0  0  0  0
    1.4599   -2.6160   -2.0251 C   0  0  0  0  0  0  0  0  0  0  0  0
    2.2261   -2.0705   -3.0189 C   0  0  0  0  0  0  0  0  0  0  0  0
    1.7292   -1.0313   -3.7894 C   0  0  0  0  0  0  0  0  0  0  0  0
    2.5324   -0.4477   -4.8598 C   0  0  0  0  0  0  0  0  0  0  0  0
    0.4315   -0.5821   -3.5014 C   0  0  0  0  0  0  0  0  0  0  0  0
   -0.3008   -1.1647   -2.4923 C   0  0  0  0  0  0  0  0  0  0  0  0
   -2.3076   -4.2567   -1.5679 C   0  0  0  0  0  0  0  0  0  0  0  0
   -1.6337   -5.4730   -2.6444 S   0  0  0  0  0  0  0  0  0  0  0  0
   -3.1986   -1.1611    0.3687 C   0  0  0  0  0  0  0  0  0  0  0  0
   -3.5608   -0.6500    1.5329 C   0  0  0  0  0  0  0  0  0  0  0  0
   -3.7654   -1.5349    2.6982 C   0  0  0  0  0  0  0  0  0  0  0  0
   -2.6756   -1.8399    3.4622 C   0  0  0  0  0  0  0  0  0  0  0  0
   -2.7735   -2.6884    4.5379 C   0  0  0  0  0  0  0  0  0  0  0  0
   -4.0112   -3.2141    4.8103 C   0  0  0  0  0  0  0  0  0  0  0  0
   -5.1365   -2.9278    4.0547 C   0  0  0  0  0  0  0  0  0  0  0  0
   -6.4385   -3.5306    4.3883 C   0  0  0  0  0  0  0  0  0  0  0  0
   -7.1520   -2.6490    5.3667 C   0  0  0  0  0  0  0  0  0  0  0  0
   -5.0204   -2.0627    2.9628 C   0  0  0  0  0  0  0  0  0  0  0  0
   -3.8251    0.7060    1.5978 C   0  0  0  0  0  0  0  0  0  0  0  0
   -4.1961    1.9728    2.7349 S   0  0  0  0  0  0  0  0  0  0  0  0
   -4.1535    3.3245    1.7134 C   0  0  0  0  0  0  0  0  0  0  0  0
   -4.0974    4.7464    1.5892 C   0  0  0  0  0  0  0  0  0  0  0  0
   -4.0760    5.7331    2.5313 C   0  0  0  0  0  0  0  0  0  0  0  0
   -3.6629    6.9739    2.1600 C   0  0  0  0  0  0  0  0  0  0  0  0
   -3.6904    7.8861    3.1044 N   0  0  0  0  0  0  0  0  0  0  0  0
   -4.2503    7.1084    4.4840 S   0  0  0  0  0  0  0  0  0  0  0  0
   -4.4505    5.6020    3.8202 N   0  0  0  0  0  0  0  0  0  0  0  0
   -3.2527    7.1738    0.8234 C   0  0  0  0  0  0  0  0  0  0  0  0
   -2.2624    8.0852    0.3731 C   0  0  0  0  0  0  0  0  0  0  0  0
   -1.2091    9.3462    0.9094 S   0  0  0  0  0  0  0  0  0  0  0  0
   -0.0569    9.2741   -0.4183 C   0  0  0  0  0  0  0  0  0  0  0  0
    1.2475    9.6913   -0.5951 C   0  0  0  0  0  0  0  0  0  0  0  0
    1.8181   10.8998   -0.0126 C   0  0  0  0  0  0  0  0  0  0  0  0
    2.2618   11.0835    1.2488 C   0  0  0  0  0  0  0  0  0  0  0  0
    2.7972   12.3364    1.6437 C   0  0  0  0  0  0  0  0  0  0  0  0
    2.8828   13.3837    0.7802 C   0  0  0  0  0  0  0  0  0  0  0  0
    2.4443   13.2356   -0.5259 C   0  0  0  0  0  0  0  0  0  0  0  0
    2.4753   14.3597   -1.4739 C   0  0  0  0  0  0  0  0  0  0  0  0
    1.1694   15.1002   -1.5725 C   0  0  0  0  0  0  0  0  0  0  0  0
    1.9304   12.0111   -0.8841 C   0  0  0  0  0  0  0  0  0  0  0  0
    1.9361    9.0386   -1.5446 C   0  0  0  0  0  0  0  0  0  0  0  0
    0.8092    7.9490   -2.1994 S   0  0  0  0  0  0  0  0  0  0  0  0
   -0.5615    8.3332   -1.1540 C   0  0  0  0  0  0  0  0  0  0  0  0
   -1.7502    7.6689   -0.7820 C   0  0  0  0  0  0  0  0  0  0  0  0
   -2.4189    6.4939   -1.1660 N   0  0  0  0  0  0  0  0  0  0  0  0
   -3.2889    6.2410   -0.1465 C   0  0  0  0  0  0  0  0  0  0  0  0
   -3.7665    4.9364    0.2355 C   0  0  0  0  0  0  0  0  0  0  0  0
   -3.6727    3.7864   -0.3758 N   0  0  0  0  0  0  0  0  0  0  0  0
   -3.8723    2.7729    0.5225 C   0  0  0  0  0  0  0  0  0  0  0  0
   -3.7014    1.4160    0.4726 C   0  0  0  0  0  0  0  0  0  0  0  0
   -3.2102    0.2241   -0.6937 S   0  0  0  0  0  0  0  0  0  0  0  0
   -3.9008    3.6045   -1.8016 C   0  0  0  0  0  0  0  0  0  0  0  0
   -5.3625    2.9656   -1.8675 C   0  0  0  0  0  0  0  0  0  0  0  0
   -2.0951    5.9374   -2.4055 C   0  0  0  0  0  0  0  0  0  0  0  0
   -2.8917    6.5325   -3.5849 C   0  0  0  0  0  0  0  0  0  0  0  0
    3.4408    8.6608   -1.4841 C   0  0  0  0  0  0  0  0  0  0  0  0
    4.0786    7.7217   -2.2351 C   0  0  0  0  0  0  0  0  0  0  0  0
    5.1296    7.0615   -1.6428 C   0  0  0  0  0  0  0  0  0  0  0  0
    5.8108    5.9411   -2.1104 C   0  0  0  0  0  0  0  0  0  0  0  0
    5.4911    5.2598   -3.3694 C   0  0  0  0  0  0  0  0  0  0  0  0
    4.5412    5.2317   -4.2735 C   0  0  0  0  0  0  0  0  0  0  0  0
    4.4950    4.5941   -5.4140 C   0  0  0  0  0  0  0  0  0  0  0  0
    5.5559    3.7999   -5.8105 C   0  0  0  0  0  0  0  0  0  0  0  0
    5.9231    2.8343   -7.2161 S   0  0  0  0  0  0  0  0  0  0  0  0
    4.6184    2.9488   -8.4847 C   0  0  0  0  0  0  0  0  0  0  0  0
    3.3137    2.3813   -8.0981 C   0  0  0  0  0  0  0  0  0  0  0  0
    6.7356    4.0670   -4.2723 Se  0  0  0  0  0  2  0  0  0  0  0  0
    6.7425    5.2987   -1.2820 C   0  0  0  0  0  0  0  0  0  0  0  0
    7.0644    5.6737   -0.0063 C   0  0  0  0  0  0  0  0  0  0  0  0
    6.3663    6.8075    0.4677 C   0  0  0  0  0  0  0  0  0  0  0  0
    6.3153    7.1400    1.8818 C   0  0  0  0  0  0  0  0  0  0  0  0
    6.6564    6.6180    3.0435 C   0  0  0  0  0  0  0  0  0  0  0  0
    6.4558    7.1098    4.2536 C   0  0  0  0  0  0  0  0  0  0  0  0
    5.8139    8.2919    4.4198 C   0  0  0  0  0  0  0  0  0  0  0  0
    5.3334    9.2127    5.8254 S   0  0  0  0  0  0  0  0  0  0  0  0
    3.6556    8.6531    6.3588 C   0  0  0  0  0  0  0  0  0  0  0  0
    3.7097    7.2448    6.8377 C   0  0  0  0  0  0  0  0  0  0  0  0
    5.4802    8.7487    2.5273 Se  0  0  0  0  0  2  0  0  0  0  0  0
    5.4488    7.4289   -0.3728 C   0  0  0  0  0  0  0  0  0  0  0  0
    4.3092    8.6639   -0.0178 S   0  0  0  0  0  0  0  0  0  0  0  0
    7.9337    4.8985    0.6620 C   0  0  0  0  0  0  0  0  0  0  0  0
    8.4337    3.7792    0.0507 C   0  0  0  0  0  0  0  0  0  0  0  0
    7.6640    3.8758   -1.4992 S   0  0  0  0  0  0  0  0  0  0  0  0
    9.2605    2.7497    0.5959 C   0  0  0  0  0  0  0  0  0  0  0  0
    9.6511    2.2438    1.6138 C   0  0  0  0  0  0  0  0  0  0  0  0
    9.3627    2.5269    3.0696 C   0  0  0  0  0  0  0  0  0  0  0  0
    8.6892    3.5201    3.4717 O   0  0  0  0  0  0  0  0  0  0  0  0
    9.9748    1.5082    3.8700 C   0  0  0  0  0  0  0  0  0  0  0  0
   10.0198    1.3523    5.2178 C   0  0  0  0  0  0  0  0  0  0  0  0
   10.6464    0.3753    5.8930 C   0  0  0  0  0  0  0  0  0  0  0  0
   11.3390   -0.5972    5.0854 C   0  0  0  0  0  0  0  0  0  0  0  0
   11.2949   -0.4400    3.7600 C   0  0  0  0  0  0  0  0  0  0  0  0
   10.6287    0.5928    3.1074 C   0  0  0  0  0  0  0  0  0  0  0  0
   10.5160    0.9130    1.6835 C   0  0  0  0  0  0  0  0  0  0  0  0
   11.0032    0.5063    0.7739 C   0  0  0  0  0  0  0  0  0  0  0  0
   11.5919    0.0504   -0.4063 C   0  0  0  0  0  0  0  0  0  0  0  0
   12.1493   -0.3737   -1.4872 N   0  0  0  0  0  0  0  0  0  0  0  0
   10.5059   -1.1692    1.1338 C   0  0  0  0  0  0  0  0  0  0  0  0
   10.1570   -2.3713    1.3889 N   0  0  0  0  0  0  0  0  0  0  0  0
   11.8221   -1.3594    6.2682 C   0  0  0  0  0  0  0  0  0  0  0  0
   11.1440   -2.6347    6.6095 C   0  0  0  0  0  0  0  0  0  0  0  0
    9.7623   -2.5425    6.0790 C   0  0  0  0  0  0  0  0  0  0  0  0
    9.1049   -1.6692    6.8766 C   0  0  0  0  0  0  0  0  0  0  0  0
   10.0628   -1.1229    7.8530 C   0  0  0  0  0  0  0  0  0  0  0  0
   10.9004   -2.3864    8.0944 C   0  0  0  0  0  0  0  0  0  0  0  0
   11.0706   -0.3229    7.0952 C   0  0  0  0  0  0  0  0  0  0  0  0
   -3.2446   -7.2288   -5.0630 H   0  0  0  0  0  0  0  0  0  0  0  0
   -5.2301  -10.3401   -0.1173 H   0  0  0  0  0  0  0  0  0  0  0  0
   -7.9505   -9.9823   -4.1882 H   0  0  0  0  0  0  0  0  0  0  0  0
   -9.9493  -10.3460   -1.4012 H   0  0  0  0  0  0  0  0  0  0  0  0
  -10.5242  -12.4613   -2.6626 H   0  0  0  0  0  0  0  0  0  0  0  0
   -8.3883  -13.3640   -3.7741 H   0  0  0  0  0  0  0  0  0  0  0  0
   -6.5422  -13.5311   -1.9579 H   0  0  0  0  0  0  0  0  0  0  0  0
   -7.8214  -13.4216    0.3915 H   0  0  0  0  0  0  0  0  0  0  0  0
  -10.2964  -12.7605   -0.0297 H   0  0  0  0  0  0  0  0  0  0  0  0
   -9.7919  -14.2849   -0.9945 H   0  0  0  0  0  0  0  0  0  0  0  0
   -8.5690  -10.9924    0.5633 H   0  0  0  0  0  0  0  0  0  0  0  0
   -7.9707   -6.4223   -1.2906 H   0  0  0  0  0  0  0  0  0  0  0  0
   -8.4236   -7.0459    0.9949 H   0  0  0  0  0  0  0  0  0  0  0  0
   -6.3861   -8.9521    3.0415 H   0  0  0  0  0  0  0  0  0  0  0  0
   -7.5111   -7.5709    3.3679 H   0  0  0  0  0  0  0  0  0  0  0  0
   -5.6810   -7.4390    3.5249 H   0  0  0  0  0  0  0  0  0  0  0  0
   -4.2505   -7.6133    1.6626 H   0  0  0  0  0  0  0  0  0  0  0  0
   -3.8503   -6.8317   -0.5992 H   0  0  0  0  0  0  0  0  0  0  0  0
   -7.7060   -4.5323   -1.9837 H   0  0  0  0  0  0  0  0  0  0  0  0
   -9.1131   -3.5009   -3.6537 H   0  0  0  0  0  0  0  0  0  0  0  0
   -9.6537   -3.0859   -5.9517 H   0  0  0  0  0  0  0  0  0  0  0  0
   -8.6328   -3.7897   -7.3098 H   0  0  0  0  0  0  0  0  0  0  0  0
   -8.1267   -2.3026   -6.4520 H   0  0  0  0  0  0  0  0  0  0  0  0
   -6.4127   -4.7540   -6.6519 H   0  0  0  0  0  0  0  0  0  0  0  0
   -5.0371   -5.8207   -5.1332 H   0  0  0  0  0  0  0  0  0  0  0  0
    1.0843   -1.0946    0.5424 H   0  0  0  0  0  0  0  0  0  0  0  0
    2.3994   -1.5251    2.5460 H   0  0  0  0  0  0  0  0  0  0  0  0
    3.3703   -2.9037    4.0156 H   0  0  0  0  0  0  0  0  0  0  0  0
    1.9578   -3.4407    4.9228 H   0  0  0  0  0  0  0  0  0  0  0  0
    2.9454   -4.7074    4.0819 H   0  0  0  0  0  0  0  0  0  0  0  0
    0.9162   -5.4455    2.8848 H   0  0  0  0  0  0  0  0  0  0  0  0
   -0.4643   -5.0819    0.8639 H   0  0  0  0  0  0  0  0  0  0  0  0
    1.8909   -3.4310   -1.4393 H   0  0  0  0  0  0  0  0  0  0  0  0
    3.2197   -2.4297   -3.2097 H   0  0  0  0  0  0  0  0  0  0  0  0
    2.0219    0.5206   -5.1855 H   0  0  0  0  0  0  0  0  0  0  0  0
    3.5306   -0.1291   -4.4477 H   0  0  0  0  0  0  0  0  0  0  0  0
    2.6825   -1.1606   -5.6744 H   0  0  0  0  0  0  0  0  0  0  0  0
    0.0232    0.2281   -4.0790 H   0  0  0  0  0  0  0  0  0  0  0  0
   -1.2947   -0.7900   -2.3613 H   0  0  0  0  0  0  0  0  0  0  0  0
   -1.6910   -1.4336    3.2719 H   0  0  0  0  0  0  0  0  0  0  0  0
   -1.8703   -2.9079    5.1224 H   0  0  0  0  0  0  0  0  0  0  0  0
   -4.0897   -3.9124    5.6632 H   0  0  0  0  0  0  0  0  0  0  0  0
   -6.9929   -3.5949    3.4176 H   0  0  0  0  0  0  0  0  0  0  0  0
   -6.2867   -4.5621    4.7613 H   0  0  0  0  0  0  0  0  0  0  0  0
   -8.0236   -3.1701    5.8488 H   0  0  0  0  0  0  0  0  0  0  0  0
   -6.3769   -2.4353    6.1771 H   0  0  0  0  0  0  0  0  0  0  0  0
   -7.4642   -1.7265    4.9014 H   0  0  0  0  0  0  0  0  0  0  0  0
   -5.8317   -1.7851    2.3414 H   0  0  0  0  0  0  0  0  0  0  0  0
    2.1928   10.2742    1.9434 H   0  0  0  0  0  0  0  0  0  0  0  0
    3.1416   12.4613    2.6428 H   0  0  0  0  0  0  0  0  0  0  0  0
    3.2740   14.3451    1.0444 H   0  0  0  0  0  0  0  0  0  0  0  0
    3.3295   15.0454   -1.1786 H   0  0  0  0  0  0  0  0  0  0  0  0
    2.7197   13.8669   -2.4623 H   0  0  0  0  0  0  0  0  0  0  0  0
    0.6452   15.1164   -0.6117 H   0  0  0  0  0  0  0  0  0  0  0  0
    1.3690   16.1976   -1.7867 H   0  0  0  0  0  0  0  0  0  0  0  0
    0.5516   14.7531   -2.3893 H   0  0  0  0  0  0  0  0  0  0  0  0
    1.5822   11.8419   -1.9053 H   0  0  0  0  0  0  0  0  0  0  0  0
   -4.1999    4.5064   -2.3097 H   0  0  0  0  0  0  0  0  0  0  0  0
   -3.3119    2.8720   -2.2991 H   0  0  0  0  0  0  0  0  0  0  0  0
   -5.8033    3.1712   -2.8383 H   0  0  0  0  0  0  0  0  0  0  0  0
   -5.9217    3.4012   -0.9889 H   0  0  0  0  0  0  0  0  0  0  0  0
   -5.2014    1.9129   -1.7326 H   0  0  0  0  0  0  0  0  0  0  0  0
   -2.1150    4.9059   -2.4983 H   0  0  0  0  0  0  0  0  0  0  0  0
   -1.0477    6.2683   -2.7952 H   0  0  0  0  0  0  0  0  0  0  0  0
   -2.4510    6.2217   -4.5371 H   0  0  0  0  0  0  0  0  0  0  0  0
   -3.9575    6.2164   -3.6057 H   0  0  0  0  0  0  0  0  0  0  0  0
   -2.9504    7.6507   -3.4385 H   0  0  0  0  0  0  0  0  0  0  0  0
    3.7404    7.5928   -3.2689 H   0  0  0  0  0  0  0  0  0  0  0  0
    3.5327    5.7905   -4.0022 H   0  0  0  0  0  0  0  0  0  0  0  0
    3.6495    4.6634   -6.1479 H   0  0  0  0  0  0  0  0  0  0  0  0
    5.0674    2.4006   -9.3729 H   0  0  0  0  0  0  0  0  0  0  0  0
    4.5441    4.0130   -8.7814 H   0  0  0  0  0  0  0  0  0  0  0  0
    2.9497    2.6790   -7.1219 H   0  0  0  0  0  0  0  0  0  0  0  0
    3.2458    1.3059   -8.1893 H   0  0  0  0  0  0  0  0  0  0  0  0
    2.5286    2.7617   -8.8394 H   0  0  0  0  0  0  0  0  0  0  0  0
    7.1093    5.5581    2.9890 H   0  0  0  0  0  0  0  0  0  0  0  0
    6.8059    6.5964    5.2117 H   0  0  0  0  0  0  0  0  0  0  0  0
    3.3504    9.3560    7.1444 H   0  0  0  0  0  0  0  0  0  0  0  0
    2.9712    8.7267    5.4618 H   0  0  0  0  0  0  0  0  0  0  0  0
    3.9270    6.5364    5.9499 H   0  0  0  0  0  0  0  0  0  0  0  0
    2.7124    6.9215    7.2527 H   0  0  0  0  0  0  0  0  0  0  0  0
    4.4967    7.0793    7.5802 H   0  0  0  0  0  0  0  0  0  0  0  0
    8.3520    5.1434    1.6697 H   0  0  0  0  0  0  0  0  0  0  0  0
    9.7825    2.2220   -0.4025 H   0  0  0  0  0  0  0  0  0  0  0  0
    9.4765    2.1395    5.8146 H   0  0  0  0  0  0  0  0  0  0  0  0
   11.8376   -1.1674    3.1253 H   0  0  0  0  0  0  0  0  0  0  0  0
   12.9299   -1.3058    6.4340 H   0  0  0  0  0  0  0  0  0  0  0  0
   11.6994   -3.5681    6.4347 H   0  0  0  0  0  0  0  0  0  0  0  0
    9.3871   -3.0855    5.2064 H   0  0  0  0  0  0  0  0  0  0  0  0
    8.0448   -1.4546    6.7468 H   0  0  0  0  0  0  0  0  0  0  0  0
    9.6394   -0.6639    8.7175 H   0  0  0  0  0  0  0  0  0  0  0  0
   10.2564   -3.1811    8.5539 H   0  0  0  0  0  0  0  0  0  0  0  0
   11.8289   -2.1869    8.6300 H   0  0  0  0  0  0  0  0  0  0  0  0
   11.7313    0.2442    7.7923 H   0  0  0  0  0  0  0  0  0  0  0  0
  1  2  2  3
  2  3  1  0
  3  4  2  0
  3  5  1  0
  5  6  2  0
  6  7  1  0
  7  8  2  0
  8  9  1  0
  9 10  2  0
 10 11  1  0
 11 12  2  3
 12 13  1  0
 13 14  3  0
 12 15  1  0
 15 16  3  0
  8 17  1  0
 17 18  1  0
 18 19  1  0
 19 20  2  0
 20 21  1  0
 21 22  1  0
 21 23  1  0
  1 24  1  0
 24 25  2  0
 25 26  1  0
 26 27  1  0
 27 28  2  0
 28 29  1  0
 29 30  2  0
 30 31  1  0
 30 32  1  0
 32 33  2  0
 26 34  1  0
 34 35  2  0
 35 36  1  0
 36 37  2  0
 37 38  1  0
 37 39  1  0
 39 40  2  0
 25 41  1  0
 41 42  1  0
 42 43  1  0
 43 44  2  0
 44 45  1  0
 45 46  1  0
 46 47  2  0
 47 48  1  0
 48 49  2  0
 49 50  1  0
 49 51  1  0
 51 52  2  0
 45 53  1  0
 53 54  2  0
 54 55  1  0
 55 56  2  0
 56 57  1  0
 56 58  1  0
 58 59  2  0
 44 60  1  0
 60 61  1  0
 43 62  1  0
 62 63  2  0
 63 64  1  0
 64 65  2  0
 65 66  1  0
 66 67  2  0
 67 68  1  0
 68 69  1  0
 69 70  1  0
 68 71  2  0
 63 72  1  0
 72 73  1  0
 73 74  1  0
 74 75  1  0
 75 76  1  0
 76 77  1  0
 77 78  2  0
 78 79  1  0
 79 80  1  0
 77 81  1  0
 81 82  1  0
 82 83  1  0
 83 84  1  0
 84 85  1  0
 85 86  1  0
 86 87  2  0
 87 88  1  0
 88 89  2  0
 89 90  1  0
 90 91  1  0
 91 92  1  0
 90 93  2  0
 85 94  2  0
 94 95  1  0
 95 96  1  0
 96 97  1  0
 97 98  1  0
 98 99  1  0
 99100  1  0
100101  1  0
101102  1  0
102103  1  0
103104  1  0
101105  1  0
105106  1  0
 98107  1  0
107108  1  0
 94109  1  0
109110  2  0
110111  1  0
111112  2  0
112113  1  0
113114  2  0
114115  1  0
115116  2  0
116117  1  0
117118  1  0
118119  1  0
116120  1  0
112121  1  0
121122  2  0
122123  1  0
123124  1  0
124125  2  0
125126  1  0
126127  2  0
127128  1  0
128129  1  0
129130  1  0
127131  1  0
123132  2  0
132133  1  0
122134  1  0
134135  2  0
135136  1  0
135137  1  0
137138  2  3
138139  1  0
139140  2  0
139141  1  0
141142  2  0
142143  1  0
143144  2  0
144145  1  0
145146  2  0
146147  1  0
147148  2  3
148149  1  0
149150  3  0
148151  1  0
151152  3  0
144153  1  0
153154  1  0
154155  1  0
155156  2  0
156157  1  0
157158  1  0
157159  1  0
 11  2  1  0
 23 17  1  0
 61 24  1  0
104 62  1  0
133109  1  0
147138  1  0
159153  1  0
 10  5  1  0
 22 18  1  0
 33 27  1  0
 40 34  1  0
 60 41  2  0
 71 64  1  0
103 72  2  0
132111  1  0
146141  1  0
158154  1  0
 23  7  1  0
 52 46  1  0
 59 53  1  0
102 74  2  0
120113  1  0
136121  1  0
159143  1  0
100 75  2  0
131124  1  0
 80 76  2  0
 99 81  2  0
 97 82  2  0
 96 84  2  0
 93 86  1  0
  1160  1  0
  6161  1  0
  9162  1  0
 17163  1  0
 18164  1  0
 19165  1  0
 20166  1  0
 21167  1  0
 22168  1  0
 22169  1  0
 23170  1  0
 28171  1  0
 29172  1  0
 31173  1  0
 31174  1  0
 31175  1  0
 32176  1  0
 33177  1  0
 35178  1  0
 36179  1  0
 38180  1  0
 38181  1  0
 38182  1  0
 39183  1  0
 40184  1  0
 47185  1  0
 48186  1  0
 50187  1  0
 50188  1  0
 50189  1  0
 51190  1  0
 52191  1  0
 54192  1  0
 55193  1  0
 57194  1  0
 57195  1  0
 57196  1  0
 58197  1  0
 59198  1  0
 65199  1  0
 66200  1  0
 67201  1  0
 69202  1  0
 69203  1  0
 70204  1  0
 70205  1  0
 70206  1  0
 71207  1  0
 87208  1  0
 88209  1  0
 89210  1  0
 91211  1  0
 91212  1  0
 92213  1  0
 92214  1  0
 92215  1  0
 93216  1  0
105217  1  0
105218  1  0
106219  1  0
106220  1  0
106221  1  0
107222  1  0
107223  1  0
108224  1  0
108225  1  0
108226  1  0
110227  1  0
114228  1  0
115229  1  0
118230  1  0
118231  1  0
119232  1  0
119233  1  0
119234  1  0
125235  1  0
126236  1  0
129237  1  0
129238  1  0
130239  1  0
130240  1  0
130241  1  0
134242  1  0
137243  1  0
142244  1  0
145245  1  0
153246  1  0
154247  1  0
155248  1  0
156249  1  0
157250  1  0
158251  1  0
158252  1  0
159253  1  0
M  END

