
     RDKit          3D

192214  0  0  0  0  0  0  0  0999 V2000
    0.3953    0.9879    7.1077 C   0  0  0  0  0  0  0  0  0  0  0  0
    0.9394    0.7137    8.2957 C   0  0  0  0  0  0  0  0  0  0  0  0
    0.1652    1.1271    9.4738 C   0  0  0  0  0  0  0  0  0  0  0  0
   -1.0673    0.9141    9.6334 O   0  0  0  0  0  0  0  0  0  0  0  0
    0.9880    1.8847   10.3937 C   0  0  0  0  0  0  0  0  0  0  0  0
    0.5807    2.5295   11.5843 C   0  0  0  0  0  0  0  0  0  0  0  0
    1.5822    3.2627   12.1914 C   0  0  0  0  0  0  0  0  0  0  0  0
    2.9001    3.3785   11.6512 C   0  0  0  0  0  0  0  0  0  0  0  0
    3.2995    2.7643   10.4779 C   0  0  0  0  0  0  0  0  0  0  0  0
    2.2887    1.9798    9.8577 C   0  0  0  0  0  0  0  0  0  0  0  0
    2.3254    1.2012    8.5914 C   0  0  0  0  0  0  0  0  0  0  0  0
    3.4234    0.8563    7.8719 C   0  0  0  0  0  0  0  0  0  0  0  0
    3.3343   -0.0292    6.7378 C   0  0  0  0  0  0  0  0  0  0  0  0
    3.2800   -0.7433    5.8272 N   0  0  0  0  0  0  0  0  0  0  0  0
    4.7520    1.2754    8.2156 C   0  0  0  0  0  0  0  0  0  0  0  0
    5.8294    1.6026    8.4811 N   0  0  0  0  0  0  0  0  0  0  0  0
    3.3004    4.2952   12.7696 C   0  0  0  0  0  0  0  0  0  0  0  0
    3.4169    5.8086   12.4145 C   0  0  0  0  0  0  0  0  0  0  0  0
    3.4343    6.5424   13.7327 C   0  0  0  0  0  0  0  0  0  0  0  0
    2.2019    6.4351   14.2451 C   0  0  0  0  0  0  0  0  0  0  0  0
    1.3971    5.6341   13.2506 C   0  0  0  0  0  0  0  0  0  0  0  0
    2.0094    6.1680   11.9672 C   0  0  0  0  0  0  0  0  0  0  0  0
    1.9487    4.1770   13.3244 C   0  0  0  0  0  0  0  0  0  0  0  0
   -0.0249   -0.0638    6.1661 C   0  0  0  0  0  0  0  0  0  0  0  0
   -0.5602    0.1667    4.8957 C   0  0  0  0  0  0  0  0  0  0  0  0
   -0.8641    1.5005    4.3330 C   0  0  0  0  0  0  0  0  0  0  0  0
    0.0066    2.0869    3.3743 C   0  0  0  0  0  0  0  0  0  0  0  0
   -0.3348    3.3172    2.7904 C   0  0  0  0  0  0  0  0  0  0  0  0
   -1.5293    3.9622    3.1216 C   0  0  0  0  0  0  0  0  0  0  0  0
   -1.8768    5.2875    2.5008 C   0  0  0  0  0  0  0  0  0  0  0  0
   -1.4170    6.4354    3.3922 C   0  0  0  0  0  0  0  0  0  0  0  0
   -2.3808    3.3924    4.0741 C   0  0  0  0  0  0  0  0  0  0  0  0
   -2.0607    2.1734    4.6937 C   0  0  0  0  0  0  0  0  0  0  0  0
   -3.0549    1.5889    5.6717 C   0  0  0  0  0  0  0  0  0  0  0  0
   -4.0578    0.6857    4.9599 C   0  0  0  0  0  0  0  0  0  0  0  0
    1.3451    1.4803    3.0152 C   0  0  0  0  0  0  0  0  0  0  0  0
    2.4530    2.0679    3.8845 C   0  0  0  0  0  0  0  0  0  0  0  0
   -0.7353   -0.9997    4.1496 C   0  0  0  0  0  0  0  0  0  0  0  0
   -0.3523   -2.1494    4.8255 C   0  0  0  0  0  0  0  0  0  0  0  0
    0.2081   -1.7326    6.3575 S   0  0  0  0  0  0  0  0  0  0  0  0
   -0.2783   -3.4673    4.1898 C   0  0  0  0  0  0  0  0  0  0  0  0
   -1.2157   -4.5220    4.3130 C   0  0  0  0  0  0  0  0  0  0  0  0
   -2.2726   -4.6475    5.3529 C   0  0  0  0  0  0  0  0  0  0  0  0
   -2.5703   -5.9152    5.8868 C   0  0  0  0  0  0  0  0  0  0  0  0
   -3.5019   -6.0566    6.9176 C   0  0  0  0  0  0  0  0  0  0  0  0
   -4.1255   -4.9290    7.4511 C   0  0  0  0  0  0  0  0  0  0  0  0
   -3.8612   -3.6563    6.9222 C   0  0  0  0  0  0  0  0  0  0  0  0
   -4.4716   -2.4328    7.5490 C   0  0  0  0  0  0  0  0  0  0  0  0
   -3.5164   -1.8241    8.5710 C   0  0  0  0  0  0  0  0  0  0  0  0
   -2.9524   -3.5265    5.8618 C   0  0  0  0  0  0  0  0  0  0  0  0
   -1.0581   -5.4395    3.2599 C   0  0  0  0  0  0  0  0  0  0  0  0
   -2.1879   -6.4903    2.5209 S   0  0  0  0  0  0  0  0  0  0  0  0
   -1.2712   -6.5614    1.0929 C   0  0  0  0  0  0  0  0  0  0  0  0
   -1.5796   -6.6843   -0.2348 C   0  0  0  0  0  0  0  0  0  0  0  0
   -2.6642   -7.3003   -0.8623 C   0  0  0  0  0  0  0  0  0  0  0  0
   -2.8035   -7.1772   -2.2707 C   0  0  0  0  0  0  0  0  0  0  0  0
   -3.8712   -7.7928   -2.8382 N   0  0  0  0  0  0  0  0  0  0  0  0
   -4.5480   -8.4824   -1.4957 S   0  0  0  0  0  0  0  0  0  0  0  0
   -3.5953   -8.0452   -0.2109 N   0  0  0  0  0  0  0  0  0  0  0  0
   -1.8835   -6.3903   -2.9726 C   0  0  0  0  0  0  0  0  0  0  0  0
   -1.9561   -5.8868   -4.2431 C   0  0  0  0  0  0  0  0  0  0  0  0
   -3.0958   -5.8322   -5.5118 S   0  0  0  0  0  0  0  0  0  0  0  0
   -2.3162   -4.4806   -6.2009 C   0  0  0  0  0  0  0  0  0  0  0  0
   -2.6398   -3.6133   -7.2549 C   0  0  0  0  0  0  0  0  0  0  0  0
   -3.7434   -3.8533   -8.1932 C   0  0  0  0  0  0  0  0  0  0  0  0
   -5.0773   -3.7087   -7.7845 C   0  0  0  0  0  0  0  0  0  0  0  0
   -6.1135   -3.9042   -8.7017 C   0  0  0  0  0  0  0  0  0  0  0  0
   -5.8280   -4.2451  -10.0266 C   0  0  0  0  0  0  0  0  0  0  0  0
   -4.4960   -4.4031  -10.4444 C   0  0  0  0  0  0  0  0  0  0  0  0
   -4.1743   -4.7291  -11.8793 C   0  0  0  0  0  0  0  0  0  0  0  0
   -3.9591   -6.2265  -12.0640 C   0  0  0  0  0  0  0  0  0  0  0  0
   -3.4614   -4.2460   -9.5099 C   0  0  0  0  0  0  0  0  0  0  0  0
   -1.8010   -2.4761   -7.2489 C   0  0  0  0  0  0  0  0  0  0  0  0
   -0.6995   -2.6030   -5.9601 S   0  0  0  0  0  0  0  0  0  0  0  0
   -1.2541   -4.0845   -5.4301 C   0  0  0  0  0  0  0  0  0  0  0  0
   -1.0406   -4.8939   -4.3246 C   0  0  0  0  0  0  0  0  0  0  0  0
   -0.3206   -4.7360   -3.1860 N   0  0  0  0  0  0  0  0  0  0  0  0
   -0.8228   -5.7013   -2.3362 C   0  0  0  0  0  0  0  0  0  0  0  0
   -0.6180   -5.9271   -0.9340 C   0  0  0  0  0  0  0  0  0  0  0  0
    0.3058   -5.4150   -0.0531 N   0  0  0  0  0  0  0  0  0  0  0  0
   -0.1606   -5.7884    1.1615 C   0  0  0  0  0  0  0  0  0  0  0  0
   -0.0396   -5.1451    2.3815 C   0  0  0  0  0  0  0  0  0  0  0  0
    0.6731   -3.6994    2.8022 S   0  0  0  0  0  0  0  0  0  0  0  0
    1.7206   -5.0691   -0.2449 C   0  0  0  0  0  0  0  0  0  0  0  0
    2.4366   -6.0757   -1.1455 C   0  0  0  0  0  0  0  0  0  0  0  0
    0.5852   -3.6100   -2.9391 C   0  0  0  0  0  0  0  0  0  0  0  0
   -0.0595   -2.5708   -2.0241 C   0  0  0  0  0  0  0  0  0  0  0  0
   -1.8985   -1.2381   -8.0494 C   0  0  0  0  0  0  0  0  0  0  0  0
   -2.3117   -1.0761   -9.3741 C   0  0  0  0  0  0  0  0  0  0  0  0
   -2.1065    0.2223   -9.8699 C   0  0  0  0  0  0  0  0  0  0  0  0
   -2.4208    0.6553  -11.5805 S   0  0  0  0  0  0  0  0  0  0  0  0
   -0.7253    0.2574  -12.1346 C   0  0  0  0  0  0  0  0  0  0  0  0
   -0.7530   -0.2150  -13.5812 C   0  0  0  0  0  0  0  0  0  0  0  0
   -1.5250    1.0812   -8.9462 C   0  0  0  0  0  0  0  0  0  0  0  0
   -1.2963    0.2347   -7.5196 S   0  0  0  0  0  0  0  0  0  0  0  0
   -1.1047    2.4796   -9.1464 C   0  0  0  0  0  0  0  0  0  0  0  0
    0.1357    2.8828   -8.8152 C   0  0  0  0  0  0  0  0  0  0  0  0
    1.2377    1.9647   -8.4974 C   0  0  0  0  0  0  0  0  0  0  0  0
    1.4490    0.8524   -9.0505 O   0  0  0  0  0  0  0  0  0  0  0  0
    2.0150    2.5225   -7.4149 C   0  0  0  0  0  0  0  0  0  0  0  0
    2.9098    1.8181   -6.5795 C   0  0  0  0  0  0  0  0  0  0  0  0
    3.2221    2.4835   -5.4118 C   0  0  0  0  0  0  0  0  0  0  0  0
    2.6982    3.7757   -5.0814 C   0  0  0  0  0  0  0  0  0  0  0  0
    1.8462    4.4867   -5.9129 C   0  0  0  0  0  0  0  0  0  0  0  0
    1.5165    3.8195   -7.1261 C   0  0  0  0  0  0  0  0  0  0  0  0
    0.4485    4.1541   -8.1074 C   0  0  0  0  0  0  0  0  0  0  0  0
   -0.0337    5.3842   -8.4018 C   0  0  0  0  0  0  0  0  0  0  0  0
    0.4231    6.5694   -7.7251 C   0  0  0  0  0  0  0  0  0  0  0  0
    0.7753    7.5282   -7.1783 N   0  0  0  0  0  0  0  0  0  0  0  0
   -0.9796    5.5900   -9.4696 C   0  0  0  0  0  0  0  0  0  0  0  0
   -1.7551    5.7520  -10.3132 N   0  0  0  0  0  0  0  0  0  0  0  0
    3.3550    3.7121   -3.7334 C   0  0  0  0  0  0  0  0  0  0  0  0
    4.6171    4.5925   -3.5244 C   0  0  0  0  0  0  0  0  0  0  0  0
    5.2953    4.0555   -2.2884 C   0  0  0  0  0  0  0  0  0  0  0  0
    5.8040    2.8633   -2.6199 C   0  0  0  0  0  0  0  0  0  0  0  0
    5.4449    2.6305   -4.0660 C   0  0  0  0  0  0  0  0  0  0  0  0
    5.5836    4.0614   -4.5706 C   0  0  0  0  0  0  0  0  0  0  0  0
    3.9072    2.3988   -4.0826 C   0  0  0  0  0  0  0  0  0  0  0  0
    0.2490    2.0248    6.8311 H   0  0  0  0  0  0  0  0  0  0  0  0
   -0.4273    2.4781   11.9759 H   0  0  0  0  0  0  0  0  0  0  0  0
    4.2885    2.9260   10.0848 H   0  0  0  0  0  0  0  0  0  0  0  0
    4.1104    3.8870   13.4154 H   0  0  0  0  0  0  0  0  0  0  0  0
    4.2341    6.0794   11.7131 H   0  0  0  0  0  0  0  0  0  0  0  0
    4.2496    7.1214   14.1576 H   0  0  0  0  0  0  0  0  0  0  0  0
    1.8501    6.9153   15.1510 H   0  0  0  0  0  0  0  0  0  0  0  0
    0.2972    5.7360   13.3420 H   0  0  0  0  0  0  0  0  0  0  0  0
    1.8555    7.2673   11.8267 H   0  0  0  0  0  0  0  0  0  0  0  0
    1.6724    5.6428   11.0486 H   0  0  0  0  0  0  0  0  0  0  0  0
    1.9008    3.6908   14.3236 H   0  0  0  0  0  0  0  0  0  0  0  0
    0.3364    3.7740    2.0736 H   0  0  0  0  0  0  0  0  0  0  0  0
   -1.3990    5.3861    1.5035 H   0  0  0  0  0  0  0  0  0  0  0  0
   -2.9753    5.3589    2.3470 H   0  0  0  0  0  0  0  0  0  0  0  0
   -1.9468    6.4015    4.3714 H   0  0  0  0  0  0  0  0  0  0  0  0
   -1.6464    7.4030    2.8936 H   0  0  0  0  0  0  0  0  0  0  0  0
   -0.3233    6.3749    3.5623 H   0  0  0  0  0  0  0  0  0  0  0  0
   -3.2984    3.9063    4.3432 H   0  0  0  0  0  0  0  0  0  0  0  0
   -3.6132    2.4076    6.1801 H   0  0  0  0  0  0  0  0  0  0  0  0
   -2.5447    1.0197    6.4740 H   0  0  0  0  0  0  0  0  0  0  0  0
   -4.5492    1.2296    4.1218 H   0  0  0  0  0  0  0  0  0  0  0  0
   -4.8406    0.3719    5.6792 H   0  0  0  0  0  0  0  0  0  0  0  0
   -3.5473   -0.2183    4.5635 H   0  0  0  0  0  0  0  0  0  0  0  0
    1.5828    1.6815    1.9474 H   0  0  0  0  0  0  0  0  0  0  0  0
    1.3428    0.3764    3.1239 H   0  0  0  0  0  0  0  0  0  0  0  0
    3.4103    1.5527    3.6644 H   0  0  0  0  0  0  0  0  0  0  0  0
    2.2119    1.9315    4.9578 H   0  0  0  0  0  0  0  0  0  0  0  0
    2.5713    3.1504    3.6725 H   0  0  0  0  0  0  0  0  0  0  0  0
   -1.1006   -1.0067    3.1313 H   0  0  0  0  0  0  0  0  0  0  0  0
   -2.0637   -6.7987    5.5202 H   0  0  0  0  0  0  0  0  0  0  0  0
   -3.7122   -7.0345    7.3269 H   0  0  0  0  0  0  0  0  0  0  0  0
   -4.8214   -5.0455    8.2772 H   0  0  0  0  0  0  0  0  0  0  0  0
   -4.6937   -1.6830    6.7658 H   0  0  0  0  0  0  0  0  0  0  0  0
   -5.4324   -2.6845    8.0465 H   0  0  0  0  0  0  0  0  0  0  0  0
   -2.5730   -1.4918    8.0774 H   0  0  0  0  0  0  0  0  0  0  0  0
   -3.9954   -0.9437    9.0560 H   0  0  0  0  0  0  0  0  0  0  0  0
   -3.2745   -2.5665    9.3648 H   0  0  0  0  0  0  0  0  0  0  0  0
   -2.7846   -2.5469    5.4433 H   0  0  0  0  0  0  0  0  0  0  0  0
   -5.3083   -3.4300   -6.7649 H   0  0  0  0  0  0  0  0  0  0  0  0
   -7.1445   -3.7840   -8.3861 H   0  0  0  0  0  0  0  0  0  0  0  0
   -6.6423   -4.3740  -10.7270 H   0  0  0  0  0  0  0  0  0  0  0  0
   -3.2528   -4.1864  -12.1862 H   0  0  0  0  0  0  0  0  0  0  0  0
   -4.9929   -4.3902  -12.5487 H   0  0  0  0  0  0  0  0  0  0  0  0
   -4.8836   -6.7816  -11.8104 H   0  0  0  0  0  0  0  0  0  0  0  0
   -3.6933   -6.4340  -13.1197 H   0  0  0  0  0  0  0  0  0  0  0  0
   -3.1287   -6.5786  -11.4116 H   0  0  0  0  0  0  0  0  0  0  0  0
   -2.4313   -4.3803   -9.8192 H   0  0  0  0  0  0  0  0  0  0  0  0
    1.8398   -4.0177   -0.5525 H   0  0  0  0  0  0  0  0  0  0  0  0
    2.2505   -5.0986    0.7334 H   0  0  0  0  0  0  0  0  0  0  0  0
    2.4410   -7.0718   -0.6639 H   0  0  0  0  0  0  0  0  0  0  0  0
    1.9453   -6.1681   -2.1323 H   0  0  0  0  0  0  0  0  0  0  0  0
    3.4870   -5.7498   -1.3047 H   0  0  0  0  0  0  0  0  0  0  0  0
    0.8495   -3.1105   -3.8868 H   0  0  0  0  0  0  0  0  0  0  0  0
    1.5630   -3.9617   -2.6022 H   0  0  0  0  0  0  0  0  0  0  0  0
   -0.9757   -2.1688   -2.5013 H   0  0  0  0  0  0  0  0  0  0  0  0
   -0.3288   -3.0104   -1.0453 H   0  0  0  0  0  0  0  0  0  0  0  0
    0.6541   -1.7343   -1.8581 H   0  0  0  0  0  0  0  0  0  0  0  0
   -2.6937   -1.8660   -9.9998 H   0  0  0  0  0  0  0  0  0  0  0  0
   -0.0966    1.1730  -12.0517 H   0  0  0  0  0  0  0  0  0  0  0  0
   -0.2696   -0.5446  -11.5109 H   0  0  0  0  0  0  0  0  0  0  0  0
    0.2846   -0.3735  -13.9426 H   0  0  0  0  0  0  0  0  0  0  0  0
   -1.3062   -1.1786  -13.6501 H   0  0  0  0  0  0  0  0  0  0  0  0
   -1.2489    0.5429  -14.2293 H   0  0  0  0  0  0  0  0  0  0  0  0
   -1.9013    3.1942   -9.2895 H   0  0  0  0  0  0  0  0  0  0  0  0
    3.2268    0.8042   -6.7715 H   0  0  0  0  0  0  0  0  0  0  0  0
    1.3926    5.4103   -5.5919 H   0  0  0  0  0  0  0  0  0  0  0  0
    2.6334    3.6936   -2.8863 H   0  0  0  0  0  0  0  0  0  0  0  0
    4.4442    5.6902   -3.5347 H   0  0  0  0  0  0  0  0  0  0  0  0
    5.4223    4.5576   -1.3342 H   0  0  0  0  0  0  0  0  0  0  0  0
    6.4137    2.2308   -1.9801 H   0  0  0  0  0  0  0  0  0  0  0  0
    6.0561    1.8719   -4.5934 H   0  0  0  0  0  0  0  0  0  0  0  0
    6.6159    4.4696   -4.4619 H   0  0  0  0  0  0  0  0  0  0  0  0
    5.2484    4.2082   -5.6186 H   0  0  0  0  0  0  0  0  0  0  0  0
    3.5423    1.5590   -3.4484 H   0  0  0  0  0  0  0  0  0  0  0  0
  1  2  2  3
  2  3  1  0
  3  4  2  0
  3  5  1  0
  5  6  2  0
  6  7  1  0
  7  8  2  0
  8  9  1  0
  9 10  2  0
 10 11  1  0
 11 12  2  3
 12 13  1  0
 13 14  3  0
 12 15  1  0
 15 16  3  0
  8 17  1  0
 17 18  1  0
 18 19  1  0
 19 20  2  0
 20 21  1  0
 21 22  1  0
 21 23  1  0
  1 24  1  0
 24 25  2  0
 25 26  1  0
 26 27  2  0
 27 28  1  0
 28 29  2  0
 29 30  1  0
 30 31  1  0
 29 32  1  0
 32 33  2  0
 33 34  1  0
 34 35  1  0
 27 36  1  0
 36 37  1  0
 25 38  1  0
 38 39  2  0
 39 40  1  0
 39 41  1  0
 41 42  2  0
 42 43  1  0
 43 44  2  0
 44 45  1  0
 45 46  2  0
 46 47  1  0
 47 48  1  0
 48 49  1  0
 47 50  2  0
 42 51  1  0
 51 52  1  0
 52 53  1  0
 53 54  1  0
 54 55  1  0
 55 56  1  0
 56 57  2  0
 57 58  1  0
 58 59  1  0
 56 60  1  0
 60 61  1  0
 61 62  1  0
 62 63  1  0
 63 64  1  0
 64 65  1  0
 65 66  2  0
 66 67  1  0
 67 68  2  0
 68 69  1  0
 69 70  1  0
 70 71  1  0
 69 72  2  0
 64 73  2  0
 73 74  1  0
 74 75  1  0
 75 76  1  0
 76 77  1  0
 77 78  1  0
 78 79  1  0
 79 80  1  0
 80 81  1  0
 81 82  1  0
 82 83  1  0
 80 84  1  0
 84 85  1  0
 77 86  1  0
 86 87  1  0
 73 88  1  0
 88 89  2  0
 89 90  1  0
 90 91  1  0
 91 92  1  0
 92 93  1  0
 90 94  2  0
 94 95  1  0
 94 96  1  0
 96 97  2  3
 97 98  1  0
 98 99  2  0
 98100  1  0
100101  2  0
101102  1  0
102103  2  0
103104  1  0
104105  2  0
105106  1  0
106107  2  3
107108  1  0
108109  3  0
107110  1  0
110111  3  0
103112  1  0
112113  1  0
113114  1  0
114115  2  0
115116  1  0
116117  1  0
116118  1  0
 11  2  1  0
 23 17  1  0
 40 24  1  0
 83 41  1  0
 95 88  1  0
106 97  1  0
118112  1  0
 10  5  1  0
 22 18  1  0
 33 26  1  0
 50 43  1  0
 82 51  2  0
105100  1  0
117113  1  0
 23  7  1  0
 81 53  2  0
118102  1  0
 79 54  2  0
 59 55  2  0
 78 60  2  0
 76 61  2  0
 75 63  2  0
 72 65  1  0
  1119  1  0
  6120  1  0
  9121  1  0
 17122  1  0
 18123  1  0
 19124  1  0
 20125  1  0
 21126  1  0
 22127  1  0
 22128  1  0
 23129  1  0
 28130  1  0
 30131  1  0
 30132  1  0
 31133  1  0
 31134  1  0
 31135  1  0
 32136  1  0
 34137  1  0
 34138  1  0
 35139  1  0
 35140  1  0
 35141  1  0
 36142  1  0
 36143  1  0
 37144  1  0
 37145  1  0
 37146  1  0
 38147  1  0
 44148  1  0
 45149  1  0
 46150  1  0
 48151  1  0
 48152  1  0
 49153  1  0
 49154  1  0
 49155  1  0
 50156  1  0
 66157  1  0
 67158  1  0
 68159  1  0
 70160  1  0
 70161  1  0
 71162  1  0
 71163  1  0
 71164  1  0
 72165  1  0
 84166  1  0
 84167  1  0
 85168  1  0
 85169  1  0
 85170  1  0
 86171  1  0
 86172  1  0
 87173  1  0
 87174  1  0
 87175  1  0
 89176  1  0
 92177  1  0
 92178  1  0
 93179  1  0
 93180  1  0
 93181  1  0
 96182  1  0
101183  1  0
104184  1  0
112185  1  0
113186  1  0
114187  1  0
115188  1  0
116189  1  0
117190  1  0
117191  1  0
118192  1  0
M  END

