
     RDKit          3D

247275  0  0  0  0  0  0  0  0999 V2000
    0.2735    2.4078    6.8636 C   0  0  0  0  0  0  0  0  0  0  0  0
   -0.9424    2.6004    7.4125 C   0  0  0  0  0  0  0  0  0  0  0  0
   -2.1542    3.0807    6.7273 C   0  0  0  0  0  0  0  0  0  0  0  0
   -2.2137    3.6381    5.5997 O   0  0  0  0  0  0  0  0  0  0  0  0
   -3.3085    2.7798    7.5466 C   0  0  0  0  0  0  0  0  0  0  0  0
   -4.6504    3.1610    7.2971 C   0  0  0  0  0  0  0  0  0  0  0  0
   -5.5217    2.8662    8.3273 C   0  0  0  0  0  0  0  0  0  0  0  0
   -5.1106    2.2254    9.5401 C   0  0  0  0  0  0  0  0  0  0  0  0
   -3.8061    1.8386    9.7892 C   0  0  0  0  0  0  0  0  0  0  0  0
   -2.8847    2.1193    8.7334 C   0  0  0  0  0  0  0  0  0  0  0  0
   -1.4003    2.0066    8.7152 C   0  0  0  0  0  0  0  0  0  0  0  0
   -0.6089    1.5660    9.7251 C   0  0  0  0  0  0  0  0  0  0  0  0
   -1.0982    0.7066   10.7682 C   0  0  0  0  0  0  0  0  0  0  0  0
   -1.4887   -0.0017   11.6080 N   0  0  0  0  0  0  0  0  0  0  0  0
    0.7629    1.9856    9.8532 C   0  0  0  0  0  0  0  0  0  0  0  0
    1.8552    2.3391    9.9752 N   0  0  0  0  0  0  0  0  0  0  0  0
   -6.5031    2.3294   10.0867 C   0  0  0  0  0  0  0  0  0  0  0  0
   -7.3429    1.0182   10.1148 C   0  0  0  0  0  0  0  0  0  0  0  0
   -8.7739    1.4513   10.3210 C   0  0  0  0  0  0  0  0  0  0  0  0
   -9.1589    2.0442    9.1857 C   0  0  0  0  0  0  0  0  0  0  0  0
   -7.9757    1.9904    8.2501 C   0  0  0  0  0  0  0  0  0  0  0  0
   -7.4206    0.6315    8.6486 C   0  0  0  0  0  0  0  0  0  0  0  0
   -6.9245    2.9806    8.8415 C   0  0  0  0  0  0  0  0  0  0  0  0
    0.7170    2.8656    5.5297 C   0  0  0  0  0  0  0  0  0  0  0  0
    1.4606    2.0734    4.6430 C   0  0  0  0  0  0  0  0  0  0  0  0
    1.5542    0.6428    4.7405 N   0  0  0  0  0  0  0  0  0  0  0  0
    2.4844    0.0465    5.6753 C   0  0  0  0  0  0  0  0  0  0  0  0
    2.1541   -1.1398    6.3468 C   0  0  0  0  0  0  0  0  0  0  0  0
    3.0134   -1.6713    7.3089 C   0  0  0  0  0  0  0  0  0  0  0  0
    4.2200   -1.0256    7.6123 C   0  0  0  0  0  0  0  0  0  0  0  0
    5.1104   -1.5733    8.6922 C   0  0  0  0  0  0  0  0  0  0  0  0
    4.5615    0.1499    6.9359 C   0  0  0  0  0  0  0  0  0  0  0  0
    3.7021    0.6848    5.9727 C   0  0  0  0  0  0  0  0  0  0  0  0
    0.6756   -0.1492    3.9132 C   0  0  0  0  0  0  0  0  0  0  0  0
    1.1593   -1.2852    3.2395 C   0  0  0  0  0  0  0  0  0  0  0  0
    0.3205   -2.0022    2.3781 C   0  0  0  0  0  0  0  0  0  0  0  0
   -1.0060   -1.5960    2.1746 C   0  0  0  0  0  0  0  0  0  0  0  0
   -1.8947   -2.3575    1.2328 C   0  0  0  0  0  0  0  0  0  0  0  0
   -1.4967   -0.4787    2.8658 C   0  0  0  0  0  0  0  0  0  0  0  0
   -0.6601    0.2408    3.7167 C   0  0  0  0  0  0  0  0  0  0  0  0
    1.7745    2.7660    3.4842 C   0  0  0  0  0  0  0  0  0  0  0  0
    2.3865    2.2889    2.0077 S   0  0  0  0  0  0  0  0  0  0  0  0
    2.0127    3.7514    1.2198 C   0  0  0  0  0  0  0  0  0  0  0  0
    1.3449    4.6028    2.1277 C   0  0  0  0  0  0  0  0  0  0  0  0
    0.5006    5.6970    1.7301 N   0  0  0  0  0  0  0  0  0  0  0  0
   -0.9276    5.5942    1.9344 C   0  0  0  0  0  0  0  0  0  0  0  0
   -1.5766    4.3464    1.8161 C   0  0  0  0  0  0  0  0  0  0  0  0
   -2.9479    4.2374    2.0489 C   0  0  0  0  0  0  0  0  0  0  0  0
   -3.7042    5.3665    2.3909 C   0  0  0  0  0  0  0  0  0  0  0  0
   -5.1864    5.2542    2.5700 C   0  0  0  0  0  0  0  0  0  0  0  0
   -3.0708    6.6129    2.4930 C   0  0  0  0  0  0  0  0  0  0  0  0
   -1.6929    6.7229    2.2823 C   0  0  0  0  0  0  0  0  0  0  0  0
    1.0825    6.8686    1.1239 C   0  0  0  0  0  0  0  0  0  0  0  0
    0.4580    7.4823    0.0219 C   0  0  0  0  0  0  0  0  0  0  0  0
    0.9859    8.6526   -0.5253 C   0  0  0  0  0  0  0  0  0  0  0  0
    2.1490    9.2230    0.0095 C   0  0  0  0  0  0  0  0  0  0  0  0
    2.6682   10.5189   -0.5346 C   0  0  0  0  0  0  0  0  0  0  0  0
    2.7780    8.6081    1.1049 C   0  0  0  0  0  0  0  0  0  0  0  0
    2.2545    7.4320    1.6492 C   0  0  0  0  0  0  0  0  0  0  0  0
    1.2800    4.0246    3.4010 C   0  0  0  0  0  0  0  0  0  0  0  0
    0.4627    4.4015    4.8240 S   0  0  0  0  0  0  0  0  0  0  0  0
    2.0061    3.8493   -0.2501 C   0  0  0  0  0  0  0  0  0  0  0  0
    2.9797    3.3013   -1.1228 C   0  0  0  0  0  0  0  0  0  0  0  0
    4.3475    2.8108   -0.7142 C   0  0  0  0  0  0  0  0  0  0  0  0
    5.1544    3.8863    0.0137 C   0  0  0  0  0  0  0  0  0  0  0  0
    2.4611    3.1452   -2.4157 C   0  0  0  0  0  0  0  0  0  0  0  0
    2.9209    2.1805   -3.7404 S   0  0  0  0  0  0  0  0  0  0  0  0
    1.4339    2.4111   -4.5417 C   0  0  0  0  0  0  0  0  0  0  0  0
    0.6451    1.5871   -5.4285 C   0  0  0  0  0  0  0  0  0  0  0  0
   -0.6768    1.7702   -5.0899 C   0  0  0  0  0  0  0  0  0  0  0  0
   -0.8862    2.9305   -4.1306 C   0  0  0  0  0  0  0  0  0  0  0  0
    0.5663    3.1234   -3.7416 C   0  0  0  0  0  0  0  0  0  0  0  0
    1.1678    3.5608   -2.5659 C   0  0  0  0  0  0  0  0  0  0  0  0
    0.5657    4.1167   -1.1155 S   0  0  0  0  0  0  0  0  0  0  0  0
   -1.7903    2.5394   -2.9549 C   0  0  0  0  0  0  0  0  0  0  0  0
   -3.1051    3.0424   -2.8428 C   0  0  0  0  0  0  0  0  0  0  0  0
   -3.9376    2.6393   -1.7967 C   0  0  0  0  0  0  0  0  0  0  0  0
   -3.4922    1.7100   -0.8496 C   0  0  0  0  0  0  0  0  0  0  0  0
   -4.4054    1.2644    0.2589 C   0  0  0  0  0  0  0  0  0  0  0  0
   -5.2537    0.0766   -0.1767 C   0  0  0  0  0  0  0  0  0  0  0  0
   -2.2038    1.1681   -0.9733 C   0  0  0  0  0  0  0  0  0  0  0  0
   -1.3686    1.5689   -2.0211 C   0  0  0  0  0  0  0  0  0  0  0  0
   -1.3119    4.2188   -4.8549 C   0  0  0  0  0  0  0  0  0  0  0  0
   -1.2318    5.4543   -4.1750 C   0  0  0  0  0  0  0  0  0  0  0  0
   -1.3701    6.6600   -4.8691 C   0  0  0  0  0  0  0  0  0  0  0  0
   -1.6348    6.6569   -6.2447 C   0  0  0  0  0  0  0  0  0  0  0  0
   -1.6144    7.9453   -7.0222 C   0  0  0  0  0  0  0  0  0  0  0  0
   -0.2066    8.2272   -7.5398 C   0  0  0  0  0  0  0  0  0  0  0  0
   -1.8146    5.4361   -6.9066 C   0  0  0  0  0  0  0  0  0  0  0  0
   -1.6678    4.2301   -6.2215 C   0  0  0  0  0  0  0  0  0  0  0  0
   -1.4466    0.6641   -5.4303 C   0  0  0  0  0  0  0  0  0  0  0  0
   -2.8242   -0.0039   -4.7056 S   0  0  0  0  0  0  0  0  0  0  0  0
   -2.5799   -1.4988   -5.4680 C   0  0  0  0  0  0  0  0  0  0  0  0
   -2.8670   -2.8548   -5.0731 C   0  0  0  0  0  0  0  0  0  0  0  0
   -1.9923   -3.6792   -5.7592 C   0  0  0  0  0  0  0  0  0  0  0  0
   -1.0967   -2.9066   -6.7257 C   0  0  0  0  0  0  0  0  0  0  0  0
   -1.6403   -3.1497   -8.1477 C   0  0  0  0  0  0  0  0  0  0  0  0
   -1.9023   -2.0847   -9.0357 C   0  0  0  0  0  0  0  0  0  0  0  0
   -2.5533   -2.3136  -10.2528 C   0  0  0  0  0  0  0  0  0  0  0  0
   -2.9311   -3.6096  -10.6207 C   0  0  0  0  0  0  0  0  0  0  0  0
   -3.7770   -3.8281  -11.8428 C   0  0  0  0  0  0  0  0  0  0  0  0
   -5.2580   -3.7684  -11.4795 C   0  0  0  0  0  0  0  0  0  0  0  0
   -2.5886   -4.6884   -9.7927 C   0  0  0  0  0  0  0  0  0  0  0  0
   -1.9307   -4.4622   -8.5788 C   0  0  0  0  0  0  0  0  0  0  0  0
    0.3972   -3.2298   -6.5696 C   0  0  0  0  0  0  0  0  0  0  0  0
    1.2222   -3.4802   -7.6855 C   0  0  0  0  0  0  0  0  0  0  0  0
    2.5504   -3.8919   -7.5177 C   0  0  0  0  0  0  0  0  0  0  0  0
    3.0868   -4.0548   -6.2335 C   0  0  0  0  0  0  0  0  0  0  0  0
    4.4931   -4.5646   -6.0532 C   0  0  0  0  0  0  0  0  0  0  0  0
    4.6434   -5.9939   -6.5804 C   0  0  0  0  0  0  0  0  0  0  0  0
    2.3009   -3.7223   -5.1208 C   0  0  0  0  0  0  0  0  0  0  0  0
    0.9808   -3.2846   -5.2880 C   0  0  0  0  0  0  0  0  0  0  0  0
   -1.4467   -1.5095   -6.2403 C   0  0  0  0  0  0  0  0  0  0  0  0
   -0.7580   -0.2982   -6.1447 C   0  0  0  0  0  0  0  0  0  0  0  0
    0.8955    0.0879   -6.1939 S   0  0  0  0  0  0  0  0  0  0  0  0
   -1.7689   -4.8733   -5.0835 C   0  0  0  0  0  0  0  0  0  0  0  0
   -2.3211   -4.9150   -3.8335 C   0  0  0  0  0  0  0  0  0  0  0  0
   -3.1852   -3.4891   -3.5227 S   0  0  0  0  0  0  0  0  0  0  0  0
   -1.7970   -5.9076   -2.9965 C   0  0  0  0  0  0  0  0  0  0  0  0
   -2.1212   -6.0252   -1.5307 C   0  0  0  0  0  0  0  0  0  0  0  0
   -3.3509   -6.9029   -1.3353 C   0  0  0  0  0  0  0  0  0  0  0  0
   -0.8833   -6.7234   -3.6879 C   0  0  0  0  0  0  0  0  0  0  0  0
   -0.6629   -6.1141   -5.2608 S   0  0  0  0  0  0  0  0  0  0  0  0
    0.1403   -7.5708   -3.0831 C   0  0  0  0  0  0  0  0  0  0  0  0
    0.4827   -8.7829   -3.5809 N   0  0  0  0  0  0  0  0  0  0  0  0
    1.6841   -9.2012   -3.1881 N   0  0  0  0  0  0  0  0  0  0  0  0
    2.3054   -8.3347   -2.3500 C   0  0  0  0  0  0  0  0  0  0  0  0
    1.3712   -6.9415   -2.1339 S   0  0  0  0  0  0  0  0  0  0  0  0
    3.7466   -8.3777   -2.0744 C   0  0  0  0  0  0  0  0  0  0  0  0
    4.2758   -7.9098   -0.9382 C   0  0  0  0  0  0  0  0  0  0  0  0
    5.5923   -7.2875   -0.8597 C   0  0  0  0  0  0  0  0  0  0  0  0
    6.4877   -7.3250   -1.7441 O   0  0  0  0  0  0  0  0  0  0  0  0
    5.6770   -6.5514    0.3859 C   0  0  0  0  0  0  0  0  0  0  0  0
    6.7750   -5.7999    0.8514 C   0  0  0  0  0  0  0  0  0  0  0  0
    6.6079   -5.3045    2.1327 C   0  0  0  0  0  0  0  0  0  0  0  0
    5.4122   -5.4995    2.9002 C   0  0  0  0  0  0  0  0  0  0  0  0
    4.3081   -6.1839    2.4249 C   0  0  0  0  0  0  0  0  0  0  0  0
    4.4757   -6.7462    1.1279 C   0  0  0  0  0  0  0  0  0  0  0  0
    3.5927   -7.6838    0.3710 C   0  0  0  0  0  0  0  0  0  0  0  0
    2.6350   -8.4976    0.9007 C   0  0  0  0  0  0  0  0  0  0  0  0
    2.0725   -8.3101    2.2173 C   0  0  0  0  0  0  0  0  0  0  0  0
    1.6351   -8.1864    3.2871 N   0  0  0  0  0  0  0  0  0  0  0  0
    2.4256   -9.8072    0.3322 C   0  0  0  0  0  0  0  0  0  0  0  0
    2.3178  -10.8742   -0.0929 N   0  0  0  0  0  0  0  0  0  0  0  0
    6.0307   -4.7883    4.0711 C   0  0  0  0  0  0  0  0  0  0  0  0
    5.5152   -3.3531    4.3710 C   0  0  0  0  0  0  0  0  0  0  0  0
    6.5495   -2.7339    5.2770 C   0  0  0  0  0  0  0  0  0  0  0  0
    7.6375   -2.5167    4.5243 C   0  0  0  0  0  0  0  0  0  0  0  0
    7.3075   -3.0112    3.1445 C   0  0  0  0  0  0  0  0  0  0  0  0
    5.8425   -2.5976    3.0899 C   0  0  0  0  0  0  0  0  0  0  0  0
    7.2349   -4.5648    3.2651 C   0  0  0  0  0  0  0  0  0  0  0  0
    0.9771    1.7688    7.3718 H   0  0  0  0  0  0  0  0  0  0  0  0
   -4.9612    3.7011    6.4067 H   0  0  0  0  0  0  0  0  0  0  0  0
   -3.5322    1.4226   10.7397 H   0  0  0  0  0  0  0  0  0  0  0  0
   -6.5746    2.9729   10.9899 H   0  0  0  0  0  0  0  0  0  0  0  0
   -6.9788    0.2310   10.8057 H   0  0  0  0  0  0  0  0  0  0  0  0
   -9.3995    1.2710   11.1869 H   0  0  0  0  0  0  0  0  0  0  0  0
  -10.1508    2.4216    8.9668 H   0  0  0  0  0  0  0  0  0  0  0  0
   -8.2108    2.1199    7.1721 H   0  0  0  0  0  0  0  0  0  0  0  0
   -8.1270   -0.2121    8.4507 H   0  0  0  0  0  0  0  0  0  0  0  0
   -6.4405    0.3842    8.1897 H   0  0  0  0  0  0  0  0  0  0  0  0
   -7.2717    4.0304    8.9578 H   0  0  0  0  0  0  0  0  0  0  0  0
    1.2108   -1.6396    6.1506 H   0  0  0  0  0  0  0  0  0  0  0  0
    2.7325   -2.5785    7.8316 H   0  0  0  0  0  0  0  0  0  0  0  0
    4.6666   -1.3457    9.6838 H   0  0  0  0  0  0  0  0  0  0  0  0
    6.1257   -1.1238    8.6431 H   0  0  0  0  0  0  0  0  0  0  0  0
    5.2124   -2.6738    8.5795 H   0  0  0  0  0  0  0  0  0  0  0  0
    5.4886    0.6684    7.1572 H   0  0  0  0  0  0  0  0  0  0  0  0
    3.9820    1.6019    5.4664 H   0  0  0  0  0  0  0  0  0  0  0  0
    2.1888   -1.5999    3.3594 H   0  0  0  0  0  0  0  0  0  0  0  0
    0.7104   -2.8702    1.8535 H   0  0  0  0  0  0  0  0  0  0  0  0
   -2.8708   -1.8464    1.0933 H   0  0  0  0  0  0  0  0  0  0  0  0
   -1.4043   -2.4411    0.2421 H   0  0  0  0  0  0  0  0  0  0  0  0
   -2.0798   -3.3751    1.6389 H   0  0  0  0  0  0  0  0  0  0  0  0
   -2.5229   -0.1593    2.7442 H   0  0  0  0  0  0  0  0  0  0  0  0
   -1.0582    1.1079    4.2336 H   0  0  0  0  0  0  0  0  0  0  0  0
   -1.0245    3.4581    1.5486 H   0  0  0  0  0  0  0  0  0  0  0  0
   -3.4189    3.2712    1.9673 H   0  0  0  0  0  0  0  0  0  0  0  0
   -5.6911    5.4805    1.6078 H   0  0  0  0  0  0  0  0  0  0  0  0
   -5.4674    4.2286    2.8912 H   0  0  0  0  0  0  0  0  0  0  0  0
   -5.5397    5.9676    3.3437 H   0  0  0  0  0  0  0  0  0  0  0  0
   -3.6408    7.4996    2.7420 H   0  0  0  0  0  0  0  0  0  0  0  0
   -1.2193    7.6894    2.3964 H   0  0  0  0  0  0  0  0  0  0  0  0
   -0.4429    7.0578   -0.3999 H   0  0  0  0  0  0  0  0  0  0  0  0
    0.4789    9.1225   -1.3614 H   0  0  0  0  0  0  0  0  0  0  0  0
    3.7642   10.6081   -0.3700 H   0  0  0  0  0  0  0  0  0  0  0  0
    2.1562   11.3607   -0.0214 H   0  0  0  0  0  0  0  0  0  0  0  0
    2.4745   10.5915   -1.6284 H   0  0  0  0  0  0  0  0  0  0  0  0
    3.6616    9.0502    1.5470 H   0  0  0  0  0  0  0  0  0  0  0  0
    2.7427    6.9813    2.5039 H   0  0  0  0  0  0  0  0  0  0  0  0
    4.2420    1.9137   -0.0697 H   0  0  0  0  0  0  0  0  0  0  0  0
    4.9200    2.4969   -1.6139 H   0  0  0  0  0  0  0  0  0  0  0  0
    6.1423    3.4697    0.3060 H   0  0  0  0  0  0  0  0  0  0  0  0
    4.6343    4.2250    0.9307 H   0  0  0  0  0  0  0  0  0  0  0  0
    5.3138    4.7583   -0.6566 H   0  0  0  0  0  0  0  0  0  0  0  0
   -3.4979    3.7373   -3.5710 H   0  0  0  0  0  0  0  0  0  0  0  0
   -4.9420    3.0437   -1.7357 H   0  0  0  0  0  0  0  0  0  0  0  0
   -5.0735    2.1000    0.5589 H   0  0  0  0  0  0  0  0  0  0  0  0
   -3.8106    0.9833    1.1510 H   0  0  0  0  0  0  0  0  0  0  0  0
   -4.6046   -0.7855   -0.4421 H   0  0  0  0  0  0  0  0  0  0  0  0
   -5.8780    0.3520   -1.0532 H   0  0  0  0  0  0  0  0  0  0  0  0
   -5.9240   -0.2206    0.6564 H   0  0  0  0  0  0  0  0  0  0  0  0
   -1.8494    0.4266   -0.2643 H   0  0  0  0  0  0  0  0  0  0  0  0
   -0.3877    1.1160   -2.1081 H   0  0  0  0  0  0  0  0  0  0  0  0
   -1.0018    5.4865   -3.1188 H   0  0  0  0  0  0  0  0  0  0  0  0
   -1.2376    7.5937   -4.3355 H   0  0  0  0  0  0  0  0  0  0  0  0
   -1.9469    8.7902   -6.3784 H   0  0  0  0  0  0  0  0  0  0  0  0
   -2.3184    7.8851   -7.8776 H   0  0  0  0  0  0  0  0  0  0  0  0
    0.1479    7.3900   -8.1815 H   0  0  0  0  0  0  0  0  0  0  0  0
   -0.2059    9.1608   -8.1403 H   0  0  0  0  0  0  0  0  0  0  0  0
    0.4981    8.3514   -6.6893 H   0  0  0  0  0  0  0  0  0  0  0  0
   -2.0286    5.4182   -7.9680 H   0  0  0  0  0  0  0  0  0  0  0  0
   -1.7805    3.3145   -6.7834 H   0  0  0  0  0  0  0  0  0  0  0  0
   -1.6479   -1.0646   -8.7799 H   0  0  0  0  0  0  0  0  0  0  0  0
   -2.7980   -1.4711  -10.8824 H   0  0  0  0  0  0  0  0  0  0  0  0
   -3.5594   -3.0422  -12.6027 H   0  0  0  0  0  0  0  0  0  0  0  0
   -3.5433   -4.8119  -12.3107 H   0  0  0  0  0  0  0  0  0  0  0  0
   -5.5349   -4.6371  -10.8447 H   0  0  0  0  0  0  0  0  0  0  0  0
   -5.4872   -2.8296  -10.9294 H   0  0  0  0  0  0  0  0  0  0  0  0
   -5.8770   -3.7969  -12.4029 H   0  0  0  0  0  0  0  0  0  0  0  0
   -2.8590   -5.6968  -10.0688 H   0  0  0  0  0  0  0  0  0  0  0  0
   -1.6810   -5.3170   -7.9605 H   0  0  0  0  0  0  0  0  0  0  0  0
    0.8460   -3.3869   -8.6942 H   0  0  0  0  0  0  0  0  0  0  0  0
    3.1507   -4.1006   -8.3939 H   0  0  0  0  0  0  0  0  0  0  0  0
    5.2005   -3.8977   -6.5914 H   0  0  0  0  0  0  0  0  0  0  0  0
    4.7768   -4.5569   -4.9775 H   0  0  0  0  0  0  0  0  0  0  0  0
    3.8550   -6.6543   -6.1607 H   0  0  0  0  0  0  0  0  0  0  0  0
    4.5869   -6.0058   -7.6888 H   0  0  0  0  0  0  0  0  0  0  0  0
    5.6374   -6.3940   -6.2834 H   0  0  0  0  0  0  0  0  0  0  0  0
    2.6992   -3.8212   -4.1164 H   0  0  0  0  0  0  0  0  0  0  0  0
    0.3944   -3.0525   -4.4052 H   0  0  0  0  0  0  0  0  0  0  0  0
   -1.2678   -6.4641   -0.9708 H   0  0  0  0  0  0  0  0  0  0  0  0
   -2.3275   -5.0159   -1.1031 H   0  0  0  0  0  0  0  0  0  0  0  0
   -4.2139   -6.4906   -1.9025 H   0  0  0  0  0  0  0  0  0  0  0  0
   -3.1425   -7.9363   -1.6845 H   0  0  0  0  0  0  0  0  0  0  0  0
   -3.6234   -6.9372   -0.2542 H   0  0  0  0  0  0  0  0  0  0  0  0
    4.3899   -8.5547   -2.9274 H   0  0  0  0  0  0  0  0  0  0  0  0
    7.6870   -5.6660    0.2820 H   0  0  0  0  0  0  0  0  0  0  0  0
    3.4226   -6.2828    3.0252 H   0  0  0  0  0  0  0  0  0  0  0  0
    6.1842   -5.4403    4.9570 H   0  0  0  0  0  0  0  0  0  0  0  0
    4.4669   -3.2784    4.7277 H   0  0  0  0  0  0  0  0  0  0  0  0
    6.4423   -2.4383    6.3167 H   0  0  0  0  0  0  0  0  0  0  0  0
    8.5488   -2.0114    4.8405 H   0  0  0  0  0  0  0  0  0  0  0  0
    7.9545   -2.6173    2.3341 H   0  0  0  0  0  0  0  0  0  0  0  0
    5.2934   -2.9536    2.1871 H   0  0  0  0  0  0  0  0  0  0  0  0
    5.6913   -1.4935    3.1867 H   0  0  0  0  0  0  0  0  0  0  0  0
    8.1536   -5.0581    3.6562 H   0  0  0  0  0  0  0  0  0  0  0  0
  1  2  2  3
  2  3  1  0
  3  4  2  0
  3  5  1  0
  5  6  2  0
  6  7  1  0
  7  8  2  0
  8  9  1  0
  9 10  2  0
 10 11  1  0
 11 12  2  3
 12 13  1  0
 13 14  3  0
 12 15  1  0
 15 16  3  0
  8 17  1  0
 17 18  1  0
 18 19  1  0
 19 20  2  0
 20 21  1  0
 21 22  1  0
 21 23  1  0
  1 24  1  0
 24 25  2  0
 25 26  1  0
 26 27  1  0
 27 28  2  0
 28 29  1  0
 29 30  2  0
 30 31  1  0
 30 32  1  0
 32 33  2  0
 26 34  1  0
 34 35  2  0
 35 36  1  0
 36 37  2  0
 37 38  1  0
 37 39  1  0
 39 40  2  0
 25 41  1  0
 41 42  1  0
 42 43  1  0
 43 44  2  0
 44 45  1  0
 45 46  1  0
 46 47  2  0
 47 48  1  0
 48 49  2  0
 49 50  1  0
 49 51  1  0
 51 52  2  0
 45 53  1  0
 53 54  2  0
 54 55  1  0
 55 56  2  0
 56 57  1  0
 56 58  1  0
 58 59  2  0
 44 60  1  0
 60 61  1  0
 43 62  1  0
 62 63  2  0
 63 64  1  0
 64 65  1  0
 63 66  1  0
 66 67  1  0
 67 68  1  0
 68 69  1  0
 69 70  2  0
 70 71  1  0
 71 72  1  0
 72 73  1  0
 73 74  1  0
 71 75  1  0
 75 76  2  0
 76 77  1  0
 77 78  2  0
 78 79  1  0
 79 80  1  0
 78 81  1  0
 81 82  2  0
 71 83  1  0
 83 84  2  0
 84 85  1  0
 85 86  2  0
 86 87  1  0
 87 88  1  0
 86 89  1  0
 89 90  2  0
 70 91  1  0
 91 92  1  0
 92 93  1  0
 93 94  1  0
 94 95  2  0
 95 96  1  0
 96 97  1  0
 97 98  2  0
 98 99  1  0
 99100  2  0
100101  1  0
101102  1  0
100103  1  0
103104  2  0
 96105  1  0
105106  2  0
106107  1  0
107108  2  0
108109  1  0
109110  1  0
108111  1  0
111112  2  0
 96113  1  0
113114  1  0
114115  1  0
 95116  1  0
116117  2  0
117118  1  0
117119  1  0
119120  1  0
120121  1  0
119122  2  0
122123  1  0
122124  1  0
124125  2  0
125126  1  0
126127  2  0
127128  1  0
127129  1  0
129130  2  3
130131  1  0
131132  2  0
131133  1  0
133134  2  0
134135  1  0
135136  2  0
136137  1  0
137138  2  0
138139  1  0
139140  2  3
140141  1  0
141142  3  0
140143  1  0
143144  3  0
136145  1  0
145146  1  0
146147  1  0
147148  2  0
148149  1  0
149150  1  0
149151  1  0
 11  2  1  0
 23 17  1  0
 61 24  1  0
 74 62  1  0
 82 75  1  0
 90 83  1  0
114 91  2  0
123116  1  0
128124  1  0
139130  1  0
151145  1  0
 10  5  1  0
 22 18  1  0
 33 27  1  0
 40 34  1  0
 60 41  2  0
 73 66  2  0
113 93  2  0
138133  1  0
150146  1  0
 23  7  1  0
 52 46  1  0
 59 53  1  0
 72 68  2  0
118 94  1  0
151135  1  0
115 69  1  0
104 97  1  0
112105  1  0
  1152  1  0
  6153  1  0
  9154  1  0
 17155  1  0
 18156  1  0
 19157  1  0
 20158  1  0
 21159  1  0
 22160  1  0
 22161  1  0
 23162  1  0
 28163  1  0
 29164  1  0
 31165  1  0
 31166  1  0
 31167  1  0
 32168  1  0
 33169  1  0
 35170  1  0
 36171  1  0
 38172  1  0
 38173  1  0
 38174  1  0
 39175  1  0
 40176  1  0
 47177  1  0
 48178  1  0
 50179  1  0
 50180  1  0
 50181  1  0
 51182  1  0
 52183  1  0
 54184  1  0
 55185  1  0
 57186  1  0
 57187  1  0
 57188  1  0
 58189  1  0
 59190  1  0
 64191  1  0
 64192  1  0
 65193  1  0
 65194  1  0
 65195  1  0
 76196  1  0
 77197  1  0
 79198  1  0
 79199  1  0
 80200  1  0
 80201  1  0
 80202  1  0
 81203  1  0
 82204  1  0
 84205  1  0
 85206  1  0
 87207  1  0
 87208  1  0
 88209  1  0
 88210  1  0
 88211  1  0
 89212  1  0
 90213  1  0
 98214  1  0
 99215  1  0
101216  1  0
101217  1  0
102218  1  0
102219  1  0
102220  1  0
103221  1  0
104222  1  0
106223  1  0
107224  1  0
109225  1  0
109226  1  0
110227  1  0
110228  1  0
110229  1  0
111230  1  0
112231  1  0
120232  1  0
120233  1  0
121234  1  0
121235  1  0
121236  1  0
129237  1  0
134238  1  0
137239  1  0
145240  1  0
146241  1  0
147242  1  0
148243  1  0
149244  1  0
150245  1  0
150246  1  0
151247  1  0
M  END

