
     RDKit          3D

197218  0  0  0  0  0  0  0  0999 V2000
   -3.6676    0.1478   -6.4673 C   0  0  0  0  0  0  0  0  0  0  0  0
   -4.9045   -0.1222   -6.0219 C   0  0  0  0  0  0  0  0  0  0  0  0
   -5.8483   -0.9151   -6.8083 C   0  0  0  0  0  0  0  0  0  0  0  0
   -5.8120   -1.0860   -8.0580 O   0  0  0  0  0  0  0  0  0  0  0  0
   -6.7649   -1.5708   -5.8996 C   0  0  0  0  0  0  0  0  0  0  0  0
   -7.6784   -2.6082   -6.2037 C   0  0  0  0  0  0  0  0  0  0  0  0
   -8.2479   -3.1944   -5.0861 C   0  0  0  0  0  0  0  0  0  0  0  0
   -7.9310   -2.7976   -3.7456 C   0  0  0  0  0  0  0  0  0  0  0  0
   -7.0505   -1.7760   -3.4384 C   0  0  0  0  0  0  0  0  0  0  0  0
   -6.4758   -1.1432   -4.5777 C   0  0  0  0  0  0  0  0  0  0  0  0
   -5.4214   -0.0965   -4.6269 C   0  0  0  0  0  0  0  0  0  0  0  0
   -5.2926    0.9289   -3.7564 C   0  0  0  0  0  0  0  0  0  0  0  0
   -4.5747    2.1344   -4.0991 C   0  0  0  0  0  0  0  0  0  0  0  0
   -4.0118    3.1115   -4.3645 N   0  0  0  0  0  0  0  0  0  0  0  0
   -5.9742    0.9405   -2.4857 C   0  0  0  0  0  0  0  0  0  0  0  0
   -6.5119    0.9413   -1.4577 N   0  0  0  0  0  0  0  0  0  0  0  0
   -8.8183   -3.8750   -3.1998 C   0  0  0  0  0  0  0  0  0  0  0  0
  -10.1820   -3.4493   -2.5875 C   0  0  0  0  0  0  0  0  0  0  0  0
  -10.6807   -2.1934   -3.2679 C   0  0  0  0  0  0  0  0  0  0  0  0
  -10.9921   -2.5358   -4.5193 C   0  0  0  0  0  0  0  0  0  0  0  0
  -10.6981   -4.0115   -4.6477 C   0  0  0  0  0  0  0  0  0  0  0  0
  -11.0977   -4.4583   -3.2546 C   0  0  0  0  0  0  0  0  0  0  0  0
   -9.1621   -4.2655   -4.5705 C   0  0  0  0  0  0  0  0  0  0  0  0
   -2.5191    0.5209   -5.6218 C   0  0  0  0  0  0  0  0  0  0  0  0
   -2.0776   -0.0729   -4.4126 C   0  0  0  0  0  0  0  0  0  0  0  0
   -2.5311   -1.3521   -3.8953 N   0  0  0  0  0  0  0  0  0  0  0  0
   -2.9297   -2.4130   -4.7920 C   0  0  0  0  0  0  0  0  0  0  0  0
   -4.0159   -3.2412   -4.4626 C   0  0  0  0  0  0  0  0  0  0  0  0
   -4.4643   -4.2086   -5.3645 C   0  0  0  0  0  0  0  0  0  0  0  0
   -3.8016   -4.3881   -6.5915 C   0  0  0  0  0  0  0  0  0  0  0  0
   -4.2742   -5.4223   -7.5714 C   0  0  0  0  0  0  0  0  0  0  0  0
   -2.6558   -3.6322   -6.8747 C   0  0  0  0  0  0  0  0  0  0  0  0
   -2.2224   -2.6542   -5.9749 C   0  0  0  0  0  0  0  0  0  0  0  0
   -2.2397   -1.7140   -2.5295 C   0  0  0  0  0  0  0  0  0  0  0  0
   -2.8418   -1.0303   -1.4654 C   0  0  0  0  0  0  0  0  0  0  0  0
   -2.4973   -1.3325   -0.1417 C   0  0  0  0  0  0  0  0  0  0  0  0
   -1.5084   -2.2962    0.1278 C   0  0  0  0  0  0  0  0  0  0  0  0
   -1.0944   -2.6107    1.5375 C   0  0  0  0  0  0  0  0  0  0  0  0
   -0.9243   -3.0001   -0.9383 C   0  0  0  0  0  0  0  0  0  0  0  0
   -1.2955   -2.7155   -2.2542 C   0  0  0  0  0  0  0  0  0  0  0  0
   -0.9131    0.5709   -3.9624 C   0  0  0  0  0  0  0  0  0  0  0  0
    0.2065    0.2412   -2.7676 S   0  0  0  0  0  0  0  0  0  0  0  0
    1.3711    1.3534   -3.3042 C   0  0  0  0  0  0  0  0  0  0  0  0
    0.8954    1.9712   -4.4828 C   0  0  0  0  0  0  0  0  0  0  0  0
    1.7208    2.6704   -5.4423 N   0  0  0  0  0  0  0  0  0  0  0  0
    2.9926    2.0911   -5.8177 C   0  0  0  0  0  0  0  0  0  0  0  0
    3.1576    0.6956   -5.8836 C   0  0  0  0  0  0  0  0  0  0  0  0
    4.3881    0.1419   -6.2466 C   0  0  0  0  0  0  0  0  0  0  0  0
    5.4697    0.9718   -6.5714 C   0  0  0  0  0  0  0  0  0  0  0  0
    6.7911    0.3705   -6.9440 C   0  0  0  0  0  0  0  0  0  0  0  0
    5.3158    2.3633   -6.4964 C   0  0  0  0  0  0  0  0  0  0  0  0
    4.0838    2.9133   -6.1268 C   0  0  0  0  0  0  0  0  0  0  0  0
    1.1742    3.8048   -6.1594 C   0  0  0  0  0  0  0  0  0  0  0  0
    1.5049    4.0373   -7.5095 C   0  0  0  0  0  0  0  0  0  0  0  0
    0.9756    5.1328   -8.2006 C   0  0  0  0  0  0  0  0  0  0  0  0
    0.0819    6.0019   -7.5688 C   0  0  0  0  0  0  0  0  0  0  0  0
   -0.4505    7.1970   -8.3049 C   0  0  0  0  0  0  0  0  0  0  0  0
   -0.2662    5.7758   -6.2285 C   0  0  0  0  0  0  0  0  0  0  0  0
    0.2613    4.6804   -5.5401 C   0  0  0  0  0  0  0  0  0  0  0  0
   -0.3981    1.5227   -4.7908 C   0  0  0  0  0  0  0  0  0  0  0  0
   -1.3839    1.6804   -6.1368 S   0  0  0  0  0  0  0  0  0  0  0  0
    2.7086    1.4378   -2.6763 C   0  0  0  0  0  0  0  0  0  0  0  0
    3.4719    2.5934   -2.3772 C   0  0  0  0  0  0  0  0  0  0  0  0
    3.1090    3.9851   -2.7142 C   0  0  0  0  0  0  0  0  0  0  0  0
    1.8492    4.4966   -2.3733 C   0  0  0  0  0  0  0  0  0  0  0  0
    1.5122    5.8182   -2.6842 C   0  0  0  0  0  0  0  0  0  0  0  0
    2.4263    6.6341   -3.3597 C   0  0  0  0  0  0  0  0  0  0  0  0
    3.7072    6.1475   -3.6719 C   0  0  0  0  0  0  0  0  0  0  0  0
    4.7164    7.0335   -4.3585 C   0  0  0  0  0  0  0  0  0  0  0  0
    4.8913    6.6609   -5.8343 C   0  0  0  0  0  0  0  0  0  0  0  0
    4.0392    4.8201   -3.3415 C   0  0  0  0  0  0  0  0  0  0  0  0
    4.5148    2.2868   -1.4839 C   0  0  0  0  0  0  0  0  0  0  0  0
    5.2569    3.2523   -0.2867 S   0  0  0  0  0  0  0  0  0  0  0  0
    5.7147    1.9098    0.6499 C   0  0  0  0  0  0  0  0  0  0  0  0
    5.7276    1.7007    2.0074 C   0  0  0  0  0  0  0  0  0  0  0  0
    6.1634    2.4802    3.0902 C   0  0  0  0  0  0  0  0  0  0  0  0
    6.0465    1.9424    4.4160 C   0  0  0  0  0  0  0  0  0  0  0  0
    6.5167    2.7054    5.4318 N   0  0  0  0  0  0  0  0  0  0  0  0
    7.0655    4.0075    4.5707 S   0  0  0  0  0  0  0  0  0  0  0  0
    6.7455    3.6925    2.9717 N   0  0  0  0  0  0  0  0  0  0  0  0
    5.4291    0.6911    4.5905 C   0  0  0  0  0  0  0  0  0  0  0  0
    4.8993    0.0805    5.6988 C   0  0  0  0  0  0  0  0  0  0  0  0
    4.6993    0.4078    7.3602 S   0  0  0  0  0  0  0  0  0  0  0  0
    3.4301   -0.7372    7.4727 C   0  0  0  0  0  0  0  0  0  0  0  0
    2.5658   -1.1426    8.5013 C   0  0  0  0  0  0  0  0  0  0  0  0
    2.8114   -0.8511    9.9309 C   0  0  0  0  0  0  0  0  0  0  0  0
    4.0064   -1.2908   10.5157 C   0  0  0  0  0  0  0  0  0  0  0  0
    4.2376   -1.0971   11.8795 C   0  0  0  0  0  0  0  0  0  0  0  0
    3.2831   -0.4512   12.6687 C   0  0  0  0  0  0  0  0  0  0  0  0
    2.0830    0.0076   12.0990 C   0  0  0  0  0  0  0  0  0  0  0  0
    1.0468    0.6734   12.9731 C   0  0  0  0  0  0  0  0  0  0  0  0
    0.4047   -0.3298   13.9309 C   0  0  0  0  0  0  0  0  0  0  0  0
    1.8597   -0.1811   10.7209 C   0  0  0  0  0  0  0  0  0  0  0  0
    1.5767   -2.0237    8.0073 C   0  0  0  0  0  0  0  0  0  0  0  0
    1.8074   -2.2630    6.3351 S   0  0  0  0  0  0  0  0  0  0  0  0
    3.1539   -1.2810    6.2481 C   0  0  0  0  0  0  0  0  0  0  0  0
    4.0070   -0.8449    5.2494 C   0  0  0  0  0  0  0  0  0  0  0  0
    3.9332   -0.9005    3.8946 N   0  0  0  0  0  0  0  0  0  0  0  0
    4.9037   -0.0183    3.5001 C   0  0  0  0  0  0  0  0  0  0  0  0
    5.1923    0.4287    2.1988 C   0  0  0  0  0  0  0  0  0  0  0  0
    4.9524   -0.1901    1.0164 N   0  0  0  0  0  0  0  0  0  0  0  0
    5.2442    0.7502    0.0859 C   0  0  0  0  0  0  0  0  0  0  0  0
    4.5945    0.9637   -1.1186 C   0  0  0  0  0  0  0  0  0  0  0  0
    3.3522    0.1124   -1.8260 S   0  0  0  0  0  0  0  0  0  0  0  0
    5.0534   -1.6345    0.7750 C   0  0  0  0  0  0  0  0  0  0  0  0
    6.4342   -2.0041    0.2273 C   0  0  0  0  0  0  0  0  0  0  0  0
    2.6919   -1.2060    3.1572 C   0  0  0  0  0  0  0  0  0  0  0  0
    1.7202   -0.0236    3.2327 C   0  0  0  0  0  0  0  0  0  0  0  0
    0.4678   -2.6529    8.7512 C   0  0  0  0  0  0  0  0  0  0  0  0
   -0.3579   -3.6514    8.2595 C   0  0  0  0  0  0  0  0  0  0  0  0
   -1.3079   -3.8696    9.2305 C   0  0  0  0  0  0  0  0  0  0  0  0
   -0.9973   -2.9987   10.2570 C   0  0  0  0  0  0  0  0  0  0  0  0
    0.0732   -2.3018    9.9561 O   0  0  0  0  0  0  0  0  0  0  0  0
   -1.7793   -2.8213   11.4842 C   0  0  0  0  0  0  0  0  0  0  0  0
   -3.0504   -2.3812   11.4809 C   0  0  0  0  0  0  0  0  0  0  0  0
   -3.8061   -2.4398   12.7114 C   0  0  0  0  0  0  0  0  0  0  0  0
   -4.4258   -2.5012   13.6920 N   0  0  0  0  0  0  0  0  0  0  0  0
   -3.7204   -1.8339   10.2811 C   0  0  0  0  0  0  0  0  0  0  0  0
   -4.9777   -1.8763   10.1900 O   0  0  0  0  0  0  0  0  0  0  0  0
   -2.9551   -1.2240    9.2764 O   0  0  0  0  0  0  0  0  0  0  0  0
   -3.4985   -0.7332    8.0541 C   0  0  0  0  0  0  0  0  0  0  0  0
   -3.7396   -1.8819    7.0822 C   0  0  0  0  0  0  0  0  0  0  0  0
   -3.4696    0.0566   -7.5298 H   0  0  0  0  0  0  0  0  0  0  0  0
   -7.8810   -2.9487   -7.2124 H   0  0  0  0  0  0  0  0  0  0  0  0
   -6.7928   -1.5435   -2.4156 H   0  0  0  0  0  0  0  0  0  0  0  0
   -8.2721   -4.6653   -2.6345 H   0  0  0  0  0  0  0  0  0  0  0  0
  -10.2164   -3.4287   -1.4776 H   0  0  0  0  0  0  0  0  0  0  0  0
  -10.8114   -1.2117   -2.8265 H   0  0  0  0  0  0  0  0  0  0  0  0
  -11.4299   -1.8857   -5.2674 H   0  0  0  0  0  0  0  0  0  0  0  0
  -11.2222   -4.5273   -5.4794 H   0  0  0  0  0  0  0  0  0  0  0  0
  -10.8303   -5.5163   -3.0267 H   0  0  0  0  0  0  0  0  0  0  0  0
  -12.1770   -4.2901   -3.0322 H   0  0  0  0  0  0  0  0  0  0  0  0
   -8.8375   -5.2988   -4.8251 H   0  0  0  0  0  0  0  0  0  0  0  0
   -4.5412   -3.1028   -3.5260 H   0  0  0  0  0  0  0  0  0  0  0  0
   -5.3400   -4.7913   -5.1194 H   0  0  0  0  0  0  0  0  0  0  0  0
   -3.6567   -6.3393   -7.4822 H   0  0  0  0  0  0  0  0  0  0  0  0
   -4.1890   -5.0250   -8.6030 H   0  0  0  0  0  0  0  0  0  0  0  0
   -5.3411   -5.6808   -7.3913 H   0  0  0  0  0  0  0  0  0  0  0  0
   -2.1142   -3.7866   -7.7980 H   0  0  0  0  0  0  0  0  0  0  0  0
   -1.3426   -2.0711   -6.2140 H   0  0  0  0  0  0  0  0  0  0  0  0
   -3.5696   -0.2617   -1.6709 H   0  0  0  0  0  0  0  0  0  0  0  0
   -2.9777   -0.7975    0.6675 H   0  0  0  0  0  0  0  0  0  0  0  0
   -1.4586   -3.6237    1.8218 H   0  0  0  0  0  0  0  0  0  0  0  0
    0.0158   -2.6003    1.6140 H   0  0  0  0  0  0  0  0  0  0  0  0
   -1.4982   -1.8657    2.2577 H   0  0  0  0  0  0  0  0  0  0  0  0
   -0.1431   -3.7318   -0.7535 H   0  0  0  0  0  0  0  0  0  0  0  0
   -0.8038   -3.2346   -3.0654 H   0  0  0  0  0  0  0  0  0  0  0  0
    2.3306    0.0286   -5.6710 H   0  0  0  0  0  0  0  0  0  0  0  0
    4.4949   -0.9364   -6.2891 H   0  0  0  0  0  0  0  0  0  0  0  0
    7.4077    1.0846   -7.5315 H   0  0  0  0  0  0  0  0  0  0  0  0
    6.6383   -0.5422   -7.5614 H   0  0  0  0  0  0  0  0  0  0  0  0
    7.3414    0.0966   -6.0194 H   0  0  0  0  0  0  0  0  0  0  0  0
    6.1438    3.0242   -6.7294 H   0  0  0  0  0  0  0  0  0  0  0  0
    3.9735    3.9839   -6.0886 H   0  0  0  0  0  0  0  0  0  0  0  0
    2.1741    3.3682   -8.0400 H   0  0  0  0  0  0  0  0  0  0  0  0
    1.2611    5.2957   -9.2334 H   0  0  0  0  0  0  0  0  0  0  0  0
    0.3227    7.9919   -8.3304 H   0  0  0  0  0  0  0  0  0  0  0  0
   -1.3643    7.6021   -7.8198 H   0  0  0  0  0  0  0  0  0  0  0  0
   -0.7104    6.9184   -9.3519 H   0  0  0  0  0  0  0  0  0  0  0  0
   -0.9504    6.4443   -5.7174 H   0  0  0  0  0  0  0  0  0  0  0  0
   -0.0445    4.5145   -4.5183 H   0  0  0  0  0  0  0  0  0  0  0  0
    1.1223    3.8772   -1.8585 H   0  0  0  0  0  0  0  0  0  0  0  0
    0.5404    6.2071   -2.4169 H   0  0  0  0  0  0  0  0  0  0  0  0
    2.1490    7.6474   -3.6113 H   0  0  0  0  0  0  0  0  0  0  0  0
    5.6979    6.9431   -3.8365 H   0  0  0  0  0  0  0  0  0  0  0  0
    4.4095    8.1061   -4.2966 H   0  0  0  0  0  0  0  0  0  0  0  0
    5.4723    7.4510   -6.3510 H   0  0  0  0  0  0  0  0  0  0  0  0
    5.4592    5.7145   -5.9129 H   0  0  0  0  0  0  0  0  0  0  0  0
    3.9008    6.5530   -6.3257 H   0  0  0  0  0  0  0  0  0  0  0  0
    5.0219    4.4393   -3.5915 H   0  0  0  0  0  0  0  0  0  0  0  0
    4.7441   -1.8194    9.9255 H   0  0  0  0  0  0  0  0  0  0  0  0
    5.1515   -1.4598   12.3281 H   0  0  0  0  0  0  0  0  0  0  0  0
    3.4710   -0.3226   13.7249 H   0  0  0  0  0  0  0  0  0  0  0  0
    1.5259    1.4845   13.5650 H   0  0  0  0  0  0  0  0  0  0  0  0
    0.2480    1.1412   12.3520 H   0  0  0  0  0  0  0  0  0  0  0  0
   -0.0736   -1.1542   13.3607 H   0  0  0  0  0  0  0  0  0  0  0  0
   -0.3721    0.1780   14.5415 H   0  0  0  0  0  0  0  0  0  0  0  0
    1.1679   -0.7578   14.6202 H   0  0  0  0  0  0  0  0  0  0  0  0
    0.9435    0.1689   10.2658 H   0  0  0  0  0  0  0  0  0  0  0  0
    4.2710   -1.9601    0.0574 H   0  0  0  0  0  0  0  0  0  0  0  0
    4.9213   -2.2060    1.7210 H   0  0  0  0  0  0  0  0  0  0  0  0
    7.2212   -1.5769    0.8780 H   0  0  0  0  0  0  0  0  0  0  0  0
    6.5555   -1.6091   -0.7999 H   0  0  0  0  0  0  0  0  0  0  0  0
    6.5512   -3.1058    0.2012 H   0  0  0  0  0  0  0  0  0  0  0  0
    2.8814   -1.4153    2.0953 H   0  0  0  0  0  0  0  0  0  0  0  0
    2.2146   -2.1201    3.5703 H   0  0  0  0  0  0  0  0  0  0  0  0
    0.7684   -0.2801    2.7205 H   0  0  0  0  0  0  0  0  0  0  0  0
    2.1620    0.8625    2.7295 H   0  0  0  0  0  0  0  0  0  0  0  0
    1.4966    0.2400    4.2845 H   0  0  0  0  0  0  0  0  0  0  0  0
   -0.3001   -4.1411    7.2930 H   0  0  0  0  0  0  0  0  0  0  0  0
   -2.1399   -4.5578    9.1847 H   0  0  0  0  0  0  0  0  0  0  0  0
   -1.3140   -3.1388   12.4111 H   0  0  0  0  0  0  0  0  0  0  0  0
   -4.4450   -0.1770    8.2382 H   0  0  0  0  0  0  0  0  0  0  0  0
   -2.7693   -0.0276    7.6043 H   0  0  0  0  0  0  0  0  0  0  0  0
   -4.5236   -2.5626    7.4816 H   0  0  0  0  0  0  0  0  0  0  0  0
   -2.8010   -2.4571    6.9274 H   0  0  0  0  0  0  0  0  0  0  0  0
   -4.0811   -1.4786    6.1024 H   0  0  0  0  0  0  0  0  0  0  0  0
  1  2  2  3
  2  3  1  0
  3  4  2  0
  3  5  1  0
  5  6  2  0
  6  7  1  0
  7  8  2  0
  8  9  1  0
  9 10  2  0
 10 11  1  0
 11 12  2  3
 12 13  1  0
 13 14  3  0
 12 15  1  0
 15 16  3  0
  8 17  1  0
 17 18  1  0
 18 19  1  0
 19 20  2  0
 20 21  1  0
 21 22  1  0
 21 23  1  0
  1 24  1  0
 24 25  2  0
 25 26  1  0
 26 27  1  0
 27 28  2  0
 28 29  1  0
 29 30  2  0
 30 31  1  0
 30 32  1  0
 32 33  2  0
 26 34  1  0
 34 35  2  0
 35 36  1  0
 36 37  2  0
 37 38  1  0
 37 39  1  0
 39 40  2  0
 25 41  1  0
 41 42  1  0
 42 43  1  0
 43 44  2  0
 44 45  1  0
 45 46  1  0
 46 47  2  0
 47 48  1  0
 48 49  2  0
 49 50  1  0
 49 51  1  0
 51 52  2  0
 45 53  1  0
 53 54  2  0
 54 55  1  0
 55 56  2  0
 56 57  1  0
 56 58  1  0
 58 59  2  0
 44 60  1  0
 60 61  1  0
 43 62  1  0
 62 63  2  0
 63 64  1  0
 64 65  2  0
 65 66  1  0
 66 67  2  0
 67 68  1  0
 68 69  1  0
 69 70  1  0
 68 71  2  0
 63 72  1  0
 72 73  1  0
 73 74  1  0
 74 75  1  0
 75 76  1  0
 76 77  1  0
 77 78  2  0
 78 79  1  0
 79 80  1  0
 77 81  1  0
 81 82  1  0
 82 83  1  0
 83 84  1  0
 84 85  1  0
 85 86  1  0
 86 87  2  0
 87 88  1  0
 88 89  2  0
 89 90  1  0
 90 91  1  0
 91 92  1  0
 90 93  2  0
 85 94  2  0
 94 95  1  0
 95 96  1  0
 96 97  1  0
 97 98  1  0
 98 99  1  0
 99100  1  0
100101  1  0
101102  1  0
102103  1  0
103104  1  0
101105  1  0
105106  1  0
 98107  1  0
107108  1  0
 94109  1  0
109110  2  0
110111  1  0
111112  2  0
112113  1  0
112114  1  0
114115  2  3
115116  1  0
116117  3  0
115118  1  0
118119  2  0
118120  1  0
120121  1  0
121122  1  0
 11  2  1  0
 23 17  1  0
 61 24  1  0
104 62  1  0
113109  1  0
 10  5  1  0
 22 18  1  0
 33 27  1  0
 40 34  1  0
 60 41  2  0
 71 64  1  0
103 72  2  0
 23  7  1  0
 52 46  1  0
 59 53  1  0
102 74  2  0
100 75  2  0
 80 76  2  0
 99 81  2  0
 97 82  2  0
 96 84  2  0
 93 86  1  0
  1123  1  0
  6124  1  0
  9125  1  0
 17126  1  0
 18127  1  0
 19128  1  0
 20129  1  0
 21130  1  0
 22131  1  0
 22132  1  0
 23133  1  0
 28134  1  0
 29135  1  0
 31136  1  0
 31137  1  0
 31138  1  0
 32139  1  0
 33140  1  0
 35141  1  0
 36142  1  0
 38143  1  0
 38144  1  0
 38145  1  0
 39146  1  0
 40147  1  0
 47148  1  0
 48149  1  0
 50150  1  0
 50151  1  0
 50152  1  0
 51153  1  0
 52154  1  0
 54155  1  0
 55156  1  0
 57157  1  0
 57158  1  0
 57159  1  0
 58160  1  0
 59161  1  0
 65162  1  0
 66163  1  0
 67164  1  0
 69165  1  0
 69166  1  0
 70167  1  0
 70168  1  0
 70169  1  0
 71170  1  0
 87171  1  0
 88172  1  0
 89173  1  0
 91174  1  0
 91175  1  0
 92176  1  0
 92177  1  0
 92178  1  0
 93179  1  0
105180  1  0
105181  1  0
106182  1  0
106183  1  0
106184  1  0
107185  1  0
107186  1  0
108187  1  0
108188  1  0
108189  1  0
110190  1  0
111191  1  0
114192  1  0
121193  1  0
121194  1  0
122195  1  0
122196  1  0
122197  1  0
M  END

