
     RDKit          3D

156175  0  0  0  0  0  0  0  0999 V2000
    8.8451    6.1297    2.9727 C   0  0  0  0  0  0  0  0  0  0  0  0
    9.0356    4.9555    2.3155 C   0  0  0  0  0  0  0  0  0  0  0  0
    7.9777    3.9688    2.0024 C   0  0  0  0  0  0  0  0  0  0  0  0
    6.8081    3.9396    2.4531 O   0  0  0  0  0  0  0  0  0  0  0  0
    8.4934    2.9794    1.1056 C   0  0  0  0  0  0  0  0  0  0  0  0
    7.8232    1.8036    0.7052 C   0  0  0  0  0  0  0  0  0  0  0  0
    8.6061    0.9383   -0.0231 C   0  0  0  0  0  0  0  0  0  0  0  0
    9.9686    1.2133   -0.3682 C   0  0  0  0  0  0  0  0  0  0  0  0
   10.6329    2.3653    0.0344 C   0  0  0  0  0  0  0  0  0  0  0  0
    9.8385    3.2805    0.7927 C   0  0  0  0  0  0  0  0  0  0  0  0
   10.2367    4.5265    1.5221 C   0  0  0  0  0  0  0  0  0  0  0  0
   11.4462    5.1377    1.4482 C   0  0  0  0  0  0  0  0  0  0  0  0
   11.9018    6.0916    2.4243 C   0  0  0  0  0  0  0  0  0  0  0  0
   12.3060    6.8453    3.2117 N   0  0  0  0  0  0  0  0  0  0  0  0
   12.3713    4.8723    0.3766 C   0  0  0  0  0  0  0  0  0  0  0  0
   13.1105    4.6879   -0.4994 N   0  0  0  0  0  0  0  0  0  0  0  0
   10.0694   -0.1128   -1.0693 C   0  0  0  0  0  0  0  0  0  0  0  0
   10.0206   -0.0953   -2.6276 C   0  0  0  0  0  0  0  0  0  0  0  0
    9.7303   -1.5166   -3.0468 C   0  0  0  0  0  0  0  0  0  0  0  0
    8.4642   -1.7685   -2.6975 C   0  0  0  0  0  0  0  0  0  0  0  0
    7.9402   -0.5090   -2.0580 C   0  0  0  0  0  0  0  0  0  0  0  0
    8.6598    0.5076   -2.9242 C   0  0  0  0  0  0  0  0  0  0  0  0
    8.6802   -0.3908   -0.6952 C   0  0  0  0  0  0  0  0  0  0  0  0
    7.5058    6.5796    3.3933 C   0  0  0  0  0  0  0  0  0  0  0  0
    6.8499    7.5273    2.5965 C   0  0  0  0  0  0  0  0  0  0  0  0
    5.4577    7.5365    2.5440 C   0  0  0  0  0  0  0  0  0  0  0  0
    4.7260    6.5456    3.2174 C   0  0  0  0  0  0  0  0  0  0  0  0
    5.3693    5.8219    4.2396 C   0  0  0  0  0  0  0  0  0  0  0  0
    6.7673    5.8585    4.3435 C   0  0  0  0  0  0  0  0  0  0  0  0
    3.4183    6.0712    2.6835 C   0  0  0  0  0  0  0  0  0  0  0  0
    3.0055    6.1105    1.3260 C   0  0  0  0  0  0  0  0  0  0  0  0
    3.7551    6.6937    0.1979 C   0  0  0  0  0  0  0  0  0  0  0  0
    4.9614    6.1165   -0.2277 C   0  0  0  0  0  0  0  0  0  0  0  0
    5.6653    6.6749   -1.2968 C   0  0  0  0  0  0  0  0  0  0  0  0
    5.1727    7.8126   -1.9469 C   0  0  0  0  0  0  0  0  0  0  0  0
    3.9676    8.4028   -1.5300 C   0  0  0  0  0  0  0  0  0  0  0  0
    3.4216    9.6101   -2.2433 C   0  0  0  0  0  0  0  0  0  0  0  0
    2.4057    9.2030   -3.3062 C   0  0  0  0  0  0  0  0  0  0  0  0
    3.2532    7.8265   -0.4631 C   0  0  0  0  0  0  0  0  0  0  0  0
    1.8735    5.3219    1.1110 C   0  0  0  0  0  0  0  0  0  0  0  0
    0.9693    4.9682   -0.2875 S   0  0  0  0  0  0  0  0  0  0  0  0
    0.0370    3.8552    0.5862 C   0  0  0  0  0  0  0  0  0  0  0  0
   -1.1226    3.1636    0.4292 C   0  0  0  0  0  0  0  0  0  0  0  0
   -2.0376    3.1833   -0.6200 C   0  0  0  0  0  0  0  0  0  0  0  0
   -3.3016    2.5505   -0.4370 C   0  0  0  0  0  0  0  0  0  0  0  0
   -4.1751    2.6181   -1.4675 N   0  0  0  0  0  0  0  0  0  0  0  0
   -3.2712    3.4847   -2.5524 S   0  0  0  0  0  0  0  0  0  0  0  0
   -1.8231    3.7991   -1.8105 N   0  0  0  0  0  0  0  0  0  0  0  0
   -3.5675    1.9211    0.7844 C   0  0  0  0  0  0  0  0  0  0  0  0
   -4.5666    1.0538    1.1080 C   0  0  0  0  0  0  0  0  0  0  0  0
   -5.6625    0.1297    0.1951 S   0  0  0  0  0  0  0  0  0  0  0  0
   -5.7271   -1.0613    1.4042 C   0  0  0  0  0  0  0  0  0  0  0  0
   -6.2610   -2.3530    1.4330 C   0  0  0  0  0  0  0  0  0  0  0  0
   -6.9159   -3.0017    0.2740 C   0  0  0  0  0  0  0  0  0  0  0  0
   -6.3826   -4.1855   -0.2656 C   0  0  0  0  0  0  0  0  0  0  0  0
   -7.0362   -4.8519   -1.2972 C   0  0  0  0  0  0  0  0  0  0  0  0
   -8.2202   -4.3321   -1.8217 C   0  0  0  0  0  0  0  0  0  0  0  0
   -8.7604   -3.1403   -1.3118 C   0  0  0  0  0  0  0  0  0  0  0  0
  -10.0081   -2.5601   -1.9124 C   0  0  0  0  0  0  0  0  0  0  0  0
   -9.6608   -1.6245   -3.0671 C   0  0  0  0  0  0  0  0  0  0  0  0
   -8.0947   -2.4668   -0.2721 C   0  0  0  0  0  0  0  0  0  0  0  0
   -5.8381   -3.0450    2.5881 C   0  0  0  0  0  0  0  0  0  0  0  0
   -4.7541   -2.0767    3.4755 S   0  0  0  0  0  0  0  0  0  0  0  0
   -4.8761   -0.7637    2.4387 C   0  0  0  0  0  0  0  0  0  0  0  0
   -4.2002    0.4433    2.2665 C   0  0  0  0  0  0  0  0  0  0  0  0
   -2.9889    0.8714    2.7159 N   0  0  0  0  0  0  0  0  0  0  0  0
   -2.6269    1.8594    1.8306 C   0  0  0  0  0  0  0  0  0  0  0  0
   -1.3989    2.5744    1.6813 C   0  0  0  0  0  0  0  0  0  0  0  0
   -0.4597    2.9775    2.6069 N   0  0  0  0  0  0  0  0  0  0  0  0
    0.3897    3.7582    1.8852 C   0  0  0  0  0  0  0  0  0  0  0  0
    1.4208    4.6344    2.2042 C   0  0  0  0  0  0  0  0  0  0  0  0
    2.3635    5.0266    3.5351 S   0  0  0  0  0  0  0  0  0  0  0  0
   -0.5502    3.0156    4.0681 C   0  0  0  0  0  0  0  0  0  0  0  0
    0.5821    2.2034    4.7119 C   0  0  0  0  0  0  0  0  0  0  0  0
   -2.0999    0.0151    3.5106 C   0  0  0  0  0  0  0  0  0  0  0  0
   -1.3446   -0.9612    2.6144 C   0  0  0  0  0  0  0  0  0  0  0  0
   -6.1123   -4.4631    2.8659 C   0  0  0  0  0  0  0  0  0  0  0  0
   -5.0451   -5.3418    3.1143 C   0  0  0  0  0  0  0  0  0  0  0  0
   -5.2451   -6.7200    3.0202 C   0  0  0  0  0  0  0  0  0  0  0  0
   -6.5036   -7.2233    2.6602 C   0  0  0  0  0  0  0  0  0  0  0  0
   -7.5955   -6.3545    2.5663 C   0  0  0  0  0  0  0  0  0  0  0  0
   -7.4056   -4.9775    2.6779 C   0  0  0  0  0  0  0  0  0  0  0  0
   -6.6821   -8.6358    2.2976 C   0  0  0  0  0  0  0  0  0  0  0  0
   -6.1223   -9.1896    1.2038 C   0  0  0  0  0  0  0  0  0  0  0  0
   -5.3092   -8.4903    0.1955 C   0  0  0  0  0  0  0  0  0  0  0  0
   -4.7330   -7.3772    0.3319 O   0  0  0  0  0  0  0  0  0  0  0  0
   -5.3311   -9.2608   -1.0252 C   0  0  0  0  0  0  0  0  0  0  0  0
   -4.7752   -8.9272   -2.2551 C   0  0  0  0  0  0  0  0  0  0  0  0
   -5.0094   -9.7765   -3.3461 C   0  0  0  0  0  0  0  0  0  0  0  0
   -4.4479   -9.4931   -4.5970 C   0  0  0  0  0  0  0  0  0  0  0  0
   -4.7244  -10.3159   -5.6932 C   0  0  0  0  0  0  0  0  0  0  0  0
   -5.5657  -11.4231   -5.5513 C   0  0  0  0  0  0  0  0  0  0  0  0
   -5.8393  -12.2048   -6.6241 F   0  0  0  0  0  0  0  0  0  0  0  0
   -6.1125  -11.7336   -4.3038 C   0  0  0  0  0  0  0  0  0  0  0  0
   -5.8350  -10.9250   -3.1900 C   0  0  0  0  0  0  0  0  0  0  0  0
   -6.3731  -11.2397   -1.9259 C   0  0  0  0  0  0  0  0  0  0  0  0
   -6.0867  -10.4012   -0.8374 C   0  0  0  0  0  0  0  0  0  0  0  0
   -6.4998  -10.4950    0.5908 C   0  0  0  0  0  0  0  0  0  0  0  0
   -6.9017  -11.6043    1.2611 C   0  0  0  0  0  0  0  0  0  0  0  0
   -6.9154  -11.6517    2.6985 C   0  0  0  0  0  0  0  0  0  0  0  0
   -6.9085  -11.6833    3.8534 N   0  0  0  0  0  0  0  0  0  0  0  0
   -7.1584  -12.8598    0.6039 C   0  0  0  0  0  0  0  0  0  0  0  0
   -7.3540  -13.8765    0.0865 N   0  0  0  0  0  0  0  0  0  0  0  0
    9.6136    6.8813    2.9934 H   0  0  0  0  0  0  0  0  0  0  0  0
    6.8053    1.5702    0.9862 H   0  0  0  0  0  0  0  0  0  0  0  0
   11.6877    2.4867   -0.1650 H   0  0  0  0  0  0  0  0  0  0  0  0
   10.8200   -0.7992   -0.6153 H   0  0  0  0  0  0  0  0  0  0  0  0
   10.8873    0.3825   -3.1283 H   0  0  0  0  0  0  0  0  0  0  0  0
   10.3787   -2.1843   -3.6073 H   0  0  0  0  0  0  0  0  0  0  0  0
    7.9050   -2.6672   -2.9325 H   0  0  0  0  0  0  0  0  0  0  0  0
    6.8343   -0.4177   -2.0152 H   0  0  0  0  0  0  0  0  0  0  0  0
    8.5382    1.5629   -2.5861 H   0  0  0  0  0  0  0  0  0  0  0  0
    8.3718    0.4492   -4.0009 H   0  0  0  0  0  0  0  0  0  0  0  0
    8.5523   -1.2499   -0.0003 H   0  0  0  0  0  0  0  0  0  0  0  0
    7.4064    8.1389    1.9003 H   0  0  0  0  0  0  0  0  0  0  0  0
    4.9697    8.2199    1.8627 H   0  0  0  0  0  0  0  0  0  0  0  0
    4.8299    5.0998    4.8396 H   0  0  0  0  0  0  0  0  0  0  0  0
    7.2642    5.1681    5.0121 H   0  0  0  0  0  0  0  0  0  0  0  0
    5.3466    5.2312    0.2595 H   0  0  0  0  0  0  0  0  0  0  0  0
    6.5946    6.2264   -1.6240 H   0  0  0  0  0  0  0  0  0  0  0  0
    5.7276    8.2264   -2.7759 H   0  0  0  0  0  0  0  0  0  0  0  0
    4.2483   10.1764   -2.7262 H   0  0  0  0  0  0  0  0  0  0  0  0
    2.9339   10.2920   -1.5112 H   0  0  0  0  0  0  0  0  0  0  0  0
    2.0280   10.1101   -3.8243 H   0  0  0  0  0  0  0  0  0  0  0  0
    1.5467    8.6772   -2.8318 H   0  0  0  0  0  0  0  0  0  0  0  0
    2.8818    8.5305   -4.0569 H   0  0  0  0  0  0  0  0  0  0  0  0
    2.3147    8.2604   -0.1474 H   0  0  0  0  0  0  0  0  0  0  0  0
   -5.4627   -4.6017    0.1259 H   0  0  0  0  0  0  0  0  0  0  0  0
   -6.6255   -5.7732   -1.6901 H   0  0  0  0  0  0  0  0  0  0  0  0
   -8.7147   -4.8579   -2.6305 H   0  0  0  0  0  0  0  0  0  0  0  0
  -10.5828   -1.9966   -1.1443 H   0  0  0  0  0  0  0  0  0  0  0  0
  -10.6692   -3.3736   -2.2863 H   0  0  0  0  0  0  0  0  0  0  0  0
  -10.5938   -1.2255   -3.5213 H   0  0  0  0  0  0  0  0  0  0  0  0
   -9.0526   -0.7705   -2.6969 H   0  0  0  0  0  0  0  0  0  0  0  0
   -9.0898   -2.1697   -3.8521 H   0  0  0  0  0  0  0  0  0  0  0  0
   -8.5039   -1.5505    0.1318 H   0  0  0  0  0  0  0  0  0  0  0  0
   -1.5468    2.6831    4.4132 H   0  0  0  0  0  0  0  0  0  0  0  0
   -0.4617    4.0719    4.4034 H   0  0  0  0  0  0  0  0  0  0  0  0
    0.6326    1.1710    4.3107 H   0  0  0  0  0  0  0  0  0  0  0  0
    0.4404    2.1607    5.8081 H   0  0  0  0  0  0  0  0  0  0  0  0
    1.5651    2.6512    4.5050 H   0  0  0  0  0  0  0  0  0  0  0  0
   -2.6833   -0.5426    4.2692 H   0  0  0  0  0  0  0  0  0  0  0  0
   -1.3933    0.5901    4.0933 H   0  0  0  0  0  0  0  0  0  0  0  0
   -2.0628   -1.5477    1.9972 H   0  0  0  0  0  0  0  0  0  0  0  0
   -0.6483   -0.4030    1.9502 H   0  0  0  0  0  0  0  0  0  0  0  0
   -0.7489   -1.6589    3.2362 H   0  0  0  0  0  0  0  0  0  0  0  0
   -4.0459   -4.9628    3.2828 H   0  0  0  0  0  0  0  0  0  0  0  0
   -4.4015   -7.3886    3.1368 H   0  0  0  0  0  0  0  0  0  0  0  0
   -8.5840   -6.7341    2.3408 H   0  0  0  0  0  0  0  0  0  0  0  0
   -8.2434   -4.3091    2.5340 H   0  0  0  0  0  0  0  0  0  0  0  0
   -7.4653   -9.1647    2.8245 H   0  0  0  0  0  0  0  0  0  0  0  0
   -4.1815   -8.0306   -2.3577 H   0  0  0  0  0  0  0  0  0  0  0  0
   -3.8102   -8.6268   -4.7378 H   0  0  0  0  0  0  0  0  0  0  0  0
   -4.3029  -10.0757   -6.6669 H   0  0  0  0  0  0  0  0  0  0  0  0
   -6.7651  -12.5932   -4.2131 H   0  0  0  0  0  0  0  0  0  0  0  0
   -7.0192  -12.0970   -1.8246 H   0  0  0  0  0  0  0  0  0  0  0  0
  1  2  2  3
  2  3  1  0
  3  4  2  0
  3  5  1  0
  5  6  2  0
  6  7  1  0
  7  8  2  0
  8  9  1  0
  9 10  2  0
 10 11  1  0
 11 12  2  3
 12 13  1  0
 13 14  3  0
 12 15  1  0
 15 16  3  0
  8 17  1  0
 17 18  1  0
 18 19  1  0
 19 20  2  0
 20 21  1  0
 21 22  1  0
 21 23  1  0
  1 24  1  0
 24 25  2  0
 25 26  1  0
 26 27  2  0
 27 28  1  0
 28 29  2  0
 27 30  1  0
 30 31  2  0
 31 32  1  0
 32 33  2  0
 33 34  1  0
 34 35  2  0
 35 36  1  0
 36 37  1  0
 37 38  1  0
 36 39  2  0
 31 40  1  0
 40 41  1  0
 41 42  1  0
 42 43  1  0
 43 44  1  0
 44 45  1  0
 45 46  2  0
 46 47  1  0
 47 48  1  0
 45 49  1  0
 49 50  1  0
 50 51  1  0
 51 52  1  0
 52 53  1  0
 53 54  1  0
 54 55  2  0
 55 56  1  0
 56 57  2  0
 57 58  1  0
 58 59  1  0
 59 60  1  0
 58 61  2  0
 53 62  2  0
 62 63  1  0
 63 64  1  0
 64 65  1  0
 65 66  1  0
 66 67  1  0
 67 68  1  0
 68 69  1  0
 69 70  1  0
 70 71  1  0
 71 72  1  0
 69 73  1  0
 73 74  1  0
 66 75  1  0
 75 76  1  0
 62 77  1  0
 77 78  2  0
 78 79  1  0
 79 80  2  0
 80 81  1  0
 81 82  2  0
 80 83  1  0
 83 84  2  3
 84 85  1  0
 85 86  2  0
 85 87  1  0
 87 88  2  0
 88 89  1  0
 89 90  2  0
 90 91  1  0
 91 92  2  0
 92 93  1  0
 92 94  1  0
 94 95  2  0
 95 96  1  0
 96 97  2  0
 97 98  1  0
 98 99  2  3
 99100  1  0
100101  3  0
 99102  1  0
102103  3  0
 11  2  1  0
 23 17  1  0
 29 24  1  0
 72 30  1  0
 82 77  1  0
 98 84  1  0
 10  5  1  0
 22 18  1  0
 39 32  1  0
 71 40  2  0
 97 87  1  0
 23  7  1  0
 70 42  2  0
 95 89  1  0
 68 43  2  0
 48 44  2  0
 67 49  2  0
 65 50  2  0
 64 52  2  0
 61 54  1  0
  1104  1  0
  6105  1  0
  9106  1  0
 17107  1  0
 18108  1  0
 19109  1  0
 20110  1  0
 21111  1  0
 22112  1  0
 22113  1  0
 23114  1  0
 25115  1  0
 26116  1  0
 28117  1  0
 29118  1  0
 33119  1  0
 34120  1  0
 35121  1  0
 37122  1  0
 37123  1  0
 38124  1  0
 38125  1  0
 38126  1  0
 39127  1  0
 55128  1  0
 56129  1  0
 57130  1  0
 59131  1  0
 59132  1  0
 60133  1  0
 60134  1  0
 60135  1  0
 61136  1  0
 73137  1  0
 73138  1  0
 74139  1  0
 74140  1  0
 74141  1  0
 75142  1  0
 75143  1  0
 76144  1  0
 76145  1  0
 76146  1  0
 78147  1  0
 79148  1  0
 81149  1  0
 82150  1  0
 83151  1  0
 88152  1  0
 90153  1  0
 91154  1  0
 94155  1  0
 96156  1  0
M  END

