
     RDKit          3D

251281  0  0  0  0  0  0  0  0999 V2000
   -6.5362    3.7355    5.8476 C   0  0  0  0  0  0  0  0  0  0  0  0
   -7.5306    3.1806    6.5640 C   0  0  0  0  0  0  0  0  0  0  0  0
   -8.2224    1.8966    6.3781 C   0  0  0  0  0  0  0  0  0  0  0  0
   -8.1173    1.1054    5.4097 O   0  0  0  0  0  0  0  0  0  0  0  0
   -9.0168    1.6285    7.5650 C   0  0  0  0  0  0  0  0  0  0  0  0
   -9.9036    0.5563    7.7736 C   0  0  0  0  0  0  0  0  0  0  0  0
  -10.5950    0.6303    8.9707 C   0  0  0  0  0  0  0  0  0  0  0  0
  -10.4301    1.7026    9.9114 C   0  0  0  0  0  0  0  0  0  0  0  0
   -9.5468    2.7519    9.7183 C   0  0  0  0  0  0  0  0  0  0  0  0
   -8.8271    2.6763    8.5021 C   0  0  0  0  0  0  0  0  0  0  0  0
   -7.9092    3.6638    7.9235 C   0  0  0  0  0  0  0  0  0  0  0  0
   -7.7091    4.8931    8.4262 C   0  0  0  0  0  0  0  0  0  0  0  0
   -7.8520    6.0247    7.5616 C   0  0  0  0  0  0  0  0  0  0  0  0
   -7.9706    6.9291    6.8463 N   0  0  0  0  0  0  0  0  0  0  0  0
   -6.7135    4.9931    9.4694 C   0  0  0  0  0  0  0  0  0  0  0  0
   -5.8565    5.0438   10.2473 N   0  0  0  0  0  0  0  0  0  0  0  0
  -11.4510    1.0844   10.8244 C   0  0  0  0  0  0  0  0  0  0  0  0
  -10.9380    0.3731   12.1131 C   0  0  0  0  0  0  0  0  0  0  0  0
   -9.5532   -0.1782   11.8828 C   0  0  0  0  0  0  0  0  0  0  0  0
   -9.6800   -1.1761   11.0142 C   0  0  0  0  0  0  0  0  0  0  0  0
  -11.1557   -1.2719   10.6728 C   0  0  0  0  0  0  0  0  0  0  0  0
  -11.7269   -0.9188   12.0373 C   0  0  0  0  0  0  0  0  0  0  0  0
  -11.6027   -0.0203    9.8668 C   0  0  0  0  0  0  0  0  0  0  0  0
   -6.0455    3.3959    4.4928 C   0  0  0  0  0  0  0  0  0  0  0  0
   -4.9093    4.0061    3.9400 C   0  0  0  0  0  0  0  0  0  0  0  0
   -3.8934    4.6588    4.7167 N   0  0  0  0  0  0  0  0  0  0  0  0
   -4.0684    6.0532    5.0381 C   0  0  0  0  0  0  0  0  0  0  0  0
   -4.3806    6.9797    4.0308 C   0  0  0  0  0  0  0  0  0  0  0  0
   -4.5427    8.3312    4.3370 C   0  0  0  0  0  0  0  0  0  0  0  0
   -4.3881    8.7825    5.6525 C   0  0  0  0  0  0  0  0  0  0  0  0
   -4.5930   10.2315    5.9833 C   0  0  0  0  0  0  0  0  0  0  0  0
   -4.1107    7.8579    6.6709 C   0  0  0  0  0  0  0  0  0  0  0  0
   -3.9506    6.4970    6.3635 C   0  0  0  0  0  0  0  0  0  0  0  0
   -2.7716    3.8928    5.2293 C   0  0  0  0  0  0  0  0  0  0  0  0
   -2.8443    2.4803    5.3291 C   0  0  0  0  0  0  0  0  0  0  0  0
   -1.7635    1.7479    5.8245 C   0  0  0  0  0  0  0  0  0  0  0  0
   -0.5888    2.3913    6.2306 C   0  0  0  0  0  0  0  0  0  0  0  0
    0.5845    1.5910    6.7134 C   0  0  0  0  0  0  0  0  0  0  0  0
   -0.4861    3.7851    6.0773 C   0  0  0  0  0  0  0  0  0  0  0  0
   -1.5660    4.5264    5.5885 C   0  0  0  0  0  0  0  0  0  0  0  0
   -4.7454    3.6893    2.6037 C   0  0  0  0  0  0  0  0  0  0  0  0
   -3.6969    4.2161    1.4247 S   0  0  0  0  0  0  0  0  0  0  0  0
   -4.4330    3.2763    0.2054 C   0  0  0  0  0  0  0  0  0  0  0  0
   -5.4822    2.5096    0.7499 C   0  0  0  0  0  0  0  0  0  0  0  0
   -5.9534    1.2888    0.1622 N   0  0  0  0  0  0  0  0  0  0  0  0
   -7.1128    1.2821   -0.6997 C   0  0  0  0  0  0  0  0  0  0  0  0
   -7.2133    0.3358   -1.7421 C   0  0  0  0  0  0  0  0  0  0  0  0
   -8.3700    0.2572   -2.5167 C   0  0  0  0  0  0  0  0  0  0  0  0
   -9.4383    1.1329   -2.2851 C   0  0  0  0  0  0  0  0  0  0  0  0
  -10.6994    0.9926   -3.0850 C   0  0  0  0  0  0  0  0  0  0  0  0
   -9.3354    2.0921   -1.2692 C   0  0  0  0  0  0  0  0  0  0  0  0
   -8.1798    2.1727   -0.4875 C   0  0  0  0  0  0  0  0  0  0  0  0
   -5.3189    0.0539    0.5770 C   0  0  0  0  0  0  0  0  0  0  0  0
   -3.9197   -0.0208    0.7290 C   0  0  0  0  0  0  0  0  0  0  0  0
   -3.3048   -1.2065    1.1419 C   0  0  0  0  0  0  0  0  0  0  0  0
   -4.0758   -2.3440    1.4026 C   0  0  0  0  0  0  0  0  0  0  0  0
   -3.4308   -3.6117    1.8835 C   0  0  0  0  0  0  0  0  0  0  0  0
   -5.4685   -2.2743    1.2764 C   0  0  0  0  0  0  0  0  0  0  0  0
   -6.0892   -1.0882    0.8682 C   0  0  0  0  0  0  0  0  0  0  0  0
   -5.6482    2.8172    2.0949 C   0  0  0  0  0  0  0  0  0  0  0  0
   -6.7838    2.4352    3.2772 S   0  0  0  0  0  0  0  0  0  0  0  0
   -4.1174    3.4599   -1.2237 C   0  0  0  0  0  0  0  0  0  0  0  0
   -4.0607    4.7543   -1.7900 C   0  0  0  0  0  0  0  0  0  0  0  0
   -4.8087    5.9104   -1.2423 C   0  0  0  0  0  0  0  0  0  0  0  0
   -4.1558    7.1093   -0.9070 C   0  0  0  0  0  0  0  0  0  0  0  0
   -4.8835    8.1790   -0.3833 C   0  0  0  0  0  0  0  0  0  0  0  0
   -6.2622    8.0657   -0.1924 C   0  0  0  0  0  0  0  0  0  0  0  0
   -6.9228    6.8703   -0.5000 C   0  0  0  0  0  0  0  0  0  0  0  0
   -8.4083    6.7367   -0.3043 C   0  0  0  0  0  0  0  0  0  0  0  0
   -9.1643    7.1604   -1.5582 C   0  0  0  0  0  0  0  0  0  0  0  0
   -6.1931    5.7955   -1.0308 C   0  0  0  0  0  0  0  0  0  0  0  0
   -3.1367    4.8027   -2.8379 C   0  0  0  0  0  0  0  0  0  0  0  0
   -2.2238    6.1051   -3.4155 S   0  0  0  0  0  0  0  0  0  0  0  0
   -1.0816    5.0800   -4.1306 C   0  0  0  0  0  0  0  0  0  0  0  0
    0.2902    5.1671   -4.2470 C   0  0  0  0  0  0  0  0  0  0  0  0
    1.1540    6.1837   -3.7772 C   0  0  0  0  0  0  0  0  0  0  0  0
    2.5119    5.8571   -3.4520 C   0  0  0  0  0  0  0  0  0  0  0  0
    3.2855    6.8404   -2.9358 N   0  0  0  0  0  0  0  0  0  0  0  0
    2.1686    8.0665   -2.8987 S   0  0  0  0  0  0  0  0  0  0  0  0
    0.7498    7.4490   -3.4978 N   0  0  0  0  0  0  0  0  0  0  0  0
    2.9545    4.5569   -3.6948 C   0  0  0  0  0  0  0  0  0  0  0  0
    4.1526    3.8975   -3.5069 C   0  0  0  0  0  0  0  0  0  0  0  0
    5.6431    4.0268   -2.6816 S   0  0  0  0  0  0  0  0  0  0  0  0
    6.0781    2.4244   -3.1236 C   0  0  0  0  0  0  0  0  0  0  0  0
    7.1008    1.5303   -2.7646 C   0  0  0  0  0  0  0  0  0  0  0  0
    8.0657    1.7684   -1.6698 C   0  0  0  0  0  0  0  0  0  0  0  0
    9.4319    1.5515   -1.8863 C   0  0  0  0  0  0  0  0  0  0  0  0
   10.3267    1.6242   -0.8167 C   0  0  0  0  0  0  0  0  0  0  0  0
    9.8547    1.8874    0.4736 C   0  0  0  0  0  0  0  0  0  0  0  0
    8.4953    2.1226    0.7050 C   0  0  0  0  0  0  0  0  0  0  0  0
    7.9836    2.3156    2.1046 C   0  0  0  0  0  0  0  0  0  0  0  0
    7.5181    0.9847    2.6880 C   0  0  0  0  0  0  0  0  0  0  0  0
    7.5998    2.0787   -0.3750 C   0  0  0  0  0  0  0  0  0  0  0  0
    6.8723    0.2607   -3.3280 C   0  0  0  0  0  0  0  0  0  0  0  0
    5.4083    0.2523   -4.1919 S   0  0  0  0  0  0  0  0  0  0  0  0
    5.0909    1.8553   -3.8940 C   0  0  0  0  0  0  0  0  0  0  0  0
    3.9972    2.6707   -4.0635 C   0  0  0  0  0  0  0  0  0  0  0  0
    2.7586    2.4395   -4.5434 N   0  0  0  0  0  0  0  0  0  0  0  0
    2.1017    3.5967   -4.2447 C   0  0  0  0  0  0  0  0  0  0  0  0
    0.7283    3.8442   -4.3328 C   0  0  0  0  0  0  0  0  0  0  0  0
   -0.2706    2.9602   -4.0221 N   0  0  0  0  0  0  0  0  0  0  0  0
   -1.3691    3.7553   -3.9189 C   0  0  0  0  0  0  0  0  0  0  0  0
   -2.5257    3.6092   -3.1455 C   0  0  0  0  0  0  0  0  0  0  0  0
   -3.0636    2.4347   -2.0705 S   0  0  0  0  0  0  0  0  0  0  0  0
   -0.0927    1.6881   -3.3050 C   0  0  0  0  0  0  0  0  0  0  0  0
    0.3581    1.9308   -1.8563 C   0  0  0  0  0  0  0  0  0  0  0  0
    2.4316    1.5040   -5.6306 C   0  0  0  0  0  0  0  0  0  0  0  0
    3.1257    1.9305   -6.9256 C   0  0  0  0  0  0  0  0  0  0  0  0
    7.6135   -0.9715   -3.0856 C   0  0  0  0  0  0  0  0  0  0  0  0
    7.0517   -2.0871   -2.4689 C   0  0  0  0  0  0  0  0  0  0  0  0
    7.9343   -3.1048   -2.7397 C   0  0  0  0  0  0  0  0  0  0  0  0
    7.8062   -4.4761   -2.5368 C   0  0  0  0  0  0  0  0  0  0  0  0
    6.6603   -5.1036   -1.8584 C   0  0  0  0  0  0  0  0  0  0  0  0
    6.7688   -6.1177   -0.8980 C   0  0  0  0  0  0  0  0  0  0  0  0
    5.5371   -6.6589   -0.5563 C   0  0  0  0  0  0  0  0  0  0  0  0
    5.4126   -7.6701    0.3519 F   0  0  0  0  0  0  0  0  0  0  0  0
    4.4662   -6.1343   -1.2649 C   0  0  0  0  0  0  0  0  0  0  0  0
    3.0341   -6.5660   -1.1494 C   0  0  0  0  0  0  0  0  0  0  0  0
    2.3599   -5.9092    0.0497 C   0  0  0  0  0  0  0  0  0  0  0  0
    5.0440   -4.9274   -2.3010 S   0  0  0  0  0  0  0  0  0  0  0  0
    8.7610   -5.2611   -3.1858 C   0  0  0  0  0  0  0  0  0  0  0  0
    9.8368   -4.7411   -3.8970 C   0  0  0  0  0  0  0  0  0  0  0  0
   10.0305   -3.3341   -4.0082 C   0  0  0  0  0  0  0  0  0  0  0  0
   11.1858   -2.6984   -4.6837 C   0  0  0  0  0  0  0  0  0  0  0  0
   12.1086   -3.3330   -5.9356 S   0  0  0  0  0  0  0  0  0  0  0  0
   13.2024   -2.0636   -6.0464 C   0  0  0  0  0  0  0  0  0  0  0  0
   14.3523   -1.9825   -7.0032 C   0  0  0  0  0  0  0  0  0  0  0  0
   15.5280   -2.8208   -6.5205 C   0  0  0  0  0  0  0  0  0  0  0  0
   12.8561   -1.1177   -5.0907 C   0  0  0  0  0  0  0  0  0  0  0  0
   11.7418   -1.4653   -4.3293 C   0  0  0  0  0  0  0  0  0  0  0  0
   13.5693    0.0134   -4.8683 F   0  0  0  0  0  0  0  0  0  0  0  0
    8.9914   -2.5512   -3.4537 C   0  0  0  0  0  0  0  0  0  0  0  0
    8.7756   -1.2677   -3.6350 O   0  0  0  0  0  0  0  0  0  0  0  0
   10.4488   -5.8230   -4.5084 C   0  0  0  0  0  0  0  0  0  0  0  0
    9.6442   -6.9119   -4.1709 C   0  0  0  0  0  0  0  0  0  0  0  0
    8.6817   -6.5504   -3.3491 O   0  0  0  0  0  0  0  0  0  0  0  0
    9.6285   -8.2346   -4.8131 C   0  0  0  0  0  0  0  0  0  0  0  0
    8.5536   -8.5202   -5.5684 C   0  0  0  0  0  0  0  0  0  0  0  0
    7.6489   -9.6258   -5.2571 C   0  0  0  0  0  0  0  0  0  0  0  0
    7.9911  -10.7334   -4.7693 O   0  0  0  0  0  0  0  0  0  0  0  0
    6.2767   -9.1613   -5.4363 C   0  0  0  0  0  0  0  0  0  0  0  0
    5.1005   -9.7686   -4.9300 C   0  0  0  0  0  0  0  0  0  0  0  0
    3.9824   -8.9469   -4.9645 C   0  0  0  0  0  0  0  0  0  0  0  0
    4.0130   -7.6115   -5.4795 C   0  0  0  0  0  0  0  0  0  0  0  0
    5.1580   -7.0206   -5.9891 C   0  0  0  0  0  0  0  0  0  0  0  0
    6.3117   -7.8490   -5.9579 C   0  0  0  0  0  0  0  0  0  0  0  0
    7.7120   -7.4793   -6.2218 C   0  0  0  0  0  0  0  0  0  0  0  0
    8.1575   -6.6012   -7.1543 C   0  0  0  0  0  0  0  0  0  0  0  0
    7.2516   -5.7769   -7.9159 C   0  0  0  0  0  0  0  0  0  0  0  0
    6.5256   -5.1466   -8.5553 N   0  0  0  0  0  0  0  0  0  0  0  0
    9.5134   -6.6683   -7.6238 C   0  0  0  0  0  0  0  0  0  0  0  0
   10.5960   -6.7582   -8.0224 N   0  0  0  0  0  0  0  0  0  0  0  0
    2.5786   -7.4067   -5.0889 C   0  0  0  0  0  0  0  0  0  0  0  0
    1.4828   -7.4156   -6.1922 C   0  0  0  0  0  0  0  0  0  0  0  0
    1.8863   -8.3255   -7.3248 C   0  0  0  0  0  0  0  0  0  0  0  0
    1.8694   -9.5670   -6.8338 C   0  0  0  0  0  0  0  0  0  0  0  0
    1.4393   -9.4614   -5.3940 C   0  0  0  0  0  0  0  0  0  0  0  0
    0.4571   -8.3118   -5.5261 C   0  0  0  0  0  0  0  0  0  0  0  0
    2.5472   -8.7732   -4.5568 C   0  0  0  0  0  0  0  0  0  0  0  0
   -6.0366    4.5837    6.2913 H   0  0  0  0  0  0  0  0  0  0  0  0
  -10.0650   -0.2357    7.0606 H   0  0  0  0  0  0  0  0  0  0  0  0
   -9.4268    3.5522   10.4348 H   0  0  0  0  0  0  0  0  0  0  0  0
  -12.3751    1.6939   10.9655 H   0  0  0  0  0  0  0  0  0  0  0  0
  -11.0563    0.9393   13.0516 H   0  0  0  0  0  0  0  0  0  0  0  0
   -8.6333    0.1333   12.3747 H   0  0  0  0  0  0  0  0  0  0  0  0
   -8.8805   -1.8089   10.6497 H   0  0  0  0  0  0  0  0  0  0  0  0
  -11.4819   -2.2470   10.2467 H   0  0  0  0  0  0  0  0  0  0  0  0
  -11.4555   -1.6537   12.8371 H   0  0  0  0  0  0  0  0  0  0  0  0
  -12.8299   -0.7728   12.0282 H   0  0  0  0  0  0  0  0  0  0  0  0
  -12.6231   -0.0770    9.4280 H   0  0  0  0  0  0  0  0  0  0  0  0
   -4.4960    6.6519    3.0050 H   0  0  0  0  0  0  0  0  0  0  0  0
   -4.7821    9.0343    3.5406 H   0  0  0  0  0  0  0  0  0  0  0  0
   -4.0170   10.5088    6.8874 H   0  0  0  0  0  0  0  0  0  0  0  0
   -4.2321   10.8633    5.1426 H   0  0  0  0  0  0  0  0  0  0  0  0
   -5.6722   10.4348    6.1539 H   0  0  0  0  0  0  0  0  0  0  0  0
   -4.0407    8.1815    7.7021 H   0  0  0  0  0  0  0  0  0  0  0  0
   -3.7472    5.7974    7.1670 H   0  0  0  0  0  0  0  0  0  0  0  0
   -3.7319    1.9447    5.0246 H   0  0  0  0  0  0  0  0  0  0  0  0
   -1.8372    0.6657    5.8758 H   0  0  0  0  0  0  0  0  0  0  0  0
    1.1759    1.2492    5.8395 H   0  0  0  0  0  0  0  0  0  0  0  0
    1.2381    2.2030    7.3750 H   0  0  0  0  0  0  0  0  0  0  0  0
    0.2352    0.7078    7.2887 H   0  0  0  0  0  0  0  0  0  0  0  0
    0.4281    4.2953    6.3532 H   0  0  0  0  0  0  0  0  0  0  0  0
   -1.4578    5.6023    5.4903 H   0  0  0  0  0  0  0  0  0  0  0  0
   -6.3970   -0.3470   -1.9495 H   0  0  0  0  0  0  0  0  0  0  0  0
   -8.4348   -0.4942   -3.3021 H   0  0  0  0  0  0  0  0  0  0  0  0
  -11.2360    0.0686   -2.7727 H   0  0  0  0  0  0  0  0  0  0  0  0
  -11.3739    1.8624   -2.9399 H   0  0  0  0  0  0  0  0  0  0  0  0
  -10.4565    0.9202   -4.1649 H   0  0  0  0  0  0  0  0  0  0  0  0
  -10.1604    2.7633   -1.0607 H   0  0  0  0  0  0  0  0  0  0  0  0
   -8.1337    2.9053    0.3119 H   0  0  0  0  0  0  0  0  0  0  0  0
   -3.2962    0.8398    0.5120 H   0  0  0  0  0  0  0  0  0  0  0  0
   -2.2272   -1.2343    1.2542 H   0  0  0  0  0  0  0  0  0  0  0  0
   -3.4840   -3.6447    2.9949 H   0  0  0  0  0  0  0  0  0  0  0  0
   -2.3642   -3.6639    1.5722 H   0  0  0  0  0  0  0  0  0  0  0  0
   -3.9542   -4.5010    1.4664 H   0  0  0  0  0  0  0  0  0  0  0  0
   -6.0817   -3.1369    1.4983 H   0  0  0  0  0  0  0  0  0  0  0  0
   -7.1721   -1.0639    0.7852 H   0  0  0  0  0  0  0  0  0  0  0  0
   -3.0815    7.2022   -1.0046 H   0  0  0  0  0  0  0  0  0  0  0  0
   -4.3767    9.0993   -0.1102 H   0  0  0  0  0  0  0  0  0  0  0  0
   -6.8128    8.9016    0.2089 H   0  0  0  0  0  0  0  0  0  0  0  0
   -8.6598    5.6809   -0.0559 H   0  0  0  0  0  0  0  0  0  0  0  0
   -8.7412    7.3680    0.5463 H   0  0  0  0  0  0  0  0  0  0  0  0
  -10.2534    6.9737   -1.4224 H   0  0  0  0  0  0  0  0  0  0  0  0
   -8.8079    6.5768   -2.4330 H   0  0  0  0  0  0  0  0  0  0  0  0
   -9.0201    8.2429   -1.7539 H   0  0  0  0  0  0  0  0  0  0  0  0
   -6.7004    4.8720   -1.2884 H   0  0  0  0  0  0  0  0  0  0  0  0
    9.8018    1.2921   -2.8735 H   0  0  0  0  0  0  0  0  0  0  0  0
   11.3820    1.4333   -0.9870 H   0  0  0  0  0  0  0  0  0  0  0  0
   10.5658    1.8980    1.2904 H   0  0  0  0  0  0  0  0  0  0  0  0
    7.1357    3.0393    2.1060 H   0  0  0  0  0  0  0  0  0  0  0  0
    8.7863    2.7385    2.7549 H   0  0  0  0  0  0  0  0  0  0  0  0
    6.6549    0.5797    2.0975 H   0  0  0  0  0  0  0  0  0  0  0  0
    7.1847    1.1372    3.7395 H   0  0  0  0  0  0  0  0  0  0  0  0
    8.3544    0.2378    2.6825 H   0  0  0  0  0  0  0  0  0  0  0  0
    6.5383    2.2001   -0.2009 H   0  0  0  0  0  0  0  0  0  0  0  0
   -1.0379    1.1032   -3.3167 H   0  0  0  0  0  0  0  0  0  0  0  0
    0.6662    1.0491   -3.7828 H   0  0  0  0  0  0  0  0  0  0  0  0
    0.2949    0.9938   -1.2655 H   0  0  0  0  0  0  0  0  0  0  0  0
   -0.2715    2.6972   -1.3756 H   0  0  0  0  0  0  0  0  0  0  0  0
    1.4091    2.2853   -1.8332 H   0  0  0  0  0  0  0  0  0  0  0  0
    1.3403    1.4998   -5.8341 H   0  0  0  0  0  0  0  0  0  0  0  0
    2.7420    0.4759   -5.3632 H   0  0  0  0  0  0  0  0  0  0  0  0
    2.8096    2.9591   -7.2006 H   0  0  0  0  0  0  0  0  0  0  0  0
    2.8360    1.2497   -7.7496 H   0  0  0  0  0  0  0  0  0  0  0  0
    4.2263    1.9038   -6.7973 H   0  0  0  0  0  0  0  0  0  0  0  0
    6.0817   -2.1530   -2.0007 H   0  0  0  0  0  0  0  0  0  0  0  0
    7.7107   -6.4347   -0.4705 H   0  0  0  0  0  0  0  0  0  0  0  0
    2.9824   -7.6722   -1.0455 H   0  0  0  0  0  0  0  0  0  0  0  0
    2.4829   -6.2731   -2.0692 H   0  0  0  0  0  0  0  0  0  0  0  0
    2.3397   -4.8055   -0.0668 H   0  0  0  0  0  0  0  0  0  0  0  0
    2.8963   -6.1700    0.9886 H   0  0  0  0  0  0  0  0  0  0  0  0
    1.3149   -6.2848    0.1280 H   0  0  0  0  0  0  0  0  0  0  0  0
   14.6759   -0.9298   -7.1160 H   0  0  0  0  0  0  0  0  0  0  0  0
   14.0219   -2.3567   -7.9960 H   0  0  0  0  0  0  0  0  0  0  0  0
   16.3211   -2.8381   -7.2970 H   0  0  0  0  0  0  0  0  0  0  0  0
   15.9632   -2.3861   -5.5939 H   0  0  0  0  0  0  0  0  0  0  0  0
   15.2112   -3.8676   -6.3253 H   0  0  0  0  0  0  0  0  0  0  0  0
   11.3610   -0.8498   -3.5262 H   0  0  0  0  0  0  0  0  0  0  0  0
   11.2697   -5.8192   -5.2153 H   0  0  0  0  0  0  0  0  0  0  0  0
   10.1398   -9.0370   -4.2949 H   0  0  0  0  0  0  0  0  0  0  0  0
    5.0830  -10.7608   -4.4804 H   0  0  0  0  0  0  0  0  0  0  0  0
    5.1719   -5.9762   -6.2669 H   0  0  0  0  0  0  0  0  0  0  0  0
    2.4436   -6.6244   -4.3124 H   0  0  0  0  0  0  0  0  0  0  0  0
    1.1162   -6.4145   -6.5004 H   0  0  0  0  0  0  0  0  0  0  0  0
    2.1044   -8.0549   -8.3521 H   0  0  0  0  0  0  0  0  0  0  0  0
    2.0484  -10.4758   -7.3944 H   0  0  0  0  0  0  0  0  0  0  0  0
    1.0204  -10.3913   -4.9460 H   0  0  0  0  0  0  0  0  0  0  0  0
    0.0944   -7.9180   -4.5451 H   0  0  0  0  0  0  0  0  0  0  0  0
   -0.4260   -8.5352   -6.1737 H   0  0  0  0  0  0  0  0  0  0  0  0
    2.3936   -8.8054   -3.4622 H   0  0  0  0  0  0  0  0  0  0  0  0
  1  2  2  3
  2  3  1  0
  3  4  2  0
  3  5  1  0
  5  6  2  0
  6  7  1  0
  7  8  2  0
  8  9  1  0
  9 10  2  0
 10 11  1  0
 11 12  2  3
 12 13  1  0
 13 14  3  0
 12 15  1  0
 15 16  3  0
  8 17  1  0
 17 18  1  0
 18 19  1  0
 19 20  2  0
 20 21  1  0
 21 22  1  0
 21 23  1  0
  1 24  1  0
 24 25  2  0
 25 26  1  0
 26 27  1  0
 27 28  2  0
 28 29  1  0
 29 30  2  0
 30 31  1  0
 30 32  1  0
 32 33  2  0
 26 34  1  0
 34 35  2  0
 35 36  1  0
 36 37  2  0
 37 38  1  0
 37 39  1  0
 39 40  2  0
 25 41  1  0
 41 42  1  0
 42 43  1  0
 43 44  2  0
 44 45  1  0
 45 46  1  0
 46 47  2  0
 47 48  1  0
 48 49  2  0
 49 50  1  0
 49 51  1  0
 51 52  2  0
 45 53  1  0
 53 54  2  0
 54 55  1  0
 55 56  2  0
 56 57  1  0
 56 58  1  0
 58 59  2  0
 44 60  1  0
 60 61  1  0
 43 62  1  0
 62 63  2  0
 63 64  1  0
 64 65  2  0
 65 66  1  0
 66 67  2  0
 67 68  1  0
 68 69  1  0
 69 70  1  0
 68 71  2  0
 63 72  1  0
 72 73  1  0
 73 74  1  0
 74 75  1  0
 75 76  1  0
 76 77  1  0
 77 78  2  0
 78 79  1  0
 79 80  1  0
 77 81  1  0
 81 82  1  0
 82 83  1  0
 83 84  1  0
 84 85  1  0
 85 86  1  0
 86 87  2  0
 87 88  1  0
 88 89  2  0
 89 90  1  0
 90 91  1  0
 91 92  1  0
 90 93  2  0
 85 94  2  0
 94 95  1  0
 95 96  1  0
 96 97  1  0
 97 98  1  0
 98 99  1  0
 99100  1  0
100101  1  0
101102  1  0
102103  1  0
103104  1  0
101105  1  0
105106  1  0
 98107  1  0
107108  1  0
 94109  1  0
109110  2  0
110111  1  0
111112  2  0
112113  1  0
113114  2  0
114115  1  0
115116  1  0
115117  2  0
117118  1  0
118119  1  0
117120  1  0
112121  1  0
121122  2  0
122123  1  0
123124  1  0
124125  1  0
125126  1  0
126127  1  0
127128  1  0
126129  2  0
129130  1  0
129131  1  0
123132  2  0
132133  1  0
122134  1  0
134135  2  0
135136  1  0
135137  1  0
137138  2  3
138139  1  0
139140  2  0
139141  1  0
141142  2  0
142143  1  0
143144  2  0
144145  1  0
145146  2  0
146147  1  0
147148  2  3
148149  1  0
149150  3  0
148151  1  0
151152  3  0
144153  1  0
153154  1  0
154155  1  0
155156  2  0
156157  1  0
157158  1  0
157159  1  0
 11  2  1  0
 23 17  1  0
 61 24  1  0
104 62  1  0
133109  1  0
147138  1  0
159153  1  0
 10  5  1  0
 22 18  1  0
 33 27  1  0
 40 34  1  0
 60 41  2  0
 71 64  1  0
103 72  2  0
132111  1  0
146141  1  0
158154  1  0
 23  7  1  0
 52 46  1  0
 59 53  1  0
102 74  2  0
120113  1  0
136121  1  0
159143  1  0
100 75  2  0
130124  2  0
 80 76  2  0
 99 81  2  0
 97 82  2  0
 96 84  2  0
 93 86  1  0
  1160  1  0
  6161  1  0
  9162  1  0
 17163  1  0
 18164  1  0
 19165  1  0
 20166  1  0
 21167  1  0
 22168  1  0
 22169  1  0
 23170  1  0
 28171  1  0
 29172  1  0
 31173  1  0
 31174  1  0
 31175  1  0
 32176  1  0
 33177  1  0
 35178  1  0
 36179  1  0
 38180  1  0
 38181  1  0
 38182  1  0
 39183  1  0
 40184  1  0
 47185  1  0
 48186  1  0
 50187  1  0
 50188  1  0
 50189  1  0
 51190  1  0
 52191  1  0
 54192  1  0
 55193  1  0
 57194  1  0
 57195  1  0
 57196  1  0
 58197  1  0
 59198  1  0
 65199  1  0
 66200  1  0
 67201  1  0
 69202  1  0
 69203  1  0
 70204  1  0
 70205  1  0
 70206  1  0
 71207  1  0
 87208  1  0
 88209  1  0
 89210  1  0
 91211  1  0
 91212  1  0
 92213  1  0
 92214  1  0
 92215  1  0
 93216  1  0
105217  1  0
105218  1  0
106219  1  0
106220  1  0
106221  1  0
107222  1  0
107223  1  0
108224  1  0
108225  1  0
108226  1  0
110227  1  0
114228  1  0
118229  1  0
118230  1  0
119231  1  0
119232  1  0
119233  1  0
127234  1  0
127235  1  0
128236  1  0
128237  1  0
128238  1  0
130239  1  0
134240  1  0
137241  1  0
142242  1  0
145243  1  0
153244  1  0
154245  1  0
155246  1  0
156247  1  0
157248  1  0
158249  1  0
158250  1  0
159251  1  0
M  END

