
     RDKit          3D

262290  0  0  0  0  0  0  0  0999 V2000
   -3.5899    4.1484    6.0427 C   0  0  0  0  0  0  0  0  0  0  0  0
   -3.0059    4.5965    4.9109 C   0  0  0  0  0  0  0  0  0  0  0  0
   -3.3312    5.8925    4.3106 C   0  0  0  0  0  0  0  0  0  0  0  0
   -3.9664    6.8255    4.8696 O   0  0  0  0  0  0  0  0  0  0  0  0
   -2.8091    5.9328    2.9586 C   0  0  0  0  0  0  0  0  0  0  0  0
   -2.7314    7.0632    2.1085 C   0  0  0  0  0  0  0  0  0  0  0  0
   -1.9322    6.8749    0.9936 C   0  0  0  0  0  0  0  0  0  0  0  0
   -1.2727    5.6393    0.7065 C   0  0  0  0  0  0  0  0  0  0  0  0
   -1.3789    4.5172    1.5085 C   0  0  0  0  0  0  0  0  0  0  0  0
   -2.1648    4.6974    2.6826 C   0  0  0  0  0  0  0  0  0  0  0  0
   -2.2050    3.8394    3.9011 C   0  0  0  0  0  0  0  0  0  0  0  0
   -1.1860    3.0174    4.2058 C   0  0  0  0  0  0  0  0  0  0  0  0
   -0.6964    2.0515    3.2571 C   0  0  0  0  0  0  0  0  0  0  0  0
   -0.2972    1.2833    2.4912 N   0  0  0  0  0  0  0  0  0  0  0  0
   -0.3442    3.3170    5.3349 C   0  0  0  0  0  0  0  0  0  0  0  0
    0.3469    3.5652    6.2309 N   0  0  0  0  0  0  0  0  0  0  0  0
   -0.5827    6.2551   -0.4739 C   0  0  0  0  0  0  0  0  0  0  0  0
   -1.0741    5.8874   -1.9024 C   0  0  0  0  0  0  0  0  0  0  0  0
   -2.5548    5.5869   -1.8785 C   0  0  0  0  0  0  0  0  0  0  0  0
   -3.1776    6.7371   -1.6149 C   0  0  0  0  0  0  0  0  0  0  0  0
   -2.0989    7.7831   -1.4760 C   0  0  0  0  0  0  0  0  0  0  0  0
   -1.1229    7.2724   -2.5223 C   0  0  0  0  0  0  0  0  0  0  0  0
   -1.2641    7.5225   -0.1867 C   0  0  0  0  0  0  0  0  0  0  0  0
   -3.6742    2.7283    6.4358 C   0  0  0  0  0  0  0  0  0  0  0  0
   -4.8214    1.9300    6.3239 C   0  0  0  0  0  0  0  0  0  0  0  0
   -6.0725    2.3735    5.7687 N   0  0  0  0  0  0  0  0  0  0  0  0
   -6.1373    2.8808    4.4165 C   0  0  0  0  0  0  0  0  0  0  0  0
   -5.2650    2.3958    3.4247 C   0  0  0  0  0  0  0  0  0  0  0  0
   -5.3547    2.8621    2.1116 C   0  0  0  0  0  0  0  0  0  0  0  0
   -6.3147    3.8234    1.7662 C   0  0  0  0  0  0  0  0  0  0  0  0
   -6.4706    4.2606    0.3399 C   0  0  0  0  0  0  0  0  0  0  0  0
   -7.1891    4.3099    2.7501 C   0  0  0  0  0  0  0  0  0  0  0  0
   -7.0937    3.8488    4.0660 C   0  0  0  0  0  0  0  0  0  0  0  0
   -7.2770    2.1296    6.5218 C   0  0  0  0  0  0  0  0  0  0  0  0
   -8.3952    1.5371    5.9110 C   0  0  0  0  0  0  0  0  0  0  0  0
   -9.5648    1.3103    6.6432 C   0  0  0  0  0  0  0  0  0  0  0  0
   -9.6388    1.6867    7.9906 C   0  0  0  0  0  0  0  0  0  0  0  0
  -10.8935    1.4329    8.7743 C   0  0  0  0  0  0  0  0  0  0  0  0
   -8.5127    2.2453    8.6152 C   0  0  0  0  0  0  0  0  0  0  0  0
   -7.3411    2.4668    7.8847 C   0  0  0  0  0  0  0  0  0  0  0  0
   -4.5451    0.5900    6.5953 C   0  0  0  0  0  0  0  0  0  0  0  0
   -5.2724   -0.7868    5.9964 S   0  0  0  0  0  0  0  0  0  0  0  0
   -3.9011   -1.7830    6.1251 C   0  0  0  0  0  0  0  0  0  0  0  0
   -2.8566   -1.0156    6.6933 C   0  0  0  0  0  0  0  0  0  0  0  0
   -1.5040   -1.5120    6.8131 N   0  0  0  0  0  0  0  0  0  0  0  0
   -0.3483   -0.6999    6.5699 C   0  0  0  0  0  0  0  0  0  0  0  0
    0.3275   -0.1039    7.6408 C   0  0  0  0  0  0  0  0  0  0  0  0
    1.4991    0.6261    7.4192 C   0  0  0  0  0  0  0  0  0  0  0  0
    2.0271    0.7379    6.1269 C   0  0  0  0  0  0  0  0  0  0  0  0
    3.2999    1.5047    5.9042 C   0  0  0  0  0  0  0  0  0  0  0  0
    1.3688    0.1123    5.0595 C   0  0  0  0  0  0  0  0  0  0  0  0
    0.1845   -0.5964    5.2782 C   0  0  0  0  0  0  0  0  0  0  0  0
   -1.2993   -2.8282    7.3411 C   0  0  0  0  0  0  0  0  0  0  0  0
   -1.7692   -3.1447    8.6226 C   0  0  0  0  0  0  0  0  0  0  0  0
   -1.6064   -4.4307    9.1345 C   0  0  0  0  0  0  0  0  0  0  0  0
   -0.9740   -5.4236    8.3670 C   0  0  0  0  0  0  0  0  0  0  0  0
   -0.8664   -6.8174    8.9040 C   0  0  0  0  0  0  0  0  0  0  0  0
   -0.4986   -5.1035    7.0836 C   0  0  0  0  0  0  0  0  0  0  0  0
   -0.6568   -3.8100    6.5738 C   0  0  0  0  0  0  0  0  0  0  0  0
   -3.2534    0.3100    6.9195 C   0  0  0  0  0  0  0  0  0  0  0  0
   -2.3888    1.7460    6.9541 S   0  0  0  0  0  0  0  0  0  0  0  0
   -3.6145   -2.6588    4.9847 C   0  0  0  0  0  0  0  0  0  0  0  0
   -4.1998   -3.9025    4.6637 C   0  0  0  0  0  0  0  0  0  0  0  0
   -5.0223   -4.7152    5.5826 C   0  0  0  0  0  0  0  0  0  0  0  0
   -4.4071   -5.2256    6.7343 C   0  0  0  0  0  0  0  0  0  0  0  0
   -5.1059   -6.0518    7.6157 C   0  0  0  0  0  0  0  0  0  0  0  0
   -6.4342   -6.3806    7.3529 C   0  0  0  0  0  0  0  0  0  0  0  0
   -7.0732   -5.8667    6.2223 C   0  0  0  0  0  0  0  0  0  0  0  0
   -6.3868   -5.0226    5.3294 C   0  0  0  0  0  0  0  0  0  0  0  0
   -7.1679   -4.3942    4.1976 C   0  0  0  0  0  0  0  0  0  0  0  0
   -8.0906   -3.2951    4.7199 C   0  0  0  0  0  0  0  0  0  0  0  0
   -3.9025   -4.2548    3.3368 C   0  0  0  0  0  0  0  0  0  0  0  0
   -4.2845   -5.5718    2.3040 S   0  0  0  0  0  0  0  0  0  0  0  0
   -3.5614   -4.7856    0.9740 C   0  0  0  0  0  0  0  0  0  0  0  0
   -3.2264   -4.9802   -0.3427 C   0  0  0  0  0  0  0  0  0  0  0  0
   -3.2399   -6.1135   -1.1711 C   0  0  0  0  0  0  0  0  0  0  0  0
   -2.6143   -6.0325   -2.4568 C   0  0  0  0  0  0  0  0  0  0  0  0
   -2.6136   -7.1604   -3.2111 N   0  0  0  0  0  0  0  0  0  0  0  0
   -3.3933   -8.1906   -2.1726 S   0  0  0  0  0  0  0  0  0  0  0  0
   -3.7553   -7.3158   -0.8126 N   0  0  0  0  0  0  0  0  0  0  0  0
   -2.1062   -4.7951   -2.8847 C   0  0  0  0  0  0  0  0  0  0  0  0
   -1.5085   -4.3823   -4.0529 C   0  0  0  0  0  0  0  0  0  0  0  0
   -0.3880   -5.0858   -5.1215 S   0  0  0  0  0  0  0  0  0  0  0  0
    0.3210   -3.5689   -5.4651 C   0  0  0  0  0  0  0  0  0  0  0  0
    1.5926   -3.2313   -5.9424 C   0  0  0  0  0  0  0  0  0  0  0  0
    2.5150   -4.1595   -6.6121 C   0  0  0  0  0  0  0  0  0  0  0  0
    2.7552   -4.0675   -8.0038 C   0  0  0  0  0  0  0  0  0  0  0  0
    1.9743   -3.1205   -8.8900 C   0  0  0  0  0  0  0  0  0  0  0  0
    0.6761   -3.7710   -9.3573 C   0  0  0  0  0  0  0  0  0  0  0  0
    3.7130   -4.9136   -8.5893 C   0  0  0  0  0  0  0  0  0  0  0  0
    4.4425   -5.8055   -7.8057 C   0  0  0  0  0  0  0  0  0  0  0  0
    4.2089   -5.8872   -6.4312 C   0  0  0  0  0  0  0  0  0  0  0  0
    3.2422   -5.0728   -5.8365 C   0  0  0  0  0  0  0  0  0  0  0  0
    1.9672   -1.9404   -5.5362 C   0  0  0  0  0  0  0  0  0  0  0  0
    0.7320   -1.2665   -4.5862 S   0  0  0  0  0  0  0  0  0  0  0  0
   -0.2888   -2.5752   -4.7400 C   0  0  0  0  0  0  0  0  0  0  0  0
   -1.3042   -3.0385   -3.9268 C   0  0  0  0  0  0  0  0  0  0  0  0
   -1.7375   -2.5511   -2.7433 N   0  0  0  0  0  0  0  0  0  0  0  0
   -2.1635   -3.6582   -2.0733 C   0  0  0  0  0  0  0  0  0  0  0  0
   -2.5931   -3.7898   -0.7373 C   0  0  0  0  0  0  0  0  0  0  0  0
   -2.3772   -2.9603    0.3270 N   0  0  0  0  0  0  0  0  0  0  0  0
   -3.0410   -3.5843    1.3233 C   0  0  0  0  0  0  0  0  0  0  0  0
   -3.1988   -3.3054    2.6554 C   0  0  0  0  0  0  0  0  0  0  0  0
   -2.8528   -2.0002    3.6166 S   0  0  0  0  0  0  0  0  0  0  0  0
   -1.2373   -2.0535    0.5475 C   0  0  0  0  0  0  0  0  0  0  0  0
   -0.1076   -2.7567    1.3007 C   0  0  0  0  0  0  0  0  0  0  0  0
   -2.0595   -1.1393   -2.4752 C   0  0  0  0  0  0  0  0  0  0  0  0
   -2.9200   -0.5446   -3.5869 C   0  0  0  0  0  0  0  0  0  0  0  0
    3.3515   -1.5030   -5.3528 C   0  0  0  0  0  0  0  0  0  0  0  0
    3.9692   -0.4316   -6.0076 C   0  0  0  0  0  0  0  0  0  0  0  0
    3.5300    0.1501   -7.2453 N   0  0  0  0  0  0  0  0  0  0  0  0
    2.3158    0.9317   -7.3172 C   0  0  0  0  0  0  0  0  0  0  0  0
    1.8304    1.6170   -6.1889 C   0  0  0  0  0  0  0  0  0  0  0  0
    0.6767    2.4011   -6.2759 C   0  0  0  0  0  0  0  0  0  0  0  0
   -0.0011    2.5311   -7.4989 C   0  0  0  0  0  0  0  0  0  0  0  0
   -1.2456    3.3629   -7.5956 C   0  0  0  0  0  0  0  0  0  0  0  0
    0.4681    1.8360   -8.6209 C   0  0  0  0  0  0  0  0  0  0  0  0
    1.6149    1.0451   -8.5330 C   0  0  0  0  0  0  0  0  0  0  0  0
    4.4308    0.0615   -8.3676 C   0  0  0  0  0  0  0  0  0  0  0  0
    5.0023   -1.1701   -8.7174 C   0  0  0  0  0  0  0  0  0  0  0  0
    5.9043   -1.2576   -9.7801 C   0  0  0  0  0  0  0  0  0  0  0  0
    6.2574   -0.1069  -10.5021 C   0  0  0  0  0  0  0  0  0  0  0  0
    7.2654   -0.1980  -11.6085 C   0  0  0  0  0  0  0  0  0  0  0  0
    5.7157    1.1321  -10.1322 C   0  0  0  0  0  0  0  0  0  0  0  0
    4.8007    1.2157   -9.0779 C   0  0  0  0  0  0  0  0  0  0  0  0
    5.0925    0.0057   -5.3146 C   0  0  0  0  0  0  0  0  0  0  0  0
    6.0236    1.3909   -5.4292 S   0  0  0  0  0  0  0  0  0  0  0  0
    6.8196    1.1161   -3.9510 C   0  0  0  0  0  0  0  0  0  0  0  0
    6.3571   -0.0754   -3.3616 C   0  0  0  0  0  0  0  0  0  0  0  0
    6.8228   -0.5934   -2.0921 N   0  0  0  0  0  0  0  0  0  0  0  0
    5.9592   -1.3510   -1.2263 C   0  0  0  0  0  0  0  0  0  0  0  0
    6.3559   -2.6205   -0.7743 C   0  0  0  0  0  0  0  0  0  0  0  0
    5.5421   -3.3480    0.0969 C   0  0  0  0  0  0  0  0  0  0  0  0
    4.3284   -2.8059    0.5468 C   0  0  0  0  0  0  0  0  0  0  0  0
    3.4467   -3.5964    1.4679 C   0  0  0  0  0  0  0  0  0  0  0  0
    3.9222   -1.5431    0.0860 C   0  0  0  0  0  0  0  0  0  0  0  0
    4.7359   -0.8186   -0.7906 C   0  0  0  0  0  0  0  0  0  0  0  0
    8.1902   -0.3744   -1.6906 C   0  0  0  0  0  0  0  0  0  0  0  0
    8.4821    0.0912   -0.3970 C   0  0  0  0  0  0  0  0  0  0  0  0
    9.7963    0.3966   -0.0360 C   0  0  0  0  0  0  0  0  0  0  0  0
   10.8402    0.2303   -0.9582 C   0  0  0  0  0  0  0  0  0  0  0  0
   12.2363    0.6390   -0.5969 C   0  0  0  0  0  0  0  0  0  0  0  0
   10.5539   -0.2447   -2.2469 C   0  0  0  0  0  0  0  0  0  0  0  0
    9.2403   -0.5559   -2.6056 C   0  0  0  0  0  0  0  0  0  0  0  0
    5.3696   -0.6577   -4.1619 C   0  0  0  0  0  0  0  0  0  0  0  0
    4.2264   -1.8646   -3.9354 S   0  0  0  0  0  0  0  0  0  0  0  0
    7.5614    2.1703   -3.2507 C   0  0  0  0  0  0  0  0  0  0  0  0
    6.9584    3.0216   -2.3919 C   0  0  0  0  0  0  0  0  0  0  0  0
    5.5197    3.0652   -2.1071 C   0  0  0  0  0  0  0  0  0  0  0  0
    4.6411    2.3119   -2.6082 O   0  0  0  0  0  0  0  0  0  0  0  0
    5.2545    4.1082   -1.1398 C   0  0  0  0  0  0  0  0  0  0  0  0
    4.0561    4.4007   -0.4758 C   0  0  0  0  0  0  0  0  0  0  0  0
    2.5545    3.5778   -0.9066 Cl  0  0  0  0  0  0  0  0  0  0  0  0
    4.0806    5.3470    0.5680 C   0  0  0  0  0  0  0  0  0  0  0  0
    2.5991    5.7207    1.4542 Cl  0  0  0  0  0  0  0  0  0  0  0  0
    5.3040    5.9432    0.9560 C   0  0  0  0  0  0  0  0  0  0  0  0
    5.3275    7.0908    2.3027 Cl  0  0  0  0  0  0  0  0  0  0  0  0
    6.5056    5.5978    0.3007 C   0  0  0  0  0  0  0  0  0  0  0  0
    8.0379    6.0451    1.0545 Cl  0  0  0  0  0  0  0  0  0  0  0  0
    6.4460    4.7402   -0.8197 C   0  0  0  0  0  0  0  0  0  0  0  0
    7.5528    4.1800   -1.6547 C   0  0  0  0  0  0  0  0  0  0  0  0
    8.7138    4.8169   -1.9469 C   0  0  0  0  0  0  0  0  0  0  0  0
    9.8251    4.1611   -2.5811 C   0  0  0  0  0  0  0  0  0  0  0  0
   10.7167    3.6260   -3.0937 N   0  0  0  0  0  0  0  0  0  0  0  0
    8.8112    6.2511   -1.8591 C   0  0  0  0  0  0  0  0  0  0  0  0
    8.8848    7.4067   -1.8070 N   0  0  0  0  0  0  0  0  0  0  0  0
   -4.2527    4.8204    6.5698 H   0  0  0  0  0  0  0  0  0  0  0  0
   -3.1634    8.0204    2.3578 H   0  0  0  0  0  0  0  0  0  0  0  0
   -0.8188    3.6267    1.2767 H   0  0  0  0  0  0  0  0  0  0  0  0
    0.5205    6.3201   -0.3682 H   0  0  0  0  0  0  0  0  0  0  0  0
   -0.4472    5.1471   -2.4397 H   0  0  0  0  0  0  0  0  0  0  0  0
   -3.0327    4.6451   -2.1234 H   0  0  0  0  0  0  0  0  0  0  0  0
   -4.2494    6.8910   -1.6177 H   0  0  0  0  0  0  0  0  0  0  0  0
   -2.4386    8.8326   -1.6142 H   0  0  0  0  0  0  0  0  0  0  0  0
   -0.1380    7.7991   -2.5127 H   0  0  0  0  0  0  0  0  0  0  0  0
   -1.5385    7.2829   -3.5571 H   0  0  0  0  0  0  0  0  0  0  0  0
   -0.5689    8.3442    0.0945 H   0  0  0  0  0  0  0  0  0  0  0  0
   -4.5234    1.6420    3.6613 H   0  0  0  0  0  0  0  0  0  0  0  0
   -4.6847    2.4625    1.3590 H   0  0  0  0  0  0  0  0  0  0  0  0
   -5.5098    4.1655   -0.2094 H   0  0  0  0  0  0  0  0  0  0  0  0
   -7.2358    3.6251   -0.1530 H   0  0  0  0  0  0  0  0  0  0  0  0
   -6.7941    5.3223    0.2882 H   0  0  0  0  0  0  0  0  0  0  0  0
   -7.9525    5.0360    2.4946 H   0  0  0  0  0  0  0  0  0  0  0  0
   -7.7729    4.2440    4.8103 H   0  0  0  0  0  0  0  0  0  0  0  0
   -8.3563    1.2361    4.8726 H   0  0  0  0  0  0  0  0  0  0  0  0
  -10.4145    0.8483    6.1568 H   0  0  0  0  0  0  0  0  0  0  0  0
  -10.9586    2.1169    9.6462 H   0  0  0  0  0  0  0  0  0  0  0  0
  -11.7867    1.6046    8.1367 H   0  0  0  0  0  0  0  0  0  0  0  0
  -10.8988    0.3833    9.1302 H   0  0  0  0  0  0  0  0  0  0  0  0
   -8.5456    2.5170    9.6632 H   0  0  0  0  0  0  0  0  0  0  0  0
   -6.4848    2.9128    8.3785 H   0  0  0  0  0  0  0  0  0  0  0  0
   -0.0594   -0.1936    8.6462 H   0  0  0  0  0  0  0  0  0  0  0  0
    1.9966    1.0970    8.2549 H   0  0  0  0  0  0  0  0  0  0  0  0
    3.5281    1.6097    4.8211 H   0  0  0  0  0  0  0  0  0  0  0  0
    3.2123    2.5230    6.3411 H   0  0  0  0  0  0  0  0  0  0  0  0
    4.1421    0.9708    6.3939 H   0  0  0  0  0  0  0  0  0  0  0  0
    1.7750    0.1611    4.0578 H   0  0  0  0  0  0  0  0  0  0  0  0
   -0.2975   -1.0926    4.4480 H   0  0  0  0  0  0  0  0  0  0  0  0
   -2.2681   -2.3900    9.2210 H   0  0  0  0  0  0  0  0  0  0  0  0
   -1.9932   -4.6663   10.1168 H   0  0  0  0  0  0  0  0  0  0  0  0
   -0.3867   -6.8018    9.9048 H   0  0  0  0  0  0  0  0  0  0  0  0
   -0.2623   -7.4663    8.2354 H   0  0  0  0  0  0  0  0  0  0  0  0
   -1.8814   -7.2576    9.0048 H   0  0  0  0  0  0  0  0  0  0  0  0
   -0.0291   -5.8571    6.4636 H   0  0  0  0  0  0  0  0  0  0  0  0
   -0.3015   -3.5767    5.5760 H   0  0  0  0  0  0  0  0  0  0  0  0
   -3.3743   -4.9976    6.9401 H   0  0  0  0  0  0  0  0  0  0  0  0
   -4.6148   -6.4414    8.4979 H   0  0  0  0  0  0  0  0  0  0  0  0
   -6.9775   -7.0197    8.0352 H   0  0  0  0  0  0  0  0  0  0  0  0
   -8.1143   -6.1117    6.0507 H   0  0  0  0  0  0  0  0  0  0  0  0
   -7.7824   -5.1709    3.6883 H   0  0  0  0  0  0  0  0  0  0  0  0
   -6.5119   -3.9513    3.4223 H   0  0  0  0  0  0  0  0  0  0  0  0
   -8.5416   -2.7441    3.8679 H   0  0  0  0  0  0  0  0  0  0  0  0
   -7.5201   -2.5743    5.3433 H   0  0  0  0  0  0  0  0  0  0  0  0
   -8.9100   -3.7335    5.3304 H   0  0  0  0  0  0  0  0  0  0  0  0
    1.7438   -2.1747   -8.3587 H   0  0  0  0  0  0  0  0  0  0  0  0
    2.5797   -2.8407   -9.7807 H   0  0  0  0  0  0  0  0  0  0  0  0
    0.1312   -3.0749  -10.0264 H   0  0  0  0  0  0  0  0  0  0  0  0
    0.8957   -4.7051   -9.9163 H   0  0  0  0  0  0  0  0  0  0  0  0
    0.0306   -4.0082   -8.4865 H   0  0  0  0  0  0  0  0  0  0  0  0
    3.9009   -4.8672   -9.6549 H   0  0  0  0  0  0  0  0  0  0  0  0
    5.1944   -6.4345   -8.2617 H   0  0  0  0  0  0  0  0  0  0  0  0
    4.7839   -6.5744   -5.8222 H   0  0  0  0  0  0  0  0  0  0  0  0
    3.0817   -5.1329   -4.7668 H   0  0  0  0  0  0  0  0  0  0  0  0
   -0.7943   -1.7159   -0.4012 H   0  0  0  0  0  0  0  0  0  0  0  0
   -1.5698   -1.1610    1.1160 H   0  0  0  0  0  0  0  0  0  0  0  0
    0.7517   -2.0636    1.3949 H   0  0  0  0  0  0  0  0  0  0  0  0
    0.2165   -3.6608    0.7438 H   0  0  0  0  0  0  0  0  0  0  0  0
   -0.4231   -3.0498    2.3220 H   0  0  0  0  0  0  0  0  0  0  0  0
   -2.6392   -1.0435   -1.5340 H   0  0  0  0  0  0  0  0  0  0  0  0
   -1.1231   -0.5491   -2.3827 H   0  0  0  0  0  0  0  0  0  0  0  0
   -3.2141    0.4925   -3.3179 H   0  0  0  0  0  0  0  0  0  0  0  0
   -2.3565   -0.5114   -4.5417 H   0  0  0  0  0  0  0  0  0  0  0  0
   -3.8397   -1.1518   -3.7220 H   0  0  0  0  0  0  0  0  0  0  0  0
    2.3471    1.5543   -5.2385 H   0  0  0  0  0  0  0  0  0  0  0  0
    0.3167    2.9161   -5.3925 H   0  0  0  0  0  0  0  0  0  0  0  0
   -1.2789    3.8926   -8.5723 H   0  0  0  0  0  0  0  0  0  0  0  0
   -2.1394    2.7100   -7.5080 H   0  0  0  0  0  0  0  0  0  0  0  0
   -1.2770    4.1287   -6.7917 H   0  0  0  0  0  0  0  0  0  0  0  0
   -0.0518    1.9119   -9.5677 H   0  0  0  0  0  0  0  0  0  0  0  0
    1.9569    0.5176   -9.4147 H   0  0  0  0  0  0  0  0  0  0  0  0
    4.7564   -2.0633   -8.1589 H   0  0  0  0  0  0  0  0  0  0  0  0
    6.3334   -2.2186  -10.0336 H   0  0  0  0  0  0  0  0  0  0  0  0
    7.1686    0.6614  -12.3049 H   0  0  0  0  0  0  0  0  0  0  0  0
    7.1172   -1.1321  -12.1909 H   0  0  0  0  0  0  0  0  0  0  0  0
    8.2890   -0.1989  -11.1782 H   0  0  0  0  0  0  0  0  0  0  0  0
    6.0047    2.0364  -10.6547 H   0  0  0  0  0  0  0  0  0  0  0  0
    4.4044    2.1841   -8.7942 H   0  0  0  0  0  0  0  0  0  0  0  0
    7.2961   -3.0469   -1.1023 H   0  0  0  0  0  0  0  0  0  0  0  0
    5.8597   -4.3311    0.4252 H   0  0  0  0  0  0  0  0  0  0  0  0
    2.9148   -2.9227    2.1723 H   0  0  0  0  0  0  0  0  0  0  0  0
    4.0455   -4.3130    2.0689 H   0  0  0  0  0  0  0  0  0  0  0  0
    2.7068   -4.1619    0.8665 H   0  0  0  0  0  0  0  0  0  0  0  0
    2.9787   -1.1191    0.4084 H   0  0  0  0  0  0  0  0  0  0  0  0
    4.4175    0.1591   -1.1247 H   0  0  0  0  0  0  0  0  0  0  0  0
    7.6838    0.2497    0.3190 H   0  0  0  0  0  0  0  0  0  0  0  0
    9.9987    0.7811    0.9543 H   0  0  0  0  0  0  0  0  0  0  0  0
   12.9826    0.0737   -1.1960 H   0  0  0  0  0  0  0  0  0  0  0  0
   12.4346    0.4374    0.4770 H   0  0  0  0  0  0  0  0  0  0  0  0
   12.3637    1.7248   -0.7928 H   0  0  0  0  0  0  0  0  0  0  0  0
   11.3433   -0.3573   -2.9812 H   0  0  0  0  0  0  0  0  0  0  0  0
    9.0342   -0.9154   -3.6079 H   0  0  0  0  0  0  0  0  0  0  0  0
    8.6107    2.2183   -3.4718 H   0  0  0  0  0  0  0  0  0  0  0  0
  1  2  2  3
  2  3  1  0
  3  4  2  0
  3  5  1  0
  5  6  2  0
  6  7  1  0
  7  8  2  0
  8  9  1  0
  9 10  2  0
 10 11  1  0
 11 12  2  3
 12 13  1  0
 13 14  3  0
 12 15  1  0
 15 16  3  0
  8 17  1  0
 17 18  1  0
 18 19  1  0
 19 20  2  0
 20 21  1  0
 21 22  1  0
 21 23  1  0
  1 24  1  0
 24 25  2  0
 25 26  1  0
 26 27  1  0
 27 28  2  0
 28 29  1  0
 29 30  2  0
 30 31  1  0
 30 32  1  0
 32 33  2  0
 26 34  1  0
 34 35  2  0
 35 36  1  0
 36 37  2  0
 37 38  1  0
 37 39  1  0
 39 40  2  0
 25 41  1  0
 41 42  1  0
 42 43  1  0
 43 44  2  0
 44 45  1  0
 45 46  1  0
 46 47  2  0
 47 48  1  0
 48 49  2  0
 49 50  1  0
 49 51  1  0
 51 52  2  0
 45 53  1  0
 53 54  2  0
 54 55  1  0
 55 56  2  0
 56 57  1  0
 56 58  1  0
 58 59  2  0
 44 60  1  0
 60 61  1  0
 43 62  1  0
 62 63  2  0
 63 64  1  0
 64 65  2  0
 65 66  1  0
 66 67  2  0
 67 68  1  0
 68 69  2  0
 69 70  1  0
 70 71  1  0
 63 72  1  0
 72 73  1  0
 73 74  1  0
 74 75  1  0
 75 76  1  0
 76 77  1  0
 77 78  2  0
 78 79  1  0
 79 80  1  0
 77 81  1  0
 81 82  1  0
 82 83  1  0
 83 84  1  0
 84 85  1  0
 85 86  1  0
 86 87  2  0
 87 88  1  0
 88 89  1  0
 87 90  1  0
 90 91  2  0
 91 92  1  0
 92 93  2  0
 85 94  2  0
 94 95  1  0
 95 96  1  0
 96 97  1  0
 97 98  1  0
 98 99  1  0
 99100  1  0
100101  1  0
101102  1  0
102103  1  0
103104  1  0
101105  1  0
105106  1  0
 98107  1  0
107108  1  0
 94109  1  0
109110  2  0
110111  1  0
111112  1  0
112113  2  0
113114  1  0
114115  2  0
115116  1  0
115117  1  0
117118  2  0
111119  1  0
119120  2  0
120121  1  0
121122  2  0
122123  1  0
122124  1  0
124125  2  0
110126  1  0
126127  1  0
127128  1  0
128129  2  0
129130  1  0
130131  1  0
131132  2  0
132133  1  0
133134  2  0
134135  1  0
134136  1  0
136137  2  0
130138  1  0
138139  2  0
139140  1  0
140141  2  0
141142  1  0
141143  1  0
143144  2  0
129145  1  0
145146  1  0
128147  1  0
147148  2  3
148149  1  0
149150  2  0
149151  1  0
151152  2  0
152153  1  0
152154  1  0
154155  1  0
154156  2  0
156157  1  0
156158  1  0
158159  1  0
158160  2  0
160161  1  0
161162  2  3
162163  1  0
163164  3  0
162165  1  0
165166  3  0
 11  2  1  0
 23 17  1  0
 61 24  1  0
104 62  1  0
146109  1  0
161148  1  0
 10  5  1  0
 22 18  1  0
 33 27  1  0
 40 34  1  0
 60 41  2  0
 69 64  1  0
103 72  2  0
118112  1  0
125119  1  0
145126  2  0
160151  1  0
 23  7  1  0
 52 46  1  0
 59 53  1  0
102 74  2  0
137131  1  0
144138  1  0
100 75  2  0
 80 76  2  0
 99 81  2  0
 97 82  2  0
 96 84  2  0
 93 86  1  0
  1167  1  0
  6168  1  0
  9169  1  0
 17170  1  0
 18171  1  0
 19172  1  0
 20173  1  0
 21174  1  0
 22175  1  0
 22176  1  0
 23177  1  0
 28178  1  0
 29179  1  0
 31180  1  0
 31181  1  0
 31182  1  0
 32183  1  0
 33184  1  0
 35185  1  0
 36186  1  0
 38187  1  0
 38188  1  0
 38189  1  0
 39190  1  0
 40191  1  0
 47192  1  0
 48193  1  0
 50194  1  0
 50195  1  0
 50196  1  0
 51197  1  0
 52198  1  0
 54199  1  0
 55200  1  0
 57201  1  0
 57202  1  0
 57203  1  0
 58204  1  0
 59205  1  0
 65206  1  0
 66207  1  0
 67208  1  0
 68209  1  0
 70210  1  0
 70211  1  0
 71212  1  0
 71213  1  0
 71214  1  0
 88215  1  0
 88216  1  0
 89217  1  0
 89218  1  0
 89219  1  0
 90220  1  0
 91221  1  0
 92222  1  0
 93223  1  0
105224  1  0
105225  1  0
106226  1  0
106227  1  0
106228  1  0
107229  1  0
107230  1  0
108231  1  0
108232  1  0
108233  1  0
113234  1  0
114235  1  0
116236  1  0
116237  1  0
116238  1  0
117239  1  0
118240  1  0
120241  1  0
121242  1  0
123243  1  0
123244  1  0
123245  1  0
124246  1  0
125247  1  0
132248  1  0
133249  1  0
135250  1  0
135251  1  0
135252  1  0
136253  1  0
137254  1  0
139255  1  0
140256  1  0
142257  1  0
142258  1  0
142259  1  0
143260  1  0
144261  1  0
147262  1  0
M  END

