
     RDKit          3D

256282  0  0  0  0  0  0  0  0999 V2000
    9.2743    6.3129   -1.1873 C   0  0  0  0  0  0  0  0  0  0  0  0
   10.2572    5.8228   -1.9634 C   0  0  0  0  0  0  0  0  0  0  0  0
    9.9867    5.3948   -3.3416 C   0  0  0  0  0  0  0  0  0  0  0  0
    9.4878    6.1208   -4.2381 O   0  0  0  0  0  0  0  0  0  0  0  0
   10.3741    4.0166   -3.5064 C   0  0  0  0  0  0  0  0  0  0  0  0
    9.8927    3.1244   -4.4892 C   0  0  0  0  0  0  0  0  0  0  0  0
   10.1711    1.8009   -4.2155 C   0  0  0  0  0  0  0  0  0  0  0  0
   10.8888    1.3641   -3.0519 C   0  0  0  0  0  0  0  0  0  0  0  0
   11.3517    2.2346   -2.0783 C   0  0  0  0  0  0  0  0  0  0  0  0
   11.0687    3.6056   -2.3433 C   0  0  0  0  0  0  0  0  0  0  0  0
   11.1714    4.7734   -1.4306 C   0  0  0  0  0  0  0  0  0  0  0  0
   12.0351    4.9279   -0.4020 C   0  0  0  0  0  0  0  0  0  0  0  0
   12.1587    6.1905    0.2819 C   0  0  0  0  0  0  0  0  0  0  0  0
   12.2795    7.2096    0.8231 N   0  0  0  0  0  0  0  0  0  0  0  0
   13.0097    3.9244   -0.0676 C   0  0  0  0  0  0  0  0  0  0  0  0
   13.8091    3.1326    0.2000 N   0  0  0  0  0  0  0  0  0  0  0  0
   10.7056   -0.0680   -3.4622 C   0  0  0  0  0  0  0  0  0  0  0  0
   11.9357   -0.7957   -4.0814 C   0  0  0  0  0  0  0  0  0  0  0  0
   11.3830   -2.0272   -4.7640 C   0  0  0  0  0  0  0  0  0  0  0  0
   10.7033   -1.6014   -5.8361 C   0  0  0  0  0  0  0  0  0  0  0  0
   10.8124   -0.0972   -5.8436 C   0  0  0  0  0  0  0  0  0  0  0  0
   12.2355    0.0357   -5.3181 C   0  0  0  0  0  0  0  0  0  0  0  0
    9.9547    0.3854   -4.6397 C   0  0  0  0  0  0  0  0  0  0  0  0
    7.8985    5.8112   -1.3979 C   0  0  0  0  0  0  0  0  0  0  0  0
    6.9724    6.2286   -2.3814 C   0  0  0  0  0  0  0  0  0  0  0  0
    6.9967    7.5244   -3.0273 N   0  0  0  0  0  0  0  0  0  0  0  0
    6.5364    7.6960   -4.3964 C   0  0  0  0  0  0  0  0  0  0  0  0
    6.6801    6.6649   -5.3457 C   0  0  0  0  0  0  0  0  0  0  0  0
    6.2365    6.8376   -6.6603 C   0  0  0  0  0  0  0  0  0  0  0  0
    5.6501    8.0448   -7.0590 C   0  0  0  0  0  0  0  0  0  0  0  0
    5.1504    8.2036   -8.4634 C   0  0  0  0  0  0  0  0  0  0  0  0
    5.4828    9.0733   -6.1206 C   0  0  0  0  0  0  0  0  0  0  0  0
    5.9207    8.8999   -4.8030 C   0  0  0  0  0  0  0  0  0  0  0  0
    7.3700    8.6691   -2.2298 C   0  0  0  0  0  0  0  0  0  0  0  0
    6.8489    8.8267   -0.9316 C   0  0  0  0  0  0  0  0  0  0  0  0
    7.2262    9.9177   -0.1442 C   0  0  0  0  0  0  0  0  0  0  0  0
    8.1299   10.8673   -0.6397 C   0  0  0  0  0  0  0  0  0  0  0  0
    8.4982   12.0627    0.1940 C   0  0  0  0  0  0  0  0  0  0  0  0
    8.6211   10.7376   -1.9504 C   0  0  0  0  0  0  0  0  0  0  0  0
    8.2538    9.6398   -2.7346 C   0  0  0  0  0  0  0  0  0  0  0  0
    5.9465    5.2895   -2.5169 C   0  0  0  0  0  0  0  0  0  0  0  0
    4.5309    5.1752   -3.4207 S   0  0  0  0  0  0  0  0  0  0  0  0
    4.0898    3.6647   -2.7673 C   0  0  0  0  0  0  0  0  0  0  0  0
    5.0411    3.2644   -1.8156 C   0  0  0  0  0  0  0  0  0  0  0  0
    4.8962    2.1617   -0.8996 N   0  0  0  0  0  0  0  0  0  0  0  0
    5.8922    1.1212   -0.8569 C   0  0  0  0  0  0  0  0  0  0  0  0
    6.3502    0.6166    0.3761 C   0  0  0  0  0  0  0  0  0  0  0  0
    7.2228   -0.4728    0.4171 C   0  0  0  0  0  0  0  0  0  0  0  0
    7.6534   -1.0796   -0.7703 C   0  0  0  0  0  0  0  0  0  0  0  0
    8.5531   -2.2769   -0.7059 C   0  0  0  0  0  0  0  0  0  0  0  0
    7.2202   -0.5647   -2.0046 C   0  0  0  0  0  0  0  0  0  0  0  0
    6.3622    0.5378   -2.0468 C   0  0  0  0  0  0  0  0  0  0  0  0
    3.8606    2.2143    0.1097 C   0  0  0  0  0  0  0  0  0  0  0  0
    3.4914    3.4360    0.7021 C   0  0  0  0  0  0  0  0  0  0  0  0
    2.4814    3.4805    1.6663 C   0  0  0  0  0  0  0  0  0  0  0  0
    1.8446    2.2991    2.0784 C   0  0  0  0  0  0  0  0  0  0  0  0
    0.7282    2.3477    3.0819 C   0  0  0  0  0  0  0  0  0  0  0  0
    2.2151    1.0801    1.4925 C   0  0  0  0  0  0  0  0  0  0  0  0
    3.2069    1.0378    0.5100 C   0  0  0  0  0  0  0  0  0  0  0  0
    6.0597    4.1983   -1.7139 C   0  0  0  0  0  0  0  0  0  0  0  0
    7.4140    4.3156   -0.7472 S   0  0  0  0  0  0  0  0  0  0  0  0
    2.9398    2.8635   -3.1965 C   0  0  0  0  0  0  0  0  0  0  0  0
    3.0205    1.8376   -4.1682 C   0  0  0  0  0  0  0  0  0  0  0  0
    4.0843    1.7434   -5.1962 C   0  0  0  0  0  0  0  0  0  0  0  0
    4.3591    2.8588   -6.0092 C   0  0  0  0  0  0  0  0  0  0  0  0
    5.3764    2.8032   -6.9652 C   0  0  0  0  0  0  0  0  0  0  0  0
    6.1413    1.6450   -7.1117 C   0  0  0  0  0  0  0  0  0  0  0  0
    5.8824    0.5229   -6.3061 C   0  0  0  0  0  0  0  0  0  0  0  0
    6.7104   -0.7222   -6.4738 C   0  0  0  0  0  0  0  0  0  0  0  0
    6.1955   -1.5679   -7.6314 C   0  0  0  0  0  0  0  0  0  0  0  0
    4.8325    0.5692   -5.3701 C   0  0  0  0  0  0  0  0  0  0  0  0
    2.0072    0.8903   -3.9689 C   0  0  0  0  0  0  0  0  0  0  0  0
    1.7853   -0.7223   -4.5064 S   0  0  0  0  0  0  0  0  0  0  0  0
    0.6097   -0.9896   -3.3087 C   0  0  0  0  0  0  0  0  0  0  0  0
   -0.0278   -2.0292   -2.6875 C   0  0  0  0  0  0  0  0  0  0  0  0
   -0.2399   -3.3624   -3.0625 C   0  0  0  0  0  0  0  0  0  0  0  0
   -1.0112   -4.2006   -2.1961 C   0  0  0  0  0  0  0  0  0  0  0  0
   -1.2421   -5.4691   -2.6133 N   0  0  0  0  0  0  0  0  0  0  0  0
   -0.4531   -5.4265   -4.0711 S   0  0  0  0  0  0  0  0  0  0  0  0
    0.1803   -3.9027   -4.2290 N   0  0  0  0  0  0  0  0  0  0  0  0
   -1.4444   -3.6814   -0.9698 C   0  0  0  0  0  0  0  0  0  0  0  0
   -2.1301   -4.2372    0.0764 C   0  0  0  0  0  0  0  0  0  0  0  0
   -3.0849   -5.5946    0.4303 S   0  0  0  0  0  0  0  0  0  0  0  0
   -3.5879   -4.8884    1.9126 C   0  0  0  0  0  0  0  0  0  0  0  0
   -4.6456   -5.1563    2.7858 C   0  0  0  0  0  0  0  0  0  0  0  0
   -5.5044   -6.3550    2.7244 C   0  0  0  0  0  0  0  0  0  0  0  0
   -5.7254   -7.1060    3.8880 C   0  0  0  0  0  0  0  0  0  0  0  0
   -6.5356   -8.2432    3.8521 C   0  0  0  0  0  0  0  0  0  0  0  0
   -7.1262   -8.6412    2.6530 C   0  0  0  0  0  0  0  0  0  0  0  0
   -6.8974   -7.9148    1.4745 C   0  0  0  0  0  0  0  0  0  0  0  0
   -7.5515   -8.3310    0.1837 C   0  0  0  0  0  0  0  0  0  0  0  0
   -8.9439   -7.7223    0.0647 C   0  0  0  0  0  0  0  0  0  0  0  0
   -6.1000   -6.7576    1.5194 C   0  0  0  0  0  0  0  0  0  0  0  0
   -4.8634   -4.0786    3.6708 C   0  0  0  0  0  0  0  0  0  0  0  0
   -3.7541   -2.8335    3.3332 S   0  0  0  0  0  0  0  0  0  0  0  0
   -2.9940   -3.6682    2.1057 C   0  0  0  0  0  0  0  0  0  0  0  0
   -2.1867   -3.2980    1.0506 C   0  0  0  0  0  0  0  0  0  0  0  0
   -1.5645   -2.1430    0.7231 N   0  0  0  0  0  0  0  0  0  0  0  0
   -1.1692   -2.3601   -0.5735 C   0  0  0  0  0  0  0  0  0  0  0  0
   -0.5578   -1.4884   -1.5017 C   0  0  0  0  0  0  0  0  0  0  0  0
   -0.3688   -0.1311   -1.4560 N   0  0  0  0  0  0  0  0  0  0  0  0
    0.3904    0.1085   -2.5466 C   0  0  0  0  0  0  0  0  0  0  0  0
    1.1619    1.1847   -2.9271 C   0  0  0  0  0  0  0  0  0  0  0  0
    1.6216    2.5887   -2.1594 S   0  0  0  0  0  0  0  0  0  0  0  0
   -1.2061    0.8802   -0.7871 C   0  0  0  0  0  0  0  0  0  0  0  0
   -2.0007    1.7150   -1.7907 C   0  0  0  0  0  0  0  0  0  0  0  0
   -1.0512   -1.1697    1.6944 C   0  0  0  0  0  0  0  0  0  0  0  0
   -0.1910   -1.8445    2.7651 C   0  0  0  0  0  0  0  0  0  0  0  0
   -6.1797   -3.7389    4.2133 C   0  0  0  0  0  0  0  0  0  0  0  0
   -6.4573   -3.3916    5.5453 C   0  0  0  0  0  0  0  0  0  0  0  0
   -5.6818   -3.8159    6.6791 N   0  0  0  0  0  0  0  0  0  0  0  0
   -5.7629   -5.2050    7.0686 C   0  0  0  0  0  0  0  0  0  0  0  0
   -4.6072   -5.9043    7.4550 C   0  0  0  0  0  0  0  0  0  0  0  0
   -4.6834   -7.2590    7.7988 C   0  0  0  0  0  0  0  0  0  0  0  0
   -5.9134   -7.9345    7.7510 C   0  0  0  0  0  0  0  0  0  0  0  0
   -6.0131   -9.3846    8.1246 C   0  0  0  0  0  0  0  0  0  0  0  0
   -7.0713   -7.2305    7.3911 C   0  0  0  0  0  0  0  0  0  0  0  0
   -6.9961   -5.8793    7.0466 C   0  0  0  0  0  0  0  0  0  0  0  0
   -5.0333   -2.8341    7.5154 C   0  0  0  0  0  0  0  0  0  0  0  0
   -4.9573   -3.0109    8.9103 C   0  0  0  0  0  0  0  0  0  0  0  0
   -4.3436   -2.0493    9.7161 C   0  0  0  0  0  0  0  0  0  0  0  0
   -3.7941   -0.8931    9.1449 C   0  0  0  0  0  0  0  0  0  0  0  0
   -3.1745    0.1660   10.0078 C   0  0  0  0  0  0  0  0  0  0  0  0
   -3.8853   -0.7005    7.7570 C   0  0  0  0  0  0  0  0  0  0  0  0
   -4.4944   -1.6633    6.9486 C   0  0  0  0  0  0  0  0  0  0  0  0
   -7.6643   -2.7051    5.6477 C   0  0  0  0  0  0  0  0  0  0  0  0
   -8.4843   -1.9347    6.8962 S   0  0  0  0  0  0  0  0  0  0  0  0
   -9.7087   -1.3244    5.8749 C   0  0  0  0  0  0  0  0  0  0  0  0
   -9.4464   -1.7056    4.5513 C   0  0  0  0  0  0  0  0  0  0  0  0
  -10.1410   -1.1998    3.4002 N   0  0  0  0  0  0  0  0  0  0  0  0
  -11.4059   -1.7772    3.0330 C   0  0  0  0  0  0  0  0  0  0  0  0
  -11.5809   -3.1737    3.0353 C   0  0  0  0  0  0  0  0  0  0  0  0
  -12.8081   -3.7310    2.6662 C   0  0  0  0  0  0  0  0  0  0  0  0
  -13.8798   -2.9041    2.3022 C   0  0  0  0  0  0  0  0  0  0  0  0
  -15.1853   -3.5145    1.8839 C   0  0  0  0  0  0  0  0  0  0  0  0
  -13.7040   -1.5122    2.2795 C   0  0  0  0  0  0  0  0  0  0  0  0
  -12.4758   -0.9537    2.6456 C   0  0  0  0  0  0  0  0  0  0  0  0
   -9.4955   -0.2127    2.5605 C   0  0  0  0  0  0  0  0  0  0  0  0
   -9.6484   -0.2516    1.1629 C   0  0  0  0  0  0  0  0  0  0  0  0
   -9.0074    0.6908    0.3546 C   0  0  0  0  0  0  0  0  0  0  0  0
   -8.1873    1.6725    0.9259 C   0  0  0  0  0  0  0  0  0  0  0  0
   -7.5325    2.7087    0.0589 C   0  0  0  0  0  0  0  0  0  0  0  0
   -8.0371    1.7205    2.3189 C   0  0  0  0  0  0  0  0  0  0  0  0
   -8.6787    0.7815    3.1299 C   0  0  0  0  0  0  0  0  0  0  0  0
   -8.3006   -2.4885    4.4716 C   0  0  0  0  0  0  0  0  0  0  0  0
   -7.4127   -3.1267    3.2100 S   0  0  0  0  0  0  0  0  0  0  0  0
  -10.6919   -0.3101    6.2798 C   0  0  0  0  0  0  0  0  0  0  0  0
  -12.0048   -0.5707    6.3927 C   0  0  0  0  0  0  0  0  0  0  0  0
  -12.5177   -1.9134    6.2220 C   0  0  0  0  0  0  0  0  0  0  0  0
  -12.9214   -2.9913    6.0921 N   0  0  0  0  0  0  0  0  0  0  0  0
  -12.9514    0.5086    6.7375 C   0  0  0  0  0  0  0  0  0  0  0  0
  -14.1715    0.2386    6.9216 O   0  0  0  0  0  0  0  0  0  0  0  0
  -12.4995    1.8287    6.8417 O   0  0  0  0  0  0  0  0  0  0  0  0
  -13.3603    2.9187    7.1508 C   0  0  0  0  0  0  0  0  0  0  0  0
  -12.5613    4.2122    7.1569 C   0  0  0  0  0  0  0  0  0  0  0  0
    9.5088    6.4566   -0.1430 H   0  0  0  0  0  0  0  0  0  0  0  0
    9.2647    3.4304   -5.3163 H   0  0  0  0  0  0  0  0  0  0  0  0
   11.7871    1.8743   -1.1580 H   0  0  0  0  0  0  0  0  0  0  0  0
   10.1097   -0.6658   -2.7383 H   0  0  0  0  0  0  0  0  0  0  0  0
   12.7892   -0.9754   -3.3939 H   0  0  0  0  0  0  0  0  0  0  0  0
   11.5712   -3.0647   -4.5121 H   0  0  0  0  0  0  0  0  0  0  0  0
   10.2395   -2.2312   -6.5855 H   0  0  0  0  0  0  0  0  0  0  0  0
   10.6008    0.3898   -6.8203 H   0  0  0  0  0  0  0  0  0  0  0  0
   12.5538    1.0798   -5.1008 H   0  0  0  0  0  0  0  0  0  0  0  0
   12.9952   -0.4309   -5.9868 H   0  0  0  0  0  0  0  0  0  0  0  0
    8.8856    0.0897   -4.6445 H   0  0  0  0  0  0  0  0  0  0  0  0
    7.1154    5.7151   -5.0712 H   0  0  0  0  0  0  0  0  0  0  0  0
    6.3491    6.0256   -7.3702 H   0  0  0  0  0  0  0  0  0  0  0  0
    4.9720    9.2753   -8.7056 H   0  0  0  0  0  0  0  0  0  0  0  0
    4.1977    7.6433   -8.5825 H   0  0  0  0  0  0  0  0  0  0  0  0
    5.9006    7.8079   -9.1819 H   0  0  0  0  0  0  0  0  0  0  0  0
    5.0176   10.0080   -6.4083 H   0  0  0  0  0  0  0  0  0  0  0  0
    5.7613    9.7067   -4.0986 H   0  0  0  0  0  0  0  0  0  0  0  0
    6.1503    8.1022   -0.5275 H   0  0  0  0  0  0  0  0  0  0  0  0
    6.8162   10.0155    0.8554 H   0  0  0  0  0  0  0  0  0  0  0  0
    9.4912   12.4537   -0.1094 H   0  0  0  0  0  0  0  0  0  0  0  0
    8.5547   11.7718    1.2654 H   0  0  0  0  0  0  0  0  0  0  0  0
    7.7304   12.8584    0.0714 H   0  0  0  0  0  0  0  0  0  0  0  0
    9.2956   11.4808   -2.3575 H   0  0  0  0  0  0  0  0  0  0  0  0
    8.6625    9.5403   -3.7338 H   0  0  0  0  0  0  0  0  0  0  0  0
    6.0171    1.0572    1.3077 H   0  0  0  0  0  0  0  0  0  0  0  0
    7.5547   -0.8532    1.3778 H   0  0  0  0  0  0  0  0  0  0  0  0
    9.4991   -2.0041   -0.1941 H   0  0  0  0  0  0  0  0  0  0  0  0
    8.0550   -3.0895   -0.1357 H   0  0  0  0  0  0  0  0  0  0  0  0
    8.7972   -2.6620   -1.7184 H   0  0  0  0  0  0  0  0  0  0  0  0
    7.5397   -1.0234   -2.9328 H   0  0  0  0  0  0  0  0  0  0  0  0
    6.0344    0.9203   -3.0022 H   0  0  0  0  0  0  0  0  0  0  0  0
    3.9857    4.3580    0.4167 H   0  0  0  0  0  0  0  0  0  0  0  0
    2.2065    4.4329    2.0992 H   0  0  0  0  0  0  0  0  0  0  0  0
   -0.2436    2.4166    2.5466 H   0  0  0  0  0  0  0  0  0  0  0  0
    0.7311    1.4313    3.7126 H   0  0  0  0  0  0  0  0  0  0  0  0
    0.8364    3.2289    3.7518 H   0  0  0  0  0  0  0  0  0  0  0  0
    1.7469    0.1575    1.8012 H   0  0  0  0  0  0  0  0  0  0  0  0
    3.4599    0.0883    0.0561 H   0  0  0  0  0  0  0  0  0  0  0  0
    3.7736    3.7646   -5.9151 H   0  0  0  0  0  0  0  0  0  0  0  0
    5.5740    3.6616   -7.5956 H   0  0  0  0  0  0  0  0  0  0  0  0
    6.9335    1.6241   -7.8482 H   0  0  0  0  0  0  0  0  0  0  0  0
    7.7694   -0.4491   -6.6779 H   0  0  0  0  0  0  0  0  0  0  0  0
    6.6936   -1.3266   -5.5393 H   0  0  0  0  0  0  0  0  0  0  0  0
    5.1337   -1.8490   -7.4650 H   0  0  0  0  0  0  0  0  0  0  0  0
    6.8007   -2.4944   -7.7114 H   0  0  0  0  0  0  0  0  0  0  0  0
    6.2817   -1.0061   -8.5870 H   0  0  0  0  0  0  0  0  0  0  0  0
    4.6373   -0.2939   -4.7487 H   0  0  0  0  0  0  0  0  0  0  0  0
   -5.2489   -6.8237    4.8140 H   0  0  0  0  0  0  0  0  0  0  0  0
   -6.6980   -8.8172    4.7560 H   0  0  0  0  0  0  0  0  0  0  0  0
   -7.7564   -9.5225    2.6397 H   0  0  0  0  0  0  0  0  0  0  0  0
   -6.9299   -8.0051   -0.6794 H   0  0  0  0  0  0  0  0  0  0  0  0
   -7.6254   -9.4396    0.1384 H   0  0  0  0  0  0  0  0  0  0  0  0
   -9.3892   -8.0076   -0.9126 H   0  0  0  0  0  0  0  0  0  0  0  0
   -9.5969   -8.0994    0.8798 H   0  0  0  0  0  0  0  0  0  0  0  0
   -8.8874   -6.6138    0.1195 H   0  0  0  0  0  0  0  0  0  0  0  0
   -5.9505   -6.1715    0.6204 H   0  0  0  0  0  0  0  0  0  0  0  0
   -1.9598    0.3943   -0.1403 H   0  0  0  0  0  0  0  0  0  0  0  0
   -0.5661    1.5477   -0.1718 H   0  0  0  0  0  0  0  0  0  0  0  0
   -2.5756    1.0516   -2.4725 H   0  0  0  0  0  0  0  0  0  0  0  0
   -2.7121    2.3757   -1.2498 H   0  0  0  0  0  0  0  0  0  0  0  0
   -1.3272    2.3624   -2.3895 H   0  0  0  0  0  0  0  0  0  0  0  0
   -0.3881   -0.4385    1.2033 H   0  0  0  0  0  0  0  0  0  0  0  0
   -1.8972   -0.6313    2.1727 H   0  0  0  0  0  0  0  0  0  0  0  0
    0.2943   -1.0711    3.3945 H   0  0  0  0  0  0  0  0  0  0  0  0
    0.5955   -2.4645    2.2903 H   0  0  0  0  0  0  0  0  0  0  0  0
   -0.8095   -2.4790    3.4299 H   0  0  0  0  0  0  0  0  0  0  0  0
   -3.6472   -5.4027    7.4750 H   0  0  0  0  0  0  0  0  0  0  0  0
   -3.7801   -7.7840    8.0916 H   0  0  0  0  0  0  0  0  0  0  0  0
   -5.0134   -9.8698    8.1200 H   0  0  0  0  0  0  0  0  0  0  0  0
   -6.6588   -9.9200    7.3947 H   0  0  0  0  0  0  0  0  0  0  0  0
   -6.4567   -9.4783    9.1389 H   0  0  0  0  0  0  0  0  0  0  0  0
   -8.0335   -7.7301    7.3678 H   0  0  0  0  0  0  0  0  0  0  0  0
   -7.9031   -5.3600    6.7666 H   0  0  0  0  0  0  0  0  0  0  0  0
   -5.3937   -3.8852    9.3793 H   0  0  0  0  0  0  0  0  0  0  0  0
   -4.3033   -2.2045   10.7888 H   0  0  0  0  0  0  0  0  0  0  0  0
   -2.9166   -0.2337   11.0101 H   0  0  0  0  0  0  0  0  0  0  0  0
   -3.8856    1.0088   10.1328 H   0  0  0  0  0  0  0  0  0  0  0  0
   -2.2411    0.5464    9.5415 H   0  0  0  0  0  0  0  0  0  0  0  0
   -3.4777    0.1955    7.3027 H   0  0  0  0  0  0  0  0  0  0  0  0
   -4.5475   -1.4926    5.8824 H   0  0  0  0  0  0  0  0  0  0  0  0
  -10.7658   -3.8301    3.3101 H   0  0  0  0  0  0  0  0  0  0  0  0
  -12.9233   -4.8088    2.6610 H   0  0  0  0  0  0  0  0  0  0  0  0
  -15.4515   -4.3502    2.5639 H   0  0  0  0  0  0  0  0  0  0  0  0
  -15.0971   -3.9044    0.8483 H   0  0  0  0  0  0  0  0  0  0  0  0
  -16.0072   -2.7678    1.9181 H   0  0  0  0  0  0  0  0  0  0  0  0
  -14.5149   -0.8586    1.9791 H   0  0  0  0  0  0  0  0  0  0  0  0
  -12.3575    0.1216    2.6375 H   0  0  0  0  0  0  0  0  0  0  0  0
  -10.2573   -1.0151    0.6940 H   0  0  0  0  0  0  0  0  0  0  0  0
   -9.1470    0.6540   -0.7177 H   0  0  0  0  0  0  0  0  0  0  0  0
   -7.2351    2.2660   -0.9169 H   0  0  0  0  0  0  0  0  0  0  0  0
   -8.2481    3.5381   -0.1207 H   0  0  0  0  0  0  0  0  0  0  0  0
   -6.6193    3.1138    0.5444 H   0  0  0  0  0  0  0  0  0  0  0  0
   -7.4259    2.4886    2.7807 H   0  0  0  0  0  0  0  0  0  0  0  0
   -8.5499    0.8376    4.2039 H   0  0  0  0  0  0  0  0  0  0  0  0
  -10.3047    0.6824    6.4780 H   0  0  0  0  0  0  0  0  0  0  0  0
  -14.1650    2.9885    6.3901 H   0  0  0  0  0  0  0  0  0  0  0  0
  -13.8183    2.7629    8.1507 H   0  0  0  0  0  0  0  0  0  0  0  0
  -12.0954    4.3761    6.1616 H   0  0  0  0  0  0  0  0  0  0  0  0
  -11.7630    4.1586    7.9281 H   0  0  0  0  0  0  0  0  0  0  0  0
  -13.2309    5.0710    7.3904 H   0  0  0  0  0  0  0  0  0  0  0  0
  1  2  2  3
  2  3  1  0
  3  4  2  0
  3  5  1  0
  5  6  2  0
  6  7  1  0
  7  8  2  0
  8  9  1  0
  9 10  2  0
 10 11  1  0
 11 12  2  3
 12 13  1  0
 13 14  3  0
 12 15  1  0
 15 16  3  0
  8 17  1  0
 17 18  1  0
 18 19  1  0
 19 20  2  0
 20 21  1  0
 21 22  1  0
 21 23  1  0
  1 24  1  0
 24 25  2  0
 25 26  1  0
 26 27  1  0
 27 28  2  0
 28 29  1  0
 29 30  2  0
 30 31  1  0
 30 32  1  0
 32 33  2  0
 26 34  1  0
 34 35  2  0
 35 36  1  0
 36 37  2  0
 37 38  1  0
 37 39  1  0
 39 40  2  0
 25 41  1  0
 41 42  1  0
 42 43  1  0
 43 44  2  0
 44 45  1  0
 45 46  1  0
 46 47  2  0
 47 48  1  0
 48 49  2  0
 49 50  1  0
 49 51  1  0
 51 52  2  0
 45 53  1  0
 53 54  2  0
 54 55  1  0
 55 56  2  0
 56 57  1  0
 56 58  1  0
 58 59  2  0
 44 60  1  0
 60 61  1  0
 43 62  1  0
 62 63  2  0
 63 64  1  0
 64 65  2  0
 65 66  1  0
 66 67  2  0
 67 68  1  0
 68 69  1  0
 69 70  1  0
 68 71  2  0
 63 72  1  0
 72 73  1  0
 73 74  1  0
 74 75  1  0
 75 76  1  0
 76 77  1  0
 77 78  2  0
 78 79  1  0
 79 80  1  0
 77 81  1  0
 81 82  1  0
 82 83  1  0
 83 84  1  0
 84 85  1  0
 85 86  1  0
 86 87  2  0
 87 88  1  0
 88 89  2  0
 89 90  1  0
 90 91  1  0
 91 92  1  0
 90 93  2  0
 85 94  2  0
 94 95  1  0
 95 96  1  0
 96 97  1  0
 97 98  1  0
 98 99  1  0
 99100  1  0
100101  1  0
101102  1  0
102103  1  0
103104  1  0
101105  1  0
105106  1  0
 98107  1  0
107108  1  0
 94109  1  0
109110  2  0
110111  1  0
111112  1  0
112113  2  0
113114  1  0
114115  2  0
115116  1  0
115117  1  0
117118  2  0
111119  1  0
119120  2  0
120121  1  0
121122  2  0
122123  1  0
122124  1  0
124125  2  0
110126  1  0
126127  1  0
127128  1  0
128129  2  0
129130  1  0
130131  1  0
131132  2  0
132133  1  0
133134  2  0
134135  1  0
134136  1  0
136137  2  0
130138  1  0
138139  2  0
139140  1  0
140141  2  0
141142  1  0
141143  1  0
143144  2  0
129145  1  0
145146  1  0
128147  1  0
147148  2  3
148149  1  0
149150  3  0
148151  1  0
151152  2  0
151153  1  0
153154  1  0
154155  1  0
 11  2  1  0
 23 17  1  0
 61 24  1  0
104 62  1  0
146109  1  0
 10  5  1  0
 22 18  1  0
 33 27  1  0
 40 34  1  0
 60 41  2  0
 71 64  1  0
103 72  2  0
118112  1  0
125119  1  0
145126  2  0
 23  7  1  0
 52 46  1  0
 59 53  1  0
102 74  2  0
137131  1  0
144138  1  0
100 75  2  0
 80 76  2  0
 99 81  2  0
 97 82  2  0
 96 84  2  0
 93 86  1  0
  1156  1  0
  6157  1  0
  9158  1  0
 17159  1  0
 18160  1  0
 19161  1  0
 20162  1  0
 21163  1  0
 22164  1  0
 22165  1  0
 23166  1  0
 28167  1  0
 29168  1  0
 31169  1  0
 31170  1  0
 31171  1  0
 32172  1  0
 33173  1  0
 35174  1  0
 36175  1  0
 38176  1  0
 38177  1  0
 38178  1  0
 39179  1  0
 40180  1  0
 47181  1  0
 48182  1  0
 50183  1  0
 50184  1  0
 50185  1  0
 51186  1  0
 52187  1  0
 54188  1  0
 55189  1  0
 57190  1  0
 57191  1  0
 57192  1  0
 58193  1  0
 59194  1  0
 65195  1  0
 66196  1  0
 67197  1  0
 69198  1  0
 69199  1  0
 70200  1  0
 70201  1  0
 70202  1  0
 71203  1  0
 87204  1  0
 88205  1  0
 89206  1  0
 91207  1  0
 91208  1  0
 92209  1  0
 92210  1  0
 92211  1  0
 93212  1  0
105213  1  0
105214  1  0
106215  1  0
106216  1  0
106217  1  0
107218  1  0
107219  1  0
108220  1  0
108221  1  0
108222  1  0
113223  1  0
114224  1  0
116225  1  0
116226  1  0
116227  1  0
117228  1  0
118229  1  0
120230  1  0
121231  1  0
123232  1  0
123233  1  0
123234  1  0
124235  1  0
125236  1  0
132237  1  0
133238  1  0
135239  1  0
135240  1  0
135241  1  0
136242  1  0
137243  1  0
139244  1  0
140245  1  0
142246  1  0
142247  1  0
142248  1  0
143249  1  0
144250  1  0
147251  1  0
154252  1  0
154253  1  0
155254  1  0
155255  1  0
155256  1  0
M  END

