
     RDKit          3D

233259  0  0  0  0  0  0  0  0999 V2000
   -4.3961   -1.9237   -5.9954 C   0  0  0  0  0  0  0  0  0  0  0  0
   -4.2206   -0.5815   -6.0492 C   0  0  0  0  0  0  0  0  0  0  0  0
   -2.9280    0.1214   -6.1145 C   0  0  0  0  0  0  0  0  0  0  0  0
   -1.8092   -0.3565   -6.4389 O   0  0  0  0  0  0  0  0  0  0  0  0
   -3.1123    1.4950   -5.7172 C   0  0  0  0  0  0  0  0  0  0  0  0
   -2.1135    2.4909   -5.6497 C   0  0  0  0  0  0  0  0  0  0  0  0
   -2.5719    3.7158   -5.2245 C   0  0  0  0  0  0  0  0  0  0  0  0
   -3.9310    3.9641   -4.8551 C   0  0  0  0  0  0  0  0  0  0  0  0
   -4.9238    2.9934   -4.9355 C   0  0  0  0  0  0  0  0  0  0  0  0
   -4.4802    1.7139   -5.4008 C   0  0  0  0  0  0  0  0  0  0  0  0
   -5.2500    0.4660   -5.6980 C   0  0  0  0  0  0  0  0  0  0  0  0
   -6.6019    0.3340   -5.7981 C   0  0  0  0  0  0  0  0  0  0  0  0
   -7.2001   -0.8176   -6.4309 C   0  0  0  0  0  0  0  0  0  0  0  0
   -7.6406   -1.7581   -6.9318 N   0  0  0  0  0  0  0  0  0  0  0  0
   -7.5167    1.3209   -5.2937 C   0  0  0  0  0  0  0  0  0  0  0  0
   -8.2629    2.0982   -4.8557 N   0  0  0  0  0  0  0  0  0  0  0  0
   -3.5963    5.3916   -4.5249 C   0  0  0  0  0  0  0  0  0  0  0  0
   -3.4524    5.8004   -3.0254 C   0  0  0  0  0  0  0  0  0  0  0  0
   -2.9566    4.6270   -2.2068 C   0  0  0  0  0  0  0  0  0  0  0  0
   -1.6997    4.4024   -2.5850 C   0  0  0  0  0  0  0  0  0  0  0  0
   -1.3781    5.4278   -3.6449 C   0  0  0  0  0  0  0  0  0  0  0  0
   -2.1618    6.6028   -3.0977 C   0  0  0  0  0  0  0  0  0  0  0  0
   -2.2092    5.1418   -4.9318 C   0  0  0  0  0  0  0  0  0  0  0  0
   -3.2848   -2.8913   -5.9846 C   0  0  0  0  0  0  0  0  0  0  0  0
   -2.2340   -2.9874   -6.9207 C   0  0  0  0  0  0  0  0  0  0  0  0
   -2.2971   -2.5082   -8.2849 N   0  0  0  0  0  0  0  0  0  0  0  0
   -3.5788   -2.3709   -8.9207 C   0  0  0  0  0  0  0  0  0  0  0  0
   -4.4152   -3.4938   -9.0605 C   0  0  0  0  0  0  0  0  0  0  0  0
   -5.6563   -3.3780   -9.6963 C   0  0  0  0  0  0  0  0  0  0  0  0
   -6.0839   -2.1347  -10.1871 C   0  0  0  0  0  0  0  0  0  0  0  0
   -7.3878   -2.0303  -10.9081 C   0  0  0  0  0  0  0  0  0  0  0  0
   -5.2449   -1.0141  -10.0582 C   0  0  0  0  0  0  0  0  0  0  0  0
   -4.0001   -1.1340   -9.4266 C   0  0  0  0  0  0  0  0  0  0  0  0
   -1.1718   -2.6619   -9.1548 C   0  0  0  0  0  0  0  0  0  0  0  0
   -0.4980   -1.5365   -9.6500 C   0  0  0  0  0  0  0  0  0  0  0  0
    0.6057   -1.6959  -10.4965 C   0  0  0  0  0  0  0  0  0  0  0  0
    1.0369   -2.9819  -10.8627 C   0  0  0  0  0  0  0  0  0  0  0  0
    2.2298   -3.1402  -11.7645 C   0  0  0  0  0  0  0  0  0  0  0  0
    0.3650   -4.1075  -10.3664 C   0  0  0  0  0  0  0  0  0  0  0  0
   -0.7423   -3.9482   -9.5230 C   0  0  0  0  0  0  0  0  0  0  0  0
   -1.0930   -3.5339   -6.3064 C   0  0  0  0  0  0  0  0  0  0  0  0
    0.5251   -3.0809   -6.4476 S   0  0  0  0  0  0  0  0  0  0  0  0
    0.9862   -3.6129   -4.9024 C   0  0  0  0  0  0  0  0  0  0  0  0
   -0.1431   -4.1322   -4.2666 C   0  0  0  0  0  0  0  0  0  0  0  0
   -0.0380   -5.0500   -3.1710 N   0  0  0  0  0  0  0  0  0  0  0  0
   -0.5881   -4.7403   -1.8855 C   0  0  0  0  0  0  0  0  0  0  0  0
   -1.9023   -5.1276   -1.5761 C   0  0  0  0  0  0  0  0  0  0  0  0
   -2.4358   -4.8435   -0.3129 C   0  0  0  0  0  0  0  0  0  0  0  0
   -1.6582   -4.1741    0.6472 C   0  0  0  0  0  0  0  0  0  0  0  0
   -2.2340   -3.8740    1.9981 C   0  0  0  0  0  0  0  0  0  0  0  0
   -0.3264   -3.8501    0.3538 C   0  0  0  0  0  0  0  0  0  0  0  0
    0.2030   -4.1266   -0.9122 C   0  0  0  0  0  0  0  0  0  0  0  0
    0.3841   -6.3905   -3.4557 C   0  0  0  0  0  0  0  0  0  0  0  0
    1.5392   -6.9132   -2.8600 C   0  0  0  0  0  0  0  0  0  0  0  0
    1.9820   -8.1971   -3.1961 C   0  0  0  0  0  0  0  0  0  0  0  0
    1.2707   -8.9708   -4.1288 C   0  0  0  0  0  0  0  0  0  0  0  0
    1.7277  -10.3598   -4.4632 C   0  0  0  0  0  0  0  0  0  0  0  0
    0.0949   -8.4581   -4.6972 C   0  0  0  0  0  0  0  0  0  0  0  0
   -0.3415   -7.1715   -4.3716 C   0  0  0  0  0  0  0  0  0  0  0  0
   -1.2830   -4.0319   -5.0540 C   0  0  0  0  0  0  0  0  0  0  0  0
   -2.8373   -3.6623   -4.5516 S   0  0  0  0  0  0  0  0  0  0  0  0
    1.9998   -2.8853   -4.1212 C   0  0  0  0  0  0  0  0  0  0  0  0
    3.3889   -2.7859   -4.3706 C   0  0  0  0  0  0  0  0  0  0  0  0
    4.1021   -3.5845   -5.3943 C   0  0  0  0  0  0  0  0  0  0  0  0
    5.0794   -2.9913   -6.2128 C   0  0  0  0  0  0  0  0  0  0  0  0
    5.6671   -3.7267   -7.2465 C   0  0  0  0  0  0  0  0  0  0  0  0
    5.2780   -5.0463   -7.4800 C   0  0  0  0  0  0  0  0  0  0  0  0
    4.3278   -5.6619   -6.6548 C   0  0  0  0  0  0  0  0  0  0  0  0
    3.8749   -7.0699   -6.9259 C   0  0  0  0  0  0  0  0  0  0  0  0
    2.5336   -7.0861   -7.6494 C   0  0  0  0  0  0  0  0  0  0  0  0
    3.7505   -4.9307   -5.6095 C   0  0  0  0  0  0  0  0  0  0  0  0
    3.9633   -1.7878   -3.5617 C   0  0  0  0  0  0  0  0  0  0  0  0
    5.5399   -1.1507   -3.3130 S   0  0  0  0  0  0  0  0  0  0  0  0
    4.9562   -0.0024   -2.1924 C   0  0  0  0  0  0  0  0  0  0  0  0
    5.3918    0.9443   -1.2984 C   0  0  0  0  0  0  0  0  0  0  0  0
    6.6662    1.3067   -0.8441 C   0  0  0  0  0  0  0  0  0  0  0  0
    6.7724    2.2259    0.2529 C   0  0  0  0  0  0  0  0  0  0  0  0
    8.0180    2.5205    0.6920 N   0  0  0  0  0  0  0  0  0  0  0  0
    8.9048    1.5745   -0.3463 S   0  0  0  0  0  0  0  0  0  0  0  0
    7.8247    0.8036   -1.3426 N   0  0  0  0  0  0  0  0  0  0  0  0
    5.5994    2.7845    0.7731 C   0  0  0  0  0  0  0  0  0  0  0  0
    5.3651    3.6786    1.7842 C   0  0  0  0  0  0  0  0  0  0  0  0
    6.1317    4.1547    3.2183 S   0  0  0  0  0  0  0  0  0  0  0  0
    4.6401    4.6093    3.9338 C   0  0  0  0  0  0  0  0  0  0  0  0
    4.2467    4.7976    5.2706 C   0  0  0  0  0  0  0  0  0  0  0  0
    5.1935    5.1657    6.3537 C   0  0  0  0  0  0  0  0  0  0  0  0
    6.4021    4.4720    6.5212 C   0  0  0  0  0  0  0  0  0  0  0  0
    7.3148    4.8755    7.5024 C   0  0  0  0  0  0  0  0  0  0  0  0
    7.0258    5.9616    8.3279 C   0  0  0  0  0  0  0  0  0  0  0  0
    5.8152    6.6596    8.1842 C   0  0  0  0  0  0  0  0  0  0  0  0
    5.5335    7.8699    9.0367 C   0  0  0  0  0  0  0  0  0  0  0  0
    5.8519    9.1525    8.2796 C   0  0  0  0  0  0  0  0  0  0  0  0
    4.8969    6.2497    7.2028 C   0  0  0  0  0  0  0  0  0  0  0  0
    2.8369    4.6745    5.4091 C   0  0  0  0  0  0  0  0  0  0  0  0
    2.1639    4.3750    3.8681 S   0  0  0  0  0  0  0  0  0  0  0  0
    3.6107    4.3959    3.0534 C   0  0  0  0  0  0  0  0  0  0  0  0
    4.0192    3.8644    1.8464 C   0  0  0  0  0  0  0  0  0  0  0  0
    3.3479    3.1479    0.9172 N   0  0  0  0  0  0  0  0  0  0  0  0
    4.3336    2.4265    0.2997 C   0  0  0  0  0  0  0  0  0  0  0  0
    4.2254    1.4058   -0.6644 C   0  0  0  0  0  0  0  0  0  0  0  0
    3.1356    0.6576   -1.0141 N   0  0  0  0  0  0  0  0  0  0  0  0
    3.6210   -0.1233   -2.0075 C   0  0  0  0  0  0  0  0  0  0  0  0
    3.0652   -1.1446   -2.7443 C   0  0  0  0  0  0  0  0  0  0  0  0
    1.5276   -1.7251   -2.9644 S   0  0  0  0  0  0  0  0  0  0  0  0
    2.0347    0.2433   -0.1254 C   0  0  0  0  0  0  0  0  0  0  0  0
    2.4029   -1.0231    0.6565 C   0  0  0  0  0  0  0  0  0  0  0  0
    2.0034    3.4793    0.4054 C   0  0  0  0  0  0  0  0  0  0  0  0
    1.9144    4.9394   -0.0096 C   0  0  0  0  0  0  0  0  0  0  0  0
    2.0549    4.2620    6.6045 C   0  0  0  0  0  0  0  0  0  0  0  0
    0.6691    4.5209    6.5790 C   0  0  0  0  0  0  0  0  0  0  0  0
   -0.2421    3.6099    7.1325 C   0  0  0  0  0  0  0  0  0  0  0  0
   -1.6334    3.7089    6.9206 O   0  0  0  0  0  0  0  0  0  0  0  0
   -2.2920    4.6811    6.1058 C   0  0  0  0  0  0  0  0  0  0  0  0
   -2.4735    5.9957    6.8613 C   0  0  0  0  0  0  0  0  0  0  0  0
    0.2478    2.4869    7.8301 C   0  0  0  0  0  0  0  0  0  0  0  0
    1.6233    2.3664    8.0575 C   0  0  0  0  0  0  0  0  0  0  0  0
    2.5406    3.2662    7.4864 C   0  0  0  0  0  0  0  0  0  0  0  0
    3.9112    3.1089    7.6976 O   0  0  0  0  0  0  0  0  0  0  0  0
    4.4779    2.7457    8.9700 C   0  0  0  0  0  0  0  0  0  0  0  0
    5.0450    1.3322    8.9186 C   0  0  0  0  0  0  0  0  0  0  0  0
   -0.5766    1.2702    7.8907 C   0  0  0  0  0  0  0  0  0  0  0  0
   -1.7675    1.1762    8.5033 C   0  0  0  0  0  0  0  0  0  0  0  0
   -2.8838    0.4461    7.9083 C   0  0  0  0  0  0  0  0  0  0  0  0
   -2.8215   -0.3052    6.8966 O   0  0  0  0  0  0  0  0  0  0  0  0
   -4.0961    0.7912    8.6200 C   0  0  0  0  0  0  0  0  0  0  0  0
   -5.4186    0.4004    8.2863 C   0  0  0  0  0  0  0  0  0  0  0  0
   -6.3685    0.8459    9.1855 C   0  0  0  0  0  0  0  0  0  0  0  0
   -6.0428    1.6337   10.3397 C   0  0  0  0  0  0  0  0  0  0  0  0
   -4.7645    2.0697   10.6321 C   0  0  0  0  0  0  0  0  0  0  0  0
   -3.7618    1.6342    9.7152 C   0  0  0  0  0  0  0  0  0  0  0  0
   -2.2860    1.8668    9.7271 C   0  0  0  0  0  0  0  0  0  0  0  0
   -1.5495    2.2869   10.7835 C   0  0  0  0  0  0  0  0  0  0  0  0
   -0.1370    2.0173   10.8879 C   0  0  0  0  0  0  0  0  0  0  0  0
    0.9896    1.7931   11.0048 N   0  0  0  0  0  0  0  0  0  0  0  0
   -2.1408    2.7893   12.0049 C   0  0  0  0  0  0  0  0  0  0  0  0
   -2.5978    3.1797   12.9964 N   0  0  0  0  0  0  0  0  0  0  0  0
   -7.4829    1.6368   10.7596 C   0  0  0  0  0  0  0  0  0  0  0  0
   -8.2966    2.9598   10.5855 C   0  0  0  0  0  0  0  0  0  0  0  0
   -7.7459    3.7479    9.4143 C   0  0  0  0  0  0  0  0  0  0  0  0
   -8.0415    3.0471    8.3201 C   0  0  0  0  0  0  0  0  0  0  0  0
   -8.7800    1.8074    8.7749 C   0  0  0  0  0  0  0  0  0  0  0  0
   -9.5579    2.4090    9.9382 C   0  0  0  0  0  0  0  0  0  0  0  0
   -7.8209    0.8591    9.5628 C   0  0  0  0  0  0  0  0  0  0  0  0
   -5.3439   -2.3234   -5.6783 H   0  0  0  0  0  0  0  0  0  0  0  0
   -1.0753    2.3093   -5.9085 H   0  0  0  0  0  0  0  0  0  0  0  0
   -5.9381    3.2247   -4.6671 H   0  0  0  0  0  0  0  0  0  0  0  0
   -4.1170    6.1416   -5.1616 H   0  0  0  0  0  0  0  0  0  0  0  0
   -4.3242    6.3384   -2.5883 H   0  0  0  0  0  0  0  0  0  0  0  0
   -3.4867    4.1051   -1.4185 H   0  0  0  0  0  0  0  0  0  0  0  0
   -1.0280    3.6709   -2.1524 H   0  0  0  0  0  0  0  0  0  0  0  0
   -0.2965    5.6108   -3.8102 H   0  0  0  0  0  0  0  0  0  0  0  0
   -1.7944    6.9524   -2.1001 H   0  0  0  0  0  0  0  0  0  0  0  0
   -2.2169    7.4687   -3.7966 H   0  0  0  0  0  0  0  0  0  0  0  0
   -1.9012    5.7228   -5.8244 H   0  0  0  0  0  0  0  0  0  0  0  0
   -4.0949   -4.4586   -8.6909 H   0  0  0  0  0  0  0  0  0  0  0  0
   -6.2748   -4.2553   -9.8124 H   0  0  0  0  0  0  0  0  0  0  0  0
   -7.6924   -0.9744  -11.0608 H   0  0  0  0  0  0  0  0  0  0  0  0
   -8.1855   -2.5341  -10.3185 H   0  0  0  0  0  0  0  0  0  0  0  0
   -7.3132   -2.5282  -11.9004 H   0  0  0  0  0  0  0  0  0  0  0  0
   -5.5517   -0.0503  -10.4411 H   0  0  0  0  0  0  0  0  0  0  0  0
   -3.3665   -0.2577   -9.3267 H   0  0  0  0  0  0  0  0  0  0  0  0
   -0.8144   -0.5411   -9.3671 H   0  0  0  0  0  0  0  0  0  0  0  0
    1.1213   -0.8218  -10.8689 H   0  0  0  0  0  0  0  0  0  0  0  0
    3.1408   -2.7602  -11.2553 H   0  0  0  0  0  0  0  0  0  0  0  0
    2.0717   -2.5651  -12.6982 H   0  0  0  0  0  0  0  0  0  0  0  0
    2.3980   -4.2058  -12.0338 H   0  0  0  0  0  0  0  0  0  0  0  0
    0.6864   -5.1050  -10.6319 H   0  0  0  0  0  0  0  0  0  0  0  0
   -1.2558   -4.8234   -9.1474 H   0  0  0  0  0  0  0  0  0  0  0  0
   -2.5030   -5.6590   -2.2998 H   0  0  0  0  0  0  0  0  0  0  0  0
   -3.4502   -5.1402   -0.0879 H   0  0  0  0  0  0  0  0  0  0  0  0
   -2.2466   -4.8006    2.6154 H   0  0  0  0  0  0  0  0  0  0  0  0
   -1.6291   -3.1027    2.5265 H   0  0  0  0  0  0  0  0  0  0  0  0
   -3.2721   -3.4913    1.8997 H   0  0  0  0  0  0  0  0  0  0  0  0
    0.3008   -3.3792    1.0973 H   0  0  0  0  0  0  0  0  0  0  0  0
    1.2363   -3.8844   -1.1236 H   0  0  0  0  0  0  0  0  0  0  0  0
    2.1095   -6.3117   -2.1616 H   0  0  0  0  0  0  0  0  0  0  0  0
    2.8802   -8.5832   -2.7381 H   0  0  0  0  0  0  0  0  0  0  0  0
    2.8391  -10.3999   -4.4882 H   0  0  0  0  0  0  0  0  0  0  0  0
    1.3572  -11.0690   -3.6889 H   0  0  0  0  0  0  0  0  0  0  0  0
    1.3509  -10.6747   -5.4558 H   0  0  0  0  0  0  0  0  0  0  0  0
   -0.4829   -9.0472   -5.3975 H   0  0  0  0  0  0  0  0  0  0  0  0
   -1.2436   -6.7857   -4.8292 H   0  0  0  0  0  0  0  0  0  0  0  0
    5.3477   -1.9525   -6.0895 H   0  0  0  0  0  0  0  0  0  0  0  0
    6.4047   -3.2572   -7.8889 H   0  0  0  0  0  0  0  0  0  0  0  0
    5.7235   -5.5888   -8.3075 H   0  0  0  0  0  0  0  0  0  0  0  0
    3.7744   -7.6258   -5.9675 H   0  0  0  0  0  0  0  0  0  0  0  0
    4.6307   -7.6092   -7.5417 H   0  0  0  0  0  0  0  0  0  0  0  0
    1.7514   -6.5963   -7.0297 H   0  0  0  0  0  0  0  0  0  0  0  0
    2.6101   -6.5529   -8.6232 H   0  0  0  0  0  0  0  0  0  0  0  0
    2.2221   -8.1374   -7.8407 H   0  0  0  0  0  0  0  0  0  0  0  0
    3.0110   -5.4020   -4.9787 H   0  0  0  0  0  0  0  0  0  0  0  0
    6.6375    3.6196    5.9045 H   0  0  0  0  0  0  0  0  0  0  0  0
    8.2461    4.3340    7.6241 H   0  0  0  0  0  0  0  0  0  0  0  0
    7.7523    6.2653    9.0732 H   0  0  0  0  0  0  0  0  0  0  0  0
    6.1460    7.8372    9.9630 H   0  0  0  0  0  0  0  0  0  0  0  0
    4.4680    7.8747    9.3408 H   0  0  0  0  0  0  0  0  0  0  0  0
    6.9148    9.1599    7.9622 H   0  0  0  0  0  0  0  0  0  0  0  0
    5.6683   10.0266    8.9367 H   0  0  0  0  0  0  0  0  0  0  0  0
    5.2088    9.2429    7.3802 H   0  0  0  0  0  0  0  0  0  0  0  0
    3.9712    6.7977    7.0710 H   0  0  0  0  0  0  0  0  0  0  0  0
    1.1117    0.0704   -0.7200 H   0  0  0  0  0  0  0  0  0  0  0  0
    1.8011    1.0018    0.6319 H   0  0  0  0  0  0  0  0  0  0  0  0
    3.2238   -0.8109    1.3713 H   0  0  0  0  0  0  0  0  0  0  0  0
    1.5092   -1.3373    1.2321 H   0  0  0  0  0  0  0  0  0  0  0  0
    2.6761   -1.8557   -0.0238 H   0  0  0  0  0  0  0  0  0  0  0  0
    1.2401    3.2717    1.1881 H   0  0  0  0  0  0  0  0  0  0  0  0
    1.7695    2.8852   -0.4938 H   0  0  0  0  0  0  0  0  0  0  0  0
    2.0399    5.6173    0.8660 H   0  0  0  0  0  0  0  0  0  0  0  0
    0.9177    5.1379   -0.4640 H   0  0  0  0  0  0  0  0  0  0  0  0
    2.7031    5.1682   -0.7584 H   0  0  0  0  0  0  0  0  0  0  0  0
    0.3101    5.3315    5.9622 H   0  0  0  0  0  0  0  0  0  0  0  0
   -3.2991    4.2947    5.8455 H   0  0  0  0  0  0  0  0  0  0  0  0
   -1.7507    4.8243    5.1418 H   0  0  0  0  0  0  0  0  0  0  0  0
   -1.4826    6.4494    7.1078 H   0  0  0  0  0  0  0  0  0  0  0  0
   -3.0815    6.6984    6.2474 H   0  0  0  0  0  0  0  0  0  0  0  0
   -3.0109    5.7844    7.8081 H   0  0  0  0  0  0  0  0  0  0  0  0
    2.0036    1.4889    8.5689 H   0  0  0  0  0  0  0  0  0  0  0  0
    3.7347    2.8353    9.7931 H   0  0  0  0  0  0  0  0  0  0  0  0
    5.3032    3.4451    9.2020 H   0  0  0  0  0  0  0  0  0  0  0  0
    4.2387    0.5920    8.7155 H   0  0  0  0  0  0  0  0  0  0  0  0
    5.8097    1.2632    8.1112 H   0  0  0  0  0  0  0  0  0  0  0  0
    5.5302    1.0970    9.8939 H   0  0  0  0  0  0  0  0  0  0  0  0
   -0.3951    0.5894    7.0643 H   0  0  0  0  0  0  0  0  0  0  0  0
   -5.6620   -0.1985    7.4219 H   0  0  0  0  0  0  0  0  0  0  0  0
   -4.5991    2.7343   11.4610 H   0  0  0  0  0  0  0  0  0  0  0  0
   -7.6864    1.0884   11.7084 H   0  0  0  0  0  0  0  0  0  0  0  0
   -8.4517    3.5568   11.5105 H   0  0  0  0  0  0  0  0  0  0  0  0
   -7.2496    4.7145    9.4502 H   0  0  0  0  0  0  0  0  0  0  0  0
   -7.8532    3.3599    7.2969 H   0  0  0  0  0  0  0  0  0  0  0  0
   -9.3901    1.3030    7.9964 H   0  0  0  0  0  0  0  0  0  0  0  0
  -10.0811    1.6540   10.5794 H   0  0  0  0  0  0  0  0  0  0  0  0
  -10.2781    3.2012    9.6260 H   0  0  0  0  0  0  0  0  0  0  0  0
   -8.2274   -0.1555    9.7830 H   0  0  0  0  0  0  0  0  0  0  0  0
  1  2  2  3
  2  3  1  0
  3  4  2  0
  3  5  1  0
  5  6  2  0
  6  7  1  0
  7  8  2  0
  8  9  1  0
  9 10  2  0
 10 11  1  0
 11 12  2  3
 12 13  1  0
 13 14  3  0
 12 15  1  0
 15 16  3  0
  8 17  1  0
 17 18  1  0
 18 19  1  0
 19 20  2  0
 20 21  1  0
 21 22  1  0
 21 23  1  0
  1 24  1  0
 24 25  2  0
 25 26  1  0
 26 27  1  0
 27 28  2  0
 28 29  1  0
 29 30  2  0
 30 31  1  0
 30 32  1  0
 32 33  2  0
 26 34  1  0
 34 35  2  0
 35 36  1  0
 36 37  2  0
 37 38  1  0
 37 39  1  0
 39 40  2  0
 25 41  1  0
 41 42  1  0
 42 43  1  0
 43 44  2  0
 44 45  1  0
 45 46  1  0
 46 47  2  0
 47 48  1  0
 48 49  2  0
 49 50  1  0
 49 51  1  0
 51 52  2  0
 45 53  1  0
 53 54  2  0
 54 55  1  0
 55 56  2  0
 56 57  1  0
 56 58  1  0
 58 59  2  0
 44 60  1  0
 60 61  1  0
 43 62  1  0
 62 63  2  0
 63 64  1  0
 64 65  2  0
 65 66  1  0
 66 67  2  0
 67 68  1  0
 68 69  1  0
 69 70  1  0
 68 71  2  0
 63 72  1  0
 72 73  1  0
 73 74  1  0
 74 75  1  0
 75 76  1  0
 76 77  1  0
 77 78  2  0
 78 79  1  0
 79 80  1  0
 77 81  1  0
 81 82  1  0
 82 83  1  0
 83 84  1  0
 84 85  1  0
 85 86  1  0
 86 87  2  0
 87 88  1  0
 88 89  2  0
 89 90  1  0
 90 91  1  0
 91 92  1  0
 90 93  2  0
 85 94  2  0
 94 95  1  0
 95 96  1  0
 96 97  1  0
 97 98  1  0
 98 99  1  0
 99100  1  0
100101  1  0
101102  1  0
102103  1  0
103104  1  0
101105  1  0
105106  1  0
 98107  1  0
107108  1  0
 94109  1  0
109110  2  0
110111  1  0
111112  1  0
112113  1  0
113114  1  0
111115  2  0
115116  1  0
116117  2  0
117118  1  0
118119  1  0
119120  1  0
115121  1  0
121122  2  3
122123  1  0
123124  2  0
123125  1  0
125126  2  0
126127  1  0
127128  2  0
128129  1  0
129130  2  0
130131  1  0
131132  2  3
132133  1  0
133134  3  0
132135  1  0
135136  3  0
128137  1  0
137138  1  0
138139  1  0
139140  2  0
140141  1  0
141142  1  0
141143  1  0
 11  2  1  0
 23 17  1  0
 61 24  1  0
104 62  1  0
117109  1  0
131122  1  0
143137  1  0
 10  5  1  0
 22 18  1  0
 33 27  1  0
 40 34  1  0
 60 41  2  0
 71 64  1  0
103 72  2  0
130125  1  0
142138  1  0
 23  7  1  0
 52 46  1  0
 59 53  1  0
102 74  2  0
143127  1  0
100 75  2  0
 80 76  2  0
 99 81  2  0
 97 82  2  0
 96 84  2  0
 93 86  1  0
  1144  1  0
  6145  1  0
  9146  1  0
 17147  1  0
 18148  1  0
 19149  1  0
 20150  1  0
 21151  1  0
 22152  1  0
 22153  1  0
 23154  1  0
 28155  1  0
 29156  1  0
 31157  1  0
 31158  1  0
 31159  1  0
 32160  1  0
 33161  1  0
 35162  1  0
 36163  1  0
 38164  1  0
 38165  1  0
 38166  1  0
 39167  1  0
 40168  1  0
 47169  1  0
 48170  1  0
 50171  1  0
 50172  1  0
 50173  1  0
 51174  1  0
 52175  1  0
 54176  1  0
 55177  1  0
 57178  1  0
 57179  1  0
 57180  1  0
 58181  1  0
 59182  1  0
 65183  1  0
 66184  1  0
 67185  1  0
 69186  1  0
 69187  1  0
 70188  1  0
 70189  1  0
 70190  1  0
 71191  1  0
 87192  1  0
 88193  1  0
 89194  1  0
 91195  1  0
 91196  1  0
 92197  1  0
 92198  1  0
 92199  1  0
 93200  1  0
105201  1  0
105202  1  0
106203  1  0
106204  1  0
106205  1  0
107206  1  0
107207  1  0
108208  1  0
108209  1  0
108210  1  0
110211  1  0
113212  1  0
113213  1  0
114214  1  0
114215  1  0
114216  1  0
116217  1  0
119218  1  0
119219  1  0
120220  1  0
120221  1  0
120222  1  0
121223  1  0
126224  1  0
129225  1  0
137226  1  0
138227  1  0
139228  1  0
140229  1  0
141230  1  0
142231  1  0
142232  1  0
143233  1  0
M  END

