
     RDKit          3D

262290  0  0  0  0  0  0  0  0999 V2000
    6.7053   -0.2675   -5.0110 C   0  0  0  0  0  0  0  0  0  0  0  0
    6.9526   -1.2454   -5.8958 C   0  0  0  0  0  0  0  0  0  0  0  0
    7.5729   -2.5120   -5.5114 C   0  0  0  0  0  0  0  0  0  0  0  0
    8.2185   -2.7281   -4.4506 O   0  0  0  0  0  0  0  0  0  0  0  0
    7.2332   -3.5102   -6.5052 C   0  0  0  0  0  0  0  0  0  0  0  0
    7.4999   -4.8976   -6.4566 C   0  0  0  0  0  0  0  0  0  0  0  0
    6.9415   -5.6100   -7.5034 C   0  0  0  0  0  0  0  0  0  0  0  0
    6.1469   -4.9998   -8.5293 C   0  0  0  0  0  0  0  0  0  0  0  0
    5.8782   -3.6413   -8.5804 C   0  0  0  0  0  0  0  0  0  0  0  0
    6.4785   -2.8884   -7.5353 C   0  0  0  0  0  0  0  0  0  0  0  0
    6.4219   -1.4243   -7.2796 C   0  0  0  0  0  0  0  0  0  0  0  0
    6.3490   -0.4614   -8.2307 C   0  0  0  0  0  0  0  0  0  0  0  0
    6.7681    0.8934   -7.9750 C   0  0  0  0  0  0  0  0  0  0  0  0
    7.1060    1.9829   -7.7755 N   0  0  0  0  0  0  0  0  0  0  0  0
    6.0219   -0.7573   -9.6006 C   0  0  0  0  0  0  0  0  0  0  0  0
    5.7660   -0.9812  -10.7068 N   0  0  0  0  0  0  0  0  0  0  0  0
    5.9145   -6.3373   -9.1652 C   0  0  0  0  0  0  0  0  0  0  0  0
    4.5089   -6.9738   -8.9586 C   0  0  0  0  0  0  0  0  0  0  0  0
    4.6550   -8.4303   -9.3319 C   0  0  0  0  0  0  0  0  0  0  0  0
    5.3974   -8.9941   -8.3723 C   0  0  0  0  0  0  0  0  0  0  0  0
    5.7291   -7.8999   -7.3861 C   0  0  0  0  0  0  0  0  0  0  0  0
    4.4212   -7.1284   -7.4492 C   0  0  0  0  0  0  0  0  0  0  0  0
    6.7298   -6.9594   -8.1175 C   0  0  0  0  0  0  0  0  0  0  0  0
    5.6957    0.7896   -5.1815 C   0  0  0  0  0  0  0  0  0  0  0  0
    5.7174    2.0185   -4.5085 C   0  0  0  0  0  0  0  0  0  0  0  0
    6.6573    2.3462   -3.4770 N   0  0  0  0  0  0  0  0  0  0  0  0
    6.2775    2.2096   -2.0842 C   0  0  0  0  0  0  0  0  0  0  0  0
    6.9061    2.9728   -1.0775 C   0  0  0  0  0  0  0  0  0  0  0  0
    6.4948    2.8725    0.2543 C   0  0  0  0  0  0  0  0  0  0  0  0
    5.4435    2.0165    0.6097 C   0  0  0  0  0  0  0  0  0  0  0  0
    5.0005    1.8973    2.0373 C   0  0  0  0  0  0  0  0  0  0  0  0
    4.8318    1.2334   -0.3768 C   0  0  0  0  0  0  0  0  0  0  0  0
    5.2430    1.3281   -1.7087 C   0  0  0  0  0  0  0  0  0  0  0  0
    7.8509    3.0359   -3.8671 C   0  0  0  0  0  0  0  0  0  0  0  0
    9.0502    2.3313   -4.0247 C   0  0  0  0  0  0  0  0  0  0  0  0
   10.2153    3.0066   -4.3954 C   0  0  0  0  0  0  0  0  0  0  0  0
   10.1917    4.3933   -4.6156 C   0  0  0  0  0  0  0  0  0  0  0  0
   11.4485    5.1267   -4.9748 C   0  0  0  0  0  0  0  0  0  0  0  0
    8.9915    5.0984   -4.4405 C   0  0  0  0  0  0  0  0  0  0  0  0
    7.8229    4.4216   -4.0818 C   0  0  0  0  0  0  0  0  0  0  0  0
    4.5343    2.7203   -4.6940 C   0  0  0  0  0  0  0  0  0  0  0  0
    3.8851    4.0498   -3.9180 S   0  0  0  0  0  0  0  0  0  0  0  0
    2.3282    3.8199   -4.5600 C   0  0  0  0  0  0  0  0  0  0  0  0
    2.3077    2.6566   -5.3562 C   0  0  0  0  0  0  0  0  0  0  0  0
    1.1066    1.9537   -5.7321 N   0  0  0  0  0  0  0  0  0  0  0  0
    0.7647    1.7323   -7.1254 C   0  0  0  0  0  0  0  0  0  0  0  0
    1.6455    2.1162   -8.1600 C   0  0  0  0  0  0  0  0  0  0  0  0
    1.2963    1.9458   -9.5025 C   0  0  0  0  0  0  0  0  0  0  0  0
    0.0621    1.3798   -9.8459 C   0  0  0  0  0  0  0  0  0  0  0  0
   -0.3425    1.2314  -11.2818 C   0  0  0  0  0  0  0  0  0  0  0  0
   -0.8159    0.9811   -8.8319 C   0  0  0  0  0  0  0  0  0  0  0  0
   -0.4718    1.1535   -7.4890 C   0  0  0  0  0  0  0  0  0  0  0  0
    0.3809    1.2894   -4.6776 C   0  0  0  0  0  0  0  0  0  0  0  0
    0.9191    0.1497   -4.0654 C   0  0  0  0  0  0  0  0  0  0  0  0
    0.2294   -0.4930   -3.0321 C   0  0  0  0  0  0  0  0  0  0  0  0
   -1.0066    0.0036   -2.5957 C   0  0  0  0  0  0  0  0  0  0  0  0
   -1.7478   -0.6700   -1.4789 C   0  0  0  0  0  0  0  0  0  0  0  0
   -1.5667    1.1197   -3.2324 C   0  0  0  0  0  0  0  0  0  0  0  0
   -0.8727    1.7659   -4.2610 C   0  0  0  0  0  0  0  0  0  0  0  0
    3.5786    2.0841   -5.4192 C   0  0  0  0  0  0  0  0  0  0  0  0
    4.1608    0.5857   -5.9068 S   0  0  0  0  0  0  0  0  0  0  0  0
    1.1686    4.5712   -4.0820 C   0  0  0  0  0  0  0  0  0  0  0  0
    0.0732    5.0340   -4.8410 C   0  0  0  0  0  0  0  0  0  0  0  0
    0.0012    5.0109   -6.3222 C   0  0  0  0  0  0  0  0  0  0  0  0
   -1.1760    4.6298   -6.9900 C   0  0  0  0  0  0  0  0  0  0  0  0
   -1.2171    4.5962   -8.3857 C   0  0  0  0  0  0  0  0  0  0  0  0
   -0.0885    4.9429   -9.1316 C   0  0  0  0  0  0  0  0  0  0  0  0
    1.1007    5.3065   -8.4823 C   0  0  0  0  0  0  0  0  0  0  0  0
    2.3465    5.6126   -9.2734 C   0  0  0  0  0  0  0  0  0  0  0  0
    2.5869    7.1158   -9.3570 C   0  0  0  0  0  0  0  0  0  0  0  0
    1.1324    5.3582   -7.0807 C   0  0  0  0  0  0  0  0  0  0  0  0
   -0.9132    5.5512   -3.9900 C   0  0  0  0  0  0  0  0  0  0  0  0
   -2.5338    6.0226   -4.2121 S   0  0  0  0  0  0  0  0  0  0  0  0
   -2.7687    6.2074   -2.5382 C   0  0  0  0  0  0  0  0  0  0  0  0
   -3.8413    6.0416   -1.7058 C   0  0  0  0  0  0  0  0  0  0  0  0
   -5.1830    5.7716   -2.0220 C   0  0  0  0  0  0  0  0  0  0  0  0
   -6.0319    5.2134   -1.0192 C   0  0  0  0  0  0  0  0  0  0  0  0
   -7.2961    4.8939   -1.3870 N   0  0  0  0  0  0  0  0  0  0  0  0
   -7.2411    5.3380   -2.9812 S   0  0  0  0  0  0  0  0  0  0  0  0
   -5.7136    5.9148   -3.2599 N   0  0  0  0  0  0  0  0  0  0  0  0
   -5.5139    5.0230    0.2638 C   0  0  0  0  0  0  0  0  0  0  0  0
   -6.0379    4.4484    1.3901 C   0  0  0  0  0  0  0  0  0  0  0  0
   -7.1990    3.2527    1.6912 S   0  0  0  0  0  0  0  0  0  0  0  0
   -6.3746    2.7410    3.0990 C   0  0  0  0  0  0  0  0  0  0  0  0
   -6.4211    1.5526    3.8370 C   0  0  0  0  0  0  0  0  0  0  0  0
   -7.4994    0.5392    3.7531 C   0  0  0  0  0  0  0  0  0  0  0  0
   -8.0175   -0.0192    4.9330 C   0  0  0  0  0  0  0  0  0  0  0  0
   -9.0501   -0.9573    4.8792 C   0  0  0  0  0  0  0  0  0  0  0  0
   -9.5766   -1.3502    3.6476 C   0  0  0  0  0  0  0  0  0  0  0  0
   -9.0611   -0.8149    2.4576 C   0  0  0  0  0  0  0  0  0  0  0  0
   -9.6514   -1.2073    1.1307 C   0  0  0  0  0  0  0  0  0  0  0  0
  -10.7240   -0.2112    0.7001 C   0  0  0  0  0  0  0  0  0  0  0  0
   -8.0287    0.1342    2.5159 C   0  0  0  0  0  0  0  0  0  0  0  0
   -5.2493    1.4004    4.6077 C   0  0  0  0  0  0  0  0  0  0  0  0
   -4.1942    2.7072    4.3378 S   0  0  0  0  0  0  0  0  0  0  0  0
   -5.2400    3.4920    3.2977 C   0  0  0  0  0  0  0  0  0  0  0  0
   -5.0505    4.4534    2.3249 C   0  0  0  0  0  0  0  0  0  0  0  0
   -3.9077    5.0262    1.8847 N   0  0  0  0  0  0  0  0  0  0  0  0
   -4.1815    5.3178    0.5804 C   0  0  0  0  0  0  0  0  0  0  0  0
   -3.3007    5.7146   -0.4509 C   0  0  0  0  0  0  0  0  0  0  0  0
   -1.9460    5.5095   -0.5434 N   0  0  0  0  0  0  0  0  0  0  0  0
   -1.6578    5.8747   -1.8216 C   0  0  0  0  0  0  0  0  0  0  0  0
   -0.6040    5.5146   -2.6541 C   0  0  0  0  0  0  0  0  0  0  0  0
    0.9004    4.8319   -2.4256 S   0  0  0  0  0  0  0  0  0  0  0  0
   -1.1551    4.5137    0.2050 C   0  0  0  0  0  0  0  0  0  0  0  0
   -1.3992    3.1038   -0.3264 C   0  0  0  0  0  0  0  0  0  0  0  0
   -2.9494    5.7196    2.7593 C   0  0  0  0  0  0  0  0  0  0  0  0
   -3.6500    6.7349    3.6611 C   0  0  0  0  0  0  0  0  0  0  0  0
   -4.7758    0.1304    5.1606 C   0  0  0  0  0  0  0  0  0  0  0  0
   -3.9856   -0.7997    4.4643 C   0  0  0  0  0  0  0  0  0  0  0  0
   -3.3882   -0.5519    3.1810 N   0  0  0  0  0  0  0  0  0  0  0  0
   -4.2028   -0.4003    2.0102 C   0  0  0  0  0  0  0  0  0  0  0  0
   -5.0599   -1.4316    1.6069 C   0  0  0  0  0  0  0  0  0  0  0  0
   -5.7903   -1.3159    0.4195 C   0  0  0  0  0  0  0  0  0  0  0  0
   -5.7025   -0.1481   -0.3539 C   0  0  0  0  0  0  0  0  0  0  0  0
   -6.4721   -0.0345   -1.6356 C   0  0  0  0  0  0  0  0  0  0  0  0
   -4.8464    0.8864    0.0528 C   0  0  0  0  0  0  0  0  0  0  0  0
   -4.0968    0.7578    1.2264 C   0  0  0  0  0  0  0  0  0  0  0  0
   -1.9508   -0.5069    3.0709 C   0  0  0  0  0  0  0  0  0  0  0  0
   -1.1887    0.1917    4.0205 C   0  0  0  0  0  0  0  0  0  0  0  0
    0.2071    0.1553    3.9774 C   0  0  0  0  0  0  0  0  0  0  0  0
    0.8636   -0.5766    2.9769 C   0  0  0  0  0  0  0  0  0  0  0  0
    2.3593   -0.6864    2.9780 C   0  0  0  0  0  0  0  0  0  0  0  0
    0.1061   -1.2740    2.0229 C   0  0  0  0  0  0  0  0  0  0  0  0
   -1.2913   -1.2366    2.0675 C   0  0  0  0  0  0  0  0  0  0  0  0
   -3.5466   -1.8066    5.3172 C   0  0  0  0  0  0  0  0  0  0  0  0
   -2.5194   -3.1192    5.1380 S   0  0  0  0  0  0  0  0  0  0  0  0
   -2.4883   -3.4829    6.8046 C   0  0  0  0  0  0  0  0  0  0  0  0
   -3.3165   -2.5781    7.4878 C   0  0  0  0  0  0  0  0  0  0  0  0
   -3.3681   -2.4613    8.9150 N   0  0  0  0  0  0  0  0  0  0  0  0
   -2.5415   -1.4726    9.5663 C   0  0  0  0  0  0  0  0  0  0  0  0
   -1.2480   -1.1914    9.0853 C   0  0  0  0  0  0  0  0  0  0  0  0
   -0.4475   -0.2360    9.7172 C   0  0  0  0  0  0  0  0  0  0  0  0
   -0.9295    0.4664   10.8292 C   0  0  0  0  0  0  0  0  0  0  0  0
   -0.0473    1.4544   11.5312 C   0  0  0  0  0  0  0  0  0  0  0  0
   -2.2145    0.1874   11.3184 C   0  0  0  0  0  0  0  0  0  0  0  0
   -3.0198   -0.7655   10.6830 C   0  0  0  0  0  0  0  0  0  0  0  0
   -4.2199   -3.3504    9.6645 C   0  0  0  0  0  0  0  0  0  0  0  0
   -5.4919   -3.6999    9.1760 C   0  0  0  0  0  0  0  0  0  0  0  0
   -6.3060   -4.5835    9.8903 C   0  0  0  0  0  0  0  0  0  0  0  0
   -5.8654   -5.1266   11.1049 C   0  0  0  0  0  0  0  0  0  0  0  0
   -6.7274   -6.1087   11.8418 C   0  0  0  0  0  0  0  0  0  0  0  0
   -4.5931   -4.7893   11.5902 C   0  0  0  0  0  0  0  0  0  0  0  0
   -3.7780   -3.9048   10.8785 C   0  0  0  0  0  0  0  0  0  0  0  0
   -3.8899   -1.6552    6.6198 C   0  0  0  0  0  0  0  0  0  0  0  0
   -4.8140   -0.2679    6.8189 S   0  0  0  0  0  0  0  0  0  0  0  0
   -1.7728   -4.6128    7.4252 C   0  0  0  0  0  0  0  0  0  0  0  0
   -0.5005   -4.9535    7.1369 C   0  0  0  0  0  0  0  0  0  0  0  0
    0.4058   -4.2505    6.2160 C   0  0  0  0  0  0  0  0  0  0  0  0
    0.3388   -3.0413    5.8713 O   0  0  0  0  0  0  0  0  0  0  0  0
    1.4621   -5.1634    5.8343 C   0  0  0  0  0  0  0  0  0  0  0  0
    2.4382   -4.9955    4.8495 C   0  0  0  0  0  0  0  0  0  0  0  0
    3.2887   -6.0747    4.5667 C   0  0  0  0  0  0  0  0  0  0  0  0
    4.6200   -5.9023    3.2091 Br  0  0  0  0  0  0  0  0  0  0  0  0
    3.1333   -7.2961    5.2466 C   0  0  0  0  0  0  0  0  0  0  0  0
    2.1467   -7.4413    6.2351 C   0  0  0  0  0  0  0  0  0  0  0  0
    1.3239   -6.3449    6.5401 C   0  0  0  0  0  0  0  0  0  0  0  0
    0.1882   -6.2280    7.4971 C   0  0  0  0  0  0  0  0  0  0  0  0
   -0.0081   -6.9881    8.6072 C   0  0  0  0  0  0  0  0  0  0  0  0
   -0.9928   -6.6662    9.6028 C   0  0  0  0  0  0  0  0  0  0  0  0
   -1.7742   -6.4146   10.4213 N   0  0  0  0  0  0  0  0  0  0  0  0
    0.8687   -8.0740    8.9579 C   0  0  0  0  0  0  0  0  0  0  0  0
    1.5669   -8.9476    9.2576 N   0  0  0  0  0  0  0  0  0  0  0  0
    7.1989   -0.3114   -4.0488 H   0  0  0  0  0  0  0  0  0  0  0  0
    8.0640   -5.3697   -5.6602 H   0  0  0  0  0  0  0  0  0  0  0  0
    5.2316   -3.2244   -9.3391 H   0  0  0  0  0  0  0  0  0  0  0  0
    6.3376   -6.4232  -10.1917 H   0  0  0  0  0  0  0  0  0  0  0  0
    3.6621   -6.4429   -9.4400 H   0  0  0  0  0  0  0  0  0  0  0  0
    4.1795   -8.9523  -10.1554 H   0  0  0  0  0  0  0  0  0  0  0  0
    5.6287  -10.0506   -8.2849 H   0  0  0  0  0  0  0  0  0  0  0  0
    6.0411   -8.2482   -6.3758 H   0  0  0  0  0  0  0  0  0  0  0  0
    3.5392   -7.7277   -7.1184 H   0  0  0  0  0  0  0  0  0  0  0  0
    4.4267   -6.1679   -6.8905 H   0  0  0  0  0  0  0  0  0  0  0  0
    7.6673   -7.4394   -8.4799 H   0  0  0  0  0  0  0  0  0  0  0  0
    7.7006    3.6633   -1.3169 H   0  0  0  0  0  0  0  0  0  0  0  0
    6.9893    3.4737    1.0072 H   0  0  0  0  0  0  0  0  0  0  0  0
    5.3715    0.9401    2.4612 H   0  0  0  0  0  0  0  0  0  0  0  0
    3.8899    1.9165    2.0906 H   0  0  0  0  0  0  0  0  0  0  0  0
    5.3903    2.7366    2.6515 H   0  0  0  0  0  0  0  0  0  0  0  0
    4.0287    0.5524   -0.1183 H   0  0  0  0  0  0  0  0  0  0  0  0
    4.7401    0.7103   -2.4438 H   0  0  0  0  0  0  0  0  0  0  0  0
    9.0824    1.2617   -3.8569 H   0  0  0  0  0  0  0  0  0  0  0  0
   11.1364    2.4492   -4.5153 H   0  0  0  0  0  0  0  0  0  0  0  0
   12.1750    4.4476   -5.4705 H   0  0  0  0  0  0  0  0  0  0  0  0
   11.9095    5.5400   -4.0538 H   0  0  0  0  0  0  0  0  0  0  0  0
   11.2232    5.9594   -5.6746 H   0  0  0  0  0  0  0  0  0  0  0  0
    8.9601    6.1723   -4.5833 H   0  0  0  0  0  0  0  0  0  0  0  0
    6.9007    4.9726   -3.9550 H   0  0  0  0  0  0  0  0  0  0  0  0
    2.6000    2.5750   -7.9431 H   0  0  0  0  0  0  0  0  0  0  0  0
    1.9856    2.2691  -10.2728 H   0  0  0  0  0  0  0  0  0  0  0  0
   -0.5909    0.1701  -11.4924 H   0  0  0  0  0  0  0  0  0  0  0  0
   -1.2353    1.8608  -11.4831 H   0  0  0  0  0  0  0  0  0  0  0  0
    0.4705    1.5449  -11.9696 H   0  0  0  0  0  0  0  0  0  0  0  0
   -1.7757    0.5451   -9.0842 H   0  0  0  0  0  0  0  0  0  0  0  0
   -1.1926    0.8498   -6.7421 H   0  0  0  0  0  0  0  0  0  0  0  0
    1.8705   -0.2460   -4.3861 H   0  0  0  0  0  0  0  0  0  0  0  0
    0.6650   -1.3728   -2.5736 H   0  0  0  0  0  0  0  0  0  0  0  0
   -2.0632    0.0870   -0.7305 H   0  0  0  0  0  0  0  0  0  0  0  0
   -1.1039   -1.4164   -0.9664 H   0  0  0  0  0  0  0  0  0  0  0  0
   -2.6456   -1.1861   -1.8806 H   0  0  0  0  0  0  0  0  0  0  0  0
   -2.5344    1.4980   -2.9192 H   0  0  0  0  0  0  0  0  0  0  0  0
   -1.3162    2.6311   -4.7324 H   0  0  0  0  0  0  0  0  0  0  0  0
   -2.0532    4.3251   -6.4355 H   0  0  0  0  0  0  0  0  0  0  0  0
   -2.1215    4.2872   -8.8931 H   0  0  0  0  0  0  0  0  0  0  0  0
   -0.1316    4.8978  -10.2129 H   0  0  0  0  0  0  0  0  0  0  0  0
    2.2705    5.1964  -10.3029 H   0  0  0  0  0  0  0  0  0  0  0  0
    3.2224    5.1254   -8.7907 H   0  0  0  0  0  0  0  0  0  0  0  0
    2.6711    7.5542   -8.3400 H   0  0  0  0  0  0  0  0  0  0  0  0
    1.7523    7.6062   -9.9013 H   0  0  0  0  0  0  0  0  0  0  0  0
    3.5316    7.3096   -9.9048 H   0  0  0  0  0  0  0  0  0  0  0  0
    2.0453    5.6668   -6.5832 H   0  0  0  0  0  0  0  0  0  0  0  0
   -7.6402    0.2899    5.8989 H   0  0  0  0  0  0  0  0  0  0  0  0
   -9.4527   -1.3727    5.7943 H   0  0  0  0  0  0  0  0  0  0  0  0
  -10.3864   -2.0691    3.6185 H   0  0  0  0  0  0  0  0  0  0  0  0
   -8.8552   -1.2440    0.3569 H   0  0  0  0  0  0  0  0  0  0  0  0
  -10.0977   -2.2246    1.1905 H   0  0  0  0  0  0  0  0  0  0  0  0
  -11.1507   -0.5248   -0.2766 H   0  0  0  0  0  0  0  0  0  0  0  0
  -11.5399   -0.1777    1.4546 H   0  0  0  0  0  0  0  0  0  0  0  0
  -10.2842    0.8042    0.5892 H   0  0  0  0  0  0  0  0  0  0  0  0
   -7.6349    0.5389    1.5951 H   0  0  0  0  0  0  0  0  0  0  0  0
   -1.3919    4.4999    1.2713 H   0  0  0  0  0  0  0  0  0  0  0  0
   -0.0751    4.7634    0.1518 H   0  0  0  0  0  0  0  0  0  0  0  0
   -0.8760    2.3604    0.3133 H   0  0  0  0  0  0  0  0  0  0  0  0
   -1.0170    3.0084   -1.3591 H   0  0  0  0  0  0  0  0  0  0  0  0
   -2.4854    2.8796   -0.3234 H   0  0  0  0  0  0  0  0  0  0  0  0
   -2.2101    6.2905    2.1570 H   0  0  0  0  0  0  0  0  0  0  0  0
   -2.4123    4.9799    3.3897 H   0  0  0  0  0  0  0  0  0  0  0  0
   -4.1778    7.4912    3.0424 H   0  0  0  0  0  0  0  0  0  0  0  0
   -2.8956    7.2479    4.2919 H   0  0  0  0  0  0  0  0  0  0  0  0
   -4.3806    6.2282    4.3272 H   0  0  0  0  0  0  0  0  0  0  0  0
   -5.1362   -2.3362    2.1964 H   0  0  0  0  0  0  0  0  0  0  0  0
   -6.4288   -2.1336    0.1094 H   0  0  0  0  0  0  0  0  0  0  0  0
   -6.6606    1.0318   -1.8900 H   0  0  0  0  0  0  0  0  0  0  0  0
   -5.8955   -0.5081   -2.4587 H   0  0  0  0  0  0  0  0  0  0  0  0
   -7.4548   -0.5417   -1.5444 H   0  0  0  0  0  0  0  0  0  0  0  0
   -4.7561    1.7882   -0.5398 H   0  0  0  0  0  0  0  0  0  0  0  0
   -3.4377    1.5615    1.5291 H   0  0  0  0  0  0  0  0  0  0  0  0
   -1.6784    0.7450    4.8112 H   0  0  0  0  0  0  0  0  0  0  0  0
    0.7730    0.6878    4.7325 H   0  0  0  0  0  0  0  0  0  0  0  0
    2.8179    0.1447    3.5537 H   0  0  0  0  0  0  0  0  0  0  0  0
    2.6552   -1.6498    3.4428 H   0  0  0  0  0  0  0  0  0  0  0  0
    2.7482   -0.6501    1.9386 H   0  0  0  0  0  0  0  0  0  0  0  0
    0.5981   -1.8626    1.2584 H   0  0  0  0  0  0  0  0  0  0  0  0
   -1.8603   -1.8172    1.3557 H   0  0  0  0  0  0  0  0  0  0  0  0
   -0.8470   -1.7227    8.2346 H   0  0  0  0  0  0  0  0  0  0  0  0
    0.5504   -0.0482    9.3418 H   0  0  0  0  0  0  0  0  0  0  0  0
    0.5833    0.9213   12.2723 H   0  0  0  0  0  0  0  0  0  0  0  0
    0.6104    1.9762   10.8038 H   0  0  0  0  0  0  0  0  0  0  0  0
   -0.6539    2.2219   12.0565 H   0  0  0  0  0  0  0  0  0  0  0  0
   -2.5956    0.7099   12.1877 H   0  0  0  0  0  0  0  0  0  0  0  0
   -4.0168   -0.9457   11.0606 H   0  0  0  0  0  0  0  0  0  0  0  0
   -5.8595   -3.2830    8.2472 H   0  0  0  0  0  0  0  0  0  0  0  0
   -7.2803   -4.8447    9.4962 H   0  0  0  0  0  0  0  0  0  0  0  0
   -6.6449   -7.1050   11.3599 H   0  0  0  0  0  0  0  0  0  0  0  0
   -7.7897   -5.7833   11.8163 H   0  0  0  0  0  0  0  0  0  0  0  0
   -6.4187   -6.1954   12.9056 H   0  0  0  0  0  0  0  0  0  0  0  0
   -4.2270   -5.2131   12.5155 H   0  0  0  0  0  0  0  0  0  0  0  0
   -2.7932   -3.6687   11.2603 H   0  0  0  0  0  0  0  0  0  0  0  0
   -2.3659   -5.2176    8.0887 H   0  0  0  0  0  0  0  0  0  0  0  0
    2.5253   -4.0642    4.3054 H   0  0  0  0  0  0  0  0  0  0  0  0
    3.7736   -8.1363    5.0056 H   0  0  0  0  0  0  0  0  0  0  0  0
    2.0136   -8.4038    6.6967 H   0  0  0  0  0  0  0  0  0  0  0  0
  1  2  2  3
  2  3  1  0
  3  4  2  0
  3  5  1  0
  5  6  2  0
  6  7  1  0
  7  8  2  0
  8  9  1  0
  9 10  2  0
 10 11  1  0
 11 12  2  3
 12 13  1  0
 13 14  3  0
 12 15  1  0
 15 16  3  0
  8 17  1  0
 17 18  1  0
 18 19  1  0
 19 20  2  0
 20 21  1  0
 21 22  1  0
 21 23  1  0
  1 24  1  0
 24 25  2  0
 25 26  1  0
 26 27  1  0
 27 28  2  0
 28 29  1  0
 29 30  2  0
 30 31  1  0
 30 32  1  0
 32 33  2  0
 26 34  1  0
 34 35  2  0
 35 36  1  0
 36 37  2  0
 37 38  1  0
 37 39  1  0
 39 40  2  0
 25 41  1  0
 41 42  1  0
 42 43  1  0
 43 44  2  0
 44 45  1  0
 45 46  1  0
 46 47  2  0
 47 48  1  0
 48 49  2  0
 49 50  1  0
 49 51  1  0
 51 52  2  0
 45 53  1  0
 53 54  2  0
 54 55  1  0
 55 56  2  0
 56 57  1  0
 56 58  1  0
 58 59  2  0
 44 60  1  0
 60 61  1  0
 43 62  1  0
 62 63  2  0
 63 64  1  0
 64 65  2  0
 65 66  1  0
 66 67  2  0
 67 68  1  0
 68 69  1  0
 69 70  1  0
 68 71  2  0
 63 72  1  0
 72 73  1  0
 73 74  1  0
 74 75  1  0
 75 76  1  0
 76 77  1  0
 77 78  2  0
 78 79  1  0
 79 80  1  0
 77 81  1  0
 81 82  1  0
 82 83  1  0
 83 84  1  0
 84 85  1  0
 85 86  1  0
 86 87  2  0
 87 88  1  0
 88 89  2  0
 89 90  1  0
 90 91  1  0
 91 92  1  0
 90 93  2  0
 85 94  2  0
 94 95  1  0
 95 96  1  0
 96 97  1  0
 97 98  1  0
 98 99  1  0
 99100  1  0
100101  1  0
101102  1  0
102103  1  0
103104  1  0
101105  1  0
105106  1  0
 98107  1  0
107108  1  0
 94109  1  0
109110  2  0
110111  1  0
111112  1  0
112113  2  0
113114  1  0
114115  2  0
115116  1  0
115117  1  0
117118  2  0
111119  1  0
119120  2  0
120121  1  0
121122  2  0
122123  1  0
122124  1  0
124125  2  0
110126  1  0
126127  1  0
127128  1  0
128129  2  0
129130  1  0
130131  1  0
131132  2  0
132133  1  0
133134  2  0
134135  1  0
134136  1  0
136137  2  0
130138  1  0
138139  2  0
139140  1  0
140141  2  0
141142  1  0
141143  1  0
143144  2  0
129145  1  0
145146  1  0
128147  1  0
147148  2  3
148149  1  0
149150  2  0
149151  1  0
151152  2  0
152153  1  0
153154  1  0
153155  2  0
155156  1  0
156157  2  0
157158  1  0
158159  2  3
159160  1  0
160161  3  0
159162  1  0
162163  3  0
 11  2  1  0
 23 17  1  0
 61 24  1  0
104 62  1  0
146109  1  0
158148  1  0
 10  5  1  0
 22 18  1  0
 33 27  1  0
 40 34  1  0
 60 41  2  0
 71 64  1  0
103 72  2  0
118112  1  0
125119  1  0
145126  2  0
157151  1  0
 23  7  1  0
 52 46  1  0
 59 53  1  0
102 74  2  0
137131  1  0
144138  1  0
100 75  2  0
 80 76  2  0
 99 81  2  0
 97 82  2  0
 96 84  2  0
 93 86  1  0
  1164  1  0
  6165  1  0
  9166  1  0
 17167  1  0
 18168  1  0
 19169  1  0
 20170  1  0
 21171  1  0
 22172  1  0
 22173  1  0
 23174  1  0
 28175  1  0
 29176  1  0
 31177  1  0
 31178  1  0
 31179  1  0
 32180  1  0
 33181  1  0
 35182  1  0
 36183  1  0
 38184  1  0
 38185  1  0
 38186  1  0
 39187  1  0
 40188  1  0
 47189  1  0
 48190  1  0
 50191  1  0
 50192  1  0
 50193  1  0
 51194  1  0
 52195  1  0
 54196  1  0
 55197  1  0
 57198  1  0
 57199  1  0
 57200  1  0
 58201  1  0
 59202  1  0
 65203  1  0
 66204  1  0
 67205  1  0
 69206  1  0
 69207  1  0
 70208  1  0
 70209  1  0
 70210  1  0
 71211  1  0
 87212  1  0
 88213  1  0
 89214  1  0
 91215  1  0
 91216  1  0
 92217  1  0
 92218  1  0
 92219  1  0
 93220  1  0
105221  1  0
105222  1  0
106223  1  0
106224  1  0
106225  1  0
107226  1  0
107227  1  0
108228  1  0
108229  1  0
108230  1  0
113231  1  0
114232  1  0
116233  1  0
116234  1  0
116235  1  0
117236  1  0
118237  1  0
120238  1  0
121239  1  0
123240  1  0
123241  1  0
123242  1  0
124243  1  0
125244  1  0
132245  1  0
133246  1  0
135247  1  0
135248  1  0
135249  1  0
136250  1  0
137251  1  0
139252  1  0
140253  1  0
142254  1  0
142255  1  0
142256  1  0
143257  1  0
144258  1  0
147259  1  0
152260  1  0
155261  1  0
156262  1  0
M  END

