
     RDKit          3D

234261  0  0  0  0  0  0  0  0999 V2000
   -7.8611   -3.4766    0.1764 C   0  0  0  0  0  0  0  0  0  0  0  0
   -6.7424   -3.6271   -0.5637 C   0  0  0  0  0  0  0  0  0  0  0  0
   -6.7504   -4.2603   -1.8829 C   0  0  0  0  0  0  0  0  0  0  0  0
   -7.6255   -5.0541   -2.3172 O   0  0  0  0  0  0  0  0  0  0  0  0
   -5.6595   -3.7063   -2.6663 C   0  0  0  0  0  0  0  0  0  0  0  0
   -5.4152   -3.8856   -4.0484 C   0  0  0  0  0  0  0  0  0  0  0  0
   -4.4265   -3.0531   -4.5511 C   0  0  0  0  0  0  0  0  0  0  0  0
   -3.7230   -2.0976   -3.7498 C   0  0  0  0  0  0  0  0  0  0  0  0
   -3.9471   -1.9281   -2.3971 C   0  0  0  0  0  0  0  0  0  0  0  0
   -4.9423   -2.7882   -1.8574 C   0  0  0  0  0  0  0  0  0  0  0  0
   -5.4790   -2.8345   -0.4760 C   0  0  0  0  0  0  0  0  0  0  0  0
   -4.7293   -2.6621    0.6381 C   0  0  0  0  0  0  0  0  0  0  0  0
   -3.5322   -1.8614    0.6495 C   0  0  0  0  0  0  0  0  0  0  0  0
   -2.5758   -1.2079    0.6761 N   0  0  0  0  0  0  0  0  0  0  0  0
   -4.9304   -3.4819    1.8022 C   0  0  0  0  0  0  0  0  0  0  0  0
   -5.0609   -4.1598    2.7320 N   0  0  0  0  0  0  0  0  0  0  0  0
   -2.9644   -1.6166   -4.9514 C   0  0  0  0  0  0  0  0  0  0  0  0
   -1.4691   -2.0374   -5.0791 C   0  0  0  0  0  0  0  0  0  0  0  0
   -1.2490   -3.3801   -4.4188 C   0  0  0  0  0  0  0  0  0  0  0  0
   -1.8950   -4.2763   -5.1623 C   0  0  0  0  0  0  0  0  0  0  0  0
   -2.5295   -3.5195   -6.3038 C   0  0  0  0  0  0  0  0  0  0  0  0
   -1.4477   -2.4787   -6.5292 C   0  0  0  0  0  0  0  0  0  0  0  0
   -3.6738   -2.6053   -5.7702 C   0  0  0  0  0  0  0  0  0  0  0  0
   -8.0005   -2.4662    1.2407 C   0  0  0  0  0  0  0  0  0  0  0  0
   -7.7003   -1.0863    1.1461 C   0  0  0  0  0  0  0  0  0  0  0  0
   -7.7647   -0.2562   -0.0429 N   0  0  0  0  0  0  0  0  0  0  0  0
   -7.9724    1.1576    0.1220 C   0  0  0  0  0  0  0  0  0  0  0  0
   -9.1379    1.6298    0.7438 C   0  0  0  0  0  0  0  0  0  0  0  0
   -9.3656    3.0014    0.8793 C   0  0  0  0  0  0  0  0  0  0  0  0
   -8.4288    3.9231    0.3823 C   0  0  0  0  0  0  0  0  0  0  0  0
   -8.6730    5.3934    0.5218 C   0  0  0  0  0  0  0  0  0  0  0  0
   -7.2422    3.4526   -0.1991 C   0  0  0  0  0  0  0  0  0  0  0  0
   -7.0131    2.0800   -0.3307 C   0  0  0  0  0  0  0  0  0  0  0  0
   -8.0377   -0.7803   -1.3531 C   0  0  0  0  0  0  0  0  0  0  0  0
   -9.2508   -1.4301   -1.6259 C   0  0  0  0  0  0  0  0  0  0  0  0
   -9.5101   -1.9265   -2.9106 C   0  0  0  0  0  0  0  0  0  0  0  0
   -8.5792   -1.7389   -3.9409 C   0  0  0  0  0  0  0  0  0  0  0  0
   -8.8019   -2.3457   -5.2947 C   0  0  0  0  0  0  0  0  0  0  0  0
   -7.3919   -1.0370   -3.6812 C   0  0  0  0  0  0  0  0  0  0  0  0
   -7.1312   -0.5526   -2.3986 C   0  0  0  0  0  0  0  0  0  0  0  0
   -7.3083   -0.5882    2.3939 C   0  0  0  0  0  0  0  0  0  0  0  0
   -6.1206    0.5395    2.7098 S   0  0  0  0  0  0  0  0  0  0  0  0
   -5.7166   -0.0444    4.2478 C   0  0  0  0  0  0  0  0  0  0  0  0
   -6.5513   -1.1451    4.5367 C   0  0  0  0  0  0  0  0  0  0  0  0
   -6.5018   -1.8864    5.7783 N   0  0  0  0  0  0  0  0  0  0  0  0
   -7.0033   -1.3053    7.0093 C   0  0  0  0  0  0  0  0  0  0  0  0
   -7.0150    0.0944    7.2114 C   0  0  0  0  0  0  0  0  0  0  0  0
   -7.5126    0.6437    8.3931 C   0  0  0  0  0  0  0  0  0  0  0  0
   -8.0378   -0.1862    9.3952 C   0  0  0  0  0  0  0  0  0  0  0  0
   -8.5659    0.4005   10.6709 C   0  0  0  0  0  0  0  0  0  0  0  0
   -8.0108   -1.5743    9.2191 C   0  0  0  0  0  0  0  0  0  0  0  0
   -7.5000   -2.1292    8.0404 C   0  0  0  0  0  0  0  0  0  0  0  0
   -5.9565   -3.2212    5.7960 C   0  0  0  0  0  0  0  0  0  0  0  0
   -4.6263   -3.4285    6.1926 C   0  0  0  0  0  0  0  0  0  0  0  0
   -4.0763   -4.7144    6.1743 C   0  0  0  0  0  0  0  0  0  0  0  0
   -4.8666   -5.8137    5.7976 C   0  0  0  0  0  0  0  0  0  0  0  0
   -4.2783   -7.1900    5.7159 C   0  0  0  0  0  0  0  0  0  0  0  0
   -6.2230   -5.6191    5.5098 C   0  0  0  0  0  0  0  0  0  0  0  0
   -6.7689   -4.3330    5.5247 C   0  0  0  0  0  0  0  0  0  0  0  0
   -7.3998   -1.4430    3.4531 C   0  0  0  0  0  0  0  0  0  0  0  0
   -7.9525   -2.9164    2.8778 S   0  0  0  0  0  0  0  0  0  0  0  0
   -4.3219    0.0304    4.6863 C   0  0  0  0  0  0  0  0  0  0  0  0
   -3.6111    1.1765    5.1063 C   0  0  0  0  0  0  0  0  0  0  0  0
   -4.2092    2.5017    5.3272 C   0  0  0  0  0  0  0  0  0  0  0  0
   -4.2747    3.0371    6.6185 C   0  0  0  0  0  0  0  0  0  0  0  0
   -4.8956    4.2708    6.8365 C   0  0  0  0  0  0  0  0  0  0  0  0
   -5.4618    4.9713    5.7648 C   0  0  0  0  0  0  0  0  0  0  0  0
   -5.3951    4.4449    4.4650 C   0  0  0  0  0  0  0  0  0  0  0  0
   -6.0189    5.1777    3.3078 C   0  0  0  0  0  0  0  0  0  0  0  0
   -4.9825    6.0037    2.5544 C   0  0  0  0  0  0  0  0  0  0  0  0
   -4.7359    3.2272    4.2480 C   0  0  0  0  0  0  0  0  0  0  0  0
   -2.2312    0.9309    5.1174 C   0  0  0  0  0  0  0  0  0  0  0  0
   -0.8361    1.9051    5.3281 S   0  0  0  0  0  0  0  0  0  0  0  0
    0.1738    0.6273    4.8271 C   0  0  0  0  0  0  0  0  0  0  0  0
    1.4895    0.3407    4.5571 C   0  0  0  0  0  0  0  0  0  0  0  0
    2.6751    1.0518    4.7635 C   0  0  0  0  0  0  0  0  0  0  0  0
    3.9118    0.4412    4.3824 C   0  0  0  0  0  0  0  0  0  0  0  0
    5.0342    1.1778    4.5726 N   0  0  0  0  0  0  0  0  0  0  0  0
    4.3736    2.5459    5.2374 S   0  0  0  0  0  0  0  0  0  0  0  0
    2.7348    2.2964    5.2972 N   0  0  0  0  0  0  0  0  0  0  0  0
    3.8909   -0.8239    3.7665 C   0  0  0  0  0  0  0  0  0  0  0  0
    4.8447   -1.4264    2.9855 C   0  0  0  0  0  0  0  0  0  0  0  0
    6.2981   -0.8657    2.3137 S   0  0  0  0  0  0  0  0  0  0  0  0
    6.0851   -1.7900    0.9075 C   0  0  0  0  0  0  0  0  0  0  0  0
    6.6481   -1.6658   -0.3688 C   0  0  0  0  0  0  0  0  0  0  0  0
    7.8301   -0.8404   -0.6901 C   0  0  0  0  0  0  0  0  0  0  0  0
    8.9059   -1.4153   -1.3848 C   0  0  0  0  0  0  0  0  0  0  0  0
    9.9951   -0.6322   -1.7721 C   0  0  0  0  0  0  0  0  0  0  0  0
   10.0249    0.7282   -1.4647 C   0  0  0  0  0  0  0  0  0  0  0  0
    8.9582    1.3185   -0.7708 C   0  0  0  0  0  0  0  0  0  0  0  0
    8.9979    2.7815   -0.4225 C   0  0  0  0  0  0  0  0  0  0  0  0
    9.5720    2.9850    0.9747 C   0  0  0  0  0  0  0  0  0  0  0  0
    7.8709    0.5254   -0.3705 C   0  0  0  0  0  0  0  0  0  0  0  0
    5.8252   -2.2464   -1.3573 C   0  0  0  0  0  0  0  0  0  0  0  0
    4.4485   -2.8993   -0.6058 S   0  0  0  0  0  0  0  0  0  0  0  0
    4.8934   -2.4762    0.9539 C   0  0  0  0  0  0  0  0  0  0  0  0
    4.1832   -2.2790    2.1427 C   0  0  0  0  0  0  0  0  0  0  0  0
    2.8466   -2.3235    2.3971 N   0  0  0  0  0  0  0  0  0  0  0  0
    2.6849   -1.4722    3.4618 C   0  0  0  0  0  0  0  0  0  0  0  0
    1.4831   -0.9412    3.9901 C   0  0  0  0  0  0  0  0  0  0  0  0
    0.2313   -1.4868    4.0221 N   0  0  0  0  0  0  0  0  0  0  0  0
   -0.5300   -0.4805    4.5032 C   0  0  0  0  0  0  0  0  0  0  0  0
   -1.8844   -0.3239    4.6840 C   0  0  0  0  0  0  0  0  0  0  0  0
   -3.2287   -1.1959    4.2458 S   0  0  0  0  0  0  0  0  0  0  0  0
   -0.1295   -2.9094    4.0296 C   0  0  0  0  0  0  0  0  0  0  0  0
   -0.4906   -3.3845    5.4364 C   0  0  0  0  0  0  0  0  0  0  0  0
    1.8310   -2.6849    1.3952 C   0  0  0  0  0  0  0  0  0  0  0  0
    1.8154   -4.1940    1.1317 C   0  0  0  0  0  0  0  0  0  0  0  0
    5.7662   -1.7199   -2.7324 C   0  0  0  0  0  0  0  0  0  0  0  0
    4.9798   -0.5730   -2.9805 C   0  0  0  0  0  0  0  0  0  0  0  0
    4.1349   -0.1105   -1.9624 O   0  0  0  0  0  0  0  0  0  0  0  0
    4.2100    1.2037   -1.4172 C   0  0  0  0  0  0  0  0  0  0  0  0
    3.5637    1.2128   -0.0393 C   0  0  0  0  0  0  0  0  0  0  0  0
    5.0714    0.1006   -4.2211 C   0  0  0  0  0  0  0  0  0  0  0  0
    4.2641    1.2090   -4.4951 O   0  0  0  0  0  0  0  0  0  0  0  0
    2.8614    1.0798   -4.7020 C   0  0  0  0  0  0  0  0  0  0  0  0
    2.2584    2.4464   -4.9792 C   0  0  0  0  0  0  0  0  0  0  0  0
    5.9891   -0.3281   -5.1920 C   0  0  0  0  0  0  0  0  0  0  0  0
    6.7278   -1.4992   -4.9688 C   0  0  0  0  0  0  0  0  0  0  0  0
    6.6103   -2.2022   -3.7372 C   0  0  0  0  0  0  0  0  0  0  0  0
    7.3769   -3.3154   -3.5956 N   0  0  0  0  0  0  0  0  0  0  0  0
    8.1590   -3.3244   -5.0511 S   0  0  0  0  0  0  0  0  0  0  0  0
    7.6047   -2.0048   -5.8783 N   0  0  0  0  0  0  0  0  0  0  0  0
    6.2009    0.4825   -6.4005 C   0  0  0  0  0  0  0  0  0  0  0  0
    7.2352    1.3353   -6.5206 C   0  0  0  0  0  0  0  0  0  0  0  0
    8.3572    1.4491   -5.5794 C   0  0  0  0  0  0  0  0  0  0  0  0
    8.4015    0.9903   -4.4055 O   0  0  0  0  0  0  0  0  0  0  0  0
    9.4326    2.1633   -6.2266 C   0  0  0  0  0  0  0  0  0  0  0  0
   10.7439    2.3582   -5.7317 C   0  0  0  0  0  0  0  0  0  0  0  0
   11.5968    2.9705   -6.6289 C   0  0  0  0  0  0  0  0  0  0  0  0
   11.1954    3.3633   -7.9452 C   0  0  0  0  0  0  0  0  0  0  0  0
    9.9139    3.1722   -8.4375 C   0  0  0  0  0  0  0  0  0  0  0  0
    9.0075    2.5708   -7.5180 C   0  0  0  0  0  0  0  0  0  0  0  0
    7.5813    2.1789   -7.7059 C   0  0  0  0  0  0  0  0  0  0  0  0
    6.7138    2.7054   -8.6092 C   0  0  0  0  0  0  0  0  0  0  0  0
    5.2945    2.4577   -8.5541 C   0  0  0  0  0  0  0  0  0  0  0  0
    4.1562    2.2591   -8.5134 N   0  0  0  0  0  0  0  0  0  0  0  0
    7.1137    3.6792   -9.5899 C   0  0  0  0  0  0  0  0  0  0  0  0
    7.4131    4.4710  -10.3798 N   0  0  0  0  0  0  0  0  0  0  0  0
   12.5746    3.8770   -8.2335 C   0  0  0  0  0  0  0  0  0  0  0  0
   12.7949    5.4189   -8.2353 C   0  0  0  0  0  0  0  0  0  0  0  0
   11.8322    6.0784   -7.2740 C   0  0  0  0  0  0  0  0  0  0  0  0
   12.2099    5.7170   -6.0470 C   0  0  0  0  0  0  0  0  0  0  0  0
   13.4109    4.8169   -6.2147 C   0  0  0  0  0  0  0  0  0  0  0  0
   14.0599    5.5038   -7.4013 C   0  0  0  0  0  0  0  0  0  0  0  0
   12.9865    3.4733   -6.8840 C   0  0  0  0  0  0  0  0  0  0  0  0
   -8.7316   -4.0876   -0.0416 H   0  0  0  0  0  0  0  0  0  0  0  0
   -5.9816   -4.5624   -4.6713 H   0  0  0  0  0  0  0  0  0  0  0  0
   -3.4412   -1.1547   -1.8393 H   0  0  0  0  0  0  0  0  0  0  0  0
   -3.1831   -0.5631   -5.2342 H   0  0  0  0  0  0  0  0  0  0  0  0
   -0.7274   -1.2566   -4.8085 H   0  0  0  0  0  0  0  0  0  0  0  0
   -0.6340   -3.5934   -3.5504 H   0  0  0  0  0  0  0  0  0  0  0  0
   -1.8944   -5.3481   -5.0036 H   0  0  0  0  0  0  0  0  0  0  0  0
   -2.7941   -4.1377   -7.1866 H   0  0  0  0  0  0  0  0  0  0  0  0
   -1.7448   -1.6772   -7.2449 H   0  0  0  0  0  0  0  0  0  0  0  0
   -0.4713   -2.9173   -6.8465 H   0  0  0  0  0  0  0  0  0  0  0  0
   -4.3208   -2.1541   -6.5570 H   0  0  0  0  0  0  0  0  0  0  0  0
   -9.8731    0.9278    1.1166 H   0  0  0  0  0  0  0  0  0  0  0  0
  -10.2714    3.3470    1.3589 H   0  0  0  0  0  0  0  0  0  0  0  0
   -9.7573    5.6201    0.4343 H   0  0  0  0  0  0  0  0  0  0  0  0
   -8.1418    5.9560   -0.2773 H   0  0  0  0  0  0  0  0  0  0  0  0
   -8.3126    5.7455    1.5110 H   0  0  0  0  0  0  0  0  0  0  0  0
   -6.4966    4.1520   -0.5621 H   0  0  0  0  0  0  0  0  0  0  0  0
   -6.0874    1.7395   -0.7704 H   0  0  0  0  0  0  0  0  0  0  0  0
   -9.9808   -1.5682   -0.8406 H   0  0  0  0  0  0  0  0  0  0  0  0
  -10.4282   -2.4712   -3.0892 H   0  0  0  0  0  0  0  0  0  0  0  0
   -8.3824   -1.6914   -6.0884 H   0  0  0  0  0  0  0  0  0  0  0  0
   -9.8862   -2.4840   -5.4947 H   0  0  0  0  0  0  0  0  0  0  0  0
   -8.2956   -3.3328   -5.3366 H   0  0  0  0  0  0  0  0  0  0  0  0
   -6.6567   -0.8920   -4.4609 H   0  0  0  0  0  0  0  0  0  0  0  0
   -6.1957   -0.0385   -2.2130 H   0  0  0  0  0  0  0  0  0  0  0  0
   -6.6288    0.7751    6.4701 H   0  0  0  0  0  0  0  0  0  0  0  0
   -7.4976    1.7206    8.5254 H   0  0  0  0  0  0  0  0  0  0  0  0
   -8.9098    1.4441   10.5149 H   0  0  0  0  0  0  0  0  0  0  0  0
   -9.4289   -0.1971   11.0398 H   0  0  0  0  0  0  0  0  0  0  0  0
   -7.7650    0.3919   11.4390 H   0  0  0  0  0  0  0  0  0  0  0  0
   -8.3938   -2.2306    9.9915 H   0  0  0  0  0  0  0  0  0  0  0  0
   -7.5102   -3.2054    7.9370 H   0  0  0  0  0  0  0  0  0  0  0  0
   -4.0180   -2.5942    6.5190 H   0  0  0  0  0  0  0  0  0  0  0  0
   -3.0409   -4.8524    6.4549 H   0  0  0  0  0  0  0  0  0  0  0  0
   -4.7566   -7.8494    6.4711 H   0  0  0  0  0  0  0  0  0  0  0  0
   -3.1815   -7.1797    5.8916 H   0  0  0  0  0  0  0  0  0  0  0  0
   -4.4638   -7.6090    4.7036 H   0  0  0  0  0  0  0  0  0  0  0  0
   -6.8568   -6.4614    5.2630 H   0  0  0  0  0  0  0  0  0  0  0  0
   -7.8266   -4.1994    5.3320 H   0  0  0  0  0  0  0  0  0  0  0  0
   -3.8600    2.4944    7.4578 H   0  0  0  0  0  0  0  0  0  0  0  0
   -4.9534    4.6788    7.8358 H   0  0  0  0  0  0  0  0  0  0  0  0
   -5.9574    5.9168    5.9490 H   0  0  0  0  0  0  0  0  0  0  0  0
   -6.4738    4.4444    2.6066 H   0  0  0  0  0  0  0  0  0  0  0  0
   -6.8331    5.8461    3.6634 H   0  0  0  0  0  0  0  0  0  0  0  0
   -4.1939    5.3433    2.1367 H   0  0  0  0  0  0  0  0  0  0  0  0
   -5.4783    6.5387    1.7132 H   0  0  0  0  0  0  0  0  0  0  0  0
   -4.5194    6.7516    3.2313 H   0  0  0  0  0  0  0  0  0  0  0  0
   -4.6390    2.8430    3.2412 H   0  0  0  0  0  0  0  0  0  0  0  0
    8.9079   -2.4694   -1.6180 H   0  0  0  0  0  0  0  0  0  0  0  0
   10.8198   -1.0832   -2.3095 H   0  0  0  0  0  0  0  0  0  0  0  0
   10.8778    1.3235   -1.7689 H   0  0  0  0  0  0  0  0  0  0  0  0
    9.6211    3.3337   -1.1602 H   0  0  0  0  0  0  0  0  0  0  0  0
    7.9730    3.2128   -0.4668 H   0  0  0  0  0  0  0  0  0  0  0  0
   10.5813    2.5288    1.0485 H   0  0  0  0  0  0  0  0  0  0  0  0
    8.9056    2.5256    1.7351 H   0  0  0  0  0  0  0  0  0  0  0  0
    9.6557    4.0723    1.1863 H   0  0  0  0  0  0  0  0  0  0  0  0
    7.0507    0.9755    0.1741 H   0  0  0  0  0  0  0  0  0  0  0  0
   -0.9817   -3.0835    3.3391 H   0  0  0  0  0  0  0  0  0  0  0  0
    0.7306   -3.5219    3.7098 H   0  0  0  0  0  0  0  0  0  0  0  0
    0.3648   -3.2195    6.1242 H   0  0  0  0  0  0  0  0  0  0  0  0
   -0.7269   -4.4696    5.4116 H   0  0  0  0  0  0  0  0  0  0  0  0
   -1.3784   -2.8467    5.8241 H   0  0  0  0  0  0  0  0  0  0  0  0
    2.0426   -2.1395    0.4516 H   0  0  0  0  0  0  0  0  0  0  0  0
    0.8211   -2.3466    1.6843 H   0  0  0  0  0  0  0  0  0  0  0  0
    1.2203   -4.4004    0.2184 H   0  0  0  0  0  0  0  0  0  0  0  0
    2.8387   -4.5867    0.9867 H   0  0  0  0  0  0  0  0  0  0  0  0
    1.3553   -4.7417    1.9780 H   0  0  0  0  0  0  0  0  0  0  0  0
    5.2730    1.5119   -1.3172 H   0  0  0  0  0  0  0  0  0  0  0  0
    3.6904    1.9319   -2.0769 H   0  0  0  0  0  0  0  0  0  0  0  0
    3.6730    2.2147    0.4248 H   0  0  0  0  0  0  0  0  0  0  0  0
    4.0534    0.4633    0.6186 H   0  0  0  0  0  0  0  0  0  0  0  0
    2.4826    0.9668   -0.1228 H   0  0  0  0  0  0  0  0  0  0  0  0
    2.6731    0.4111   -5.5680 H   0  0  0  0  0  0  0  0  0  0  0  0
    2.3783    0.6467   -3.8044 H   0  0  0  0  0  0  0  0  0  0  0  0
    2.7080    2.8839   -5.8957 H   0  0  0  0  0  0  0  0  0  0  0  0
    2.4491    3.1258   -4.1207 H   0  0  0  0  0  0  0  0  0  0  0  0
    1.1601    2.3490   -5.1208 H   0  0  0  0  0  0  0  0  0  0  0  0
    5.4844    0.3518   -7.1924 H   0  0  0  0  0  0  0  0  0  0  0  0
   11.0613    2.0404   -4.7473 H   0  0  0  0  0  0  0  0  0  0  0  0
    9.6681    3.4419   -9.4543 H   0  0  0  0  0  0  0  0  0  0  0  0
   13.1100    3.3286   -9.0409 H   0  0  0  0  0  0  0  0  0  0  0  0
   12.8544    5.8909   -9.2378 H   0  0  0  0  0  0  0  0  0  0  0  0
   11.0338    6.7684   -7.5183 H   0  0  0  0  0  0  0  0  0  0  0  0
   11.7780    6.0685   -5.1174 H   0  0  0  0  0  0  0  0  0  0  0  0
   14.0502    4.7107   -5.3123 H   0  0  0  0  0  0  0  0  0  0  0  0
   14.3800    6.5550   -7.1827 H   0  0  0  0  0  0  0  0  0  0  0  0
   14.9143    4.9340   -7.8305 H   0  0  0  0  0  0  0  0  0  0  0  0
   13.7589    2.6735   -6.8729 H   0  0  0  0  0  0  0  0  0  0  0  0
  1  2  2  3
  2  3  1  0
  3  4  2  0
  3  5  1  0
  5  6  2  0
  6  7  1  0
  7  8  2  0
  8  9  1  0
  9 10  2  0
 10 11  1  0
 11 12  2  3
 12 13  1  0
 13 14  3  0
 12 15  1  0
 15 16  3  0
  8 17  1  0
 17 18  1  0
 18 19  1  0
 19 20  2  0
 20 21  1  0
 21 22  1  0
 21 23  1  0
  1 24  1  0
 24 25  2  0
 25 26  1  0
 26 27  1  0
 27 28  2  0
 28 29  1  0
 29 30  2  0
 30 31  1  0
 30 32  1  0
 32 33  2  0
 26 34  1  0
 34 35  2  0
 35 36  1  0
 36 37  2  0
 37 38  1  0
 37 39  1  0
 39 40  2  0
 25 41  1  0
 41 42  1  0
 42 43  1  0
 43 44  2  0
 44 45  1  0
 45 46  1  0
 46 47  2  0
 47 48  1  0
 48 49  2  0
 49 50  1  0
 49 51  1  0
 51 52  2  0
 45 53  1  0
 53 54  2  0
 54 55  1  0
 55 56  2  0
 56 57  1  0
 56 58  1  0
 58 59  2  0
 44 60  1  0
 60 61  1  0
 43 62  1  0
 62 63  2  0
 63 64  1  0
 64 65  2  0
 65 66  1  0
 66 67  2  0
 67 68  1  0
 68 69  1  0
 69 70  1  0
 68 71  2  0
 63 72  1  0
 72 73  1  0
 73 74  1  0
 74 75  1  0
 75 76  1  0
 76 77  1  0
 77 78  2  0
 78 79  1  0
 79 80  1  0
 77 81  1  0
 81 82  1  0
 82 83  1  0
 83 84  1  0
 84 85  1  0
 85 86  1  0
 86 87  2  0
 87 88  1  0
 88 89  2  0
 89 90  1  0
 90 91  1  0
 91 92  1  0
 90 93  2  0
 85 94  2  0
 94 95  1  0
 95 96  1  0
 96 97  1  0
 97 98  1  0
 98 99  1  0
 99100  1  0
100101  1  0
101102  1  0
102103  1  0
103104  1  0
101105  1  0
105106  1  0
 98107  1  0
107108  1  0
 94109  1  0
109110  2  0
110111  1  0
111112  1  0
112113  1  0
110114  1  0
114115  1  0
115116  1  0
116117  1  0
114118  2  0
118119  1  0
119120  1  0
120121  2  0
121122  1  0
122123  1  0
118124  1  0
124125  2  3
125126  1  0
126127  2  0
126128  1  0
128129  2  0
129130  1  0
130131  2  0
131132  1  0
132133  2  0
133134  1  0
134135  2  3
135136  1  0
136137  3  0
135138  1  0
138139  3  0
131140  1  0
140141  1  0
141142  1  0
142143  2  0
143144  1  0
144145  1  0
144146  1  0
 11  2  1  0
 23 17  1  0
 61 24  1  0
104 62  1  0
120109  1  0
134125  1  0
146140  1  0
 10  5  1  0
 22 18  1  0
 33 27  1  0
 40 34  1  0
 60 41  2  0
 71 64  1  0
103 72  2  0
123119  2  0
133128  1  0
145141  1  0
 23  7  1  0
 52 46  1  0
 59 53  1  0
102 74  2  0
146130  1  0
100 75  2  0
 80 76  2  0
 99 81  2  0
 97 82  2  0
 96 84  2  0
 93 86  1  0
  1147  1  0
  6148  1  0
  9149  1  0
 17150  1  0
 18151  1  0
 19152  1  0
 20153  1  0
 21154  1  0
 22155  1  0
 22156  1  0
 23157  1  0
 28158  1  0
 29159  1  0
 31160  1  0
 31161  1  0
 31162  1  0
 32163  1  0
 33164  1  0
 35165  1  0
 36166  1  0
 38167  1  0
 38168  1  0
 38169  1  0
 39170  1  0
 40171  1  0
 47172  1  0
 48173  1  0
 50174  1  0
 50175  1  0
 50176  1  0
 51177  1  0
 52178  1  0
 54179  1  0
 55180  1  0
 57181  1  0
 57182  1  0
 57183  1  0
 58184  1  0
 59185  1  0
 65186  1  0
 66187  1  0
 67188  1  0
 69189  1  0
 69190  1  0
 70191  1  0
 70192  1  0
 70193  1  0
 71194  1  0
 87195  1  0
 88196  1  0
 89197  1  0
 91198  1  0
 91199  1  0
 92200  1  0
 92201  1  0
 92202  1  0
 93203  1  0
105204  1  0
105205  1  0
106206  1  0
106207  1  0
106208  1  0
107209  1  0
107210  1  0
108211  1  0
108212  1  0
108213  1  0
112214  1  0
112215  1  0
113216  1  0
113217  1  0
113218  1  0
116219  1  0
116220  1  0
117221  1  0
117222  1  0
117223  1  0
124224  1  0
129225  1  0
132226  1  0
140227  1  0
141228  1  0
142229  1  0
143230  1  0
144231  1  0
145232  1  0
145233  1  0
146234  1  0
M  END

