
     RDKit          3D

225252  0  0  0  0  0  0  0  0999 V2000
   -4.5979   -5.6167    2.7787 C   0  0  0  0  0  0  0  0  0  0  0  0
   -5.6345   -6.4573    2.6230 C   0  0  0  0  0  0  0  0  0  0  0  0
   -5.9157   -7.4941    3.6191 C   0  0  0  0  0  0  0  0  0  0  0  0
   -5.0614   -8.0792    4.3373 O   0  0  0  0  0  0  0  0  0  0  0  0
   -7.3512   -7.6427    3.7332 C   0  0  0  0  0  0  0  0  0  0  0  0
   -8.0694   -8.4087    4.6801 C   0  0  0  0  0  0  0  0  0  0  0  0
   -9.4422   -8.2506    4.6007 C   0  0  0  0  0  0  0  0  0  0  0  0
  -10.0769   -7.3709    3.6610 C   0  0  0  0  0  0  0  0  0  0  0  0
   -9.3762   -6.6174    2.7308 C   0  0  0  0  0  0  0  0  0  0  0  0
   -7.9689   -6.7969    2.7766 C   0  0  0  0  0  0  0  0  0  0  0  0
   -6.9188   -6.1955    1.9222 C   0  0  0  0  0  0  0  0  0  0  0  0
   -7.0278   -6.0624    0.5772 C   0  0  0  0  0  0  0  0  0  0  0  0
   -8.3004   -6.1130   -0.0972 C   0  0  0  0  0  0  0  0  0  0  0  0
   -9.3145   -6.1700   -0.6481 N   0  0  0  0  0  0  0  0  0  0  0  0
   -5.8687   -6.1410   -0.2756 C   0  0  0  0  0  0  0  0  0  0  0  0
   -4.9407   -6.2171   -0.9642 N   0  0  0  0  0  0  0  0  0  0  0  0
  -11.4223   -7.7142    4.2240 C   0  0  0  0  0  0  0  0  0  0  0  0
  -12.0855   -6.6430    5.1402 C   0  0  0  0  0  0  0  0  0  0  0  0
  -13.2027   -7.3566    5.8632 C   0  0  0  0  0  0  0  0  0  0  0  0
  -12.6203   -8.1982    6.7263 C   0  0  0  0  0  0  0  0  0  0  0  0
  -11.1289   -8.0164    6.5612 C   0  0  0  0  0  0  0  0  0  0  0  0
  -11.1024   -6.5210    6.2943 C   0  0  0  0  0  0  0  0  0  0  0  0
  -10.7750   -8.6245    5.1746 C   0  0  0  0  0  0  0  0  0  0  0  0
   -4.6448   -4.1738    2.4753 C   0  0  0  0  0  0  0  0  0  0  0  0
   -4.2556   -3.1719    3.3775 C   0  0  0  0  0  0  0  0  0  0  0  0
   -3.5859   -3.4294    4.6199 N   0  0  0  0  0  0  0  0  0  0  0  0
   -2.2137   -3.9029    4.6165 C   0  0  0  0  0  0  0  0  0  0  0  0
   -1.3819   -3.6890    3.4983 C   0  0  0  0  0  0  0  0  0  0  0  0
   -0.0675   -4.1653    3.4841 C   0  0  0  0  0  0  0  0  0  0  0  0
    0.4427   -4.8675    4.5840 C   0  0  0  0  0  0  0  0  0  0  0  0
    1.8661   -5.3411    4.5912 C   0  0  0  0  0  0  0  0  0  0  0  0
   -0.3733   -5.0741    5.7044 C   0  0  0  0  0  0  0  0  0  0  0  0
   -1.6913   -4.6099    5.7177 C   0  0  0  0  0  0  0  0  0  0  0  0
   -4.3035   -3.1837    5.8427 C   0  0  0  0  0  0  0  0  0  0  0  0
   -3.7350   -2.3910    6.8534 C   0  0  0  0  0  0  0  0  0  0  0  0
   -4.4080   -2.2036    8.0637 C   0  0  0  0  0  0  0  0  0  0  0  0
   -5.6653   -2.7941    8.2743 C   0  0  0  0  0  0  0  0  0  0  0  0
   -6.3468   -2.6584    9.6035 C   0  0  0  0  0  0  0  0  0  0  0  0
   -6.2352   -3.5800    7.2627 C   0  0  0  0  0  0  0  0  0  0  0  0
   -5.5653   -3.7626    6.0494 C   0  0  0  0  0  0  0  0  0  0  0  0
   -4.3077   -1.9068    2.7987 C   0  0  0  0  0  0  0  0  0  0  0  0
   -3.6948   -0.4274    3.2609 S   0  0  0  0  0  0  0  0  0  0  0  0
   -3.9020    0.3038    1.7369 C   0  0  0  0  0  0  0  0  0  0  0  0
   -4.4070   -0.6590    0.8233 C   0  0  0  0  0  0  0  0  0  0  0  0
   -4.5154   -0.4963   -0.6150 N   0  0  0  0  0  0  0  0  0  0  0  0
   -3.6477    0.3932   -1.3335 C   0  0  0  0  0  0  0  0  0  0  0  0
   -4.1822    1.4905   -2.0261 C   0  0  0  0  0  0  0  0  0  0  0  0
   -3.3454    2.3353   -2.7575 C   0  0  0  0  0  0  0  0  0  0  0  0
   -1.9712    2.0709   -2.8422 C   0  0  0  0  0  0  0  0  0  0  0  0
   -1.0867    2.9916   -3.6301 C   0  0  0  0  0  0  0  0  0  0  0  0
   -1.4449    0.9403   -2.1934 C   0  0  0  0  0  0  0  0  0  0  0  0
   -2.2774    0.1159   -1.4313 C   0  0  0  0  0  0  0  0  0  0  0  0
   -5.3896   -1.3466   -1.3857 C   0  0  0  0  0  0  0  0  0  0  0  0
   -6.7423   -1.4822   -1.0355 C   0  0  0  0  0  0  0  0  0  0  0  0
   -7.5705   -2.3703   -1.7308 C   0  0  0  0  0  0  0  0  0  0  0  0
   -7.0533   -3.1339   -2.7915 C   0  0  0  0  0  0  0  0  0  0  0  0
   -7.9213   -4.1040   -3.5377 C   0  0  0  0  0  0  0  0  0  0  0  0
   -5.7121   -2.9800   -3.1610 C   0  0  0  0  0  0  0  0  0  0  0  0
   -4.8859   -2.0891   -2.4693 C   0  0  0  0  0  0  0  0  0  0  0  0
   -4.6502   -1.8734    1.4846 C   0  0  0  0  0  0  0  0  0  0  0  0
   -4.9523   -3.4446    0.9702 S   0  0  0  0  0  0  0  0  0  0  0  0
   -3.2134    1.5594    1.4152 C   0  0  0  0  0  0  0  0  0  0  0  0
   -3.7786    2.8442    1.2204 C   0  0  0  0  0  0  0  0  0  0  0  0
   -5.2182    3.1927    1.3743 C   0  0  0  0  0  0  0  0  0  0  0  0
   -5.5857    4.3457    2.0931 C   0  0  0  0  0  0  0  0  0  0  0  0
   -6.9314    4.6785    2.2696 C   0  0  0  0  0  0  0  0  0  0  0  0
   -7.9311    3.8616    1.7444 C   0  0  0  0  0  0  0  0  0  0  0  0
   -7.5894    2.6958    1.0438 C   0  0  0  0  0  0  0  0  0  0  0  0
   -8.6678    1.8129    0.4774 C   0  0  0  0  0  0  0  0  0  0  0  0
   -8.7787    1.9802   -1.0360 C   0  0  0  0  0  0  0  0  0  0  0  0
   -6.2344    2.3721    0.8567 C   0  0  0  0  0  0  0  0  0  0  0  0
   -2.7569    3.7994    1.0884 C   0  0  0  0  0  0  0  0  0  0  0  0
   -2.7144    5.4662    0.7007 S   0  0  0  0  0  0  0  0  0  0  0  0
   -1.0243    5.5082    0.8917 C   0  0  0  0  0  0  0  0  0  0  0  0
    0.0354    6.3158    0.5755 C   0  0  0  0  0  0  0  0  0  0  0  0
    0.1052    7.5024   -0.1707 C   0  0  0  0  0  0  0  0  0  0  0  0
    1.3837    7.9519   -0.6358 C   0  0  0  0  0  0  0  0  0  0  0  0
    1.4026    9.0744   -1.3962 N   0  0  0  0  0  0  0  0  0  0  0  0
   -0.2203    9.4096   -1.4394 S   0  0  0  0  0  0  0  0  0  0  0  0
   -0.9774    8.2262   -0.5563 N   0  0  0  0  0  0  0  0  0  0  0  0
    2.5259    7.2289   -0.2615 C   0  0  0  0  0  0  0  0  0  0  0  0
    3.8614    7.3828   -0.5333 C   0  0  0  0  0  0  0  0  0  0  0  0
    4.8210    8.0481   -1.7671 S   0  0  0  0  0  0  0  0  0  0  0  0
    6.1338    7.0279   -1.3532 C   0  0  0  0  0  0  0  0  0  0  0  0
    7.2584    6.6100   -2.0764 C   0  0  0  0  0  0  0  0  0  0  0  0
    7.6396    7.1928   -3.3765 C   0  0  0  0  0  0  0  0  0  0  0  0
    8.8174    7.9387   -3.4921 C   0  0  0  0  0  0  0  0  0  0  0  0
    9.1726    8.5088   -4.7158 C   0  0  0  0  0  0  0  0  0  0  0  0
    8.3364    8.3632   -5.8266 C   0  0  0  0  0  0  0  0  0  0  0  0
    7.1411    7.6345   -5.7196 C   0  0  0  0  0  0  0  0  0  0  0  0
    6.1986    7.5557   -6.8907 C   0  0  0  0  0  0  0  0  0  0  0  0
    5.3238    8.8017   -6.9573 C   0  0  0  0  0  0  0  0  0  0  0  0
    6.7926    7.0572   -4.4872 C   0  0  0  0  0  0  0  0  0  0  0  0
    7.7836    5.4078   -1.5470 C   0  0  0  0  0  0  0  0  0  0  0  0
    6.8310    4.9040   -0.2292 S   0  0  0  0  0  0  0  0  0  0  0  0
    5.8037    6.2132   -0.2962 C   0  0  0  0  0  0  0  0  0  0  0  0
    4.5115    6.4077    0.1483 C   0  0  0  0  0  0  0  0  0  0  0  0
    3.6835    5.6051    0.8512 N   0  0  0  0  0  0  0  0  0  0  0  0
    2.4444    6.0797    0.5329 C   0  0  0  0  0  0  0  0  0  0  0  0
    1.1786    5.5427    0.8406 C   0  0  0  0  0  0  0  0  0  0  0  0
    0.8415    4.2509    1.1448 N   0  0  0  0  0  0  0  0  0  0  0  0
   -0.5099    4.2942    1.2075 C   0  0  0  0  0  0  0  0  0  0  0  0
   -1.4877    3.3175    1.2714 C   0  0  0  0  0  0  0  0  0  0  0  0
   -1.5185    1.6721    1.5293 S   0  0  0  0  0  0  0  0  0  0  0  0
    1.5983    3.0327    0.8087 C   0  0  0  0  0  0  0  0  0  0  0  0
    1.3672    2.6444   -0.6465 C   0  0  0  0  0  0  0  0  0  0  0  0
    4.0711    4.9230    2.0961 C   0  0  0  0  0  0  0  0  0  0  0  0
    4.6874    5.9050    3.0943 C   0  0  0  0  0  0  0  0  0  0  0  0
    8.6252    4.4461   -2.2728 C   0  0  0  0  0  0  0  0  0  0  0  0
    8.1611    2.8589   -2.6248 S   0  0  0  0  0  0  0  0  0  0  0  0
    9.6030    2.3351   -3.3464 C   0  0  0  0  0  0  0  0  0  0  0  0
   10.4822    3.4058   -3.2646 C   0  0  0  0  0  0  0  0  0  0  0  0
   11.8249    3.5186   -3.6285 C   0  0  0  0  0  0  0  0  0  0  0  0
   12.3394    4.7807   -3.2939 C   0  0  0  0  0  0  0  0  0  0  0  0
   13.7075    5.3037   -3.6235 C   0  0  0  0  0  0  0  0  0  0  0  0
   14.7870    4.2232   -3.5796 C   0  0  0  0  0  0  0  0  0  0  0  0
   11.1226    5.7286   -2.5752 S   0  0  0  0  0  0  0  0  0  0  0  0
    9.9451    4.5427   -2.6912 C   0  0  0  0  0  0  0  0  0  0  0  0
    9.9343    0.9445   -3.7077 C   0  0  0  0  0  0  0  0  0  0  0  0
    9.0329    0.0297   -4.1016 C   0  0  0  0  0  0  0  0  0  0  0  0
    9.1967   -1.3998   -3.8389 C   0  0  0  0  0  0  0  0  0  0  0  0
   10.2708   -1.9714   -3.5214 O   0  0  0  0  0  0  0  0  0  0  0  0
    7.8909   -2.0286   -3.8823 C   0  0  0  0  0  0  0  0  0  0  0  0
    7.5537   -3.3555   -3.5178 C   0  0  0  0  0  0  0  0  0  0  0  0
    6.1926   -3.6150   -3.5348 C   0  0  0  0  0  0  0  0  0  0  0  0
    5.2136   -2.6216   -3.8652 C   0  0  0  0  0  0  0  0  0  0  0  0
    5.5366   -1.3178   -4.2081 C   0  0  0  0  0  0  0  0  0  0  0  0
    6.9307   -1.0482   -4.2389 C   0  0  0  0  0  0  0  0  0  0  0  0
    7.6234    0.2277   -4.5436 C   0  0  0  0  0  0  0  0  0  0  0  0
    7.2014    1.1522   -5.4406 C   0  0  0  0  0  0  0  0  0  0  0  0
    5.9324    1.0385   -6.1088 C   0  0  0  0  0  0  0  0  0  0  0  0
    4.9305    0.9319   -6.6706 N   0  0  0  0  0  0  0  0  0  0  0  0
    8.0809    2.1708   -5.9592 C   0  0  0  0  0  0  0  0  0  0  0  0
    8.7823    2.9861   -6.3874 N   0  0  0  0  0  0  0  0  0  0  0  0
    4.1095   -3.6088   -3.6343 C   0  0  0  0  0  0  0  0  0  0  0  0
    3.2694   -3.4757   -2.3276 C   0  0  0  0  0  0  0  0  0  0  0  0
    4.1200   -2.9108   -1.2166 C   0  0  0  0  0  0  0  0  0  0  0  0
    5.0235   -3.8436   -0.9163 C   0  0  0  0  0  0  0  0  0  0  0  0
    4.7566   -5.0140   -1.8339 C   0  0  0  0  0  0  0  0  0  0  0  0
    3.2403   -4.9288   -1.8970 C   0  0  0  0  0  0  0  0  0  0  0  0
    5.1083   -4.6290   -3.3035 C   0  0  0  0  0  0  0  0  0  0  0  0
   -3.8196   -5.9231    3.4686 H   0  0  0  0  0  0  0  0  0  0  0  0
   -7.5952   -9.0417    5.4201 H   0  0  0  0  0  0  0  0  0  0  0  0
   -9.8735   -5.9337    2.0583 H   0  0  0  0  0  0  0  0  0  0  0  0
  -12.1025   -8.2101    3.4949 H   0  0  0  0  0  0  0  0  0  0  0  0
  -12.3752   -5.6907    4.6472 H   0  0  0  0  0  0  0  0  0  0  0  0
  -14.2691   -7.1789    5.7658 H   0  0  0  0  0  0  0  0  0  0  0  0
  -13.1329   -8.8228    7.4509 H   0  0  0  0  0  0  0  0  0  0  0  0
  -10.5112   -8.3706    7.4133 H   0  0  0  0  0  0  0  0  0  0  0  0
  -11.4899   -5.9123    7.1453 H   0  0  0  0  0  0  0  0  0  0  0  0
  -10.1033   -6.1287    5.9997 H   0  0  0  0  0  0  0  0  0  0  0  0
  -11.0352   -9.6960    5.0393 H   0  0  0  0  0  0  0  0  0  0  0  0
   -1.7413   -3.1532    2.6307 H   0  0  0  0  0  0  0  0  0  0  0  0
    0.5522   -3.9836    2.6150 H   0  0  0  0  0  0  0  0  0  0  0  0
    1.9470   -6.3197    5.1104 H   0  0  0  0  0  0  0  0  0  0  0  0
    2.2473   -5.4705    3.5549 H   0  0  0  0  0  0  0  0  0  0  0  0
    2.4996   -4.5955    5.1158 H   0  0  0  0  0  0  0  0  0  0  0  0
    0.0124   -5.6044    6.5687 H   0  0  0  0  0  0  0  0  0  0  0  0
   -2.3072   -4.8167    6.5852 H   0  0  0  0  0  0  0  0  0  0  0  0
   -2.7633   -1.9362    6.7074 H   0  0  0  0  0  0  0  0  0  0  0  0
   -3.9482   -1.6106    8.8442 H   0  0  0  0  0  0  0  0  0  0  0  0
   -7.4420   -2.8168    9.5071 H   0  0  0  0  0  0  0  0  0  0  0  0
   -5.9351   -3.4105   10.3076 H   0  0  0  0  0  0  0  0  0  0  0  0
   -6.1820   -1.6454   10.0257 H   0  0  0  0  0  0  0  0  0  0  0  0
   -7.1893   -4.0695    7.4189 H   0  0  0  0  0  0  0  0  0  0  0  0
   -6.0089   -4.3889    5.2846 H   0  0  0  0  0  0  0  0  0  0  0  0
   -5.2454    1.6918   -1.9944 H   0  0  0  0  0  0  0  0  0  0  0  0
   -3.7677    3.1922   -3.2679 H   0  0  0  0  0  0  0  0  0  0  0  0
   -0.0187    2.6879   -3.5676 H   0  0  0  0  0  0  0  0  0  0  0  0
   -1.1790    4.0263   -3.2360 H   0  0  0  0  0  0  0  0  0  0  0  0
   -1.3981    2.9776   -4.6953 H   0  0  0  0  0  0  0  0  0  0  0  0
   -0.3922    0.7015   -2.2702 H   0  0  0  0  0  0  0  0  0  0  0  0
   -1.8615   -0.7503   -0.9283 H   0  0  0  0  0  0  0  0  0  0  0  0
   -7.1441   -0.9270   -0.1993 H   0  0  0  0  0  0  0  0  0  0  0  0
   -8.6065   -2.4746   -1.4338 H   0  0  0  0  0  0  0  0  0  0  0  0
   -7.4456   -5.1073   -3.5433 H   0  0  0  0  0  0  0  0  0  0  0  0
   -8.0474   -3.7604   -4.5846 H   0  0  0  0  0  0  0  0  0  0  0  0
   -8.9245   -4.1990   -3.0717 H   0  0  0  0  0  0  0  0  0  0  0  0
   -5.3000   -3.5604   -3.9776 H   0  0  0  0  0  0  0  0  0  0  0  0
   -3.8466   -2.0031   -2.7543 H   0  0  0  0  0  0  0  0  0  0  0  0
   -4.8350    4.9810    2.5434 H   0  0  0  0  0  0  0  0  0  0  0  0
   -7.1989    5.5672    2.8288 H   0  0  0  0  0  0  0  0  0  0  0  0
   -8.9691    4.1313    1.8946 H   0  0  0  0  0  0  0  0  0  0  0  0
   -8.4499    0.7505    0.7196 H   0  0  0  0  0  0  0  0  0  0  0  0
   -9.6516    2.0522    0.9377 H   0  0  0  0  0  0  0  0  0  0  0  0
   -9.6364    1.3871   -1.4165 H   0  0  0  0  0  0  0  0  0  0  0  0
   -8.9430    3.0487   -1.2926 H   0  0  0  0  0  0  0  0  0  0  0  0
   -7.8512    1.6217   -1.5355 H   0  0  0  0  0  0  0  0  0  0  0  0
   -5.9861    1.4848    0.2997 H   0  0  0  0  0  0  0  0  0  0  0  0
    9.4564    8.0913   -2.6276 H   0  0  0  0  0  0  0  0  0  0  0  0
   10.0878    9.0787   -4.8011 H   0  0  0  0  0  0  0  0  0  0  0  0
    8.6131    8.8271   -6.7643 H   0  0  0  0  0  0  0  0  0  0  0  0
    5.5484    6.6610   -6.7978 H   0  0  0  0  0  0  0  0  0  0  0  0
    6.7717    7.4504   -7.8343 H   0  0  0  0  0  0  0  0  0  0  0  0
    4.7211    8.8977   -6.0298 H   0  0  0  0  0  0  0  0  0  0  0  0
    5.9512    9.7114   -7.0762 H   0  0  0  0  0  0  0  0  0  0  0  0
    4.6313    8.7284   -7.8220 H   0  0  0  0  0  0  0  0  0  0  0  0
    5.8626    6.5085   -4.3910 H   0  0  0  0  0  0  0  0  0  0  0  0
    1.2920    2.2026    1.4741 H   0  0  0  0  0  0  0  0  0  0  0  0
    2.6795    3.1589    0.9349 H   0  0  0  0  0  0  0  0  0  0  0  0
    1.7714    3.4284   -1.3200 H   0  0  0  0  0  0  0  0  0  0  0  0
    0.2881    2.5357   -0.8445 H   0  0  0  0  0  0  0  0  0  0  0  0
    1.8764    1.6819   -0.8667 H   0  0  0  0  0  0  0  0  0  0  0  0
    4.8001    4.1176    1.8682 H   0  0  0  0  0  0  0  0  0  0  0  0
    3.1849    4.4795    2.5931 H   0  0  0  0  0  0  0  0  0  0  0  0
    4.9426    5.3702    4.0343 H   0  0  0  0  0  0  0  0  0  0  0  0
    5.6128    6.3541    2.6803 H   0  0  0  0  0  0  0  0  0  0  0  0
    3.9612    6.7107    3.3299 H   0  0  0  0  0  0  0  0  0  0  0  0
   12.3875    2.7324   -4.1084 H   0  0  0  0  0  0  0  0  0  0  0  0
   13.6852    5.7660   -4.6339 H   0  0  0  0  0  0  0  0  0  0  0  0
   13.9732    6.0952   -2.8880 H   0  0  0  0  0  0  0  0  0  0  0  0
   14.7611    3.6890   -2.6063 H   0  0  0  0  0  0  0  0  0  0  0  0
   14.6410    3.4966   -4.4078 H   0  0  0  0  0  0  0  0  0  0  0  0
   15.7841    4.6964   -3.7017 H   0  0  0  0  0  0  0  0  0  0  0  0
   10.9301    0.6094   -3.4498 H   0  0  0  0  0  0  0  0  0  0  0  0
    8.2836   -4.0956   -3.2212 H   0  0  0  0  0  0  0  0  0  0  0  0
    4.7715   -0.5803   -4.3846 H   0  0  0  0  0  0  0  0  0  0  0  0
    3.5183   -3.8438   -4.5491 H   0  0  0  0  0  0  0  0  0  0  0  0
    2.2761   -2.9975   -2.4513 H   0  0  0  0  0  0  0  0  0  0  0  0
    3.9893   -1.9684   -0.6976 H   0  0  0  0  0  0  0  0  0  0  0  0
    5.7500   -3.7854   -0.1130 H   0  0  0  0  0  0  0  0  0  0  0  0
    5.1611   -5.9876   -1.4833 H   0  0  0  0  0  0  0  0  0  0  0  0
    2.7405   -5.0909   -0.9117 H   0  0  0  0  0  0  0  0  0  0  0  0
    2.7911   -5.6156   -2.6535 H   0  0  0  0  0  0  0  0  0  0  0  0
    5.1233   -5.4807   -4.0178 H   0  0  0  0  0  0  0  0  0  0  0  0
  1  2  2  3
  2  3  1  0
  3  4  2  0
  3  5  1  0
  5  6  2  0
  6  7  1  0
  7  8  2  0
  8  9  1  0
  9 10  2  0
 10 11  1  0
 11 12  2  3
 12 13  1  0
 13 14  3  0
 12 15  1  0
 15 16  3  0
  8 17  1  0
 17 18  1  0
 18 19  1  0
 19 20  2  0
 20 21  1  0
 21 22  1  0
 21 23  1  0
  1 24  1  0
 24 25  2  0
 25 26  1  0
 26 27  1  0
 27 28  2  0
 28 29  1  0
 29 30  2  0
 30 31  1  0
 30 32  1  0
 32 33  2  0
 26 34  1  0
 34 35  2  0
 35 36  1  0
 36 37  2  0
 37 38  1  0
 37 39  1  0
 39 40  2  0
 25 41  1  0
 41 42  1  0
 42 43  1  0
 43 44  2  0
 44 45  1  0
 45 46  1  0
 46 47  2  0
 47 48  1  0
 48 49  2  0
 49 50  1  0
 49 51  1  0
 51 52  2  0
 45 53  1  0
 53 54  2  0
 54 55  1  0
 55 56  2  0
 56 57  1  0
 56 58  1  0
 58 59  2  0
 44 60  1  0
 60 61  1  0
 43 62  1  0
 62 63  2  0
 63 64  1  0
 64 65  2  0
 65 66  1  0
 66 67  2  0
 67 68  1  0
 68 69  1  0
 69 70  1  0
 68 71  2  0
 63 72  1  0
 72 73  1  0
 73 74  1  0
 74 75  1  0
 75 76  1  0
 76 77  1  0
 77 78  2  0
 78 79  1  0
 79 80  1  0
 77 81  1  0
 81 82  1  0
 82 83  1  0
 83 84  1  0
 84 85  1  0
 85 86  1  0
 86 87  2  0
 87 88  1  0
 88 89  2  0
 89 90  1  0
 90 91  1  0
 91 92  1  0
 90 93  2  0
 85 94  2  0
 94 95  1  0
 95 96  1  0
 96 97  1  0
 97 98  1  0
 98 99  1  0
 99100  1  0
100101  1  0
101102  1  0
102103  1  0
103104  1  0
101105  1  0
105106  1  0
 98107  1  0
107108  1  0
 94109  1  0
109110  1  0
110111  1  0
111112  2  0
112113  1  0
113114  2  0
114115  1  0
115116  1  0
114117  1  0
117118  1  0
111119  1  0
119120  2  3
120121  1  0
121122  2  0
121123  1  0
123124  2  0
124125  1  0
125126  2  0
126127  1  0
127128  2  0
128129  1  0
129130  2  3
130131  1  0
131132  3  0
130133  1  0
133134  3  0
126135  1  0
135136  1  0
136137  1  0
137138  2  0
138139  1  0
139140  1  0
139141  1  0
 11  2  1  0
 23 17  1  0
 61 24  1  0
104 62  1  0
118109  2  0
129120  1  0
141135  1  0
 10  5  1  0
 22 18  1  0
 33 27  1  0
 40 34  1  0
 60 41  2  0
 71 64  1  0
103 72  2  0
118112  1  0
128123  1  0
140136  1  0
 23  7  1  0
 52 46  1  0
 59 53  1  0
102 74  2  0
141125  1  0
100 75  2  0
 80 76  2  0
 99 81  2  0
 97 82  2  0
 96 84  2  0
 93 86  1  0
  1142  1  0
  6143  1  0
  9144  1  0
 17145  1  0
 18146  1  0
 19147  1  0
 20148  1  0
 21149  1  0
 22150  1  0
 22151  1  0
 23152  1  0
 28153  1  0
 29154  1  0
 31155  1  0
 31156  1  0
 31157  1  0
 32158  1  0
 33159  1  0
 35160  1  0
 36161  1  0
 38162  1  0
 38163  1  0
 38164  1  0
 39165  1  0
 40166  1  0
 47167  1  0
 48168  1  0
 50169  1  0
 50170  1  0
 50171  1  0
 51172  1  0
 52173  1  0
 54174  1  0
 55175  1  0
 57176  1  0
 57177  1  0
 57178  1  0
 58179  1  0
 59180  1  0
 65181  1  0
 66182  1  0
 67183  1  0
 69184  1  0
 69185  1  0
 70186  1  0
 70187  1  0
 70188  1  0
 71189  1  0
 87190  1  0
 88191  1  0
 89192  1  0
 91193  1  0
 91194  1  0
 92195  1  0
 92196  1  0
 92197  1  0
 93198  1  0
105199  1  0
105200  1  0
106201  1  0
106202  1  0
106203  1  0
107204  1  0
107205  1  0
108206  1  0
108207  1  0
108208  1  0
113209  1  0
115210  1  0
115211  1  0
116212  1  0
116213  1  0
116214  1  0
119215  1  0
124216  1  0
127217  1  0
135218  1  0
136219  1  0
137220  1  0
138221  1  0
139222  1  0
140223  1  0
140224  1  0
141225  1  0
M  END

