
     RDKit          3D

255286  0  0  0  0  0  0  0  0999 V2000
   -2.3098   -6.5826   -4.3682 C   0  0  0  0  0  0  0  0  0  0  0  0
   -1.0020   -6.2925   -4.5709 C   0  0  0  0  0  0  0  0  0  0  0  0
   -0.3521   -4.9735   -4.5212 C   0  0  0  0  0  0  0  0  0  0  0  0
   -0.8250   -3.8837   -4.9306 O   0  0  0  0  0  0  0  0  0  0  0  0
    1.0359   -5.1446   -4.1669 C   0  0  0  0  0  0  0  0  0  0  0  0
    1.9789   -4.1179   -3.9311 C   0  0  0  0  0  0  0  0  0  0  0  0
    3.2360   -4.5787   -3.5944 C   0  0  0  0  0  0  0  0  0  0  0  0
    3.5521   -5.9694   -3.4877 C   0  0  0  0  0  0  0  0  0  0  0  0
    2.6352   -6.9812   -3.7243 C   0  0  0  0  0  0  0  0  0  0  0  0
    1.3369   -6.5266   -4.1005 C   0  0  0  0  0  0  0  0  0  0  0  0
    0.1139   -7.2980   -4.4745 C   0  0  0  0  0  0  0  0  0  0  0  0
    0.0668   -8.6068   -4.8377 C   0  0  0  0  0  0  0  0  0  0  0  0
    1.2012   -9.4900   -4.7322 C   0  0  0  0  0  0  0  0  0  0  0  0
    2.0999  -10.2185   -4.6554 N   0  0  0  0  0  0  0  0  0  0  0  0
   -1.0937   -9.1919   -5.4622 C   0  0  0  0  0  0  0  0  0  0  0  0
   -2.0214   -9.6686   -5.9618 N   0  0  0  0  0  0  0  0  0  0  0  0
    4.9601   -5.6361   -3.1036 C   0  0  0  0  0  0  0  0  0  0  0  0
    5.3633   -5.7989   -1.6069 C   0  0  0  0  0  0  0  0  0  0  0  0
    4.1683   -5.5429   -0.7151 C   0  0  0  0  0  0  0  0  0  0  0  0
    3.8907   -4.2433   -0.8160 C   0  0  0  0  0  0  0  0  0  0  0  0
    4.8965   -3.6591   -1.7810 C   0  0  0  0  0  0  0  0  0  0  0  0
    6.1078   -4.4918   -1.3969 C   0  0  0  0  0  0  0  0  0  0  0  0
    4.6403   -4.2095   -3.2169 C   0  0  0  0  0  0  0  0  0  0  0  0
   -3.4063   -5.6588   -3.9733 C   0  0  0  0  0  0  0  0  0  0  0  0
   -4.5346   -6.0571   -3.2171 C   0  0  0  0  0  0  0  0  0  0  0  0
   -4.8433   -7.4101   -2.8400 N   0  0  0  0  0  0  0  0  0  0  0  0
   -3.9195   -8.1786   -2.0442 C   0  0  0  0  0  0  0  0  0  0  0  0
   -3.1376   -7.5555   -1.0594 C   0  0  0  0  0  0  0  0  0  0  0  0
   -2.2327   -8.2950   -0.2968 C   0  0  0  0  0  0  0  0  0  0  0  0
   -2.0801   -9.6731   -0.5197 C   0  0  0  0  0  0  0  0  0  0  0  0
   -1.1506  -10.4811    0.3330 C   0  0  0  0  0  0  0  0  0  0  0  0
   -2.8580  -10.3004   -1.5027 C   0  0  0  0  0  0  0  0  0  0  0  0
   -3.7636   -9.5608   -2.2638 C   0  0  0  0  0  0  0  0  0  0  0  0
   -6.1146   -7.9590   -3.2541 C   0  0  0  0  0  0  0  0  0  0  0  0
   -6.8832   -8.7314   -2.3683 C   0  0  0  0  0  0  0  0  0  0  0  0
   -8.1252   -9.2366   -2.7628 C   0  0  0  0  0  0  0  0  0  0  0  0
   -8.6259   -8.9639   -4.0438 C   0  0  0  0  0  0  0  0  0  0  0  0
   -9.9452   -9.5273   -4.4841 C   0  0  0  0  0  0  0  0  0  0  0  0
   -7.8556   -8.2054   -4.9379 C   0  0  0  0  0  0  0  0  0  0  0  0
   -6.6122   -7.7016   -4.5444 C   0  0  0  0  0  0  0  0  0  0  0  0
   -5.3299   -4.9711   -2.8604 C   0  0  0  0  0  0  0  0  0  0  0  0
   -6.5161   -4.7432   -1.6884 S   0  0  0  0  0  0  0  0  0  0  0  0
   -6.5065   -3.0422   -1.8265 C   0  0  0  0  0  0  0  0  0  0  0  0
   -5.5496   -2.6681   -2.7795 C   0  0  0  0  0  0  0  0  0  0  0  0
   -5.1356   -1.3153   -3.0416 N   0  0  0  0  0  0  0  0  0  0  0  0
   -5.3870   -0.7490   -4.3499 C   0  0  0  0  0  0  0  0  0  0  0  0
   -6.4350   -1.2418   -5.1526 C   0  0  0  0  0  0  0  0  0  0  0  0
   -6.6957   -0.6950   -6.4108 C   0  0  0  0  0  0  0  0  0  0  0  0
   -5.8955    0.3380   -6.9081 C   0  0  0  0  0  0  0  0  0  0  0  0
   -6.1792    0.9479   -8.2509 C   0  0  0  0  0  0  0  0  0  0  0  0
   -4.8439    0.8348   -6.1240 C   0  0  0  0  0  0  0  0  0  0  0  0
   -4.5855    0.2894   -4.8633 C   0  0  0  0  0  0  0  0  0  0  0  0
   -4.4172   -0.5953   -2.0136 C   0  0  0  0  0  0  0  0  0  0  0  0
   -4.7375    0.7390   -1.7210 C   0  0  0  0  0  0  0  0  0  0  0  0
   -4.0409    1.4349   -0.7249 C   0  0  0  0  0  0  0  0  0  0  0  0
   -3.0343    0.7973    0.0077 C   0  0  0  0  0  0  0  0  0  0  0  0
   -2.2562    1.5522    1.0488 C   0  0  0  0  0  0  0  0  0  0  0  0
   -2.7134   -0.5392   -0.2759 C   0  0  0  0  0  0  0  0  0  0  0  0
   -3.4085   -1.2323   -1.2711 C   0  0  0  0  0  0  0  0  0  0  0  0
   -4.9165   -3.7737   -3.3315 C   0  0  0  0  0  0  0  0  0  0  0  0
   -3.5093   -3.9727   -4.2126 S   0  0  0  0  0  0  0  0  0  0  0  0
   -7.0707   -2.1329   -0.8257 C   0  0  0  0  0  0  0  0  0  0  0  0
   -7.9219   -1.0423   -1.0733 C   0  0  0  0  0  0  0  0  0  0  0  0
   -8.5740   -0.7505   -2.3638 C   0  0  0  0  0  0  0  0  0  0  0  0
   -9.3283   -1.7320   -3.0242 C   0  0  0  0  0  0  0  0  0  0  0  0
   -9.9636   -1.4360   -4.2322 C   0  0  0  0  0  0  0  0  0  0  0  0
   -9.8335   -0.1674   -4.8049 C   0  0  0  0  0  0  0  0  0  0  0  0
   -9.0524    0.8134   -4.1735 C   0  0  0  0  0  0  0  0  0  0  0  0
   -8.8514    2.1684   -4.8028 C   0  0  0  0  0  0  0  0  0  0  0  0
   -9.5911    3.2522   -4.0230 C   0  0  0  0  0  0  0  0  0  0  0  0
   -8.4354    0.5153   -2.9511 C   0  0  0  0  0  0  0  0  0  0  0  0
   -7.9858   -0.1974    0.0402 C   0  0  0  0  0  0  0  0  0  0  0  0
   -8.6671    1.3379    0.2940 S   0  0  0  0  0  0  0  0  0  0  0  0
   -7.9448    1.4615    1.8259 C   0  0  0  0  0  0  0  0  0  0  0  0
   -7.5018    2.5109    2.5816 C   0  0  0  0  0  0  0  0  0  0  0  0
   -7.6571    3.8911    2.3820 C   0  0  0  0  0  0  0  0  0  0  0  0
   -6.7951    4.7904    3.0706 C   0  0  0  0  0  0  0  0  0  0  0  0
   -6.9378    6.1100    2.8034 N   0  0  0  0  0  0  0  0  0  0  0  0
   -8.1628    6.0448    1.6876 S   0  0  0  0  0  0  0  0  0  0  0  0
   -8.5345    4.4415    1.5051 N   0  0  0  0  0  0  0  0  0  0  0  0
   -5.8679    4.2650    3.9713 C   0  0  0  0  0  0  0  0  0  0  0  0
   -4.8853    4.8455    4.7307 C   0  0  0  0  0  0  0  0  0  0  0  0
   -3.9120    6.2299    4.5909 S   0  0  0  0  0  0  0  0  0  0  0  0
   -2.6368    5.4767    5.4500 C   0  0  0  0  0  0  0  0  0  0  0  0
   -1.2624    5.7366    5.4685 C   0  0  0  0  0  0  0  0  0  0  0  0
   -0.6982    7.0145    5.0096 C   0  0  0  0  0  0  0  0  0  0  0  0
   -0.0169    7.8518    5.9040 C   0  0  0  0  0  0  0  0  0  0  0  0
    0.5426    9.0478    5.4541 C   0  0  0  0  0  0  0  0  0  0  0  0
    0.4033    9.4284    4.1159 C   0  0  0  0  0  0  0  0  0  0  0  0
   -0.3005    8.6095    3.2203 C   0  0  0  0  0  0  0  0  0  0  0  0
   -0.4501    8.9948    1.7741 C   0  0  0  0  0  0  0  0  0  0  0  0
    0.6923    8.4240    0.9455 C   0  0  0  0  0  0  0  0  0  0  0  0
   -0.8336    7.3943    3.6678 C   0  0  0  0  0  0  0  0  0  0  0  0
   -0.5122    4.5819    5.7937 C   0  0  0  0  0  0  0  0  0  0  0  0
   -1.6042    3.3015    6.0871 S   0  0  0  0  0  0  0  0  0  0  0  0
   -2.9858    4.2004    5.8065 C   0  0  0  0  0  0  0  0  0  0  0  0
   -4.2553    3.8457    5.3912 C   0  0  0  0  0  0  0  0  0  0  0  0
   -4.7670    2.6229    5.1105 N   0  0  0  0  0  0  0  0  0  0  0  0
   -5.7290    2.8849    4.1812 C   0  0  0  0  0  0  0  0  0  0  0  0
   -6.4892    1.9837    3.3955 C   0  0  0  0  0  0  0  0  0  0  0  0
   -6.2147    0.6730    3.0598 N   0  0  0  0  0  0  0  0  0  0  0  0
   -7.1608    0.3883    2.1222 C   0  0  0  0  0  0  0  0  0  0  0  0
   -7.1986   -0.5624    1.0987 C   0  0  0  0  0  0  0  0  0  0  0  0
   -6.3731   -1.9680    0.7159 S   0  0  0  0  0  0  0  0  0  0  0  0
   -4.8945    0.0258    3.1048 C   0  0  0  0  0  0  0  0  0  0  0  0
   -4.9243   -1.3232    3.8266 C   0  0  0  0  0  0  0  0  0  0  0  0
   -4.7725    1.5175    6.0624 C   0  0  0  0  0  0  0  0  0  0  0  0
   -5.4648    1.9215    7.3652 C   0  0  0  0  0  0  0  0  0  0  0  0
    0.9303    4.3207    5.5443 C   0  0  0  0  0  0  0  0  0  0  0  0
    1.8920    5.1743    4.9951 C   0  0  0  0  0  0  0  0  0  0  0  0
    3.0863    4.5145    4.6282 C   0  0  0  0  0  0  0  0  0  0  0  0
    4.1723    5.0976    3.9398 C   0  0  0  0  0  0  0  0  0  0  0  0
    4.1927    6.5399    3.6151 C   0  0  0  0  0  0  0  0  0  0  0  0
    4.1398    6.9627    2.2785 C   0  0  0  0  0  0  0  0  0  0  0  0
    4.0834    8.3244    1.9765 C   0  0  0  0  0  0  0  0  0  0  0  0
    4.0499    9.2784    3.0064 C   0  0  0  0  0  0  0  0  0  0  0  0
    3.9439   10.6467    2.7130 C   0  0  0  0  0  0  0  0  0  0  0  0
    3.8987   11.5846    3.7466 C   0  0  0  0  0  0  0  0  0  0  0  0
    3.9812   11.1680    5.0806 C   0  0  0  0  0  0  0  0  0  0  0  0
    4.0795    9.8119    5.3855 C   0  0  0  0  0  0  0  0  0  0  0  0
    4.1059    8.8559    4.3555 C   0  0  0  0  0  0  0  0  0  0  0  0
    4.1845    7.4869    4.6491 C   0  0  0  0  0  0  0  0  0  0  0  0
    5.1960    4.2350    3.5174 C   0  0  0  0  0  0  0  0  0  0  0  0
    5.1791    2.8587    3.7725 C   0  0  0  0  0  0  0  0  0  0  0  0
    4.0710    2.2584    4.4202 C   0  0  0  0  0  0  0  0  0  0  0  0
    3.8509    0.7810    4.3945 C   0  0  0  0  0  0  0  0  0  0  0  0
    4.0733   -0.0412    3.2880 C   0  0  0  0  0  0  0  0  0  0  0  0
    3.5342   -1.3253    3.4069 C   0  0  0  0  0  0  0  0  0  0  0  0
    2.8324   -1.5081    4.5876 C   0  0  0  0  0  0  0  0  0  0  0  0
    1.7129   -2.8673    4.9173 S   0  0  0  0  0  0  0  0  0  0  0  0
    0.3325   -2.1470    3.9485 C   0  0  0  0  0  0  0  0  0  0  0  0
   -0.5663   -3.2492    3.4093 C   0  0  0  0  0  0  0  0  0  0  0  0
    2.9500   -0.1108    5.5119 S   0  0  0  0  0  0  0  0  0  0  0  0
    3.0670    3.1384    4.8729 C   0  0  0  0  0  0  0  0  0  0  0  0
    1.5788    2.7621    5.5527 S   0  0  0  0  0  0  0  0  0  0  0  0
    6.2798    2.1945    3.2097 C   0  0  0  0  0  0  0  0  0  0  0  0
    7.1173    3.0130    2.4579 C   0  0  0  0  0  0  0  0  0  0  0  0
    6.5092    4.5774    2.5223 S   0  0  0  0  0  0  0  0  0  0  0  0
    7.8644    2.4728    1.3270 C   0  0  0  0  0  0  0  0  0  0  0  0
    9.1978    2.3921    1.1978 C   0  0  0  0  0  0  0  0  0  0  0  0
    9.7481    1.7209    0.0205 C   0  0  0  0  0  0  0  0  0  0  0  0
    9.2365    0.7218   -0.5620 O   0  0  0  0  0  0  0  0  0  0  0  0
   10.9274    2.4165   -0.4210 C   0  0  0  0  0  0  0  0  0  0  0  0
   11.6482    2.1810   -1.6144 C   0  0  0  0  0  0  0  0  0  0  0  0
   12.6523    3.0953   -1.8490 C   0  0  0  0  0  0  0  0  0  0  0  0
   12.9487    4.1800   -0.9609 C   0  0  0  0  0  0  0  0  0  0  0  0
   12.2469    4.4124    0.2115 C   0  0  0  0  0  0  0  0  0  0  0  0
   11.2031    3.4810    0.4804 C   0  0  0  0  0  0  0  0  0  0  0  0
   10.2100    3.4239    1.5978 C   0  0  0  0  0  0  0  0  0  0  0  0
   10.3169    4.0484    2.8001 C   0  0  0  0  0  0  0  0  0  0  0  0
    9.5845    3.6051    3.9554 C   0  0  0  0  0  0  0  0  0  0  0  0
    9.0139    3.2735    4.9060 N   0  0  0  0  0  0  0  0  0  0  0  0
   11.2003    5.1781    3.0133 C   0  0  0  0  0  0  0  0  0  0  0  0
   11.8899    6.0955    3.1742 N   0  0  0  0  0  0  0  0  0  0  0  0
   14.0466    4.6437   -1.8715 C   0  0  0  0  0  0  0  0  0  0  0  0
   15.5093    4.3495   -1.4199 C   0  0  0  0  0  0  0  0  0  0  0  0
   16.3701    4.5249   -2.6513 C   0  0  0  0  0  0  0  0  0  0  0  0
   16.0810    3.4951   -3.4642 C   0  0  0  0  0  0  0  0  0  0  0  0
   15.0402    2.6714   -2.7564 C   0  0  0  0  0  0  0  0  0  0  0  0
   15.5461    2.8281   -1.3284 C   0  0  0  0  0  0  0  0  0  0  0  0
   13.7406    3.5283   -2.7771 C   0  0  0  0  0  0  0  0  0  0  0  0
   -2.5841   -7.6160   -4.2825 H   0  0  0  0  0  0  0  0  0  0  0  0
    1.7342   -3.0653   -3.9834 H   0  0  0  0  0  0  0  0  0  0  0  0
    2.9233   -8.0094   -3.5961 H   0  0  0  0  0  0  0  0  0  0  0  0
    5.7233   -5.9811   -3.8380 H   0  0  0  0  0  0  0  0  0  0  0  0
    5.9421   -6.7182   -1.3685 H   0  0  0  0  0  0  0  0  0  0  0  0
    3.6728   -6.2476   -0.0552 H   0  0  0  0  0  0  0  0  0  0  0  0
    3.1302   -3.7094   -0.2537 H   0  0  0  0  0  0  0  0  0  0  0  0
    5.0327   -2.5585   -1.7103 H   0  0  0  0  0  0  0  0  0  0  0  0
    6.9804   -4.3573   -2.0813 H   0  0  0  0  0  0  0  0  0  0  0  0
    6.4385   -4.3333   -0.3426 H   0  0  0  0  0  0  0  0  0  0  0  0
    5.1991   -3.6903   -4.0279 H   0  0  0  0  0  0  0  0  0  0  0  0
   -3.2389   -6.4939   -0.8707 H   0  0  0  0  0  0  0  0  0  0  0  0
   -1.6534   -7.7939    0.4685 H   0  0  0  0  0  0  0  0  0  0  0  0
   -1.7300  -10.9782    1.1402 H   0  0  0  0  0  0  0  0  0  0  0  0
   -0.3713   -9.8375    0.7924 H   0  0  0  0  0  0  0  0  0  0  0  0
   -0.6401  -11.2587   -0.2783 H   0  0  0  0  0  0  0  0  0  0  0  0
   -2.7640  -11.3659   -1.6802 H   0  0  0  0  0  0  0  0  0  0  0  0
   -4.3379  -10.0595   -3.0349 H   0  0  0  0  0  0  0  0  0  0  0  0
   -6.5303   -8.9297   -1.3639 H   0  0  0  0  0  0  0  0  0  0  0  0
   -8.7011   -9.8346   -2.0651 H   0  0  0  0  0  0  0  0  0  0  0  0
  -10.4912   -8.7842   -5.1063 H   0  0  0  0  0  0  0  0  0  0  0  0
   -9.7691  -10.4439   -5.0850 H   0  0  0  0  0  0  0  0  0  0  0  0
  -10.5836   -9.7818   -3.6118 H   0  0  0  0  0  0  0  0  0  0  0  0
   -8.2149   -8.0036   -5.9381 H   0  0  0  0  0  0  0  0  0  0  0  0
   -6.0376   -7.1146   -5.2471 H   0  0  0  0  0  0  0  0  0  0  0  0
   -7.0729   -2.0405   -4.8020 H   0  0  0  0  0  0  0  0  0  0  0  0
   -7.5293   -1.0767   -6.9908 H   0  0  0  0  0  0  0  0  0  0  0  0
   -5.2291    1.1108   -8.8016 H   0  0  0  0  0  0  0  0  0  0  0  0
   -6.8218    0.2787   -8.8633 H   0  0  0  0  0  0  0  0  0  0  0  0
   -6.6984    1.9197   -8.1140 H   0  0  0  0  0  0  0  0  0  0  0  0
   -4.2251    1.6434   -6.4916 H   0  0  0  0  0  0  0  0  0  0  0  0
   -3.7501    0.6761   -4.2965 H   0  0  0  0  0  0  0  0  0  0  0  0
   -5.5118    1.2485   -2.2746 H   0  0  0  0  0  0  0  0  0  0  0  0
   -4.2995    2.4679   -0.5260 H   0  0  0  0  0  0  0  0  0  0  0  0
   -1.9369    0.8713    1.8667 H   0  0  0  0  0  0  0  0  0  0  0  0
   -1.3548    2.0045    0.5816 H   0  0  0  0  0  0  0  0  0  0  0  0
   -2.8793    2.3536    1.4985 H   0  0  0  0  0  0  0  0  0  0  0  0
   -1.9351   -1.0465    0.2773 H   0  0  0  0  0  0  0  0  0  0  0  0
   -3.1430   -2.2621   -1.4755 H   0  0  0  0  0  0  0  0  0  0  0  0
   -9.4513   -2.7157   -2.5883 H   0  0  0  0  0  0  0  0  0  0  0  0
  -10.5656   -2.1883   -4.7291 H   0  0  0  0  0  0  0  0  0  0  0  0
  -10.3232    0.0473   -5.7501 H   0  0  0  0  0  0  0  0  0  0  0  0
   -7.7656    2.4095   -4.8264 H   0  0  0  0  0  0  0  0  0  0  0  0
   -9.2108    2.1687   -5.8542 H   0  0  0  0  0  0  0  0  0  0  0  0
   -9.1778    3.3438   -2.9947 H   0  0  0  0  0  0  0  0  0  0  0  0
  -10.6756    3.0115   -3.9628 H   0  0  0  0  0  0  0  0  0  0  0  0
   -9.4671    4.2278   -4.5380 H   0  0  0  0  0  0  0  0  0  0  0  0
   -7.8353    1.2727   -2.4639 H   0  0  0  0  0  0  0  0  0  0  0  0
    0.0910    7.5678    6.9462 H   0  0  0  0  0  0  0  0  0  0  0  0
    1.0799    9.6860    6.1448 H   0  0  0  0  0  0  0  0  0  0  0  0
    0.8442   10.3651    3.7805 H   0  0  0  0  0  0  0  0  0  0  0  0
   -1.4134    8.6082    1.3767 H   0  0  0  0  0  0  0  0  0  0  0  0
   -0.4700   10.1026    1.6691 H   0  0  0  0  0  0  0  0  0  0  0  0
    0.8132    7.3339    1.1302 H   0  0  0  0  0  0  0  0  0  0  0  0
    1.6273    8.9473    1.2114 H   0  0  0  0  0  0  0  0  0  0  0  0
    0.4960    8.5830   -0.1361 H   0  0  0  0  0  0  0  0  0  0  0  0
   -1.3546    6.7442    2.9745 H   0  0  0  0  0  0  0  0  0  0  0  0
   -4.5279   -0.1393    2.0730 H   0  0  0  0  0  0  0  0  0  0  0  0
   -4.1408    0.6816    3.5828 H   0  0  0  0  0  0  0  0  0  0  0  0
   -3.8812   -1.6558    4.0233 H   0  0  0  0  0  0  0  0  0  0  0  0
   -5.4243   -2.1019    3.2186 H   0  0  0  0  0  0  0  0  0  0  0  0
   -5.4656   -1.2724    4.7905 H   0  0  0  0  0  0  0  0  0  0  0  0
   -3.7342    1.1794    6.2720 H   0  0  0  0  0  0  0  0  0  0  0  0
   -5.3465    0.6749    5.6546 H   0  0  0  0  0  0  0  0  0  0  0  0
   -5.6253    1.0219    7.9964 H   0  0  0  0  0  0  0  0  0  0  0  0
   -4.8364    2.6417    7.9383 H   0  0  0  0  0  0  0  0  0  0  0  0
   -6.4569    2.3788    7.1476 H   0  0  0  0  0  0  0  0  0  0  0  0
    1.7235    6.2171    4.7789 H   0  0  0  0  0  0  0  0  0  0  0  0
    4.1187    6.2386    1.4749 H   0  0  0  0  0  0  0  0  0  0  0  0
    4.0419    8.6293    0.9362 H   0  0  0  0  0  0  0  0  0  0  0  0
    3.8826   10.9885    1.6847 H   0  0  0  0  0  0  0  0  0  0  0  0
    3.8166   12.6388    3.5163 H   0  0  0  0  0  0  0  0  0  0  0  0
    3.9554   11.9015    5.8748 H   0  0  0  0  0  0  0  0  0  0  0  0
    4.1386    9.5053    6.4226 H   0  0  0  0  0  0  0  0  0  0  0  0
    4.2090    7.1529    5.6806 H   0  0  0  0  0  0  0  0  0  0  0  0
    4.5383    0.2951    2.3695 H   0  0  0  0  0  0  0  0  0  0  0  0
    3.5748   -2.0680    2.6167 H   0  0  0  0  0  0  0  0  0  0  0  0
   -0.2581   -1.4663    4.5993 H   0  0  0  0  0  0  0  0  0  0  0  0
    0.7172   -1.5629    3.0868 H   0  0  0  0  0  0  0  0  0  0  0  0
   -1.3192   -2.8207    2.7185 H   0  0  0  0  0  0  0  0  0  0  0  0
    0.0350   -3.9959    2.8523 H   0  0  0  0  0  0  0  0  0  0  0  0
   -1.0999   -3.7589    4.2388 H   0  0  0  0  0  0  0  0  0  0  0  0
    6.4352    1.1254    3.2695 H   0  0  0  0  0  0  0  0  0  0  0  0
    7.2448    2.0925    0.5273 H   0  0  0  0  0  0  0  0  0  0  0  0
   11.4161    1.3731   -2.3010 H   0  0  0  0  0  0  0  0  0  0  0  0
   12.4949    5.2572    0.8257 H   0  0  0  0  0  0  0  0  0  0  0  0
   13.8737    5.6505   -2.3153 H   0  0  0  0  0  0  0  0  0  0  0  0
   15.8594    4.8979   -0.5178 H   0  0  0  0  0  0  0  0  0  0  0  0
   17.1398    5.2740   -2.8298 H   0  0  0  0  0  0  0  0  0  0  0  0
   16.5770    3.2686   -4.4016 H   0  0  0  0  0  0  0  0  0  0  0  0
   14.9332    1.6284   -3.1193 H   0  0  0  0  0  0  0  0  0  0  0  0
   14.8712    2.3985   -0.5522 H   0  0  0  0  0  0  0  0  0  0  0  0
   16.5718    2.4166   -1.1703 H   0  0  0  0  0  0  0  0  0  0  0  0
   13.3749    3.8347   -3.7856 H   0  0  0  0  0  0  0  0  0  0  0  0
  1  2  2  3
  2  3  1  0
  3  4  2  0
  3  5  1  0
  5  6  2  0
  6  7  1  0
  7  8  2  0
  8  9  1  0
  9 10  2  0
 10 11  1  0
 11 12  2  3
 12 13  1  0
 13 14  3  0
 12 15  1  0
 15 16  3  0
  8 17  1  0
 17 18  1  0
 18 19  1  0
 19 20  2  0
 20 21  1  0
 21 22  1  0
 21 23  1  0
  1 24  1  0
 24 25  2  0
 25 26  1  0
 26 27  1  0
 27 28  2  0
 28 29  1  0
 29 30  2  0
 30 31  1  0
 30 32  1  0
 32 33  2  0
 26 34  1  0
 34 35  2  0
 35 36  1  0
 36 37  2  0
 37 38  1  0
 37 39  1  0
 39 40  2  0
 25 41  1  0
 41 42  1  0
 42 43  1  0
 43 44  2  0
 44 45  1  0
 45 46  1  0
 46 47  2  0
 47 48  1  0
 48 49  2  0
 49 50  1  0
 49 51  1  0
 51 52  2  0
 45 53  1  0
 53 54  2  0
 54 55  1  0
 55 56  2  0
 56 57  1  0
 56 58  1  0
 58 59  2  0
 44 60  1  0
 60 61  1  0
 43 62  1  0
 62 63  2  0
 63 64  1  0
 64 65  2  0
 65 66  1  0
 66 67  2  0
 67 68  1  0
 68 69  1  0
 69 70  1  0
 68 71  2  0
 63 72  1  0
 72 73  1  0
 73 74  1  0
 74 75  1  0
 75 76  1  0
 76 77  1  0
 77 78  2  0
 78 79  1  0
 79 80  1  0
 77 81  1  0
 81 82  1  0
 82 83  1  0
 83 84  1  0
 84 85  1  0
 85 86  1  0
 86 87  2  0
 87 88  1  0
 88 89  2  0
 89 90  1  0
 90 91  1  0
 91 92  1  0
 90 93  2  0
 85 94  2  0
 94 95  1  0
 95 96  1  0
 96 97  1  0
 97 98  1  0
 98 99  1  0
 99100  1  0
100101  1  0
101102  1  0
102103  1  0
103104  1  0
101105  1  0
105106  1  0
 98107  1  0
107108  1  0
 94109  1  0
109110  2  0
110111  1  0
111112  2  0
112113  1  0
113114  2  0
114115  1  0
115116  2  0
116117  1  0
117118  2  0
118119  1  0
119120  2  0
120121  1  0
121122  2  0
112123  1  0
123124  2  0
124125  1  0
125126  1  0
126127  2  0
127128  1  0
128129  2  0
129130  1  0
130131  1  0
131132  1  0
129133  1  0
125134  2  0
134135  1  0
124136  1  0
136137  2  0
137138  1  0
137139  1  0
139140  2  3
140141  1  0
141142  2  0
141143  1  0
143144  2  0
144145  1  0
145146  2  0
146147  1  0
147148  2  0
148149  1  0
149150  2  3
150151  1  0
151152  3  0
150153  1  0
153154  3  0
146155  1  0
155156  1  0
156157  1  0
157158  2  0
158159  1  0
159160  1  0
159161  1  0
 11  2  1  0
 23 17  1  0
 61 24  1  0
104 62  1  0
135109  1  0
149140  1  0
161155  1  0
 10  5  1  0
 22 18  1  0
 33 27  1  0
 40 34  1  0
 60 41  2  0
 71 64  1  0
103 72  2  0
134111  1  0
148143  1  0
160156  1  0
 23  7  1  0
 52 46  1  0
 59 53  1  0
102 74  2  0
122113  1  0
138123  1  0
161145  1  0
100 75  2  0
121116  1  0
133126  1  0
 80 76  2  0
 99 81  2  0
 97 82  2  0
 96 84  2  0
 93 86  1  0
  1162  1  0
  6163  1  0
  9164  1  0
 17165  1  0
 18166  1  0
 19167  1  0
 20168  1  0
 21169  1  0
 22170  1  0
 22171  1  0
 23172  1  0
 28173  1  0
 29174  1  0
 31175  1  0
 31176  1  0
 31177  1  0
 32178  1  0
 33179  1  0
 35180  1  0
 36181  1  0
 38182  1  0
 38183  1  0
 38184  1  0
 39185  1  0
 40186  1  0
 47187  1  0
 48188  1  0
 50189  1  0
 50190  1  0
 50191  1  0
 51192  1  0
 52193  1  0
 54194  1  0
 55195  1  0
 57196  1  0
 57197  1  0
 57198  1  0
 58199  1  0
 59200  1  0
 65201  1  0
 66202  1  0
 67203  1  0
 69204  1  0
 69205  1  0
 70206  1  0
 70207  1  0
 70208  1  0
 71209  1  0
 87210  1  0
 88211  1  0
 89212  1  0
 91213  1  0
 91214  1  0
 92215  1  0
 92216  1  0
 92217  1  0
 93218  1  0
105219  1  0
105220  1  0
106221  1  0
106222  1  0
106223  1  0
107224  1  0
107225  1  0
108226  1  0
108227  1  0
108228  1  0
110229  1  0
114230  1  0
115231  1  0
117232  1  0
118233  1  0
119234  1  0
120235  1  0
122236  1  0
127237  1  0
128238  1  0
131239  1  0
131240  1  0
132241  1  0
132242  1  0
132243  1  0
136244  1  0
139245  1  0
144246  1  0
147247  1  0
155248  1  0
156249  1  0
157250  1  0
158251  1  0
159252  1  0
160253  1  0
160254  1  0
161255  1  0
M  END

