
     RDKit          3D

196217  0  0  0  0  0  0  0  0999 V2000
   -6.5147   -3.2402   -3.9626 C   0  0  0  0  0  0  0  0  0  0  0  0
   -6.1005   -4.2447   -4.7724 C   0  0  0  0  0  0  0  0  0  0  0  0
   -4.7068   -4.7021   -4.8960 C   0  0  0  0  0  0  0  0  0  0  0  0
   -3.6943   -4.2073   -4.3355 O   0  0  0  0  0  0  0  0  0  0  0  0
   -4.6475   -5.8205   -5.7926 C   0  0  0  0  0  0  0  0  0  0  0  0
   -3.4817   -6.5478   -6.1390 C   0  0  0  0  0  0  0  0  0  0  0  0
   -3.7261   -7.6233   -6.9642 C   0  0  0  0  0  0  0  0  0  0  0  0
   -5.0350   -7.9810   -7.4222 C   0  0  0  0  0  0  0  0  0  0  0  0
   -6.1768   -7.2645   -7.0895 C   0  0  0  0  0  0  0  0  0  0  0  0
   -5.9545   -6.1325   -6.2479 C   0  0  0  0  0  0  0  0  0  0  0  0
   -6.9258   -5.1427   -5.6646 C   0  0  0  0  0  0  0  0  0  0  0  0
   -8.2546   -5.0471   -5.9589 C   0  0  0  0  0  0  0  0  0  0  0  0
   -9.1432   -4.0954   -5.3428 C   0  0  0  0  0  0  0  0  0  0  0  0
   -9.8925   -3.3471   -4.8733 N   0  0  0  0  0  0  0  0  0  0  0  0
   -8.9057   -5.8839   -6.9335 C   0  0  0  0  0  0  0  0  0  0  0  0
   -9.4461   -6.5380   -7.7194 N   0  0  0  0  0  0  0  0  0  0  0  0
   -4.4650   -9.1559   -8.1648 C   0  0  0  0  0  0  0  0  0  0  0  0
   -4.6805  -10.5810   -7.5685 C   0  0  0  0  0  0  0  0  0  0  0  0
   -4.7814  -10.4987   -6.0639 C   0  0  0  0  0  0  0  0  0  0  0  0
   -3.5740  -10.1522   -5.6182 C   0  0  0  0  0  0  0  0  0  0  0  0
   -2.6890  -10.0210   -6.8405 C   0  0  0  0  0  0  0  0  0  0  0  0
   -3.2745  -11.1367   -7.6862 C   0  0  0  0  0  0  0  0  0  0  0  0
   -3.1278   -8.7883   -7.6857 C   0  0  0  0  0  0  0  0  0  0  0  0
   -5.6066   -2.5162   -3.0537 C   0  0  0  0  0  0  0  0  0  0  0  0
   -4.4777   -1.7359   -3.3907 C   0  0  0  0  0  0  0  0  0  0  0  0
   -4.2266   -1.1044   -4.6771 N   0  0  0  0  0  0  0  0  0  0  0  0
   -5.0697   -1.3396   -5.8129 C   0  0  0  0  0  0  0  0  0  0  0  0
   -4.6351   -2.1646   -6.8594 C   0  0  0  0  0  0  0  0  0  0  0  0
   -5.4540   -2.3813   -7.9742 C   0  0  0  0  0  0  0  0  0  0  0  0
   -6.7140   -1.7669   -8.0564 C   0  0  0  0  0  0  0  0  0  0  0  0
   -7.5672   -1.9471   -9.2802 C   0  0  0  0  0  0  0  0  0  0  0  0
   -7.1266   -0.8985   -7.0328 C   0  0  0  0  0  0  0  0  0  0  0  0
   -6.3086   -0.6903   -5.9155 C   0  0  0  0  0  0  0  0  0  0  0  0
   -3.3786    0.0543   -4.7314 C   0  0  0  0  0  0  0  0  0  0  0  0
   -2.1938    0.0308   -5.4778 C   0  0  0  0  0  0  0  0  0  0  0  0
   -1.2800    1.0841   -5.3767 C   0  0  0  0  0  0  0  0  0  0  0  0
   -1.5447    2.1755   -4.5280 C   0  0  0  0  0  0  0  0  0  0  0  0
   -0.5351    3.2669   -4.3341 C   0  0  0  0  0  0  0  0  0  0  0  0
   -2.7577    2.2236   -3.8275 C   0  0  0  0  0  0  0  0  0  0  0  0
   -3.6753    1.1753   -3.9369 C   0  0  0  0  0  0  0  0  0  0  0  0
   -3.6509   -1.5827   -2.2645 C   0  0  0  0  0  0  0  0  0  0  0  0
   -2.0901   -1.0111   -2.0229 S   0  0  0  0  0  0  0  0  0  0  0  0
   -2.0594   -1.3713   -0.3685 C   0  0  0  0  0  0  0  0  0  0  0  0
   -3.3046   -1.9072    0.0290 C   0  0  0  0  0  0  0  0  0  0  0  0
   -3.7161   -2.1134    1.4041 N   0  0  0  0  0  0  0  0  0  0  0  0
   -4.7427   -3.0709    1.7192 C   0  0  0  0  0  0  0  0  0  0  0  0
   -5.9340   -2.6509    2.3330 C   0  0  0  0  0  0  0  0  0  0  0  0
   -6.9536   -3.5716    2.5899 C   0  0  0  0  0  0  0  0  0  0  0  0
   -6.7854   -4.9265    2.2604 C   0  0  0  0  0  0  0  0  0  0  0  0
   -7.8979   -5.9031    2.4863 C   0  0  0  0  0  0  0  0  0  0  0  0
   -5.5918   -5.3437    1.6459 C   0  0  0  0  0  0  0  0  0  0  0  0
   -4.5782   -4.4195    1.3809 C   0  0  0  0  0  0  0  0  0  0  0  0
   -3.2058   -1.2842    2.4699 C   0  0  0  0  0  0  0  0  0  0  0  0
   -2.7556   -1.8714    3.6641 C   0  0  0  0  0  0  0  0  0  0  0  0
   -2.0855   -1.1024    4.6249 C   0  0  0  0  0  0  0  0  0  0  0  0
   -1.8716    0.2666    4.4079 C   0  0  0  0  0  0  0  0  0  0  0  0
   -1.0699    1.0744    5.3848 C   0  0  0  0  0  0  0  0  0  0  0  0
   -2.4187    0.8764    3.2699 C   0  0  0  0  0  0  0  0  0  0  0  0
   -3.0892    0.1080    2.3103 C   0  0  0  0  0  0  0  0  0  0  0  0
   -4.1381   -2.0631   -1.0887 C   0  0  0  0  0  0  0  0  0  0  0  0
   -5.6056   -2.8184   -1.3785 S   0  0  0  0  0  0  0  0  0  0  0  0
   -0.8685   -1.1975    0.4665 C   0  0  0  0  0  0  0  0  0  0  0  0
   -0.2976   -2.1807    1.3064 C   0  0  0  0  0  0  0  0  0  0  0  0
   -0.6048   -3.6328    1.2398 C   0  0  0  0  0  0  0  0  0  0  0  0
   -0.7427   -4.4009    2.4070 C   0  0  0  0  0  0  0  0  0  0  0  0
   -1.0658   -5.7599    2.3312 C   0  0  0  0  0  0  0  0  0  0  0  0
   -1.2586   -6.3645    1.0881 C   0  0  0  0  0  0  0  0  0  0  0  0
   -1.1104   -5.6187   -0.0907 C   0  0  0  0  0  0  0  0  0  0  0  0
   -1.4395   -6.2398   -1.4238 C   0  0  0  0  0  0  0  0  0  0  0  0
   -2.9013   -5.9757   -1.7769 C   0  0  0  0  0  0  0  0  0  0  0  0
   -0.7831   -4.2553   -0.0105 C   0  0  0  0  0  0  0  0  0  0  0  0
    0.6073   -1.5918    2.2000 C   0  0  0  0  0  0  0  0  0  0  0  0
    1.5817   -2.1732    3.4858 S   0  0  0  0  0  0  0  0  0  0  0  0
    2.0816   -0.5915    3.8540 C   0  0  0  0  0  0  0  0  0  0  0  0
    2.9946    0.0630    4.6346 C   0  0  0  0  0  0  0  0  0  0  0  0
    4.0134   -0.4015    5.4749 C   0  0  0  0  0  0  0  0  0  0  0  0
    4.9898    0.5285    5.9536 C   0  0  0  0  0  0  0  0  0  0  0  0
    5.9719    0.0350    6.7407 N   0  0  0  0  0  0  0  0  0  0  0  0
    5.5467   -1.5675    6.7541 S   0  0  0  0  0  0  0  0  0  0  0  0
    4.1817   -1.7021    5.8253 N   0  0  0  0  0  0  0  0  0  0  0  0
    4.8452    1.8834    5.6257 C   0  0  0  0  0  0  0  0  0  0  0  0
    5.5668    3.0088    5.9328 C   0  0  0  0  0  0  0  0  0  0  0  0
    7.1232    3.4553    6.4556 S   0  0  0  0  0  0  0  0  0  0  0  0
    6.8220    5.0963    6.0443 C   0  0  0  0  0  0  0  0  0  0  0  0
    7.6262    6.2393    5.8958 C   0  0  0  0  0  0  0  0  0  0  0  0
    9.0767    6.3089    6.1833 C   0  0  0  0  0  0  0  0  0  0  0  0
    9.9367    5.2752    5.7854 C   0  0  0  0  0  0  0  0  0  0  0  0
   11.3145    5.3779    6.0026 C   0  0  0  0  0  0  0  0  0  0  0  0
   11.8461    6.5156    6.6170 C   0  0  0  0  0  0  0  0  0  0  0  0
   11.0015    7.5657    7.0107 C   0  0  0  0  0  0  0  0  0  0  0  0
   11.5649    8.7954    7.6757 C   0  0  0  0  0  0  0  0  0  0  0  0
   11.3639    8.7419    9.1878 C   0  0  0  0  0  0  0  0  0  0  0  0
    9.6183    7.4520    6.7982 C   0  0  0  0  0  0  0  0  0  0  0  0
    6.8884    7.2915    5.3101 C   0  0  0  0  0  0  0  0  0  0  0  0
    5.3139    6.7745    4.9342 S   0  0  0  0  0  0  0  0  0  0  0  0
    5.5450    5.2532    5.5625 C   0  0  0  0  0  0  0  0  0  0  0  0
    4.8615    4.0624    5.4629 C   0  0  0  0  0  0  0  0  0  0  0  0
    3.7194    3.7094    4.8322 N   0  0  0  0  0  0  0  0  0  0  0  0
    3.7663    2.3464    4.8610 C   0  0  0  0  0  0  0  0  0  0  0  0
    2.9063    1.4096    4.2492 C   0  0  0  0  0  0  0  0  0  0  0  0
    2.0881    1.5646    3.1613 N   0  0  0  0  0  0  0  0  0  0  0  0
    1.5660    0.3260    3.0001 C   0  0  0  0  0  0  0  0  0  0  0  0
    0.7514   -0.2387    2.0409 C   0  0  0  0  0  0  0  0  0  0  0  0
   -0.2011    0.3349    0.7897 S   0  0  0  0  0  0  0  0  0  0  0  0
    2.2450    2.5270    2.0556 C   0  0  0  0  0  0  0  0  0  0  0  0
    3.1804    1.9797    0.9793 C   0  0  0  0  0  0  0  0  0  0  0  0
    2.5336    4.5702    4.7040 C   0  0  0  0  0  0  0  0  0  0  0  0
    2.0390    5.0316    6.0726 C   0  0  0  0  0  0  0  0  0  0  0  0
    7.4525    8.4658    4.6449 C   0  0  0  0  0  0  0  0  0  0  0  0
    7.8929    8.4208    3.3266 C   0  0  0  0  0  0  0  0  0  0  0  0
    7.7967    9.6506    2.6652 C   0  0  0  0  0  0  0  0  0  0  0  0
    8.0192    9.7846    0.8873 S   0  0  0  0  0  0  0  0  0  0  0  0
    9.6624   10.5543    0.9885 C   0  0  0  0  0  0  0  0  0  0  0  0
   10.2309   10.7119   -0.4130 C   0  0  0  0  0  0  0  0  0  0  0  0
    7.3329   10.6868    3.4699 C   0  0  0  0  0  0  0  0  0  0  0  0
    6.9558   10.0369    4.9772 S   0  0  0  0  0  0  0  0  0  0  0  0
    6.9607   12.0373    3.0003 C   0  0  0  0  0  0  0  0  0  0  0  0
    7.0178   13.1500    3.7487 C   0  0  0  0  0  0  0  0  0  0  0  0
    7.6190   13.1874    5.0568 C   0  0  0  0  0  0  0  0  0  0  0  0
    8.1340   13.2568    6.0940 N   0  0  0  0  0  0  0  0  0  0  0  0
    6.6248   14.4107    3.1725 C   0  0  0  0  0  0  0  0  0  0  0  0
    6.3114   15.4260    2.7119 N   0  0  0  0  0  0  0  0  0  0  0  0
   -7.5517   -3.0148   -3.8287 H   0  0  0  0  0  0  0  0  0  0  0  0
   -2.4926   -6.3002   -5.7757 H   0  0  0  0  0  0  0  0  0  0  0  0
   -7.1380   -7.5979   -7.4328 H   0  0  0  0  0  0  0  0  0  0  0  0
   -4.5709   -9.0833   -9.2697 H   0  0  0  0  0  0  0  0  0  0  0  0
   -5.4745  -11.1765   -8.0605 H   0  0  0  0  0  0  0  0  0  0  0  0
   -5.6425  -10.7216   -5.4445 H   0  0  0  0  0  0  0  0  0  0  0  0
   -3.2777  -10.0570   -4.5800 H   0  0  0  0  0  0  0  0  0  0  0  0
   -1.5979  -10.1003   -6.6431 H   0  0  0  0  0  0  0  0  0  0  0  0
   -2.8877  -11.1538   -8.7334 H   0  0  0  0  0  0  0  0  0  0  0  0
   -3.1612  -12.1494   -7.2311 H   0  0  0  0  0  0  0  0  0  0  0  0
   -2.4204   -8.4986   -8.4927 H   0  0  0  0  0  0  0  0  0  0  0  0
   -3.6683   -2.6534   -6.8093 H   0  0  0  0  0  0  0  0  0  0  0  0
   -5.1059   -3.0213   -8.7740 H   0  0  0  0  0  0  0  0  0  0  0  0
   -7.4329   -2.9669   -9.7033 H   0  0  0  0  0  0  0  0  0  0  0  0
   -7.2743   -1.1970  -10.0458 H   0  0  0  0  0  0  0  0  0  0  0  0
   -8.6412   -1.8139   -9.0352 H   0  0  0  0  0  0  0  0  0  0  0  0
   -8.0753   -0.3781   -7.1019 H   0  0  0  0  0  0  0  0  0  0  0  0
   -6.6378   -0.0228   -5.1280 H   0  0  0  0  0  0  0  0  0  0  0  0
   -1.9550   -0.8281   -6.0932 H   0  0  0  0  0  0  0  0  0  0  0  0
   -0.3510    1.0284   -5.9284 H   0  0  0  0  0  0  0  0  0  0  0  0
    0.4106    3.0573   -4.8821 H   0  0  0  0  0  0  0  0  0  0  0  0
   -0.9527    4.2301   -4.6951 H   0  0  0  0  0  0  0  0  0  0  0  0
   -0.2929    3.3589   -3.2542 H   0  0  0  0  0  0  0  0  0  0  0  0
   -2.9785    3.0573   -3.1662 H   0  0  0  0  0  0  0  0  0  0  0  0
   -4.5864    1.1996   -3.3523 H   0  0  0  0  0  0  0  0  0  0  0  0
   -6.0782   -1.6082    2.5873 H   0  0  0  0  0  0  0  0  0  0  0  0
   -7.8754   -3.2248    3.0382 H   0  0  0  0  0  0  0  0  0  0  0  0
   -8.4717   -5.6351    3.3992 H   0  0  0  0  0  0  0  0  0  0  0  0
   -7.5019   -6.9337    2.6180 H   0  0  0  0  0  0  0  0  0  0  0  0
   -8.5813   -5.8905    1.6109 H   0  0  0  0  0  0  0  0  0  0  0  0
   -5.4570   -6.3791    1.3580 H   0  0  0  0  0  0  0  0  0  0  0  0
   -3.6688   -4.7454    0.8986 H   0  0  0  0  0  0  0  0  0  0  0  0
   -2.8746   -2.9331    3.8289 H   0  0  0  0  0  0  0  0  0  0  0  0
   -1.6990   -1.5859    5.5160 H   0  0  0  0  0  0  0  0  0  0  0  0
   -0.4340    0.4225    6.0242 H   0  0  0  0  0  0  0  0  0  0  0  0
   -1.7506    1.6610    6.0365 H   0  0  0  0  0  0  0  0  0  0  0  0
   -0.3945    1.7750    4.8467 H   0  0  0  0  0  0  0  0  0  0  0  0
   -2.2797    1.9360    3.1014 H   0  0  0  0  0  0  0  0  0  0  0  0
   -3.4595    0.5896    1.4154 H   0  0  0  0  0  0  0  0  0  0  0  0
   -0.6392   -3.9473    3.3829 H   0  0  0  0  0  0  0  0  0  0  0  0
   -1.1933   -6.3336    3.2385 H   0  0  0  0  0  0  0  0  0  0  0  0
   -1.5414   -7.4103    1.0478 H   0  0  0  0  0  0  0  0  0  0  0  0
   -1.2610   -7.3400   -1.3957 H   0  0  0  0  0  0  0  0  0  0  0  0
   -0.7860   -5.8126   -2.2187 H   0  0  0  0  0  0  0  0  0  0  0  0
   -3.1662   -6.5161   -2.7143 H   0  0  0  0  0  0  0  0  0  0  0  0
   -3.0664   -4.8863   -1.9222 H   0  0  0  0  0  0  0  0  0  0  0  0
   -3.5695   -6.3371   -0.9671 H   0  0  0  0  0  0  0  0  0  0  0  0
   -0.6713   -3.6889   -0.9268 H   0  0  0  0  0  0  0  0  0  0  0  0
    9.5545    4.4004    5.2787 H   0  0  0  0  0  0  0  0  0  0  0  0
   11.9749    4.5818    5.6827 H   0  0  0  0  0  0  0  0  0  0  0  0
   12.9136    6.5844    6.7747 H   0  0  0  0  0  0  0  0  0  0  0  0
   11.0649    9.7040    7.2709 H   0  0  0  0  0  0  0  0  0  0  0  0
   12.6505    8.8917    7.4561 H   0  0  0  0  0  0  0  0  0  0  0  0
   11.8014    9.6523    9.6510 H   0  0  0  0  0  0  0  0  0  0  0  0
   10.2781    8.7084    9.4298 H   0  0  0  0  0  0  0  0  0  0  0  0
   11.8660    7.8447    9.6152 H   0  0  0  0  0  0  0  0  0  0  0  0
    8.9666    8.2558    7.1154 H   0  0  0  0  0  0  0  0  0  0  0  0
    2.6960    3.4721    2.3975 H   0  0  0  0  0  0  0  0  0  0  0  0
    1.2510    2.7562    1.6164 H   0  0  0  0  0  0  0  0  0  0  0  0
    2.7958    1.0271    0.5607 H   0  0  0  0  0  0  0  0  0  0  0  0
    4.1961    1.8156    1.4029 H   0  0  0  0  0  0  0  0  0  0  0  0
    3.2538    2.7138    0.1442 H   0  0  0  0  0  0  0  0  0  0  0  0
    2.7690    5.4554    4.0729 H   0  0  0  0  0  0  0  0  0  0  0  0
    1.6874    4.0234    4.2437 H   0  0  0  0  0  0  0  0  0  0  0  0
    1.1580    5.6923    5.9492 H   0  0  0  0  0  0  0  0  0  0  0  0
    1.7455    4.1522    6.6845 H   0  0  0  0  0  0  0  0  0  0  0  0
    2.8341    5.5984    6.6069 H   0  0  0  0  0  0  0  0  0  0  0  0
    8.1221    7.4958    2.8123 H   0  0  0  0  0  0  0  0  0  0  0  0
   10.3436    9.9258    1.5966 H   0  0  0  0  0  0  0  0  0  0  0  0
    9.5685   11.5521    1.4647 H   0  0  0  0  0  0  0  0  0  0  0  0
   11.2178   11.2182   -0.3650 H   0  0  0  0  0  0  0  0  0  0  0  0
   10.3648    9.7162   -0.8869 H   0  0  0  0  0  0  0  0  0  0  0  0
    9.5440   11.3215   -1.0357 H   0  0  0  0  0  0  0  0  0  0  0  0
    6.6809   12.1356    1.9613 H   0  0  0  0  0  0  0  0  0  0  0  0
  1  2  2  3
  2  3  1  0
  3  4  2  0
  3  5  1  0
  5  6  2  0
  6  7  1  0
  7  8  2  0
  8  9  1  0
  9 10  2  0
 10 11  1  0
 11 12  2  3
 12 13  1  0
 13 14  3  0
 12 15  1  0
 15 16  3  0
  8 17  1  0
 17 18  1  0
 18 19  1  0
 19 20  2  0
 20 21  1  0
 21 22  1  0
 21 23  1  0
  1 24  1  0
 24 25  2  0
 25 26  1  0
 26 27  1  0
 27 28  2  0
 28 29  1  0
 29 30  2  0
 30 31  1  0
 30 32  1  0
 32 33  2  0
 26 34  1  0
 34 35  2  0
 35 36  1  0
 36 37  2  0
 37 38  1  0
 37 39  1  0
 39 40  2  0
 25 41  1  0
 41 42  1  0
 42 43  1  0
 43 44  2  0
 44 45  1  0
 45 46  1  0
 46 47  2  0
 47 48  1  0
 48 49  2  0
 49 50  1  0
 49 51  1  0
 51 52  2  0
 45 53  1  0
 53 54  2  0
 54 55  1  0
 55 56  2  0
 56 57  1  0
 56 58  1  0
 58 59  2  0
 44 60  1  0
 60 61  1  0
 43 62  1  0
 62 63  2  0
 63 64  1  0
 64 65  2  0
 65 66  1  0
 66 67  2  0
 67 68  1  0
 68 69  1  0
 69 70  1  0
 68 71  2  0
 63 72  1  0
 72 73  1  0
 73 74  1  0
 74 75  1  0
 75 76  1  0
 76 77  1  0
 77 78  2  0
 78 79  1  0
 79 80  1  0
 77 81  1  0
 81 82  1  0
 82 83  1  0
 83 84  1  0
 84 85  1  0
 85 86  1  0
 86 87  2  0
 87 88  1  0
 88 89  2  0
 89 90  1  0
 90 91  1  0
 91 92  1  0
 90 93  2  0
 85 94  2  0
 94 95  1  0
 95 96  1  0
 96 97  1  0
 97 98  1  0
 98 99  1  0
 99100  1  0
100101  1  0
101102  1  0
102103  1  0
103104  1  0
101105  1  0
105106  1  0
 98107  1  0
107108  1  0
 94109  1  0
109110  2  0
110111  1  0
111112  1  0
112113  1  0
113114  1  0
111115  2  0
115116  1  0
115117  1  0
117118  2  3
118119  1  0
119120  3  0
118121  1  0
121122  3  0
 11  2  1  0
 23 17  1  0
 61 24  1  0
104 62  1  0
116109  1  0
 10  5  1  0
 22 18  1  0
 33 27  1  0
 40 34  1  0
 60 41  2  0
 71 64  1  0
103 72  2  0
 23  7  1  0
 52 46  1  0
 59 53  1  0
102 74  2  0
100 75  2  0
 80 76  2  0
 99 81  2  0
 97 82  2  0
 96 84  2  0
 93 86  1  0
  1123  1  0
  6124  1  0
  9125  1  0
 17126  1  0
 18127  1  0
 19128  1  0
 20129  1  0
 21130  1  0
 22131  1  0
 22132  1  0
 23133  1  0
 28134  1  0
 29135  1  0
 31136  1  0
 31137  1  0
 31138  1  0
 32139  1  0
 33140  1  0
 35141  1  0
 36142  1  0
 38143  1  0
 38144  1  0
 38145  1  0
 39146  1  0
 40147  1  0
 47148  1  0
 48149  1  0
 50150  1  0
 50151  1  0
 50152  1  0
 51153  1  0
 52154  1  0
 54155  1  0
 55156  1  0
 57157  1  0
 57158  1  0
 57159  1  0
 58160  1  0
 59161  1  0
 65162  1  0
 66163  1  0
 67164  1  0
 69165  1  0
 69166  1  0
 70167  1  0
 70168  1  0
 70169  1  0
 71170  1  0
 87171  1  0
 88172  1  0
 89173  1  0
 91174  1  0
 91175  1  0
 92176  1  0
 92177  1  0
 92178  1  0
 93179  1  0
105180  1  0
105181  1  0
106182  1  0
106183  1  0
106184  1  0
107185  1  0
107186  1  0
108187  1  0
108188  1  0
108189  1  0
110190  1  0
113191  1  0
113192  1  0
114193  1  0
114194  1  0
114195  1  0
117196  1  0
M  END

