
     RDKit          3D

224249  0  0  0  0  0  0  0  0999 V2000
    5.1381    5.7928   -6.6856 C   0  0  0  0  0  0  0  0  0  0  0  0
    6.0508    6.4752   -5.9445 C   0  0  0  0  0  0  0  0  0  0  0  0
    5.8013    6.9467   -4.5850 C   0  0  0  0  0  0  0  0  0  0  0  0
    4.6931    7.3347   -4.1225 O   0  0  0  0  0  0  0  0  0  0  0  0
    7.0216    6.8812   -3.8288 C   0  0  0  0  0  0  0  0  0  0  0  0
    7.2001    7.0965   -2.4412 C   0  0  0  0  0  0  0  0  0  0  0  0
    8.5080    6.9402   -2.0131 C   0  0  0  0  0  0  0  0  0  0  0  0
    9.5853    6.6294   -2.9105 C   0  0  0  0  0  0  0  0  0  0  0  0
    9.4249    6.4147   -4.2630 C   0  0  0  0  0  0  0  0  0  0  0  0
    8.0857    6.5113   -4.6989 C   0  0  0  0  0  0  0  0  0  0  0  0
    7.5368    6.3137   -6.0608 C   0  0  0  0  0  0  0  0  0  0  0  0
    8.1883    5.8377   -7.1189 C   0  0  0  0  0  0  0  0  0  0  0  0
    7.8483    6.3062   -8.4625 C   0  0  0  0  0  0  0  0  0  0  0  0
    7.7387    6.6817   -9.5682 N   0  0  0  0  0  0  0  0  0  0  0  0
    9.4124    5.0542   -7.0026 C   0  0  0  0  0  0  0  0  0  0  0  0
   10.3377    4.3809   -6.8418 N   0  0  0  0  0  0  0  0  0  0  0  0
   10.5581    6.6397   -1.7753 C   0  0  0  0  0  0  0  0  0  0  0  0
   11.0542    5.2405   -1.2889 C   0  0  0  0  0  0  0  0  0  0  0  0
   11.6699    5.4550    0.0669 C   0  0  0  0  0  0  0  0  0  0  0  0
   10.6580    5.7164    0.8985 C   0  0  0  0  0  0  0  0  0  0  0  0
    9.3865    5.6679    0.0640 C   0  0  0  0  0  0  0  0  0  0  0  0
    9.7778    4.5420   -0.8606 C   0  0  0  0  0  0  0  0  0  0  0  0
    9.4422    6.9326   -0.8594 C   0  0  0  0  0  0  0  0  0  0  0  0
    3.8984    5.2491   -6.0379 C   0  0  0  0  0  0  0  0  0  0  0  0
    3.8919    4.5329   -4.8258 C   0  0  0  0  0  0  0  0  0  0  0  0
    5.0460    3.8638   -4.2674 N   0  0  0  0  0  0  0  0  0  0  0  0
    5.9291    3.1382   -5.1578 C   0  0  0  0  0  0  0  0  0  0  0  0
    7.2921    3.0530   -4.8621 C   0  0  0  0  0  0  0  0  0  0  0  0
    8.1483    2.2808   -5.6494 C   0  0  0  0  0  0  0  0  0  0  0  0
    7.6451    1.5705   -6.7517 C   0  0  0  0  0  0  0  0  0  0  0  0
    8.5609    0.7296   -7.5784 C   0  0  0  0  0  0  0  0  0  0  0  0
    6.2656    1.6216   -7.0303 C   0  0  0  0  0  0  0  0  0  0  0  0
    5.4118    2.3883   -6.2334 C   0  0  0  0  0  0  0  0  0  0  0  0
    5.1465    3.6250   -2.8421 C   0  0  0  0  0  0  0  0  0  0  0  0
    5.4937    2.3469   -2.3394 C   0  0  0  0  0  0  0  0  0  0  0  0
    5.6154    2.1357   -0.9697 C   0  0  0  0  0  0  0  0  0  0  0  0
    5.3904    3.1851   -0.0619 C   0  0  0  0  0  0  0  0  0  0  0  0
    5.4613    2.9174    1.4120 C   0  0  0  0  0  0  0  0  0  0  0  0
    5.0044    4.4434   -0.5425 C   0  0  0  0  0  0  0  0  0  0  0  0
    4.8919    4.6580   -1.9215 C   0  0  0  0  0  0  0  0  0  0  0  0
    2.5978    4.4220   -4.3368 C   0  0  0  0  0  0  0  0  0  0  0  0
    1.9727    3.7489   -2.9509 S   0  0  0  0  0  0  0  0  0  0  0  0
    0.3648    4.1081   -3.3391 C   0  0  0  0  0  0  0  0  0  0  0  0
    0.3128    4.7077   -4.6245 C   0  0  0  0  0  0  0  0  0  0  0  0
   -0.8376    4.5619   -5.4809 N   0  0  0  0  0  0  0  0  0  0  0  0
   -0.8947    3.4109   -6.3862 C   0  0  0  0  0  0  0  0  0  0  0  0
   -0.4540    2.1340   -5.9673 C   0  0  0  0  0  0  0  0  0  0  0  0
   -0.5350    1.0578   -6.8397 C   0  0  0  0  0  0  0  0  0  0  0  0
   -1.0617    1.2109   -8.1319 C   0  0  0  0  0  0  0  0  0  0  0  0
   -1.1084    0.0460   -9.0592 C   0  0  0  0  0  0  0  0  0  0  0  0
   -1.5226    2.4760   -8.5255 C   0  0  0  0  0  0  0  0  0  0  0  0
   -1.4462    3.5577   -7.6601 C   0  0  0  0  0  0  0  0  0  0  0  0
   -2.0054    5.3743   -5.2678 C   0  0  0  0  0  0  0  0  0  0  0  0
   -1.8843    6.7643   -5.2058 C   0  0  0  0  0  0  0  0  0  0  0  0
   -3.0334    7.5684   -5.1097 C   0  0  0  0  0  0  0  0  0  0  0  0
   -4.2999    6.9903   -5.0656 C   0  0  0  0  0  0  0  0  0  0  0  0
   -5.5181    7.8650   -5.0062 C   0  0  0  0  0  0  0  0  0  0  0  0
   -4.4282    5.5985   -5.1033 C   0  0  0  0  0  0  0  0  0  0  0  0
   -3.3011    4.7888   -5.2186 C   0  0  0  0  0  0  0  0  0  0  0  0
    1.6039    4.9050   -5.1385 C   0  0  0  0  0  0  0  0  0  0  0  0
    2.2733    5.5677   -6.5259 S   0  0  0  0  0  0  0  0  0  0  0  0
   -0.7315    3.7853   -2.4080 C   0  0  0  0  0  0  0  0  0  0  0  0
   -1.1874    4.7239   -1.4334 C   0  0  0  0  0  0  0  0  0  0  0  0
   -1.2523    6.1767   -1.6430 C   0  0  0  0  0  0  0  0  0  0  0  0
   -2.5147    6.7876   -1.7311 C   0  0  0  0  0  0  0  0  0  0  0  0
   -2.6057    8.1756   -1.8680 C   0  0  0  0  0  0  0  0  0  0  0  0
   -1.4427    8.9490   -1.9120 C   0  0  0  0  0  0  0  0  0  0  0  0
   -0.1829    8.3557   -1.7990 C   0  0  0  0  0  0  0  0  0  0  0  0
    1.0369    9.2236   -1.7551 C   0  0  0  0  0  0  0  0  0  0  0  0
    1.3409    9.6505   -0.3149 C   0  0  0  0  0  0  0  0  0  0  0  0
   -0.0831    6.9517   -1.6475 C   0  0  0  0  0  0  0  0  0  0  0  0
   -1.4988    4.0971   -0.2377 C   0  0  0  0  0  0  0  0  0  0  0  0
   -1.7783    4.6532    1.3611 S   0  0  0  0  0  0  0  0  0  0  0  0
   -1.8082    3.0636    1.9651 C   0  0  0  0  0  0  0  0  0  0  0  0
   -2.0162    2.3162    3.1164 C   0  0  0  0  0  0  0  0  0  0  0  0
   -2.3030    2.6163    4.4673 C   0  0  0  0  0  0  0  0  0  0  0  0
   -2.4035    1.5338    5.4077 C   0  0  0  0  0  0  0  0  0  0  0  0
   -2.6790    1.8426    6.6940 N   0  0  0  0  0  0  0  0  0  0  0  0
   -2.7930    3.4908    6.5516 S   0  0  0  0  0  0  0  0  0  0  0  0
   -2.5093    3.8639    4.9548 N   0  0  0  0  0  0  0  0  0  0  0  0
   -2.1520    0.2194    4.9724 C   0  0  0  0  0  0  0  0  0  0  0  0
   -2.0799   -1.0224    5.5832 C   0  0  0  0  0  0  0  0  0  0  0  0
   -2.4791   -1.8275    7.0262 S   0  0  0  0  0  0  0  0  0  0  0  0
   -2.1623   -3.3779    6.3071 C   0  0  0  0  0  0  0  0  0  0  0  0
   -2.5309   -4.7059    6.6102 C   0  0  0  0  0  0  0  0  0  0  0  0
   -2.8740   -5.1702    7.9781 C   0  0  0  0  0  0  0  0  0  0  0  0
   -2.4672   -6.4525    8.4001 C   0  0  0  0  0  0  0  0  0  0  0  0
   -2.6780   -6.8698    9.7208 C   0  0  0  0  0  0  0  0  0  0  0  0
   -3.2546   -6.0072   10.6314 C   0  0  0  0  0  0  0  0  0  0  0  0
   -3.6678   -4.7150   10.2366 C   0  0  0  0  0  0  0  0  0  0  0  0
   -4.1508   -3.7448   11.2736 C   0  0  0  0  0  0  0  0  0  0  0  0
   -2.9554   -3.1120   12.0110 C   0  0  0  0  0  0  0  0  0  0  0  0
   -3.4965   -4.3163    8.9089 C   0  0  0  0  0  0  0  0  0  0  0  0
   -2.3973   -5.5398    5.4485 C   0  0  0  0  0  0  0  0  0  0  0  0
   -1.7524   -4.6201    4.1703 S   0  0  0  0  0  0  0  0  0  0  0  0
   -1.7107   -3.2003    5.0280 C   0  0  0  0  0  0  0  0  0  0  0  0
   -1.6790   -1.8937    4.6275 C   0  0  0  0  0  0  0  0  0  0  0  0
   -1.4623   -1.3423    3.4225 N   0  0  0  0  0  0  0  0  0  0  0  0
   -1.8483   -0.0516    3.6255 C   0  0  0  0  0  0  0  0  0  0  0  0
   -1.8902    0.9842    2.6909 C   0  0  0  0  0  0  0  0  0  0  0  0
   -1.7673    0.8713    1.3434 N   0  0  0  0  0  0  0  0  0  0  0  0
   -1.6021    2.1565    0.9695 C   0  0  0  0  0  0  0  0  0  0  0  0
   -1.4367    2.7423   -0.2468 C   0  0  0  0  0  0  0  0  0  0  0  0
   -0.8498    2.2140   -1.7204 S   0  0  0  0  0  0  0  0  0  0  0  0
   -2.5275   -0.0805    0.5091 C   0  0  0  0  0  0  0  0  0  0  0  0
   -3.9780    0.3888    0.2626 C   0  0  0  0  0  0  0  0  0  0  0  0
   -0.3359   -1.7433    2.5810 C   0  0  0  0  0  0  0  0  0  0  0  0
    0.9816   -1.1582    3.1302 C   0  0  0  0  0  0  0  0  0  0  0  0
   -3.0838   -6.8265    5.1762 C   0  0  0  0  0  0  0  0  0  0  0  0
   -3.0242   -7.4773    3.9367 C   0  0  0  0  0  0  0  0  0  0  0  0
   -4.1288   -8.3101    3.6697 C   0  0  0  0  0  0  0  0  0  0  0  0
   -4.4186   -8.8730    2.4026 C   0  0  0  0  0  0  0  0  0  0  0  0
   -3.5775   -8.5675    1.2187 C   0  0  0  0  0  0  0  0  0  0  0  0
   -1.9195   -8.9124    1.0897 S   0  0  0  0  0  0  0  0  0  0  0  0
   -1.6936   -7.9889   -0.2938 C   0  0  0  0  0  0  0  0  0  0  0  0
   -0.3662   -7.7957   -0.9950 C   0  0  0  0  0  0  0  0  0  0  0  0
   -0.3160   -8.6046   -2.2866 C   0  0  0  0  0  0  0  0  0  0  0  0
   -2.8948   -7.4255   -0.6789 C   0  0  0  0  0  0  0  0  0  0  0  0
   -3.0170   -6.6251   -1.7629 F   0  0  0  0  0  0  0  0  0  0  0  0
   -3.9418   -7.7216    0.1763 C   0  0  0  0  0  0  0  0  0  0  0  0
   -5.1775   -7.1585    0.0613 F   0  0  0  0  0  0  0  0  0  0  0  0
   -5.6440   -9.5580    2.2926 C   0  0  0  0  0  0  0  0  0  0  0  0
   -6.5656   -9.6566    3.3697 C   0  0  0  0  0  0  0  0  0  0  0  0
   -6.2818   -9.0479    4.6157 C   0  0  0  0  0  0  0  0  0  0  0  0
   -7.3117   -8.9557    5.6922 C   0  0  0  0  0  0  0  0  0  0  0  0
   -6.9944   -9.2404    7.3279 S   0  0  0  0  0  0  0  0  0  0  0  0
   -8.5711   -8.9221    7.8588 C   0  0  0  0  0  0  0  0  0  0  0  0
   -9.0023   -9.0409    9.3017 C   0  0  0  0  0  0  0  0  0  0  0  0
   -9.7342   -7.8006    9.8055 C   0  0  0  0  0  0  0  0  0  0  0  0
   -9.3422   -8.5849    6.7634 C   0  0  0  0  0  0  0  0  0  0  0  0
   -8.6466   -8.5793    5.5593 C   0  0  0  0  0  0  0  0  0  0  0  0
   -9.2357   -8.2139    4.3965 F   0  0  0  0  0  0  0  0  0  0  0  0
  -10.6607   -8.2585    6.8422 F   0  0  0  0  0  0  0  0  0  0  0  0
   -5.0381   -8.4003    4.7222 C   0  0  0  0  0  0  0  0  0  0  0  0
   -4.4877   -7.3381    5.9349 S   0  0  0  0  0  0  0  0  0  0  0  0
   -7.7562  -10.2886    2.9795 C   0  0  0  0  0  0  0  0  0  0  0  0
   -7.8182  -10.6333    1.6389 C   0  0  0  0  0  0  0  0  0  0  0  0
   -6.3931  -10.1352    0.8900 S   0  0  0  0  0  0  0  0  0  0  0  0
   -9.1165  -10.6668    0.9437 C   0  0  0  0  0  0  0  0  0  0  0  0
   -9.8855   -9.5529    0.8059 C   0  0  0  0  0  0  0  0  0  0  0  0
  -11.3140   -9.6536    0.5702 C   0  0  0  0  0  0  0  0  0  0  0  0
  -12.4725   -9.6954    0.4262 N   0  0  0  0  0  0  0  0  0  0  0  0
   -9.3751   -8.2272    1.1025 C   0  0  0  0  0  0  0  0  0  0  0  0
   -8.9456   -7.1786    1.3260 N   0  0  0  0  0  0  0  0  0  0  0  0
    5.4150    5.4172   -7.6653 H   0  0  0  0  0  0  0  0  0  0  0  0
    6.3932    7.3419   -1.7643 H   0  0  0  0  0  0  0  0  0  0  0  0
   10.2853    6.2060   -4.8840 H   0  0  0  0  0  0  0  0  0  0  0  0
   11.3371    7.4171   -1.8568 H   0  0  0  0  0  0  0  0  0  0  0  0
   11.7041    4.6841   -2.0192 H   0  0  0  0  0  0  0  0  0  0  0  0
   12.7150    5.3638    0.3476 H   0  0  0  0  0  0  0  0  0  0  0  0
   10.7298    5.8735    1.9779 H   0  0  0  0  0  0  0  0  0  0  0  0
    8.4502    5.5338    0.6441 H   0  0  0  0  0  0  0  0  0  0  0  0
    9.9670    3.5641   -0.3346 H   0  0  0  0  0  0  0  0  0  0  0  0
    9.0583    4.3506   -1.6893 H   0  0  0  0  0  0  0  0  0  0  0  0
    9.5402    7.9086   -0.3249 H   0  0  0  0  0  0  0  0  0  0  0  0
    7.6939    3.6025   -4.0079 H   0  0  0  0  0  0  0  0  0  0  0  0
    9.1926    2.2288   -5.3943 H   0  0  0  0  0  0  0  0  0  0  0  0
    8.1477    0.5955   -8.5994 H   0  0  0  0  0  0  0  0  0  0  0  0
    8.6932   -0.2613   -7.0960 H   0  0  0  0  0  0  0  0  0  0  0  0
    9.5485    1.2218   -7.6644 H   0  0  0  0  0  0  0  0  0  0  0  0
    5.8597    1.0601   -7.8627 H   0  0  0  0  0  0  0  0  0  0  0  0
    4.3541    2.4174   -6.4552 H   0  0  0  0  0  0  0  0  0  0  0  0
    5.6523    1.5294   -3.0067 H   0  0  0  0  0  0  0  0  0  0  0  0
    5.8729    1.1477   -0.6161 H   0  0  0  0  0  0  0  0  0  0  0  0
    4.5286    2.4126    1.7470 H   0  0  0  0  0  0  0  0  0  0  0  0
    6.3274    2.2653    1.6530 H   0  0  0  0  0  0  0  0  0  0  0  0
    5.5760    3.8691    1.9892 H   0  0  0  0  0  0  0  0  0  0  0  0
    4.8027    5.2446    0.1467 H   0  0  0  0  0  0  0  0  0  0  0  0
    4.5739    5.6460   -2.2575 H   0  0  0  0  0  0  0  0  0  0  0  0
   -0.0511    1.9598   -4.9810 H   0  0  0  0  0  0  0  0  0  0  0  0
   -0.1707    0.0768   -6.5192 H   0  0  0  0  0  0  0  0  0  0  0  0
   -0.0788   -0.2339   -9.3695 H   0  0  0  0  0  0  0  0  0  0  0  0
   -1.5778   -0.8231   -8.5492 H   0  0  0  0  0  0  0  0  0  0  0  0
   -1.7162    0.2628   -9.9719 H   0  0  0  0  0  0  0  0  0  0  0  0
   -1.9202    2.6277   -9.5275 H   0  0  0  0  0  0  0  0  0  0  0  0
   -1.7881    4.5491   -7.9824 H   0  0  0  0  0  0  0  0  0  0  0  0
   -0.9141    7.2319   -5.2516 H   0  0  0  0  0  0  0  0  0  0  0  0
   -2.9317    8.6513   -5.0912 H   0  0  0  0  0  0  0  0  0  0  0  0
   -5.6067    8.4733   -5.9304 H   0  0  0  0  0  0  0  0  0  0  0  0
   -5.4622    8.5602   -4.1268 H   0  0  0  0  0  0  0  0  0  0  0  0
   -6.4533    7.2690   -4.9088 H   0  0  0  0  0  0  0  0  0  0  0  0
   -5.4037    5.1355   -5.0862 H   0  0  0  0  0  0  0  0  0  0  0  0
   -3.4387    3.7114   -5.2588 H   0  0  0  0  0  0  0  0  0  0  0  0
   -3.4246    6.1920   -1.6989 H   0  0  0  0  0  0  0  0  0  0  0  0
   -3.5720    8.6540   -1.9310 H   0  0  0  0  0  0  0  0  0  0  0  0
   -1.5320   10.0192   -2.0353 H   0  0  0  0  0  0  0  0  0  0  0  0
    1.8978    8.7058   -2.2183 H   0  0  0  0  0  0  0  0  0  0  0  0
    0.8497   10.1392   -2.3625 H   0  0  0  0  0  0  0  0  0  0  0  0
    0.4683   10.1797    0.1234 H   0  0  0  0  0  0  0  0  0  0  0  0
    2.2187   10.3287   -0.3238 H   0  0  0  0  0  0  0  0  0  0  0  0
    1.5971    8.7603    0.2951 H   0  0  0  0  0  0  0  0  0  0  0  0
    0.8817    6.4882   -1.5276 H   0  0  0  0  0  0  0  0  0  0  0  0
   -1.9757   -7.1359    7.7131 H   0  0  0  0  0  0  0  0  0  0  0  0
   -2.3705   -7.8621   10.0278 H   0  0  0  0  0  0  0  0  0  0  0  0
   -3.3609   -6.3113   11.6713 H   0  0  0  0  0  0  0  0  0  0  0  0
   -4.7898   -4.2825   12.0212 H   0  0  0  0  0  0  0  0  0  0  0  0
   -4.7663   -2.9429   10.7985 H   0  0  0  0  0  0  0  0  0  0  0  0
   -3.3191   -2.3823   12.7714 H   0  0  0  0  0  0  0  0  0  0  0  0
   -2.3820   -3.9061   12.5272 H   0  0  0  0  0  0  0  0  0  0  0  0
   -2.2905   -2.6034   11.2850 H   0  0  0  0  0  0  0  0  0  0  0  0
   -3.8405   -3.3486    8.6068 H   0  0  0  0  0  0  0  0  0  0  0  0
   -2.6012   -1.0800    0.9854 H   0  0  0  0  0  0  0  0  0  0  0  0
   -2.0020   -0.1906   -0.4634 H   0  0  0  0  0  0  0  0  0  0  0  0
   -4.3559    0.0116   -0.7074 H   0  0  0  0  0  0  0  0  0  0  0  0
   -4.0552    1.4952    0.2227 H   0  0  0  0  0  0  0  0  0  0  0  0
   -4.6656    0.0879    1.0952 H   0  0  0  0  0  0  0  0  0  0  0  0
   -0.4361   -1.3316    1.5580 H   0  0  0  0  0  0  0  0  0  0  0  0
   -0.2529   -2.8410    2.5260 H   0  0  0  0  0  0  0  0  0  0  0  0
    0.9588   -0.0572    3.1314 H   0  0  0  0  0  0  0  0  0  0  0  0
    1.8350   -1.4819    2.4923 H   0  0  0  0  0  0  0  0  0  0  0  0
    1.1799   -1.5158    4.1630 H   0  0  0  0  0  0  0  0  0  0  0  0
   -2.2808   -7.2261    3.2297 H   0  0  0  0  0  0  0  0  0  0  0  0
   -0.2283   -6.7191   -1.2204 H   0  0  0  0  0  0  0  0  0  0  0  0
    0.4618   -8.1251   -0.3217 H   0  0  0  0  0  0  0  0  0  0  0  0
    0.6782   -8.4544   -2.7779 H   0  0  0  0  0  0  0  0  0  0  0  0
   -0.4796   -9.6790   -2.0662 H   0  0  0  0  0  0  0  0  0  0  0  0
   -1.1114   -8.2680   -2.9802 H   0  0  0  0  0  0  0  0  0  0  0  0
   -9.6571   -9.9252    9.4141 H   0  0  0  0  0  0  0  0  0  0  0  0
   -8.1060   -9.1972    9.9509 H   0  0  0  0  0  0  0  0  0  0  0  0
  -10.0111   -7.9596   10.8748 H   0  0  0  0  0  0  0  0  0  0  0  0
   -9.1014   -6.8944    9.7407 H   0  0  0  0  0  0  0  0  0  0  0  0
  -10.6797   -7.6713    9.2341 H   0  0  0  0  0  0  0  0  0  0  0  0
   -8.5946  -10.4673    3.6510 H   0  0  0  0  0  0  0  0  0  0  0  0
   -9.4965  -11.6336    0.6103 H   0  0  0  0  0  0  0  0  0  0  0  0
  1  2  2  3
  2  3  1  0
  3  4  2  0
  3  5  1  0
  5  6  2  0
  6  7  1  0
  7  8  2  0
  8  9  1  0
  9 10  2  0
 10 11  1  0
 11 12  2  3
 12 13  1  0
 13 14  3  0
 12 15  1  0
 15 16  3  0
  8 17  1  0
 17 18  1  0
 18 19  1  0
 19 20  2  0
 20 21  1  0
 21 22  1  0
 21 23  1  0
  1 24  1  0
 24 25  2  0
 25 26  1  0
 26 27  1  0
 27 28  2  0
 28 29  1  0
 29 30  2  0
 30 31  1  0
 30 32  1  0
 32 33  2  0
 26 34  1  0
 34 35  2  0
 35 36  1  0
 36 37  2  0
 37 38  1  0
 37 39  1  0
 39 40  2  0
 25 41  1  0
 41 42  1  0
 42 43  1  0
 43 44  2  0
 44 45  1  0
 45 46  1  0
 46 47  2  0
 47 48  1  0
 48 49  2  0
 49 50  1  0
 49 51  1  0
 51 52  2  0
 45 53  1  0
 53 54  2  0
 54 55  1  0
 55 56  2  0
 56 57  1  0
 56 58  1  0
 58 59  2  0
 44 60  1  0
 60 61  1  0
 43 62  1  0
 62 63  2  0
 63 64  1  0
 64 65  2  0
 65 66  1  0
 66 67  2  0
 67 68  1  0
 68 69  1  0
 69 70  1  0
 68 71  2  0
 63 72  1  0
 72 73  1  0
 73 74  1  0
 74 75  1  0
 75 76  1  0
 76 77  1  0
 77 78  2  0
 78 79  1  0
 79 80  1  0
 77 81  1  0
 81 82  1  0
 82 83  1  0
 83 84  1  0
 84 85  1  0
 85 86  1  0
 86 87  2  0
 87 88  1  0
 88 89  2  0
 89 90  1  0
 90 91  1  0
 91 92  1  0
 90 93  2  0
 85 94  2  0
 94 95  1  0
 95 96  1  0
 96 97  1  0
 97 98  1  0
 98 99  1  0
 99100  1  0
100101  1  0
101102  1  0
102103  1  0
103104  1  0
101105  1  0
105106  1  0
 98107  1  0
107108  1  0
 94109  1  0
109110  2  0
110111  1  0
111112  2  0
112113  1  0
113114  1  0
114115  1  0
115116  1  0
116117  1  0
115118  2  0
118119  1  0
118120  1  0
120121  1  0
112122  1  0
122123  2  0
123124  1  0
124125  1  0
125126  1  0
126127  1  0
127128  1  0
128129  1  0
127130  2  0
130131  1  0
131132  1  0
130133  1  0
124134  2  0
134135  1  0
123136  1  0
136137  2  0
137138  1  0
137139  1  0
139140  2  3
140141  1  0
141142  3  0
140143  1  0
143144  3  0
 11  2  1  0
 23 17  1  0
 61 24  1  0
104 62  1  0
135109  1  0
 10  5  1  0
 22 18  1  0
 33 27  1  0
 40 34  1  0
 60 41  2  0
 71 64  1  0
103 72  2  0
134111  1  0
 23  7  1  0
 52 46  1  0
 59 53  1  0
102 74  2  0
120113  2  0
138122  1  0
100 75  2  0
131125  2  0
 80 76  2  0
 99 81  2  0
 97 82  2  0
 96 84  2  0
 93 86  1  0
  1145  1  0
  6146  1  0
  9147  1  0
 17148  1  0
 18149  1  0
 19150  1  0
 20151  1  0
 21152  1  0
 22153  1  0
 22154  1  0
 23155  1  0
 28156  1  0
 29157  1  0
 31158  1  0
 31159  1  0
 31160  1  0
 32161  1  0
 33162  1  0
 35163  1  0
 36164  1  0
 38165  1  0
 38166  1  0
 38167  1  0
 39168  1  0
 40169  1  0
 47170  1  0
 48171  1  0
 50172  1  0
 50173  1  0
 50174  1  0
 51175  1  0
 52176  1  0
 54177  1  0
 55178  1  0
 57179  1  0
 57180  1  0
 57181  1  0
 58182  1  0
 59183  1  0
 65184  1  0
 66185  1  0
 67186  1  0
 69187  1  0
 69188  1  0
 70189  1  0
 70190  1  0
 70191  1  0
 71192  1  0
 87193  1  0
 88194  1  0
 89195  1  0
 91196  1  0
 91197  1  0
 92198  1  0
 92199  1  0
 92200  1  0
 93201  1  0
105202  1  0
105203  1  0
106204  1  0
106205  1  0
106206  1  0
107207  1  0
107208  1  0
108209  1  0
108210  1  0
108211  1  0
110212  1  0
116213  1  0
116214  1  0
117215  1  0
117216  1  0
117217  1  0
128218  1  0
128219  1  0
129220  1  0
129221  1  0
129222  1  0
136223  1  0
139224  1  0
M  END

