
     RDKit          3D

254284  0  0  0  0  0  0  0  0999 V2000
   -1.4366    4.6944    9.7847 C   0  0  0  0  0  0  0  0  0  0  0  0
   -2.1242    3.5897    9.4274 C   0  0  0  0  0  0  0  0  0  0  0  0
   -2.2690    3.1002    8.0443 C   0  0  0  0  0  0  0  0  0  0  0  0
   -2.0488    3.7553    6.9906 O   0  0  0  0  0  0  0  0  0  0  0  0
   -2.7786    1.7551    8.0703 C   0  0  0  0  0  0  0  0  0  0  0  0
   -3.0962    0.9550    6.9434 C   0  0  0  0  0  0  0  0  0  0  0  0
   -3.6962   -0.2431    7.2647 C   0  0  0  0  0  0  0  0  0  0  0  0
   -3.9378   -0.6589    8.6110 C   0  0  0  0  0  0  0  0  0  0  0  0
   -3.5993    0.1066    9.7171 C   0  0  0  0  0  0  0  0  0  0  0  0
   -3.0220    1.3735    9.4157 C   0  0  0  0  0  0  0  0  0  0  0  0
   -2.6827    2.5219   10.3198 C   0  0  0  0  0  0  0  0  0  0  0  0
   -3.0054    2.6447   11.6391 C   0  0  0  0  0  0  0  0  0  0  0  0
   -2.9049    3.8894   12.3530 C   0  0  0  0  0  0  0  0  0  0  0  0
   -2.8876    4.8878   12.9415 N   0  0  0  0  0  0  0  0  0  0  0  0
   -3.5821    1.5706   12.4169 C   0  0  0  0  0  0  0  0  0  0  0  0
   -4.0696    0.7360   13.0490 N   0  0  0  0  0  0  0  0  0  0  0  0
   -4.6407   -1.8945    8.1247 C   0  0  0  0  0  0  0  0  0  0  0  0
   -6.1964   -1.9186    8.2350 C   0  0  0  0  0  0  0  0  0  0  0  0
   -6.7373   -0.5079    8.1445 C   0  0  0  0  0  0  0  0  0  0  0  0
   -6.5212   -0.1011    6.8912 C   0  0  0  0  0  0  0  0  0  0  0  0
   -5.8437   -1.2494    6.1737 C   0  0  0  0  0  0  0  0  0  0  0  0
   -6.5648   -2.4050    6.8477 C   0  0  0  0  0  0  0  0  0  0  0  0
   -4.4052   -1.4603    6.7436 C   0  0  0  0  0  0  0  0  0  0  0  0
   -0.7436    5.5304    8.7918 C   0  0  0  0  0  0  0  0  0  0  0  0
    0.5341    5.2437    8.2974 C   0  0  0  0  0  0  0  0  0  0  0  0
    1.4819    4.3999    8.9678 N   0  0  0  0  0  0  0  0  0  0  0  0
    2.1057    4.9637   10.1351 C   0  0  0  0  0  0  0  0  0  0  0  0
    3.0583    5.9831    9.9977 C   0  0  0  0  0  0  0  0  0  0  0  0
    3.6626    6.5379   11.1277 C   0  0  0  0  0  0  0  0  0  0  0  0
    3.3233    6.0736   12.4122 C   0  0  0  0  0  0  0  0  0  0  0  0
    3.9708    6.6744   13.6204 C   0  0  0  0  0  0  0  0  0  0  0  0
    2.3369    5.0854   12.5496 C   0  0  0  0  0  0  0  0  0  0  0  0
    1.7382    4.5230   11.4186 C   0  0  0  0  0  0  0  0  0  0  0  0
    1.7727    3.0489    8.5265 C   0  0  0  0  0  0  0  0  0  0  0  0
    2.7179    2.2542    9.2137 C   0  0  0  0  0  0  0  0  0  0  0  0
    3.0011    0.9537    8.7892 C   0  0  0  0  0  0  0  0  0  0  0  0
    2.3487    0.4142    7.6724 C   0  0  0  0  0  0  0  0  0  0  0  0
    2.6985   -0.9625    7.1847 C   0  0  0  0  0  0  0  0  0  0  0  0
    1.4181    1.1986    6.9750 C   0  0  0  0  0  0  0  0  0  0  0  0
    1.1269    2.4961    7.4013 C   0  0  0  0  0  0  0  0  0  0  0  0
    0.7897    5.9406    7.1231 C   0  0  0  0  0  0  0  0  0  0  0  0
    1.9943    5.8777    5.9598 S   0  0  0  0  0  0  0  0  0  0  0  0
    1.2048    6.9390    4.8857 C   0  0  0  0  0  0  0  0  0  0  0  0
   -0.0238    7.3413    5.4551 C   0  0  0  0  0  0  0  0  0  0  0  0
   -0.8834    8.3722    4.9331 N   0  0  0  0  0  0  0  0  0  0  0  0
   -1.6244    8.1547    3.7224 C   0  0  0  0  0  0  0  0  0  0  0  0
   -2.4410    7.0221    3.5747 C   0  0  0  0  0  0  0  0  0  0  0  0
   -3.1778    6.8334    2.4010 C   0  0  0  0  0  0  0  0  0  0  0  0
   -3.0911    7.7636    1.3530 C   0  0  0  0  0  0  0  0  0  0  0  0
   -3.9273    7.5960    0.1202 C   0  0  0  0  0  0  0  0  0  0  0  0
   -2.2784    8.8973    1.4990 C   0  0  0  0  0  0  0  0  0  0  0  0
   -1.5491    9.0920    2.6748 C   0  0  0  0  0  0  0  0  0  0  0  0
   -1.0319    9.6115    5.6612 C   0  0  0  0  0  0  0  0  0  0  0  0
   -2.2455   10.3244    5.6206 C   0  0  0  0  0  0  0  0  0  0  0  0
   -2.3903   11.5268    6.3173 C   0  0  0  0  0  0  0  0  0  0  0  0
   -1.3345   12.0280    7.0907 C   0  0  0  0  0  0  0  0  0  0  0  0
   -1.4735   13.3440    7.7969 C   0  0  0  0  0  0  0  0  0  0  0  0
   -0.1177   11.3288    7.1348 C   0  0  0  0  0  0  0  0  0  0  0  0
    0.0310   10.1312    6.4315 C   0  0  0  0  0  0  0  0  0  0  0  0
   -0.2116    6.7599    6.7064 C   0  0  0  0  0  0  0  0  0  0  0  0
   -1.5096    6.6664    7.7716 S   0  0  0  0  0  0  0  0  0  0  0  0
    1.5922    7.0680    3.4697 C   0  0  0  0  0  0  0  0  0  0  0  0
    2.9024    7.1972    2.9578 C   0  0  0  0  0  0  0  0  0  0  0  0
    4.0892    7.5497    3.7733 C   0  0  0  0  0  0  0  0  0  0  0  0
    4.0036    8.5935    4.7121 C   0  0  0  0  0  0  0  0  0  0  0  0
    5.1239    8.9652    5.4588 C   0  0  0  0  0  0  0  0  0  0  0  0
    6.3444    8.3107    5.2674 C   0  0  0  0  0  0  0  0  0  0  0  0
    6.4423    7.2591    4.3463 C   0  0  0  0  0  0  0  0  0  0  0  0
    7.7692    6.5914    4.0874 C   0  0  0  0  0  0  0  0  0  0  0  0
    8.4427    7.1992    2.8623 C   0  0  0  0  0  0  0  0  0  0  0  0
    5.3104    6.8762    3.6122 C   0  0  0  0  0  0  0  0  0  0  0  0
    2.9386    6.8775    1.5855 C   0  0  0  0  0  0  0  0  0  0  0  0
    4.2010    6.5262    0.4986 S   0  0  0  0  0  0  0  0  0  0  0  0
    3.1356    5.8689   -0.6535 C   0  0  0  0  0  0  0  0  0  0  0  0
    3.2564    4.7856   -1.4907 C   0  0  0  0  0  0  0  0  0  0  0  0
    4.4039    4.0208   -1.7732 C   0  0  0  0  0  0  0  0  0  0  0  0
    4.2476    2.6571   -2.1717 C   0  0  0  0  0  0  0  0  0  0  0  0
    5.3812    1.9351   -2.3573 N   0  0  0  0  0  0  0  0  0  0  0  0
    6.5096    3.0878   -1.9936 S   0  0  0  0  0  0  0  0  0  0  0  0
    5.6742    4.4632   -1.6031 N   0  0  0  0  0  0  0  0  0  0  0  0
    2.9535    2.1492   -2.3181 C   0  0  0  0  0  0  0  0  0  0  0  0
    2.4665    0.9053   -2.6168 C   0  0  0  0  0  0  0  0  0  0  0  0
    3.0021   -0.6610   -2.9942 S   0  0  0  0  0  0  0  0  0  0  0  0
    1.3838   -1.1836   -3.1978 C   0  0  0  0  0  0  0  0  0  0  0  0
    0.7967   -2.3958   -3.5555 C   0  0  0  0  0  0  0  0  0  0  0  0
    1.5848   -3.5787   -3.9396 C   0  0  0  0  0  0  0  0  0  0  0  0
    1.4266   -4.1561   -5.2105 C   0  0  0  0  0  0  0  0  0  0  0  0
    2.1207   -5.3196   -5.5460 C   0  0  0  0  0  0  0  0  0  0  0  0
    3.0001   -5.8999   -4.6285 C   0  0  0  0  0  0  0  0  0  0  0  0
    3.2046   -5.3016   -3.3710 C   0  0  0  0  0  0  0  0  0  0  0  0
    4.1162   -5.9456   -2.3648 C   0  0  0  0  0  0  0  0  0  0  0  0
    3.3213   -6.8710   -1.4520 C   0  0  0  0  0  0  0  0  0  0  0  0
    2.4855   -4.1486   -3.0294 C   0  0  0  0  0  0  0  0  0  0  0  0
   -0.6150   -2.2851   -3.5934 C   0  0  0  0  0  0  0  0  0  0  0  0
   -1.0814   -0.6823   -3.2304 S   0  0  0  0  0  0  0  0  0  0  0  0
    0.4943   -0.1622   -3.0014 C   0  0  0  0  0  0  0  0  0  0  0  0
    1.1161    1.0207   -2.6651 C   0  0  0  0  0  0  0  0  0  0  0  0
    0.6737    2.2820   -2.4607 N   0  0  0  0  0  0  0  0  0  0  0  0
    1.8209    2.9494   -2.1404 C   0  0  0  0  0  0  0  0  0  0  0  0
    1.9670    4.2385   -1.5980 C   0  0  0  0  0  0  0  0  0  0  0  0
    1.0973    4.8746   -0.7470 N   0  0  0  0  0  0  0  0  0  0  0  0
    1.8435    5.8757   -0.2042 C   0  0  0  0  0  0  0  0  0  0  0  0
    1.7432    6.4744    1.0507 C   0  0  0  0  0  0  0  0  0  0  0  0
    0.5826    6.4762    2.2423 S   0  0  0  0  0  0  0  0  0  0  0  0
   -0.0625    4.2614   -0.0752 C   0  0  0  0  0  0  0  0  0  0  0  0
    0.3722    3.2368    0.9729 C   0  0  0  0  0  0  0  0  0  0  0  0
   -0.4909    2.8659   -3.1436 C   0  0  0  0  0  0  0  0  0  0  0  0
   -0.3352    2.7710   -4.6643 C   0  0  0  0  0  0  0  0  0  0  0  0
   -1.5657   -3.3444   -3.9801 C   0  0  0  0  0  0  0  0  0  0  0  0
   -2.7234   -3.1364   -4.7228 C   0  0  0  0  0  0  0  0  0  0  0  0
   -3.2735   -4.3327   -5.2245 C   0  0  0  0  0  0  0  0  0  0  0  0
   -4.3395   -4.4501   -6.1431 C   0  0  0  0  0  0  0  0  0  0  0  0
   -5.0631   -3.2802   -6.6710 C   0  0  0  0  0  0  0  0  0  0  0  0
   -6.4487   -3.1544   -6.7483 C   0  0  0  0  0  0  0  0  0  0  0  0
   -6.8586   -1.9781   -7.3829 C   0  0  0  0  0  0  0  0  0  0  0  0
   -8.1599   -1.6371   -7.5373 F   0  0  0  0  0  0  0  0  0  0  0  0
   -5.8028   -1.1907   -7.8342 C   0  0  0  0  0  0  0  0  0  0  0  0
   -5.9157    0.1542   -8.4818 C   0  0  0  0  0  0  0  0  0  0  0  0
   -6.1945    1.2344   -7.4376 C   0  0  0  0  0  0  0  0  0  0  0  0
   -4.3603   -1.9531   -7.4361 S   0  0  0  0  0  0  0  0  0  0  0  0
   -4.5923   -5.7378   -6.6561 C   0  0  0  0  0  0  0  0  0  0  0  0
   -3.8126   -6.8528   -6.3245 C   0  0  0  0  0  0  0  0  0  0  0  0
   -2.8260   -6.7500   -5.3205 C   0  0  0  0  0  0  0  0  0  0  0  0
   -2.0896   -7.9201   -4.8109 C   0  0  0  0  0  0  0  0  0  0  0  0
   -1.0086   -8.8869   -5.6702 S   0  0  0  0  0  0  0  0  0  0  0  0
   -0.6283   -9.9078   -4.3865 C   0  0  0  0  0  0  0  0  0  0  0  0
    0.3566  -11.0426   -4.4303 C   0  0  0  0  0  0  0  0  0  0  0  0
    1.7761  -10.5750   -4.0869 C   0  0  0  0  0  0  0  0  0  0  0  0
    1.9515  -10.2834   -2.6004 C   0  0  0  0  0  0  0  0  0  0  0  0
   -1.3386   -9.4892   -3.2666 C   0  0  0  0  0  0  0  0  0  0  0  0
   -2.1425   -8.3682   -3.4990 C   0  0  0  0  0  0  0  0  0  0  0  0
   -1.2638  -10.0981   -2.0581 F   0  0  0  0  0  0  0  0  0  0  0  0
   -2.5743   -5.4699   -4.8036 C   0  0  0  0  0  0  0  0  0  0  0  0
   -1.2907   -5.0026   -3.8275 S   0  0  0  0  0  0  0  0  0  0  0  0
   -4.0220   -7.9480   -7.1795 C   0  0  0  0  0  0  0  0  0  0  0  0
   -4.9410   -7.6704   -8.1885 C   0  0  0  0  0  0  0  0  0  0  0  0
   -5.5776   -6.1295   -7.9615 S   0  0  0  0  0  0  0  0  0  0  0  0
   -5.0721   -8.3910   -9.4556 C   0  0  0  0  0  0  0  0  0  0  0  0
   -4.0596   -8.5581  -10.3280 C   0  0  0  0  0  0  0  0  0  0  0  0
   -4.1865   -9.3247  -11.5675 C   0  0  0  0  0  0  0  0  0  0  0  0
   -5.2493   -9.8328  -12.0150 O   0  0  0  0  0  0  0  0  0  0  0  0
   -2.8922   -9.3786  -12.2233 C   0  0  0  0  0  0  0  0  0  0  0  0
   -2.6243   -9.8067  -13.5495 C   0  0  0  0  0  0  0  0  0  0  0  0
   -1.3492   -9.4778  -13.9968 C   0  0  0  0  0  0  0  0  0  0  0  0
   -0.3879   -8.8049  -13.1807 C   0  0  0  0  0  0  0  0  0  0  0  0
   -0.6399   -8.4066  -11.8867 C   0  0  0  0  0  0  0  0  0  0  0  0
   -1.9510   -8.6954  -11.4152 C   0  0  0  0  0  0  0  0  0  0  0  0
   -2.6302   -8.1433  -10.2116 C   0  0  0  0  0  0  0  0  0  0  0  0
   -2.1662   -7.0501   -9.5757 C   0  0  0  0  0  0  0  0  0  0  0  0
   -2.8553   -5.7914   -9.6914 C   0  0  0  0  0  0  0  0  0  0  0  0
   -3.3792   -4.7629   -9.7953 N   0  0  0  0  0  0  0  0  0  0  0  0
   -0.8150   -7.0055   -9.0774 C   0  0  0  0  0  0  0  0  0  0  0  0
    0.2686   -6.9599   -8.6780 N   0  0  0  0  0  0  0  0  0  0  0  0
    0.5794   -8.7492  -14.3267 C   0  0  0  0  0  0  0  0  0  0  0  0
    0.7728   -7.3762  -15.0459 C   0  0  0  0  0  0  0  0  0  0  0  0
   -0.5000   -6.5629  -14.9701 C   0  0  0  0  0  0  0  0  0  0  0  0
   -1.3968   -7.1927  -15.7279 C   0  0  0  0  0  0  0  0  0  0  0  0
   -0.7036   -8.4079  -16.3026 C   0  0  0  0  0  0  0  0  0  0  0  0
    0.6845   -7.8241  -16.4934 C   0  0  0  0  0  0  0  0  0  0  0  0
   -0.4071   -9.4347  -15.1691 C   0  0  0  0  0  0  0  0  0  0  0  0
   -1.2210    4.9050   10.8189 H   0  0  0  0  0  0  0  0  0  0  0  0
   -2.9353    1.2691    5.9173 H   0  0  0  0  0  0  0  0  0  0  0  0
   -3.8376   -0.2476   10.6989 H   0  0  0  0  0  0  0  0  0  0  0  0
   -4.1267   -2.8466    8.3874 H   0  0  0  0  0  0  0  0  0  0  0  0
   -6.6006   -2.5274    9.0713 H   0  0  0  0  0  0  0  0  0  0  0  0
   -7.2062    0.0645    8.9315 H   0  0  0  0  0  0  0  0  0  0  0  0
   -6.8061    0.8590    6.4713 H   0  0  0  0  0  0  0  0  0  0  0  0
   -5.9166   -1.2163    5.0685 H   0  0  0  0  0  0  0  0  0  0  0  0
   -6.1404   -3.4075    6.6015 H   0  0  0  0  0  0  0  0  0  0  0  0
   -7.6636   -2.4119    6.6552 H   0  0  0  0  0  0  0  0  0  0  0  0
   -3.7651   -2.1533    6.1532 H   0  0  0  0  0  0  0  0  0  0  0  0
    3.3334    6.3442    9.0142 H   0  0  0  0  0  0  0  0  0  0  0  0
    4.3987    7.3194   11.0022 H   0  0  0  0  0  0  0  0  0  0  0  0
    3.5285    7.6753   13.8276 H   0  0  0  0  0  0  0  0  0  0  0  0
    5.0639    6.7903   13.4467 H   0  0  0  0  0  0  0  0  0  0  0  0
    3.8319    6.0262   14.5134 H   0  0  0  0  0  0  0  0  0  0  0  0
    2.0365    4.7353   13.5304 H   0  0  0  0  0  0  0  0  0  0  0  0
    0.9891    3.7514   11.5374 H   0  0  0  0  0  0  0  0  0  0  0  0
    3.2618    2.6399   10.0647 H   0  0  0  0  0  0  0  0  0  0  0  0
    3.7433    0.3782    9.3201 H   0  0  0  0  0  0  0  0  0  0  0  0
    2.8695   -1.6511    8.0420 H   0  0  0  0  0  0  0  0  0  0  0  0
    3.6230   -0.9120    6.5731 H   0  0  0  0  0  0  0  0  0  0  0  0
    1.8800   -1.3833    6.5633 H   0  0  0  0  0  0  0  0  0  0  0  0
    0.9277    0.8130    6.0913 H   0  0  0  0  0  0  0  0  0  0  0  0
    0.4191    3.0728    6.8274 H   0  0  0  0  0  0  0  0  0  0  0  0
   -2.5170    6.3007    4.3776 H   0  0  0  0  0  0  0  0  0  0  0  0
   -3.8209    5.9666    2.3156 H   0  0  0  0  0  0  0  0  0  0  0  0
   -4.0234    6.5201   -0.1438 H   0  0  0  0  0  0  0  0  0  0  0  0
   -3.4647    8.1200   -0.7426 H   0  0  0  0  0  0  0  0  0  0  0  0
   -4.9388    8.0214    0.2958 H   0  0  0  0  0  0  0  0  0  0  0  0
   -2.2123    9.6317    0.7078 H   0  0  0  0  0  0  0  0  0  0  0  0
   -0.9184    9.9672    2.7723 H   0  0  0  0  0  0  0  0  0  0  0  0
   -3.0839    9.9468    5.0481 H   0  0  0  0  0  0  0  0  0  0  0  0
   -3.3283   12.0631    6.2511 H   0  0  0  0  0  0  0  0  0  0  0  0
   -2.5303   13.5252    8.0912 H   0  0  0  0  0  0  0  0  0  0  0  0
   -1.1381   14.1592    7.1200 H   0  0  0  0  0  0  0  0  0  0  0  0
   -0.8513   13.3627    8.7180 H   0  0  0  0  0  0  0  0  0  0  0  0
    0.7171   11.7167    7.7064 H   0  0  0  0  0  0  0  0  0  0  0  0
    0.9822    9.6194    6.4759 H   0  0  0  0  0  0  0  0  0  0  0  0
    3.0736    9.1322    4.8547 H   0  0  0  0  0  0  0  0  0  0  0  0
    5.0536    9.7670    6.1789 H   0  0  0  0  0  0  0  0  0  0  0  0
    7.2137    8.6268    5.8350 H   0  0  0  0  0  0  0  0  0  0  0  0
    7.6186    5.5028    3.9228 H   0  0  0  0  0  0  0  0  0  0  0  0
    8.4366    6.7053    4.9673 H   0  0  0  0  0  0  0  0  0  0  0  0
    8.5697    8.2952    2.9901 H   0  0  0  0  0  0  0  0  0  0  0  0
    9.4481    6.7392    2.7242 H   0  0  0  0  0  0  0  0  0  0  0  0
    7.8379    7.0092    1.9516 H   0  0  0  0  0  0  0  0  0  0  0  0
    5.3866    6.0394    2.9285 H   0  0  0  0  0  0  0  0  0  0  0  0
    0.7353   -3.7192   -5.9258 H   0  0  0  0  0  0  0  0  0  0  0  0
    1.9623   -5.7813   -6.5125 H   0  0  0  0  0  0  0  0  0  0  0  0
    3.5174   -6.8116   -4.8923 H   0  0  0  0  0  0  0  0  0  0  0  0
    4.9073   -6.5273   -2.8825 H   0  0  0  0  0  0  0  0  0  0  0  0
    4.6145   -5.1672   -1.7494 H   0  0  0  0  0  0  0  0  0  0  0  0
    2.7694   -7.6149   -2.0618 H   0  0  0  0  0  0  0  0  0  0  0  0
    4.0077   -7.4103   -0.7664 H   0  0  0  0  0  0  0  0  0  0  0  0
    2.5902   -6.2874   -0.8516 H   0  0  0  0  0  0  0  0  0  0  0  0
    2.6052   -3.7088   -2.0461 H   0  0  0  0  0  0  0  0  0  0  0  0
   -0.6927    5.0448    0.4013 H   0  0  0  0  0  0  0  0  0  0  0  0
   -0.7408    3.7609   -0.7767 H   0  0  0  0  0  0  0  0  0  0  0  0
    0.7136    2.3032    0.4727 H   0  0  0  0  0  0  0  0  0  0  0  0
   -0.4796    2.9927    1.6390 H   0  0  0  0  0  0  0  0  0  0  0  0
    1.2046    3.6302    1.5943 H   0  0  0  0  0  0  0  0  0  0  0  0
   -1.4173    2.3449   -2.8260 H   0  0  0  0  0  0  0  0  0  0  0  0
   -0.5834    3.9498   -2.9034 H   0  0  0  0  0  0  0  0  0  0  0  0
   -1.1589    3.3222   -5.1655 H   0  0  0  0  0  0  0  0  0  0  0  0
   -0.3771    1.7131   -5.0002 H   0  0  0  0  0  0  0  0  0  0  0  0
    0.6305    3.2162   -4.9861 H   0  0  0  0  0  0  0  0  0  0  0  0
   -3.0945   -2.1490   -4.9673 H   0  0  0  0  0  0  0  0  0  0  0  0
   -7.1419   -3.8803   -6.3469 H   0  0  0  0  0  0  0  0  0  0  0  0
   -6.7410    0.1416   -9.2260 H   0  0  0  0  0  0  0  0  0  0  0  0
   -4.9668    0.3915   -9.0138 H   0  0  0  0  0  0  0  0  0  0  0  0
   -6.2442    2.2221   -7.9407 H   0  0  0  0  0  0  0  0  0  0  0  0
   -5.3823    1.2573   -6.6753 H   0  0  0  0  0  0  0  0  0  0  0  0
   -7.1645    1.0410   -6.9274 H   0  0  0  0  0  0  0  0  0  0  0  0
    0.3521  -11.4691   -5.4590 H   0  0  0  0  0  0  0  0  0  0  0  0
    0.0389  -11.8439   -3.7319 H   0  0  0  0  0  0  0  0  0  0  0  0
    2.0420   -9.6748   -4.6882 H   0  0  0  0  0  0  0  0  0  0  0  0
    2.4870  -11.3815   -4.3673 H   0  0  0  0  0  0  0  0  0  0  0  0
    3.0112  -10.0229   -2.3994 H   0  0  0  0  0  0  0  0  0  0  0  0
    1.6880  -11.1731   -1.9906 H   0  0  0  0  0  0  0  0  0  0  0  0
    1.3073   -9.4315   -2.2915 H   0  0  0  0  0  0  0  0  0  0  0  0
   -2.7458   -7.9001   -2.7297 H   0  0  0  0  0  0  0  0  0  0  0  0
   -3.4347   -8.8536   -7.1560 H   0  0  0  0  0  0  0  0  0  0  0  0
   -6.0616   -8.7369   -9.7215 H   0  0  0  0  0  0  0  0  0  0  0  0
   -3.3816  -10.2284  -14.2006 H   0  0  0  0  0  0  0  0  0  0  0  0
    0.0899   -7.8314  -11.3411 H   0  0  0  0  0  0  0  0  0  0  0  0
    1.5135   -9.3399  -14.1698 H   0  0  0  0  0  0  0  0  0  0  0  0
    1.6959   -6.8256  -14.7754 H   0  0  0  0  0  0  0  0  0  0  0  0
   -0.6461   -5.6113  -14.4622 H   0  0  0  0  0  0  0  0  0  0  0  0
   -2.3961   -6.8390  -15.9537 H   0  0  0  0  0  0  0  0  0  0  0  0
   -1.1784   -8.8255  -17.2165 H   0  0  0  0  0  0  0  0  0  0  0  0
    0.7139   -6.9787  -17.2212 H   0  0  0  0  0  0  0  0  0  0  0  0
    1.4595   -8.5824  -16.7631 H   0  0  0  0  0  0  0  0  0  0  0  0
   -0.0805  -10.4390  -15.5253 H   0  0  0  0  0  0  0  0  0  0  0  0
  1  2  2  3
  2  3  1  0
  3  4  2  0
  3  5  1  0
  5  6  2  0
  6  7  1  0
  7  8  2  0
  8  9  1  0
  9 10  2  0
 10 11  1  0
 11 12  2  3
 12 13  1  0
 13 14  3  0
 12 15  1  0
 15 16  3  0
  8 17  1  0
 17 18  1  0
 18 19  1  0
 19 20  2  0
 20 21  1  0
 21 22  1  0
 21 23  1  0
  1 24  1  0
 24 25  2  0
 25 26  1  0
 26 27  1  0
 27 28  2  0
 28 29  1  0
 29 30  2  0
 30 31  1  0
 30 32  1  0
 32 33  2  0
 26 34  1  0
 34 35  2  0
 35 36  1  0
 36 37  2  0
 37 38  1  0
 37 39  1  0
 39 40  2  0
 25 41  1  0
 41 42  1  0
 42 43  1  0
 43 44  2  0
 44 45  1  0
 45 46  1  0
 46 47  2  0
 47 48  1  0
 48 49  2  0
 49 50  1  0
 49 51  1  0
 51 52  2  0
 45 53  1  0
 53 54  2  0
 54 55  1  0
 55 56  2  0
 56 57  1  0
 56 58  1  0
 58 59  2  0
 44 60  1  0
 60 61  1  0
 43 62  1  0
 62 63  2  0
 63 64  1  0
 64 65  2  0
 65 66  1  0
 66 67  2  0
 67 68  1  0
 68 69  1  0
 69 70  1  0
 68 71  2  0
 63 72  1  0
 72 73  1  0
 73 74  1  0
 74 75  1  0
 75 76  1  0
 76 77  1  0
 77 78  2  0
 78 79  1  0
 79 80  1  0
 77 81  1  0
 81 82  1  0
 82 83  1  0
 83 84  1  0
 84 85  1  0
 85 86  1  0
 86 87  2  0
 87 88  1  0
 88 89  2  0
 89 90  1  0
 90 91  1  0
 91 92  1  0
 90 93  2  0
 85 94  2  0
 94 95  1  0
 95 96  1  0
 96 97  1  0
 97 98  1  0
 98 99  1  0
 99100  1  0
100101  1  0
101102  1  0
102103  1  0
103104  1  0
101105  1  0
105106  1  0
 98107  1  0
107108  1  0
 94109  1  0
109110  2  0
110111  1  0
111112  2  0
112113  1  0
113114  2  0
114115  1  0
115116  1  0
115117  2  0
117118  1  0
118119  1  0
117120  1  0
112121  1  0
121122  2  0
122123  1  0
123124  1  0
124125  1  0
125126  1  0
126127  1  0
127128  1  0
128129  1  0
126130  2  0
130131  1  0
130132  1  0
123133  2  0
133134  1  0
122135  1  0
135136  2  0
136137  1  0
136138  1  0
138139  2  3
139140  1  0
140141  2  0
140142  1  0
142143  2  0
143144  1  0
144145  2  0
145146  1  0
146147  2  0
147148  1  0
148149  2  3
149150  1  0
150151  3  0
149152  1  0
152153  3  0
145154  1  0
154155  1  0
155156  1  0
156157  2  0
157158  1  0
158159  1  0
158160  1  0
 11  2  1  0
 23 17  1  0
 61 24  1  0
104 62  1  0
134109  1  0
148139  1  0
160154  1  0
 10  5  1  0
 22 18  1  0
 33 27  1  0
 40 34  1  0
 60 41  2  0
 71 64  1  0
103 72  2  0
133111  1  0
147142  1  0
159155  1  0
 23  7  1  0
 52 46  1  0
 59 53  1  0
102 74  2  0
120113  1  0
137121  1  0
160144  1  0
100 75  2  0
131124  2  0
 80 76  2  0
 99 81  2  0
 97 82  2  0
 96 84  2  0
 93 86  1  0
  1161  1  0
  6162  1  0
  9163  1  0
 17164  1  0
 18165  1  0
 19166  1  0
 20167  1  0
 21168  1  0
 22169  1  0
 22170  1  0
 23171  1  0
 28172  1  0
 29173  1  0
 31174  1  0
 31175  1  0
 31176  1  0
 32177  1  0
 33178  1  0
 35179  1  0
 36180  1  0
 38181  1  0
 38182  1  0
 38183  1  0
 39184  1  0
 40185  1  0
 47186  1  0
 48187  1  0
 50188  1  0
 50189  1  0
 50190  1  0
 51191  1  0
 52192  1  0
 54193  1  0
 55194  1  0
 57195  1  0
 57196  1  0
 57197  1  0
 58198  1  0
 59199  1  0
 65200  1  0
 66201  1  0
 67202  1  0
 69203  1  0
 69204  1  0
 70205  1  0
 70206  1  0
 70207  1  0
 71208  1  0
 87209  1  0
 88210  1  0
 89211  1  0
 91212  1  0
 91213  1  0
 92214  1  0
 92215  1  0
 92216  1  0
 93217  1  0
105218  1  0
105219  1  0
106220  1  0
106221  1  0
106222  1  0
107223  1  0
107224  1  0
108225  1  0
108226  1  0
108227  1  0
110228  1  0
114229  1  0
118230  1  0
118231  1  0
119232  1  0
119233  1  0
119234  1  0
127235  1  0
127236  1  0
128237  1  0
128238  1  0
129239  1  0
129240  1  0
129241  1  0
131242  1  0
135243  1  0
138244  1  0
143245  1  0
146246  1  0
154247  1  0
155248  1  0
156249  1  0
157250  1  0
158251  1  0
159252  1  0
159253  1  0
160254  1  0
M  END

