
     RDKit          3D

227251  0  0  0  0  0  0  0  0999 V2000
   -3.9556   -7.0140   -3.8287 C   0  0  0  0  0  0  0  0  0  0  0  0
   -4.5162   -6.5723   -2.6876 C   0  0  0  0  0  0  0  0  0  0  0  0
   -3.9501   -5.5316   -1.8228 C   0  0  0  0  0  0  0  0  0  0  0  0
   -3.2521   -4.5501   -2.1949 O   0  0  0  0  0  0  0  0  0  0  0  0
   -4.3257   -5.8128   -0.4575 C   0  0  0  0  0  0  0  0  0  0  0  0
   -3.7863   -5.2159    0.7020 C   0  0  0  0  0  0  0  0  0  0  0  0
   -4.1610   -5.8444    1.8731 C   0  0  0  0  0  0  0  0  0  0  0  0
   -5.0356   -6.9812    1.9151 C   0  0  0  0  0  0  0  0  0  0  0  0
   -5.5860   -7.5603    0.7762 C   0  0  0  0  0  0  0  0  0  0  0  0
   -5.2131   -6.9216   -0.4434 C   0  0  0  0  0  0  0  0  0  0  0  0
   -5.4919   -7.3269   -1.8503 C   0  0  0  0  0  0  0  0  0  0  0  0
   -6.5398   -8.0607   -2.2969 C   0  0  0  0  0  0  0  0  0  0  0  0
   -7.5082   -8.6418   -1.4015 C   0  0  0  0  0  0  0  0  0  0  0  0
   -8.2968   -9.1102   -0.6939 N   0  0  0  0  0  0  0  0  0  0  0  0
   -6.8376   -8.1770   -3.7014 C   0  0  0  0  0  0  0  0  0  0  0  0
   -7.0851   -8.2728   -4.8300 N   0  0  0  0  0  0  0  0  0  0  0  0
   -4.8993   -7.0472    3.4109 C   0  0  0  0  0  0  0  0  0  0  0  0
   -6.1112   -6.5400    4.2458 C   0  0  0  0  0  0  0  0  0  0  0  0
   -5.5866   -6.3337    5.6501 C   0  0  0  0  0  0  0  0  0  0  0  0
   -4.7754   -5.2678    5.6001 C   0  0  0  0  0  0  0  0  0  0  0  0
   -4.7803   -4.7953    4.1659 C   0  0  0  0  0  0  0  0  0  0  0  0
   -6.2360   -5.0843    3.8280 C   0  0  0  0  0  0  0  0  0  0  0  0
   -4.0085   -5.8815    3.3631 C   0  0  0  0  0  0  0  0  0  0  0  0
   -2.6302   -6.5454   -4.2549 C   0  0  0  0  0  0  0  0  0  0  0  0
   -2.3472   -5.7575   -5.3724 C   0  0  0  0  0  0  0  0  0  0  0  0
   -3.3201   -5.3734   -6.3544 N   0  0  0  0  0  0  0  0  0  0  0  0
   -4.3732   -4.4518   -6.0016 C   0  0  0  0  0  0  0  0  0  0  0  0
   -4.1029   -3.3424   -5.1810 C   0  0  0  0  0  0  0  0  0  0  0  0
   -5.1192   -2.4446   -4.8466 C   0  0  0  0  0  0  0  0  0  0  0  0
   -6.4258   -2.6434   -5.3214 C   0  0  0  0  0  0  0  0  0  0  0  0
   -7.4979   -1.6452   -5.0095 C   0  0  0  0  0  0  0  0  0  0  0  0
   -6.6984   -3.7487   -6.1432 C   0  0  0  0  0  0  0  0  0  0  0  0
   -5.6842   -4.6487   -6.4740 C   0  0  0  0  0  0  0  0  0  0  0  0
   -3.2921   -6.0281   -7.6372 C   0  0  0  0  0  0  0  0  0  0  0  0
   -3.0477   -7.4101   -7.7280 C   0  0  0  0  0  0  0  0  0  0  0  0
   -3.0327   -8.0451   -8.9694 C   0  0  0  0  0  0  0  0  0  0  0  0
   -3.2577   -7.3112  -10.1440 C   0  0  0  0  0  0  0  0  0  0  0  0
   -3.2146   -7.9963  -11.4755 C   0  0  0  0  0  0  0  0  0  0  0  0
   -3.4780   -5.9264  -10.0608 C   0  0  0  0  0  0  0  0  0  0  0  0
   -3.5048   -5.2913   -8.8139 C   0  0  0  0  0  0  0  0  0  0  0  0
   -1.0325   -5.2833   -5.3400 C   0  0  0  0  0  0  0  0  0  0  0  0
   -0.2580   -4.0292   -6.1161 S   0  0  0  0  0  0  0  0  0  0  0  0
    1.0902   -3.9872   -5.0672 C   0  0  0  0  0  0  0  0  0  0  0  0
    0.9203   -4.9847   -4.0619 C   0  0  0  0  0  0  0  0  0  0  0  0
    1.7662   -5.2187   -2.9013 N   0  0  0  0  0  0  0  0  0  0  0  0
    2.7269   -4.2819   -2.3853 C   0  0  0  0  0  0  0  0  0  0  0  0
    4.0491   -4.7023   -2.1777 C   0  0  0  0  0  0  0  0  0  0  0  0
    4.9446   -3.9059   -1.4631 C   0  0  0  0  0  0  0  0  0  0  0  0
    4.5258   -2.6808   -0.9365 C   0  0  0  0  0  0  0  0  0  0  0  0
    5.4830   -1.8712   -0.1219 C   0  0  0  0  0  0  0  0  0  0  0  0
    3.2069   -2.2444   -1.1486 C   0  0  0  0  0  0  0  0  0  0  0  0
    2.3050   -3.0535   -1.8547 C   0  0  0  0  0  0  0  0  0  0  0  0
    1.6074   -6.4136   -2.1151 C   0  0  0  0  0  0  0  0  0  0  0  0
    1.9989   -7.6599   -2.6217 C   0  0  0  0  0  0  0  0  0  0  0  0
    1.8831   -8.8067   -1.8301 C   0  0  0  0  0  0  0  0  0  0  0  0
    1.3468   -8.7213   -0.5338 C   0  0  0  0  0  0  0  0  0  0  0  0
    1.2645   -9.9464    0.3284 C   0  0  0  0  0  0  0  0  0  0  0  0
    0.9553   -7.4707   -0.0280 C   0  0  0  0  0  0  0  0  0  0  0  0
    1.0853   -6.3237   -0.8135 C   0  0  0  0  0  0  0  0  0  0  0  0
   -0.2901   -5.6725   -4.2687 C   0  0  0  0  0  0  0  0  0  0  0  0
   -1.2398   -6.6469   -3.2839 S   0  0  0  0  0  0  0  0  0  0  0  0
    1.9242   -2.7762   -4.9992 C   0  0  0  0  0  0  0  0  0  0  0  0
    3.3353   -2.6683   -5.0102 C   0  0  0  0  0  0  0  0  0  0  0  0
    4.2738   -3.7622   -5.4074 C   0  0  0  0  0  0  0  0  0  0  0  0
    3.8799   -4.7088   -6.3723 C   0  0  0  0  0  0  0  0  0  0  0  0
    4.7760   -5.6889   -6.8161 C   0  0  0  0  0  0  0  0  0  0  0  0
    6.0853   -5.7149   -6.3393 C   0  0  0  0  0  0  0  0  0  0  0  0
    6.5021   -4.7752   -5.3858 C   0  0  0  0  0  0  0  0  0  0  0  0
    7.9231   -4.7725   -4.8967 C   0  0  0  0  0  0  0  0  0  0  0  0
    8.1274   -5.7993   -3.7923 C   0  0  0  0  0  0  0  0  0  0  0  0
    5.5857   -3.8291   -4.8999 C   0  0  0  0  0  0  0  0  0  0  0  0
    3.7098   -1.3492   -4.6664 C   0  0  0  0  0  0  0  0  0  0  0  0
    5.1451   -0.6577   -4.0774 S   0  0  0  0  0  0  0  0  0  0  0  0
    4.3886    0.7898   -3.6302 C   0  0  0  0  0  0  0  0  0  0  0  0
    4.5430    1.6022   -2.5327 C   0  0  0  0  0  0  0  0  0  0  0  0
    5.5046    1.4874   -1.5104 C   0  0  0  0  0  0  0  0  0  0  0  0
    5.1443    1.8636   -0.1803 C   0  0  0  0  0  0  0  0  0  0  0  0
    6.0787    1.6963    0.7865 N   0  0  0  0  0  0  0  0  0  0  0  0
    7.3137    1.0788   -0.1301 S   0  0  0  0  0  0  0  0  0  0  0  0
    6.7501    0.9793   -1.6855 N   0  0  0  0  0  0  0  0  0  0  0  0
    3.8844    2.4264    0.0337 C   0  0  0  0  0  0  0  0  0  0  0  0
    3.2208    2.8454    1.1523 C   0  0  0  0  0  0  0  0  0  0  0  0
    3.3106    2.7624    2.8428 S   0  0  0  0  0  0  0  0  0  0  0  0
    1.9007    3.7266    3.0040 C   0  0  0  0  0  0  0  0  0  0  0  0
    1.1557    4.2233    4.0835 C   0  0  0  0  0  0  0  0  0  0  0  0
    1.1986    3.6661    5.4690 C   0  0  0  0  0  0  0  0  0  0  0  0
    0.0027    3.5425    6.2045 C   0  0  0  0  0  0  0  0  0  0  0  0
    0.0048    2.9647    7.4736 C   0  0  0  0  0  0  0  0  0  0  0  0
    1.1929    2.4851    8.0246 C   0  0  0  0  0  0  0  0  0  0  0  0
    2.3944    2.5922    7.3130 C   0  0  0  0  0  0  0  0  0  0  0  0
    3.6642    2.0255    7.8880 C   0  0  0  0  0  0  0  0  0  0  0  0
    3.7628    0.5283    7.6098 C   0  0  0  0  0  0  0  0  0  0  0  0
    2.3906    3.1714    6.0303 C   0  0  0  0  0  0  0  0  0  0  0  0
    0.1693    5.1322    3.6188 C   0  0  0  0  0  0  0  0  0  0  0  0
    0.1493    5.1509    1.9119 S   0  0  0  0  0  0  0  0  0  0  0  0
    1.4262    4.0944    1.7692 C   0  0  0  0  0  0  0  0  0  0  0  0
    2.1366    3.5330    0.7279 C   0  0  0  0  0  0  0  0  0  0  0  0
    2.0005    3.5355   -0.6179 N   0  0  0  0  0  0  0  0  0  0  0  0
    3.0414    2.7562   -1.0285 C   0  0  0  0  0  0  0  0  0  0  0  0
    3.2774    2.1670   -2.2899 C   0  0  0  0  0  0  0  0  0  0  0  0
    2.3373    1.6096   -3.1181 N   0  0  0  0  0  0  0  0  0  0  0  0
    3.0490    0.7574   -3.9054 C   0  0  0  0  0  0  0  0  0  0  0  0
    2.6735   -0.4634   -4.4795 C   0  0  0  0  0  0  0  0  0  0  0  0
    1.2245   -1.2646   -4.6676 S   0  0  0  0  0  0  0  0  0  0  0  0
    0.8801    1.5310   -2.9035 C   0  0  0  0  0  0  0  0  0  0  0  0
    0.5226    0.5712   -1.7715 C   0  0  0  0  0  0  0  0  0  0  0  0
    1.3544    4.6015   -1.3962 C   0  0  0  0  0  0  0  0  0  0  0  0
    2.0655    5.9368   -1.1934 C   0  0  0  0  0  0  0  0  0  0  0  0
   -0.5351    6.1670    4.4168 C   0  0  0  0  0  0  0  0  0  0  0  0
    0.1770    6.9669    5.3482 C   0  0  0  0  0  0  0  0  0  0  0  0
    1.5422    6.7004    5.5554 O   0  0  0  0  0  0  0  0  0  0  0  0
    2.2013    6.6228    6.8262 C   0  0  0  0  0  0  0  0  0  0  0  0
    3.6798    6.3647    6.6042 C   0  0  0  0  0  0  0  0  0  0  0  0
   -0.4441    8.0955    5.9398 C   0  0  0  0  0  0  0  0  0  0  0  0
    0.2852    8.8372    6.8889 O   0  0  0  0  0  0  0  0  0  0  0  0
   -0.2239    9.3804    8.1076 C   0  0  0  0  0  0  0  0  0  0  0  0
   -0.8932    8.3068    8.9596 C   0  0  0  0  0  0  0  0  0  0  0  0
   -1.7243    8.5149    5.4961 C   0  0  0  0  0  0  0  0  0  0  0  0
   -2.4563    7.6823    4.6452 C   0  0  0  0  0  0  0  0  0  0  0  0
   -1.8687    6.4966    4.1218 C   0  0  0  0  0  0  0  0  0  0  0  0
   -2.6343    5.7760    3.2550 N   0  0  0  0  0  0  0  0  0  0  0  0
   -4.0058    6.6964    3.2196 S   0  0  0  0  0  0  0  0  0  0  0  0
   -3.7165    7.9741    4.2307 N   0  0  0  0  0  0  0  0  0  0  0  0
   -2.1846    9.9067    5.7173 C   0  0  0  0  0  0  0  0  0  0  0  0
   -1.4363   10.9684    5.3435 C   0  0  0  0  0  0  0  0  0  0  0  0
   -0.1423   10.8779    4.6623 C   0  0  0  0  0  0  0  0  0  0  0  0
    0.2001   10.0070    3.8197 O   0  0  0  0  0  0  0  0  0  0  0  0
    0.6962   11.9569    5.1321 C   0  0  0  0  0  0  0  0  0  0  0  0
    2.0801   12.0579    5.0312 C   0  0  0  0  0  0  0  0  0  0  0  0
    2.7441   13.0590    5.7681 C   0  0  0  0  0  0  0  0  0  0  0  0
    4.2230   13.0978    5.7841 C   0  0  0  0  0  0  0  0  0  0  0  0
    4.8257   14.0296    6.3852 O   0  0  0  0  0  0  0  0  0  0  0  0
    4.9517   12.0728    5.1645 O   0  0  0  0  0  0  0  0  0  0  0  0
    6.3653   11.9609    5.2602 C   0  0  0  0  0  0  0  0  0  0  0  0
    1.9825   13.9470    6.5657 C   0  0  0  0  0  0  0  0  0  0  0  0
    0.5841   13.8111    6.6594 C   0  0  0  0  0  0  0  0  0  0  0  0
   -0.0539   12.8033    5.9267 C   0  0  0  0  0  0  0  0  0  0  0  0
   -1.4633   12.3164    5.9773 C   0  0  0  0  0  0  0  0  0  0  0  0
   -2.5618   13.0146    6.3362 C   0  0  0  0  0  0  0  0  0  0  0  0
   -2.4810   14.3740    6.8013 C   0  0  0  0  0  0  0  0  0  0  0  0
   -2.4224   15.4704    7.1708 N   0  0  0  0  0  0  0  0  0  0  0  0
   -3.8897   12.4940    6.1323 C   0  0  0  0  0  0  0  0  0  0  0  0
   -4.9615   12.0857    5.9666 N   0  0  0  0  0  0  0  0  0  0  0  0
   -4.3667   -7.8570   -4.3579 H   0  0  0  0  0  0  0  0  0  0  0  0
   -3.0904   -4.3859    0.6770 H   0  0  0  0  0  0  0  0  0  0  0  0
   -6.1871   -8.4548    0.8368 H   0  0  0  0  0  0  0  0  0  0  0  0
   -4.4158   -7.9830    3.7751 H   0  0  0  0  0  0  0  0  0  0  0  0
   -7.0408   -7.1481    4.1702 H   0  0  0  0  0  0  0  0  0  0  0  0
   -5.8640   -6.8785    6.5469 H   0  0  0  0  0  0  0  0  0  0  0  0
   -4.2829   -4.7974    6.4440 H   0  0  0  0  0  0  0  0  0  0  0  0
   -4.4402   -3.7474    4.0114 H   0  0  0  0  0  0  0  0  0  0  0  0
   -6.9629   -4.5046    4.4485 H   0  0  0  0  0  0  0  0  0  0  0  0
   -6.4923   -4.9372    2.7553 H   0  0  0  0  0  0  0  0  0  0  0  0
   -2.9642   -6.0783    3.6979 H   0  0  0  0  0  0  0  0  0  0  0  0
   -3.0993   -3.1649   -4.8132 H   0  0  0  0  0  0  0  0  0  0  0  0
   -4.8886   -1.5837   -4.2283 H   0  0  0  0  0  0  0  0  0  0  0  0
   -7.4427   -0.8022   -5.7332 H   0  0  0  0  0  0  0  0  0  0  0  0
   -7.3692   -1.2458   -3.9805 H   0  0  0  0  0  0  0  0  0  0  0  0
   -8.5054   -2.1083   -5.0741 H   0  0  0  0  0  0  0  0  0  0  0  0
   -7.6975   -3.9090   -6.5289 H   0  0  0  0  0  0  0  0  0  0  0  0
   -5.9243   -5.5034   -7.0944 H   0  0  0  0  0  0  0  0  0  0  0  0
   -2.8844   -8.0015   -6.8363 H   0  0  0  0  0  0  0  0  0  0  0  0
   -2.8468   -9.1110   -9.0179 H   0  0  0  0  0  0  0  0  0  0  0  0
   -3.7028   -8.9909  -11.4080 H   0  0  0  0  0  0  0  0  0  0  0  0
   -3.7449   -7.4026  -12.2506 H   0  0  0  0  0  0  0  0  0  0  0  0
   -2.1560   -8.1348  -11.7849 H   0  0  0  0  0  0  0  0  0  0  0  0
   -3.6322   -5.3390  -10.9587 H   0  0  0  0  0  0  0  0  0  0  0  0
   -3.6750   -4.2220   -8.7647 H   0  0  0  0  0  0  0  0  0  0  0  0
    4.3801   -5.6659   -2.5435 H   0  0  0  0  0  0  0  0  0  0  0  0
    5.9590   -4.2576   -1.3067 H   0  0  0  0  0  0  0  0  0  0  0  0
    4.9957   -0.9676    0.3017 H   0  0  0  0  0  0  0  0  0  0  0  0
    5.8775   -2.4826    0.7195 H   0  0  0  0  0  0  0  0  0  0  0  0
    6.3339   -1.5645   -0.7669 H   0  0  0  0  0  0  0  0  0  0  0  0
    2.8715   -1.3002   -0.7384 H   0  0  0  0  0  0  0  0  0  0  0  0
    1.2707   -2.7517   -1.9499 H   0  0  0  0  0  0  0  0  0  0  0  0
    2.4200   -7.7316   -3.6183 H   0  0  0  0  0  0  0  0  0  0  0  0
    2.2204   -9.7578   -2.2225 H   0  0  0  0  0  0  0  0  0  0  0  0
    0.5050   -9.8216    1.1291 H   0  0  0  0  0  0  0  0  0  0  0  0
    0.9789  -10.8300   -0.2803 H   0  0  0  0  0  0  0  0  0  0  0  0
    2.2531  -10.1342    0.7994 H   0  0  0  0  0  0  0  0  0  0  0  0
    0.5454   -7.3847    0.9721 H   0  0  0  0  0  0  0  0  0  0  0  0
    0.7751   -5.3629   -0.4157 H   0  0  0  0  0  0  0  0  0  0  0  0
    2.8995   -4.6785   -6.8224 H   0  0  0  0  0  0  0  0  0  0  0  0
    4.4563   -6.4086   -7.5582 H   0  0  0  0  0  0  0  0  0  0  0  0
    6.7712   -6.4701   -6.7112 H   0  0  0  0  0  0  0  0  0  0  0  0
    8.6141   -4.9927   -5.7444 H   0  0  0  0  0  0  0  0  0  0  0  0
    8.1995   -3.7653   -4.5074 H   0  0  0  0  0  0  0  0  0  0  0  0
    7.4665   -5.5731   -2.9288 H   0  0  0  0  0  0  0  0  0  0  0  0
    7.9004   -6.8179   -4.1672 H   0  0  0  0  0  0  0  0  0  0  0  0
    9.1832   -5.7702   -3.4514 H   0  0  0  0  0  0  0  0  0  0  0  0
    5.9129   -3.1655   -4.1193 H   0  0  0  0  0  0  0  0  0  0  0  0
   -0.9471    3.8535    5.7820 H   0  0  0  0  0  0  0  0  0  0  0  0
   -0.9224    2.8633    8.0220 H   0  0  0  0  0  0  0  0  0  0  0  0
    1.1767    2.0165    9.0041 H   0  0  0  0  0  0  0  0  0  0  0  0
    3.6860    2.1912    8.9873 H   0  0  0  0  0  0  0  0  0  0  0  0
    4.5530    2.5361    7.4571 H   0  0  0  0  0  0  0  0  0  0  0  0
    2.8865   -0.0039    8.0448 H   0  0  0  0  0  0  0  0  0  0  0  0
    4.6895    0.1214    8.0700 H   0  0  0  0  0  0  0  0  0  0  0  0
    3.7954    0.3383    6.5141 H   0  0  0  0  0  0  0  0  0  0  0  0
    3.3199    3.2389    5.4916 H   0  0  0  0  0  0  0  0  0  0  0  0
    0.3760    1.2192   -3.8401 H   0  0  0  0  0  0  0  0  0  0  0  0
    0.4435    2.5121   -2.6711 H   0  0  0  0  0  0  0  0  0  0  0  0
    0.9110    0.9386   -0.7984 H   0  0  0  0  0  0  0  0  0  0  0  0
   -0.5822    0.4787   -1.7005 H   0  0  0  0  0  0  0  0  0  0  0  0
    0.9496   -0.4300   -1.9643 H   0  0  0  0  0  0  0  0  0  0  0  0
    1.4154    4.3887   -2.4816 H   0  0  0  0  0  0  0  0  0  0  0  0
    0.2901    4.6905   -1.0997 H   0  0  0  0  0  0  0  0  0  0  0  0
    2.0726    6.2261   -0.1223 H   0  0  0  0  0  0  0  0  0  0  0  0
    1.5428    6.7339   -1.7665 H   0  0  0  0  0  0  0  0  0  0  0  0
    3.1140    5.8624   -1.5541 H   0  0  0  0  0  0  0  0  0  0  0  0
    2.1326    7.5648    7.3944 H   0  0  0  0  0  0  0  0  0  0  0  0
    1.7618    5.7960    7.4204 H   0  0  0  0  0  0  0  0  0  0  0  0
    4.1766    6.1436    7.5723 H   0  0  0  0  0  0  0  0  0  0  0  0
    3.8292    5.5066    5.9184 H   0  0  0  0  0  0  0  0  0  0  0  0
    4.1480    7.2637    6.1543 H   0  0  0  0  0  0  0  0  0  0  0  0
   -0.9338   10.2079    7.9220 H   0  0  0  0  0  0  0  0  0  0  0  0
    0.6262    9.8108    8.6780 H   0  0  0  0  0  0  0  0  0  0  0  0
   -1.8058    7.9254    8.4539 H   0  0  0  0  0  0  0  0  0  0  0  0
   -0.1845    7.4650    9.1388 H   0  0  0  0  0  0  0  0  0  0  0  0
   -1.1791    8.7448    9.9365 H   0  0  0  0  0  0  0  0  0  0  0  0
   -3.0587   10.0362    6.3382 H   0  0  0  0  0  0  0  0  0  0  0  0
    2.6275   11.3292    4.4457 H   0  0  0  0  0  0  0  0  0  0  0  0
    6.8552   12.8603    4.8286 H   0  0  0  0  0  0  0  0  0  0  0  0
    6.6661   11.8401    6.3231 H   0  0  0  0  0  0  0  0  0  0  0  0
    6.6943   11.0654    4.6951 H   0  0  0  0  0  0  0  0  0  0  0  0
    2.4711   14.7100    7.1598 H   0  0  0  0  0  0  0  0  0  0  0  0
    0.0479   14.4411    7.3513 H   0  0  0  0  0  0  0  0  0  0  0  0
  1  2  2  3
  2  3  1  0
  3  4  2  0
  3  5  1  0
  5  6  2  0
  6  7  1  0
  7  8  2  0
  8  9  1  0
  9 10  2  0
 10 11  1  0
 11 12  2  3
 12 13  1  0
 13 14  3  0
 12 15  1  0
 15 16  3  0
  8 17  1  0
 17 18  1  0
 18 19  1  0
 19 20  2  0
 20 21  1  0
 21 22  1  0
 21 23  1  0
  1 24  1  0
 24 25  2  0
 25 26  1  0
 26 27  1  0
 27 28  2  0
 28 29  1  0
 29 30  2  0
 30 31  1  0
 30 32  1  0
 32 33  2  0
 26 34  1  0
 34 35  2  0
 35 36  1  0
 36 37  2  0
 37 38  1  0
 37 39  1  0
 39 40  2  0
 25 41  1  0
 41 42  1  0
 42 43  1  0
 43 44  2  0
 44 45  1  0
 45 46  1  0
 46 47  2  0
 47 48  1  0
 48 49  2  0
 49 50  1  0
 49 51  1  0
 51 52  2  0
 45 53  1  0
 53 54  2  0
 54 55  1  0
 55 56  2  0
 56 57  1  0
 56 58  1  0
 58 59  2  0
 44 60  1  0
 60 61  1  0
 43 62  1  0
 62 63  2  0
 63 64  1  0
 64 65  2  0
 65 66  1  0
 66 67  2  0
 67 68  1  0
 68 69  1  0
 69 70  1  0
 68 71  2  0
 63 72  1  0
 72 73  1  0
 73 74  1  0
 74 75  1  0
 75 76  1  0
 76 77  1  0
 77 78  2  0
 78 79  1  0
 79 80  1  0
 77 81  1  0
 81 82  1  0
 82 83  1  0
 83 84  1  0
 84 85  1  0
 85 86  1  0
 86 87  2  0
 87 88  1  0
 88 89  2  0
 89 90  1  0
 90 91  1  0
 91 92  1  0
 90 93  2  0
 85 94  2  0
 94 95  1  0
 95 96  1  0
 96 97  1  0
 97 98  1  0
 98 99  1  0
 99100  1  0
100101  1  0
101102  1  0
102103  1  0
103104  1  0
101105  1  0
105106  1  0
 98107  1  0
107108  1  0
 94109  1  0
109110  2  0
110111  1  0
111112  1  0
112113  1  0
110114  1  0
114115  1  0
115116  1  0
116117  1  0
114118  2  0
118119  1  0
119120  1  0
120121  2  0
121122  1  0
122123  1  0
118124  1  0
124125  2  3
125126  1  0
126127  2  0
126128  1  0
128129  2  0
129130  1  0
130131  1  0
131132  2  0
131133  1  0
133134  1  0
130135  2  0
135136  1  0
136137  2  0
137138  1  0
138139  2  3
139140  1  0
140141  3  0
139142  1  0
142143  3  0
 11  2  1  0
 23 17  1  0
 61 24  1  0
104 62  1  0
120109  1  0
138125  1  0
 10  5  1  0
 22 18  1  0
 33 27  1  0
 40 34  1  0
 60 41  2  0
 71 64  1  0
103 72  2  0
123119  2  0
137128  1  0
 23  7  1  0
 52 46  1  0
 59 53  1  0
102 74  2  0
100 75  2  0
 80 76  2  0
 99 81  2  0
 97 82  2  0
 96 84  2  0
 93 86  1  0
  1144  1  0
  6145  1  0
  9146  1  0
 17147  1  0
 18148  1  0
 19149  1  0
 20150  1  0
 21151  1  0
 22152  1  0
 22153  1  0
 23154  1  0
 28155  1  0
 29156  1  0
 31157  1  0
 31158  1  0
 31159  1  0
 32160  1  0
 33161  1  0
 35162  1  0
 36163  1  0
 38164  1  0
 38165  1  0
 38166  1  0
 39167  1  0
 40168  1  0
 47169  1  0
 48170  1  0
 50171  1  0
 50172  1  0
 50173  1  0
 51174  1  0
 52175  1  0
 54176  1  0
 55177  1  0
 57178  1  0
 57179  1  0
 57180  1  0
 58181  1  0
 59182  1  0
 65183  1  0
 66184  1  0
 67185  1  0
 69186  1  0
 69187  1  0
 70188  1  0
 70189  1  0
 70190  1  0
 71191  1  0
 87192  1  0
 88193  1  0
 89194  1  0
 91195  1  0
 91196  1  0
 92197  1  0
 92198  1  0
 92199  1  0
 93200  1  0
105201  1  0
105202  1  0
106203  1  0
106204  1  0
106205  1  0
107206  1  0
107207  1  0
108208  1  0
108209  1  0
108210  1  0
112211  1  0
112212  1  0
113213  1  0
113214  1  0
113215  1  0
116216  1  0
116217  1  0
117218  1  0
117219  1  0
117220  1  0
124221  1  0
129222  1  0
134223  1  0
134224  1  0
134225  1  0
135226  1  0
136227  1  0
M  END

