
     RDKit          3D

262290  0  0  0  0  0  0  0  0999 V2000
    5.9722    0.6523    3.6136 C   0  0  0  0  0  0  0  0  0  0  0  0
    7.3036    0.7370    3.7602 C   0  0  0  0  0  0  0  0  0  0  0  0
    8.2261    1.2035    2.7146 C   0  0  0  0  0  0  0  0  0  0  0  0
    7.9956    2.1015    1.8607 O   0  0  0  0  0  0  0  0  0  0  0  0
    9.4378    0.4194    2.7910 C   0  0  0  0  0  0  0  0  0  0  0  0
   10.4274    0.3148    1.7886 C   0  0  0  0  0  0  0  0  0  0  0  0
   11.3044   -0.7302    1.9863 C   0  0  0  0  0  0  0  0  0  0  0  0
   11.2268   -1.6252    3.1021 C   0  0  0  0  0  0  0  0  0  0  0  0
   10.2727   -1.5125    4.1037 C   0  0  0  0  0  0  0  0  0  0  0  0
    9.3597   -0.4350    3.9214 C   0  0  0  0  0  0  0  0  0  0  0  0
    8.1010   -0.1402    4.6549 C   0  0  0  0  0  0  0  0  0  0  0  0
    7.8009   -0.4582    5.9337 C   0  0  0  0  0  0  0  0  0  0  0  0
    6.6593    0.1152    6.6002 C   0  0  0  0  0  0  0  0  0  0  0  0
    5.7484    0.5845    7.1393 N   0  0  0  0  0  0  0  0  0  0  0  0
    8.6767   -1.2588    6.7485 C   0  0  0  0  0  0  0  0  0  0  0  0
    9.3752   -1.8999    7.4122 N   0  0  0  0  0  0  0  0  0  0  0  0
   12.3205   -2.4707    2.5181 C   0  0  0  0  0  0  0  0  0  0  0  0
   11.9073   -3.8235    1.8508 C   0  0  0  0  0  0  0  0  0  0  0  0
   10.5127   -3.7162    1.2743 C   0  0  0  0  0  0  0  0  0  0  0  0
   10.5907   -2.8789    0.2429 C   0  0  0  0  0  0  0  0  0  0  0  0
   12.0358   -2.4378    0.1544 C   0  0  0  0  0  0  0  0  0  0  0  0
   12.7048   -3.7360    0.5627 C   0  0  0  0  0  0  0  0  0  0  0  0
   12.4036   -1.5470    1.3814 C   0  0  0  0  0  0  0  0  0  0  0  0
    5.3553    0.9414    2.3176 C   0  0  0  0  0  0  0  0  0  0  0  0
    4.9843    2.2087    1.8488 C   0  0  0  0  0  0  0  0  0  0  0  0
    4.6063    3.2912    2.6998 N   0  0  0  0  0  0  0  0  0  0  0  0
    3.2864    3.2984    3.2522 C   0  0  0  0  0  0  0  0  0  0  0  0
    3.0017    2.5504    4.4045 C   0  0  0  0  0  0  0  0  0  0  0  0
    1.6917    2.4734    4.8837 C   0  0  0  0  0  0  0  0  0  0  0  0
    0.6527    3.1483    4.2202 C   0  0  0  0  0  0  0  0  0  0  0  0
   -0.7584    3.0578    4.7213 C   0  0  0  0  0  0  0  0  0  0  0  0
    0.9513    3.9351    3.0951 C   0  0  0  0  0  0  0  0  0  0  0  0
    2.2628    4.0091    2.6138 C   0  0  0  0  0  0  0  0  0  0  0  0
    5.5170    4.3494    2.9961 C   0  0  0  0  0  0  0  0  0  0  0  0
    5.5322    5.5066    2.2075 C   0  0  0  0  0  0  0  0  0  0  0  0
    6.3931    6.5594    2.5241 C   0  0  0  0  0  0  0  0  0  0  0  0
    7.2578    6.4606    3.6278 C   0  0  0  0  0  0  0  0  0  0  0  0
    8.2047    7.5723    3.9639 C   0  0  0  0  0  0  0  0  0  0  0  0
    7.2451    5.2957    4.4107 C   0  0  0  0  0  0  0  0  0  0  0  0
    6.3698    4.2508    4.1073 C   0  0  0  0  0  0  0  0  0  0  0  0
    4.7347    2.1701    0.4808 C   0  0  0  0  0  0  0  0  0  0  0  0
    4.1768    3.2611   -0.6593 S   0  0  0  0  0  0  0  0  0  0  0  0
    4.0962    2.1247   -1.9416 C   0  0  0  0  0  0  0  0  0  0  0  0
    4.4753    0.8629   -1.4303 C   0  0  0  0  0  0  0  0  0  0  0  0
    4.1339   -0.3995   -2.0289 N   0  0  0  0  0  0  0  0  0  0  0  0
    2.9593   -1.0851   -1.5341 C   0  0  0  0  0  0  0  0  0  0  0  0
    1.7954   -0.3604   -1.2113 C   0  0  0  0  0  0  0  0  0  0  0  0
    0.6918   -1.0006   -0.6423 C   0  0  0  0  0  0  0  0  0  0  0  0
    0.7196   -2.3810   -0.3988 C   0  0  0  0  0  0  0  0  0  0  0  0
   -0.4299   -3.0423    0.2950 C   0  0  0  0  0  0  0  0  0  0  0  0
    1.8738   -3.1116   -0.7249 C   0  0  0  0  0  0  0  0  0  0  0  0
    2.9836   -2.4708   -1.2863 C   0  0  0  0  0  0  0  0  0  0  0  0
    5.0595   -1.0516   -2.9263 C   0  0  0  0  0  0  0  0  0  0  0  0
    6.4505   -0.9429   -2.7354 C   0  0  0  0  0  0  0  0  0  0  0  0
    7.3374   -1.6347   -3.5679 C   0  0  0  0  0  0  0  0  0  0  0  0
    6.8482   -2.4300   -4.6175 C   0  0  0  0  0  0  0  0  0  0  0  0
    7.7883   -3.2289   -5.4727 C   0  0  0  0  0  0  0  0  0  0  0  0
    5.4644   -2.5387   -4.8123 C   0  0  0  0  0  0  0  0  0  0  0  0
    4.5785   -1.8517   -3.9789 C   0  0  0  0  0  0  0  0  0  0  0  0
    4.8525    0.9473   -0.0955 C   0  0  0  0  0  0  0  0  0  0  0  0
    5.3105   -0.1895    1.0456 S   0  0  0  0  0  0  0  0  0  0  0  0
    3.5007    2.3984   -3.2748 C   0  0  0  0  0  0  0  0  0  0  0  0
    3.1522    3.6651   -3.8032 C   0  0  0  0  0  0  0  0  0  0  0  0
    3.5954    4.9590   -3.2514 C   0  0  0  0  0  0  0  0  0  0  0  0
    2.6714    5.9235   -2.8180 C   0  0  0  0  0  0  0  0  0  0  0  0
    3.1204    7.1220   -2.2538 C   0  0  0  0  0  0  0  0  0  0  0  0
    4.4916    7.3679   -2.1170 C   0  0  0  0  0  0  0  0  0  0  0  0
    5.4253    6.4170   -2.5620 C   0  0  0  0  0  0  0  0  0  0  0  0
    6.8998    6.6307   -2.3644 C   0  0  0  0  0  0  0  0  0  0  0  0
    7.3968    5.8352   -1.1550 C   0  0  0  0  0  0  0  0  0  0  0  0
    4.9700    5.2239   -3.1412 C   0  0  0  0  0  0  0  0  0  0  0  0
    2.3567    3.5458   -4.9458 C   0  0  0  0  0  0  0  0  0  0  0  0
    1.2022    4.5949   -5.6283 S   0  0  0  0  0  0  0  0  0  0  0  0
    0.4503    3.3263   -6.4766 C   0  0  0  0  0  0  0  0  0  0  0  0
   -0.8710    3.0442   -6.7092 C   0  0  0  0  0  0  0  0  0  0  0  0
   -1.9608    3.9041   -6.8448 C   0  0  0  0  0  0  0  0  0  0  0  0
   -3.2748    3.3562   -6.8474 C   0  0  0  0  0  0  0  0  0  0  0  0
   -4.3026    4.2384   -6.9425 N   0  0  0  0  0  0  0  0  0  0  0  0
   -3.4582    5.6578   -7.0308 S   0  0  0  0  0  0  0  0  0  0  0  0
   -1.8545    5.2528   -6.9422 N   0  0  0  0  0  0  0  0  0  0  0  0
   -3.4375    1.9805   -6.6476 C   0  0  0  0  0  0  0  0  0  0  0  0
   -4.5552    1.3133   -6.2175 C   0  0  0  0  0  0  0  0  0  0  0  0
   -6.0585    1.8171   -5.5967 S   0  0  0  0  0  0  0  0  0  0  0  0
   -6.1564    0.4678   -4.5605 C   0  0  0  0  0  0  0  0  0  0  0  0
   -6.9477    0.1893   -3.4355 C   0  0  0  0  0  0  0  0  0  0  0  0
   -8.2533    0.8239   -3.1453 C   0  0  0  0  0  0  0  0  0  0  0  0
   -8.4340    2.2126   -3.2305 C   0  0  0  0  0  0  0  0  0  0  0  0
   -9.7003    2.7742   -3.0333 C   0  0  0  0  0  0  0  0  0  0  0  0
  -10.7949    1.9516   -2.7457 C   0  0  0  0  0  0  0  0  0  0  0  0
  -10.6237    0.5655   -2.6240 C   0  0  0  0  0  0  0  0  0  0  0  0
  -11.8029   -0.3324   -2.3558 C   0  0  0  0  0  0  0  0  0  0  0  0
  -12.4075   -0.8391   -3.6633 C   0  0  0  0  0  0  0  0  0  0  0  0
   -9.3521    0.0068   -2.8314 C   0  0  0  0  0  0  0  0  0  0  0  0
   -6.3790   -0.8354   -2.6503 C   0  0  0  0  0  0  0  0  0  0  0  0
   -4.9155   -1.3126   -3.3616 S   0  0  0  0  0  0  0  0  0  0  0  0
   -5.0299   -0.3061   -4.6840 C   0  0  0  0  0  0  0  0  0  0  0  0
   -4.1243    0.1639   -5.6351 C   0  0  0  0  0  0  0  0  0  0  0  0
   -2.7805   -0.0069   -5.7488 N   0  0  0  0  0  0  0  0  0  0  0  0
   -2.3423    1.1206   -6.4092 C   0  0  0  0  0  0  0  0  0  0  0  0
   -1.0176    1.6526   -6.5517 C   0  0  0  0  0  0  0  0  0  0  0  0
    0.2090    1.0831   -6.3267 N   0  0  0  0  0  0  0  0  0  0  0  0
    1.0530    2.1321   -6.2189 C   0  0  0  0  0  0  0  0  0  0  0  0
    2.1284    2.2600   -5.3533 C   0  0  0  0  0  0  0  0  0  0  0  0
    2.8153    1.1959   -4.2695 S   0  0  0  0  0  0  0  0  0  0  0  0
    0.7177   -0.2654   -6.6253 C   0  0  0  0  0  0  0  0  0  0  0  0
    0.1115   -0.8388   -7.9076 C   0  0  0  0  0  0  0  0  0  0  0  0
   -2.0335   -1.0544   -5.0415 C   0  0  0  0  0  0  0  0  0  0  0  0
   -1.3673   -0.5114   -3.7780 C   0  0  0  0  0  0  0  0  0  0  0  0
   -6.6354   -1.0366   -1.2148 C   0  0  0  0  0  0  0  0  0  0  0  0
   -6.5890   -2.2582   -0.5203 C   0  0  0  0  0  0  0  0  0  0  0  0
   -6.6832   -3.5633   -1.1152 N   0  0  0  0  0  0  0  0  0  0  0  0
   -7.8389   -4.3792   -0.8269 C   0  0  0  0  0  0  0  0  0  0  0  0
   -9.1144   -3.7922   -0.7164 C   0  0  0  0  0  0  0  0  0  0  0  0
  -10.2312   -4.5767   -0.4145 C   0  0  0  0  0  0  0  0  0  0  0  0
  -10.0923   -5.9599   -0.2239 C   0  0  0  0  0  0  0  0  0  0  0  0
  -11.2861   -6.7925    0.1416 C   0  0  0  0  0  0  0  0  0  0  0  0
   -8.8232   -6.5460   -0.3137 C   0  0  0  0  0  0  0  0  0  0  0  0
   -7.7068   -5.7636   -0.6167 C   0  0  0  0  0  0  0  0  0  0  0  0
   -5.5750   -4.0890   -1.8690 C   0  0  0  0  0  0  0  0  0  0  0  0
   -4.2547   -3.9165   -1.4186 C   0  0  0  0  0  0  0  0  0  0  0  0
   -3.1815   -4.3526   -2.2011 C   0  0  0  0  0  0  0  0  0  0  0  0
   -3.4129   -4.9686   -3.4422 C   0  0  0  0  0  0  0  0  0  0  0  0
   -2.2617   -5.4403   -4.2774 C   0  0  0  0  0  0  0  0  0  0  0  0
   -4.7335   -5.1802   -3.8705 C   0  0  0  0  0  0  0  0  0  0  0  0
   -5.8052   -4.7439   -3.0880 C   0  0  0  0  0  0  0  0  0  0  0  0
   -6.4368   -2.0603    0.8465 C   0  0  0  0  0  0  0  0  0  0  0  0
   -6.0759   -3.0903    2.1074 S   0  0  0  0  0  0  0  0  0  0  0  0
   -5.7067   -1.8418    3.2172 C   0  0  0  0  0  0  0  0  0  0  0  0
   -5.9522   -0.5906    2.5997 C   0  0  0  0  0  0  0  0  0  0  0  0
   -5.7593    0.7020    3.2184 N   0  0  0  0  0  0  0  0  0  0  0  0
   -5.2782    1.8038    2.4190 C   0  0  0  0  0  0  0  0  0  0  0  0
   -6.0451    2.9750    2.2867 C   0  0  0  0  0  0  0  0  0  0  0  0
   -5.6181    4.0093    1.4497 C   0  0  0  0  0  0  0  0  0  0  0  0
   -4.4256    3.8846    0.7234 C   0  0  0  0  0  0  0  0  0  0  0  0
   -3.9889    4.9999   -0.1824 C   0  0  0  0  0  0  0  0  0  0  0  0
   -3.6443    2.7265    0.8731 C   0  0  0  0  0  0  0  0  0  0  0  0
   -4.0665    1.6955    1.7190 C   0  0  0  0  0  0  0  0  0  0  0  0
   -6.2435    0.9757    4.5525 C   0  0  0  0  0  0  0  0  0  0  0  0
   -5.5570    1.8831    5.3771 C   0  0  0  0  0  0  0  0  0  0  0  0
   -6.0340    2.1819    6.6562 C   0  0  0  0  0  0  0  0  0  0  0  0
   -7.1859    1.5512    7.1456 C   0  0  0  0  0  0  0  0  0  0  0  0
   -7.6928    1.8776    8.5221 C   0  0  0  0  0  0  0  0  0  0  0  0
   -7.8880    0.6598    6.3212 C   0  0  0  0  0  0  0  0  0  0  0  0
   -7.4278    0.3841    5.0276 C   0  0  0  0  0  0  0  0  0  0  0  0
   -6.3319   -0.7727    1.2572 C   0  0  0  0  0  0  0  0  0  0  0  0
   -6.4717    0.2299   -0.0844 S   0  0  0  0  0  0  0  0  0  0  0  0
   -5.1783   -2.0833    4.5794 C   0  0  0  0  0  0  0  0  0  0  0  0
   -4.2708   -3.0389    4.8682 C   0  0  0  0  0  0  0  0  0  0  0  0
   -3.5756   -3.9130    3.9174 C   0  0  0  0  0  0  0  0  0  0  0  0
   -3.2531   -3.6126    2.7375 O   0  0  0  0  0  0  0  0  0  0  0  0
   -3.2360   -5.1532    4.5981 C   0  0  0  0  0  0  0  0  0  0  0  0
   -2.8437   -6.3735    4.0415 C   0  0  0  0  0  0  0  0  0  0  0  0
   -2.4513   -6.4916    2.3243 Cl  0  0  0  0  0  0  0  0  0  0  0  0
   -2.8308   -7.5138    4.8702 C   0  0  0  0  0  0  0  0  0  0  0  0
   -2.3685   -9.0797    4.2052 Cl  0  0  0  0  0  0  0  0  0  0  0  0
   -3.2686   -7.4199    6.2132 C   0  0  0  0  0  0  0  0  0  0  0  0
   -3.3595   -8.8714    7.2123 Cl  0  0  0  0  0  0  0  0  0  0  0  0
   -3.6771   -6.1768    6.7463 C   0  0  0  0  0  0  0  0  0  0  0  0
   -4.5055   -6.1242    8.3008 Cl  0  0  0  0  0  0  0  0  0  0  0  0
   -3.5724   -5.0281    5.9362 C   0  0  0  0  0  0  0  0  0  0  0  0
   -4.0177   -3.6338    6.2035 C   0  0  0  0  0  0  0  0  0  0  0  0
   -3.7637   -2.9305    7.3351 C   0  0  0  0  0  0  0  0  0  0  0  0
   -2.9538   -3.4767    8.3942 C   0  0  0  0  0  0  0  0  0  0  0  0
   -2.2842   -3.8949    9.2393 N   0  0  0  0  0  0  0  0  0  0  0  0
   -4.0774   -1.5288    7.4608 C   0  0  0  0  0  0  0  0  0  0  0  0
   -4.3255   -0.4028    7.5797 N   0  0  0  0  0  0  0  0  0  0  0  0
    5.3938    0.0560    4.3045 H   0  0  0  0  0  0  0  0  0  0  0  0
   10.4280    0.9159    0.8883 H   0  0  0  0  0  0  0  0  0  0  0  0
   10.1791   -2.2666    4.8708 H   0  0  0  0  0  0  0  0  0  0  0  0
   13.2474   -2.5096    3.1337 H   0  0  0  0  0  0  0  0  0  0  0  0
   12.0937   -4.7264    2.4687 H   0  0  0  0  0  0  0  0  0  0  0  0
    9.6312   -4.2758    1.5729 H   0  0  0  0  0  0  0  0  0  0  0  0
    9.7842   -2.6297   -0.4426 H   0  0  0  0  0  0  0  0  0  0  0  0
   12.3406   -2.0306   -0.8340 H   0  0  0  0  0  0  0  0  0  0  0  0
   12.5034   -4.5765   -0.1406 H   0  0  0  0  0  0  0  0  0  0  0  0
   13.8044   -3.6369    0.7204 H   0  0  0  0  0  0  0  0  0  0  0  0
   13.3782   -1.0160    1.3011 H   0  0  0  0  0  0  0  0  0  0  0  0
    3.7855    1.9999    4.9020 H   0  0  0  0  0  0  0  0  0  0  0  0
    1.4849    1.8790    5.7669 H   0  0  0  0  0  0  0  0  0  0  0  0
   -1.0045    3.9704    5.3069 H   0  0  0  0  0  0  0  0  0  0  0  0
   -0.8961    2.1629    5.3689 H   0  0  0  0  0  0  0  0  0  0  0  0
   -1.4628    2.9727    3.8631 H   0  0  0  0  0  0  0  0  0  0  0  0
    0.1673    4.4851    2.5894 H   0  0  0  0  0  0  0  0  0  0  0  0
    2.4776    4.5993    1.7312 H   0  0  0  0  0  0  0  0  0  0  0  0
    4.8717    5.5906    1.3527 H   0  0  0  0  0  0  0  0  0  0  0  0
    6.3836    7.4527    1.9141 H   0  0  0  0  0  0  0  0  0  0  0  0
    9.2473    7.2191    3.8278 H   0  0  0  0  0  0  0  0  0  0  0  0
    8.0602    7.8828    5.0201 H   0  0  0  0  0  0  0  0  0  0  0  0
    8.0426    8.4559    3.3111 H   0  0  0  0  0  0  0  0  0  0  0  0
    7.9062    5.2048    5.2642 H   0  0  0  0  0  0  0  0  0  0  0  0
    6.3612    3.3615    4.7243 H   0  0  0  0  0  0  0  0  0  0  0  0
    1.7454    0.7062   -1.3828 H   0  0  0  0  0  0  0  0  0  0  0  0
   -0.1835   -0.4185   -0.3864 H   0  0  0  0  0  0  0  0  0  0  0  0
   -0.3537   -2.8566    1.3870 H   0  0  0  0  0  0  0  0  0  0  0  0
   -1.3918   -2.6251   -0.0763 H   0  0  0  0  0  0  0  0  0  0  0  0
   -0.4304   -4.1381    0.1181 H   0  0  0  0  0  0  0  0  0  0  0  0
    1.9211   -4.1754   -0.5321 H   0  0  0  0  0  0  0  0  0  0  0  0
    3.8756   -3.0505   -1.4888 H   0  0  0  0  0  0  0  0  0  0  0  0
    6.8493   -0.3504   -1.9230 H   0  0  0  0  0  0  0  0  0  0  0  0
    8.4038   -1.5576   -3.3888 H   0  0  0  0  0  0  0  0  0  0  0  0
    7.8865   -4.2532   -5.0557 H   0  0  0  0  0  0  0  0  0  0  0  0
    7.4045   -3.2991   -6.5118 H   0  0  0  0  0  0  0  0  0  0  0  0
    8.7941   -2.7547   -5.5061 H   0  0  0  0  0  0  0  0  0  0  0  0
    5.0682   -3.1639   -5.6067 H   0  0  0  0  0  0  0  0  0  0  0  0
    3.5135   -1.9500   -4.1477 H   0  0  0  0  0  0  0  0  0  0  0  0
    1.6092    5.7334   -2.8867 H   0  0  0  0  0  0  0  0  0  0  0  0
    2.4035    7.8581   -1.9052 H   0  0  0  0  0  0  0  0  0  0  0  0
    4.8207    8.2922   -1.6599 H   0  0  0  0  0  0  0  0  0  0  0  0
    7.4508    6.2972   -3.2704 H   0  0  0  0  0  0  0  0  0  0  0  0
    7.1263    7.7099   -2.2129 H   0  0  0  0  0  0  0  0  0  0  0  0
    7.1057    4.7657   -1.2433 H   0  0  0  0  0  0  0  0  0  0  0  0
    6.9593    6.2563   -0.2295 H   0  0  0  0  0  0  0  0  0  0  0  0
    8.5026    5.8981   -1.0970 H   0  0  0  0  0  0  0  0  0  0  0  0
    5.6899    4.4851   -3.4762 H   0  0  0  0  0  0  0  0  0  0  0  0
   -7.6004    2.8672   -3.4473 H   0  0  0  0  0  0  0  0  0  0  0  0
   -9.8368    3.8430   -3.1228 H   0  0  0  0  0  0  0  0  0  0  0  0
  -11.7743    2.3974   -2.6172 H   0  0  0  0  0  0  0  0  0  0  0  0
  -11.4834   -1.2024   -1.7414 H   0  0  0  0  0  0  0  0  0  0  0  0
  -12.5833    0.2140   -1.7804 H   0  0  0  0  0  0  0  0  0  0  0  0
  -13.2117   -1.5729   -3.4369 H   0  0  0  0  0  0  0  0  0  0  0  0
  -11.6344   -1.3449   -4.2805 H   0  0  0  0  0  0  0  0  0  0  0  0
  -12.8448    0.0055   -4.2370 H   0  0  0  0  0  0  0  0  0  0  0  0
   -9.2283   -1.0686   -2.7901 H   0  0  0  0  0  0  0  0  0  0  0  0
    1.8158   -0.2228   -6.7952 H   0  0  0  0  0  0  0  0  0  0  0  0
    0.6280   -0.9290   -5.7486 H   0  0  0  0  0  0  0  0  0  0  0  0
   -0.9950   -0.8158   -7.8863 H   0  0  0  0  0  0  0  0  0  0  0  0
    0.4612   -0.2553   -8.7843 H   0  0  0  0  0  0  0  0  0  0  0  0
    0.4334   -1.8918   -8.0256 H   0  0  0  0  0  0  0  0  0  0  0  0
   -2.7090   -1.8840   -4.7575 H   0  0  0  0  0  0  0  0  0  0  0  0
   -1.3450   -1.5602   -5.7244 H   0  0  0  0  0  0  0  0  0  0  0  0
   -0.7253    0.3643   -3.9972 H   0  0  0  0  0  0  0  0  0  0  0  0
   -2.1378   -0.1968   -3.0465 H   0  0  0  0  0  0  0  0  0  0  0  0
   -0.7388   -1.3056   -3.3222 H   0  0  0  0  0  0  0  0  0  0  0  0
   -9.2459   -2.7273   -0.8590 H   0  0  0  0  0  0  0  0  0  0  0  0
  -11.2039   -4.1041   -0.3295 H   0  0  0  0  0  0  0  0  0  0  0  0
  -11.1568   -7.8343   -0.2156 H   0  0  0  0  0  0  0  0  0  0  0  0
  -12.2042   -6.3804   -0.3317 H   0  0  0  0  0  0  0  0  0  0  0  0
  -11.4162   -6.7993    1.2452 H   0  0  0  0  0  0  0  0  0  0  0  0
   -8.7000   -7.6089   -0.1436 H   0  0  0  0  0  0  0  0  0  0  0  0
   -6.7338   -6.2367   -0.6619 H   0  0  0  0  0  0  0  0  0  0  0  0
   -4.0568   -3.4304   -0.4716 H   0  0  0  0  0  0  0  0  0  0  0  0
   -2.1676   -4.1985   -1.8520 H   0  0  0  0  0  0  0  0  0  0  0  0
   -1.9976   -6.4808   -3.9935 H   0  0  0  0  0  0  0  0  0  0  0  0
   -1.3740   -4.7875   -4.1255 H   0  0  0  0  0  0  0  0  0  0  0  0
   -2.5235   -5.4125   -5.3556 H   0  0  0  0  0  0  0  0  0  0  0  0
   -4.9317   -5.6685   -4.8178 H   0  0  0  0  0  0  0  0  0  0  0  0
   -6.8169   -4.8871   -3.4478 H   0  0  0  0  0  0  0  0  0  0  0  0
   -6.9825    3.0771    2.8199 H   0  0  0  0  0  0  0  0  0  0  0  0
   -6.2288    4.9000    1.3522 H   0  0  0  0  0  0  0  0  0  0  0  0
   -4.8382    5.3266   -0.8169 H   0  0  0  0  0  0  0  0  0  0  0  0
   -3.6429    5.8611    0.4252 H   0  0  0  0  0  0  0  0  0  0  0  0
   -3.1642    4.6782   -0.8517 H   0  0  0  0  0  0  0  0  0  0  0  0
   -2.7186    2.6143    0.3218 H   0  0  0  0  0  0  0  0  0  0  0  0
   -3.4623    0.8028    1.8160 H   0  0  0  0  0  0  0  0  0  0  0  0
   -4.6488    2.3600    5.0338 H   0  0  0  0  0  0  0  0  0  0  0  0
   -5.4956    2.8956    7.2719 H   0  0  0  0  0  0  0  0  0  0  0  0
   -8.2907    2.8119    8.4796 H   0  0  0  0  0  0  0  0  0  0  0  0
   -8.3285    1.0577    8.9193 H   0  0  0  0  0  0  0  0  0  0  0  0
   -6.8419    2.0254    9.2236 H   0  0  0  0  0  0  0  0  0  0  0  0
   -8.7946    0.1839    6.6741 H   0  0  0  0  0  0  0  0  0  0  0  0
   -7.9900   -0.2978    4.4035 H   0  0  0  0  0  0  0  0  0  0  0  0
   -5.6529   -1.5603    5.3893 H   0  0  0  0  0  0  0  0  0  0  0  0
  1  2  2  3
  2  3  1  0
  3  4  2  0
  3  5  1  0
  5  6  2  0
  6  7  1  0
  7  8  2  0
  8  9  1  0
  9 10  2  0
 10 11  1  0
 11 12  2  3
 12 13  1  0
 13 14  3  0
 12 15  1  0
 15 16  3  0
  8 17  1  0
 17 18  1  0
 18 19  1  0
 19 20  2  0
 20 21  1  0
 21 22  1  0
 21 23  1  0
  1 24  1  0
 24 25  2  0
 25 26  1  0
 26 27  1  0
 27 28  2  0
 28 29  1  0
 29 30  2  0
 30 31  1  0
 30 32  1  0
 32 33  2  0
 26 34  1  0
 34 35  2  0
 35 36  1  0
 36 37  2  0
 37 38  1  0
 37 39  1  0
 39 40  2  0
 25 41  1  0
 41 42  1  0
 42 43  1  0
 43 44  2  0
 44 45  1  0
 45 46  1  0
 46 47  2  0
 47 48  1  0
 48 49  2  0
 49 50  1  0
 49 51  1  0
 51 52  2  0
 45 53  1  0
 53 54  2  0
 54 55  1  0
 55 56  2  0
 56 57  1  0
 56 58  1  0
 58 59  2  0
 44 60  1  0
 60 61  1  0
 43 62  1  0
 62 63  2  0
 63 64  1  0
 64 65  2  0
 65 66  1  0
 66 67  2  0
 67 68  1  0
 68 69  1  0
 69 70  1  0
 68 71  2  0
 63 72  1  0
 72 73  1  0
 73 74  1  0
 74 75  1  0
 75 76  1  0
 76 77  1  0
 77 78  2  0
 78 79  1  0
 79 80  1  0
 77 81  1  0
 81 82  1  0
 82 83  1  0
 83 84  1  0
 84 85  1  0
 85 86  1  0
 86 87  2  0
 87 88  1  0
 88 89  2  0
 89 90  1  0
 90 91  1  0
 91 92  1  0
 90 93  2  0
 85 94  2  0
 94 95  1  0
 95 96  1  0
 96 97  1  0
 97 98  1  0
 98 99  1  0
 99100  1  0
100101  1  0
101102  1  0
102103  1  0
103104  1  0
101105  1  0
105106  1  0
 98107  1  0
107108  1  0
 94109  1  0
109110  2  0
110111  1  0
111112  1  0
112113  2  0
113114  1  0
114115  2  0
115116  1  0
115117  1  0
117118  2  0
111119  1  0
119120  2  0
120121  1  0
121122  2  0
122123  1  0
122124  1  0
124125  2  0
110126  1  0
126127  1  0
127128  1  0
128129  2  0
129130  1  0
130131  1  0
131132  2  0
132133  1  0
133134  2  0
134135  1  0
134136  1  0
136137  2  0
130138  1  0
138139  2  0
139140  1  0
140141  2  0
141142  1  0
141143  1  0
143144  2  0
129145  1  0
145146  1  0
128147  1  0
147148  2  3
148149  1  0
149150  2  0
149151  1  0
151152  2  0
152153  1  0
152154  1  0
154155  1  0
154156  2  0
156157  1  0
156158  1  0
158159  1  0
158160  2  0
160161  1  0
161162  2  3
162163  1  0
163164  3  0
162165  1  0
165166  3  0
 11  2  1  0
 23 17  1  0
 61 24  1  0
104 62  1  0
146109  1  0
161148  1  0
 10  5  1  0
 22 18  1  0
 33 27  1  0
 40 34  1  0
 60 41  2  0
 71 64  1  0
103 72  2  0
118112  1  0
125119  1  0
145126  2  0
160151  1  0
 23  7  1  0
 52 46  1  0
 59 53  1  0
102 74  2  0
137131  1  0
144138  1  0
100 75  2  0
 80 76  2  0
 99 81  2  0
 97 82  2  0
 96 84  2  0
 93 86  1  0
  1167  1  0
  6168  1  0
  9169  1  0
 17170  1  0
 18171  1  0
 19172  1  0
 20173  1  0
 21174  1  0
 22175  1  0
 22176  1  0
 23177  1  0
 28178  1  0
 29179  1  0
 31180  1  0
 31181  1  0
 31182  1  0
 32183  1  0
 33184  1  0
 35185  1  0
 36186  1  0
 38187  1  0
 38188  1  0
 38189  1  0
 39190  1  0
 40191  1  0
 47192  1  0
 48193  1  0
 50194  1  0
 50195  1  0
 50196  1  0
 51197  1  0
 52198  1  0
 54199  1  0
 55200  1  0
 57201  1  0
 57202  1  0
 57203  1  0
 58204  1  0
 59205  1  0
 65206  1  0
 66207  1  0
 67208  1  0
 69209  1  0
 69210  1  0
 70211  1  0
 70212  1  0
 70213  1  0
 71214  1  0
 87215  1  0
 88216  1  0
 89217  1  0
 91218  1  0
 91219  1  0
 92220  1  0
 92221  1  0
 92222  1  0
 93223  1  0
105224  1  0
105225  1  0
106226  1  0
106227  1  0
106228  1  0
107229  1  0
107230  1  0
108231  1  0
108232  1  0
108233  1  0
113234  1  0
114235  1  0
116236  1  0
116237  1  0
116238  1  0
117239  1  0
118240  1  0
120241  1  0
121242  1  0
123243  1  0
123244  1  0
123245  1  0
124246  1  0
125247  1  0
132248  1  0
133249  1  0
135250  1  0
135251  1  0
135252  1  0
136253  1  0
137254  1  0
139255  1  0
140256  1  0
142257  1  0
142258  1  0
142259  1  0
143260  1  0
144261  1  0
147262  1  0
M  END

