
     RDKit          3D

228252  0  0  0  0  0  0  0  0999 V2000
    1.8145   -0.7666   -6.3039 C   0  0  0  0  0  0  0  0  0  0  0  0
    0.6327   -1.3965   -6.1586 C   0  0  0  0  0  0  0  0  0  0  0  0
   -0.5473   -0.8442   -5.4771 C   0  0  0  0  0  0  0  0  0  0  0  0
   -0.5622    0.1168   -4.6639 O   0  0  0  0  0  0  0  0  0  0  0  0
   -1.7154   -1.5868   -5.8948 C   0  0  0  0  0  0  0  0  0  0  0  0
   -3.0649   -1.2435   -5.6546 C   0  0  0  0  0  0  0  0  0  0  0  0
   -3.9723   -2.0141   -6.3581 C   0  0  0  0  0  0  0  0  0  0  0  0
   -3.5789   -3.0556   -7.2587 C   0  0  0  0  0  0  0  0  0  0  0  0
   -2.2550   -3.3930   -7.4975 C   0  0  0  0  0  0  0  0  0  0  0  0
   -1.3061   -2.6347   -6.7565 C   0  0  0  0  0  0  0  0  0  0  0  0
    0.1814   -2.6429   -6.8465 C   0  0  0  0  0  0  0  0  0  0  0  0
    0.9522   -3.6697   -7.2854 C   0  0  0  0  0  0  0  0  0  0  0  0
    2.3853   -3.6483   -7.2160 C   0  0  0  0  0  0  0  0  0  0  0  0
    3.5421   -3.6521   -7.1705 N   0  0  0  0  0  0  0  0  0  0  0  0
    0.3839   -4.9097   -7.7394 C   0  0  0  0  0  0  0  0  0  0  0  0
   -0.0678   -5.9182   -8.0938 N   0  0  0  0  0  0  0  0  0  0  0  0
   -5.0054   -3.2770   -7.6566 C   0  0  0  0  0  0  0  0  0  0  0  0
   -5.4667   -2.7248   -9.0431 C   0  0  0  0  0  0  0  0  0  0  0  0
   -4.6801   -1.4826   -9.3997 C   0  0  0  0  0  0  0  0  0  0  0  0
   -5.0640   -0.5324   -8.5448 C   0  0  0  0  0  0  0  0  0  0  0  0
   -6.0913   -1.1609   -7.6314 C   0  0  0  0  0  0  0  0  0  0  0  0
   -6.7720   -2.0675   -8.6380 C   0  0  0  0  0  0  0  0  0  0  0  0
   -5.4124   -2.2246   -6.7189 C   0  0  0  0  0  0  0  0  0  0  0  0
    2.0564    0.5798   -5.7558 C   0  0  0  0  0  0  0  0  0  0  0  0
    2.6080    0.8709   -4.4963 C   0  0  0  0  0  0  0  0  0  0  0  0
    3.1958   -0.0991   -3.6032 N   0  0  0  0  0  0  0  0  0  0  0  0
    4.0765   -1.1186   -4.1151 C   0  0  0  0  0  0  0  0  0  0  0  0
    4.0705   -2.4062   -3.5526 C   0  0  0  0  0  0  0  0  0  0  0  0
    4.9513   -3.3869   -4.0123 C   0  0  0  0  0  0  0  0  0  0  0  0
    5.8556   -3.0946   -5.0415 C   0  0  0  0  0  0  0  0  0  0  0  0
    6.7603   -4.1669   -5.5715 C   0  0  0  0  0  0  0  0  0  0  0  0
    5.8576   -1.8170   -5.6180 C   0  0  0  0  0  0  0  0  0  0  0  0
    4.9791   -0.8334   -5.1558 C   0  0  0  0  0  0  0  0  0  0  0  0
    3.0080    0.0196   -2.1764 C   0  0  0  0  0  0  0  0  0  0  0  0
    4.1197    0.0518   -1.3185 C   0  0  0  0  0  0  0  0  0  0  0  0
    3.9480    0.1917    0.0593 C   0  0  0  0  0  0  0  0  0  0  0  0
    2.6614    0.2887    0.6060 C   0  0  0  0  0  0  0  0  0  0  0  0
    2.4884    0.4649    2.0872 C   0  0  0  0  0  0  0  0  0  0  0  0
    1.5476    0.2747   -0.2481 C   0  0  0  0  0  0  0  0  0  0  0  0
    1.7180    0.1351   -1.6299 C   0  0  0  0  0  0  0  0  0  0  0  0
    2.4292    2.2199   -4.1836 C   0  0  0  0  0  0  0  0  0  0  0  0
    2.6828    3.1267   -2.8061 S   0  0  0  0  0  0  0  0  0  0  0  0
    1.9071    4.5181   -3.3911 C   0  0  0  0  0  0  0  0  0  0  0  0
    1.4270    4.2662   -4.6899 C   0  0  0  0  0  0  0  0  0  0  0  0
    0.7108    5.2366   -5.4855 N   0  0  0  0  0  0  0  0  0  0  0  0
    1.0657    6.6289   -5.3961 C   0  0  0  0  0  0  0  0  0  0  0  0
    0.0736    7.6114   -5.2493 C   0  0  0  0  0  0  0  0  0  0  0  0
    0.4287    8.9608   -5.1499 C   0  0  0  0  0  0  0  0  0  0  0  0
    1.7767    9.3430   -5.1951 C   0  0  0  0  0  0  0  0  0  0  0  0
    2.1624   10.7885   -5.0861 C   0  0  0  0  0  0  0  0  0  0  0  0
    2.7644    8.3695   -5.3990 C   0  0  0  0  0  0  0  0  0  0  0  0
    2.4121    7.0191   -5.4807 C   0  0  0  0  0  0  0  0  0  0  0  0
   -0.1500    4.8187   -6.5613 C   0  0  0  0  0  0  0  0  0  0  0  0
   -1.3036    4.0631   -6.2993 C   0  0  0  0  0  0  0  0  0  0  0  0
   -2.1013    3.6102   -7.3578 C   0  0  0  0  0  0  0  0  0  0  0  0
   -1.7548    3.9091   -8.6866 C   0  0  0  0  0  0  0  0  0  0  0  0
   -2.6031    3.3984   -9.8148 C   0  0  0  0  0  0  0  0  0  0  0  0
   -0.6101    4.6812   -8.9444 C   0  0  0  0  0  0  0  0  0  0  0  0
    0.1843    5.1349   -7.8878 C   0  0  0  0  0  0  0  0  0  0  0  0
    1.7623    2.9663   -5.1019 C   0  0  0  0  0  0  0  0  0  0  0  0
    1.3715    1.9938   -6.4153 S   0  0  0  0  0  0  0  0  0  0  0  0
    1.3476    5.4831   -2.4445 C   0  0  0  0  0  0  0  0  0  0  0  0
    2.1087    6.3659   -1.6574 C   0  0  0  0  0  0  0  0  0  0  0  0
    3.5125    6.7302   -1.9129 C   0  0  0  0  0  0  0  0  0  0  0  0
    3.8251    8.0290   -2.3349 C   0  0  0  0  0  0  0  0  0  0  0  0
    5.1538    8.3924   -2.5618 C   0  0  0  0  0  0  0  0  0  0  0  0
    6.1795    7.4654   -2.3586 C   0  0  0  0  0  0  0  0  0  0  0  0
    5.8811    6.1680   -1.9130 C   0  0  0  0  0  0  0  0  0  0  0  0
    6.9882    5.1853   -1.6359 C   0  0  0  0  0  0  0  0  0  0  0  0
    7.5337    5.3698   -0.2230 C   0  0  0  0  0  0  0  0  0  0  0  0
    4.5473    5.8122   -1.6648 C   0  0  0  0  0  0  0  0  0  0  0  0
    1.4708    6.6565   -0.4470 C   0  0  0  0  0  0  0  0  0  0  0  0
    2.1741    7.0302    1.0542 S   0  0  0  0  0  0  0  0  0  0  0  0
    0.8581    6.3910    1.9033 C   0  0  0  0  0  0  0  0  0  0  0  0
    0.8226    5.6342    3.0450 C   0  0  0  0  0  0  0  0  0  0  0  0
    1.6805    5.6349    4.1477 C   0  0  0  0  0  0  0  0  0  0  0  0
    1.5311    4.6134    5.1277 C   0  0  0  0  0  0  0  0  0  0  0  0
    2.3971    4.6300    6.1705 N   0  0  0  0  0  0  0  0  0  0  0  0
    3.2914    5.9656    5.7676 S   0  0  0  0  0  0  0  0  0  0  0  0
    2.6730    6.5416    4.3424 N   0  0  0  0  0  0  0  0  0  0  0  0
    0.5585    3.6266    4.9312 C   0  0  0  0  0  0  0  0  0  0  0  0
    0.4041    2.4291    5.5607 C   0  0  0  0  0  0  0  0  0  0  0  0
    1.3334    1.4944    6.6314 S   0  0  0  0  0  0  0  0  0  0  0  0
    0.5122    0.0805    6.1545 C   0  0  0  0  0  0  0  0  0  0  0  0
    0.6429   -1.2661    6.5003 C   0  0  0  0  0  0  0  0  0  0  0  0
    1.7671   -1.7938    7.2983 C   0  0  0  0  0  0  0  0  0  0  0  0
    1.5541   -2.6343    8.4012 C   0  0  0  0  0  0  0  0  0  0  0  0
    2.6396   -3.1417    9.1195 C   0  0  0  0  0  0  0  0  0  0  0  0
    3.9453   -2.8141    8.7393 C   0  0  0  0  0  0  0  0  0  0  0  0
    4.1735   -1.9909    7.6269 C   0  0  0  0  0  0  0  0  0  0  0  0
    5.5733   -1.6408    7.2005 C   0  0  0  0  0  0  0  0  0  0  0  0
    5.9822   -0.2742    7.7406 C   0  0  0  0  0  0  0  0  0  0  0  0
    3.0812   -1.4717    6.9205 C   0  0  0  0  0  0  0  0  0  0  0  0
   -0.2696   -2.0516    5.7640 C   0  0  0  0  0  0  0  0  0  0  0  0
   -1.1680   -1.0676    4.6980 S   0  0  0  0  0  0  0  0  0  0  0  0
   -0.4095    0.3478    5.1734 C   0  0  0  0  0  0  0  0  0  0  0  0
   -0.4505    1.6887    4.8126 C   0  0  0  0  0  0  0  0  0  0  0  0
   -0.8424    2.3270    3.6793 N   0  0  0  0  0  0  0  0  0  0  0  0
   -0.2603    3.5760    3.7838 C   0  0  0  0  0  0  0  0  0  0  0  0
   -0.1649    4.6546    2.8470 C   0  0  0  0  0  0  0  0  0  0  0  0
   -0.7821    4.8555    1.6404 N   0  0  0  0  0  0  0  0  0  0  0  0
   -0.0892    5.8731    1.0673 C   0  0  0  0  0  0  0  0  0  0  0  0
    0.2530    6.0342   -0.2710 C   0  0  0  0  0  0  0  0  0  0  0  0
   -0.0678    5.0695   -1.5967 S   0  0  0  0  0  0  0  0  0  0  0  0
   -2.1251    4.4363    1.2226 C   0  0  0  0  0  0  0  0  0  0  0  0
   -3.0332    5.6304    0.9310 C   0  0  0  0  0  0  0  0  0  0  0  0
   -1.2874    1.6079    2.4773 C   0  0  0  0  0  0  0  0  0  0  0  0
   -2.7852    1.2912    2.5419 C   0  0  0  0  0  0  0  0  0  0  0  0
   -0.5679   -3.4794    5.9531 C   0  0  0  0  0  0  0  0  0  0  0  0
   -1.4412   -3.8300    6.9809 C   0  0  0  0  0  0  0  0  0  0  0  0
   -1.9457   -3.0486    7.9527 N   0  0  0  0  0  0  0  0  0  0  0  0
   -2.8292   -3.8173    8.5838 N   0  0  0  0  0  0  0  0  0  0  0  0
   -3.5931   -3.3857    9.7461 C   0  0  0  0  0  0  0  0  0  0  0  0
   -2.8074   -3.6654   11.0216 C   0  0  0  0  0  0  0  0  0  0  0  0
   -2.9263   -5.0343    8.0580 N   0  0  0  0  0  0  0  0  0  0  0  0
   -2.0427   -5.0448    7.0489 C   0  0  0  0  0  0  0  0  0  0  0  0
   -1.8790   -6.0190    6.0618 C   0  0  0  0  0  0  0  0  0  0  0  0
   -0.9285   -5.7495    5.0362 C   0  0  0  0  0  0  0  0  0  0  0  0
   -0.2698   -4.4882    4.9813 C   0  0  0  0  0  0  0  0  0  0  0  0
    0.6640   -4.3217    3.9413 O   0  0  0  0  0  0  0  0  0  0  0  0
    1.5706   -3.2414    3.7691 C   0  0  0  0  0  0  0  0  0  0  0  0
   -0.6107   -6.6729    4.0237 O   0  0  0  0  0  0  0  0  0  0  0  0
   -0.6437   -8.0914    4.1653 C   0  0  0  0  0  0  0  0  0  0  0  0
   -2.8407   -7.1393    5.9976 C   0  0  0  0  0  0  0  0  0  0  0  0
   -4.1487   -6.9499    5.7150 C   0  0  0  0  0  0  0  0  0  0  0  0
   -4.7765   -5.6475    5.4572 C   0  0  0  0  0  0  0  0  0  0  0  0
   -4.1969   -4.6009    5.0635 O   0  0  0  0  0  0  0  0  0  0  0  0
   -6.1928   -5.7677    5.7152 C   0  0  0  0  0  0  0  0  0  0  0  0
   -7.1274   -4.7394    5.8102 C   0  0  0  0  0  0  0  0  0  0  0  0
   -8.4375   -5.0439    6.2273 C   0  0  0  0  0  0  0  0  0  0  0  0
   -9.4382   -3.9262    6.3773 C   0  0  0  0  0  0  0  0  0  0  0  0
   -8.7763   -6.3903    6.5468 C   0  0  0  0  0  0  0  0  0  0  0  0
  -10.1585   -6.7448    7.0307 C   0  0  0  0  0  0  0  0  0  0  0  0
   -7.7948   -7.4046    6.4511 C   0  0  0  0  0  0  0  0  0  0  0  0
   -6.5033   -7.0795    6.0143 C   0  0  0  0  0  0  0  0  0  0  0  0
   -5.2720   -7.9191    5.9151 C   0  0  0  0  0  0  0  0  0  0  0  0
   -5.2144   -9.2702    5.8082 C   0  0  0  0  0  0  0  0  0  0  0  0
   -3.9907   -9.9683    5.5197 C   0  0  0  0  0  0  0  0  0  0  0  0
   -3.0149  -10.5488    5.2799 N   0  0  0  0  0  0  0  0  0  0  0  0
   -6.3889  -10.0973    5.8383 C   0  0  0  0  0  0  0  0  0  0  0  0
   -7.3306  -10.7710    5.8619 N   0  0  0  0  0  0  0  0  0  0  0  0
    2.5908   -1.1697   -6.9294 H   0  0  0  0  0  0  0  0  0  0  0  0
   -3.3604   -0.3955   -5.0489 H   0  0  0  0  0  0  0  0  0  0  0  0
   -2.0020   -4.1173   -8.2559 H   0  0  0  0  0  0  0  0  0  0  0  0
   -5.3932   -4.2866   -7.3988 H   0  0  0  0  0  0  0  0  0  0  0  0
   -5.5426   -3.4848   -9.8486 H   0  0  0  0  0  0  0  0  0  0  0  0
   -3.9959   -1.3579  -10.2291 H   0  0  0  0  0  0  0  0  0  0  0  0
   -4.7473    0.5043   -8.5537 H   0  0  0  0  0  0  0  0  0  0  0  0
   -6.7551   -0.4411   -7.1102 H   0  0  0  0  0  0  0  0  0  0  0  0
   -7.5000   -2.7756   -8.1820 H   0  0  0  0  0  0  0  0  0  0  0  0
   -7.2648   -1.5114   -9.4718 H   0  0  0  0  0  0  0  0  0  0  0  0
   -6.0355   -2.5898   -5.8734 H   0  0  0  0  0  0  0  0  0  0  0  0
    3.3825   -2.6529   -2.7533 H   0  0  0  0  0  0  0  0  0  0  0  0
    4.9266   -4.3740   -3.5686 H   0  0  0  0  0  0  0  0  0  0  0  0
    7.6503   -3.7254   -6.0667 H   0  0  0  0  0  0  0  0  0  0  0  0
    7.1151   -4.8205   -4.7442 H   0  0  0  0  0  0  0  0  0  0  0  0
    6.2055   -4.7840   -6.3093 H   0  0  0  0  0  0  0  0  0  0  0  0
    6.5375   -1.5822   -6.4272 H   0  0  0  0  0  0  0  0  0  0  0  0
    5.0131    0.1505   -5.6014 H   0  0  0  0  0  0  0  0  0  0  0  0
    5.1239   -0.0205   -1.7243 H   0  0  0  0  0  0  0  0  0  0  0  0
    4.8198    0.2362    0.7008 H   0  0  0  0  0  0  0  0  0  0  0  0
    3.2672   -0.0996    2.6379 H   0  0  0  0  0  0  0  0  0  0  0  0
    1.5050    0.0742    2.4163 H   0  0  0  0  0  0  0  0  0  0  0  0
    2.5557    1.5438    2.3436 H   0  0  0  0  0  0  0  0  0  0  0  0
    0.5484    0.3783    0.1512 H   0  0  0  0  0  0  0  0  0  0  0  0
    0.8497    0.1162   -2.2735 H   0  0  0  0  0  0  0  0  0  0  0  0
   -0.9675    7.3256   -5.1972 H   0  0  0  0  0  0  0  0  0  0  0  0
   -0.3485    9.7032   -5.0301 H   0  0  0  0  0  0  0  0  0  0  0  0
    3.1591   10.8884   -4.6079 H   0  0  0  0  0  0  0  0  0  0  0  0
    1.4290   11.3452   -4.4621 H   0  0  0  0  0  0  0  0  0  0  0  0
    2.1998   11.2395   -6.0983 H   0  0  0  0  0  0  0  0  0  0  0  0
    3.8066    8.6499   -5.4670 H   0  0  0  0  0  0  0  0  0  0  0  0
    3.1905    6.2777   -5.6168 H   0  0  0  0  0  0  0  0  0  0  0  0
   -1.5746    3.8148   -5.2803 H   0  0  0  0  0  0  0  0  0  0  0  0
   -2.9893    3.0162   -7.1511 H   0  0  0  0  0  0  0  0  0  0  0  0
   -3.6392    3.7920   -9.7215 H   0  0  0  0  0  0  0  0  0  0  0  0
   -2.2035    3.7156  -10.8036 H   0  0  0  0  0  0  0  0  0  0  0  0
   -2.6324    2.2891   -9.7900 H   0  0  0  0  0  0  0  0  0  0  0  0
   -0.3218    4.9161   -9.9638 H   0  0  0  0  0  0  0  0  0  0  0  0
    1.0712    5.7130   -8.1051 H   0  0  0  0  0  0  0  0  0  0  0  0
    3.0355    8.7543   -2.4860 H   0  0  0  0  0  0  0  0  0  0  0  0
    5.3880    9.3962   -2.8951 H   0  0  0  0  0  0  0  0  0  0  0  0
    7.2060    7.7638   -2.5396 H   0  0  0  0  0  0  0  0  0  0  0  0
    6.6158    4.1433   -1.7467 H   0  0  0  0  0  0  0  0  0  0  0  0
    7.8140    5.3281   -2.3684 H   0  0  0  0  0  0  0  0  0  0  0  0
    8.3700    4.6579   -0.0476 H   0  0  0  0  0  0  0  0  0  0  0  0
    6.7369    5.1712    0.5255 H   0  0  0  0  0  0  0  0  0  0  0  0
    7.9127    6.4051   -0.0883 H   0  0  0  0  0  0  0  0  0  0  0  0
    4.3184    4.8357   -1.2615 H   0  0  0  0  0  0  0  0  0  0  0  0
    0.5540   -2.8813    8.7236 H   0  0  0  0  0  0  0  0  0  0  0  0
    2.4721   -3.7848    9.9727 H   0  0  0  0  0  0  0  0  0  0  0  0
    4.7771   -3.2110    9.3056 H   0  0  0  0  0  0  0  0  0  0  0  0
    5.6356   -1.6272    6.0893 H   0  0  0  0  0  0  0  0  0  0  0  0
    6.2895   -2.4118    7.5573 H   0  0  0  0  0  0  0  0  0  0  0  0
    5.9534   -0.2790    8.8503 H   0  0  0  0  0  0  0  0  0  0  0  0
    7.0125   -0.0351    7.4039 H   0  0  0  0  0  0  0  0  0  0  0  0
    5.2962    0.5111    7.3598 H   0  0  0  0  0  0  0  0  0  0  0  0
    3.2538   -0.8368    6.0582 H   0  0  0  0  0  0  0  0  0  0  0  0
   -2.6120    3.8826    2.0417 H   0  0  0  0  0  0  0  0  0  0  0  0
   -2.0572    3.7953    0.3181 H   0  0  0  0  0  0  0  0  0  0  0  0
   -3.1258    6.2661    1.8359 H   0  0  0  0  0  0  0  0  0  0  0  0
   -2.6314    6.2311    0.0902 H   0  0  0  0  0  0  0  0  0  0  0  0
   -4.0441    5.2630    0.6474 H   0  0  0  0  0  0  0  0  0  0  0  0
   -0.7349    0.6505    2.3799 H   0  0  0  0  0  0  0  0  0  0  0  0
   -1.0197    2.1636    1.5628 H   0  0  0  0  0  0  0  0  0  0  0  0
   -3.2040    1.2516    1.5138 H   0  0  0  0  0  0  0  0  0  0  0  0
   -3.3368    2.0496    3.1341 H   0  0  0  0  0  0  0  0  0  0  0  0
   -2.9567    0.3046    3.0129 H   0  0  0  0  0  0  0  0  0  0  0  0
   -4.5633   -3.9296    9.7794 H   0  0  0  0  0  0  0  0  0  0  0  0
   -3.8084   -2.2957    9.6695 H   0  0  0  0  0  0  0  0  0  0  0  0
   -2.5805   -4.7489   11.0958 H   0  0  0  0  0  0  0  0  0  0  0  0
   -1.8585   -3.0871   11.0133 H   0  0  0  0  0  0  0  0  0  0  0  0
   -3.4077   -3.3606   11.9047 H   0  0  0  0  0  0  0  0  0  0  0  0
    2.3265   -3.5252    3.0090 H   0  0  0  0  0  0  0  0  0  0  0  0
    2.1071   -3.0311    4.7126 H   0  0  0  0  0  0  0  0  0  0  0  0
    1.0372   -2.3448    3.4016 H   0  0  0  0  0  0  0  0  0  0  0  0
   -1.6721   -8.4725    3.9984 H   0  0  0  0  0  0  0  0  0  0  0  0
    0.0179   -8.5386    3.3984 H   0  0  0  0  0  0  0  0  0  0  0  0
   -0.2677   -8.3925    5.1680 H   0  0  0  0  0  0  0  0  0  0  0  0
   -2.4876   -8.0970    6.3491 H   0  0  0  0  0  0  0  0  0  0  0  0
   -6.8316   -3.7167    5.6056 H   0  0  0  0  0  0  0  0  0  0  0  0
   -9.7600   -3.8525    7.4356 H   0  0  0  0  0  0  0  0  0  0  0  0
  -10.3257   -4.1238    5.7386 H   0  0  0  0  0  0  0  0  0  0  0  0
   -9.0066   -2.9470    6.0786 H   0  0  0  0  0  0  0  0  0  0  0  0
  -10.2715   -7.8406    7.1812 H   0  0  0  0  0  0  0  0  0  0  0  0
  -10.3586   -6.2390    7.9992 H   0  0  0  0  0  0  0  0  0  0  0  0
  -10.9138   -6.4193    6.2822 H   0  0  0  0  0  0  0  0  0  0  0  0
   -8.0394   -8.4058    6.7720 H   0  0  0  0  0  0  0  0  0  0  0  0
  1  2  2  3
  2  3  1  0
  3  4  2  0
  3  5  1  0
  5  6  2  0
  6  7  1  0
  7  8  2  0
  8  9  1  0
  9 10  2  0
 10 11  1  0
 11 12  2  3
 12 13  1  0
 13 14  3  0
 12 15  1  0
 15 16  3  0
  8 17  1  0
 17 18  1  0
 18 19  1  0
 19 20  2  0
 20 21  1  0
 21 22  1  0
 21 23  1  0
  1 24  1  0
 24 25  2  0
 25 26  1  0
 26 27  1  0
 27 28  2  0
 28 29  1  0
 29 30  2  0
 30 31  1  0
 30 32  1  0
 32 33  2  0
 26 34  1  0
 34 35  2  0
 35 36  1  0
 36 37  2  0
 37 38  1  0
 37 39  1  0
 39 40  2  0
 25 41  1  0
 41 42  1  0
 42 43  1  0
 43 44  2  0
 44 45  1  0
 45 46  1  0
 46 47  2  0
 47 48  1  0
 48 49  2  0
 49 50  1  0
 49 51  1  0
 51 52  2  0
 45 53  1  0
 53 54  2  0
 54 55  1  0
 55 56  2  0
 56 57  1  0
 56 58  1  0
 58 59  2  0
 44 60  1  0
 60 61  1  0
 43 62  1  0
 62 63  2  0
 63 64  1  0
 64 65  2  0
 65 66  1  0
 66 67  2  0
 67 68  1  0
 68 69  1  0
 69 70  1  0
 68 71  2  0
 63 72  1  0
 72 73  1  0
 73 74  1  0
 74 75  1  0
 75 76  1  0
 76 77  1  0
 77 78  2  0
 78 79  1  0
 79 80  1  0
 77 81  1  0
 81 82  1  0
 82 83  1  0
 83 84  1  0
 84 85  1  0
 85 86  1  0
 86 87  2  0
 87 88  1  0
 88 89  2  0
 89 90  1  0
 90 91  1  0
 91 92  1  0
 90 93  2  0
 85 94  2  0
 94 95  1  0
 95 96  1  0
 96 97  1  0
 97 98  1  0
 98 99  1  0
 99100  1  0
100101  1  0
101102  1  0
102103  1  0
103104  1  0
101105  1  0
105106  1  0
 98107  1  0
107108  1  0
 94109  1  0
109110  1  0
110111  2  0
111112  1  0
112113  1  0
113114  1  0
112115  1  0
115116  2  0
116117  1  0
117118  2  0
118119  1  0
119120  1  0
120121  1  0
118122  1  0
122123  1  0
117124  1  0
124125  2  3
125126  1  0
126127  2  0
126128  1  0
128129  2  0
129130  1  0
130131  1  0
130132  2  0
132133  1  0
132134  1  0
134135  2  0
135136  1  0
136137  2  3
137138  1  0
138139  3  0
137140  1  0
140141  3  0
 11  2  1  0
 23 17  1  0
 61 24  1  0
104 62  1  0
119109  2  0
136125  1  0
 10  5  1  0
 22 18  1  0
 33 27  1  0
 40 34  1  0
 60 41  2  0
 71 64  1  0
103 72  2  0
116110  1  0
135128  1  0
 23  7  1  0
 52 46  1  0
 59 53  1  0
102 74  2  0
100 75  2  0
 80 76  2  0
 99 81  2  0
 97 82  2  0
 96 84  2  0
 93 86  1  0
  1142  1  0
  6143  1  0
  9144  1  0
 17145  1  0
 18146  1  0
 19147  1  0
 20148  1  0
 21149  1  0
 22150  1  0
 22151  1  0
 23152  1  0
 28153  1  0
 29154  1  0
 31155  1  0
 31156  1  0
 31157  1  0
 32158  1  0
 33159  1  0
 35160  1  0
 36161  1  0
 38162  1  0
 38163  1  0
 38164  1  0
 39165  1  0
 40166  1  0
 47167  1  0
 48168  1  0
 50169  1  0
 50170  1  0
 50171  1  0
 51172  1  0
 52173  1  0
 54174  1  0
 55175  1  0
 57176  1  0
 57177  1  0
 57178  1  0
 58179  1  0
 59180  1  0
 65181  1  0
 66182  1  0
 67183  1  0
 69184  1  0
 69185  1  0
 70186  1  0
 70187  1  0
 70188  1  0
 71189  1  0
 87190  1  0
 88191  1  0
 89192  1  0
 91193  1  0
 91194  1  0
 92195  1  0
 92196  1  0
 92197  1  0
 93198  1  0
105199  1  0
105200  1  0
106201  1  0
106202  1  0
106203  1  0
107204  1  0
107205  1  0
108206  1  0
108207  1  0
108208  1  0
113209  1  0
113210  1  0
114211  1  0
114212  1  0
114213  1  0
121214  1  0
121215  1  0
121216  1  0
123217  1  0
123218  1  0
123219  1  0
124220  1  0
129221  1  0
131222  1  0
131223  1  0
131224  1  0
133225  1  0
133226  1  0
133227  1  0
134228  1  0
M  END

