
     RDKit          3D

268298  0  0  0  0  0  0  0  0999 V2000
    4.8391    6.5651    0.1207 C   0  0  0  0  0  0  0  0  0  0  0  0
    4.4946    7.0340    1.3295 C   0  0  0  0  0  0  0  0  0  0  0  0
    4.0856    6.1989    2.4622 C   0  0  0  0  0  0  0  0  0  0  0  0
    4.1253    4.9395    2.5096 O   0  0  0  0  0  0  0  0  0  0  0  0
    3.7456    7.0570    3.5703 C   0  0  0  0  0  0  0  0  0  0  0  0
    3.1081    6.6581    4.7674 C   0  0  0  0  0  0  0  0  0  0  0  0
    2.7551    7.7078    5.5849 C   0  0  0  0  0  0  0  0  0  0  0  0
    3.0273    9.0735    5.2623 C   0  0  0  0  0  0  0  0  0  0  0  0
    3.6377    9.4733    4.0863 C   0  0  0  0  0  0  0  0  0  0  0  0
    4.0076    8.4061    3.2167 C   0  0  0  0  0  0  0  0  0  0  0  0
    4.5012    8.4558    1.8023 C   0  0  0  0  0  0  0  0  0  0  0  0
    4.7293    9.5747    1.0665 C   0  0  0  0  0  0  0  0  0  0  0  0
    4.8170    9.5620   -0.3706 C   0  0  0  0  0  0  0  0  0  0  0  0
    4.8681    9.5784   -1.5270 N   0  0  0  0  0  0  0  0  0  0  0  0
    4.8744   10.8822    1.6565 C   0  0  0  0  0  0  0  0  0  0  0  0
    5.0065   11.9423    2.1092 N   0  0  0  0  0  0  0  0  0  0  0  0
    2.3932    9.5178    6.5478 C   0  0  0  0  0  0  0  0  0  0  0  0
    3.3314    9.9499    7.7144 C   0  0  0  0  0  0  0  0  0  0  0  0
    4.6294    9.1733    7.6594 C   0  0  0  0  0  0  0  0  0  0  0  0
    4.3296    7.9087    7.9600 C   0  0  0  0  0  0  0  0  0  0  0  0
    2.8386    7.8653    8.1964 C   0  0  0  0  0  0  0  0  0  0  0  0
    2.6612    9.2181    8.8617 C   0  0  0  0  0  0  0  0  0  0  0  0
    2.0854    8.1208    6.8607 C   0  0  0  0  0  0  0  0  0  0  0  0
    4.4148    5.2566   -0.4124 C   0  0  0  0  0  0  0  0  0  0  0  0
    3.1193    4.6999   -0.3602 C   0  0  0  0  0  0  0  0  0  0  0  0
    1.9972    5.2293    0.3817 N   0  0  0  0  0  0  0  0  0  0  0  0
    1.5531    6.5718    0.0915 C   0  0  0  0  0  0  0  0  0  0  0  0
    1.2534    7.4685    1.1317 C   0  0  0  0  0  0  0  0  0  0  0  0
    0.8553    8.7769    0.8488 C   0  0  0  0  0  0  0  0  0  0  0  0
    0.7307    9.2070   -0.4806 C   0  0  0  0  0  0  0  0  0  0  0  0
    0.2653   10.5993   -0.7808 C   0  0  0  0  0  0  0  0  0  0  0  0
    0.9868    8.3031   -1.5232 C   0  0  0  0  0  0  0  0  0  0  0  0
    1.4025    6.9987   -1.2390 C   0  0  0  0  0  0  0  0  0  0  0  0
    1.2291    4.3420    1.2443 C   0  0  0  0  0  0  0  0  0  0  0  0
   -0.0980    4.6477    1.6206 C   0  0  0  0  0  0  0  0  0  0  0  0
   -0.8669    3.7337    2.3475 C   0  0  0  0  0  0  0  0  0  0  0  0
   -0.3306    2.4945    2.7215 C   0  0  0  0  0  0  0  0  0  0  0  0
   -1.1603    1.4782    3.4380 C   0  0  0  0  0  0  0  0  0  0  0  0
    0.9944    2.1975    2.3990 C   0  0  0  0  0  0  0  0  0  0  0  0
    1.7702    3.1106    1.6805 C   0  0  0  0  0  0  0  0  0  0  0  0
    2.9969    3.6365   -1.2511 C   0  0  0  0  0  0  0  0  0  0  0  0
    1.6769    2.8333   -1.8555 S   0  0  0  0  0  0  0  0  0  0  0  0
    2.5274    2.0123   -3.0761 C   0  0  0  0  0  0  0  0  0  0  0  0
    3.8951    2.3712   -3.0004 C   0  0  0  0  0  0  0  0  0  0  0  0
    4.9420    1.8123   -3.8248 N   0  0  0  0  0  0  0  0  0  0  0  0
    4.9022    0.4218   -4.1746 C   0  0  0  0  0  0  0  0  0  0  0  0
    5.0302    0.0321   -5.5130 C   0  0  0  0  0  0  0  0  0  0  0  0
    4.9776   -1.3215   -5.8617 C   0  0  0  0  0  0  0  0  0  0  0  0
    4.7981   -2.3009   -4.8723 C   0  0  0  0  0  0  0  0  0  0  0  0
    4.7415   -3.7520   -5.2452 C   0  0  0  0  0  0  0  0  0  0  0  0
    4.7170   -1.9141   -3.5255 C   0  0  0  0  0  0  0  0  0  0  0  0
    4.7653   -0.5589   -3.1783 C   0  0  0  0  0  0  0  0  0  0  0  0
    6.2015    2.4819   -3.9603 C   0  0  0  0  0  0  0  0  0  0  0  0
    6.3278    3.5821   -4.8195 C   0  0  0  0  0  0  0  0  0  0  0  0
    7.5502    4.2525   -4.9256 C   0  0  0  0  0  0  0  0  0  0  0  0
    8.6551    3.8391   -4.1615 C   0  0  0  0  0  0  0  0  0  0  0  0
    9.9750    4.5388   -4.2948 C   0  0  0  0  0  0  0  0  0  0  0  0
    8.5286    2.7291   -3.3134 C   0  0  0  0  0  0  0  0  0  0  0  0
    7.3110    2.0553   -3.2128 C   0  0  0  0  0  0  0  0  0  0  0  0
    4.1003    3.3193   -1.9779 C   0  0  0  0  0  0  0  0  0  0  0  0
    5.3303    4.3929   -1.5682 S   0  0  0  0  0  0  0  0  0  0  0  0
    1.8116    1.4940   -4.2536 C   0  0  0  0  0  0  0  0  0  0  0  0
    0.5334    2.3586   -4.9649 S   0  0  0  0  0  0  0  0  0  0  0  0
   -0.0336    1.0660   -5.8560 C   0  0  0  0  0  0  0  0  0  0  0  0
   -1.2922    0.6736   -6.1928 C   0  0  0  0  0  0  0  0  0  0  0  0
   -2.7328    1.2080   -5.5058 S   0  0  0  0  0  0  0  0  0  0  0  0
   -3.4528   -0.3206   -5.5947 C   0  0  0  0  0  0  0  0  0  0  0  0
   -4.1066   -1.0427   -4.5104 C   0  0  0  0  0  0  0  0  0  0  0  0
   -4.5074   -0.4987   -3.2855 C   0  0  0  0  0  0  0  0  0  0  0  0
   -4.5190   -1.3438   -2.1619 C   0  0  0  0  0  0  0  0  0  0  0  0
   -4.6080   -0.8982   -0.6918 C   0  0  0  0  0  0  0  0  0  0  0  0
   -6.0848   -0.7717   -0.2732 C   0  0  0  0  0  0  0  0  0  0  0  0
   -6.5518   -1.2635    0.9643 C   0  0  0  0  0  0  0  0  0  0  0  0
   -7.8890   -1.1093    1.3389 C   0  0  0  0  0  0  0  0  0  0  0  0
   -8.7854   -0.4319    0.5038 C   0  0  0  0  0  0  0  0  0  0  0  0
  -10.2354   -0.2964    0.8855 C   0  0  0  0  0  0  0  0  0  0  0  0
  -11.0714   -1.4071    0.2571 C   0  0  0  0  0  0  0  0  0  0  0  0
   -8.3310    0.0813   -0.7161 C   0  0  0  0  0  0  0  0  0  0  0  0
   -6.9995   -0.0836   -1.0984 C   0  0  0  0  0  0  0  0  0  0  0  0
   -3.7852    0.3848   -0.4908 C   0  0  0  0  0  0  0  0  0  0  0  0
   -2.4652    0.4344   -0.9836 C   0  0  0  0  0  0  0  0  0  0  0  0
   -1.8123    1.6535   -1.1529 C   0  0  0  0  0  0  0  0  0  0  0  0
   -2.4364    2.8523   -0.7834 C   0  0  0  0  0  0  0  0  0  0  0  0
   -1.8079    4.1760   -1.1326 C   0  0  0  0  0  0  0  0  0  0  0  0
   -2.1214    4.5704   -2.5720 C   0  0  0  0  0  0  0  0  0  0  0  0
   -3.6955    2.8029   -0.1705 C   0  0  0  0  0  0  0  0  0  0  0  0
   -4.3634    1.5836   -0.0201 C   0  0  0  0  0  0  0  0  0  0  0  0
   -3.9410   -2.1078   -0.0610 C   0  0  0  0  0  0  0  0  0  0  0  0
   -3.6994   -3.1051   -0.9703 C   0  0  0  0  0  0  0  0  0  0  0  0
   -4.0523   -2.6539   -2.2836 C   0  0  0  0  0  0  0  0  0  0  0  0
   -3.6563   -3.2097   -3.5014 C   0  0  0  0  0  0  0  0  0  0  0  0
   -3.7623   -2.4005   -4.6473 C   0  0  0  0  0  0  0  0  0  0  0  0
   -3.2429   -2.6237   -6.0603 C   0  0  0  0  0  0  0  0  0  0  0  0
   -2.3823   -3.8276   -6.4406 C   0  0  0  0  0  0  0  0  0  0  0  0
   -2.6839   -5.1238   -5.9749 C   0  0  0  0  0  0  0  0  0  0  0  0
   -1.9926   -6.2413   -6.4556 C   0  0  0  0  0  0  0  0  0  0  0  0
   -1.0305   -6.1019   -7.4636 C   0  0  0  0  0  0  0  0  0  0  0  0
   -0.3462   -7.3140   -8.0307 C   0  0  0  0  0  0  0  0  0  0  0  0
   -1.2560   -8.0487   -9.0126 C   0  0  0  0  0  0  0  0  0  0  0  0
   -0.7929   -4.8332   -8.0075 C   0  0  0  0  0  0  0  0  0  0  0  0
   -1.4842   -3.7198   -7.5284 C   0  0  0  0  0  0  0  0  0  0  0  0
   -4.4722   -2.7255   -6.9886 C   0  0  0  0  0  0  0  0  0  0  0  0
   -4.4866   -2.1126   -8.2586 C   0  0  0  0  0  0  0  0  0  0  0  0
   -5.6226   -2.1796   -9.0738 C   0  0  0  0  0  0  0  0  0  0  0  0
   -6.7492   -2.9048   -8.6603 C   0  0  0  0  0  0  0  0  0  0  0  0
   -7.9964   -2.9280   -9.5025 C   0  0  0  0  0  0  0  0  0  0  0  0
   -8.9397   -1.7991   -9.0920 C   0  0  0  0  0  0  0  0  0  0  0  0
   -6.7250   -3.5645   -7.4245 C   0  0  0  0  0  0  0  0  0  0  0  0
   -5.5940   -3.4959   -6.6093 C   0  0  0  0  0  0  0  0  0  0  0  0
   -2.6086   -1.2394   -6.1918 C   0  0  0  0  0  0  0  0  0  0  0  0
   -1.2871   -0.7077   -6.2402 C   0  0  0  0  0  0  0  0  0  0  0  0
   -0.0993   -1.1824   -5.7179 N   0  0  0  0  0  0  0  0  0  0  0  0
    0.6568   -0.0626   -5.5432 C   0  0  0  0  0  0  0  0  0  0  0  0
    1.7135    0.1487   -4.6352 C   0  0  0  0  0  0  0  0  0  0  0  0
    0.1296   -2.3828   -4.8930 C   0  0  0  0  0  0  0  0  0  0  0  0
   -0.3708   -2.1751   -3.4605 C   0  0  0  0  0  0  0  0  0  0  0  0
   -2.5631   -4.2354   -0.4131 S   0  0  0  0  0  0  0  0  0  0  0  0
   -2.4730   -3.4618    1.0897 C   0  0  0  0  0  0  0  0  0  0  0  0
   -1.7392   -3.7123    2.2374 C   0  0  0  0  0  0  0  0  0  0  0  0
   -1.9886   -2.7355    3.2062 C   0  0  0  0  0  0  0  0  0  0  0  0
   -3.1123   -1.5889    2.6215 S   0  0  0  0  0  0  0  0  0  0  0  0
   -3.2466   -2.3382    1.1223 C   0  0  0  0  0  0  0  0  0  0  0  0
   -1.5704   -2.8920    4.6016 C   0  0  0  0  0  0  0  0  0  0  0  0
   -2.5136   -3.7350    5.6986 S   0  0  0  0  0  0  0  0  0  0  0  0
   -1.2901   -4.2256    6.7407 C   0  0  0  0  0  0  0  0  0  0  0  0
   -0.0838   -3.7187    6.2341 C   0  0  0  0  0  0  0  0  0  0  0  0
    1.2765   -4.0028    6.7600 C   0  0  0  0  0  0  0  0  0  0  0  0
    1.4331   -4.6827    7.8055 O   0  0  0  0  0  0  0  0  0  0  0  0
    2.4511   -3.4757    6.0244 C   0  0  0  0  0  0  0  0  0  0  0  0
    3.7964   -3.6695    6.3720 C   0  0  0  0  0  0  0  0  0  0  0  0
    4.3680   -4.5150    7.4735 C   0  0  0  0  0  0  0  0  0  0  0  0
    4.4022   -5.9846    7.0649 C   0  0  0  0  0  0  0  0  0  0  0  0
    4.7448   -2.8833    5.2282 S   0  0  0  0  0  0  0  0  0  0  0  0
    3.4893   -2.2801    4.2803 C   0  0  0  0  0  0  0  0  0  0  0  0
    3.6480   -1.4339    3.0386 C   0  0  0  0  0  0  0  0  0  0  0  0
    5.1054   -1.1187    2.7009 C   0  0  0  0  0  0  0  0  0  0  0  0
    2.2821   -2.7040    4.8513 C   0  0  0  0  0  0  0  0  0  0  0  0
    0.9277   -2.4309    4.3167 C   0  0  0  0  0  0  0  0  0  0  0  0
    0.7676   -1.7513    3.2678 O   0  0  0  0  0  0  0  0  0  0  0  0
   -0.2447   -2.9782    5.0404 C   0  0  0  0  0  0  0  0  0  0  0  0
   -1.4162   -5.2565    7.8003 C   0  0  0  0  0  0  0  0  0  0  0  0
   -1.8156   -6.5144    7.5284 C   0  0  0  0  0  0  0  0  0  0  0  0
   -0.9391   -7.6470    7.8513 C   0  0  0  0  0  0  0  0  0  0  0  0
   -0.1533   -7.7129    8.8332 O   0  0  0  0  0  0  0  0  0  0  0  0
   -0.9855   -8.5948    6.7499 C   0  0  0  0  0  0  0  0  0  0  0  0
   -0.1224   -9.6908    6.5197 C   0  0  0  0  0  0  0  0  0  0  0  0
   -0.2908  -10.2808    5.2797 C   0  0  0  0  0  0  0  0  0  0  0  0
   -1.2536   -9.8286    4.3169 C   0  0  0  0  0  0  0  0  0  0  0  0
   -2.1113   -8.7628    4.5457 C   0  0  0  0  0  0  0  0  0  0  0  0
   -1.9528   -8.1559    5.8188 C   0  0  0  0  0  0  0  0  0  0  0  0
   -2.6211   -6.9575    6.3616 C   0  0  0  0  0  0  0  0  0  0  0  0
   -3.9221   -6.6348    6.1720 C   0  0  0  0  0  0  0  0  0  0  0  0
   -4.7120   -7.2012    5.1056 C   0  0  0  0  0  0  0  0  0  0  0  0
   -5.3573   -7.6379    4.2480 N   0  0  0  0  0  0  0  0  0  0  0  0
   -4.6109   -5.7556    7.0815 C   0  0  0  0  0  0  0  0  0  0  0  0
   -5.1633   -5.0529    7.8171 N   0  0  0  0  0  0  0  0  0  0  0  0
   -0.7740  -10.8543    3.3293 C   0  0  0  0  0  0  0  0  0  0  0  0
    0.1077  -10.3621    2.1421 C   0  0  0  0  0  0  0  0  0  0  0  0
    0.8996   -9.1401    2.5510 C   0  0  0  0  0  0  0  0  0  0  0  0
    1.7935   -9.5503    3.4500 C   0  0  0  0  0  0  0  0  0  0  0  0
    1.5828  -11.0376    3.6229 C   0  0  0  0  0  0  0  0  0  0  0  0
    1.2196  -11.3927    2.1958 C   0  0  0  0  0  0  0  0  0  0  0  0
    0.2144  -11.3122    4.3152 C   0  0  0  0  0  0  0  0  0  0  0  0
    5.4118    7.1705   -0.5603 H   0  0  0  0  0  0  0  0  0  0  0  0
    2.8789    5.6265    5.0009 H   0  0  0  0  0  0  0  0  0  0  0  0
    3.7396   10.5203    3.8685 H   0  0  0  0  0  0  0  0  0  0  0  0
    1.4913   10.1546    6.4119 H   0  0  0  0  0  0  0  0  0  0  0  0
    3.4465   11.0457    7.8485 H   0  0  0  0  0  0  0  0  0  0  0  0
    5.6276    9.5660    7.5111 H   0  0  0  0  0  0  0  0  0  0  0  0
    5.0333    7.0949    8.0846 H   0  0  0  0  0  0  0  0  0  0  0  0
    2.4802    6.9943    8.7824 H   0  0  0  0  0  0  0  0  0  0  0  0
    3.2080    9.3104    9.8283 H   0  0  0  0  0  0  0  0  0  0  0  0
    1.5947    9.5067    9.0107 H   0  0  0  0  0  0  0  0  0  0  0  0
    0.9954    7.8985    6.8818 H   0  0  0  0  0  0  0  0  0  0  0  0
    1.3326    7.1510    2.1631 H   0  0  0  0  0  0  0  0  0  0  0  0
    0.6395    9.4506    1.6708 H   0  0  0  0  0  0  0  0  0  0  0  0
    0.5791   11.2991    0.0242 H   0  0  0  0  0  0  0  0  0  0  0  0
   -0.8402   10.6116   -0.8577 H   0  0  0  0  0  0  0  0  0  0  0  0
    0.6972   10.9541   -1.7388 H   0  0  0  0  0  0  0  0  0  0  0  0
    0.8692    8.6096   -2.5535 H   0  0  0  0  0  0  0  0  0  0  0  0
    1.5968    6.3161   -2.0552 H   0  0  0  0  0  0  0  0  0  0  0  0
   -0.5764    5.5674    1.3117 H   0  0  0  0  0  0  0  0  0  0  0  0
   -1.8928    3.9794    2.5922 H   0  0  0  0  0  0  0  0  0  0  0  0
   -2.1958    1.8408    3.6136 H   0  0  0  0  0  0  0  0  0  0  0  0
   -0.6950    1.2388    4.4169 H   0  0  0  0  0  0  0  0  0  0  0  0
   -1.2060    0.5527    2.8278 H   0  0  0  0  0  0  0  0  0  0  0  0
    1.4221    1.2443    2.6809 H   0  0  0  0  0  0  0  0  0  0  0  0
    2.7929    2.8380    1.4487 H   0  0  0  0  0  0  0  0  0  0  0  0
    5.1593    0.7803   -6.2833 H   0  0  0  0  0  0  0  0  0  0  0  0
    5.0656   -1.6042   -6.9041 H   0  0  0  0  0  0  0  0  0  0  0  0
    4.0514   -4.2989   -4.5671 H   0  0  0  0  0  0  0  0  0  0  0  0
    5.7560   -4.1950   -5.1669 H   0  0  0  0  0  0  0  0  0  0  0  0
    4.3704   -3.8772   -6.2841 H   0  0  0  0  0  0  0  0  0  0  0  0
    4.6004   -2.6600   -2.7480 H   0  0  0  0  0  0  0  0  0  0  0  0
    4.6914   -0.2698   -2.1375 H   0  0  0  0  0  0  0  0  0  0  0  0
    5.4803    3.9084   -5.4117 H   0  0  0  0  0  0  0  0  0  0  0  0
    7.6403    5.0935   -5.6045 H   0  0  0  0  0  0  0  0  0  0  0  0
   10.5100    4.5438   -3.3224 H   0  0  0  0  0  0  0  0  0  0  0  0
    9.8345    5.5944   -4.6120 H   0  0  0  0  0  0  0  0  0  0  0  0
   10.5956    4.0129   -5.0493 H   0  0  0  0  0  0  0  0  0  0  0  0
    9.3756    2.3853   -2.7311 H   0  0  0  0  0  0  0  0  0  0  0  0
    7.2210    1.2123   -2.5371 H   0  0  0  0  0  0  0  0  0  0  0  0
   -4.6395    0.5710   -3.1812 H   0  0  0  0  0  0  0  0  0  0  0  0
   -5.8944   -1.7732    1.6493 H   0  0  0  0  0  0  0  0  0  0  0  0
   -8.2224   -1.5214    2.2836 H   0  0  0  0  0  0  0  0  0  0  0  0
  -10.3478   -0.3344    1.9915 H   0  0  0  0  0  0  0  0  0  0  0  0
  -10.6231    0.6898    0.5478 H   0  0  0  0  0  0  0  0  0  0  0  0
  -10.7232   -2.3999    0.6136 H   0  0  0  0  0  0  0  0  0  0  0  0
  -12.1376   -1.2752    0.5466 H   0  0  0  0  0  0  0  0  0  0  0  0
  -10.9929   -1.3641   -0.8519 H   0  0  0  0  0  0  0  0  0  0  0  0
   -9.0085    0.6077   -1.3767 H   0  0  0  0  0  0  0  0  0  0  0  0
   -6.6885    0.3573   -2.0321 H   0  0  0  0  0  0  0  0  0  0  0  0
   -1.9782   -0.4682   -1.3354 H   0  0  0  0  0  0  0  0  0  0  0  0
   -0.8458    1.6652   -1.6343 H   0  0  0  0  0  0  0  0  0  0  0  0
   -0.7082    4.1153   -1.0116 H   0  0  0  0  0  0  0  0  0  0  0  0
   -2.1786    4.9737   -0.4516 H   0  0  0  0  0  0  0  0  0  0  0  0
   -1.7450    3.7989   -3.2780 H   0  0  0  0  0  0  0  0  0  0  0  0
   -1.6258    5.5368   -2.8070 H   0  0  0  0  0  0  0  0  0  0  0  0
   -3.2176    4.6881   -2.7078 H   0  0  0  0  0  0  0  0  0  0  0  0
   -4.1877    3.7153    0.1400 H   0  0  0  0  0  0  0  0  0  0  0  0
   -5.3514    1.5956    0.4167 H   0  0  0  0  0  0  0  0  0  0  0  0
   -3.1672   -4.1692   -3.5079 H   0  0  0  0  0  0  0  0  0  0  0  0
   -3.5014   -5.2948   -5.2945 H   0  0  0  0  0  0  0  0  0  0  0  0
   -2.2454   -7.2225   -6.0737 H   0  0  0  0  0  0  0  0  0  0  0  0
    0.5914   -7.0228   -8.5533 H   0  0  0  0  0  0  0  0  0  0  0  0
   -0.0616   -8.0025   -7.2070 H   0  0  0  0  0  0  0  0  0  0  0  0
   -2.1610   -8.4251   -8.4917 H   0  0  0  0  0  0  0  0  0  0  0  0
   -0.7159   -8.9160   -9.4485 H   0  0  0  0  0  0  0  0  0  0  0  0
   -1.5650   -7.3720   -9.8343 H   0  0  0  0  0  0  0  0  0  0  0  0
   -0.0947   -4.7100   -8.8260 H   0  0  0  0  0  0  0  0  0  0  0  0
   -1.3183   -2.7687   -8.0183 H   0  0  0  0  0  0  0  0  0  0  0  0
   -3.6295   -1.5496   -8.6125 H   0  0  0  0  0  0  0  0  0  0  0  0
   -5.6217   -1.6685  -10.0264 H   0  0  0  0  0  0  0  0  0  0  0  0
   -7.7388   -2.8184  -10.5808 H   0  0  0  0  0  0  0  0  0  0  0  0
   -8.5174   -3.9053   -9.3801 H   0  0  0  0  0  0  0  0  0  0  0  0
   -9.8802   -1.8651   -9.6815 H   0  0  0  0  0  0  0  0  0  0  0  0
   -8.4678   -0.8131   -9.2831 H   0  0  0  0  0  0  0  0  0  0  0  0
   -9.1947   -1.8784   -8.0136 H   0  0  0  0  0  0  0  0  0  0  0  0
   -7.5817   -4.1338   -7.0876 H   0  0  0  0  0  0  0  0  0  0  0  0
   -5.6102   -4.0163   -5.6607 H   0  0  0  0  0  0  0  0  0  0  0  0
    2.2447   -0.6490   -4.1457 H   0  0  0  0  0  0  0  0  0  0  0  0
    1.2145   -2.6164   -4.8643 H   0  0  0  0  0  0  0  0  0  0  0  0
   -0.3260   -3.2758   -5.3148 H   0  0  0  0  0  0  0  0  0  0  0  0
   -1.3645   -1.6867   -3.4538 H   0  0  0  0  0  0  0  0  0  0  0  0
   -0.4566   -3.1537   -2.9439 H   0  0  0  0  0  0  0  0  0  0  0  0
    0.3304   -1.5430   -2.8808 H   0  0  0  0  0  0  0  0  0  0  0  0
   -1.0992   -4.5774    2.3742 H   0  0  0  0  0  0  0  0  0  0  0  0
    5.4103   -4.1785    7.6828 H   0  0  0  0  0  0  0  0  0  0  0  0
    3.7973   -4.3859    8.4141 H   0  0  0  0  0  0  0  0  0  0  0  0
    4.9523   -6.1019    6.1047 H   0  0  0  0  0  0  0  0  0  0  0  0
    4.9240   -6.5738    7.8456 H   0  0  0  0  0  0  0  0  0  0  0  0
    3.3756   -6.3863    6.9538 H   0  0  0  0  0  0  0  0  0  0  0  0
    3.1113   -0.4770    3.1981 H   0  0  0  0  0  0  0  0  0  0  0  0
    3.1904   -1.9684    2.1832 H   0  0  0  0  0  0  0  0  0  0  0  0
    5.5909   -0.5725    3.5365 H   0  0  0  0  0  0  0  0  0  0  0  0
    5.1482   -0.4872    1.7902 H   0  0  0  0  0  0  0  0  0  0  0  0
    5.6651   -2.0555    2.4943 H   0  0  0  0  0  0  0  0  0  0  0  0
   -0.7665   -5.1261    8.6538 H   0  0  0  0  0  0  0  0  0  0  0  0
    0.6427   -9.9959    7.2164 H   0  0  0  0  0  0  0  0  0  0  0  0
   -2.7816   -8.3975    3.7796 H   0  0  0  0  0  0  0  0  0  0  0  0
   -1.5403  -11.6163    3.0684 H   0  0  0  0  0  0  0  0  0  0  0  0
   -0.4139  -10.2741    1.1680 H   0  0  0  0  0  0  0  0  0  0  0  0
    0.8217   -8.1420    2.1393 H   0  0  0  0  0  0  0  0  0  0  0  0
    2.5670   -8.9402    3.8998 H   0  0  0  0  0  0  0  0  0  0  0  0
    2.4432  -11.5903    4.0552 H   0  0  0  0  0  0  0  0  0  0  0  0
    2.0452  -11.1973    1.4686 H   0  0  0  0  0  0  0  0  0  0  0  0
    0.8597  -12.4384    2.0765 H   0  0  0  0  0  0  0  0  0  0  0  0
    0.0564  -12.3561    4.6523 H   0  0  0  0  0  0  0  0  0  0  0  0
  1  2  2  3
  2  3  1  0
  3  4  2  0
  3  5  1  0
  5  6  2  0
  6  7  1  0
  7  8  2  0
  8  9  1  0
  9 10  2  0
 10 11  1  0
 11 12  2  3
 12 13  1  0
 13 14  3  0
 12 15  1  0
 15 16  3  0
  8 17  1  0
 17 18  1  0
 18 19  1  0
 19 20  2  0
 20 21  1  0
 21 22  1  0
 21 23  1  0
  1 24  1  0
 24 25  2  0
 25 26  1  0
 26 27  1  0
 27 28  2  0
 28 29  1  0
 29 30  2  0
 30 31  1  0
 30 32  1  0
 32 33  2  0
 26 34  1  0
 34 35  2  0
 35 36  1  0
 36 37  2  0
 37 38  1  0
 37 39  1  0
 39 40  2  0
 25 41  1  0
 41 42  1  0
 42 43  1  0
 43 44  2  0
 44 45  1  0
 45 46  1  0
 46 47  2  0
 47 48  1  0
 48 49  2  0
 49 50  1  0
 49 51  1  0
 51 52  2  0
 45 53  1  0
 53 54  2  0
 54 55  1  0
 55 56  2  0
 56 57  1  0
 56 58  1  0
 58 59  2  0
 44 60  1  0
 60 61  1  0
 43 62  1  0
 62 63  1  0
 63 64  1  0
 64 65  1  0
 65 66  1  0
 66 67  1  0
 67 68  1  0
 68 69  2  0
 69 70  1  0
 70 71  1  0
 71 72  1  0
 72 73  2  0
 73 74  1  0
 74 75  2  0
 75 76  1  0
 76 77  1  0
 75 78  1  0
 78 79  2  0
 71 80  1  0
 80 81  2  0
 81 82  1  0
 82 83  2  0
 83 84  1  0
 84 85  1  0
 83 86  1  0
 86 87  2  0
 71 88  1  0
 88 89  2  0
 89 90  1  0
 90 91  1  0
 91 92  2  0
 92 93  1  0
 93 94  1  0
 94 95  2  0
 95 96  1  0
 96 97  2  0
 97 98  1  0
 98 99  1  0
 97100  1  0
100101  2  0
 93102  1  0
102103  2  0
103104  1  0
104105  2  0
105106  1  0
106107  1  0
105108  1  0
108109  2  0
 93110  1  0
110111  1  0
111112  1  0
112113  1  0
113114  1  0
112115  1  0
115116  1  0
 89117  1  0
117118  1  0
118119  1  0
119120  2  0
120121  1  0
121122  1  0
120123  1  0
123124  1  0
124125  1  0
125126  2  0
126127  1  0
127128  2  0
127129  1  0
129130  2  0
130131  1  0
131132  1  0
130133  1  0
133134  1  0
134135  1  0
135136  1  0
134137  2  0
137138  1  0
138139  2  0
138140  1  0
125141  1  0
141142  2  3
142143  1  0
143144  2  0
143145  1  0
145146  2  0
146147  1  0
147148  2  0
148149  1  0
149150  2  0
150151  1  0
151152  2  3
152153  1  0
153154  3  0
152155  1  0
155156  3  0
148157  1  0
157158  1  0
158159  1  0
159160  2  0
160161  1  0
161162  1  0
161163  1  0
 11  2  1  0
 23 17  1  0
 61 24  1  0
114 62  2  0
122118  2  0
140123  2  0
151142  1  0
163157  1  0
 10  5  1  0
 22 18  1  0
 33 27  1  0
 40 34  1  0
 60 41  2  0
113 64  2  0
140126  1  0
150145  1  0
162158  1  0
 23  7  1  0
 52 46  1  0
 59 53  1  0
111 65  2  0
137129  1  0
163147  1  0
110 67  2  0
 92 68  1  0
101 94  1  0
109102  1  0
 90 70  2  0
 79 72  1  0
 87 80  1  0
122 88  1  0
  1164  1  0
  6165  1  0
  9166  1  0
 17167  1  0
 18168  1  0
 19169  1  0
 20170  1  0
 21171  1  0
 22172  1  0
 22173  1  0
 23174  1  0
 28175  1  0
 29176  1  0
 31177  1  0
 31178  1  0
 31179  1  0
 32180  1  0
 33181  1  0
 35182  1  0
 36183  1  0
 38184  1  0
 38185  1  0
 38186  1  0
 39187  1  0
 40188  1  0
 47189  1  0
 48190  1  0
 50191  1  0
 50192  1  0
 50193  1  0
 51194  1  0
 52195  1  0
 54196  1  0
 55197  1  0
 57198  1  0
 57199  1  0
 57200  1  0
 58201  1  0
 59202  1  0
 69203  1  0
 73204  1  0
 74205  1  0
 76206  1  0
 76207  1  0
 77208  1  0
 77209  1  0
 77210  1  0
 78211  1  0
 79212  1  0
 81213  1  0
 82214  1  0
 84215  1  0
 84216  1  0
 85217  1  0
 85218  1  0
 85219  1  0
 86220  1  0
 87221  1  0
 91222  1  0
 95223  1  0
 96224  1  0
 98225  1  0
 98226  1  0
 99227  1  0
 99228  1  0
 99229  1  0
100230  1  0
101231  1  0
103232  1  0
104233  1  0
106234  1  0
106235  1  0
107236  1  0
107237  1  0
107238  1  0
108239  1  0
109240  1  0
114241  1  0
115242  1  0
115243  1  0
116244  1  0
116245  1  0
116246  1  0
119247  1  0
131248  1  0
131249  1  0
132250  1  0
132251  1  0
132252  1  0
135253  1  0
135254  1  0
136255  1  0
136256  1  0
136257  1  0
141258  1  0
146259  1  0
149260  1  0
157261  1  0
158262  1  0
159263  1  0
160264  1  0
161265  1  0
162266  1  0
162267  1  0
163268  1  0
M  END

