
     RDKit          3D

216239  0  0  0  0  0  0  0  0999 V2000
   -6.6846    0.9639   -0.8115 C   0  0  0  0  0  0  0  0  0  0  0  0
   -6.2107    0.7129    0.4250 C   0  0  0  0  0  0  0  0  0  0  0  0
   -5.0307   -0.1119    0.7422 C   0  0  0  0  0  0  0  0  0  0  0  0
   -4.0870   -0.4086   -0.0379 O   0  0  0  0  0  0  0  0  0  0  0  0
   -5.0990   -0.5222    2.1233 C   0  0  0  0  0  0  0  0  0  0  0  0
   -4.1946   -1.3604    2.8142 C   0  0  0  0  0  0  0  0  0  0  0  0
   -4.5214   -1.5638    4.1423 C   0  0  0  0  0  0  0  0  0  0  0  0
   -5.6863   -0.9998    4.7560 C   0  0  0  0  0  0  0  0  0  0  0  0
   -6.5788   -0.1816    4.0832 C   0  0  0  0  0  0  0  0  0  0  0  0
   -6.2330    0.0835    2.7254 C   0  0  0  0  0  0  0  0  0  0  0  0
   -6.9035    0.9767    1.7283 C   0  0  0  0  0  0  0  0  0  0  0  0
   -7.7879    1.9770    1.9879 C   0  0  0  0  0  0  0  0  0  0  0  0
   -8.2816    2.2476    3.3136 C   0  0  0  0  0  0  0  0  0  0  0  0
   -8.6873    2.4851    4.3733 N   0  0  0  0  0  0  0  0  0  0  0  0
   -8.1939    2.9281    0.9874 C   0  0  0  0  0  0  0  0  0  0  0  0
   -8.5285    3.7017    0.1957 N   0  0  0  0  0  0  0  0  0  0  0  0
   -5.3180   -1.6169    6.0697 C   0  0  0  0  0  0  0  0  0  0  0  0
   -4.7352   -0.6432    7.1364 C   0  0  0  0  0  0  0  0  0  0  0  0
   -4.1000   -1.5213    8.1871 C   0  0  0  0  0  0  0  0  0  0  0  0
   -3.0123   -2.0621    7.6226 C   0  0  0  0  0  0  0  0  0  0  0  0
   -2.9512   -1.5256    6.2112 C   0  0  0  0  0  0  0  0  0  0  0  0
   -3.4722   -0.1210    6.4760 C   0  0  0  0  0  0  0  0  0  0  0  0
   -4.1289   -2.1994    5.4443 C   0  0  0  0  0  0  0  0  0  0  0  0
   -6.0049    0.4786   -2.0224 C   0  0  0  0  0  0  0  0  0  0  0  0
   -4.9817    1.1698   -2.6953 C   0  0  0  0  0  0  0  0  0  0  0  0
   -4.7241    2.5782   -2.5478 N   0  0  0  0  0  0  0  0  0  0  0  0
   -3.3668    3.0512   -2.4508 C   0  0  0  0  0  0  0  0  0  0  0  0
   -2.4990    2.5128   -1.4887 C   0  0  0  0  0  0  0  0  0  0  0  0
   -1.1619    2.9091   -1.4473 C   0  0  0  0  0  0  0  0  0  0  0  0
   -0.6703    3.8426   -2.3722 C   0  0  0  0  0  0  0  0  0  0  0  0
    0.7634    4.2669   -2.3248 C   0  0  0  0  0  0  0  0  0  0  0  0
   -1.5464    4.4086   -3.3119 C   0  0  0  0  0  0  0  0  0  0  0  0
   -2.8838    4.0077   -3.3583 C   0  0  0  0  0  0  0  0  0  0  0  0
   -5.8099    3.5211   -2.6500 C   0  0  0  0  0  0  0  0  0  0  0  0
   -6.9053    3.2612   -3.4986 C   0  0  0  0  0  0  0  0  0  0  0  0
   -7.9719    4.1559   -3.5740 C   0  0  0  0  0  0  0  0  0  0  0  0
   -7.9571    5.3422   -2.8224 C   0  0  0  0  0  0  0  0  0  0  0  0
   -9.1337    6.2691   -2.8592 C   0  0  0  0  0  0  0  0  0  0  0  0
   -6.8671    5.6083   -1.9789 C   0  0  0  0  0  0  0  0  0  0  0  0
   -5.8025    4.7057   -1.8947 C   0  0  0  0  0  0  0  0  0  0  0  0
   -4.2261    0.2946   -3.4790 C   0  0  0  0  0  0  0  0  0  0  0  0
   -2.7131    0.3714   -4.1920 S   0  0  0  0  0  0  0  0  0  0  0  0
   -2.5185   -1.3182   -4.4033 C   0  0  0  0  0  0  0  0  0  0  0  0
   -3.7112   -1.9322   -3.9419 C   0  0  0  0  0  0  0  0  0  0  0  0
   -4.0127   -3.3375   -3.9214 N   0  0  0  0  0  0  0  0  0  0  0  0
   -5.1442   -3.7169   -4.7409 C   0  0  0  0  0  0  0  0  0  0  0  0
   -5.1909   -3.3218   -6.0887 C   0  0  0  0  0  0  0  0  0  0  0  0
   -6.3400   -3.5351   -6.8563 C   0  0  0  0  0  0  0  0  0  0  0  0
   -7.4568   -4.1654   -6.2984 C   0  0  0  0  0  0  0  0  0  0  0  0
   -8.7000   -4.3633   -7.1146 C   0  0  0  0  0  0  0  0  0  0  0  0
   -7.4384   -4.5233   -4.9424 C   0  0  0  0  0  0  0  0  0  0  0  0
   -6.2911   -4.2998   -4.1713 C   0  0  0  0  0  0  0  0  0  0  0  0
   -3.5481   -4.1822   -2.8354 C   0  0  0  0  0  0  0  0  0  0  0  0
   -3.7515   -5.5800   -2.8765 C   0  0  0  0  0  0  0  0  0  0  0  0
   -3.2485   -6.4080   -1.8741 C   0  0  0  0  0  0  0  0  0  0  0  0
   -2.5562   -5.8593   -0.7841 C   0  0  0  0  0  0  0  0  0  0  0  0
   -1.9410   -6.7671    0.2390 C   0  0  0  0  0  0  0  0  0  0  0  0
   -2.3594   -4.4728   -0.7227 C   0  0  0  0  0  0  0  0  0  0  0  0
   -2.8533   -3.6411   -1.7310 C   0  0  0  0  0  0  0  0  0  0  0  0
   -4.6171   -1.0022   -3.4394 C   0  0  0  0  0  0  0  0  0  0  0  0
   -5.9519   -1.1694   -2.4362 S   0  0  0  0  0  0  0  0  0  0  0  0
   -1.1583   -1.9039   -4.5084 C   0  0  0  0  0  0  0  0  0  0  0  0
   -0.7593   -3.2440   -4.7372 C   0  0  0  0  0  0  0  0  0  0  0  0
   -1.4914   -4.2534   -5.5248 C   0  0  0  0  0  0  0  0  0  0  0  0
   -1.5998   -5.5695   -5.0511 C   0  0  0  0  0  0  0  0  0  0  0  0
   -2.1791   -6.5584   -5.8481 C   0  0  0  0  0  0  0  0  0  0  0  0
   -2.5616   -6.2675   -7.1571 C   0  0  0  0  0  0  0  0  0  0  0  0
   -2.3572   -4.9785   -7.6799 C   0  0  0  0  0  0  0  0  0  0  0  0
   -2.6128   -4.7097   -9.1405 C   0  0  0  0  0  0  0  0  0  0  0  0
   -4.0221   -4.1905   -9.3775 C   0  0  0  0  0  0  0  0  0  0  0  0
   -1.8664   -3.9655   -6.8437 C   0  0  0  0  0  0  0  0  0  0  0  0
    0.5972   -3.4196   -4.4132 C   0  0  0  0  0  0  0  0  0  0  0  0
    1.6132   -4.7930   -4.2765 S   0  0  0  0  0  0  0  0  0  0  0  0
    2.9222   -3.8258   -3.7894 C   0  0  0  0  0  0  0  0  0  0  0  0
    4.1048   -3.9738   -3.1123 C   0  0  0  0  0  0  0  0  0  0  0  0
    4.6602   -5.0902   -2.4632 C   0  0  0  0  0  0  0  0  0  0  0  0
    5.6996   -4.8778   -1.5006 C   0  0  0  0  0  0  0  0  0  0  0  0
    6.1786   -5.9698   -0.8595 N   0  0  0  0  0  0  0  0  0  0  0  0
    5.2210   -7.1356   -1.5501 S   0  0  0  0  0  0  0  0  0  0  0  0
    4.2237   -6.3652   -2.6262 N   0  0  0  0  0  0  0  0  0  0  0  0
    6.1874   -3.5766   -1.3159 C   0  0  0  0  0  0  0  0  0  0  0  0
    7.2105   -3.0789   -0.5491 C   0  0  0  0  0  0  0  0  0  0  0  0
    7.5211   -3.2847    1.1056 S   0  0  0  0  0  0  0  0  0  0  0  0
    7.9597   -1.6522    1.3245 C   0  0  0  0  0  0  0  0  0  0  0  0
    7.8583   -0.8497    2.4686 C   0  0  0  0  0  0  0  0  0  0  0  0
    7.4911   -1.4087    3.7833 C   0  0  0  0  0  0  0  0  0  0  0  0
    8.4144   -2.1650    4.5143 C   0  0  0  0  0  0  0  0  0  0  0  0
    8.0569   -2.7000    5.7536 C   0  0  0  0  0  0  0  0  0  0  0  0
    6.7612   -2.5097    6.2540 C   0  0  0  0  0  0  0  0  0  0  0  0
    5.8190   -1.7903    5.5049 C   0  0  0  0  0  0  0  0  0  0  0  0
    4.4209   -1.5875    6.0288 C   0  0  0  0  0  0  0  0  0  0  0  0
    4.3401   -0.3133    6.8585 C   0  0  0  0  0  0  0  0  0  0  0  0
    6.1925   -1.2219    4.2805 C   0  0  0  0  0  0  0  0  0  0  0  0
    7.7206    0.5147    2.1328 C   0  0  0  0  0  0  0  0  0  0  0  0
    7.6780    0.6519    0.4363 S   0  0  0  0  0  0  0  0  0  0  0  0
    7.8524   -0.9760    0.1293 C   0  0  0  0  0  0  0  0  0  0  0  0
    7.3505   -1.7548   -0.9070 C   0  0  0  0  0  0  0  0  0  0  0  0
    6.4261   -1.3764   -1.8277 N   0  0  0  0  0  0  0  0  0  0  0  0
    5.6771   -2.4969   -2.0262 C   0  0  0  0  0  0  0  0  0  0  0  0
    4.5183   -2.6694   -2.8068 C   0  0  0  0  0  0  0  0  0  0  0  0
    3.5309   -1.7613   -3.0831 N   0  0  0  0  0  0  0  0  0  0  0  0
    2.5946   -2.5074   -3.7264 C   0  0  0  0  0  0  0  0  0  0  0  0
    1.2648   -2.2873   -4.0372 C   0  0  0  0  0  0  0  0  0  0  0  0
    0.2074   -1.0052   -3.9994 S   0  0  0  0  0  0  0  0  0  0  0  0
    3.2276   -0.5433   -2.3101 C   0  0  0  0  0  0  0  0  0  0  0  0
    2.3843   -0.8851   -1.0702 C   0  0  0  0  0  0  0  0  0  0  0  0
    6.6528   -0.3183   -2.8203 C   0  0  0  0  0  0  0  0  0  0  0  0
    7.7271   -0.7435   -3.8212 C   0  0  0  0  0  0  0  0  0  0  0  0
    7.2104    1.5849    3.0278 C   0  0  0  0  0  0  0  0  0  0  0  0
    6.0735    2.3381    2.6642 C   0  0  0  0  0  0  0  0  0  0  0  0
    5.3927    2.1789    1.5001 N   0  0  0  0  0  0  0  0  0  0  0  0
    4.3615    3.0434    1.3908 C   0  0  0  0  0  0  0  0  0  0  0  0
    3.4921    3.1214    0.1759 C   0  0  0  0  0  0  0  0  0  0  0  0
    4.3423    3.1820   -1.0880 C   0  0  0  0  0  0  0  0  0  0  0  0
    4.2142    4.0128    2.7611 S   0  0  0  0  0  0  0  0  0  0  0  0
    5.5553    3.3128    3.5103 C   0  0  0  0  0  0  0  0  0  0  0  0
    6.1004    3.5920    4.7731 C   0  0  0  0  0  0  0  0  0  0  0  0
    7.2513    2.8607    5.1427 C   0  0  0  0  0  0  0  0  0  0  0  0
    7.7811    1.8840    4.2813 C   0  0  0  0  0  0  0  0  0  0  0  0
    9.1737    1.2510    4.9836 S   0  0  0  0  0  0  0  0  0  0  0  0
    9.0226    2.2140    6.3646 C   0  0  0  0  0  0  0  0  0  0  0  0
   10.0006    2.2270    7.4948 C   0  0  0  0  0  0  0  0  0  0  0  0
   11.0644    3.2917    7.2712 C   0  0  0  0  0  0  0  0  0  0  0  0
    7.9516    3.0486    6.2953 N   0  0  0  0  0  0  0  0  0  0  0  0
    5.4405    4.6148    5.6138 C   0  0  0  0  0  0  0  0  0  0  0  0
    4.7519    4.3006    6.7297 C   0  0  0  0  0  0  0  0  0  0  0  0
    5.1735    3.2648    7.6304 C   0  0  0  0  0  0  0  0  0  0  0  0
    5.5308    2.4278    8.3497 N   0  0  0  0  0  0  0  0  0  0  0  0
    3.3875    4.8427    6.8968 C   0  0  0  0  0  0  0  0  0  0  0  0
    2.5358    4.6831    5.9706 O   0  0  0  0  0  0  0  0  0  0  0  0
    3.0040    5.4626    8.0944 O   0  0  0  0  0  0  0  0  0  0  0  0
    1.6373    5.7610    8.4159 C   0  0  0  0  0  0  0  0  0  0  0  0
    0.9351    4.4998    8.8865 C   0  0  0  0  0  0  0  0  0  0  0  0
   -7.6542    1.4100   -0.9565 H   0  0  0  0  0  0  0  0  0  0  0  0
   -3.3133   -1.7895    2.3602 H   0  0  0  0  0  0  0  0  0  0  0  0
   -7.4415    0.2190    4.5851 H   0  0  0  0  0  0  0  0  0  0  0  0
   -6.0533   -2.3622    6.4428 H   0  0  0  0  0  0  0  0  0  0  0  0
   -5.4380    0.1239    7.5318 H   0  0  0  0  0  0  0  0  0  0  0  0
   -4.3951   -1.6311    9.2273 H   0  0  0  0  0  0  0  0  0  0  0  0
   -2.2765   -2.6809    8.1287 H   0  0  0  0  0  0  0  0  0  0  0  0
   -1.9521   -1.5907    5.7190 H   0  0  0  0  0  0  0  0  0  0  0  0
   -3.6603    0.4789    5.5605 H   0  0  0  0  0  0  0  0  0  0  0  0
   -2.8245    0.4753    7.1633 H   0  0  0  0  0  0  0  0  0  0  0  0
   -4.1114   -3.3121    5.4120 H   0  0  0  0  0  0  0  0  0  0  0  0
   -2.8631    1.7889   -0.7708 H   0  0  0  0  0  0  0  0  0  0  0  0
   -0.5036    2.4799   -0.6990 H   0  0  0  0  0  0  0  0  0  0  0  0
    1.1402    4.4961   -3.3440 H   0  0  0  0  0  0  0  0  0  0  0  0
    1.3852    3.4480   -1.9073 H   0  0  0  0  0  0  0  0  0  0  0  0
    0.8667    5.1638   -1.6844 H   0  0  0  0  0  0  0  0  0  0  0  0
   -1.1845    5.1448   -4.0217 H   0  0  0  0  0  0  0  0  0  0  0  0
   -3.5370    4.4322   -4.1096 H   0  0  0  0  0  0  0  0  0  0  0  0
   -6.9306    2.3623   -4.1017 H   0  0  0  0  0  0  0  0  0  0  0  0
   -8.8118    3.9224   -4.2208 H   0  0  0  0  0  0  0  0  0  0  0  0
   -8.8036    7.3214   -2.7385 H   0  0  0  0  0  0  0  0  0  0  0  0
   -9.6756    6.1835   -3.8267 H   0  0  0  0  0  0  0  0  0  0  0  0
   -9.8299    6.0086   -2.0328 H   0  0  0  0  0  0  0  0  0  0  0  0
   -6.8507    6.5130   -1.3783 H   0  0  0  0  0  0  0  0  0  0  0  0
   -4.9835    4.9275   -1.2238 H   0  0  0  0  0  0  0  0  0  0  0  0
   -4.3524   -2.8023   -6.5293 H   0  0  0  0  0  0  0  0  0  0  0  0
   -6.3587   -3.1927   -7.8854 H   0  0  0  0  0  0  0  0  0  0  0  0
   -9.3807   -3.5022   -6.9667 H   0  0  0  0  0  0  0  0  0  0  0  0
   -9.2204   -5.2953   -6.8031 H   0  0  0  0  0  0  0  0  0  0  0  0
   -8.4508   -4.4571   -8.1957 H   0  0  0  0  0  0  0  0  0  0  0  0
   -8.3155   -4.9654   -4.4803 H   0  0  0  0  0  0  0  0  0  0  0  0
   -6.3236   -4.5382   -3.1162 H   0  0  0  0  0  0  0  0  0  0  0  0
   -4.2523   -6.0409   -3.7168 H   0  0  0  0  0  0  0  0  0  0  0  0
   -3.3902   -7.4785   -1.9516 H   0  0  0  0  0  0  0  0  0  0  0  0
   -0.9599   -7.1316   -0.1307 H   0  0  0  0  0  0  0  0  0  0  0  0
   -2.6036   -7.6395    0.4287 H   0  0  0  0  0  0  0  0  0  0  0  0
   -1.7923   -6.2327    1.2028 H   0  0  0  0  0  0  0  0  0  0  0  0
   -1.8164   -4.0356    0.1069 H   0  0  0  0  0  0  0  0  0  0  0  0
   -2.6759   -2.5786   -1.6524 H   0  0  0  0  0  0  0  0  0  0  0  0
   -1.2430   -5.8259   -4.0614 H   0  0  0  0  0  0  0  0  0  0  0  0
   -2.2990   -7.5616   -5.4605 H   0  0  0  0  0  0  0  0  0  0  0  0
   -2.9714   -7.0571   -7.7766 H   0  0  0  0  0  0  0  0  0  0  0  0
   -1.8767   -3.9641   -9.5233 H   0  0  0  0  0  0  0  0  0  0  0  0
   -2.4698   -5.6440   -9.7332 H   0  0  0  0  0  0  0  0  0  0  0  0
   -4.2163   -4.1156  -10.4670 H   0  0  0  0  0  0  0  0  0  0  0  0
   -4.7676   -4.8843   -8.9338 H   0  0  0  0  0  0  0  0  0  0  0  0
   -4.1306   -3.1812   -8.9312 H   0  0  0  0  0  0  0  0  0  0  0  0
   -1.7095   -2.9692   -7.2414 H   0  0  0  0  0  0  0  0  0  0  0  0
    9.4169   -2.3234    4.1319 H   0  0  0  0  0  0  0  0  0  0  0  0
    8.7743   -3.2705    6.3259 H   0  0  0  0  0  0  0  0  0  0  0  0
    6.4968   -2.9354    7.2125 H   0  0  0  0  0  0  0  0  0  0  0  0
    4.1108   -2.4571    6.6528 H   0  0  0  0  0  0  0  0  0  0  0  0
    3.7022   -1.5172    5.1824 H   0  0  0  0  0  0  0  0  0  0  0  0
    5.0146   -0.3898    7.7381 H   0  0  0  0  0  0  0  0  0  0  0  0
    4.6364    0.5636    6.2411 H   0  0  0  0  0  0  0  0  0  0  0  0
    3.2997   -0.1641    7.2177 H   0  0  0  0  0  0  0  0  0  0  0  0
    5.4758   -0.6478    3.7123 H   0  0  0  0  0  0  0  0  0  0  0  0
    2.6817    0.1809   -2.9463 H   0  0  0  0  0  0  0  0  0  0  0  0
    4.1433   -0.0532   -1.9459 H   0  0  0  0  0  0  0  0  0  0  0  0
    2.8559   -1.7139   -0.5039 H   0  0  0  0  0  0  0  0  0  0  0  0
    1.3585   -1.1725   -1.3637 H   0  0  0  0  0  0  0  0  0  0  0  0
    2.3099    0.0074   -0.4144 H   0  0  0  0  0  0  0  0  0  0  0  0
    5.7396   -0.1159   -3.4087 H   0  0  0  0  0  0  0  0  0  0  0  0
    6.9656    0.6240   -2.3212 H   0  0  0  0  0  0  0  0  0  0  0  0
    7.3941   -1.6641   -4.3532 H   0  0  0  0  0  0  0  0  0  0  0  0
    7.8748    0.0649   -4.5665 H   0  0  0  0  0  0  0  0  0  0  0  0
    8.6889   -0.9261   -3.2994 H   0  0  0  0  0  0  0  0  0  0  0  0
    2.8300    2.2307    0.1430 H   0  0  0  0  0  0  0  0  0  0  0  0
    2.8519    4.0299    0.2308 H   0  0  0  0  0  0  0  0  0  0  0  0
    3.6932    3.2572   -1.9850 H   0  0  0  0  0  0  0  0  0  0  0  0
    5.0181    4.0652   -1.0634 H   0  0  0  0  0  0  0  0  0  0  0  0
    4.9520    2.2563   -1.1929 H   0  0  0  0  0  0  0  0  0  0  0  0
   10.4860    1.2283    7.5628 H   0  0  0  0  0  0  0  0  0  0  0  0
    9.4649    2.4237    8.4513 H   0  0  0  0  0  0  0  0  0  0  0  0
   10.6079    4.3026    7.2974 H   0  0  0  0  0  0  0  0  0  0  0  0
   11.8276    3.2283    8.0721 H   0  0  0  0  0  0  0  0  0  0  0  0
   11.5658    3.1389    6.2931 H   0  0  0  0  0  0  0  0  0  0  0  0
    5.0895    5.4738    5.0576 H   0  0  0  0  0  0  0  0  0  0  0  0
    1.1205    6.1664    7.5069 H   0  0  0  0  0  0  0  0  0  0  0  0
    1.6183    6.5203    9.2259 H   0  0  0  0  0  0  0  0  0  0  0  0
   -0.1497    4.6996    9.0324 H   0  0  0  0  0  0  0  0  0  0  0  0
    1.3731    4.1457    9.8471 H   0  0  0  0  0  0  0  0  0  0  0  0
    1.0436    3.7114    8.1126 H   0  0  0  0  0  0  0  0  0  0  0  0
  1  2  2  3
  2  3  1  0
  3  4  2  0
  3  5  1  0
  5  6  2  0
  6  7  1  0
  7  8  2  0
  8  9  1  0
  9 10  2  0
 10 11  1  0
 11 12  2  3
 12 13  1  0
 13 14  3  0
 12 15  1  0
 15 16  3  0
  8 17  1  0
 17 18  1  0
 18 19  1  0
 19 20  2  0
 20 21  1  0
 21 22  1  0
 21 23  1  0
  1 24  1  0
 24 25  2  0
 25 26  1  0
 26 27  1  0
 27 28  2  0
 28 29  1  0
 29 30  2  0
 30 31  1  0
 30 32  1  0
 32 33  2  0
 26 34  1  0
 34 35  2  0
 35 36  1  0
 36 37  2  0
 37 38  1  0
 37 39  1  0
 39 40  2  0
 25 41  1  0
 41 42  1  0
 42 43  1  0
 43 44  2  0
 44 45  1  0
 45 46  1  0
 46 47  2  0
 47 48  1  0
 48 49  2  0
 49 50  1  0
 49 51  1  0
 51 52  2  0
 45 53  1  0
 53 54  2  0
 54 55  1  0
 55 56  2  0
 56 57  1  0
 56 58  1  0
 58 59  2  0
 44 60  1  0
 60 61  1  0
 43 62  1  0
 62 63  2  0
 63 64  1  0
 64 65  2  0
 65 66  1  0
 66 67  2  0
 67 68  1  0
 68 69  1  0
 69 70  1  0
 68 71  2  0
 63 72  1  0
 72 73  1  0
 73 74  1  0
 74 75  1  0
 75 76  1  0
 76 77  1  0
 77 78  2  0
 78 79  1  0
 79 80  1  0
 77 81  1  0
 81 82  1  0
 82 83  1  0
 83 84  1  0
 84 85  1  0
 85 86  1  0
 86 87  2  0
 87 88  1  0
 88 89  2  0
 89 90  1  0
 90 91  1  0
 91 92  1  0
 90 93  2  0
 85 94  2  0
 94 95  1  0
 95 96  1  0
 96 97  1  0
 97 98  1  0
 98 99  1  0
 99100  1  0
100101  1  0
101102  1  0
102103  1  0
103104  1  0
101105  1  0
105106  1  0
 98107  1  0
107108  1  0
 94109  1  0
109110  2  0
110111  1  0
111112  2  0
112113  1  0
113114  1  0
112115  1  0
115116  1  0
116117  2  0
117118  1  0
118119  2  0
119120  1  0
120121  1  0
121122  1  0
122123  1  0
121124  2  0
117125  1  0
125126  2  3
126127  1  0
127128  3  0
126129  1  0
129130  2  0
129131  1  0
131132  1  0
132133  1  0
 11  2  1  0
 23 17  1  0
 61 24  1  0
104 62  1  0
119109  1  0
 10  5  1  0
 22 18  1  0
 33 27  1  0
 40 34  1  0
 60 41  2  0
 71 64  1  0
103 72  2  0
116110  1  0
124118  1  0
 23  7  1  0
 52 46  1  0
 59 53  1  0
102 74  2  0
100 75  2  0
 80 76  2  0
 99 81  2  0
 97 82  2  0
 96 84  2  0
 93 86  1  0
  1134  1  0
  6135  1  0
  9136  1  0
 17137  1  0
 18138  1  0
 19139  1  0
 20140  1  0
 21141  1  0
 22142  1  0
 22143  1  0
 23144  1  0
 28145  1  0
 29146  1  0
 31147  1  0
 31148  1  0
 31149  1  0
 32150  1  0
 33151  1  0
 35152  1  0
 36153  1  0
 38154  1  0
 38155  1  0
 38156  1  0
 39157  1  0
 40158  1  0
 47159  1  0
 48160  1  0
 50161  1  0
 50162  1  0
 50163  1  0
 51164  1  0
 52165  1  0
 54166  1  0
 55167  1  0
 57168  1  0
 57169  1  0
 57170  1  0
 58171  1  0
 59172  1  0
 65173  1  0
 66174  1  0
 67175  1  0
 69176  1  0
 69177  1  0
 70178  1  0
 70179  1  0
 70180  1  0
 71181  1  0
 87182  1  0
 88183  1  0
 89184  1  0
 91185  1  0
 91186  1  0
 92187  1  0
 92188  1  0
 92189  1  0
 93190  1  0
105191  1  0
105192  1  0
106193  1  0
106194  1  0
106195  1  0
107196  1  0
107197  1  0
108198  1  0
108199  1  0
108200  1  0
113201  1  0
113202  1  0
114203  1  0
114204  1  0
114205  1  0
122206  1  0
122207  1  0
123208  1  0
123209  1  0
123210  1  0
125211  1  0
132212  1  0
132213  1  0
133214  1  0
133215  1  0
133216  1  0
M  END

