
     RDKit          3D

250278  0  0  0  0  0  0  0  0999 V2000
   -2.3889   -1.2454    8.1882 C   0  0  0  0  0  0  0  0  0  0  0  0
   -1.3697   -0.5057    8.6681 C   0  0  0  0  0  0  0  0  0  0  0  0
   -1.1653    0.9358    8.4622 C   0  0  0  0  0  0  0  0  0  0  0  0
   -1.5165    1.6099    7.4598 O   0  0  0  0  0  0  0  0  0  0  0  0
   -0.3274    1.4452    9.5155 C   0  0  0  0  0  0  0  0  0  0  0  0
   -0.0913    2.8066    9.8405 C   0  0  0  0  0  0  0  0  0  0  0  0
    0.6680    2.9805   10.9829 C   0  0  0  0  0  0  0  0  0  0  0  0
    1.1758    1.8857   11.7562 C   0  0  0  0  0  0  0  0  0  0  0  0
    0.9215    0.5563   11.4607 C   0  0  0  0  0  0  0  0  0  0  0  0
    0.1445    0.3496   10.2829 C   0  0  0  0  0  0  0  0  0  0  0  0
   -0.3773   -0.9228    9.7063 C   0  0  0  0  0  0  0  0  0  0  0  0
    0.1140   -2.1741    9.9222 C   0  0  0  0  0  0  0  0  0  0  0  0
   -0.3296   -3.3289    9.1896 C   0  0  0  0  0  0  0  0  0  0  0  0
   -0.6790   -4.2740    8.6217 N   0  0  0  0  0  0  0  0  0  0  0  0
    1.1983   -2.4345   10.8301 C   0  0  0  0  0  0  0  0  0  0  0  0
    2.0721   -2.6621   11.5591 N   0  0  0  0  0  0  0  0  0  0  0  0
    1.8016    2.8455   12.7266 C   0  0  0  0  0  0  0  0  0  0  0  0
    1.0932    2.9727   14.1077 C   0  0  0  0  0  0  0  0  0  0  0  0
    1.6410    4.2349   14.7375 C   0  0  0  0  0  0  0  0  0  0  0  0
    1.1388    5.2554   14.0357 C   0  0  0  0  0  0  0  0  0  0  0  0
    0.2744    4.6526   12.9516 C   0  0  0  0  0  0  0  0  0  0  0  0
   -0.2920    3.4793   13.7384 C   0  0  0  0  0  0  0  0  0  0  0  0
    1.2555    3.9684   11.9488 C   0  0  0  0  0  0  0  0  0  0  0  0
   -3.4425   -0.7591    7.2698 C   0  0  0  0  0  0  0  0  0  0  0  0
   -3.8477   -1.4179    6.0954 C   0  0  0  0  0  0  0  0  0  0  0  0
   -3.0045   -2.3861    5.4406 N   0  0  0  0  0  0  0  0  0  0  0  0
   -1.5855   -2.1480    5.3382 C   0  0  0  0  0  0  0  0  0  0  0  0
   -0.6749   -3.1620    5.6564 C   0  0  0  0  0  0  0  0  0  0  0  0
    0.7006   -2.9201    5.6386 C   0  0  0  0  0  0  0  0  0  0  0  0
    1.1874   -1.6639    5.2501 C   0  0  0  0  0  0  0  0  0  0  0  0
    2.6626   -1.3886    5.2512 C   0  0  0  0  0  0  0  0  0  0  0  0
    0.2782   -0.6415    4.9289 C   0  0  0  0  0  0  0  0  0  0  0  0
   -1.1010   -0.8830    4.9629 C   0  0  0  0  0  0  0  0  0  0  0  0
   -3.5683   -3.4750    4.7071 C   0  0  0  0  0  0  0  0  0  0  0  0
   -3.9768   -4.6368    5.3754 C   0  0  0  0  0  0  0  0  0  0  0  0
   -4.3722   -5.7611    4.6442 C   0  0  0  0  0  0  0  0  0  0  0  0
   -4.3819   -5.7248    3.2406 C   0  0  0  0  0  0  0  0  0  0  0  0
   -4.7262   -6.9545    2.4576 C   0  0  0  0  0  0  0  0  0  0  0  0
   -3.9658   -4.5590    2.5727 C   0  0  0  0  0  0  0  0  0  0  0  0
   -3.5575   -3.4446    3.3080 C   0  0  0  0  0  0  0  0  0  0  0  0
   -4.8483   -0.6920    5.4329 C   0  0  0  0  0  0  0  0  0  0  0  0
   -5.4214   -0.7514    3.8681 S   0  0  0  0  0  0  0  0  0  0  0  0
   -5.9858    0.8537    3.8157 C   0  0  0  0  0  0  0  0  0  0  0  0
   -5.6558    1.4808    5.0544 C   0  0  0  0  0  0  0  0  0  0  0  0
   -5.3019    2.8839    5.1811 N   0  0  0  0  0  0  0  0  0  0  0  0
   -5.5248    3.5649    6.4311 C   0  0  0  0  0  0  0  0  0  0  0  0
   -6.8194    3.8969    6.8427 C   0  0  0  0  0  0  0  0  0  0  0  0
   -7.0253    4.6261    8.0206 C   0  0  0  0  0  0  0  0  0  0  0  0
   -5.9289    5.0089    8.8111 C   0  0  0  0  0  0  0  0  0  0  0  0
   -6.1404    5.7424   10.1040 C   0  0  0  0  0  0  0  0  0  0  0  0
   -4.6303    4.6400    8.4253 C   0  0  0  0  0  0  0  0  0  0  0  0
   -4.4298    3.9447    7.2315 C   0  0  0  0  0  0  0  0  0  0  0  0
   -4.4194    3.5072    4.2120 C   0  0  0  0  0  0  0  0  0  0  0  0
   -4.5137    4.8869    3.9610 C   0  0  0  0  0  0  0  0  0  0  0  0
   -3.7662    5.4764    2.9398 C   0  0  0  0  0  0  0  0  0  0  0  0
   -2.9053    4.6949    2.1567 C   0  0  0  0  0  0  0  0  0  0  0  0
   -2.1248    5.3175    1.0412 C   0  0  0  0  0  0  0  0  0  0  0  0
   -2.7418    3.3345    2.4566 C   0  0  0  0  0  0  0  0  0  0  0  0
   -3.4836    2.7463    3.4840 C   0  0  0  0  0  0  0  0  0  0  0  0
   -5.1369    0.5348    5.9589 C   0  0  0  0  0  0  0  0  0  0  0  0
   -4.2758    0.7180    7.3873 S   0  0  0  0  0  0  0  0  0  0  0  0
   -6.3359    1.4975    2.5231 C   0  0  0  0  0  0  0  0  0  0  0  0
   -6.7433    2.8314    2.2929 C   0  0  0  0  0  0  0  0  0  0  0  0
   -7.6958    3.5495    3.1780 C   0  0  0  0  0  0  0  0  0  0  0  0
   -7.7311    4.9531    3.2374 C   0  0  0  0  0  0  0  0  0  0  0  0
   -8.7283    5.6030    3.9653 C   0  0  0  0  0  0  0  0  0  0  0  0
   -9.7311    4.8645    4.6076 C   0  0  0  0  0  0  0  0  0  0  0  0
   -9.7146    3.4610    4.5496 C   0  0  0  0  0  0  0  0  0  0  0  0
  -10.7967    2.6585    5.2235 C   0  0  0  0  0  0  0  0  0  0  0  0
  -11.7251    2.0218    4.1917 C   0  0  0  0  0  0  0  0  0  0  0  0
   -8.6933    2.8121    3.8434 C   0  0  0  0  0  0  0  0  0  0  0  0
   -6.6006    3.1657    0.9346 C   0  0  0  0  0  0  0  0  0  0  0  0
   -6.0297    4.6095    0.2059 S   0  0  0  0  0  0  0  0  0  0  0  0
   -5.5671    3.7826   -1.1987 C   0  0  0  0  0  0  0  0  0  0  0  0
   -4.7408    3.9504   -2.2759 C   0  0  0  0  0  0  0  0  0  0  0  0
   -3.9886    5.0580   -2.6543 C   0  0  0  0  0  0  0  0  0  0  0  0
   -3.0315    4.9118   -3.6929 C   0  0  0  0  0  0  0  0  0  0  0  0
   -2.2718    5.9966   -3.9860 N   0  0  0  0  0  0  0  0  0  0  0  0
   -2.8905    7.0768   -2.8939 S   0  0  0  0  0  0  0  0  0  0  0  0
   -4.0613    6.2687   -2.0514 N   0  0  0  0  0  0  0  0  0  0  0  0
   -2.8894    3.6674   -4.3130 C   0  0  0  0  0  0  0  0  0  0  0  0
   -1.9076    3.2335   -5.1637 C   0  0  0  0  0  0  0  0  0  0  0  0
   -0.3262    3.7420   -5.5459 S   0  0  0  0  0  0  0  0  0  0  0  0
    0.1459    2.1518   -5.9439 C   0  0  0  0  0  0  0  0  0  0  0  0
    1.3952    1.5470   -6.1553 C   0  0  0  0  0  0  0  0  0  0  0  0
    2.6673    2.2966   -6.2080 C   0  0  0  0  0  0  0  0  0  0  0  0
    3.7546    1.9197   -5.3993 C   0  0  0  0  0  0  0  0  0  0  0  0
    4.9528    2.6343   -5.4478 C   0  0  0  0  0  0  0  0  0  0  0  0
    5.0763    3.7422   -6.2876 C   0  0  0  0  0  0  0  0  0  0  0  0
    3.9950    4.1499   -7.0836 C   0  0  0  0  0  0  0  0  0  0  0  0
    4.1075    5.3832   -7.9391 C   0  0  0  0  0  0  0  0  0  0  0  0
    3.8607    6.6422   -7.1136 C   0  0  0  0  0  0  0  0  0  0  0  0
    2.7887    3.4273   -7.0340 C   0  0  0  0  0  0  0  0  0  0  0  0
    1.2762    0.1364   -6.1169 C   0  0  0  0  0  0  0  0  0  0  0  0
   -0.3315   -0.2932   -5.7943 S   0  0  0  0  0  0  0  0  0  0  0  0
   -0.8875    1.2759   -5.7318 C   0  0  0  0  0  0  0  0  0  0  0  0
   -2.0486    1.8901   -5.2719 C   0  0  0  0  0  0  0  0  0  0  0  0
   -3.0809    1.4118   -4.5378 N   0  0  0  0  0  0  0  0  0  0  0  0
   -3.6256    2.5211   -3.9267 C   0  0  0  0  0  0  0  0  0  0  0  0
   -4.5871    2.6693   -2.8646 C   0  0  0  0  0  0  0  0  0  0  0  0
   -5.3096    1.7444   -2.1395 N   0  0  0  0  0  0  0  0  0  0  0  0
   -5.8269    2.4679   -1.1215 C   0  0  0  0  0  0  0  0  0  0  0  0
   -6.3329    2.0957    0.1063 C   0  0  0  0  0  0  0  0  0  0  0  0
   -6.0115    0.7459    1.0313 S   0  0  0  0  0  0  0  0  0  0  0  0
   -5.9691    0.4948   -2.5524 C   0  0  0  0  0  0  0  0  0  0  0  0
   -6.7905    0.7001   -3.8331 C   0  0  0  0  0  0  0  0  0  0  0  0
   -3.3297   -0.0207   -4.3587 C   0  0  0  0  0  0  0  0  0  0  0  0
   -2.6860   -0.5329   -3.0721 C   0  0  0  0  0  0  0  0  0  0  0  0
    2.3265   -0.8841   -6.2805 C   0  0  0  0  0  0  0  0  0  0  0  0
    3.6958   -0.7852   -7.2665 S   0  0  0  0  0  0  0  0  0  0  0  0
    4.1730   -2.3711   -7.0075 C   0  0  0  0  0  0  0  0  0  0  0  0
    5.2425   -3.1246   -7.6352 C   0  0  0  0  0  0  0  0  0  0  0  0
    5.2359   -4.4940   -7.5474 C   0  0  0  0  0  0  0  0  0  0  0  0
    4.2247   -5.1535   -6.8351 O   0  0  0  0  0  0  0  0  0  0  0  0
    3.5121   -4.4778   -5.7681 C   0  0  0  0  0  0  0  0  0  0  0  0
    4.4050   -4.5894   -4.5219 C   0  0  0  0  0  0  0  0  0  0  0  0
    4.8394   -3.4703   -3.7768 C   0  0  0  0  0  0  0  0  0  0  0  0
    5.6841   -3.6319   -2.6762 C   0  0  0  0  0  0  0  0  0  0  0  0
    6.1051   -4.9095   -2.2845 C   0  0  0  0  0  0  0  0  0  0  0  0
    7.0508   -5.0750   -1.1263 C   0  0  0  0  0  0  0  0  0  0  0  0
    8.5001   -5.1020   -1.6011 C   0  0  0  0  0  0  0  0  0  0  0  0
    5.6767   -6.0290   -3.0126 C   0  0  0  0  0  0  0  0  0  0  0  0
    4.8393   -5.8686   -4.1205 C   0  0  0  0  0  0  0  0  0  0  0  0
    2.1745   -5.1740   -5.5161 C   0  0  0  0  0  0  0  0  0  0  0  0
    1.5331   -5.8994   -6.5394 C   0  0  0  0  0  0  0  0  0  0  0  0
    0.2770   -6.4834   -6.3236 C   0  0  0  0  0  0  0  0  0  0  0  0
   -0.3785   -6.3237   -5.0919 C   0  0  0  0  0  0  0  0  0  0  0  0
   -1.7335   -6.9384   -4.8615 C   0  0  0  0  0  0  0  0  0  0  0  0
   -1.6210   -8.2091   -4.0271 C   0  0  0  0  0  0  0  0  0  0  0  0
    0.2514   -5.6027   -4.0680 C   0  0  0  0  0  0  0  0  0  0  0  0
    1.5091   -5.0341   -4.2796 C   0  0  0  0  0  0  0  0  0  0  0  0
    3.2703   -3.0174   -6.1838 C   0  0  0  0  0  0  0  0  0  0  0  0
    2.2380   -2.1725   -5.7582 C   0  0  0  0  0  0  0  0  0  0  0  0
    6.3388   -5.1077   -8.1341 C   0  0  0  0  0  0  0  0  0  0  0  0
    7.2943   -4.1851   -8.5894 C   0  0  0  0  0  0  0  0  0  0  0  0
    6.6811   -2.6188   -8.3090 S   0  0  0  0  0  0  0  0  0  0  0  0
    8.7324   -4.5104   -8.8403 C   0  0  0  0  0  0  0  0  0  0  0  0
    9.2791   -5.6221   -8.1725 C   0  0  0  0  0  0  0  0  0  0  0  0
   10.6482   -5.8544   -8.1518 C   0  0  0  0  0  0  0  0  0  0  0  0
   11.5316   -4.9644   -8.7704 C   0  0  0  0  0  0  0  0  0  0  0  0
   12.9918   -5.1779   -8.6608 C   0  0  0  0  0  0  0  0  0  0  0  0
   13.4391   -6.1993   -8.0669 O   0  0  0  0  0  0  0  0  0  0  0  0
   13.9033   -4.2175   -9.2244 N   0  0  0  0  0  0  0  0  0  0  0  0
   15.3488   -4.3385   -8.9746 C   0  0  0  0  0  0  0  0  0  0  0  0
   15.6952   -3.8044   -7.5867 C   0  0  0  0  0  0  0  0  0  0  0  0
   13.3659   -3.0826   -9.9309 C   0  0  0  0  0  0  0  0  0  0  0  0
   14.1424   -2.1982  -10.3919 O   0  0  0  0  0  0  0  0  0  0  0  0
   11.9010   -2.9366  -10.0989 C   0  0  0  0  0  0  0  0  0  0  0  0
   11.3776   -1.8677  -10.8420 C   0  0  0  0  0  0  0  0  0  0  0  0
   10.0015   -1.7327  -11.0073 C   0  0  0  0  0  0  0  0  0  0  0  0
    9.1243   -2.6268  -10.3951 C   0  0  0  0  0  0  0  0  0  0  0  0
    9.6085   -3.6593   -9.5674 C   0  0  0  0  0  0  0  0  0  0  0  0
   11.0190   -3.8582   -9.4833 C   0  0  0  0  0  0  0  0  0  0  0  0
   -2.4994   -2.2741    8.4859 H   0  0  0  0  0  0  0  0  0  0  0  0
   -0.5019    3.6407    9.2766 H   0  0  0  0  0  0  0  0  0  0  0  0
    1.2525   -0.2231   12.1192 H   0  0  0  0  0  0  0  0  0  0  0  0
    2.9156    2.8011   12.7489 H   0  0  0  0  0  0  0  0  0  0  0  0
    1.1243    2.0640   14.7478 H   0  0  0  0  0  0  0  0  0  0  0  0
    2.2773    4.3191   15.6104 H   0  0  0  0  0  0  0  0  0  0  0  0
    1.3032    6.3092   14.2402 H   0  0  0  0  0  0  0  0  0  0  0  0
   -0.4717    5.3366   12.4956 H   0  0  0  0  0  0  0  0  0  0  0  0
   -0.8915    2.7648   13.1311 H   0  0  0  0  0  0  0  0  0  0  0  0
   -0.9063    3.7861   14.6176 H   0  0  0  0  0  0  0  0  0  0  0  0
    2.0296    4.6365   11.5027 H   0  0  0  0  0  0  0  0  0  0  0  0
   -1.0404   -4.1371    5.9520 H   0  0  0  0  0  0  0  0  0  0  0  0
    1.3830   -3.7079    5.9317 H   0  0  0  0  0  0  0  0  0  0  0  0
    3.2430   -2.3303    5.1644 H   0  0  0  0  0  0  0  0  0  0  0  0
    2.9366   -0.7414    4.3893 H   0  0  0  0  0  0  0  0  0  0  0  0
    2.9429   -0.8742    6.1964 H   0  0  0  0  0  0  0  0  0  0  0  0
    0.6346    0.3479    4.6571 H   0  0  0  0  0  0  0  0  0  0  0  0
   -1.7894   -0.0924    4.6994 H   0  0  0  0  0  0  0  0  0  0  0  0
   -3.9412   -4.6801    6.4589 H   0  0  0  0  0  0  0  0  0  0  0  0
   -4.6369   -6.6691    5.1740 H   0  0  0  0  0  0  0  0  0  0  0  0
   -5.5022   -7.5413    2.9897 H   0  0  0  0  0  0  0  0  0  0  0  0
   -3.8158   -7.5774    2.3335 H   0  0  0  0  0  0  0  0  0  0  0  0
   -5.1212   -6.6866    1.4561 H   0  0  0  0  0  0  0  0  0  0  0  0
   -3.9255   -4.5248    1.4909 H   0  0  0  0  0  0  0  0  0  0  0  0
   -3.2156   -2.5575    2.7897 H   0  0  0  0  0  0  0  0  0  0  0  0
   -7.6684    3.5958    6.2570 H   0  0  0  0  0  0  0  0  0  0  0  0
   -8.0370    4.8890    8.3130 H   0  0  0  0  0  0  0  0  0  0  0  0
   -7.0773    6.3397   10.0793 H   0  0  0  0  0  0  0  0  0  0  0  0
   -5.2950    6.4386   10.2931 H   0  0  0  0  0  0  0  0  0  0  0  0
   -6.1997    5.0132   10.9369 H   0  0  0  0  0  0  0  0  0  0  0  0
   -3.7780    4.9043    9.0415 H   0  0  0  0  0  0  0  0  0  0  0  0
   -3.4257    3.6647    6.9446 H   0  0  0  0  0  0  0  0  0  0  0  0
   -5.2014    5.5014    4.5246 H   0  0  0  0  0  0  0  0  0  0  0  0
   -3.8764    6.5367    2.7443 H   0  0  0  0  0  0  0  0  0  0  0  0
   -1.1637    5.7095    1.4419 H   0  0  0  0  0  0  0  0  0  0  0  0
   -2.6989    6.1561    0.5838 H   0  0  0  0  0  0  0  0  0  0  0  0
   -1.9157    4.5713    0.2418 H   0  0  0  0  0  0  0  0  0  0  0  0
   -2.0522    2.7252    1.8846 H   0  0  0  0  0  0  0  0  0  0  0  0
   -3.3402    1.6947    3.6888 H   0  0  0  0  0  0  0  0  0  0  0  0
   -6.9952    5.5536    2.7147 H   0  0  0  0  0  0  0  0  0  0  0  0
   -8.7442    6.6844    4.0166 H   0  0  0  0  0  0  0  0  0  0  0  0
  -10.5186    5.3882    5.1361 H   0  0  0  0  0  0  0  0  0  0  0  0
  -10.3417    1.8622    5.8486 H   0  0  0  0  0  0  0  0  0  0  0  0
  -11.4006    3.3025    5.8973 H   0  0  0  0  0  0  0  0  0  0  0  0
  -11.1670    1.2984    3.5596 H   0  0  0  0  0  0  0  0  0  0  0  0
  -12.1764    2.8028    3.5429 H   0  0  0  0  0  0  0  0  0  0  0  0
  -12.5413    1.4735    4.7119 H   0  0  0  0  0  0  0  0  0  0  0  0
   -8.7037    1.7296    3.7809 H   0  0  0  0  0  0  0  0  0  0  0  0
    3.6690    1.0803   -4.7223 H   0  0  0  0  0  0  0  0  0  0  0  0
    5.7809    2.3378   -4.8174 H   0  0  0  0  0  0  0  0  0  0  0  0
    6.0070    4.2928   -6.3027 H   0  0  0  0  0  0  0  0  0  0  0  0
    5.1228    5.4325   -8.3911 H   0  0  0  0  0  0  0  0  0  0  0  0
    3.3722    5.3490   -8.7747 H   0  0  0  0  0  0  0  0  0  0  0  0
    3.9726    7.5380   -7.7574 H   0  0  0  0  0  0  0  0  0  0  0  0
    2.8313    6.6299   -6.6927 H   0  0  0  0  0  0  0  0  0  0  0  0
    4.5961    6.7073   -6.2824 H   0  0  0  0  0  0  0  0  0  0  0  0
    1.9476    3.7442   -7.6380 H   0  0  0  0  0  0  0  0  0  0  0  0
   -6.6941    0.1743   -1.7755 H   0  0  0  0  0  0  0  0  0  0  0  0
   -5.2688   -0.3501   -2.5813 H   0  0  0  0  0  0  0  0  0  0  0  0
   -6.1584    1.0637   -4.6638 H   0  0  0  0  0  0  0  0  0  0  0  0
   -7.2604   -0.2611   -4.1335 H   0  0  0  0  0  0  0  0  0  0  0  0
   -7.5906    1.4459   -3.6519 H   0  0  0  0  0  0  0  0  0  0  0  0
   -2.9160   -0.5893   -5.2110 H   0  0  0  0  0  0  0  0  0  0  0  0
   -4.3913   -0.2486   -4.4617 H   0  0  0  0  0  0  0  0  0  0  0  0
   -1.5813   -0.4955   -3.1617 H   0  0  0  0  0  0  0  0  0  0  0  0
   -2.9824    0.0937   -2.2043 H   0  0  0  0  0  0  0  0  0  0  0  0
   -2.9936   -1.5857   -2.8956 H   0  0  0  0  0  0  0  0  0  0  0  0
    4.5416   -2.4675   -4.0424 H   0  0  0  0  0  0  0  0  0  0  0  0
    6.0147   -2.7546   -2.1308 H   0  0  0  0  0  0  0  0  0  0  0  0
    6.8277   -6.0188   -0.5840 H   0  0  0  0  0  0  0  0  0  0  0  0
    6.9203   -4.2433   -0.4029 H   0  0  0  0  0  0  0  0  0  0  0  0
    8.6845   -5.9978   -2.2284 H   0  0  0  0  0  0  0  0  0  0  0  0
    9.1782   -5.1392   -0.7218 H   0  0  0  0  0  0  0  0  0  0  0  0
    8.7343   -4.1883   -2.1889 H   0  0  0  0  0  0  0  0  0  0  0  0
    6.0002   -7.0238   -2.7302 H   0  0  0  0  0  0  0  0  0  0  0  0
    4.5272   -6.7507   -4.6696 H   0  0  0  0  0  0  0  0  0  0  0  0
    1.9898   -6.0038   -7.5139 H   0  0  0  0  0  0  0  0  0  0  0  0
   -0.1890   -7.0515   -7.1233 H   0  0  0  0  0  0  0  0  0  0  0  0
   -2.2169   -7.1850   -5.8307 H   0  0  0  0  0  0  0  0  0  0  0  0
   -2.3899   -6.2124   -4.3401 H   0  0  0  0  0  0  0  0  0  0  0  0
   -2.6219   -8.6826   -3.9340 H   0  0  0  0  0  0  0  0  0  0  0  0
   -1.2464   -7.9680   -3.0085 H   0  0  0  0  0  0  0  0  0  0  0  0
   -0.9276   -8.9306   -4.5111 H   0  0  0  0  0  0  0  0  0  0  0  0
   -0.2399   -5.4667   -3.1082 H   0  0  0  0  0  0  0  0  0  0  0  0
    1.9516   -4.4559   -3.4759 H   0  0  0  0  0  0  0  0  0  0  0  0
    1.4395   -2.4876   -5.1048 H   0  0  0  0  0  0  0  0  0  0  0  0
    6.4793   -6.1825   -8.1205 H   0  0  0  0  0  0  0  0  0  0  0  0
    8.6584   -6.2965   -7.5997 H   0  0  0  0  0  0  0  0  0  0  0  0
   11.0205   -6.7152   -7.6065 H   0  0  0  0  0  0  0  0  0  0  0  0
   15.9347   -3.7846   -9.7382 H   0  0  0  0  0  0  0  0  0  0  0  0
   15.6598   -5.4049   -9.0445 H   0  0  0  0  0  0  0  0  0  0  0  0
   15.1463   -4.3731   -6.8056 H   0  0  0  0  0  0  0  0  0  0  0  0
   15.4240   -2.7289   -7.5161 H   0  0  0  0  0  0  0  0  0  0  0  0
   16.7855   -3.9150   -7.4042 H   0  0  0  0  0  0  0  0  0  0  0  0
   12.0331   -1.1488  -11.3217 H   0  0  0  0  0  0  0  0  0  0  0  0
    9.6076   -0.9262  -11.6104 H   0  0  0  0  0  0  0  0  0  0  0  0
    8.0708   -2.5092  -10.5959 H   0  0  0  0  0  0  0  0  0  0  0  0
  1  2  2  3
  2  3  1  0
  3  4  2  0
  3  5  1  0
  5  6  2  0
  6  7  1  0
  7  8  2  0
  8  9  1  0
  9 10  2  0
 10 11  1  0
 11 12  2  3
 12 13  1  0
 13 14  3  0
 12 15  1  0
 15 16  3  0
  8 17  1  0
 17 18  1  0
 18 19  1  0
 19 20  2  0
 20 21  1  0
 21 22  1  0
 21 23  1  0
  1 24  1  0
 24 25  2  0
 25 26  1  0
 26 27  1  0
 27 28  2  0
 28 29  1  0
 29 30  2  0
 30 31  1  0
 30 32  1  0
 32 33  2  0
 26 34  1  0
 34 35  2  0
 35 36  1  0
 36 37  2  0
 37 38  1  0
 37 39  1  0
 39 40  2  0
 25 41  1  0
 41 42  1  0
 42 43  1  0
 43 44  2  0
 44 45  1  0
 45 46  1  0
 46 47  2  0
 47 48  1  0
 48 49  2  0
 49 50  1  0
 49 51  1  0
 51 52  2  0
 45 53  1  0
 53 54  2  0
 54 55  1  0
 55 56  2  0
 56 57  1  0
 56 58  1  0
 58 59  2  0
 44 60  1  0
 60 61  1  0
 43 62  1  0
 62 63  2  0
 63 64  1  0
 64 65  2  0
 65 66  1  0
 66 67  2  0
 67 68  1  0
 68 69  1  0
 69 70  1  0
 68 71  2  0
 63 72  1  0
 72 73  1  0
 73 74  1  0
 74 75  1  0
 75 76  1  0
 76 77  1  0
 77 78  2  0
 78 79  1  0
 79 80  1  0
 77 81  1  0
 81 82  1  0
 82 83  1  0
 83 84  1  0
 84 85  1  0
 85 86  1  0
 86 87  2  0
 87 88  1  0
 88 89  2  0
 89 90  1  0
 90 91  1  0
 91 92  1  0
 90 93  2  0
 85 94  2  0
 94 95  1  0
 95 96  1  0
 96 97  1  0
 97 98  1  0
 98 99  1  0
 99100  1  0
100101  1  0
101102  1  0
102103  1  0
103104  1  0
101105  1  0
105106  1  0
 98107  1  0
107108  1  0
 94109  1  0
109110  1  0
110111  1  0
111112  1  0
112113  2  0
113114  1  0
114115  1  0
115116  1  0
116117  2  0
117118  1  0
118119  2  0
119120  1  0
120121  1  0
119122  1  0
122123  2  0
115124  1  0
124125  2  0
125126  1  0
126127  2  0
127128  1  0
128129  1  0
127130  1  0
130131  2  0
115132  1  0
132133  1  0
113134  1  0
134135  2  0
135136  1  0
135137  1  0
137138  2  0
138139  1  0
139140  2  0
140141  1  0
141142  2  0
141143  1  0
143144  1  0
144145  1  0
143146  1  0
146147  2  0
146148  1  0
148149  1  0
149150  2  0
150151  1  0
151152  2  0
152153  1  0
 11  2  1  0
 23 17  1  0
 61 24  1  0
104 62  1  0
133109  2  0
152137  1  0
 10  5  1  0
 22 18  1  0
 33 27  1  0
 40 34  1  0
 60 41  2  0
 71 64  1  0
103 72  2  0
132111  2  0
153140  1  0
 23  7  1  0
 52 46  1  0
 59 53  1  0
102 74  2  0
136112  1  0
153148  2  0
100 75  2  0
123116  1  0
131124  1  0
 80 76  2  0
 99 81  2  0
 97 82  2  0
 96 84  2  0
 93 86  1  0
  1154  1  0
  6155  1  0
  9156  1  0
 17157  1  0
 18158  1  0
 19159  1  0
 20160  1  0
 21161  1  0
 22162  1  0
 22163  1  0
 23164  1  0
 28165  1  0
 29166  1  0
 31167  1  0
 31168  1  0
 31169  1  0
 32170  1  0
 33171  1  0
 35172  1  0
 36173  1  0
 38174  1  0
 38175  1  0
 38176  1  0
 39177  1  0
 40178  1  0
 47179  1  0
 48180  1  0
 50181  1  0
 50182  1  0
 50183  1  0
 51184  1  0
 52185  1  0
 54186  1  0
 55187  1  0
 57188  1  0
 57189  1  0
 57190  1  0
 58191  1  0
 59192  1  0
 65193  1  0
 66194  1  0
 67195  1  0
 69196  1  0
 69197  1  0
 70198  1  0
 70199  1  0
 70200  1  0
 71201  1  0
 87202  1  0
 88203  1  0
 89204  1  0
 91205  1  0
 91206  1  0
 92207  1  0
 92208  1  0
 92209  1  0
 93210  1  0
105211  1  0
105212  1  0
106213  1  0
106214  1  0
106215  1  0
107216  1  0
107217  1  0
108218  1  0
108219  1  0
108220  1  0
117221  1  0
118222  1  0
120223  1  0
120224  1  0
121225  1  0
121226  1  0
121227  1  0
122228  1  0
123229  1  0
125230  1  0
126231  1  0
128232  1  0
128233  1  0
129234  1  0
129235  1  0
129236  1  0
130237  1  0
131238  1  0
133239  1  0
134240  1  0
138241  1  0
139242  1  0
144243  1  0
144244  1  0
145245  1  0
145246  1  0
145247  1  0
149248  1  0
150249  1  0
151250  1  0
M  END

