
     RDKit          3D

235263  0  0  0  0  0  0  0  0999 V2000
   -5.1485   -6.7959   -0.9941 C   0  0  0  0  0  0  0  0  0  0  0  0
   -5.7466   -5.7202   -1.6005 C   0  0  0  0  0  0  0  0  0  0  0  0
   -5.2778   -4.3484   -1.4422 C   0  0  0  0  0  0  0  0  0  0  0  0
   -4.0552   -4.0051   -1.3142 O   0  0  0  0  0  0  0  0  0  0  0  0
   -6.4131   -3.4499   -1.4123 C   0  0  0  0  0  0  0  0  0  0  0  0
   -6.4009   -2.0626   -1.1616 C   0  0  0  0  0  0  0  0  0  0  0  0
   -7.6652   -1.4640   -1.2478 C   0  0  0  0  0  0  0  0  0  0  0  0
   -8.7557   -2.1124   -1.8917 C   0  0  0  0  0  0  0  0  0  0  0  0
   -8.7900   -3.4680   -2.1555 C   0  0  0  0  0  0  0  0  0  0  0  0
   -7.5829   -4.1714   -1.7593 C   0  0  0  0  0  0  0  0  0  0  0  0
   -7.2074   -5.6128   -1.9956 C   0  0  0  0  0  0  0  0  0  0  0  0
   -7.9539   -6.5676   -2.4767 C   0  0  0  0  0  0  0  0  0  0  0  0
   -7.4573   -7.8198   -2.8187 C   0  0  0  0  0  0  0  0  0  0  0  0
   -7.1048   -8.9207   -3.0858 N   0  0  0  0  0  0  0  0  0  0  0  0
   -9.3646   -6.4496   -2.4732 C   0  0  0  0  0  0  0  0  0  0  0  0
  -10.5336   -6.4149   -2.3743 N   0  0  0  0  0  0  0  0  0  0  0  0
   -9.4560   -0.8007   -2.1072 C   0  0  0  0  0  0  0  0  0  0  0  0
   -9.2487   -0.1470   -3.4937 C   0  0  0  0  0  0  0  0  0  0  0  0
   -9.7357    1.2466   -3.3190 C   0  0  0  0  0  0  0  0  0  0  0  0
   -8.8364    1.8727   -2.5380 C   0  0  0  0  0  0  0  0  0  0  0  0
   -7.7498    0.8664   -2.2602 C   0  0  0  0  0  0  0  0  0  0  0  0
   -7.7668    0.1452   -3.5801 C   0  0  0  0  0  0  0  0  0  0  0  0
   -8.3853   -0.1619   -1.3062 C   0  0  0  0  0  0  0  0  0  0  0  0
   -3.7578   -6.7082   -0.4197 C   0  0  0  0  0  0  0  0  0  0  0  0
   -2.6358   -7.4192   -0.9412 C   0  0  0  0  0  0  0  0  0  0  0  0
   -2.7434   -8.8419   -1.2096 N   0  0  0  0  0  0  0  0  0  0  0  0
   -2.1017   -9.6828   -0.2578 C   0  0  0  0  0  0  0  0  0  0  0  0
   -1.3074  -10.7408   -0.6559 C   0  0  0  0  0  0  0  0  0  0  0  0
   -0.5171  -11.4315    0.2607 C   0  0  0  0  0  0  0  0  0  0  0  0
   -0.4958  -11.0310    1.6089 C   0  0  0  0  0  0  0  0  0  0  0  0
    0.4412  -11.6660    2.5849 C   0  0  0  0  0  0  0  0  0  0  0  0
   -1.2730   -9.9318    2.0180 C   0  0  0  0  0  0  0  0  0  0  0  0
   -2.1284   -9.3128    1.1147 C   0  0  0  0  0  0  0  0  0  0  0  0
   -3.5708   -9.4010   -2.2293 C   0  0  0  0  0  0  0  0  0  0  0  0
   -3.6943   -8.8042   -3.5001 C   0  0  0  0  0  0  0  0  0  0  0  0
   -4.3450   -9.4681   -4.5516 C   0  0  0  0  0  0  0  0  0  0  0  0
   -4.9165  -10.7425   -4.3365 C   0  0  0  0  0  0  0  0  0  0  0  0
   -5.5698  -11.4780   -5.4679 C   0  0  0  0  0  0  0  0  0  0  0  0
   -4.8291  -11.3224   -3.0896 C   0  0  0  0  0  0  0  0  0  0  0  0
   -4.1855  -10.6524   -2.0324 C   0  0  0  0  0  0  0  0  0  0  0  0
   -1.4475   -6.9057   -0.3761 C   0  0  0  0  0  0  0  0  0  0  0  0
    0.2194   -7.1934   -0.6248 S   0  0  0  0  0  0  0  0  0  0  0  0
    0.7106   -6.0014    0.5329 C   0  0  0  0  0  0  0  0  0  0  0  0
   -0.4315   -5.4139    1.1014 C   0  0  0  0  0  0  0  0  0  0  0  0
   -0.4990   -4.0329    1.5327 N   0  0  0  0  0  0  0  0  0  0  0  0
   -0.0849   -3.5823    2.8375 C   0  0  0  0  0  0  0  0  0  0  0  0
    0.3723   -2.2691    2.9427 C   0  0  0  0  0  0  0  0  0  0  0  0
    0.3061   -1.5925    4.1599 C   0  0  0  0  0  0  0  0  0  0  0  0
   -0.1530   -2.1982    5.3129 C   0  0  0  0  0  0  0  0  0  0  0  0
   -0.4617   -1.3615    6.5229 C   0  0  0  0  0  0  0  0  0  0  0  0
   -0.5033   -3.5685    5.2538 C   0  0  0  0  0  0  0  0  0  0  0  0
   -0.4898   -4.2471    4.0151 C   0  0  0  0  0  0  0  0  0  0  0  0
   -1.2223   -3.0824    0.6628 C   0  0  0  0  0  0  0  0  0  0  0  0
   -2.0872   -2.1459    1.2432 C   0  0  0  0  0  0  0  0  0  0  0  0
   -2.6428   -1.1553    0.4317 C   0  0  0  0  0  0  0  0  0  0  0  0
   -2.4034   -1.1641   -0.9555 C   0  0  0  0  0  0  0  0  0  0  0  0
   -2.9738   -0.0480   -1.8096 C   0  0  0  0  0  0  0  0  0  0  0  0
   -1.6496   -2.1768   -1.5253 C   0  0  0  0  0  0  0  0  0  0  0  0
   -1.0371   -3.1412   -0.7087 C   0  0  0  0  0  0  0  0  0  0  0  0
   -1.6020   -5.9622    0.6118 C   0  0  0  0  0  0  0  0  0  0  0  0
   -3.2031   -5.5980    0.8030 S   0  0  0  0  0  0  0  0  0  0  0  0
    2.0518   -5.2779    0.4945 C   0  0  0  0  0  0  0  0  0  0  0  0
    3.3928   -5.7187    0.4210 C   0  0  0  0  0  0  0  0  0  0  0  0
    3.9044   -7.0648    0.8434 C   0  0  0  0  0  0  0  0  0  0  0  0
    5.2217   -7.4473    0.6038 C   0  0  0  0  0  0  0  0  0  0  0  0
    5.8757   -8.2823    1.5410 C   0  0  0  0  0  0  0  0  0  0  0  0
    5.1701   -8.8031    2.6151 C   0  0  0  0  0  0  0  0  0  0  0  0
    3.8093   -8.5649    2.8142 C   0  0  0  0  0  0  0  0  0  0  0  0
    3.0575   -8.9929    4.0454 C   0  0  0  0  0  0  0  0  0  0  0  0
    3.0179   -7.9005    5.0988 C   0  0  0  0  0  0  0  0  0  0  0  0
    3.1950   -7.6523    1.8857 C   0  0  0  0  0  0  0  0  0  0  0  0
    4.2661   -4.6379    0.1846 C   0  0  0  0  0  0  0  0  0  0  0  0
    5.9266   -4.4038   -0.1664 S   0  0  0  0  0  0  0  0  0  0  0  0
    5.7806   -2.6663   -0.1851 C   0  0  0  0  0  0  0  0  0  0  0  0
    6.2954   -1.4818   -0.6593 C   0  0  0  0  0  0  0  0  0  0  0  0
    7.6312   -1.2021   -1.1843 C   0  0  0  0  0  0  0  0  0  0  0  0
    7.7607   -0.0000   -1.9924 C   0  0  0  0  0  0  0  0  0  0  0  0
    9.0397    0.3763   -2.3174 N   0  0  0  0  0  0  0  0  0  0  0  0
    9.8562   -0.8183   -1.5241 S   0  0  0  0  0  0  0  0  0  0  0  0
    8.7779   -1.7201   -0.6436 N   0  0  0  0  0  0  0  0  0  0  0  0
    6.6896    0.9414   -2.0471 C   0  0  0  0  0  0  0  0  0  0  0  0
    6.8494    2.3079   -2.0742 C   0  0  0  0  0  0  0  0  0  0  0  0
    7.1427    3.4513   -3.4374 S   0  0  0  0  0  0  0  0  0  0  0  0
    6.0616    4.6187   -2.9540 C   0  0  0  0  0  0  0  0  0  0  0  0
    5.3943    5.6906   -3.5550 C   0  0  0  0  0  0  0  0  0  0  0  0
    5.5103    5.8994   -5.0968 C   0  0  0  0  0  0  0  0  0  0  0  0
    4.3896    6.2367   -5.9372 C   0  0  0  0  0  0  0  0  0  0  0  0
    4.4974    6.1252   -7.2815 C   0  0  0  0  0  0  0  0  0  0  0  0
    5.6372    5.5784   -7.9263 C   0  0  0  0  0  0  0  0  0  0  0  0
    6.7339    5.2667   -7.1014 C   0  0  0  0  0  0  0  0  0  0  0  0
    7.7829    4.3085   -7.6117 C   0  0  0  0  0  0  0  0  0  0  0  0
    7.2834    2.8796   -7.4588 C   0  0  0  0  0  0  0  0  0  0  0  0
    6.6755    5.5496   -5.7260 C   0  0  0  0  0  0  0  0  0  0  0  0
    4.3797    6.2535   -2.7070 C   0  0  0  0  0  0  0  0  0  0  0  0
    4.2854    5.0989   -1.4179 S   0  0  0  0  0  0  0  0  0  0  0  0
    5.4700    4.0720   -1.7985 C   0  0  0  0  0  0  0  0  0  0  0  0
    5.8172    2.8890   -1.3551 C   0  0  0  0  0  0  0  0  0  0  0  0
    5.0159    1.9957   -0.6844 N   0  0  0  0  0  0  0  0  0  0  0  0
    5.6154    0.7753   -1.1469 C   0  0  0  0  0  0  0  0  0  0  0  0
    5.3407   -0.4932   -0.5698 C   0  0  0  0  0  0  0  0  0  0  0  0
    4.1890   -1.0138   -0.1017 N   0  0  0  0  0  0  0  0  0  0  0  0
    4.5036   -2.3375    0.0857 C   0  0  0  0  0  0  0  0  0  0  0  0
    3.6569   -3.4523    0.1969 C   0  0  0  0  0  0  0  0  0  0  0  0
    2.0358   -3.6403    0.2562 S   0  0  0  0  0  0  0  0  0  0  0  0
    2.8884   -0.4110    0.1217 C   0  0  0  0  0  0  0  0  0  0  0  0
    2.1626   -0.0868   -1.1723 C   0  0  0  0  0  0  0  0  0  0  0  0
    4.5070    2.2274    0.6981 C   0  0  0  0  0  0  0  0  0  0  0  0
    5.2115    3.2484    1.4935 C   0  0  0  0  0  0  0  0  0  0  0  0
    3.2973    7.3910   -2.9043 C   0  0  0  0  0  0  0  0  0  0  0  0
    2.0258    7.1416   -2.2664 C   0  0  0  0  0  0  0  0  0  0  0  0
    1.7397    5.9408   -1.7001 N   0  0  0  0  0  0  0  0  0  0  0  0
    1.6500    5.9698   -0.3382 C   0  0  0  0  0  0  0  0  0  0  0  0
    1.4210    4.7551    0.5782 C   0  0  0  0  0  0  0  0  0  0  0  0
    0.9487    3.5510   -0.1479 C   0  0  0  0  0  0  0  0  0  0  0  0
    0.9918    7.4383   -0.1743 S   0  0  0  0  0  0  0  0  0  0  0  0
    1.4162    8.1630   -1.6767 C   0  0  0  0  0  0  0  0  0  0  0  0
    1.3463    9.3948   -2.2439 C   0  0  0  0  0  0  0  0  0  0  0  0
    2.3007    9.6398   -3.3161 C   0  0  0  0  0  0  0  0  0  0  0  0
    3.3068    8.6361   -3.5768 C   0  0  0  0  0  0  0  0  0  0  0  0
    4.1949    9.2051   -4.8610 S   0  0  0  0  0  0  0  0  0  0  0  0
    3.2711   10.6437   -5.0711 C   0  0  0  0  0  0  0  0  0  0  0  0
    3.3148   11.5701   -6.2502 C   0  0  0  0  0  0  0  0  0  0  0  0
    2.4063   11.0942   -7.3688 C   0  0  0  0  0  0  0  0  0  0  0  0
    2.2767   10.7127   -4.1812 N   0  0  0  0  0  0  0  0  0  0  0  0
    0.4097   10.5110   -1.8354 C   0  0  0  0  0  0  0  0  0  0  0  0
    0.2433   10.7530   -0.5259 C   0  0  0  0  0  0  0  0  0  0  0  0
   -1.0577   11.2689    0.1219 C   0  0  0  0  0  0  0  0  0  0  0  0
   -2.1027   11.6815   -0.5168 O   0  0  0  0  0  0  0  0  0  0  0  0
   -1.0956   10.8251    1.5062 C   0  0  0  0  0  0  0  0  0  0  0  0
   -2.0963   11.0081    2.4834 C   0  0  0  0  0  0  0  0  0  0  0  0
   -1.8191   10.4200    3.7033 C   0  0  0  0  0  0  0  0  0  0  0  0
   -0.6304    9.6483    3.8947 C   0  0  0  0  0  0  0  0  0  0  0  0
    0.3133    9.4757    2.9378 C   0  0  0  0  0  0  0  0  0  0  0  0
    0.0519   10.0519    1.6935 C   0  0  0  0  0  0  0  0  0  0  0  0
    0.9992   10.1936    0.5528 C   0  0  0  0  0  0  0  0  0  0  0  0
    2.3335   10.1645    0.6044 C   0  0  0  0  0  0  0  0  0  0  0  0
    3.1480   10.9825   -0.3393 C   0  0  0  0  0  0  0  0  0  0  0  0
    3.7821   11.6041   -1.0654 N   0  0  0  0  0  0  0  0  0  0  0  0
    3.0535    9.2946    1.4748 C   0  0  0  0  0  0  0  0  0  0  0  0
    3.5634    8.5500    2.2144 N   0  0  0  0  0  0  0  0  0  0  0  0
   -0.9849    9.4099    5.3377 C   0  0  0  0  0  0  0  0  0  0  0  0
   -0.0930   10.1853    6.3567 C   0  0  0  0  0  0  0  0  0  0  0  0
   -0.8154   10.0949    7.6802 C   0  0  0  0  0  0  0  0  0  0  0  0
   -1.9249   10.8380    7.5447 C   0  0  0  0  0  0  0  0  0  0  0  0
   -1.8959   11.4214    6.1483 C   0  0  0  0  0  0  0  0  0  0  0  0
   -0.3901   11.6385    6.0395 C   0  0  0  0  0  0  0  0  0  0  0  0
   -2.1727   10.2424    5.1746 C   0  0  0  0  0  0  0  0  0  0  0  0
   -5.7061   -7.7530   -0.8302 H   0  0  0  0  0  0  0  0  0  0  0  0
   -5.6102   -1.4083   -0.8065 H   0  0  0  0  0  0  0  0  0  0  0  0
   -9.5995   -3.8532   -2.7703 H   0  0  0  0  0  0  0  0  0  0  0  0
  -10.5143   -0.6709   -1.6700 H   0  0  0  0  0  0  0  0  0  0  0  0
   -9.6603   -0.7360   -4.3350 H   0  0  0  0  0  0  0  0  0  0  0  0
  -10.5763    1.6822   -3.7838 H   0  0  0  0  0  0  0  0  0  0  0  0
   -8.7839    2.9271   -2.2670 H   0  0  0  0  0  0  0  0  0  0  0  0
   -6.7695    1.2618   -1.8314 H   0  0  0  0  0  0  0  0  0  0  0  0
   -7.1815   -0.8207   -3.5085 H   0  0  0  0  0  0  0  0  0  0  0  0
   -7.4916    0.8718   -4.4017 H   0  0  0  0  0  0  0  0  0  0  0  0
   -8.7160    0.2166   -0.3208 H   0  0  0  0  0  0  0  0  0  0  0  0
   -1.2851  -11.0667   -1.6872 H   0  0  0  0  0  0  0  0  0  0  0  0
    0.1399  -12.2319   -0.0733 H   0  0  0  0  0  0  0  0  0  0  0  0
    0.4736  -12.7578    2.3889 H   0  0  0  0  0  0  0  0  0  0  0  0
    1.4629  -11.2466    2.4697 H   0  0  0  0  0  0  0  0  0  0  0  0
    0.0986  -11.5125    3.6189 H   0  0  0  0  0  0  0  0  0  0  0  0
   -1.2397   -9.5931    3.0179 H   0  0  0  0  0  0  0  0  0  0  0  0
   -2.7787   -8.5281    1.4417 H   0  0  0  0  0  0  0  0  0  0  0  0
   -3.2590   -7.8289   -3.7105 H   0  0  0  0  0  0  0  0  0  0  0  0
   -4.4204   -9.0150   -5.5138 H   0  0  0  0  0  0  0  0  0  0  0  0
   -6.1722  -12.3407   -5.0837 H   0  0  0  0  0  0  0  0  0  0  0  0
   -6.2396  -10.8160   -6.0253 H   0  0  0  0  0  0  0  0  0  0  0  0
   -4.7912  -11.8848   -6.1353 H   0  0  0  0  0  0  0  0  0  0  0  0
   -5.2557  -12.2970   -2.8941 H   0  0  0  0  0  0  0  0  0  0  0  0
   -4.1510  -11.1173   -1.0752 H   0  0  0  0  0  0  0  0  0  0  0  0
    0.6781   -1.7245    2.0438 H   0  0  0  0  0  0  0  0  0  0  0  0
    0.5916   -0.5569    4.1750 H   0  0  0  0  0  0  0  0  0  0  0  0
    0.4003   -0.7299    6.7453 H   0  0  0  0  0  0  0  0  0  0  0  0
   -1.3307   -0.7012    6.3362 H   0  0  0  0  0  0  0  0  0  0  0  0
   -0.6794   -1.9885    7.3994 H   0  0  0  0  0  0  0  0  0  0  0  0
   -0.9294   -4.0791    6.1164 H   0  0  0  0  0  0  0  0  0  0  0  0
   -0.8727   -5.2481    3.9601 H   0  0  0  0  0  0  0  0  0  0  0  0
   -2.2645   -2.1005    2.3213 H   0  0  0  0  0  0  0  0  0  0  0  0
   -3.2406   -0.3767    0.8675 H   0  0  0  0  0  0  0  0  0  0  0  0
   -4.0589    0.0347   -1.6466 H   0  0  0  0  0  0  0  0  0  0  0  0
   -2.4872    0.8968   -1.5181 H   0  0  0  0  0  0  0  0  0  0  0  0
   -2.7895   -0.2373   -2.8833 H   0  0  0  0  0  0  0  0  0  0  0  0
   -1.4505   -2.2046   -2.5820 H   0  0  0  0  0  0  0  0  0  0  0  0
   -0.4154   -3.8718   -1.1456 H   0  0  0  0  0  0  0  0  0  0  0  0
    5.7416   -7.0740   -0.2460 H   0  0  0  0  0  0  0  0  0  0  0  0
    6.9699   -8.4413    1.4482 H   0  0  0  0  0  0  0  0  0  0  0  0
    5.7521   -9.3183    3.3935 H   0  0  0  0  0  0  0  0  0  0  0  0
    2.0401   -9.2365    3.7137 H   0  0  0  0  0  0  0  0  0  0  0  0
    3.5117   -9.9253    4.4286 H   0  0  0  0  0  0  0  0  0  0  0  0
    2.0217   -7.8785    5.5633 H   0  0  0  0  0  0  0  0  0  0  0  0
    3.2097   -6.8932    4.6649 H   0  0  0  0  0  0  0  0  0  0  0  0
    3.7662   -8.0855    5.8679 H   0  0  0  0  0  0  0  0  0  0  0  0
    2.1531   -7.4254    2.1091 H   0  0  0  0  0  0  0  0  0  0  0  0
    3.4451    6.4670   -5.4585 H   0  0  0  0  0  0  0  0  0  0  0  0
    3.6576    6.3977   -7.9302 H   0  0  0  0  0  0  0  0  0  0  0  0
    5.6600    5.4054   -8.9588 H   0  0  0  0  0  0  0  0  0  0  0  0
    8.7374    4.4438   -7.0056 H   0  0  0  0  0  0  0  0  0  0  0  0
    8.0539    4.5477   -8.6709 H   0  0  0  0  0  0  0  0  0  0  0  0
    8.0812    2.1688   -7.7946 H   0  0  0  0  0  0  0  0  0  0  0  0
    7.0398    2.6579   -6.4176 H   0  0  0  0  0  0  0  0  0  0  0  0
    6.4028    2.7366   -8.0843 H   0  0  0  0  0  0  0  0  0  0  0  0
    7.6028    5.2882   -5.1365 H   0  0  0  0  0  0  0  0  0  0  0  0
    2.2105   -1.0747    0.7133 H   0  0  0  0  0  0  0  0  0  0  0  0
    2.8359    0.4655    0.8172 H   0  0  0  0  0  0  0  0  0  0  0  0
    1.1407    0.3783   -0.9305 H   0  0  0  0  0  0  0  0  0  0  0  0
    2.7672    0.6299   -1.7796 H   0  0  0  0  0  0  0  0  0  0  0  0
    1.9314   -1.0252   -1.7319 H   0  0  0  0  0  0  0  0  0  0  0  0
    4.4118    1.2318    1.3652 H   0  0  0  0  0  0  0  0  0  0  0  0
    3.4785    2.5258    0.3943 H   0  0  0  0  0  0  0  0  0  0  0  0
    5.1725    4.2872    1.0554 H   0  0  0  0  0  0  0  0  0  0  0  0
    4.8309    3.2788    2.5027 H   0  0  0  0  0  0  0  0  0  0  0  0
    6.2393    2.9466    1.5561 H   0  0  0  0  0  0  0  0  0  0  0  0
    0.7332    5.0999    1.3604 H   0  0  0  0  0  0  0  0  0  0  0  0
    2.4188    4.5343    1.1900 H   0  0  0  0  0  0  0  0  0  0  0  0
    1.0695    2.7167    0.4839 H   0  0  0  0  0  0  0  0  0  0  0  0
    1.5902    3.4141   -1.0539 H   0  0  0  0  0  0  0  0  0  0  0  0
   -0.0949    3.6788   -0.4613 H   0  0  0  0  0  0  0  0  0  0  0  0
    2.9922   12.5935   -5.8850 H   0  0  0  0  0  0  0  0  0  0  0  0
    4.3736   11.6987   -6.5725 H   0  0  0  0  0  0  0  0  0  0  0  0
    1.8689   11.9650   -7.7599 H   0  0  0  0  0  0  0  0  0  0  0  0
    1.6886   10.3699   -7.0580 H   0  0  0  0  0  0  0  0  0  0  0  0
    3.0204   10.7245   -8.2248 H   0  0  0  0  0  0  0  0  0  0  0  0
   -0.3678   10.9478   -2.5406 H   0  0  0  0  0  0  0  0  0  0  0  0
   -2.9830   11.6183    2.3789 H   0  0  0  0  0  0  0  0  0  0  0  0
    1.1432    8.8818    3.1821 H   0  0  0  0  0  0  0  0  0  0  0  0
   -1.1828    8.3381    5.5986 H   0  0  0  0  0  0  0  0  0  0  0  0
    0.9869    9.9054    6.4005 H   0  0  0  0  0  0  0  0  0  0  0  0
   -0.4908    9.6087    8.5882 H   0  0  0  0  0  0  0  0  0  0  0  0
   -2.6770   11.0032    8.3303 H   0  0  0  0  0  0  0  0  0  0  0  0
   -2.5229   12.3274    6.0188 H   0  0  0  0  0  0  0  0  0  0  0  0
    0.0087   12.3571    6.8098 H   0  0  0  0  0  0  0  0  0  0  0  0
   -0.0457   11.9590    5.0178 H   0  0  0  0  0  0  0  0  0  0  0  0
   -3.1275    9.7055    5.3161 H   0  0  0  0  0  0  0  0  0  0  0  0
  1  2  2  3
  2  3  1  0
  3  4  2  0
  3  5  1  0
  5  6  2  0
  6  7  1  0
  7  8  2  0
  8  9  1  0
  9 10  2  0
 10 11  1  0
 11 12  2  3
 12 13  1  0
 13 14  3  0
 12 15  1  0
 15 16  3  0
  8 17  1  0
 17 18  1  0
 18 19  1  0
 19 20  2  0
 20 21  1  0
 21 22  1  0
 21 23  1  0
  1 24  1  0
 24 25  2  0
 25 26  1  0
 26 27  1  0
 27 28  2  0
 28 29  1  0
 29 30  2  0
 30 31  1  0
 30 32  1  0
 32 33  2  0
 26 34  1  0
 34 35  2  0
 35 36  1  0
 36 37  2  0
 37 38  1  0
 37 39  1  0
 39 40  2  0
 25 41  1  0
 41 42  1  0
 42 43  1  0
 43 44  2  0
 44 45  1  0
 45 46  1  0
 46 47  2  0
 47 48  1  0
 48 49  2  0
 49 50  1  0
 49 51  1  0
 51 52  2  0
 45 53  1  0
 53 54  2  0
 54 55  1  0
 55 56  2  0
 56 57  1  0
 56 58  1  0
 58 59  2  0
 44 60  1  0
 60 61  1  0
 43 62  1  0
 62 63  2  0
 63 64  1  0
 64 65  2  0
 65 66  1  0
 66 67  2  0
 67 68  1  0
 68 69  1  0
 69 70  1  0
 68 71  2  0
 63 72  1  0
 72 73  1  0
 73 74  1  0
 74 75  1  0
 75 76  1  0
 76 77  1  0
 77 78  2  0
 78 79  1  0
 79 80  1  0
 77 81  1  0
 81 82  1  0
 82 83  1  0
 83 84  1  0
 84 85  1  0
 85 86  1  0
 86 87  2  0
 87 88  1  0
 88 89  2  0
 89 90  1  0
 90 91  1  0
 91 92  1  0
 90 93  2  0
 85 94  2  0
 94 95  1  0
 95 96  1  0
 96 97  1  0
 97 98  1  0
 98 99  1  0
 99100  1  0
100101  1  0
101102  1  0
102103  1  0
103104  1  0
101105  1  0
105106  1  0
 98107  1  0
107108  1  0
 94109  1  0
109110  2  0
110111  1  0
111112  2  0
112113  1  0
113114  1  0
112115  1  0
115116  1  0
116117  2  0
117118  1  0
118119  2  0
119120  1  0
120121  1  0
121122  1  0
122123  1  0
121124  2  0
117125  1  0
125126  2  3
126127  1  0
127128  2  0
127129  1  0
129130  2  0
130131  1  0
131132  2  0
132133  1  0
133134  2  0
134135  1  0
135136  2  3
136137  1  0
137138  3  0
136139  1  0
139140  3  0
132141  1  0
141142  1  0
142143  1  0
143144  2  0
144145  1  0
145146  1  0
145147  1  0
 11  2  1  0
 23 17  1  0
 61 24  1  0
104 62  1  0
119109  1  0
135126  1  0
147141  1  0
 10  5  1  0
 22 18  1  0
 33 27  1  0
 40 34  1  0
 60 41  2  0
 71 64  1  0
103 72  2  0
116110  1  0
124118  1  0
134129  1  0
146142  1  0
 23  7  1  0
 52 46  1  0
 59 53  1  0
102 74  2  0
147131  1  0
100 75  2  0
 80 76  2  0
 99 81  2  0
 97 82  2  0
 96 84  2  0
 93 86  1  0
  1148  1  0
  6149  1  0
  9150  1  0
 17151  1  0
 18152  1  0
 19153  1  0
 20154  1  0
 21155  1  0
 22156  1  0
 22157  1  0
 23158  1  0
 28159  1  0
 29160  1  0
 31161  1  0
 31162  1  0
 31163  1  0
 32164  1  0
 33165  1  0
 35166  1  0
 36167  1  0
 38168  1  0
 38169  1  0
 38170  1  0
 39171  1  0
 40172  1  0
 47173  1  0
 48174  1  0
 50175  1  0
 50176  1  0
 50177  1  0
 51178  1  0
 52179  1  0
 54180  1  0
 55181  1  0
 57182  1  0
 57183  1  0
 57184  1  0
 58185  1  0
 59186  1  0
 65187  1  0
 66188  1  0
 67189  1  0
 69190  1  0
 69191  1  0
 70192  1  0
 70193  1  0
 70194  1  0
 71195  1  0
 87196  1  0
 88197  1  0
 89198  1  0
 91199  1  0
 91200  1  0
 92201  1  0
 92202  1  0
 92203  1  0
 93204  1  0
105205  1  0
105206  1  0
106207  1  0
106208  1  0
106209  1  0
107210  1  0
107211  1  0
108212  1  0
108213  1  0
108214  1  0
113215  1  0
113216  1  0
114217  1  0
114218  1  0
114219  1  0
122220  1  0
122221  1  0
123222  1  0
123223  1  0
123224  1  0
125225  1  0
130226  1  0
133227  1  0
141228  1  0
142229  1  0
143230  1  0
144231  1  0
145232  1  0
146233  1  0
146234  1  0
147235  1  0
M  END

