
     RDKit          3D

270300  0  0  0  0  0  0  0  0999 V2000
    6.1326   -8.3527    1.6894 C   0  0  0  0  0  0  0  0  0  0  0  0
    5.0820   -9.1728    1.5707 C   0  0  0  0  0  0  0  0  0  0  0  0
    3.7134   -8.7354    1.2622 C   0  0  0  0  0  0  0  0  0  0  0  0
    3.1631   -7.6765    1.6856 O   0  0  0  0  0  0  0  0  0  0  0  0
    3.1023   -9.6953    0.3721 C   0  0  0  0  0  0  0  0  0  0  0  0
    1.9974   -9.4585   -0.4666 C   0  0  0  0  0  0  0  0  0  0  0  0
    1.8904  -10.3524   -1.5120 C   0  0  0  0  0  0  0  0  0  0  0  0
    2.7924  -11.4462   -1.7090 C   0  0  0  0  0  0  0  0  0  0  0  0
    3.8547  -11.7116   -0.8622 C   0  0  0  0  0  0  0  0  0  0  0  0
    3.9941  -10.7867    0.2125 C   0  0  0  0  0  0  0  0  0  0  0  0
    5.1728  -10.5795    1.0981 C   0  0  0  0  0  0  0  0  0  0  0  0
    6.0627  -11.5145    1.4978 C   0  0  0  0  0  0  0  0  0  0  0  0
    7.0749  -11.2295    2.4745 C   0  0  0  0  0  0  0  0  0  0  0  0
    7.8885  -11.0059    3.2721 N   0  0  0  0  0  0  0  0  0  0  0  0
    5.9598  -12.9011    1.0991 C   0  0  0  0  0  0  0  0  0  0  0  0
    5.8918  -14.0196    0.8214 N   0  0  0  0  0  0  0  0  0  0  0  0
    2.1152  -11.7950   -3.0034 C   0  0  0  0  0  0  0  0  0  0  0  0
    2.8422  -11.4339   -4.3394 C   0  0  0  0  0  0  0  0  0  0  0  0
    3.7227  -10.2214   -4.1234 C   0  0  0  0  0  0  0  0  0  0  0  0
    2.8995   -9.1949   -3.9180 C   0  0  0  0  0  0  0  0  0  0  0  0
    1.4884   -9.7342   -4.0124 C   0  0  0  0  0  0  0  0  0  0  0  0
    1.6967  -10.7776   -5.0930 C   0  0  0  0  0  0  0  0  0  0  0  0
    1.1986  -10.6677   -2.8017 C   0  0  0  0  0  0  0  0  0  0  0  0
    6.0519   -6.9306    1.3355 C   0  0  0  0  0  0  0  0  0  0  0  0
    6.6874   -5.8696    2.0076 C   0  0  0  0  0  0  0  0  0  0  0  0
    7.2559   -5.9655    3.3394 N   0  0  0  0  0  0  0  0  0  0  0  0
    8.3643   -5.1305    3.7483 C   0  0  0  0  0  0  0  0  0  0  0  0
    8.3858   -4.5669    5.0400 C   0  0  0  0  0  0  0  0  0  0  0  0
    9.4604   -3.7770    5.4450 C   0  0  0  0  0  0  0  0  0  0  0  0
   10.5235   -3.5154    4.5636 C   0  0  0  0  0  0  0  0  0  0  0  0
   11.7098   -2.7205    5.0223 C   0  0  0  0  0  0  0  0  0  0  0  0
   10.4979   -4.0635    3.2780 C   0  0  0  0  0  0  0  0  0  0  0  0
    9.4300   -4.8682    2.8724 C   0  0  0  0  0  0  0  0  0  0  0  0
    6.6813   -6.8924    4.2664 C   0  0  0  0  0  0  0  0  0  0  0  0
    5.2893   -6.9132    4.4860 C   0  0  0  0  0  0  0  0  0  0  0  0
    4.7055   -7.9331    5.2414 C   0  0  0  0  0  0  0  0  0  0  0  0
    5.5085   -8.9441    5.8016 C   0  0  0  0  0  0  0  0  0  0  0  0
    4.8758  -10.0849    6.5400 C   0  0  0  0  0  0  0  0  0  0  0  0
    6.9001   -8.8973    5.6169 C   0  0  0  0  0  0  0  0  0  0  0  0
    7.4811   -7.8804    4.8608 C   0  0  0  0  0  0  0  0  0  0  0  0
    6.5612   -4.6816    1.2691 C   0  0  0  0  0  0  0  0  0  0  0  0
    6.9600   -3.0658    1.5031 S   0  0  0  0  0  0  0  0  0  0  0  0
    6.1965   -2.5215    0.0771 C   0  0  0  0  0  0  0  0  0  0  0  0
    5.5947   -3.6239   -0.5619 C   0  0  0  0  0  0  0  0  0  0  0  0
    4.6395   -3.5532   -1.6346 N   0  0  0  0  0  0  0  0  0  0  0  0
    3.2594   -3.8238   -1.3065 C   0  0  0  0  0  0  0  0  0  0  0  0
    2.6248   -3.0985   -0.2832 C   0  0  0  0  0  0  0  0  0  0  0  0
    1.3333   -3.4410    0.1343 C   0  0  0  0  0  0  0  0  0  0  0  0
    0.6583   -4.5232   -0.4589 C   0  0  0  0  0  0  0  0  0  0  0  0
   -0.7263   -4.8976   -0.0107 C   0  0  0  0  0  0  0  0  0  0  0  0
    1.2803   -5.2241   -1.5115 C   0  0  0  0  0  0  0  0  0  0  0  0
    2.5716   -4.8806   -1.9246 C   0  0  0  0  0  0  0  0  0  0  0  0
    5.0777   -3.4972   -3.0149 C   0  0  0  0  0  0  0  0  0  0  0  0
    4.2280   -2.9491   -3.9929 C   0  0  0  0  0  0  0  0  0  0  0  0
    4.6203   -2.9062   -5.3333 C   0  0  0  0  0  0  0  0  0  0  0  0
    5.8728   -3.3944   -5.7191 C   0  0  0  0  0  0  0  0  0  0  0  0
    6.2983   -3.3059   -7.1501 C   0  0  0  0  0  0  0  0  0  0  0  0
    6.7423   -3.9068   -4.7449 C   0  0  0  0  0  0  0  0  0  0  0  0
    6.3443   -3.9673   -3.4006 C   0  0  0  0  0  0  0  0  0  0  0  0
    5.8466   -4.7959    0.1254 C   0  0  0  0  0  0  0  0  0  0  0  0
    5.3485   -6.3686   -0.1101 S   0  0  0  0  0  0  0  0  0  0  0  0
    6.0899   -1.1041   -0.3073 C   0  0  0  0  0  0  0  0  0  0  0  0
    6.6062   -0.0246    0.4269 C   0  0  0  0  0  0  0  0  0  0  0  0
    6.0970    1.2053   -0.0314 C   0  0  0  0  0  0  0  0  0  0  0  0
    5.9020    2.5485    0.6580 C   0  0  0  0  0  0  0  0  0  0  0  0
    6.9735    3.4425   -0.0130 C   0  0  0  0  0  0  0  0  0  0  0  0
    6.6589    4.5288   -0.8524 C   0  0  0  0  0  0  0  0  0  0  0  0
    7.6801    5.2647   -1.4774 C   0  0  0  0  0  0  0  0  0  0  0  0
    9.0291    4.9682   -1.2351 C   0  0  0  0  0  0  0  0  0  0  0  0
   10.1297    5.7686   -1.8847 C   0  0  0  0  0  0  0  0  0  0  0  0
   10.5792    5.1333   -3.2041 C   0  0  0  0  0  0  0  0  0  0  0  0
    9.3496    3.8908   -0.4000 C   0  0  0  0  0  0  0  0  0  0  0  0
    8.3336    3.1351    0.1994 C   0  0  0  0  0  0  0  0  0  0  0  0
    6.0864    2.5396    2.1909 C   0  0  0  0  0  0  0  0  0  0  0  0
    5.6767    1.4527    2.9876 C   0  0  0  0  0  0  0  0  0  0  0  0
    6.0391    1.3915    4.3448 C   0  0  0  0  0  0  0  0  0  0  0  0
    6.7370    2.4485    4.9509 C   0  0  0  0  0  0  0  0  0  0  0  0
    7.0931    2.4030    6.4210 C   0  0  0  0  0  0  0  0  0  0  0  0
    8.6032    2.4995    6.6618 C   0  0  0  0  0  0  0  0  0  0  0  0
    7.0555    3.5793    4.1883 C   0  0  0  0  0  0  0  0  0  0  0  0
    6.7200    3.6300    2.8357 C   0  0  0  0  0  0  0  0  0  0  0  0
    4.4738    2.8342    0.1279 C   0  0  0  0  0  0  0  0  0  0  0  0
    4.3131    2.1408   -1.0618 C   0  0  0  0  0  0  0  0  0  0  0  0
    5.3000    1.1025   -1.1372 C   0  0  0  0  0  0  0  0  0  0  0  0
    5.0599   -0.5109   -1.5098 S   0  0  0  0  0  0  0  0  0  0  0  0
    2.7212    2.0356   -1.5315 S   0  0  0  0  0  0  0  0  0  0  0  0
    2.1482    2.8889   -0.1970 C   0  0  0  0  0  0  0  0  0  0  0  0
    0.7951    2.9968    0.1621 C   0  0  0  0  0  0  0  0  0  0  0  0
    0.4909    3.4546    1.4572 C   0  0  0  0  0  0  0  0  0  0  0  0
    1.5151    3.9269    2.2882 C   0  0  0  0  0  0  0  0  0  0  0  0
    2.8851    3.7780    1.9402 C   0  0  0  0  0  0  0  0  0  0  0  0
    3.8916    4.1480    2.8393 O   0  0  0  0  0  0  0  0  0  0  0  0
    3.6791    4.5504    4.2038 C   0  0  0  0  0  0  0  0  0  0  0  0
    3.1592    3.3976    5.0777 C   0  0  0  0  0  0  0  0  0  0  0  0
    3.2059    3.2318    0.6706 C   0  0  0  0  0  0  0  0  0  0  0  0
   -0.8286    3.3208    1.9136 C   0  0  0  0  0  0  0  0  0  0  0  0
   -1.8317    2.7772    1.0958 C   0  0  0  0  0  0  0  0  0  0  0  0
   -1.5705    2.4541   -0.2392 C   0  0  0  0  0  0  0  0  0  0  0  0
   -0.2411    2.5616   -0.6987 C   0  0  0  0  0  0  0  0  0  0  0  0
   -2.6132    1.9996   -1.0597 O   0  0  0  0  0  0  0  0  0  0  0  0
   -2.5902    1.9373   -2.4799 C   0  0  0  0  0  0  0  0  0  0  0  0
   -2.6519    3.3395   -3.0678 C   0  0  0  0  0  0  0  0  0  0  0  0
   -3.0278    2.5898    1.7968 C   0  0  0  0  0  0  0  0  0  0  0  0
   -2.9386    2.9913    3.0951 C   0  0  0  0  0  0  0  0  0  0  0  0
   -1.4350    3.6299    3.4769 S   0  0  0  0  0  0  0  0  0  0  0  0
   -4.2154    2.8814    3.7376 C   0  0  0  0  0  0  0  0  0  0  0  0
   -4.9926    3.9009    4.8217 S   0  0  0  0  0  0  0  0  0  0  0  0
   -6.5442    3.6412    4.1760 C   0  0  0  0  0  0  0  0  0  0  0  0
   -6.4286    2.8081    3.0532 C   0  0  0  0  0  0  0  0  0  0  0  0
   -5.1045    2.4274    2.7995 C   0  0  0  0  0  0  0  0  0  0  0  0
   -4.4518    2.1709    1.4425 C   0  0  0  0  0  0  0  0  0  0  0  0
   -5.0391    3.1431    0.3983 C   0  0  0  0  0  0  0  0  0  0  0  0
   -5.5988    2.7189   -0.8221 C   0  0  0  0  0  0  0  0  0  0  0  0
   -6.2128    3.6303   -1.6837 C   0  0  0  0  0  0  0  0  0  0  0  0
   -6.2817    4.9882   -1.3580 C   0  0  0  0  0  0  0  0  0  0  0  0
   -6.9120    5.9726   -2.3024 C   0  0  0  0  0  0  0  0  0  0  0  0
   -5.8432    6.6224   -3.1714 C   0  0  0  0  0  0  0  0  0  0  0  0
   -5.6863    5.4335   -0.1648 C   0  0  0  0  0  0  0  0  0  0  0  0
   -5.0663    4.5282    0.6919 C   0  0  0  0  0  0  0  0  0  0  0  0
   -4.6019    0.6768    1.1014 C   0  0  0  0  0  0  0  0  0  0  0  0
   -3.4935   -0.1853    0.9559 C   0  0  0  0  0  0  0  0  0  0  0  0
   -3.6731   -1.5382    0.6328 C   0  0  0  0  0  0  0  0  0  0  0  0
   -4.9611   -2.0596    0.4527 C   0  0  0  0  0  0  0  0  0  0  0  0
   -5.1641   -3.5105    0.0949 C   0  0  0  0  0  0  0  0  0  0  0  0
   -5.6825   -4.3039    1.2935 C   0  0  0  0  0  0  0  0  0  0  0  0
   -6.0699   -1.2159    0.6189 C   0  0  0  0  0  0  0  0  0  0  0  0
   -5.8928    0.1237    0.9559 C   0  0  0  0  0  0  0  0  0  0  0  0
   -7.7475    4.4521    4.4628 C   0  0  0  0  0  0  0  0  0  0  0  0
   -9.0088    3.9985    4.0308 C   0  0  0  0  0  0  0  0  0  0  0  0
  -10.0717    4.8964    3.9949 C   0  0  0  0  0  0  0  0  0  0  0  0
  -11.3227    4.7697    3.2629 C   0  0  0  0  0  0  0  0  0  0  0  0
  -11.7513    3.7400    2.6800 O   0  0  0  0  0  0  0  0  0  0  0  0
  -11.8951    6.1055    3.1908 C   0  0  0  0  0  0  0  0  0  0  0  0
  -11.0720    6.9721    3.8967 C   0  0  0  0  0  0  0  0  0  0  0  0
   -9.9244    6.2074    4.4015 C   0  0  0  0  0  0  0  0  0  0  0  0
   -8.7043    6.6727    4.8956 C   0  0  0  0  0  0  0  0  0  0  0  0
   -7.6160    5.7828    4.9362 C   0  0  0  0  0  0  0  0  0  0  0  0
  -11.2505    8.3568    3.8126 C   0  0  0  0  0  0  0  0  0  0  0  0
  -12.2341    8.8528    2.9406 C   0  0  0  0  0  0  0  0  0  0  0  0
  -12.9830    7.9708    2.1357 C   0  0  0  0  0  0  0  0  0  0  0  0
  -12.8607    6.5762    2.3063 C   0  0  0  0  0  0  0  0  0  0  0  0
  -13.6956    8.4950    0.9601 C   0  0  0  0  0  0  0  0  0  0  0  0
  -13.2334    8.3116   -0.3012 C   0  0  0  0  0  0  0  0  0  0  0  0
  -11.9451    7.6750   -0.6251 C   0  0  0  0  0  0  0  0  0  0  0  0
  -11.0477    7.3266    0.1910 O   0  0  0  0  0  0  0  0  0  0  0  0
  -11.8135    7.5733   -2.0499 C   0  0  0  0  0  0  0  0  0  0  0  0
  -10.7662    6.9350   -2.7445 C   0  0  0  0  0  0  0  0  0  0  0  0
  -10.9327    6.9258   -4.1168 C   0  0  0  0  0  0  0  0  0  0  0  0
  -12.0678    7.4947   -4.7694 C   0  0  0  0  0  0  0  0  0  0  0  0
  -13.1094    8.1152   -4.0878 C   0  0  0  0  0  0  0  0  0  0  0  0
  -12.9423    8.1667   -2.6720 C   0  0  0  0  0  0  0  0  0  0  0  0
  -13.8554    8.7043   -1.6131 C   0  0  0  0  0  0  0  0  0  0  0  0
  -14.9811    9.4550   -1.8177 C   0  0  0  0  0  0  0  0  0  0  0  0
  -15.3712    9.9350   -3.1154 C   0  0  0  0  0  0  0  0  0  0  0  0
  -15.6969   10.3308   -4.1493 N   0  0  0  0  0  0  0  0  0  0  0  0
  -15.8658    9.8586   -0.7615 C   0  0  0  0  0  0  0  0  0  0  0  0
  -16.5978   10.1900    0.0723 N   0  0  0  0  0  0  0  0  0  0  0  0
  -11.5241    7.0907   -6.1046 C   0  0  0  0  0  0  0  0  0  0  0  0
  -10.8998    8.1967   -7.0070 C   0  0  0  0  0  0  0  0  0  0  0  0
  -10.3082    9.2926   -6.1460 C   0  0  0  0  0  0  0  0  0  0  0  0
   -9.2509    8.7594   -5.5321 C   0  0  0  0  0  0  0  0  0  0  0  0
   -9.1554    7.3257   -5.9942 C   0  0  0  0  0  0  0  0  0  0  0  0
   -9.6151    7.5048   -7.4308 C   0  0  0  0  0  0  0  0  0  0  0  0
  -10.3605    6.5050   -5.4334 C   0  0  0  0  0  0  0  0  0  0  0  0
    7.1311   -8.7402    1.8066 H   0  0  0  0  0  0  0  0  0  0  0  0
    1.3713   -8.5770   -0.3892 H   0  0  0  0  0  0  0  0  0  0  0  0
    4.5751  -12.4776   -1.0941 H   0  0  0  0  0  0  0  0  0  0  0  0
    1.6132  -12.7855   -2.9994 H   0  0  0  0  0  0  0  0  0  0  0  0
    3.3240  -12.2811   -4.8633 H   0  0  0  0  0  0  0  0  0  0  0  0
    4.7981  -10.1495   -4.2482 H   0  0  0  0  0  0  0  0  0  0  0  0
    3.1939   -8.1551   -3.8275 H   0  0  0  0  0  0  0  0  0  0  0  0
    0.7116   -8.9694   -4.2210 H   0  0  0  0  0  0  0  0  0  0  0  0
    2.0049  -10.3346   -6.0696 H   0  0  0  0  0  0  0  0  0  0  0  0
    0.8147  -11.4493   -5.2462 H   0  0  0  0  0  0  0  0  0  0  0  0
    0.1396  -10.9685   -2.6913 H   0  0  0  0  0  0  0  0  0  0  0  0
    7.5727   -4.7492    5.7351 H   0  0  0  0  0  0  0  0  0  0  0  0
    9.4746   -3.3696    6.4500 H   0  0  0  0  0  0  0  0  0  0  0  0
   11.3867   -1.8827    5.6807 H   0  0  0  0  0  0  0  0  0  0  0  0
   12.4067   -3.3799    5.5835 H   0  0  0  0  0  0  0  0  0  0  0  0
   12.2549   -2.2882    4.1610 H   0  0  0  0  0  0  0  0  0  0  0  0
   11.3198   -3.8993    2.5930 H   0  0  0  0  0  0  0  0  0  0  0  0
    9.4479   -5.2997    1.8774 H   0  0  0  0  0  0  0  0  0  0  0  0
    4.6505   -6.1611    4.0334 H   0  0  0  0  0  0  0  0  0  0  0  0
    3.6358   -7.9564    5.3809 H   0  0  0  0  0  0  0  0  0  0  0  0
    4.2166   -9.6901    7.3441 H   0  0  0  0  0  0  0  0  0  0  0  0
    4.2629  -10.6865    5.8316 H   0  0  0  0  0  0  0  0  0  0  0  0
    5.6436  -10.7418    6.9942 H   0  0  0  0  0  0  0  0  0  0  0  0
    7.5344   -9.6690    6.0406 H   0  0  0  0  0  0  0  0  0  0  0  0
    8.5477   -7.8949    4.6859 H   0  0  0  0  0  0  0  0  0  0  0  0
    3.1321   -2.2737    0.1941 H   0  0  0  0  0  0  0  0  0  0  0  0
    0.8491   -2.8688    0.9133 H   0  0  0  0  0  0  0  0  0  0  0  0
   -1.4700   -4.2814   -0.5586 H   0  0  0  0  0  0  0  0  0  0  0  0
   -0.9257   -5.9746   -0.2103 H   0  0  0  0  0  0  0  0  0  0  0  0
   -0.8578   -4.7314    1.0813 H   0  0  0  0  0  0  0  0  0  0  0  0
    0.7597   -6.0480   -1.9868 H   0  0  0  0  0  0  0  0  0  0  0  0
    3.0471   -5.4667   -2.6992 H   0  0  0  0  0  0  0  0  0  0  0  0
    3.2573   -2.5474   -3.7203 H   0  0  0  0  0  0  0  0  0  0  0  0
    3.9495   -2.4731   -6.0686 H   0  0  0  0  0  0  0  0  0  0  0  0
    6.5593   -2.2469   -7.3803 H   0  0  0  0  0  0  0  0  0  0  0  0
    5.4719   -3.6312   -7.8140 H   0  0  0  0  0  0  0  0  0  0  0  0
    7.1753   -3.9555   -7.3477 H   0  0  0  0  0  0  0  0  0  0  0  0
    7.7286   -4.2607   -5.0235 H   0  0  0  0  0  0  0  0  0  0  0  0
    7.0186   -4.4094   -2.6784 H   0  0  0  0  0  0  0  0  0  0  0  0
    7.1821   -0.1431    1.3357 H   0  0  0  0  0  0  0  0  0  0  0  0
    5.6340    4.8040   -1.0626 H   0  0  0  0  0  0  0  0  0  0  0  0
    7.4207    6.0715   -2.1520 H   0  0  0  0  0  0  0  0  0  0  0  0
    9.7852    6.8083   -2.0819 H   0  0  0  0  0  0  0  0  0  0  0  0
   11.0063    5.8299   -1.1972 H   0  0  0  0  0  0  0  0  0  0  0  0
   11.4192    5.7253   -3.6132 H   0  0  0  0  0  0  0  0  0  0  0  0
   10.9263    4.0894   -3.0418 H   0  0  0  0  0  0  0  0  0  0  0  0
    9.7458    5.1425   -3.9421 H   0  0  0  0  0  0  0  0  0  0  0  0
   10.3853    3.6390   -0.2051 H   0  0  0  0  0  0  0  0  0  0  0  0
    8.6165    2.3043    0.8328 H   0  0  0  0  0  0  0  0  0  0  0  0
    5.0995    0.6429    2.5619 H   0  0  0  0  0  0  0  0  0  0  0  0
    5.7595    0.5181    4.9143 H   0  0  0  0  0  0  0  0  0  0  0  0
    6.5787    3.2419    6.9345 H   0  0  0  0  0  0  0  0  0  0  0  0
    6.7305    1.4575    6.8750 H   0  0  0  0  0  0  0  0  0  0  0  0
    9.1433    1.7499    6.0385 H   0  0  0  0  0  0  0  0  0  0  0  0
    8.9834    3.5154    6.4111 H   0  0  0  0  0  0  0  0  0  0  0  0
    8.8273    2.2954    7.7329 H   0  0  0  0  0  0  0  0  0  0  0  0
    7.5540    4.4286    4.6419 H   0  0  0  0  0  0  0  0  0  0  0  0
    6.9832    4.5335    2.2978 H   0  0  0  0  0  0  0  0  0  0  0  0
    1.2512    4.3791    3.2297 H   0  0  0  0  0  0  0  0  0  0  0  0
    4.6478    4.8867    4.6185 H   0  0  0  0  0  0  0  0  0  0  0  0
    3.0038    5.4253    4.2647 H   0  0  0  0  0  0  0  0  0  0  0  0
    2.0969    3.1678    4.8693 H   0  0  0  0  0  0  0  0  0  0  0  0
    3.7303    2.4756    4.8907 H   0  0  0  0  0  0  0  0  0  0  0  0
    3.2549    3.6636    6.1530 H   0  0  0  0  0  0  0  0  0  0  0  0
   -0.0018    2.2639   -1.7131 H   0  0  0  0  0  0  0  0  0  0  0  0
   -3.4674    1.3595   -2.8176 H   0  0  0  0  0  0  0  0  0  0  0  0
   -1.6985    1.3943   -2.8417 H   0  0  0  0  0  0  0  0  0  0  0  0
   -2.6186    3.2917   -4.1728 H   0  0  0  0  0  0  0  0  0  0  0  0
   -1.7978    3.9516   -2.7071 H   0  0  0  0  0  0  0  0  0  0  0  0
   -3.5999    3.8362   -2.7672 H   0  0  0  0  0  0  0  0  0  0  0  0
   -7.2186    2.6691    2.3371 H   0  0  0  0  0  0  0  0  0  0  0  0
   -5.5700    1.6818   -1.1270 H   0  0  0  0  0  0  0  0  0  0  0  0
   -6.6270    3.2764   -2.6195 H   0  0  0  0  0  0  0  0  0  0  0  0
   -7.6507    5.4614   -2.9575 H   0  0  0  0  0  0  0  0  0  0  0  0
   -7.4568    6.7530   -1.7326 H   0  0  0  0  0  0  0  0  0  0  0  0
   -6.3083    7.3743   -3.8413 H   0  0  0  0  0  0  0  0  0  0  0  0
   -5.0813    7.1259   -2.5382 H   0  0  0  0  0  0  0  0  0  0  0  0
   -5.3422    5.8507   -3.7961 H   0  0  0  0  0  0  0  0  0  0  0  0
   -5.6997    6.4876    0.0935 H   0  0  0  0  0  0  0  0  0  0  0  0
   -4.6249    4.9059    1.6092 H   0  0  0  0  0  0  0  0  0  0  0  0
   -2.4815    0.1626    1.0925 H   0  0  0  0  0  0  0  0  0  0  0  0
   -2.8053   -2.1745    0.5137 H   0  0  0  0  0  0  0  0  0  0  0  0
   -4.2155   -3.9581   -0.2619 H   0  0  0  0  0  0  0  0  0  0  0  0
   -5.9014   -3.5859   -0.7365 H   0  0  0  0  0  0  0  0  0  0  0  0
   -6.7012   -3.9578    1.5753 H   0  0  0  0  0  0  0  0  0  0  0  0
   -5.7346   -5.3816    1.0310 H   0  0  0  0  0  0  0  0  0  0  0  0
   -5.0022   -4.1841    2.1652 H   0  0  0  0  0  0  0  0  0  0  0  0
   -7.0756   -1.5995    0.4972 H   0  0  0  0  0  0  0  0  0  0  0  0
   -6.7674    0.7484    1.0738 H   0  0  0  0  0  0  0  0  0  0  0  0
   -9.1378    3.0035    3.6222 H   0  0  0  0  0  0  0  0  0  0  0  0
   -8.5714    7.7166    5.1532 H   0  0  0  0  0  0  0  0  0  0  0  0
   -6.6519    6.1679    5.2471 H   0  0  0  0  0  0  0  0  0  0  0  0
  -10.5977    9.0325    4.3457 H   0  0  0  0  0  0  0  0  0  0  0  0
  -12.3307    9.9269    2.8102 H   0  0  0  0  0  0  0  0  0  0  0  0
  -13.3942    5.8838    1.6669 H   0  0  0  0  0  0  0  0  0  0  0  0
  -14.5839    9.0689    1.1669 H   0  0  0  0  0  0  0  0  0  0  0  0
   -9.9245    6.4665   -2.2601 H   0  0  0  0  0  0  0  0  0  0  0  0
  -13.9629    8.4774   -4.6220 H   0  0  0  0  0  0  0  0  0  0  0  0
  -12.1538    6.3450   -6.6409 H   0  0  0  0  0  0  0  0  0  0  0  0
  -11.5461    8.5552   -7.8386 H   0  0  0  0  0  0  0  0  0  0  0  0
  -10.6210   10.3286   -6.0871 H   0  0  0  0  0  0  0  0  0  0  0  0
   -8.5509    9.2987   -4.8978 H   0  0  0  0  0  0  0  0  0  0  0  0
   -8.1593    6.8485   -5.8647 H   0  0  0  0  0  0  0  0  0  0  0  0
   -9.7842    6.5402   -7.9694 H   0  0  0  0  0  0  0  0  0  0  0  0
   -8.9367    8.1588   -8.0310 H   0  0  0  0  0  0  0  0  0  0  0  0
  -10.2780    5.4005   -5.5576 H   0  0  0  0  0  0  0  0  0  0  0  0
  1  2  2  3
  2  3  1  0
  3  4  2  0
  3  5  1  0
  5  6  2  0
  6  7  1  0
  7  8  2  0
  8  9  1  0
  9 10  2  0
 10 11  1  0
 11 12  2  3
 12 13  1  0
 13 14  3  0
 12 15  1  0
 15 16  3  0
  8 17  1  0
 17 18  1  0
 18 19  1  0
 19 20  2  0
 20 21  1  0
 21 22  1  0
 21 23  1  0
  1 24  1  0
 24 25  2  0
 25 26  1  0
 26 27  1  0
 27 28  2  0
 28 29  1  0
 29 30  2  0
 30 31  1  0
 30 32  1  0
 32 33  2  0
 26 34  1  0
 34 35  2  0
 35 36  1  0
 36 37  2  0
 37 38  1  0
 37 39  1  0
 39 40  2  0
 25 41  1  0
 41 42  1  0
 42 43  1  0
 43 44  2  0
 44 45  1  0
 45 46  1  0
 46 47  2  0
 47 48  1  0
 48 49  2  0
 49 50  1  0
 49 51  1  0
 51 52  2  0
 45 53  1  0
 53 54  2  0
 54 55  1  0
 55 56  2  0
 56 57  1  0
 56 58  1  0
 58 59  2  0
 44 60  1  0
 60 61  1  0
 43 62  1  0
 62 63  2  0
 63 64  1  0
 64 65  1  0
 65 66  1  0
 66 67  2  0
 67 68  1  0
 68 69  2  0
 69 70  1  0
 70 71  1  0
 69 72  1  0
 72 73  2  0
 65 74  1  0
 74 75  2  0
 75 76  1  0
 76 77  2  0
 77 78  1  0
 78 79  1  0
 77 80  1  0
 80 81  2  0
 65 82  1  0
 82 83  2  0
 83 84  1  0
 84 85  1  0
 83 86  1  0
 86 87  1  0
 87 88  2  0
 88 89  1  0
 89 90  2  0
 90 91  1  0
 91 92  1  0
 92 93  1  0
 93 94  1  0
 91 95  2  0
 89 96  1  0
 96 97  2  0
 97 98  1  0
 98 99  2  0
 98100  1  0
100101  1  0
101102  1  0
 97103  1  0
103104  2  0
104105  1  0
104106  1  0
106107  1  0
107108  1  0
108109  2  0
109110  1  0
110111  1  0
111112  1  0
112113  2  0
113114  1  0
114115  2  0
115116  1  0
116117  1  0
115118  1  0
118119  2  0
111120  1  0
120121  2  0
121122  1  0
122123  2  0
123124  1  0
124125  1  0
123126  1  0
126127  2  0
108128  1  0
128129  2  0
129130  1  0
130131  1  0
131132  2  0
131133  1  0
133134  2  0
134135  1  0
135136  1  0
136137  2  0
134138  1  0
138139  2  0
139140  1  0
140141  2  0
140142  1  0
142143  2  3
143144  1  0
144145  2  0
144146  1  0
146147  2  0
147148  1  0
148149  2  0
149150  1  0
150151  2  0
151152  1  0
152153  2  3
153154  1  0
154155  3  0
153156  1  0
156157  3  0
149158  1  0
158159  1  0
159160  1  0
160161  2  0
161162  1  0
162163  1  0
162164  1  0
 11  2  1  0
 23 17  1  0
 61 24  1  0
 85 62  1  0
 95 87  1  0
105 96  1  0
110106  2  0
119112  1  0
127120  1  0
137128  1  0
152143  1  0
164158  1  0
 10  5  1  0
 22 18  1  0
 33 27  1  0
 40 34  1  0
 60 41  2  0
 84 64  2  0
 99 88  1  0
111103  1  0
135130  2  0
151146  1  0
163159  1  0
 23  7  1  0
 52 46  1  0
 59 53  1  0
 73 66  1  0
 81 74  1  0
 95 82  1  0
141133  1  0
164148  1  0
  1165  1  0
  6166  1  0
  9167  1  0
 17168  1  0
 18169  1  0
 19170  1  0
 20171  1  0
 21172  1  0
 22173  1  0
 22174  1  0
 23175  1  0
 28176  1  0
 29177  1  0
 31178  1  0
 31179  1  0
 31180  1  0
 32181  1  0
 33182  1  0
 35183  1  0
 36184  1  0
 38185  1  0
 38186  1  0
 38187  1  0
 39188  1  0
 40189  1  0
 47190  1  0
 48191  1  0
 50192  1  0
 50193  1  0
 50194  1  0
 51195  1  0
 52196  1  0
 54197  1  0
 55198  1  0
 57199  1  0
 57200  1  0
 57201  1  0
 58202  1  0
 59203  1  0
 63204  1  0
 67205  1  0
 68206  1  0
 70207  1  0
 70208  1  0
 71209  1  0
 71210  1  0
 71211  1  0
 72212  1  0
 73213  1  0
 75214  1  0
 76215  1  0
 78216  1  0
 78217  1  0
 79218  1  0
 79219  1  0
 79220  1  0
 80221  1  0
 81222  1  0
 90223  1  0
 93224  1  0
 93225  1  0
 94226  1  0
 94227  1  0
 94228  1  0
 99229  1  0
101230  1  0
101231  1  0
102232  1  0
102233  1  0
102234  1  0
109235  1  0
113236  1  0
114237  1  0
116238  1  0
116239  1  0
117240  1  0
117241  1  0
117242  1  0
118243  1  0
119244  1  0
121245  1  0
122246  1  0
124247  1  0
124248  1  0
125249  1  0
125250  1  0
125251  1  0
126252  1  0
127253  1  0
129254  1  0
136255  1  0
137256  1  0
138257  1  0
139258  1  0
141259  1  0
142260  1  0
147261  1  0
150262  1  0
158263  1  0
159264  1  0
160265  1  0
161266  1  0
162267  1  0
163268  1  0
163269  1  0
164270  1  0
M  END

