
     RDKit          3D

259289  0  0  0  0  0  0  0  0999 V2000
   -7.8583   -0.0690   -2.4650 C   0  0  0  0  0  0  0  0  0  0  0  0
   -8.3093   -0.5884   -1.3013 C   0  0  0  0  0  0  0  0  0  0  0  0
   -7.6454   -1.6770   -0.5571 C   0  0  0  0  0  0  0  0  0  0  0  0
   -6.4953   -2.1425   -0.7724 O   0  0  0  0  0  0  0  0  0  0  0  0
   -8.4585   -2.0294    0.5817 C   0  0  0  0  0  0  0  0  0  0  0  0
   -8.2146   -3.0859    1.4908 C   0  0  0  0  0  0  0  0  0  0  0  0
   -9.1786   -3.2188    2.4707 C   0  0  0  0  0  0  0  0  0  0  0  0
  -10.3246   -2.3702    2.5503 C   0  0  0  0  0  0  0  0  0  0  0  0
  -10.5756   -1.3433    1.6554 C   0  0  0  0  0  0  0  0  0  0  0  0
   -9.5748   -1.1627    0.6556 C   0  0  0  0  0  0  0  0  0  0  0  0
   -9.5084   -0.1869   -0.4790 C   0  0  0  0  0  0  0  0  0  0  0  0
  -10.3518    0.8623   -0.6822 C   0  0  0  0  0  0  0  0  0  0  0  0
  -11.2899    1.2985    0.3189 C   0  0  0  0  0  0  0  0  0  0  0  0
  -12.0447    1.6458    1.1194 N   0  0  0  0  0  0  0  0  0  0  0  0
  -10.3971    1.6124   -1.9120 C   0  0  0  0  0  0  0  0  0  0  0  0
  -10.4568    2.2300   -2.8897 N   0  0  0  0  0  0  0  0  0  0  0  0
  -10.8076   -3.0948    3.7700 C   0  0  0  0  0  0  0  0  0  0  0  0
  -10.6163   -2.3653    5.1353 C   0  0  0  0  0  0  0  0  0  0  0  0
  -10.7859   -3.4173    6.2042 C   0  0  0  0  0  0  0  0  0  0  0  0
   -9.7179   -4.2162    6.1263 C   0  0  0  0  0  0  0  0  0  0  0  0
   -8.8623   -3.6769    5.0069 C   0  0  0  0  0  0  0  0  0  0  0  0
   -9.1099   -2.1922    5.2243 C   0  0  0  0  0  0  0  0  0  0  0  0
   -9.6361   -3.9737    3.6864 C   0  0  0  0  0  0  0  0  0  0  0  0
   -6.8610   -0.7526   -3.3103 C   0  0  0  0  0  0  0  0  0  0  0  0
   -5.6168   -0.2477   -3.7504 C   0  0  0  0  0  0  0  0  0  0  0  0
   -5.1132    1.0796   -3.4564 N   0  0  0  0  0  0  0  0  0  0  0  0
   -5.9775    2.2297   -3.5287 C   0  0  0  0  0  0  0  0  0  0  0  0
   -5.9313    3.2125   -2.5259 C   0  0  0  0  0  0  0  0  0  0  0  0
   -6.7933    4.3104   -2.5699 C   0  0  0  0  0  0  0  0  0  0  0  0
   -7.7268    4.4357   -3.6100 C   0  0  0  0  0  0  0  0  0  0  0  0
   -8.6552    5.6131   -3.6590 C   0  0  0  0  0  0  0  0  0  0  0  0
   -7.7575    3.4723   -4.6321 C   0  0  0  0  0  0  0  0  0  0  0  0
   -6.8878    2.3771   -4.5916 C   0  0  0  0  0  0  0  0  0  0  0  0
   -3.7097    1.2831   -3.2009 C   0  0  0  0  0  0  0  0  0  0  0  0
   -2.9380    2.0477   -4.0880 C   0  0  0  0  0  0  0  0  0  0  0  0
   -1.5472    2.1070   -3.9461 C   0  0  0  0  0  0  0  0  0  0  0  0
   -0.9126    1.4228   -2.8923 C   0  0  0  0  0  0  0  0  0  0  0  0
    0.5839    1.3828   -2.8092 C   0  0  0  0  0  0  0  0  0  0  0  0
   -1.6895    0.6857   -1.9843 C   0  0  0  0  0  0  0  0  0  0  0  0
   -3.0816    0.6288   -2.1263 C   0  0  0  0  0  0  0  0  0  0  0  0
   -4.8491   -1.2792   -4.3272 C   0  0  0  0  0  0  0  0  0  0  0  0
   -3.2065   -1.4614   -4.5912 S   0  0  0  0  0  0  0  0  0  0  0  0
   -3.2000   -3.1610   -4.5991 C   0  0  0  0  0  0  0  0  0  0  0  0
   -4.5383   -3.5949   -4.4816 C   0  0  0  0  0  0  0  0  0  0  0  0
   -4.9196   -4.9683   -4.2676 N   0  0  0  0  0  0  0  0  0  0  0  0
   -4.7189   -5.5928   -2.9875 C   0  0  0  0  0  0  0  0  0  0  0  0
   -3.6751   -6.5142   -2.7927 C   0  0  0  0  0  0  0  0  0  0  0  0
   -3.4981   -7.1330   -1.5521 C   0  0  0  0  0  0  0  0  0  0  0  0
   -4.3673   -6.8496   -0.4916 C   0  0  0  0  0  0  0  0  0  0  0  0
   -4.1708   -7.5035    0.8425 C   0  0  0  0  0  0  0  0  0  0  0  0
   -5.3907   -5.9087   -0.6704 C   0  0  0  0  0  0  0  0  0  0  0  0
   -5.5723   -5.2926   -1.9137 C   0  0  0  0  0  0  0  0  0  0  0  0
   -5.5280   -5.7103   -5.3427 C   0  0  0  0  0  0  0  0  0  0  0  0
   -6.7523   -5.2950   -5.8966 C   0  0  0  0  0  0  0  0  0  0  0  0
   -7.3577   -6.0283   -6.9228 C   0  0  0  0  0  0  0  0  0  0  0  0
   -6.7409   -7.1853   -7.4224 C   0  0  0  0  0  0  0  0  0  0  0  0
   -7.3695   -7.9395   -8.5555 C   0  0  0  0  0  0  0  0  0  0  0  0
   -5.5067   -7.5914   -6.8934 C   0  0  0  0  0  0  0  0  0  0  0  0
   -4.9117   -6.8676   -5.8561 C   0  0  0  0  0  0  0  0  0  0  0  0
   -5.4207   -2.5172   -4.3347 C   0  0  0  0  0  0  0  0  0  0  0  0
   -6.9542   -2.4088   -3.6825 S   0  0  0  0  0  0  0  0  0  0  0  0
   -2.1342   -3.8264   -3.8558 C   0  0  0  0  0  0  0  0  0  0  0  0
   -1.0571   -4.5899   -4.3413 C   0  0  0  0  0  0  0  0  0  0  0  0
   -0.7591   -4.7948   -5.7674 C   0  0  0  0  0  0  0  0  0  0  0  0
   -1.2017   -5.9747   -6.3857 C   0  0  0  0  0  0  0  0  0  0  0  0
   -0.9836   -6.1894   -7.7485 C   0  0  0  0  0  0  0  0  0  0  0  0
   -0.3077   -5.2348   -8.5027 C   0  0  0  0  0  0  0  0  0  0  0  0
    0.1493   -4.0597   -7.9000 C   0  0  0  0  0  0  0  0  0  0  0  0
   -0.0723   -3.8197   -6.5322 C   0  0  0  0  0  0  0  0  0  0  0  0
    0.4974   -2.5612   -5.9146 C   0  0  0  0  0  0  0  0  0  0  0  0
    1.9668   -2.7604   -5.5549 C   0  0  0  0  0  0  0  0  0  0  0  0
   -0.2691   -5.0547   -3.2838 C   0  0  0  0  0  0  0  0  0  0  0  0
    1.1964   -5.9255   -3.1747 S   0  0  0  0  0  0  0  0  0  0  0  0
    1.1948   -5.7869   -1.4773 C   0  0  0  0  0  0  0  0  0  0  0  0
    2.0750   -5.9119   -0.4408 C   0  0  0  0  0  0  0  0  0  0  0  0
    3.4194   -6.2884   -0.4698 C   0  0  0  0  0  0  0  0  0  0  0  0
    4.2197   -6.0540    0.6806 C   0  0  0  0  0  0  0  0  0  0  0  0
    5.5342   -6.3639    0.5900 N   0  0  0  0  0  0  0  0  0  0  0  0
    5.5881   -6.9161   -0.9674 S   0  0  0  0  0  0  0  0  0  0  0  0
    4.0466   -6.7918   -1.5588 N   0  0  0  0  0  0  0  0  0  0  0  0
    3.6224   -5.5023    1.8160 C   0  0  0  0  0  0  0  0  0  0  0  0
    4.1851   -5.0759    2.9920 C   0  0  0  0  0  0  0  0  0  0  0  0
    5.7219   -4.4873    3.3883 S   0  0  0  0  0  0  0  0  0  0  0  0
    5.0680   -3.3882    4.5197 C   0  0  0  0  0  0  0  0  0  0  0  0
    5.5734   -2.1568    4.9471 C   0  0  0  0  0  0  0  0  0  0  0  0
    7.0003   -1.7682    4.8329 C   0  0  0  0  0  0  0  0  0  0  0  0
    7.7577   -1.4285    5.9820 C   0  0  0  0  0  0  0  0  0  0  0  0
    7.1878   -1.5433    7.3823 C   0  0  0  0  0  0  0  0  0  0  0  0
    7.2671   -2.9836    7.8848 C   0  0  0  0  0  0  0  0  0  0  0  0
    9.1008   -1.0506    5.8291 C   0  0  0  0  0  0  0  0  0  0  0  0
    9.6868   -0.9893    4.5600 C   0  0  0  0  0  0  0  0  0  0  0  0
    8.9390   -1.3182    3.4300 C   0  0  0  0  0  0  0  0  0  0  0  0
    7.6032   -1.7017    3.5630 C   0  0  0  0  0  0  0  0  0  0  0  0
    4.5484   -1.2320    5.2347 C   0  0  0  0  0  0  0  0  0  0  0  0
    3.0529   -1.9915    4.9814 S   0  0  0  0  0  0  0  0  0  0  0  0
    3.6952   -3.4754    4.5460 C   0  0  0  0  0  0  0  0  0  0  0  0
    3.2001   -4.4489    3.6877 C   0  0  0  0  0  0  0  0  0  0  0  0
    2.0007   -4.5036    3.0661 N   0  0  0  0  0  0  0  0  0  0  0  0
    2.2694   -5.1106    1.8586 C   0  0  0  0  0  0  0  0  0  0  0  0
    1.4801   -5.2707    0.6692 C   0  0  0  0  0  0  0  0  0  0  0  0
    0.2809   -4.7042    0.2875 N   0  0  0  0  0  0  0  0  0  0  0  0
    0.1486   -5.0669   -1.0139 C   0  0  0  0  0  0  0  0  0  0  0  0
   -0.6803   -4.6426   -2.0430 C   0  0  0  0  0  0  0  0  0  0  0  0
   -2.0349   -3.6787   -2.1681 S   0  0  0  0  0  0  0  0  0  0  0  0
   -0.5401   -3.6657    0.9218 C   0  0  0  0  0  0  0  0  0  0  0  0
    0.1900   -2.3234    0.9522 C   0  0  0  0  0  0  0  0  0  0  0  0
    0.7543   -4.3424    3.8253 C   0  0  0  0  0  0  0  0  0  0  0  0
   -0.0820   -5.6240    3.8141 C   0  0  0  0  0  0  0  0  0  0  0  0
    4.7036    0.1831    4.8912 C   0  0  0  0  0  0  0  0  0  0  0  0
    4.9937    0.5925    3.5993 C   0  0  0  0  0  0  0  0  0  0  0  0
    5.1521    1.9728    3.4783 C   0  0  0  0  0  0  0  0  0  0  0  0
    5.4733    2.6634    2.2913 C   0  0  0  0  0  0  0  0  0  0  0  0
    5.4795    1.9685    0.9795 C   0  0  0  0  0  0  0  0  0  0  0  0
    4.5265    2.3190    0.0110 C   0  0  0  0  0  0  0  0  0  0  0  0
    4.3760    1.5464   -1.1440 C   0  0  0  0  0  0  0  0  0  0  0  0
    5.1539    0.4020   -1.3296 C   0  0  0  0  0  0  0  0  0  0  0  0
    4.8725   -0.6477   -2.7586 S   0  0  0  0  0  0  0  0  0  0  0  0
    3.4698   -1.5582   -2.0127 C   0  0  0  0  0  0  0  0  0  0  0  0
    3.9451   -2.8483   -1.3650 C   0  0  0  0  0  0  0  0  0  0  0  0
    6.1645    0.0867   -0.4022 C   0  0  0  0  0  0  0  0  0  0  0  0
    6.3333    0.8768    0.7381 C   0  0  0  0  0  0  0  0  0  0  0  0
    5.6187    4.0534    2.3976 C   0  0  0  0  0  0  0  0  0  0  0  0
    5.3834    4.7584    3.5830 C   0  0  0  0  0  0  0  0  0  0  0  0
    5.0112    4.0655    4.7660 C   0  0  0  0  0  0  0  0  0  0  0  0
    4.6601    4.7862    6.0071 C   0  0  0  0  0  0  0  0  0  0  0  0
    3.3659    4.6671    6.5381 C   0  0  0  0  0  0  0  0  0  0  0  0
    2.9775    5.4486    7.6306 C   0  0  0  0  0  0  0  0  0  0  0  0
    3.8730    6.3642    8.1880 C   0  0  0  0  0  0  0  0  0  0  0  0
    3.3340    7.4543    9.5133 S   0  0  0  0  0  0  0  0  0  0  0  0
    2.5131    8.6677    8.4153 C   0  0  0  0  0  0  0  0  0  0  0  0
    3.5231    9.5988    7.7490 C   0  0  0  0  0  0  0  0  0  0  0  0
    5.1843    6.4500    7.7006 C   0  0  0  0  0  0  0  0  0  0  0  0
    5.5754    5.6578    6.6151 C   0  0  0  0  0  0  0  0  0  0  0  0
    4.9354    2.6594    4.6787 C   0  0  0  0  0  0  0  0  0  0  0  0
    4.5879    1.5323    5.8992 S   0  0  0  0  0  0  0  0  0  0  0  0
    5.5645    6.1485    3.4365 C   0  0  0  0  0  0  0  0  0  0  0  0
    5.9772    6.5182    2.1530 C   0  0  0  0  0  0  0  0  0  0  0  0
    6.1178    5.1241    1.2075 S   0  0  0  0  0  0  0  0  0  0  0  0
    6.5118    7.8433    1.7912 C   0  0  0  0  0  0  0  0  0  0  0  0
    6.5475    8.3200    0.5308 C   0  0  0  0  0  0  0  0  0  0  0  0
    5.6552    7.8900   -0.5518 C   0  0  0  0  0  0  0  0  0  0  0  0
    4.6725    7.1058   -0.4362 O   0  0  0  0  0  0  0  0  0  0  0  0
    5.9550    8.6476   -1.7388 C   0  0  0  0  0  0  0  0  0  0  0  0
    5.3661    8.4809   -3.0144 C   0  0  0  0  0  0  0  0  0  0  0  0
    5.8740    9.3193   -3.9806 C   0  0  0  0  0  0  0  0  0  0  0  0
    6.8930   10.2889   -3.7124 C   0  0  0  0  0  0  0  0  0  0  0  0
    7.4698   10.4624   -2.4647 C   0  0  0  0  0  0  0  0  0  0  0  0
    6.9761    9.5924   -1.4501 C   0  0  0  0  0  0  0  0  0  0  0  0
    7.4072    9.4272   -0.0237 C   0  0  0  0  0  0  0  0  0  0  0  0
    8.4880   10.0081    0.5722 C   0  0  0  0  0  0  0  0  0  0  0  0
    8.9860    9.6026    1.8577 C   0  0  0  0  0  0  0  0  0  0  0  0
    9.4037    9.2848    2.8904 N   0  0  0  0  0  0  0  0  0  0  0  0
    9.2792   11.0331   -0.0572 C   0  0  0  0  0  0  0  0  0  0  0  0
    9.9365   11.8535   -0.5473 N   0  0  0  0  0  0  0  0  0  0  0  0
    6.8770   10.7264   -5.1454 C   0  0  0  0  0  0  0  0  0  0  0  0
    6.1959   12.0859   -5.4888 C   0  0  0  0  0  0  0  0  0  0  0  0
    5.0753   12.3614   -4.5153 C   0  0  0  0  0  0  0  0  0  0  0  0
    4.1243   11.4638   -4.7653 C   0  0  0  0  0  0  0  0  0  0  0  0
    4.6292   10.6009   -5.8996 C   0  0  0  0  0  0  0  0  0  0  0  0
    5.3752   11.6603   -6.6933 C   0  0  0  0  0  0  0  0  0  0  0  0
    5.8314    9.7346   -5.4196 C   0  0  0  0  0  0  0  0  0  0  0  0
   -8.2758    0.8270   -2.8717 H   0  0  0  0  0  0  0  0  0  0  0  0
   -7.3588   -3.7441    1.4226 H   0  0  0  0  0  0  0  0  0  0  0  0
  -11.4822   -0.7706    1.7348 H   0  0  0  0  0  0  0  0  0  0  0  0
  -11.7795   -3.6185    3.6237 H   0  0  0  0  0  0  0  0  0  0  0  0
  -11.2183   -1.4453    5.2747 H   0  0  0  0  0  0  0  0  0  0  0  0
  -11.5650   -3.4703    6.9554 H   0  0  0  0  0  0  0  0  0  0  0  0
   -9.4768   -5.0212    6.8117 H   0  0  0  0  0  0  0  0  0  0  0  0
   -7.8005   -3.9936    5.0222 H   0  0  0  0  0  0  0  0  0  0  0  0
   -8.7612   -1.8233    6.2181 H   0  0  0  0  0  0  0  0  0  0  0  0
   -8.6842   -1.5370    4.4342 H   0  0  0  0  0  0  0  0  0  0  0  0
   -9.8767   -5.0452    3.4824 H   0  0  0  0  0  0  0  0  0  0  0  0
   -5.2376    3.1193   -1.7011 H   0  0  0  0  0  0  0  0  0  0  0  0
   -6.7438    5.0570   -1.7846 H   0  0  0  0  0  0  0  0  0  0  0  0
   -8.2447    6.3744   -4.3556 H   0  0  0  0  0  0  0  0  0  0  0  0
   -9.6588    5.2940   -4.0119 H   0  0  0  0  0  0  0  0  0  0  0  0
   -8.7709    6.0666   -2.6522 H   0  0  0  0  0  0  0  0  0  0  0  0
   -8.4671    3.5648   -5.4491 H   0  0  0  0  0  0  0  0  0  0  0  0
   -6.9339    1.6377   -5.3814 H   0  0  0  0  0  0  0  0  0  0  0  0
   -3.4102    2.5526   -4.9244 H   0  0  0  0  0  0  0  0  0  0  0  0
   -0.9626    2.6643   -4.6709 H   0  0  0  0  0  0  0  0  0  0  0  0
    0.9675    0.5136   -3.3868 H   0  0  0  0  0  0  0  0  0  0  0  0
    0.9165    1.2887   -1.7546 H   0  0  0  0  0  0  0  0  0  0  0  0
    1.0264    2.3135   -3.2275 H   0  0  0  0  0  0  0  0  0  0  0  0
   -1.2193    0.1278   -1.1816 H   0  0  0  0  0  0  0  0  0  0  0  0
   -3.6697    0.0342   -1.4403 H   0  0  0  0  0  0  0  0  0  0  0  0
   -2.9759   -6.7330   -3.5819 H   0  0  0  0  0  0  0  0  0  0  0  0
   -2.6829   -7.8281   -1.4239 H   0  0  0  0  0  0  0  0  0  0  0  0
   -3.4973   -6.8786    1.4651 H   0  0  0  0  0  0  0  0  0  0  0  0
   -5.1435   -7.6262    1.3637 H   0  0  0  0  0  0  0  0  0  0  0  0
   -3.7242   -8.5138    0.7216 H   0  0  0  0  0  0  0  0  0  0  0  0
   -6.0563   -5.6612    0.1455 H   0  0  0  0  0  0  0  0  0  0  0  0
   -6.3934   -4.6076   -2.0416 H   0  0  0  0  0  0  0  0  0  0  0  0
   -7.2572   -4.4172   -5.5298 H   0  0  0  0  0  0  0  0  0  0  0  0
   -8.3080   -5.6953   -7.3286 H   0  0  0  0  0  0  0  0  0  0  0  0
   -7.0489   -9.0023   -8.5495 H   0  0  0  0  0  0  0  0  0  0  0  0
   -8.4762   -7.9132   -8.4645 H   0  0  0  0  0  0  0  0  0  0  0  0
   -7.0686   -7.4747   -9.5166 H   0  0  0  0  0  0  0  0  0  0  0  0
   -5.0025   -8.4649   -7.2848 H   0  0  0  0  0  0  0  0  0  0  0  0
   -3.9689   -7.2066   -5.4746 H   0  0  0  0  0  0  0  0  0  0  0  0
   -1.7195   -6.7293   -5.8092 H   0  0  0  0  0  0  0  0  0  0  0  0
   -1.3265   -7.1062   -8.2129 H   0  0  0  0  0  0  0  0  0  0  0  0
   -0.1296   -5.4046   -9.5563 H   0  0  0  0  0  0  0  0  0  0  0  0
    0.6830   -3.3382   -8.5058 H   0  0  0  0  0  0  0  0  0  0  0  0
   -0.0668   -2.2570   -5.0094 H   0  0  0  0  0  0  0  0  0  0  0  0
    0.4178   -1.7231   -6.6388 H   0  0  0  0  0  0  0  0  0  0  0  0
    2.4047   -1.7950   -5.2312 H   0  0  0  0  0  0  0  0  0  0  0  0
    2.0756   -3.4991   -4.7316 H   0  0  0  0  0  0  0  0  0  0  0  0
    2.5389   -3.1136   -6.4395 H   0  0  0  0  0  0  0  0  0  0  0  0
    7.7505   -0.8924    8.0805 H   0  0  0  0  0  0  0  0  0  0  0  0
    6.1358   -1.1980    7.4146 H   0  0  0  0  0  0  0  0  0  0  0  0
    8.3247   -3.3152    7.9447 H   0  0  0  0  0  0  0  0  0  0  0  0
    6.7094   -3.6632    7.2080 H   0  0  0  0  0  0  0  0  0  0  0  0
    6.8140   -3.0451    8.8943 H   0  0  0  0  0  0  0  0  0  0  0  0
    9.7057   -0.8116    6.6929 H   0  0  0  0  0  0  0  0  0  0  0  0
   10.7255   -0.6982    4.4572 H   0  0  0  0  0  0  0  0  0  0  0  0
    9.3952   -1.2757    2.4489 H   0  0  0  0  0  0  0  0  0  0  0  0
    7.0364   -1.9386    2.6704 H   0  0  0  0  0  0  0  0  0  0  0  0
   -1.4837   -3.5212    0.3734 H   0  0  0  0  0  0  0  0  0  0  0  0
   -0.9176   -3.9963    1.8899 H   0  0  0  0  0  0  0  0  0  0  0  0
    1.1683   -2.4140    1.4663 H   0  0  0  0  0  0  0  0  0  0  0  0
   -0.4344   -1.5774    1.4919 H   0  0  0  0  0  0  0  0  0  0  0  0
    0.3672   -1.9607   -0.0832 H   0  0  0  0  0  0  0  0  0  0  0  0
    0.9900   -4.1449    4.8964 H   0  0  0  0  0  0  0  0  0  0  0  0
    0.2098   -3.4320    3.5186 H   0  0  0  0  0  0  0  0  0  0  0  0
   -1.0496   -5.4392    4.3199 H   0  0  0  0  0  0  0  0  0  0  0  0
    0.4573   -6.4255    4.3610 H   0  0  0  0  0  0  0  0  0  0  0  0
   -0.2832   -5.9843    2.7828 H   0  0  0  0  0  0  0  0  0  0  0  0
    5.0882   -0.1106    2.7870 H   0  0  0  0  0  0  0  0  0  0  0  0
    3.8660    3.1608    0.1688 H   0  0  0  0  0  0  0  0  0  0  0  0
    3.6116    1.8100   -1.8649 H   0  0  0  0  0  0  0  0  0  0  0  0
    2.7442   -1.8150   -2.8117 H   0  0  0  0  0  0  0  0  0  0  0  0
    2.9336   -0.9368   -1.2638 H   0  0  0  0  0  0  0  0  0  0  0  0
    3.0760   -3.3511   -0.8941 H   0  0  0  0  0  0  0  0  0  0  0  0
    4.7013   -2.6343   -0.5795 H   0  0  0  0  0  0  0  0  0  0  0  0
    4.3783   -3.5295   -2.1312 H   0  0  0  0  0  0  0  0  0  0  0  0
    6.7902   -0.7832   -0.5543 H   0  0  0  0  0  0  0  0  0  0  0  0
    7.0977    0.6092    1.4618 H   0  0  0  0  0  0  0  0  0  0  0  0
    2.6488    3.9956    6.0903 H   0  0  0  0  0  0  0  0  0  0  0  0
    1.9718    5.3563    8.0200 H   0  0  0  0  0  0  0  0  0  0  0  0
    1.9078    8.1484    7.6410 H   0  0  0  0  0  0  0  0  0  0  0  0
    1.8245    9.2813    9.0372 H   0  0  0  0  0  0  0  0  0  0  0  0
    4.2333    9.0252    7.1150 H   0  0  0  0  0  0  0  0  0  0  0  0
    4.0896   10.1659    8.5204 H   0  0  0  0  0  0  0  0  0  0  0  0
    2.9829   10.3241    7.1013 H   0  0  0  0  0  0  0  0  0  0  0  0
    5.8935    7.1332    8.1472 H   0  0  0  0  0  0  0  0  0  0  0  0
    6.5831    5.7577    6.2302 H   0  0  0  0  0  0  0  0  0  0  0  0
    5.4324    6.8651    4.2345 H   0  0  0  0  0  0  0  0  0  0  0  0
    6.9487    8.4039    2.6043 H   0  0  0  0  0  0  0  0  0  0  0  0
    4.5872    7.7561   -3.2224 H   0  0  0  0  0  0  0  0  0  0  0  0
    8.2235   11.2172   -2.3282 H   0  0  0  0  0  0  0  0  0  0  0  0
    7.8326   10.5308   -5.6859 H   0  0  0  0  0  0  0  0  0  0  0  0
    6.8903   12.9309   -5.6533 H   0  0  0  0  0  0  0  0  0  0  0  0
    5.0045   13.1802   -3.8073 H   0  0  0  0  0  0  0  0  0  0  0  0
    3.1469   11.4233   -4.2896 H   0  0  0  0  0  0  0  0  0  0  0  0
    3.8402   10.0523   -6.4588 H   0  0  0  0  0  0  0  0  0  0  0  0
    4.7182   12.4693   -7.0944 H   0  0  0  0  0  0  0  0  0  0  0  0
    5.9915   11.2354   -7.5192 H   0  0  0  0  0  0  0  0  0  0  0  0
    6.1487    8.9353   -6.1238 H   0  0  0  0  0  0  0  0  0  0  0  0
  1  2  2  3
  2  3  1  0
  3  4  2  0
  3  5  1  0
  5  6  2  0
  6  7  1  0
  7  8  2  0
  8  9  1  0
  9 10  2  0
 10 11  1  0
 11 12  2  3
 12 13  1  0
 13 14  3  0
 12 15  1  0
 15 16  3  0
  8 17  1  0
 17 18  1  0
 18 19  1  0
 19 20  2  0
 20 21  1  0
 21 22  1  0
 21 23  1  0
  1 24  1  0
 24 25  2  0
 25 26  1  0
 26 27  1  0
 27 28  2  0
 28 29  1  0
 29 30  2  0
 30 31  1  0
 30 32  1  0
 32 33  2  0
 26 34  1  0
 34 35  2  0
 35 36  1  0
 36 37  2  0
 37 38  1  0
 37 39  1  0
 39 40  2  0
 25 41  1  0
 41 42  1  0
 42 43  1  0
 43 44  2  0
 44 45  1  0
 45 46  1  0
 46 47  2  0
 47 48  1  0
 48 49  2  0
 49 50  1  0
 49 51  1  0
 51 52  2  0
 45 53  1  0
 53 54  2  0
 54 55  1  0
 55 56  2  0
 56 57  1  0
 56 58  1  0
 58 59  2  0
 44 60  1  0
 60 61  1  0
 43 62  1  0
 62 63  2  0
 63 64  1  0
 64 65  2  0
 65 66  1  0
 66 67  2  0
 67 68  1  0
 68 69  2  0
 69 70  1  0
 70 71  1  0
 63 72  1  0
 72 73  1  0
 73 74  1  0
 74 75  1  0
 75 76  1  0
 76 77  1  0
 77 78  2  0
 78 79  1  0
 79 80  1  0
 77 81  1  0
 81 82  1  0
 82 83  1  0
 83 84  1  0
 84 85  1  0
 85 86  1  0
 86 87  2  0
 87 88  1  0
 88 89  1  0
 87 90  1  0
 90 91  2  0
 91 92  1  0
 92 93  2  0
 85 94  2  0
 94 95  1  0
 95 96  1  0
 96 97  1  0
 97 98  1  0
 98 99  1  0
 99100  1  0
100101  1  0
101102  1  0
102103  1  0
103104  1  0
101105  1  0
105106  1  0
 98107  1  0
107108  1  0
 94109  1  0
109110  2  0
110111  1  0
111112  2  0
112113  1  0
113114  2  0
114115  1  0
115116  2  0
116117  1  0
117118  1  0
118119  1  0
116120  1  0
120121  2  0
112122  1  0
122123  2  0
123124  1  0
124125  1  0
125126  2  0
126127  1  0
127128  2  0
128129  1  0
129130  1  0
130131  1  0
128132  1  0
132133  2  0
124134  2  0
134135  1  0
123136  1  0
136137  2  0
137138  1  0
137139  1  0
139140  2  3
140141  1  0
141142  2  0
141143  1  0
143144  2  0
144145  1  0
145146  2  0
146147  1  0
147148  2  0
148149  1  0
149150  2  3
150151  1  0
151152  3  0
150153  1  0
153154  3  0
146155  1  0
155156  1  0
156157  1  0
157158  2  0
158159  1  0
159160  1  0
159161  1  0
 11  2  1  0
 23 17  1  0
 61 24  1  0
104 62  1  0
135109  1  0
149140  1  0
161155  1  0
 10  5  1  0
 22 18  1  0
 33 27  1  0
 40 34  1  0
 60 41  2  0
 69 64  1  0
103 72  2  0
134111  1  0
148143  1  0
160156  1  0
 23  7  1  0
 52 46  1  0
 59 53  1  0
102 74  2  0
121113  1  0
138122  1  0
161145  1  0
100 75  2  0
133125  1  0
 80 76  2  0
 99 81  2  0
 97 82  2  0
 96 84  2  0
 93 86  1  0
  1162  1  0
  6163  1  0
  9164  1  0
 17165  1  0
 18166  1  0
 19167  1  0
 20168  1  0
 21169  1  0
 22170  1  0
 22171  1  0
 23172  1  0
 28173  1  0
 29174  1  0
 31175  1  0
 31176  1  0
 31177  1  0
 32178  1  0
 33179  1  0
 35180  1  0
 36181  1  0
 38182  1  0
 38183  1  0
 38184  1  0
 39185  1  0
 40186  1  0
 47187  1  0
 48188  1  0
 50189  1  0
 50190  1  0
 50191  1  0
 51192  1  0
 52193  1  0
 54194  1  0
 55195  1  0
 57196  1  0
 57197  1  0
 57198  1  0
 58199  1  0
 59200  1  0
 65201  1  0
 66202  1  0
 67203  1  0
 68204  1  0
 70205  1  0
 70206  1  0
 71207  1  0
 71208  1  0
 71209  1  0
 88210  1  0
 88211  1  0
 89212  1  0
 89213  1  0
 89214  1  0
 90215  1  0
 91216  1  0
 92217  1  0
 93218  1  0
105219  1  0
105220  1  0
106221  1  0
106222  1  0
106223  1  0
107224  1  0
107225  1  0
108226  1  0
108227  1  0
108228  1  0
110229  1  0
114230  1  0
115231  1  0
118232  1  0
118233  1  0
119234  1  0
119235  1  0
119236  1  0
120237  1  0
121238  1  0
126239  1  0
127240  1  0
130241  1  0
130242  1  0
131243  1  0
131244  1  0
131245  1  0
132246  1  0
133247  1  0
136248  1  0
139249  1  0
144250  1  0
147251  1  0
155252  1  0
156253  1  0
157254  1  0
158255  1  0
159256  1  0
160257  1  0
160258  1  0
161259  1  0
M  END

