
     RDKit          3D

229256  0  0  0  0  0  0  0  0999 V2000
   -0.3984   -6.0234   -5.5675 C   0  0  0  0  0  0  0  0  0  0  0  0
   -0.3462   -6.1508   -6.9093 C   0  0  0  0  0  0  0  0  0  0  0  0
    0.8594   -6.3486   -7.6985 C   0  0  0  0  0  0  0  0  0  0  0  0
    2.0319   -6.2284   -7.2758 O   0  0  0  0  0  0  0  0  0  0  0  0
    0.4409   -6.3491   -9.0880 C   0  0  0  0  0  0  0  0  0  0  0  0
    1.2583   -5.9355  -10.1595 C   0  0  0  0  0  0  0  0  0  0  0  0
    0.5458   -5.5262  -11.2710 C   0  0  0  0  0  0  0  0  0  0  0  0
   -0.8625   -5.7469  -11.4175 C   0  0  0  0  0  0  0  0  0  0  0  0
   -1.6583   -6.2033  -10.3887 C   0  0  0  0  0  0  0  0  0  0  0  0
   -0.9815   -6.3806   -9.1684 C   0  0  0  0  0  0  0  0  0  0  0  0
   -1.5238   -6.1074   -7.8273 C   0  0  0  0  0  0  0  0  0  0  0  0
   -2.5375   -5.2131   -7.6491 C   0  0  0  0  0  0  0  0  0  0  0  0
   -2.2089   -3.9508   -7.0196 C   0  0  0  0  0  0  0  0  0  0  0  0
   -1.6866   -3.0775   -6.4670 N   0  0  0  0  0  0  0  0  0  0  0  0
   -3.8399   -5.4330   -8.2216 C   0  0  0  0  0  0  0  0  0  0  0  0
   -4.8988   -5.7237   -8.6220 N   0  0  0  0  0  0  0  0  0  0  0  0
   -0.9045   -4.8372  -12.6143 C   0  0  0  0  0  0  0  0  0  0  0  0
   -0.9046   -5.4236  -14.0508 C   0  0  0  0  0  0  0  0  0  0  0  0
   -0.6007   -4.2401  -14.9473 C   0  0  0  0  0  0  0  0  0  0  0  0
    0.6750   -3.9013  -14.7156 C   0  0  0  0  0  0  0  0  0  0  0  0
    1.1971   -4.9008  -13.7186 C   0  0  0  0  0  0  0  0  0  0  0  0
    0.4312   -6.1284  -14.1572 C   0  0  0  0  0  0  0  0  0  0  0  0
    0.5006   -4.5262  -12.3896 C   0  0  0  0  0  0  0  0  0  0  0  0
    0.7369   -5.8453   -4.6592 C   0  0  0  0  0  0  0  0  0  0  0  0
    0.8563   -6.5907   -3.4634 C   0  0  0  0  0  0  0  0  0  0  0  0
    0.9931   -8.0285   -3.4677 N   0  0  0  0  0  0  0  0  0  0  0  0
    1.9020   -8.6223   -4.4204 C   0  0  0  0  0  0  0  0  0  0  0  0
    3.1811   -8.0587   -4.6252 C   0  0  0  0  0  0  0  0  0  0  0  0
    4.0529   -8.6100   -5.5614 C   0  0  0  0  0  0  0  0  0  0  0  0
    3.6668   -9.7310   -6.3173 C   0  0  0  0  0  0  0  0  0  0  0  0
    4.6086  -10.3316   -7.3246 C   0  0  0  0  0  0  0  0  0  0  0  0
    2.4093  -10.3178   -6.0927 C   0  0  0  0  0  0  0  0  0  0  0  0
    1.5390   -9.7756   -5.1423 C   0  0  0  0  0  0  0  0  0  0  0  0
    0.4813   -8.8350   -2.3803 C   0  0  0  0  0  0  0  0  0  0  0  0
   -0.7845   -8.5678   -1.8343 C   0  0  0  0  0  0  0  0  0  0  0  0
   -1.2843   -9.3470   -0.7869 C   0  0  0  0  0  0  0  0  0  0  0  0
   -0.5313  -10.4198   -0.2824 C   0  0  0  0  0  0  0  0  0  0  0  0
   -1.0705  -11.2682    0.8321 C   0  0  0  0  0  0  0  0  0  0  0  0
    0.7433  -10.6803   -0.8015 C   0  0  0  0  0  0  0  0  0  0  0  0
    1.2518   -9.8932   -1.8424 C   0  0  0  0  0  0  0  0  0  0  0  0
    1.2729   -5.8084   -2.3769 C   0  0  0  0  0  0  0  0  0  0  0  0
    1.3861   -6.0188   -0.6998 S   0  0  0  0  0  0  0  0  0  0  0  0
    1.6691   -4.3521   -0.3893 C   0  0  0  0  0  0  0  0  0  0  0  0
    1.6995   -3.6643   -1.6112 C   0  0  0  0  0  0  0  0  0  0  0  0
    2.0639   -2.2864   -1.7801 N   0  0  0  0  0  0  0  0  0  0  0  0
    3.1151   -1.9733   -2.7154 C   0  0  0  0  0  0  0  0  0  0  0  0
    2.9371   -0.9430   -3.6614 C   0  0  0  0  0  0  0  0  0  0  0  0
    3.9282   -0.6959   -4.6187 C   0  0  0  0  0  0  0  0  0  0  0  0
    5.0895   -1.4804   -4.6535 C   0  0  0  0  0  0  0  0  0  0  0  0
    6.1578   -1.2398   -5.6806 C   0  0  0  0  0  0  0  0  0  0  0  0
    5.2661   -2.4993   -3.7027 C   0  0  0  0  0  0  0  0  0  0  0  0
    4.2832   -2.7435   -2.7489 C   0  0  0  0  0  0  0  0  0  0  0  0
    1.2639   -1.2268   -1.2275 C   0  0  0  0  0  0  0  0  0  0  0  0
   -0.1493   -1.2928   -1.2588 C   0  0  0  0  0  0  0  0  0  0  0  0
   -0.9086   -0.2080   -0.8162 C   0  0  0  0  0  0  0  0  0  0  0  0
   -0.2760    0.9485   -0.3235 C   0  0  0  0  0  0  0  0  0  0  0  0
   -1.0742    2.1455    0.0893 C   0  0  0  0  0  0  0  0  0  0  0  0
    1.1319    1.0072   -0.2948 C   0  0  0  0  0  0  0  0  0  0  0  0
    1.8815   -0.0824   -0.7123 C   0  0  0  0  0  0  0  0  0  0  0  0
    1.4920   -4.5128   -2.6894 C   0  0  0  0  0  0  0  0  0  0  0  0
    1.1800   -4.2355   -4.3074 S   0  0  0  0  0  0  0  0  0  0  0  0
    1.5627   -3.7355    0.9560 C   0  0  0  0  0  0  0  0  0  0  0  0
    2.5737   -3.6369    1.9257 C   0  0  0  0  0  0  0  0  0  0  0  0
    3.9326   -4.1589    1.7825 C   0  0  0  0  0  0  0  0  0  0  0  0
    4.8733   -3.4662    1.0104 C   0  0  0  0  0  0  0  0  0  0  0  0
    6.1849   -3.9276    0.9409 C   0  0  0  0  0  0  0  0  0  0  0  0
    6.5654   -5.0819    1.6396 C   0  0  0  0  0  0  0  0  0  0  0  0
    5.6197   -5.7928    2.4028 C   0  0  0  0  0  0  0  0  0  0  0  0
    6.0244   -7.0116    3.1760 C   0  0  0  0  0  0  0  0  0  0  0  0
    6.3473   -6.6476    4.6210 C   0  0  0  0  0  0  0  0  0  0  0  0
    4.3035   -5.3110    2.4793 C   0  0  0  0  0  0  0  0  0  0  0  0
    2.1247   -2.9556    3.0588 C   0  0  0  0  0  0  0  0  0  0  0  0
    2.8751   -2.3963    4.4978 S   0  0  0  0  0  0  0  0  0  0  0  0
    1.4473   -1.6080    4.9711 C   0  0  0  0  0  0  0  0  0  0  0  0
    0.9403   -0.8240    5.9787 C   0  0  0  0  0  0  0  0  0  0  0  0
    1.4587   -0.3742    7.2011 C   0  0  0  0  0  0  0  0  0  0  0  0
    0.6480    0.4749    8.0198 C   0  0  0  0  0  0  0  0  0  0  0  0
    1.2031    0.9244    9.1803 N   0  0  0  0  0  0  0  0  0  0  0  0
    2.6731    0.1594    9.0863 S   0  0  0  0  0  0  0  0  0  0  0  0
    2.6933   -0.6923    7.6649 N   0  0  0  0  0  0  0  0  0  0  0  0
   -0.6285    0.8522    7.5625 C   0  0  0  0  0  0  0  0  0  0  0  0
   -1.4434    1.8848    7.9468 C   0  0  0  0  0  0  0  0  0  0  0  0
   -1.2423    3.2529    8.9321 S   0  0  0  0  0  0  0  0  0  0  0  0
   -2.3778    4.1338    8.0282 C   0  0  0  0  0  0  0  0  0  0  0  0
   -2.7434    5.4762    8.0255 C   0  0  0  0  0  0  0  0  0  0  0  0
   -2.3958    6.3925    9.1180 C   0  0  0  0  0  0  0  0  0  0  0  0
   -1.1685    7.0740    9.1138 C   0  0  0  0  0  0  0  0  0  0  0  0
   -0.7793    7.8207   10.2285 C   0  0  0  0  0  0  0  0  0  0  0  0
   -1.5844    7.8483   11.3717 C   0  0  0  0  0  0  0  0  0  0  0  0
   -2.7875    7.1298   11.4008 C   0  0  0  0  0  0  0  0  0  0  0  0
   -3.5727    7.0061   12.6809 C   0  0  0  0  0  0  0  0  0  0  0  0
   -3.1821    5.7217   13.4090 C   0  0  0  0  0  0  0  0  0  0  0  0
   -3.1912    6.4098   10.2715 C   0  0  0  0  0  0  0  0  0  0  0  0
   -3.5822    5.7974    6.9345 C   0  0  0  0  0  0  0  0  0  0  0  0
   -3.7809    4.3848    5.9784 S   0  0  0  0  0  0  0  0  0  0  0  0
   -2.8614    3.3963    6.9764 C   0  0  0  0  0  0  0  0  0  0  0  0
   -2.3100    2.1175    6.9137 C   0  0  0  0  0  0  0  0  0  0  0  0
   -2.1100    1.2731    5.8572 N   0  0  0  0  0  0  0  0  0  0  0  0
   -1.1146    0.4413    6.3117 C   0  0  0  0  0  0  0  0  0  0  0  0
   -0.3579   -0.4987    5.5674 C   0  0  0  0  0  0  0  0  0  0  0  0
   -0.7083   -1.1521    4.4177 N   0  0  0  0  0  0  0  0  0  0  0  0
    0.4435   -1.7662    4.0652 C   0  0  0  0  0  0  0  0  0  0  0  0
    0.8165   -2.5488    2.9871 C   0  0  0  0  0  0  0  0  0  0  0  0
    0.1369   -2.9975    1.5250 S   0  0  0  0  0  0  0  0  0  0  0  0
   -2.0384   -1.6660    4.0795 C   0  0  0  0  0  0  0  0  0  0  0  0
   -2.2014   -3.1096    4.5610 C   0  0  0  0  0  0  0  0  0  0  0  0
   -2.2972    1.6980    4.4609 C   0  0  0  0  0  0  0  0  0  0  0  0
   -1.1731    2.6449    4.0415 C   0  0  0  0  0  0  0  0  0  0  0  0
   -3.8420    7.1512    6.4080 C   0  0  0  0  0  0  0  0  0  0  0  0
   -2.9077    7.8922    5.6642 C   0  0  0  0  0  0  0  0  0  0  0  0
   -1.4795    7.5694    5.5718 C   0  0  0  0  0  0  0  0  0  0  0  0
   -0.9668    6.3750    5.0840 C   0  0  0  0  0  0  0  0  0  0  0  0
    0.4253    6.3265    5.1205 C   0  0  0  0  0  0  0  0  0  0  0  0
    1.0037    7.4984    5.5965 C   0  0  0  0  0  0  0  0  0  0  0  0
    2.4567    7.6879    5.8591 C   0  0  0  0  0  0  0  0  0  0  0  0
    2.8465    7.1025    7.2172 C   0  0  0  0  0  0  0  0  0  0  0  0
   -0.2168    8.5959    5.9959 S   0  0  0  0  0  0  0  0  0  0  0  0
   -3.4740    8.8762    4.8524 C   0  0  0  0  0  0  0  0  0  0  0  0
   -4.8633    8.9068    4.8991 C   0  0  0  0  0  0  0  0  0  0  0  0
   -5.3771    7.7335    5.9996 S   0  0  0  0  0  0  0  0  0  0  0  0
   -5.7070    9.5584    3.8788 C   0  0  0  0  0  0  0  0  0  0  0  0
   -5.4967    9.3906    2.5557 C   0  0  0  0  0  0  0  0  0  0  0  0
   -5.9790   10.3018    1.5065 C   0  0  0  0  0  0  0  0  0  0  0  0
   -6.8218   11.2252    1.6670 O   0  0  0  0  0  0  0  0  0  0  0  0
   -5.2807    9.9984    0.2741 C   0  0  0  0  0  0  0  0  0  0  0  0
   -5.5634   10.5194   -1.0242 C   0  0  0  0  0  0  0  0  0  0  0  0
   -4.8740    9.8990   -2.0461 C   0  0  0  0  0  0  0  0  0  0  0  0
   -3.9445    8.8320   -1.8147 C   0  0  0  0  0  0  0  0  0  0  0  0
   -3.6795    8.2987   -0.5672 C   0  0  0  0  0  0  0  0  0  0  0  0
   -4.3892    8.9121    0.5001 C   0  0  0  0  0  0  0  0  0  0  0  0
   -4.5508    8.4238    1.9155 C   0  0  0  0  0  0  0  0  0  0  0  0
   -4.3995    7.1296    2.2816 C   0  0  0  0  0  0  0  0  0  0  0  0
   -3.3275    6.3147    1.7876 C   0  0  0  0  0  0  0  0  0  0  0  0
   -2.4279    5.7012    1.3852 N   0  0  0  0  0  0  0  0  0  0  0  0
   -5.3975    6.4518    3.0459 C   0  0  0  0  0  0  0  0  0  0  0  0
   -6.2227    5.8898    3.6370 N   0  0  0  0  0  0  0  0  0  0  0  0
   -3.7176    8.6704   -3.2841 C   0  0  0  0  0  0  0  0  0  0  0  0
   -4.3671    7.4309   -3.9686 C   0  0  0  0  0  0  0  0  0  0  0  0
   -5.6532    7.0592   -3.2497 C   0  0  0  0  0  0  0  0  0  0  0  0
   -6.5184    8.0442   -3.4880 C   0  0  0  0  0  0  0  0  0  0  0  0
   -5.8061    9.0455   -4.3588 C   0  0  0  0  0  0  0  0  0  0  0  0
   -4.9638    8.0898   -5.1971 C   0  0  0  0  0  0  0  0  0  0  0  0
   -4.6709    9.7537   -3.5393 C   0  0  0  0  0  0  0  0  0  0  0  0
   -1.3749   -5.8452   -5.1280 H   0  0  0  0  0  0  0  0  0  0  0  0
    2.3169   -5.6875  -10.0541 H   0  0  0  0  0  0  0  0  0  0  0  0
   -2.7468   -6.1708  -10.4627 H   0  0  0  0  0  0  0  0  0  0  0  0
   -1.5790   -3.9660  -12.4620 H   0  0  0  0  0  0  0  0  0  0  0  0
   -1.7987   -6.0333  -14.3053 H   0  0  0  0  0  0  0  0  0  0  0  0
   -1.3138   -3.6976  -15.5585 H   0  0  0  0  0  0  0  0  0  0  0  0
    1.1256   -2.9625  -14.9950 H   0  0  0  0  0  0  0  0  0  0  0  0
    2.3009   -4.9953  -13.6784 H   0  0  0  0  0  0  0  0  0  0  0  0
    0.6797   -6.4160  -15.2061 H   0  0  0  0  0  0  0  0  0  0  0  0
    0.5176   -7.0202  -13.4976 H   0  0  0  0  0  0  0  0  0  0  0  0
    0.6815   -3.4855  -12.0468 H   0  0  0  0  0  0  0  0  0  0  0  0
    3.4828   -7.1876   -4.0643 H   0  0  0  0  0  0  0  0  0  0  0  0
    5.0231   -8.1576   -5.7013 H   0  0  0  0  0  0  0  0  0  0  0  0
    4.0444  -10.5897   -8.2404 H   0  0  0  0  0  0  0  0  0  0  0  0
    5.4073   -9.6075   -7.5914 H   0  0  0  0  0  0  0  0  0  0  0  0
    5.0662  -11.2422   -6.8932 H   0  0  0  0  0  0  0  0  0  0  0  0
    2.1131  -11.1915   -6.6501 H   0  0  0  0  0  0  0  0  0  0  0  0
    0.5677  -10.2243   -4.9898 H   0  0  0  0  0  0  0  0  0  0  0  0
   -1.3736   -7.7478   -2.2192 H   0  0  0  0  0  0  0  0  0  0  0  0
   -2.2509   -9.1192   -0.3663 H   0  0  0  0  0  0  0  0  0  0  0  0
   -0.5633  -12.2559    0.8569 H   0  0  0  0  0  0  0  0  0  0  0  0
   -0.9069  -10.7512    1.8001 H   0  0  0  0  0  0  0  0  0  0  0  0
   -2.1596  -11.4441    0.6874 H   0  0  0  0  0  0  0  0  0  0  0  0
    1.3530  -11.4776   -0.4041 H   0  0  0  0  0  0  0  0  0  0  0  0
    2.2384  -10.1054   -2.2182 H   0  0  0  0  0  0  0  0  0  0  0  0
    2.0380   -0.3472   -3.6736 H   0  0  0  0  0  0  0  0  0  0  0  0
    3.7697    0.0839   -5.3537 H   0  0  0  0  0  0  0  0  0  0  0  0
    5.8584   -0.4511   -6.4010 H   0  0  0  0  0  0  0  0  0  0  0  0
    6.3529   -2.1792   -6.2448 H   0  0  0  0  0  0  0  0  0  0  0  0
    7.0958   -0.9264   -5.1762 H   0  0  0  0  0  0  0  0  0  0  0  0
    6.1512   -3.1133   -3.7221 H   0  0  0  0  0  0  0  0  0  0  0  0
    4.4249   -3.5485   -2.0310 H   0  0  0  0  0  0  0  0  0  0  0  0
   -0.6415   -2.1633   -1.6643 H   0  0  0  0  0  0  0  0  0  0  0  0
   -1.9898   -0.2582   -0.8692 H   0  0  0  0  0  0  0  0  0  0  0  0
   -1.0560    2.9112   -0.7173 H   0  0  0  0  0  0  0  0  0  0  0  0
   -0.6559    2.5717    1.0210 H   0  0  0  0  0  0  0  0  0  0  0  0
   -2.1335    1.8663    0.2965 H   0  0  0  0  0  0  0  0  0  0  0  0
    1.6264    1.8932    0.0696 H   0  0  0  0  0  0  0  0  0  0  0  0
    2.9657   -0.0239   -0.6826 H   0  0  0  0  0  0  0  0  0  0  0  0
    4.5848   -2.5649    0.4753 H   0  0  0  0  0  0  0  0  0  0  0  0
    6.9158   -3.3901    0.3537 H   0  0  0  0  0  0  0  0  0  0  0  0
    7.5880   -5.4168    1.5919 H   0  0  0  0  0  0  0  0  0  0  0  0
    5.2058   -7.7635    3.1577 H   0  0  0  0  0  0  0  0  0  0  0  0
    6.9169   -7.4804    2.7117 H   0  0  0  0  0  0  0  0  0  0  0  0
    7.1109   -5.8444    4.6578 H   0  0  0  0  0  0  0  0  0  0  0  0
    5.4292   -6.3059    5.1466 H   0  0  0  0  0  0  0  0  0  0  0  0
    6.7471   -7.5374    5.1505 H   0  0  0  0  0  0  0  0  0  0  0  0
    3.5652   -5.8453    3.0761 H   0  0  0  0  0  0  0  0  0  0  0  0
   -0.5025    6.9912    8.2680 H   0  0  0  0  0  0  0  0  0  0  0  0
    0.1675    8.3468   10.2194 H   0  0  0  0  0  0  0  0  0  0  0  0
   -1.2395    8.3873   12.2492 H   0  0  0  0  0  0  0  0  0  0  0  0
   -4.6618    6.9846   12.4544 H   0  0  0  0  0  0  0  0  0  0  0  0
   -3.3828    7.8798   13.3430 H   0  0  0  0  0  0  0  0  0  0  0  0
   -2.0852    5.6931   13.5755 H   0  0  0  0  0  0  0  0  0  0  0  0
   -3.6963    5.6726   14.3917 H   0  0  0  0  0  0  0  0  0  0  0  0
   -3.4793    4.8345   12.8081 H   0  0  0  0  0  0  0  0  0  0  0  0
   -4.0966    5.8134   10.3083 H   0  0  0  0  0  0  0  0  0  0  0  0
   -2.1970   -1.6061    2.9858 H   0  0  0  0  0  0  0  0  0  0  0  0
   -2.8184   -1.0645    4.5870 H   0  0  0  0  0  0  0  0  0  0  0  0
   -3.2755   -3.3880    4.5425 H   0  0  0  0  0  0  0  0  0  0  0  0
   -1.6373   -3.8037    3.8989 H   0  0  0  0  0  0  0  0  0  0  0  0
   -1.8200   -3.2132    5.5997 H   0  0  0  0  0  0  0  0  0  0  0  0
   -2.2855    0.8632    3.7535 H   0  0  0  0  0  0  0  0  0  0  0  0
   -3.2807    2.1928    4.3486 H   0  0  0  0  0  0  0  0  0  0  0  0
   -0.9432    3.3650    4.8514 H   0  0  0  0  0  0  0  0  0  0  0  0
   -0.2477    2.0602    3.8296 H   0  0  0  0  0  0  0  0  0  0  0  0
   -1.4659    3.2125    3.1376 H   0  0  0  0  0  0  0  0  0  0  0  0
   -1.5826    5.5904    4.6794 H   0  0  0  0  0  0  0  0  0  0  0  0
    0.9917    5.4661    4.7900 H   0  0  0  0  0  0  0  0  0  0  0  0
    2.7031    8.7724    5.8472 H   0  0  0  0  0  0  0  0  0  0  0  0
    3.0515    7.1859    5.0623 H   0  0  0  0  0  0  0  0  0  0  0  0
    2.3678    7.6698    8.0423 H   0  0  0  0  0  0  0  0  0  0  0  0
    2.5342    6.0416    7.2900 H   0  0  0  0  0  0  0  0  0  0  0  0
    3.9514    7.1397    7.3338 H   0  0  0  0  0  0  0  0  0  0  0  0
   -2.8904    9.4638    4.1565 H   0  0  0  0  0  0  0  0  0  0  0  0
   -6.4369   10.2928    4.2179 H   0  0  0  0  0  0  0  0  0  0  0  0
   -6.2943   11.2858   -1.2074 H   0  0  0  0  0  0  0  0  0  0  0  0
   -3.0222    7.4597   -0.4695 H   0  0  0  0  0  0  0  0  0  0  0  0
   -2.6810    8.8992   -3.6167 H   0  0  0  0  0  0  0  0  0  0  0  0
   -3.6801    6.5814   -4.1681 H   0  0  0  0  0  0  0  0  0  0  0  0
   -5.8462    6.1647   -2.6692 H   0  0  0  0  0  0  0  0  0  0  0  0
   -7.5574    8.0581   -3.1808 H   0  0  0  0  0  0  0  0  0  0  0  0
   -6.4677    9.7222   -4.9494 H   0  0  0  0  0  0  0  0  0  0  0  0
   -5.5789    7.3950   -5.8217 H   0  0  0  0  0  0  0  0  0  0  0  0
   -4.2020    8.5974   -5.8370 H   0  0  0  0  0  0  0  0  0  0  0  0
   -4.2186   10.6445   -4.0383 H   0  0  0  0  0  0  0  0  0  0  0  0
  1  2  2  3
  2  3  1  0
  3  4  2  0
  3  5  1  0
  5  6  2  0
  6  7  1  0
  7  8  2  0
  8  9  1  0
  9 10  2  0
 10 11  1  0
 11 12  2  3
 12 13  1  0
 13 14  3  0
 12 15  1  0
 15 16  3  0
  8 17  1  0
 17 18  1  0
 18 19  1  0
 19 20  2  0
 20 21  1  0
 21 22  1  0
 21 23  1  0
  1 24  1  0
 24 25  2  0
 25 26  1  0
 26 27  1  0
 27 28  2  0
 28 29  1  0
 29 30  2  0
 30 31  1  0
 30 32  1  0
 32 33  2  0
 26 34  1  0
 34 35  2  0
 35 36  1  0
 36 37  2  0
 37 38  1  0
 37 39  1  0
 39 40  2  0
 25 41  1  0
 41 42  1  0
 42 43  1  0
 43 44  2  0
 44 45  1  0
 45 46  1  0
 46 47  2  0
 47 48  1  0
 48 49  2  0
 49 50  1  0
 49 51  1  0
 51 52  2  0
 45 53  1  0
 53 54  2  0
 54 55  1  0
 55 56  2  0
 56 57  1  0
 56 58  1  0
 58 59  2  0
 44 60  1  0
 60 61  1  0
 43 62  1  0
 62 63  2  0
 63 64  1  0
 64 65  2  0
 65 66  1  0
 66 67  2  0
 67 68  1  0
 68 69  1  0
 69 70  1  0
 68 71  2  0
 63 72  1  0
 72 73  1  0
 73 74  1  0
 74 75  1  0
 75 76  1  0
 76 77  1  0
 77 78  2  0
 78 79  1  0
 79 80  1  0
 77 81  1  0
 81 82  1  0
 82 83  1  0
 83 84  1  0
 84 85  1  0
 85 86  1  0
 86 87  2  0
 87 88  1  0
 88 89  2  0
 89 90  1  0
 90 91  1  0
 91 92  1  0
 90 93  2  0
 85 94  2  0
 94 95  1  0
 95 96  1  0
 96 97  1  0
 97 98  1  0
 98 99  1  0
 99100  1  0
100101  1  0
101102  1  0
102103  1  0
103104  1  0
101105  1  0
105106  1  0
 98107  1  0
107108  1  0
 94109  1  0
109110  2  0
110111  1  0
111112  2  0
112113  1  0
113114  2  0
114115  1  0
115116  1  0
114117  1  0
110118  1  0
118119  2  0
119120  1  0
119121  1  0
121122  2  3
122123  1  0
123124  2  0
123125  1  0
125126  2  0
126127  1  0
127128  2  0
128129  1  0
129130  2  0
130131  1  0
131132  2  3
132133  1  0
133134  3  0
132135  1  0
135136  3  0
128137  1  0
137138  1  0
138139  1  0
139140  2  0
140141  1  0
141142  1  0
141143  1  0
 11  2  1  0
 23 17  1  0
 61 24  1  0
104 62  1  0
120109  1  0
131122  1  0
143137  1  0
 10  5  1  0
 22 18  1  0
 33 27  1  0
 40 34  1  0
 60 41  2  0
 71 64  1  0
103 72  2  0
117111  1  0
130125  1  0
142138  1  0
 23  7  1  0
 52 46  1  0
 59 53  1  0
102 74  2  0
143127  1  0
100 75  2  0
 80 76  2  0
 99 81  2  0
 97 82  2  0
 96 84  2  0
 93 86  1  0
  1144  1  0
  6145  1  0
  9146  1  0
 17147  1  0
 18148  1  0
 19149  1  0
 20150  1  0
 21151  1  0
 22152  1  0
 22153  1  0
 23154  1  0
 28155  1  0
 29156  1  0
 31157  1  0
 31158  1  0
 31159  1  0
 32160  1  0
 33161  1  0
 35162  1  0
 36163  1  0
 38164  1  0
 38165  1  0
 38166  1  0
 39167  1  0
 40168  1  0
 47169  1  0
 48170  1  0
 50171  1  0
 50172  1  0
 50173  1  0
 51174  1  0
 52175  1  0
 54176  1  0
 55177  1  0
 57178  1  0
 57179  1  0
 57180  1  0
 58181  1  0
 59182  1  0
 65183  1  0
 66184  1  0
 67185  1  0
 69186  1  0
 69187  1  0
 70188  1  0
 70189  1  0
 70190  1  0
 71191  1  0
 87192  1  0
 88193  1  0
 89194  1  0
 91195  1  0
 91196  1  0
 92197  1  0
 92198  1  0
 92199  1  0
 93200  1  0
105201  1  0
105202  1  0
106203  1  0
106204  1  0
106205  1  0
107206  1  0
107207  1  0
108208  1  0
108209  1  0
108210  1  0
112211  1  0
113212  1  0
115213  1  0
115214  1  0
116215  1  0
116216  1  0
116217  1  0
118218  1  0
121219  1  0
126220  1  0
129221  1  0
137222  1  0
138223  1  0
139224  1  0
140225  1  0
141226  1  0
142227  1  0
142228  1  0
143229  1  0
M  END

