
     RDKit          3D

138155  0  0  0  0  0  0  0  0999 V2000
   -4.2281    7.7470   -2.1102 C   0  0  0  0  0  0  0  0  0  0  0  0
   -4.6600    6.4667   -1.9950 C   0  0  0  0  0  0  0  0  0  0  0  0
   -3.8784    5.3530   -1.4323 C   0  0  0  0  0  0  0  0  0  0  0  0
   -2.8724    5.4445   -0.6797 O   0  0  0  0  0  0  0  0  0  0  0  0
   -4.4433    4.1037   -1.8797 C   0  0  0  0  0  0  0  0  0  0  0  0
   -3.9688    2.8082   -1.5744 C   0  0  0  0  0  0  0  0  0  0  0  0
   -4.7037    1.7957   -2.1514 C   0  0  0  0  0  0  0  0  0  0  0  0
   -5.8375    2.0308   -2.9902 C   0  0  0  0  0  0  0  0  0  0  0  0
   -6.3104    3.2993   -3.2918 C   0  0  0  0  0  0  0  0  0  0  0  0
   -5.5716    4.3666   -2.6959 C   0  0  0  0  0  0  0  0  0  0  0  0
   -5.8085    5.8425   -2.7214 C   0  0  0  0  0  0  0  0  0  0  0  0
   -6.9146    6.4827   -3.1799 C   0  0  0  0  0  0  0  0  0  0  0  0
   -7.9039    5.8425   -4.0034 C   0  0  0  0  0  0  0  0  0  0  0  0
   -8.7146    5.3425   -4.6651 N   0  0  0  0  0  0  0  0  0  0  0  0
   -7.2558    7.8015   -2.7155 C   0  0  0  0  0  0  0  0  0  0  0  0
   -7.5475    8.8446   -2.3107 N   0  0  0  0  0  0  0  0  0  0  0  0
   -6.0027    0.5501   -3.1968 C   0  0  0  0  0  0  0  0  0  0  0  0
   -5.5614   -0.0490   -4.5652 C   0  0  0  0  0  0  0  0  0  0  0  0
   -4.4208    0.7557   -5.1403 C   0  0  0  0  0  0  0  0  0  0  0  0
   -3.3644    0.5378   -4.3538 C   0  0  0  0  0  0  0  0  0  0  0  0
   -3.8271   -0.4070   -3.2676 C   0  0  0  0  0  0  0  0  0  0  0  0
   -4.7802   -1.2588   -4.0822 C   0  0  0  0  0  0  0  0  0  0  0  0
   -4.8449    0.3112   -2.3310 C   0  0  0  0  0  0  0  0  0  0  0  0
   -2.8514    8.1081   -1.7411 C   0  0  0  0  0  0  0  0  0  0  0  0
   -2.5021    8.3030   -0.3995 C   0  0  0  0  0  0  0  0  0  0  0  0
   -1.1770    8.1128    0.0101 C   0  0  0  0  0  0  0  0  0  0  0  0
   -0.2031    7.7233   -0.9246 C   0  0  0  0  0  0  0  0  0  0  0  0
   -0.5274    7.7393   -2.2874 C   0  0  0  0  0  0  0  0  0  0  0  0
   -1.8464    7.9267   -2.6943 C   0  0  0  0  0  0  0  0  0  0  0  0
    0.9252    6.8778   -0.4949 C   0  0  0  0  0  0  0  0  0  0  0  0
    1.7136    6.9988    0.6694 C   0  0  0  0  0  0  0  0  0  0  0  0
    1.7382    8.1850    1.5420 C   0  0  0  0  0  0  0  0  0  0  0  0
    1.4152    8.0694    2.9008 C   0  0  0  0  0  0  0  0  0  0  0  0
    1.4015    9.1990    3.7216 C   0  0  0  0  0  0  0  0  0  0  0  0
    1.7290   10.4495    3.2008 C   0  0  0  0  0  0  0  0  0  0  0  0
    2.0742   10.5835    1.8465 C   0  0  0  0  0  0  0  0  0  0  0  0
    2.4594   11.9275    1.2921 C   0  0  0  0  0  0  0  0  0  0  0  0
    1.2334   12.6741    0.7598 C   0  0  0  0  0  0  0  0  0  0  0  0
    2.0441    9.4505    1.0151 C   0  0  0  0  0  0  0  0  0  0  0  0
    2.3660    5.7880    0.9574 C   0  0  0  0  0  0  0  0  0  0  0  0
    3.2843    5.2131    2.2778 S   0  0  0  0  0  0  0  0  0  0  0  0
    3.3020    3.6314    1.6462 C   0  0  0  0  0  0  0  0  0  0  0  0
    3.3963    2.3683    2.1657 C   0  0  0  0  0  0  0  0  0  0  0  0
    3.7532    1.9173    3.4441 C   0  0  0  0  0  0  0  0  0  0  0  0
    3.5089    0.5550    3.7939 C   0  0  0  0  0  0  0  0  0  0  0  0
    3.8440    0.1687    5.0469 N   0  0  0  0  0  0  0  0  0  0  0  0
    4.4243    1.6030    5.6356 S   0  0  0  0  0  0  0  0  0  0  0  0
    4.2876    2.7053    4.4078 N   0  0  0  0  0  0  0  0  0  0  0  0
    2.9219   -0.2841    2.8407 C   0  0  0  0  0  0  0  0  0  0  0  0
    2.6640   -1.6256    2.8378 C   0  0  0  0  0  0  0  0  0  0  0  0
    2.9231   -3.0006    3.8081 S   0  0  0  0  0  0  0  0  0  0  0  0
    2.3760   -4.0215    2.5461 C   0  0  0  0  0  0  0  0  0  0  0  0
    2.2256   -5.4028    2.4016 C   0  0  0  0  0  0  0  0  0  0  0  0
    2.7152   -6.4020    3.3716 C   0  0  0  0  0  0  0  0  0  0  0  0
    2.3043   -6.3685    4.7143 C   0  0  0  0  0  0  0  0  0  0  0  0
    2.7294   -7.3635    5.5953 C   0  0  0  0  0  0  0  0  0  0  0  0
    3.5754   -8.3845    5.1519 C   0  0  0  0  0  0  0  0  0  0  0  0
    4.0199   -8.4088    3.8196 C   0  0  0  0  0  0  0  0  0  0  0  0
    4.9282   -9.5026    3.3335 C   0  0  0  0  0  0  0  0  0  0  0  0
    4.1219  -10.6567    2.7433 C   0  0  0  0  0  0  0  0  0  0  0  0
    3.5651   -7.4270    2.9323 C   0  0  0  0  0  0  0  0  0  0  0  0
    1.6963   -5.7200    1.1331 C   0  0  0  0  0  0  0  0  0  0  0  0
    1.5049   -4.3037    0.2162 S   0  0  0  0  0  0  0  0  0  0  0  0
    2.0538   -3.2993    1.4276 C   0  0  0  0  0  0  0  0  0  0  0  0
    2.2110   -1.9368    1.5969 C   0  0  0  0  0  0  0  0  0  0  0  0
    2.1891   -0.8772    0.7446 N   0  0  0  0  0  0  0  0  0  0  0  0
    2.5721    0.1623    1.5577 C   0  0  0  0  0  0  0  0  0  0  0  0
    2.7500    1.5317    1.2392 C   0  0  0  0  0  0  0  0  0  0  0  0
    2.1447    2.2668    0.2546 N   0  0  0  0  0  0  0  0  0  0  0  0
    2.5727    3.5315    0.5012 C   0  0  0  0  0  0  0  0  0  0  0  0
    2.0747    4.7611    0.0975 C   0  0  0  0  0  0  0  0  0  0  0  0
    1.0255    5.2818   -1.0797 S   0  0  0  0  0  0  0  0  0  0  0  0
    0.8395    1.9657   -0.3519 C   0  0  0  0  0  0  0  0  0  0  0  0
   -0.2824    2.1344    0.6645 C   0  0  0  0  0  0  0  0  0  0  0  0
    2.4461   -0.9945   -0.6986 C   0  0  0  0  0  0  0  0  0  0  0  0
    1.2078   -1.4597   -1.4764 C   0  0  0  0  0  0  0  0  0  0  0  0
    1.1976   -7.0346    0.6872 C   0  0  0  0  0  0  0  0  0  0  0  0
    0.3723   -7.8133    1.5153 C   0  0  0  0  0  0  0  0  0  0  0  0
    0.0408   -7.3823    2.7609 F   0  0  0  0  0  0  0  0  0  0  0  0
   -0.2065   -8.9895    1.0339 C   0  0  0  0  0  0  0  0  0  0  0  0
    0.0132   -9.4073   -0.2913 C   0  0  0  0  0  0  0  0  0  0  0  0
    0.8765   -8.6474   -1.1081 C   0  0  0  0  0  0  0  0  0  0  0  0
    1.1651   -9.0420   -2.3730 F   0  0  0  0  0  0  0  0  0  0  0  0
    1.4468   -7.4669   -0.6258 C   0  0  0  0  0  0  0  0  0  0  0  0
   -0.7385  -10.5702   -0.8324 C   0  0  0  0  0  0  0  0  0  0  0  0
   -1.3148  -11.5986   -0.0822 C   0  0  0  0  0  0  0  0  0  0  0  0
   -2.0966  -12.4822   -0.8410 C   0  0  0  0  0  0  0  0  0  0  0  0
   -2.1248  -12.1586   -2.1882 C   0  0  0  0  0  0  0  0  0  0  0  0
   -2.8826  -12.8455   -3.1957 C   0  0  0  0  0  0  0  0  0  0  0  0
   -3.4978  -13.4069   -4.0008 N   0  0  0  0  0  0  0  0  0  0  0  0
   -1.2150  -10.7722   -2.4415 S   0  0  0  0  0  0  0  0  0  0  0  0
   -4.7747    8.4600   -2.7089 H   0  0  0  0  0  0  0  0  0  0  0  0
   -3.1067    2.6237   -0.9503 H   0  0  0  0  0  0  0  0  0  0  0  0
   -7.1650    3.4168   -3.9375 H   0  0  0  0  0  0  0  0  0  0  0  0
   -6.9586    0.1461   -2.7901 H   0  0  0  0  0  0  0  0  0  0  0  0
   -6.3909   -0.2740   -5.2719 H   0  0  0  0  0  0  0  0  0  0  0  0
   -4.4248    1.3329   -6.0579 H   0  0  0  0  0  0  0  0  0  0  0  0
   -2.3571    0.9210   -4.5012 H   0  0  0  0  0  0  0  0  0  0  0  0
   -3.0198   -0.9589   -2.7456 H   0  0  0  0  0  0  0  0  0  0  0  0
   -5.3885   -1.9639   -3.4604 H   0  0  0  0  0  0  0  0  0  0  0  0
   -4.2851   -1.8236   -4.9090 H   0  0  0  0  0  0  0  0  0  0  0  0
   -5.0989   -0.2337   -1.3933 H   0  0  0  0  0  0  0  0  0  0  0  0
   -3.2688    8.4424    0.3501 H   0  0  0  0  0  0  0  0  0  0  0  0
   -0.9668    8.0903    1.0734 H   0  0  0  0  0  0  0  0  0  0  0  0
    0.2096    7.4373   -3.0255 H   0  0  0  0  0  0  0  0  0  0  0  0
   -2.1038    7.7731   -3.7346 H   0  0  0  0  0  0  0  0  0  0  0  0
    1.1385    7.1081    3.3172 H   0  0  0  0  0  0  0  0  0  0  0  0
    1.1287    9.1075    4.7642 H   0  0  0  0  0  0  0  0  0  0  0  0
    1.7327   11.3081    3.8563 H   0  0  0  0  0  0  0  0  0  0  0  0
    2.9419   12.5338    2.0885 H   0  0  0  0  0  0  0  0  0  0  0  0
    3.2052   11.8022    0.4728 H   0  0  0  0  0  0  0  0  0  0  0  0
    1.5411   13.6796    0.4051 H   0  0  0  0  0  0  0  0  0  0  0  0
    0.7855   12.1163   -0.0871 H   0  0  0  0  0  0  0  0  0  0  0  0
    0.4795   12.7933    1.5688 H   0  0  0  0  0  0  0  0  0  0  0  0
    2.3017    9.5456   -0.0368 H   0  0  0  0  0  0  0  0  0  0  0  0
    1.6263   -5.6001    5.0630 H   0  0  0  0  0  0  0  0  0  0  0  0
    2.3826   -7.3560    6.6236 H   0  0  0  0  0  0  0  0  0  0  0  0
    3.8917   -9.1589    5.8434 H   0  0  0  0  0  0  0  0  0  0  0  0
    5.5553   -9.8825    4.1723 H   0  0  0  0  0  0  0  0  0  0  0  0
    5.6235   -9.1061    2.5604 H   0  0  0  0  0  0  0  0  0  0  0  0
    3.5075  -10.2990    1.8874 H   0  0  0  0  0  0  0  0  0  0  0  0
    3.4624  -11.1035    3.5234 H   0  0  0  0  0  0  0  0  0  0  0  0
    4.8239  -11.4430    2.3783 H   0  0  0  0  0  0  0  0  0  0  0  0
    3.8706   -7.4583    1.8921 H   0  0  0  0  0  0  0  0  0  0  0  0
    0.7981    0.9432   -0.7210 H   0  0  0  0  0  0  0  0  0  0  0  0
    0.6567    2.6104   -1.2371 H   0  0  0  0  0  0  0  0  0  0  0  0
   -1.2457    1.8023    0.2178 H   0  0  0  0  0  0  0  0  0  0  0  0
   -0.0924    1.4791    1.5400 H   0  0  0  0  0  0  0  0  0  0  0  0
   -0.3461    3.1851    1.0084 H   0  0  0  0  0  0  0  0  0  0  0  0
    2.8029   -0.0319   -1.1125 H   0  0  0  0  0  0  0  0  0  0  0  0
    3.2732   -1.7158   -0.8668 H   0  0  0  0  0  0  0  0  0  0  0  0
    1.0400   -0.7955   -2.3494 H   0  0  0  0  0  0  0  0  0  0  0  0
    1.3615   -2.4837   -1.8767 H   0  0  0  0  0  0  0  0  0  0  0  0
    0.2967   -1.4506   -0.8358 H   0  0  0  0  0  0  0  0  0  0  0  0
   -0.8783   -9.5307    1.6801 H   0  0  0  0  0  0  0  0  0  0  0  0
    2.0850   -6.8773   -1.2706 H   0  0  0  0  0  0  0  0  0  0  0  0
   -1.1971  -11.7105    0.9891 H   0  0  0  0  0  0  0  0  0  0  0  0
   -2.6252  -13.3217   -0.4128 H   0  0  0  0  0  0  0  0  0  0  0  0
  1  2  2  3
  2  3  1  0
  3  4  2  0
  3  5  1  0
  5  6  2  0
  6  7  1  0
  7  8  2  0
  8  9  1  0
  9 10  2  0
 10 11  1  0
 11 12  2  3
 12 13  1  0
 13 14  3  0
 12 15  1  0
 15 16  3  0
  8 17  1  0
 17 18  1  0
 18 19  1  0
 19 20  2  0
 20 21  1  0
 21 22  1  0
 21 23  1  0
  1 24  1  0
 24 25  2  0
 25 26  1  0
 26 27  2  0
 27 28  1  0
 28 29  2  0
 27 30  1  0
 30 31  2  0
 31 32  1  0
 32 33  2  0
 33 34  1  0
 34 35  2  0
 35 36  1  0
 36 37  1  0
 37 38  1  0
 36 39  2  0
 31 40  1  0
 40 41  1  0
 41 42  1  0
 42 43  1  0
 43 44  1  0
 44 45  1  0
 45 46  2  0
 46 47  1  0
 47 48  1  0
 45 49  1  0
 49 50  1  0
 50 51  1  0
 51 52  1  0
 52 53  1  0
 53 54  1  0
 54 55  2  0
 55 56  1  0
 56 57  2  0
 57 58  1  0
 58 59  1  0
 59 60  1  0
 58 61  2  0
 53 62  2  0
 62 63  1  0
 63 64  1  0
 64 65  1  0
 65 66  1  0
 66 67  1  0
 67 68  1  0
 68 69  1  0
 69 70  1  0
 70 71  1  0
 71 72  1  0
 69 73  1  0
 73 74  1  0
 66 75  1  0
 75 76  1  0
 62 77  1  0
 77 78  2  0
 78 79  1  0
 78 80  1  0
 80 81  2  0
 81 82  1  0
 82 83  1  0
 82 84  2  0
 81 85  1  0
 85 86  2  0
 86 87  1  0
 87 88  2  0
 88 89  1  0
 89 90  3  0
 88 91  1  0
 11  2  1  0
 23 17  1  0
 29 24  1  0
 72 30  1  0
 84 77  1  0
 91 85  1  0
 10  5  1  0
 22 18  1  0
 39 32  1  0
 71 40  2  0
 23  7  1  0
 70 42  2  0
 68 43  2  0
 48 44  2  0
 67 49  2  0
 65 50  2  0
 64 52  2  0
 61 54  1  0
  1 92  1  0
  6 93  1  0
  9 94  1  0
 17 95  1  0
 18 96  1  0
 19 97  1  0
 20 98  1  0
 21 99  1  0
 22100  1  0
 22101  1  0
 23102  1  0
 25103  1  0
 26104  1  0
 28105  1  0
 29106  1  0
 33107  1  0
 34108  1  0
 35109  1  0
 37110  1  0
 37111  1  0
 38112  1  0
 38113  1  0
 38114  1  0
 39115  1  0
 55116  1  0
 56117  1  0
 57118  1  0
 59119  1  0
 59120  1  0
 60121  1  0
 60122  1  0
 60123  1  0
 61124  1  0
 73125  1  0
 73126  1  0
 74127  1  0
 74128  1  0
 74129  1  0
 75130  1  0
 75131  1  0
 76132  1  0
 76133  1  0
 76134  1  0
 80135  1  0
 84136  1  0
 86137  1  0
 87138  1  0
M  END

