
     RDKit          3D

281311  0  0  0  0  0  0  0  0999 V2000
    6.2472   -4.9097    3.2797 C   0  0  0  0  0  0  0  0  0  0  0  0
    5.0275   -4.9041    3.8391 C   0  0  0  0  0  0  0  0  0  0  0  0
    4.5380   -5.9366    4.7530 C   0  0  0  0  0  0  0  0  0  0  0  0
    5.1736   -6.9551    5.1289 O   0  0  0  0  0  0  0  0  0  0  0  0
    3.1990   -5.5802    5.1666 C   0  0  0  0  0  0  0  0  0  0  0  0
    2.3046   -6.3210    5.9706 C   0  0  0  0  0  0  0  0  0  0  0  0
    1.0470   -5.7484    6.0775 C   0  0  0  0  0  0  0  0  0  0  0  0
    0.6876   -4.5206    5.4320 C   0  0  0  0  0  0  0  0  0  0  0  0
    1.5499   -3.8102    4.6271 C   0  0  0  0  0  0  0  0  0  0  0  0
    2.8502   -4.3641    4.5338 C   0  0  0  0  0  0  0  0  0  0  0  0
    3.9685   -3.8620    3.6976 C   0  0  0  0  0  0  0  0  0  0  0  0
    3.7180   -3.2495    2.5366 C   0  0  0  0  0  0  0  0  0  0  0  0
    3.3610   -1.8543    2.5668 C   0  0  0  0  0  0  0  0  0  0  0  0
    3.0801   -0.7315    2.6012 N   0  0  0  0  0  0  0  0  0  0  0  0
    3.1714   -4.0388    1.4583 C   0  0  0  0  0  0  0  0  0  0  0  0
    2.7250   -4.6629    0.5908 N   0  0  0  0  0  0  0  0  0  0  0  0
   -0.6996   -4.6112    5.9893 C   0  0  0  0  0  0  0  0  0  0  0  0
   -1.8500   -5.0009    5.0133 C   0  0  0  0  0  0  0  0  0  0  0  0
   -1.3115   -5.8977    3.9217 C   0  0  0  0  0  0  0  0  0  0  0  0
   -0.9856   -7.0533    4.5037 C   0  0  0  0  0  0  0  0  0  0  0  0
   -1.3143   -6.9041    5.9712 C   0  0  0  0  0  0  0  0  0  0  0  0
   -2.5614   -6.0452    5.8520 C   0  0  0  0  0  0  0  0  0  0  0  0
   -0.3410   -5.8783    6.6348 C   0  0  0  0  0  0  0  0  0  0  0  0
    6.7948   -3.7896    2.4906 C   0  0  0  0  0  0  0  0  0  0  0  0
    7.1522   -3.8296    1.1272 C   0  0  0  0  0  0  0  0  0  0  0  0
    6.7906   -4.9014    0.2281 N   0  0  0  0  0  0  0  0  0  0  0  0
    6.9829   -6.2684    0.6302 C   0  0  0  0  0  0  0  0  0  0  0  0
    5.9264   -7.1835    0.5474 C   0  0  0  0  0  0  0  0  0  0  0  0
    6.0946   -8.4986    0.9933 C   0  0  0  0  0  0  0  0  0  0  0  0
    7.3217   -8.9070    1.5375 C   0  0  0  0  0  0  0  0  0  0  0  0
    7.5248  -10.3207    1.9849 C   0  0  0  0  0  0  0  0  0  0  0  0
    8.3872   -7.9924    1.6047 C   0  0  0  0  0  0  0  0  0  0  0  0
    8.2194   -6.6822    1.1513 C   0  0  0  0  0  0  0  0  0  0  0  0
    6.1717   -4.6070   -1.0427 C   0  0  0  0  0  0  0  0  0  0  0  0
    6.5862   -5.2852   -2.2034 C   0  0  0  0  0  0  0  0  0  0  0  0
    6.0839   -4.9122   -3.4548 C   0  0  0  0  0  0  0  0  0  0  0  0
    5.1517   -3.8720   -3.5661 C   0  0  0  0  0  0  0  0  0  0  0  0
    4.6435   -3.4600   -4.9164 C   0  0  0  0  0  0  0  0  0  0  0  0
    4.6969   -3.2257   -2.4034 C   0  0  0  0  0  0  0  0  0  0  0  0
    5.2139   -3.5857   -1.1574 C   0  0  0  0  0  0  0  0  0  0  0  0
    7.6209   -2.5790    0.7045 C   0  0  0  0  0  0  0  0  0  0  0  0
    7.8693   -1.9009   -0.8049 S   0  0  0  0  0  0  0  0  0  0  0  0
    7.8900   -0.2936   -0.2691 C   0  0  0  0  0  0  0  0  0  0  0  0
    7.7345   -0.2864    1.1390 C   0  0  0  0  0  0  0  0  0  0  0  0
    7.5060    0.8843    1.9552 N   0  0  0  0  0  0  0  0  0  0  0  0
    6.4971    1.8423    1.5812 C   0  0  0  0  0  0  0  0  0  0  0  0
    6.7386    3.2177    1.7216 C   0  0  0  0  0  0  0  0  0  0  0  0
    5.7789    4.1504    1.3105 C   0  0  0  0  0  0  0  0  0  0  0  0
    4.5463    3.7182    0.7961 C   0  0  0  0  0  0  0  0  0  0  0  0
    3.5210    4.7011    0.3258 C   0  0  0  0  0  0  0  0  0  0  0  0
    4.2912    2.3393    0.6938 C   0  0  0  0  0  0  0  0  0  0  0  0
    5.2585    1.4113    1.0816 C   0  0  0  0  0  0  0  0  0  0  0  0
    8.1169    0.9547    3.2647 C   0  0  0  0  0  0  0  0  0  0  0  0
    9.4333    0.5035    3.4653 C   0  0  0  0  0  0  0  0  0  0  0  0
    9.9775    0.4556    4.7505 C   0  0  0  0  0  0  0  0  0  0  0  0
    9.2211    0.8648    5.8578 C   0  0  0  0  0  0  0  0  0  0  0  0
    9.7973    0.8131    7.2454 C   0  0  0  0  0  0  0  0  0  0  0  0
    7.9234    1.3572    5.6611 C   0  0  0  0  0  0  0  0  0  0  0  0
    7.3732    1.3954    4.3777 C   0  0  0  0  0  0  0  0  0  0  0  0
    7.5984   -1.5919    1.6364 C   0  0  0  0  0  0  0  0  0  0  0  0
    7.0210   -2.2087    3.0867 S   0  0  0  0  0  0  0  0  0  0  0  0
    7.5266    0.7985   -1.1875 C   0  0  0  0  0  0  0  0  0  0  0  0
    8.0454    2.1172   -1.2254 C   0  0  0  0  0  0  0  0  0  0  0  0
    9.2990    2.5536   -0.5446 C   0  0  0  0  0  0  0  0  0  0  0  0
   10.3837    1.6630   -0.4350 C   0  0  0  0  0  0  0  0  0  0  0  0
   11.5882    2.0725    0.1411 C   0  0  0  0  0  0  0  0  0  0  0  0
   11.7479    3.3879    0.5741 C   0  0  0  0  0  0  0  0  0  0  0  0
   10.6836    4.2933    0.4839 C   0  0  0  0  0  0  0  0  0  0  0  0
   10.8750    5.7249    0.9251 C   0  0  0  0  0  0  0  0  0  0  0  0
   11.0721    5.8229    2.4369 C   0  0  0  0  0  0  0  0  0  0  0  0
    9.4595    3.8671   -0.0593 C   0  0  0  0  0  0  0  0  0  0  0  0
    7.2193    2.9339   -2.0288 C   0  0  0  0  0  0  0  0  0  0  0  0
    7.0407    4.6268   -2.2262 S   0  0  0  0  0  0  0  0  0  0  0  0
    5.5780    4.4316   -3.0617 C   0  0  0  0  0  0  0  0  0  0  0  0
    4.4694    5.1644   -3.3617 C   0  0  0  0  0  0  0  0  0  0  0  0
    4.2286    6.5367   -3.2791 C   0  0  0  0  0  0  0  0  0  0  0  0
    2.9094    7.0158   -3.4968 C   0  0  0  0  0  0  0  0  0  0  0  0
    2.7133    8.3556   -3.3889 N   0  0  0  0  0  0  0  0  0  0  0  0
    4.2638    8.8364   -3.0554 S   0  0  0  0  0  0  0  0  0  0  0  0
    5.1880    7.4620   -3.0136 N   0  0  0  0  0  0  0  0  0  0  0  0
    1.8832    6.0917   -3.7315 C   0  0  0  0  0  0  0  0  0  0  0  0
    0.5282    6.2602   -3.6116 C   0  0  0  0  0  0  0  0  0  0  0  0
   -0.4705    7.4741   -2.9534 S   0  0  0  0  0  0  0  0  0  0  0  0
   -1.6550    6.3337   -2.5116 C   0  0  0  0  0  0  0  0  0  0  0  0
   -2.8086    6.3927   -1.7126 C   0  0  0  0  0  0  0  0  0  0  0  0
   -3.4909    7.6419   -1.3270 C   0  0  0  0  0  0  0  0  0  0  0  0
   -2.8050    8.6558   -0.6419 C   0  0  0  0  0  0  0  0  0  0  0  0
   -3.4496    9.8575   -0.3406 C   0  0  0  0  0  0  0  0  0  0  0  0
   -4.7712   10.0692   -0.7427 C   0  0  0  0  0  0  0  0  0  0  0  0
   -5.4608    9.0762   -1.4538 C   0  0  0  0  0  0  0  0  0  0  0  0
   -6.8807    9.3012   -1.9068 C   0  0  0  0  0  0  0  0  0  0  0  0
   -7.8698    8.6657   -0.9379 C   0  0  0  0  0  0  0  0  0  0  0  0
   -4.8204    7.8539   -1.7257 C   0  0  0  0  0  0  0  0  0  0  0  0
   -3.2486    5.0971   -1.3916 C   0  0  0  0  0  0  0  0  0  0  0  0
   -2.2284    3.9405   -2.0971 S   0  0  0  0  0  0  0  0  0  0  0  0
   -1.2450    5.0656   -2.8336 C   0  0  0  0  0  0  0  0  0  0  0  0
   -0.0060    5.0191   -3.4635 C   0  0  0  0  0  0  0  0  0  0  0  0
    0.9194    4.0320   -3.5465 N   0  0  0  0  0  0  0  0  0  0  0  0
    2.1089    4.6959   -3.7399 C   0  0  0  0  0  0  0  0  0  0  0  0
    3.4552    4.2266   -3.6458 C   0  0  0  0  0  0  0  0  0  0  0  0
    3.9638    2.9444   -3.6224 N   0  0  0  0  0  0  0  0  0  0  0  0
    5.2361    3.1350   -3.1976 C   0  0  0  0  0  0  0  0  0  0  0  0
    6.1597    2.2823   -2.6190 C   0  0  0  0  0  0  0  0  0  0  0  0
    6.1242    0.6842   -2.1559 S   0  0  0  0  0  0  0  0  0  0  0  0
    3.6318    1.8036   -4.4900 C   0  0  0  0  0  0  0  0  0  0  0  0
    3.0012    2.2299   -5.8267 C   0  0  0  0  0  0  0  0  0  0  0  0
    0.6697    2.6563   -3.0999 C   0  0  0  0  0  0  0  0  0  0  0  0
    1.0055    2.4832   -1.6257 C   0  0  0  0  0  0  0  0  0  0  0  0
   -4.2567    4.6965   -0.4098 C   0  0  0  0  0  0  0  0  0  0  0  0
   -3.8833    3.9221    0.6941 C   0  0  0  0  0  0  0  0  0  0  0  0
   -4.8093    2.9183    1.0285 C   0  0  0  0  0  0  0  0  0  0  0  0
   -4.5880    1.8476    1.9228 C   0  0  0  0  0  0  0  0  0  0  0  0
   -3.3353    1.7097    2.6850 C   0  0  0  0  0  0  0  0  0  0  0  0
   -2.0595    1.6069    2.1417 C   0  0  0  0  0  0  0  0  0  0  0  0
   -1.0791    1.2969    3.0903 C   0  0  0  0  0  0  0  0  0  0  0  0
   -1.5910    1.1401    4.3736 C   0  0  0  0  0  0  0  0  0  0  0  0
   -0.6536    0.5987    5.8684 Si  0  0  0  0  0  4  0  0  0  0  0  0
   -1.6701   -0.7537    6.7014 C   0  0  0  0  0  0  0  0  0  0  0  0
   -1.2814   -0.9844    8.1580 C   0  0  0  0  0  0  0  0  0  0  0  0
   -0.4454    2.0667    7.0197 C   0  0  0  0  0  0  0  0  0  0  0  0
    0.0776    3.2912    6.2782 C   0  0  0  0  0  0  0  0  0  0  0  0
    1.0127   -0.0351    5.2640 C   0  0  0  0  0  0  0  0  0  0  0  0
    1.8310   -0.7251    6.3460 C   0  0  0  0  0  0  0  0  0  0  0  0
   -3.2492    1.3989    4.3374 S   0  0  0  0  0  0  0  0  0  0  0  0
   -5.5382    0.8075    1.9180 C   0  0  0  0  0  0  0  0  0  0  0  0
   -6.6621    0.8193    1.0847 C   0  0  0  0  0  0  0  0  0  0  0  0
   -6.9017    1.9080    0.2233 C   0  0  0  0  0  0  0  0  0  0  0  0
   -7.8977    1.8181   -0.8551 C   0  0  0  0  0  0  0  0  0  0  0  0
   -9.2749    1.6930   -0.7142 C   0  0  0  0  0  0  0  0  0  0  0  0
   -9.9389    1.5802   -1.9413 C   0  0  0  0  0  0  0  0  0  0  0  0
   -9.0783    1.6096   -3.0355 C   0  0  0  0  0  0  0  0  0  0  0  0
   -9.5155    1.6071   -4.8201 Si  0  0  0  0  0  4  0  0  0  0  0  0
   -9.1867    3.3397   -5.4745 C   0  0  0  0  0  0  0  0  0  0  0  0
   -9.8969    4.3986   -4.6375 C   0  0  0  0  0  0  0  0  0  0  0  0
  -11.3177    1.0976   -5.0365 C   0  0  0  0  0  0  0  0  0  0  0  0
  -11.8976    1.5176   -6.3822 C   0  0  0  0  0  0  0  0  0  0  0  0
   -8.3164    0.3917   -5.6174 C   0  0  0  0  0  0  0  0  0  0  0  0
   -8.5447    0.2313   -7.1123 C   0  0  0  0  0  0  0  0  0  0  0  0
   -7.5068    1.7702   -2.4870 S   0  0  0  0  0  0  0  0  0  0  0  0
   -5.9471    2.9413    0.2194 C   0  0  0  0  0  0  0  0  0  0  0  0
   -5.7731    4.1708   -0.9148 S   0  0  0  0  0  0  0  0  0  0  0  0
   -7.3412   -0.4139    1.0505 C   0  0  0  0  0  0  0  0  0  0  0  0
   -6.6980   -1.4107    1.7833 C   0  0  0  0  0  0  0  0  0  0  0  0
   -5.3642   -0.7415    2.5684 S   0  0  0  0  0  0  0  0  0  0  0  0
   -7.0436   -2.8449    1.7934 C   0  0  0  0  0  0  0  0  0  0  0  0
   -7.3645   -3.5456    0.6811 C   0  0  0  0  0  0  0  0  0  0  0  0
   -7.4425   -3.0175   -0.6882 C   0  0  0  0  0  0  0  0  0  0  0  0
   -6.7603   -2.0704   -1.1648 O   0  0  0  0  0  0  0  0  0  0  0  0
   -8.3524   -3.8434   -1.4488 C   0  0  0  0  0  0  0  0  0  0  0  0
   -8.8654   -3.5809   -2.7394 C   0  0  0  0  0  0  0  0  0  0  0  0
   -9.7997   -4.5027   -3.1697 C   0  0  0  0  0  0  0  0  0  0  0  0
  -10.2013   -5.6367   -2.3906 C   0  0  0  0  0  0  0  0  0  0  0  0
   -9.7017   -5.8989   -1.1202 C   0  0  0  0  0  0  0  0  0  0  0  0
   -8.7334   -4.9600   -0.6617 C   0  0  0  0  0  0  0  0  0  0  0  0
   -8.0055   -4.8945    0.6405 C   0  0  0  0  0  0  0  0  0  0  0  0
   -7.7444   -5.9328    1.4770 C   0  0  0  0  0  0  0  0  0  0  0  0
   -6.7742   -5.8378    2.5436 C   0  0  0  0  0  0  0  0  0  0  0  0
   -5.9920   -5.7745    3.3931 N   0  0  0  0  0  0  0  0  0  0  0  0
   -8.2949   -7.2442    1.2738 C   0  0  0  0  0  0  0  0  0  0  0  0
   -8.7225   -8.3090    1.1221 N   0  0  0  0  0  0  0  0  0  0  0  0
  -11.1353   -6.0715   -3.4821 C   0  0  0  0  0  0  0  0  0  0  0  0
  -10.6780   -7.2724   -4.3635 C   0  0  0  0  0  0  0  0  0  0  0  0
  -11.5663   -7.2494   -5.5838 C   0  0  0  0  0  0  0  0  0  0  0  0
  -11.2054   -6.1778   -6.2986 C   0  0  0  0  0  0  0  0  0  0  0  0
  -10.0812   -5.5195   -5.5384 C   0  0  0  0  0  0  0  0  0  0  0  0
   -9.3974   -6.7628   -4.9998 C   0  0  0  0  0  0  0  0  0  0  0  0
  -10.7366   -4.9028   -4.2691 C   0  0  0  0  0  0  0  0  0  0  0  0
    6.8873   -5.7561    3.4480 H   0  0  0  0  0  0  0  0  0  0  0  0
    2.5574   -7.2640    6.4347 H   0  0  0  0  0  0  0  0  0  0  0  0
    1.2397   -2.9306    4.0888 H   0  0  0  0  0  0  0  0  0  0  0  0
   -0.9493   -3.8151    6.7183 H   0  0  0  0  0  0  0  0  0  0  0  0
   -2.4761   -4.1596    4.6578 H   0  0  0  0  0  0  0  0  0  0  0  0
   -1.2873   -5.6947    2.8555 H   0  0  0  0  0  0  0  0  0  0  0  0
   -0.6658   -7.9548    3.9930 H   0  0  0  0  0  0  0  0  0  0  0  0
   -1.4426   -7.8582    6.5253 H   0  0  0  0  0  0  0  0  0  0  0  0
   -2.9310   -5.6558    6.8270 H   0  0  0  0  0  0  0  0  0  0  0  0
   -3.3923   -6.5527    5.3078 H   0  0  0  0  0  0  0  0  0  0  0  0
   -0.3837   -5.8351    7.7481 H   0  0  0  0  0  0  0  0  0  0  0  0
    4.9639   -6.8794    0.1574 H   0  0  0  0  0  0  0  0  0  0  0  0
    5.2660   -9.1940    0.9218 H   0  0  0  0  0  0  0  0  0  0  0  0
    8.1953  -10.3559    2.8677 H   0  0  0  0  0  0  0  0  0  0  0  0
    6.5605  -10.7977    2.2662 H   0  0  0  0  0  0  0  0  0  0  0  0
    7.9817  -10.9015    1.1570 H   0  0  0  0  0  0  0  0  0  0  0  0
    9.3482   -8.3002    2.0027 H   0  0  0  0  0  0  0  0  0  0  0  0
    9.0471   -5.9879    1.2040 H   0  0  0  0  0  0  0  0  0  0  0  0
    7.3283   -6.0698   -2.1441 H   0  0  0  0  0  0  0  0  0  0  0  0
    6.4389   -5.4226   -4.3429 H   0  0  0  0  0  0  0  0  0  0  0  0
    4.0437   -2.5241   -4.8562 H   0  0  0  0  0  0  0  0  0  0  0  0
    4.0071   -4.2645   -5.3431 H   0  0  0  0  0  0  0  0  0  0  0  0
    5.5035   -3.2788   -5.5999 H   0  0  0  0  0  0  0  0  0  0  0  0
    3.9837   -2.4150   -2.4648 H   0  0  0  0  0  0  0  0  0  0  0  0
    4.9181   -3.0141   -0.2919 H   0  0  0  0  0  0  0  0  0  0  0  0
    7.6856    3.5664    2.1197 H   0  0  0  0  0  0  0  0  0  0  0  0
    6.0067    5.2051    1.3750 H   0  0  0  0  0  0  0  0  0  0  0  0
    3.4247    4.6475   -0.7757 H   0  0  0  0  0  0  0  0  0  0  0  0
    3.7970    5.7400    0.6131 H   0  0  0  0  0  0  0  0  0  0  0  0
    2.5337    4.4607    0.7776 H   0  0  0  0  0  0  0  0  0  0  0  0
    3.3419    1.9861    0.3175 H   0  0  0  0  0  0  0  0  0  0  0  0
    5.0489    0.3572    0.9854 H   0  0  0  0  0  0  0  0  0  0  0  0
   10.0262    0.1593    2.6287 H   0  0  0  0  0  0  0  0  0  0  0  0
   10.9846    0.0811    4.8857 H   0  0  0  0  0  0  0  0  0  0  0  0
   10.1737    1.8152    7.5250 H   0  0  0  0  0  0  0  0  0  0  0  0
    9.0188    0.4968    7.9715 H   0  0  0  0  0  0  0  0  0  0  0  0
   10.6340    0.0822    7.3050 H   0  0  0  0  0  0  0  0  0  0  0  0
    7.3296    1.6842    6.5034 H   0  0  0  0  0  0  0  0  0  0  0  0
    6.3495    1.7269    4.2548 H   0  0  0  0  0  0  0  0  0  0  0  0
   10.3184    0.6543   -0.8207 H   0  0  0  0  0  0  0  0  0  0  0  0
   12.4121    1.3743    0.2311 H   0  0  0  0  0  0  0  0  0  0  0  0
   12.7071    3.7025    0.9700 H   0  0  0  0  0  0  0  0  0  0  0  0
   11.7634    6.1481    0.4088 H   0  0  0  0  0  0  0  0  0  0  0  0
    9.9965    6.3431    0.6366 H   0  0  0  0  0  0  0  0  0  0  0  0
   11.1111    6.8931    2.7314 H   0  0  0  0  0  0  0  0  0  0  0  0
   10.2365    5.3311    2.9747 H   0  0  0  0  0  0  0  0  0  0  0  0
   12.0298    5.3482    2.7315 H   0  0  0  0  0  0  0  0  0  0  0  0
    8.6393    4.5635   -0.0880 H   0  0  0  0  0  0  0  0  0  0  0  0
   -1.7776    8.5086   -0.3349 H   0  0  0  0  0  0  0  0  0  0  0  0
   -2.9163   10.6365    0.1916 H   0  0  0  0  0  0  0  0  0  0  0  0
   -5.2516   11.0104   -0.5098 H   0  0  0  0  0  0  0  0  0  0  0  0
   -7.0269    8.8659   -2.9192 H   0  0  0  0  0  0  0  0  0  0  0  0
   -7.0918   10.3893   -1.9857 H   0  0  0  0  0  0  0  0  0  0  0  0
   -7.7032    7.5688   -0.8764 H   0  0  0  0  0  0  0  0  0  0  0  0
   -8.9080    8.8406   -1.2954 H   0  0  0  0  0  0  0  0  0  0  0  0
   -7.7593    9.1125    0.0736 H   0  0  0  0  0  0  0  0  0  0  0  0
   -5.3498    7.0868   -2.2786 H   0  0  0  0  0  0  0  0  0  0  0  0
    3.0391    1.0423   -3.9492 H   0  0  0  0  0  0  0  0  0  0  0  0
    4.5626    1.2582   -4.7625 H   0  0  0  0  0  0  0  0  0  0  0  0
    3.6256    3.0136   -6.3056 H   0  0  0  0  0  0  0  0  0  0  0  0
    1.9816    2.6454   -5.6962 H   0  0  0  0  0  0  0  0  0  0  0  0
    2.9409    1.3627   -6.5145 H   0  0  0  0  0  0  0  0  0  0  0  0
   -0.3892    2.3891   -3.2748 H   0  0  0  0  0  0  0  0  0  0  0  0
    1.1970    1.9338   -3.7103 H   0  0  0  0  0  0  0  0  0  0  0  0
    0.6793    1.4787   -1.2815 H   0  0  0  0  0  0  0  0  0  0  0  0
    2.0993    2.5807   -1.4843 H   0  0  0  0  0  0  0  0  0  0  0  0
    0.4908    3.2528   -1.0175 H   0  0  0  0  0  0  0  0  0  0  0  0
   -2.8854    3.9692    1.1080 H   0  0  0  0  0  0  0  0  0  0  0  0
   -1.8507    1.7088    1.0825 H   0  0  0  0  0  0  0  0  0  0  0  0
   -0.0390    1.1561    2.8313 H   0  0  0  0  0  0  0  0  0  0  0  0
   -2.7405   -0.4616    6.6647 H   0  0  0  0  0  0  0  0  0  0  0  0
   -1.5492   -1.6848    6.1138 H   0  0  0  0  0  0  0  0  0  0  0  0
   -1.5163   -0.0868    8.7668 H   0  0  0  0  0  0  0  0  0  0  0  0
   -0.2059   -1.2226    8.2583 H   0  0  0  0  0  0  0  0  0  0  0  0
   -1.8646   -1.8410    8.5590 H   0  0  0  0  0  0  0  0  0  0  0  0
   -1.4326    2.3042    7.4679 H   0  0  0  0  0  0  0  0  0  0  0  0
    0.2582    1.7909    7.8308 H   0  0  0  0  0  0  0  0  0  0  0  0
   -0.6429    3.6074    5.4950 H   0  0  0  0  0  0  0  0  0  0  0  0
    1.0601    3.0760    5.8100 H   0  0  0  0  0  0  0  0  0  0  0  0
    0.2008    4.1305    6.9943 H   0  0  0  0  0  0  0  0  0  0  0  0
    1.5885    0.8187    4.8534 H   0  0  0  0  0  0  0  0  0  0  0  0
    0.8196   -0.7465    4.4394 H   0  0  0  0  0  0  0  0  0  0  0  0
    1.3523   -1.6797    6.6451 H   0  0  0  0  0  0  0  0  0  0  0  0
    2.8412   -0.9642    5.9461 H   0  0  0  0  0  0  0  0  0  0  0  0
    1.9495   -0.0636    7.2284 H   0  0  0  0  0  0  0  0  0  0  0  0
   -9.7860    1.6933    0.2441 H   0  0  0  0  0  0  0  0  0  0  0  0
  -11.0113    1.4858   -2.0234 H   0  0  0  0  0  0  0  0  0  0  0  0
   -8.0932    3.5237   -5.4386 H   0  0  0  0  0  0  0  0  0  0  0  0
   -9.5193    3.4068   -6.5302 H   0  0  0  0  0  0  0  0  0  0  0  0
  -10.9952    4.2225   -4.6305 H   0  0  0  0  0  0  0  0  0  0  0  0
   -9.5168    4.3865   -3.5919 H   0  0  0  0  0  0  0  0  0  0  0  0
   -9.7032    5.4022   -5.0699 H   0  0  0  0  0  0  0  0  0  0  0  0
  -11.9165    1.5795   -4.2374 H   0  0  0  0  0  0  0  0  0  0  0  0
  -11.3938   -0.0035   -4.9222 H   0  0  0  0  0  0  0  0  0  0  0  0
  -11.8827    2.6236   -6.4822 H   0  0  0  0  0  0  0  0  0  0  0  0
  -12.9532    1.1823   -6.4473 H   0  0  0  0  0  0  0  0  0  0  0  0
  -11.3340    1.0648   -7.2215 H   0  0  0  0  0  0  0  0  0  0  0  0
   -8.4144   -0.5949   -5.1175 H   0  0  0  0  0  0  0  0  0  0  0  0
   -7.2849    0.7672   -5.4488 H   0  0  0  0  0  0  0  0  0  0  0  0
   -8.5891    1.2230   -7.6116 H   0  0  0  0  0  0  0  0  0  0  0  0
   -7.7060   -0.3479   -7.5529 H   0  0  0  0  0  0  0  0  0  0  0  0
   -9.4831   -0.3297   -7.2967 H   0  0  0  0  0  0  0  0  0  0  0  0
   -8.2212   -0.6031    0.4510 H   0  0  0  0  0  0  0  0  0  0  0  0
   -7.0908   -3.3115    2.7637 H   0  0  0  0  0  0  0  0  0  0  0  0
   -8.5766   -2.7248   -3.3313 H   0  0  0  0  0  0  0  0  0  0  0  0
  -10.0677   -6.7303   -0.5401 H   0  0  0  0  0  0  0  0  0  0  0  0
  -12.2069   -6.0720   -3.1852 H   0  0  0  0  0  0  0  0  0  0  0  0
  -10.6061   -8.2537   -3.8478 H   0  0  0  0  0  0  0  0  0  0  0  0
  -12.3000   -7.9957   -5.8775 H   0  0  0  0  0  0  0  0  0  0  0  0
  -11.5895   -5.9032   -7.2758 H   0  0  0  0  0  0  0  0  0  0  0  0
   -9.4440   -4.8324   -6.1341 H   0  0  0  0  0  0  0  0  0  0  0  0
   -8.9985   -7.4305   -5.8005 H   0  0  0  0  0  0  0  0  0  0  0  0
   -8.5754   -6.5567   -4.2775 H   0  0  0  0  0  0  0  0  0  0  0  0
  -11.5494   -4.1678   -4.4535 H   0  0  0  0  0  0  0  0  0  0  0  0
  1  2  2  3
  2  3  1  0
  3  4  2  0
  3  5  1  0
  5  6  2  0
  6  7  1  0
  7  8  2  0
  8  9  1  0
  9 10  2  0
 10 11  1  0
 11 12  2  3
 12 13  1  0
 13 14  3  0
 12 15  1  0
 15 16  3  0
  8 17  1  0
 17 18  1  0
 18 19  1  0
 19 20  2  0
 20 21  1  0
 21 22  1  0
 21 23  1  0
  1 24  1  0
 24 25  2  0
 25 26  1  0
 26 27  1  0
 27 28  2  0
 28 29  1  0
 29 30  2  0
 30 31  1  0
 30 32  1  0
 32 33  2  0
 26 34  1  0
 34 35  2  0
 35 36  1  0
 36 37  2  0
 37 38  1  0
 37 39  1  0
 39 40  2  0
 25 41  1  0
 41 42  1  0
 42 43  1  0
 43 44  2  0
 44 45  1  0
 45 46  1  0
 46 47  2  0
 47 48  1  0
 48 49  2  0
 49 50  1  0
 49 51  1  0
 51 52  2  0
 45 53  1  0
 53 54  2  0
 54 55  1  0
 55 56  2  0
 56 57  1  0
 56 58  1  0
 58 59  2  0
 44 60  1  0
 60 61  1  0
 43 62  1  0
 62 63  2  0
 63 64  1  0
 64 65  2  0
 65 66  1  0
 66 67  2  0
 67 68  1  0
 68 69  1  0
 69 70  1  0
 68 71  2  0
 63 72  1  0
 72 73  1  0
 73 74  1  0
 74 75  1  0
 75 76  1  0
 76 77  1  0
 77 78  2  0
 78 79  1  0
 79 80  1  0
 77 81  1  0
 81 82  1  0
 82 83  1  0
 83 84  1  0
 84 85  1  0
 85 86  1  0
 86 87  2  0
 87 88  1  0
 88 89  2  0
 89 90  1  0
 90 91  1  0
 91 92  1  0
 90 93  2  0
 85 94  2  0
 94 95  1  0
 95 96  1  0
 96 97  1  0
 97 98  1  0
 98 99  1  0
 99100  1  0
100101  1  0
101102  1  0
102103  1  0
103104  1  0
101105  1  0
105106  1  0
 98107  1  0
107108  1  0
 94109  1  0
109110  2  0
110111  1  0
111112  2  0
112113  1  0
113114  2  0
114115  1  0
115116  2  0
116117  1  0
117118  1  0
118119  1  0
117120  1  0
120121  1  0
117122  1  0
122123  1  0
116124  1  0
112125  1  0
125126  2  0
126127  1  0
127128  1  0
128129  2  0
129130  1  0
130131  2  0
131132  1  0
132133  1  0
133134  1  0
132135  1  0
135136  1  0
132137  1  0
137138  1  0
131139  1  0
127140  2  0
140141  1  0
126142  1  0
142143  2  0
143144  1  0
143145  1  0
145146  2  3
146147  1  0
147148  2  0
147149  1  0
149150  2  0
150151  1  0
151152  2  0
152153  1  0
153154  2  0
154155  1  0
155156  2  3
156157  1  0
157158  3  0
156159  1  0
159160  3  0
152161  1  0
161162  1  0
162163  1  0
163164  2  0
164165  1  0
165166  1  0
165167  1  0
 11  2  1  0
 23 17  1  0
 61 24  1  0
104 62  1  0
141109  1  0
155146  1  0
167161  1  0
 10  5  1  0
 22 18  1  0
 33 27  1  0
 40 34  1  0
 60 41  2  0
 71 64  1  0
103 72  2  0
140111  1  0
154149  1  0
166162  1  0
 23  7  1  0
 52 46  1  0
 59 53  1  0
102 74  2  0
124113  1  0
144125  1  0
167151  1  0
100 75  2  0
139128  1  0
 80 76  2  0
 99 81  2  0
 97 82  2  0
 96 84  2  0
 93 86  1  0
  1168  1  0
  6169  1  0
  9170  1  0
 17171  1  0
 18172  1  0
 19173  1  0
 20174  1  0
 21175  1  0
 22176  1  0
 22177  1  0
 23178  1  0
 28179  1  0
 29180  1  0
 31181  1  0
 31182  1  0
 31183  1  0
 32184  1  0
 33185  1  0
 35186  1  0
 36187  1  0
 38188  1  0
 38189  1  0
 38190  1  0
 39191  1  0
 40192  1  0
 47193  1  0
 48194  1  0
 50195  1  0
 50196  1  0
 50197  1  0
 51198  1  0
 52199  1  0
 54200  1  0
 55201  1  0
 57202  1  0
 57203  1  0
 57204  1  0
 58205  1  0
 59206  1  0
 65207  1  0
 66208  1  0
 67209  1  0
 69210  1  0
 69211  1  0
 70212  1  0
 70213  1  0
 70214  1  0
 71215  1  0
 87216  1  0
 88217  1  0
 89218  1  0
 91219  1  0
 91220  1  0
 92221  1  0
 92222  1  0
 92223  1  0
 93224  1  0
105225  1  0
105226  1  0
106227  1  0
106228  1  0
106229  1  0
107230  1  0
107231  1  0
108232  1  0
108233  1  0
108234  1  0
110235  1  0
114236  1  0
115237  1  0
118238  1  0
118239  1  0
119240  1  0
119241  1  0
119242  1  0
120243  1  0
120244  1  0
121245  1  0
121246  1  0
121247  1  0
122248  1  0
122249  1  0
123250  1  0
123251  1  0
123252  1  0
129253  1  0
130254  1  0
133255  1  0
133256  1  0
134257  1  0
134258  1  0
134259  1  0
135260  1  0
135261  1  0
136262  1  0
136263  1  0
136264  1  0
137265  1  0
137266  1  0
138267  1  0
138268  1  0
138269  1  0
142270  1  0
145271  1  0
150272  1  0
153273  1  0
161274  1  0
162275  1  0
163276  1  0
164277  1  0
165278  1  0
166279  1  0
166280  1  0
167281  1  0
M  END

