
     RDKit          3D

219244  0  0  0  0  0  0  0  0999 V2000
   -3.7732    0.3891   -5.9502 C   0  0  0  0  0  0  0  0  0  0  0  0
   -5.1017    0.6186   -5.8539 C   0  0  0  0  0  0  0  0  0  0  0  0
   -5.7420    1.7522   -5.1654 C   0  0  0  0  0  0  0  0  0  0  0  0
   -5.2100    2.8491   -4.8591 O   0  0  0  0  0  0  0  0  0  0  0  0
   -7.1063    1.4049   -4.8506 C   0  0  0  0  0  0  0  0  0  0  0  0
   -8.0310    2.1858   -4.1207 C   0  0  0  0  0  0  0  0  0  0  0  0
   -9.2574    1.5770   -3.9438 C   0  0  0  0  0  0  0  0  0  0  0  0
   -9.5636    0.2742   -4.4457 C   0  0  0  0  0  0  0  0  0  0  0  0
   -8.6626   -0.4999   -5.1500 C   0  0  0  0  0  0  0  0  0  0  0  0
   -7.3880    0.1086   -5.3539 C   0  0  0  0  0  0  0  0  0  0  0  0
   -6.1806   -0.3995   -6.0742 C   0  0  0  0  0  0  0  0  0  0  0  0
   -6.1208   -1.4697   -6.9110 C   0  0  0  0  0  0  0  0  0  0  0  0
   -5.0034   -1.6950   -7.7931 C   0  0  0  0  0  0  0  0  0  0  0  0
   -4.1181   -1.8857   -8.5119 N   0  0  0  0  0  0  0  0  0  0  0  0
   -7.1898   -2.4291   -7.0368 C   0  0  0  0  0  0  0  0  0  0  0  0
   -8.0352   -3.2128   -7.1485 N   0  0  0  0  0  0  0  0  0  0  0  0
  -10.9586    0.3715   -3.8995 C   0  0  0  0  0  0  0  0  0  0  0  0
  -12.1217    0.6403   -4.9012 C   0  0  0  0  0  0  0  0  0  0  0  0
  -11.6187    1.4547   -6.0707 C   0  0  0  0  0  0  0  0  0  0  0  0
  -11.3343    2.6670   -5.5958 C   0  0  0  0  0  0  0  0  0  0  0  0
  -11.6471    2.6360   -4.1168 C   0  0  0  0  0  0  0  0  0  0  0  0
  -12.8643    1.7305   -4.1520 C   0  0  0  0  0  0  0  0  0  0  0  0
  -10.6410    1.7035   -3.3770 C   0  0  0  0  0  0  0  0  0  0  0  0
   -2.7171    1.3394   -5.5594 C   0  0  0  0  0  0  0  0  0  0  0  0
   -1.5919    1.0085   -4.7907 C   0  0  0  0  0  0  0  0  0  0  0  0
   -1.1726   -0.3373   -4.5079 N   0  0  0  0  0  0  0  0  0  0  0  0
   -1.6364   -1.0152   -3.3171 C   0  0  0  0  0  0  0  0  0  0  0  0
   -1.9608   -0.2967   -2.1540 C   0  0  0  0  0  0  0  0  0  0  0  0
   -2.4217   -0.9575   -1.0118 C   0  0  0  0  0  0  0  0  0  0  0  0
   -2.5635   -2.3515   -1.0114 C   0  0  0  0  0  0  0  0  0  0  0  0
   -3.0234   -3.0720    0.2192 C   0  0  0  0  0  0  0  0  0  0  0  0
   -2.2267   -3.0752   -2.1601 C   0  0  0  0  0  0  0  0  0  0  0  0
   -1.7829   -2.4155   -3.3064 C   0  0  0  0  0  0  0  0  0  0  0  0
   -0.2330   -0.9513   -5.4200 C   0  0  0  0  0  0  0  0  0  0  0  0
   -0.3805   -0.7870   -6.8122 C   0  0  0  0  0  0  0  0  0  0  0  0
    0.5364   -1.3577   -7.6964 C   0  0  0  0  0  0  0  0  0  0  0  0
    1.6174   -2.1028   -7.2113 C   0  0  0  0  0  0  0  0  0  0  0  0
    2.6216   -2.6720   -8.1693 C   0  0  0  0  0  0  0  0  0  0  0  0
    1.7900   -2.2472   -5.8252 C   0  0  0  0  0  0  0  0  0  0  0  0
    0.8696   -1.6787   -4.9366 C   0  0  0  0  0  0  0  0  0  0  0  0
   -0.7897    2.1189   -4.5640 C   0  0  0  0  0  0  0  0  0  0  0  0
    0.4343    2.4245   -3.4722 S   0  0  0  0  0  0  0  0  0  0  0  0
    0.4625    4.1009   -3.7749 C   0  0  0  0  0  0  0  0  0  0  0  0
   -0.4570    4.4122   -4.8045 C   0  0  0  0  0  0  0  0  0  0  0  0
   -0.6075    5.7229   -5.4055 N   0  0  0  0  0  0  0  0  0  0  0  0
    0.4469    6.7006   -5.3062 C   0  0  0  0  0  0  0  0  0  0  0  0
    0.1357    8.0472   -5.0564 C   0  0  0  0  0  0  0  0  0  0  0  0
    1.1455    9.0133   -5.0450 C   0  0  0  0  0  0  0  0  0  0  0  0
    2.4775    8.6507   -5.3057 C   0  0  0  0  0  0  0  0  0  0  0  0
    3.5542    9.6924   -5.2990 C   0  0  0  0  0  0  0  0  0  0  0  0
    2.7922    7.3030   -5.5412 C   0  0  0  0  0  0  0  0  0  0  0  0
    1.7847    6.3379   -5.5524 C   0  0  0  0  0  0  0  0  0  0  0  0
   -1.5112    5.9032   -6.5045 C   0  0  0  0  0  0  0  0  0  0  0  0
   -1.1178    5.5280   -7.7975 C   0  0  0  0  0  0  0  0  0  0  0  0
   -1.9908    5.6950   -8.8739 C   0  0  0  0  0  0  0  0  0  0  0  0
   -3.2621    6.2560   -8.6697 C   0  0  0  0  0  0  0  0  0  0  0  0
   -4.2100    6.4384   -9.8192 C   0  0  0  0  0  0  0  0  0  0  0  0
   -3.6515    6.6408   -7.3751 C   0  0  0  0  0  0  0  0  0  0  0  0
   -2.7779    6.4643   -6.2954 C   0  0  0  0  0  0  0  0  0  0  0  0
   -1.1826    3.2686   -5.1661 C   0  0  0  0  0  0  0  0  0  0  0  0
   -2.5984    2.9742   -6.0251 S   0  0  0  0  0  0  0  0  0  0  0  0
    0.8513    5.0414   -2.7129 C   0  0  0  0  0  0  0  0  0  0  0  0
   -0.0932    5.7256   -1.9235 C   0  0  0  0  0  0  0  0  0  0  0  0
   -1.5475    5.5003   -2.0367 C   0  0  0  0  0  0  0  0  0  0  0  0
   -2.3900    6.5067   -2.5214 C   0  0  0  0  0  0  0  0  0  0  0  0
   -3.7748    6.3270   -2.5120 C   0  0  0  0  0  0  0  0  0  0  0  0
   -4.3292    5.1609   -1.9760 C   0  0  0  0  0  0  0  0  0  0  0  0
   -3.4980    4.1586   -1.4520 C   0  0  0  0  0  0  0  0  0  0  0  0
   -4.0929    2.9531   -0.7686 C   0  0  0  0  0  0  0  0  0  0  0  0
   -4.7334    1.9985   -1.7688 C   0  0  0  0  0  0  0  0  0  0  0  0
   -2.1045    4.3216   -1.5094 C   0  0  0  0  0  0  0  0  0  0  0  0
    0.4569    6.1303   -0.7049 C   0  0  0  0  0  0  0  0  0  0  0  0
   -0.3628    6.2296    0.7722 S   0  0  0  0  0  0  0  0  0  0  0  0
    1.0021    5.7711    1.6473 C   0  0  0  0  0  0  0  0  0  0  0  0
    1.0926    4.8382    2.6414 C   0  0  0  0  0  0  0  0  0  0  0  0
    0.1195    4.4097    3.5520 C   0  0  0  0  0  0  0  0  0  0  0  0
    0.3535    3.2267    4.2984 C   0  0  0  0  0  0  0  0  0  0  0  0
   -0.6352    2.8164    5.1312 N   0  0  0  0  0  0  0  0  0  0  0  0
   -1.7456    4.0171    4.8596 S   0  0  0  0  0  0  0  0  0  0  0  0
   -1.0707    5.0291    3.7366 N   0  0  0  0  0  0  0  0  0  0  0  0
    1.5352    2.5177    4.0761 C   0  0  0  0  0  0  0  0  0  0  0  0
    1.9198    1.2879    4.5089 C   0  0  0  0  0  0  0  0  0  0  0  0
    1.2828   -0.0037    5.4032 S   0  0  0  0  0  0  0  0  0  0  0  0
    2.6259   -0.9790    4.9939 C   0  0  0  0  0  0  0  0  0  0  0  0
    3.0493   -2.2560    5.3777 C   0  0  0  0  0  0  0  0  0  0  0  0
    2.2008   -3.2475    6.0790 C   0  0  0  0  0  0  0  0  0  0  0  0
    1.4207   -2.8833    7.1888 C   0  0  0  0  0  0  0  0  0  0  0  0
    0.6744   -3.8472    7.8706 C   0  0  0  0  0  0  0  0  0  0  0  0
    0.6933   -5.1803    7.4488 C   0  0  0  0  0  0  0  0  0  0  0  0
    1.4503   -5.5584    6.3315 C   0  0  0  0  0  0  0  0  0  0  0  0
    1.5260   -7.0069    5.9149 C   0  0  0  0  0  0  0  0  0  0  0  0
    1.0354   -7.2175    4.4792 C   0  0  0  0  0  0  0  0  0  0  0  0
    2.2178   -4.5901    5.6628 C   0  0  0  0  0  0  0  0  0  0  0  0
    4.3590   -2.5088    4.9087 C   0  0  0  0  0  0  0  0  0  0  0  0
    4.8826   -1.2106    3.9332 S   0  0  0  0  0  0  0  0  0  0  0  0
    3.4876   -0.3140    4.1578 C   0  0  0  0  0  0  0  0  0  0  0  0
    3.0636    0.9744    3.8656 C   0  0  0  0  0  0  0  0  0  0  0  0
    3.4330    1.9083    2.9501 N   0  0  0  0  0  0  0  0  0  0  0  0
    2.5031    2.9122    3.1278 C   0  0  0  0  0  0  0  0  0  0  0  0
    2.2838    4.1344    2.4209 C   0  0  0  0  0  0  0  0  0  0  0  0
    2.9457    4.6551    1.3405 N   0  0  0  0  0  0  0  0  0  0  0  0
    2.0962    5.5852    0.8399 C   0  0  0  0  0  0  0  0  0  0  0  0
    1.7763    5.7723   -0.5072 C   0  0  0  0  0  0  0  0  0  0  0  0
    2.3079    4.9106   -1.8459 S   0  0  0  0  0  0  0  0  0  0  0  0
    4.3942    4.8859    1.2682 C   0  0  0  0  0  0  0  0  0  0  0  0
    4.7933    6.1362    2.0554 C   0  0  0  0  0  0  0  0  0  0  0  0
    4.2436    1.5941    1.7663 C   0  0  0  0  0  0  0  0  0  0  0  0
    5.7455    1.6762    2.0772 C   0  0  0  0  0  0  0  0  0  0  0  0
    5.2737   -3.5660    5.4031 C   0  0  0  0  0  0  0  0  0  0  0  0
    6.0945   -4.3006    4.5249 C   0  0  0  0  0  0  0  0  0  0  0  0
    7.0007   -5.2958    5.0185 C   0  0  0  0  0  0  0  0  0  0  0  0
    7.7454   -5.9522    4.0917 N   0  0  0  0  0  0  0  0  0  0  0  0
    7.2024   -5.2314    2.7072 S   0  0  0  0  0  0  0  0  0  0  0  0
    6.0702   -4.1237    3.1783 N   0  0  0  0  0  0  0  0  0  0  0  0
    7.0919   -5.5671    6.3964 C   0  0  0  0  0  0  0  0  0  0  0  0
    6.2930   -4.8066    7.2737 C   0  0  0  0  0  0  0  0  0  0  0  0
    6.2716   -4.9174    8.6778 C   0  0  0  0  0  0  0  0  0  0  0  0
    5.3770   -4.0357    9.2755 C   0  0  0  0  0  0  0  0  0  0  0  0
    5.0127   -4.0190   10.6962 C   0  0  0  0  0  0  0  0  0  0  0  0
    4.0581   -3.2946   11.0868 O   0  0  0  0  0  0  0  0  0  0  0  0
    5.7012   -4.8388   11.5966 O   0  0  0  0  0  0  0  0  0  0  0  0
    5.2482   -5.0901   12.9258 C   0  0  0  0  0  0  0  0  0  0  0  0
    4.1005   -6.0925   12.9094 C   0  0  0  0  0  0  0  0  0  0  0  0
    4.6561   -3.0923    8.0836 S   0  0  0  0  0  0  0  0  0  0  0  0
    5.4211   -3.8340    6.7782 C   0  0  0  0  0  0  0  0  0  0  0  0
    8.0546   -6.5607    6.9120 C   0  0  0  0  0  0  0  0  0  0  0  0
    7.6729   -7.6865    7.5436 C   0  0  0  0  0  0  0  0  0  0  0  0
    6.2824   -8.1060    7.7636 C   0  0  0  0  0  0  0  0  0  0  0  0
    5.2726   -7.7230    7.1127 O   0  0  0  0  0  0  0  0  0  0  0  0
    6.2612   -9.0457    8.8634 C   0  0  0  0  0  0  0  0  0  0  0  0
    5.1526   -9.6163    9.4886 C   0  0  0  0  0  0  0  0  0  0  0  0
    5.3649  -10.4391   10.6022 C   0  0  0  0  0  0  0  0  0  0  0  0
    6.6681  -10.6527   11.0842 C   0  0  0  0  0  0  0  0  0  0  0  0
    6.8613  -11.4110   12.1911 F   0  0  0  0  0  0  0  0  0  0  0  0
    7.7727  -10.0723   10.4348 C   0  0  0  0  0  0  0  0  0  0  0  0
    7.5598   -9.2858    9.2903 C   0  0  0  0  0  0  0  0  0  0  0  0
    8.5199   -8.5549    8.4150 C   0  0  0  0  0  0  0  0  0  0  0  0
    9.8488   -8.7976    8.2830 C   0  0  0  0  0  0  0  0  0  0  0  0
   10.5371   -9.7774    9.0825 C   0  0  0  0  0  0  0  0  0  0  0  0
   11.1061  -10.5667    9.7091 N   0  0  0  0  0  0  0  0  0  0  0  0
   10.6369   -8.2245    7.2256 C   0  0  0  0  0  0  0  0  0  0  0  0
   11.2812   -7.7771    6.3732 N   0  0  0  0  0  0  0  0  0  0  0  0
   -3.4266   -0.6077   -6.1674 H   0  0  0  0  0  0  0  0  0  0  0  0
   -7.8025    3.1734   -3.7440 H   0  0  0  0  0  0  0  0  0  0  0  0
   -8.9456   -1.4844   -5.4862 H   0  0  0  0  0  0  0  0  0  0  0  0
  -11.1855   -0.3757   -3.1089 H   0  0  0  0  0  0  0  0  0  0  0  0
  -12.7297   -0.2474   -5.1709 H   0  0  0  0  0  0  0  0  0  0  0  0
  -11.5653    1.1497   -7.1112 H   0  0  0  0  0  0  0  0  0  0  0  0
  -11.0051    3.5183   -6.1816 H   0  0  0  0  0  0  0  0  0  0  0  0
  -11.8089    3.6348   -3.6586 H   0  0  0  0  0  0  0  0  0  0  0  0
  -13.7208    2.1635   -4.7285 H   0  0  0  0  0  0  0  0  0  0  0  0
  -13.2180    1.4147   -3.1420 H   0  0  0  0  0  0  0  0  0  0  0  0
  -10.6720    1.7624   -2.2663 H   0  0  0  0  0  0  0  0  0  0  0  0
   -1.8339    0.7758   -2.1139 H   0  0  0  0  0  0  0  0  0  0  0  0
   -2.6666   -0.3841   -0.1278 H   0  0  0  0  0  0  0  0  0  0  0  0
   -3.6995   -3.9110   -0.0572 H   0  0  0  0  0  0  0  0  0  0  0  0
   -2.1403   -3.4789    0.7539 H   0  0  0  0  0  0  0  0  0  0  0  0
   -3.5783   -2.3898    0.8964 H   0  0  0  0  0  0  0  0  0  0  0  0
   -2.3148   -4.1561   -2.1736 H   0  0  0  0  0  0  0  0  0  0  0  0
   -1.5552   -2.9981   -4.1915 H   0  0  0  0  0  0  0  0  0  0  0  0
   -1.2069   -0.2255   -7.2237 H   0  0  0  0  0  0  0  0  0  0  0  0
    0.3983   -1.2209   -8.7644 H   0  0  0  0  0  0  0  0  0  0  0  0
    2.1359   -2.9398   -9.1333 H   0  0  0  0  0  0  0  0  0  0  0  0
    3.4119   -1.9168   -8.3622 H   0  0  0  0  0  0  0  0  0  0  0  0
    3.0898   -3.5881   -7.7540 H   0  0  0  0  0  0  0  0  0  0  0  0
    2.6350   -2.8052   -5.4367 H   0  0  0  0  0  0  0  0  0  0  0  0
    1.0261   -1.8036   -3.8697 H   0  0  0  0  0  0  0  0  0  0  0  0
   -0.8908    8.3506   -4.8836 H   0  0  0  0  0  0  0  0  0  0  0  0
    0.8890   10.0499   -4.8468 H   0  0  0  0  0  0  0  0  0  0  0  0
    3.1834   10.6354   -5.7551 H   0  0  0  0  0  0  0  0  0  0  0  0
    4.4401    9.3564   -5.8797 H   0  0  0  0  0  0  0  0  0  0  0  0
    3.8654    9.8972   -4.2521 H   0  0  0  0  0  0  0  0  0  0  0  0
    3.8145    7.0035   -5.7358 H   0  0  0  0  0  0  0  0  0  0  0  0
    2.0431    5.3123   -5.7745 H   0  0  0  0  0  0  0  0  0  0  0  0
   -0.1370    5.1032   -7.9659 H   0  0  0  0  0  0  0  0  0  0  0  0
   -1.6712    5.4032   -9.8645 H   0  0  0  0  0  0  0  0  0  0  0  0
   -3.7260    6.1901  -10.7874 H   0  0  0  0  0  0  0  0  0  0  0  0
   -4.5496    7.4954   -9.8610 H   0  0  0  0  0  0  0  0  0  0  0  0
   -5.0914    5.7768   -9.6846 H   0  0  0  0  0  0  0  0  0  0  0  0
   -4.6280    7.0745   -7.2016 H   0  0  0  0  0  0  0  0  0  0  0  0
   -3.0893    6.7592   -5.3053 H   0  0  0  0  0  0  0  0  0  0  0  0
   -1.9768    7.4347   -2.8896 H   0  0  0  0  0  0  0  0  0  0  0  0
   -4.4213    7.1080   -2.8906 H   0  0  0  0  0  0  0  0  0  0  0  0
   -5.4057    5.0503   -1.9349 H   0  0  0  0  0  0  0  0  0  0  0  0
   -4.8631    3.2845   -0.0394 H   0  0  0  0  0  0  0  0  0  0  0  0
   -3.3129    2.4003   -0.1985 H   0  0  0  0  0  0  0  0  0  0  0  0
   -5.6004    2.4840   -2.2587 H   0  0  0  0  0  0  0  0  0  0  0  0
   -5.0864    1.0885   -1.2389 H   0  0  0  0  0  0  0  0  0  0  0  0
   -3.9924    1.6939   -2.5402 H   0  0  0  0  0  0  0  0  0  0  0  0
   -1.4525    3.5621   -1.0919 H   0  0  0  0  0  0  0  0  0  0  0  0
    1.4280   -1.8692    7.5570 H   0  0  0  0  0  0  0  0  0  0  0  0
    0.1126   -3.5661    8.7502 H   0  0  0  0  0  0  0  0  0  0  0  0
    0.1214   -5.9140    8.0022 H   0  0  0  0  0  0  0  0  0  0  0  0
    0.9117   -7.6405    6.5907 H   0  0  0  0  0  0  0  0  0  0  0  0
    2.5806   -7.3559    5.9984 H   0  0  0  0  0  0  0  0  0  0  0  0
    1.7403   -6.7575    3.7545 H   0  0  0  0  0  0  0  0  0  0  0  0
    0.0272   -6.7753    4.3451 H   0  0  0  0  0  0  0  0  0  0  0  0
    0.9813   -8.3053    4.2647 H   0  0  0  0  0  0  0  0  0  0  0  0
    2.8219   -4.8816    4.8124 H   0  0  0  0  0  0  0  0  0  0  0  0
    4.9510    4.0591    1.7191 H   0  0  0  0  0  0  0  0  0  0  0  0
    4.7089    4.9879    0.2049 H   0  0  0  0  0  0  0  0  0  0  0  0
    4.3289    6.1085    3.0648 H   0  0  0  0  0  0  0  0  0  0  0  0
    4.4617    7.0594    1.5353 H   0  0  0  0  0  0  0  0  0  0  0  0
    5.8954    6.1613    2.1814 H   0  0  0  0  0  0  0  0  0  0  0  0
    4.0138    0.5605    1.4135 H   0  0  0  0  0  0  0  0  0  0  0  0
    3.9683    2.2479    0.9157 H   0  0  0  0  0  0  0  0  0  0  0  0
    6.2945    2.0199    1.1772 H   0  0  0  0  0  0  0  0  0  0  0  0
    6.1417    0.6823    2.3564 H   0  0  0  0  0  0  0  0  0  0  0  0
    5.9367    2.3849    2.9130 H   0  0  0  0  0  0  0  0  0  0  0  0
    6.8601   -5.6285    9.2454 H   0  0  0  0  0  0  0  0  0  0  0  0
    6.0856   -5.5187   13.5139 H   0  0  0  0  0  0  0  0  0  0  0  0
    4.9321   -4.1425   13.4139 H   0  0  0  0  0  0  0  0  0  0  0  0
    4.4263   -7.0364   12.4206 H   0  0  0  0  0  0  0  0  0  0  0  0
    3.2342   -5.6749   12.3519 H   0  0  0  0  0  0  0  0  0  0  0  0
    3.7792   -6.3126   13.9499 H   0  0  0  0  0  0  0  0  0  0  0  0
    9.0903   -6.2627    6.8904 H   0  0  0  0  0  0  0  0  0  0  0  0
    4.1487   -9.4297    9.1200 H   0  0  0  0  0  0  0  0  0  0  0  0
    4.5203  -10.8883   11.1097 H   0  0  0  0  0  0  0  0  0  0  0  0
    8.7546  -10.2157   10.8577 H   0  0  0  0  0  0  0  0  0  0  0  0
  1  2  2  3
  2  3  1  0
  3  4  2  0
  3  5  1  0
  5  6  2  0
  6  7  1  0
  7  8  2  0
  8  9  1  0
  9 10  2  0
 10 11  1  0
 11 12  2  3
 12 13  1  0
 13 14  3  0
 12 15  1  0
 15 16  3  0
  8 17  1  0
 17 18  1  0
 18 19  1  0
 19 20  2  0
 20 21  1  0
 21 22  1  0
 21 23  1  0
  1 24  1  0
 24 25  2  0
 25 26  1  0
 26 27  1  0
 27 28  2  0
 28 29  1  0
 29 30  2  0
 30 31  1  0
 30 32  1  0
 32 33  2  0
 26 34  1  0
 34 35  2  0
 35 36  1  0
 36 37  2  0
 37 38  1  0
 37 39  1  0
 39 40  2  0
 25 41  1  0
 41 42  1  0
 42 43  1  0
 43 44  2  0
 44 45  1  0
 45 46  1  0
 46 47  2  0
 47 48  1  0
 48 49  2  0
 49 50  1  0
 49 51  1  0
 51 52  2  0
 45 53  1  0
 53 54  2  0
 54 55  1  0
 55 56  2  0
 56 57  1  0
 56 58  1  0
 58 59  2  0
 44 60  1  0
 60 61  1  0
 43 62  1  0
 62 63  2  0
 63 64  1  0
 64 65  2  0
 65 66  1  0
 66 67  2  0
 67 68  1  0
 68 69  1  0
 69 70  1  0
 68 71  2  0
 63 72  1  0
 72 73  1  0
 73 74  1  0
 74 75  1  0
 75 76  1  0
 76 77  1  0
 77 78  2  0
 78 79  1  0
 79 80  1  0
 77 81  1  0
 81 82  1  0
 82 83  1  0
 83 84  1  0
 84 85  1  0
 85 86  1  0
 86 87  2  0
 87 88  1  0
 88 89  2  0
 89 90  1  0
 90 91  1  0
 91 92  1  0
 90 93  2  0
 85 94  2  0
 94 95  1  0
 95 96  1  0
 96 97  1  0
 97 98  1  0
 98 99  1  0
 99100  1  0
100101  1  0
101102  1  0
102103  1  0
103104  1  0
101105  1  0
105106  1  0
 98107  1  0
107108  1  0
 94109  1  0
109110  1  0
110111  1  0
111112  2  0
112113  1  0
113114  1  0
111115  1  0
115116  2  0
116117  1  0
117118  2  0
118119  1  0
119120  2  0
119121  1  0
121122  1  0
122123  1  0
118124  1  0
124125  1  0
115126  1  0
126127  2  3
127128  1  0
128129  2  0
128130  1  0
130131  2  0
131132  1  0
132133  2  0
133134  1  0
133135  1  0
135136  2  0
136137  1  0
137138  2  3
138139  1  0
139140  3  0
138141  1  0
141142  3  0
 11  2  1  0
 23 17  1  0
 61 24  1  0
104 62  1  0
125109  2  0
137127  1  0
 10  5  1  0
 22 18  1  0
 33 27  1  0
 40 34  1  0
 60 41  2  0
 71 64  1  0
103 72  2  0
114110  2  0
125116  1  0
136130  1  0
 23  7  1  0
 52 46  1  0
 59 53  1  0
102 74  2  0
100 75  2  0
 80 76  2  0
 99 81  2  0
 97 82  2  0
 96 84  2  0
 93 86  1  0
  1143  1  0
  6144  1  0
  9145  1  0
 17146  1  0
 18147  1  0
 19148  1  0
 20149  1  0
 21150  1  0
 22151  1  0
 22152  1  0
 23153  1  0
 28154  1  0
 29155  1  0
 31156  1  0
 31157  1  0
 31158  1  0
 32159  1  0
 33160  1  0
 35161  1  0
 36162  1  0
 38163  1  0
 38164  1  0
 38165  1  0
 39166  1  0
 40167  1  0
 47168  1  0
 48169  1  0
 50170  1  0
 50171  1  0
 50172  1  0
 51173  1  0
 52174  1  0
 54175  1  0
 55176  1  0
 57177  1  0
 57178  1  0
 57179  1  0
 58180  1  0
 59181  1  0
 65182  1  0
 66183  1  0
 67184  1  0
 69185  1  0
 69186  1  0
 70187  1  0
 70188  1  0
 70189  1  0
 71190  1  0
 87191  1  0
 88192  1  0
 89193  1  0
 91194  1  0
 91195  1  0
 92196  1  0
 92197  1  0
 92198  1  0
 93199  1  0
105200  1  0
105201  1  0
106202  1  0
106203  1  0
106204  1  0
107205  1  0
107206  1  0
108207  1  0
108208  1  0
108209  1  0
117210  1  0
122211  1  0
122212  1  0
123213  1  0
123214  1  0
123215  1  0
126216  1  0
131217  1  0
132218  1  0
135219  1  0
M  END

