
     RDKit          3D

227254  0  0  0  0  0  0  0  0999 V2000
    0.5988   -2.6560   -8.1615 C   0  0  0  0  0  0  0  0  0  0  0  0
    1.2179   -3.7622   -7.6936 C   0  0  0  0  0  0  0  0  0  0  0  0
    0.5536   -4.9133   -7.0730 C   0  0  0  0  0  0  0  0  0  0  0  0
   -0.4628   -5.5110   -7.5236 O   0  0  0  0  0  0  0  0  0  0  0  0
    1.3120   -5.3228   -5.9118 C   0  0  0  0  0  0  0  0  0  0  0  0
    0.8638   -6.1459   -4.8534 C   0  0  0  0  0  0  0  0  0  0  0  0
    1.7018   -6.1520   -3.7560 C   0  0  0  0  0  0  0  0  0  0  0  0
    2.9178   -5.3988   -3.6979 C   0  0  0  0  0  0  0  0  0  0  0  0
    3.3648   -4.5964   -4.7368 C   0  0  0  0  0  0  0  0  0  0  0  0
    2.5238   -4.5916   -5.8827 C   0  0  0  0  0  0  0  0  0  0  0  0
    2.5864   -3.7272   -7.0942 C   0  0  0  0  0  0  0  0  0  0  0  0
    3.6944   -3.1455   -7.6148 C   0  0  0  0  0  0  0  0  0  0  0  0
    4.9976   -3.3465   -7.0360 C   0  0  0  0  0  0  0  0  0  0  0  0
    6.0481   -3.5365   -6.5869 N   0  0  0  0  0  0  0  0  0  0  0  0
    3.6628   -2.4166   -8.8553 C   0  0  0  0  0  0  0  0  0  0  0  0
    3.6488   -1.8230   -9.8498 N   0  0  0  0  0  0  0  0  0  0  0  0
    3.1480   -5.8512   -2.2851 C   0  0  0  0  0  0  0  0  0  0  0  0
    2.8914   -4.8277   -1.1385 C   0  0  0  0  0  0  0  0  0  0  0  0
    1.8175   -3.8448   -1.5447 C   0  0  0  0  0  0  0  0  0  0  0  0
    0.6792   -4.5348   -1.6060 C   0  0  0  0  0  0  0  0  0  0  0  0
    1.0128   -5.9666   -1.2381 C   0  0  0  0  0  0  0  0  0  0  0  0
    2.0769   -5.6944   -0.1897 C   0  0  0  0  0  0  0  0  0  0  0  0
    1.8982   -6.6176   -2.3459 C   0  0  0  0  0  0  0  0  0  0  0  0
   -0.7386   -2.1888   -7.7105 C   0  0  0  0  0  0  0  0  0  0  0  0
   -1.0645   -0.8221   -7.6030 C   0  0  0  0  0  0  0  0  0  0  0  0
   -0.4161    0.2153   -8.3614 N   0  0  0  0  0  0  0  0  0  0  0  0
    0.2157    1.3217   -7.6807 C   0  0  0  0  0  0  0  0  0  0  0  0
    0.1970    2.6116   -8.2410 C   0  0  0  0  0  0  0  0  0  0  0  0
    0.8447    3.6736   -7.6018 C   0  0  0  0  0  0  0  0  0  0  0  0
    1.5103    3.4684   -6.3879 C   0  0  0  0  0  0  0  0  0  0  0  0
    2.2679    4.5956   -5.7459 C   0  0  0  0  0  0  0  0  0  0  0  0
    1.5308    2.1839   -5.8237 C   0  0  0  0  0  0  0  0  0  0  0  0
    0.8777    1.1198   -6.4576 C   0  0  0  0  0  0  0  0  0  0  0  0
   -0.4677    0.1408   -9.8058 C   0  0  0  0  0  0  0  0  0  0  0  0
    0.6282    0.5428  -10.5864 C   0  0  0  0  0  0  0  0  0  0  0  0
    0.5625    0.4845  -11.9829 C   0  0  0  0  0  0  0  0  0  0  0  0
   -0.5903   -0.0010  -12.6169 C   0  0  0  0  0  0  0  0  0  0  0  0
   -0.6845   -0.0178  -14.1133 C   0  0  0  0  0  0  0  0  0  0  0  0
   -1.6850   -0.4063  -11.8436 C   0  0  0  0  0  0  0  0  0  0  0  0
   -1.6247   -0.3392  -10.4489 C   0  0  0  0  0  0  0  0  0  0  0  0
   -2.1268   -0.6057   -6.7218 C   0  0  0  0  0  0  0  0  0  0  0  0
   -2.7292    0.7414   -5.9162 S   0  0  0  0  0  0  0  0  0  0  0  0
   -3.7419   -0.1543   -4.8742 C   0  0  0  0  0  0  0  0  0  0  0  0
   -3.6185   -1.5221   -5.1853 C   0  0  0  0  0  0  0  0  0  0  0  0
   -4.4057   -2.5584   -4.5654 N   0  0  0  0  0  0  0  0  0  0  0  0
   -3.8773   -3.8756   -4.3507 C   0  0  0  0  0  0  0  0  0  0  0  0
   -4.1839   -4.9110   -5.2472 C   0  0  0  0  0  0  0  0  0  0  0  0
   -3.7009   -6.2073   -5.0199 C   0  0  0  0  0  0  0  0  0  0  0  0
   -2.9304   -6.4863   -3.8796 C   0  0  0  0  0  0  0  0  0  0  0  0
   -2.4656   -7.8864   -3.6164 C   0  0  0  0  0  0  0  0  0  0  0  0
   -2.6478   -5.4543   -2.9700 C   0  0  0  0  0  0  0  0  0  0  0  0
   -3.1021   -4.1514   -3.2179 C   0  0  0  0  0  0  0  0  0  0  0  0
   -5.8145   -2.3348   -4.3669 C   0  0  0  0  0  0  0  0  0  0  0  0
   -6.4283   -2.6864   -3.1555 C   0  0  0  0  0  0  0  0  0  0  0  0
   -7.7851   -2.4225   -2.9528 C   0  0  0  0  0  0  0  0  0  0  0  0
   -8.5455   -1.8022   -3.9589 C   0  0  0  0  0  0  0  0  0  0  0  0
  -10.0046   -1.5353   -3.7476 C   0  0  0  0  0  0  0  0  0  0  0  0
   -7.9435   -1.4915   -5.1869 C   0  0  0  0  0  0  0  0  0  0  0  0
   -6.5873   -1.7526   -5.3872 C   0  0  0  0  0  0  0  0  0  0  0  0
   -2.6781   -1.7286   -6.1945 C   0  0  0  0  0  0  0  0  0  0  0  0
   -1.8455   -3.0625   -6.7495 S   0  0  0  0  0  0  0  0  0  0  0  0
   -4.0691    0.2923   -3.5097 C   0  0  0  0  0  0  0  0  0  0  0  0
   -4.6709    1.5042   -3.0927 C   0  0  0  0  0  0  0  0  0  0  0  0
   -5.2752    2.5166   -3.9832 C   0  0  0  0  0  0  0  0  0  0  0  0
   -6.1475    2.1334   -5.0138 C   0  0  0  0  0  0  0  0  0  0  0  0
   -6.7719    3.1010   -5.8044 C   0  0  0  0  0  0  0  0  0  0  0  0
   -6.5205    4.4600   -5.5871 C   0  0  0  0  0  0  0  0  0  0  0  0
   -5.6451    4.8606   -4.5697 C   0  0  0  0  0  0  0  0  0  0  0  0
   -5.3491    6.3194   -4.3472 C   0  0  0  0  0  0  0  0  0  0  0  0
   -4.1478    6.7603   -5.1814 C   0  0  0  0  0  0  0  0  0  0  0  0
   -5.0169    3.8846   -3.7763 C   0  0  0  0  0  0  0  0  0  0  0  0
   -4.6008    1.6240   -1.6964 C   0  0  0  0  0  0  0  0  0  0  0  0
   -5.2027    2.7503   -0.5499 S   0  0  0  0  0  0  0  0  0  0  0  0
   -4.5099    1.8711    0.7300 C   0  0  0  0  0  0  0  0  0  0  0  0
   -4.4868    1.8355    2.0981 C   0  0  0  0  0  0  0  0  0  0  0  0
   -5.1446    2.6015    3.0626 C   0  0  0  0  0  0  0  0  0  0  0  0
   -5.0216    2.2283    4.4357 C   0  0  0  0  0  0  0  0  0  0  0  0
   -5.6661    3.0041    5.3403 N   0  0  0  0  0  0  0  0  0  0  0  0
   -6.3713    4.0999    4.3176 S   0  0  0  0  0  0  0  0  0  0  0  0
   -5.9152    3.6837    2.7824 N   0  0  0  0  0  0  0  0  0  0  0  0
   -4.2227    1.1222    4.7743 C   0  0  0  0  0  0  0  0  0  0  0  0
   -3.6985    0.7533    5.9837 C   0  0  0  0  0  0  0  0  0  0  0  0
   -3.5219    1.5900    7.4528 S   0  0  0  0  0  0  0  0  0  0  0  0
   -2.0578    0.8018    7.8043 C   0  0  0  0  0  0  0  0  0  0  0  0
   -1.0108    1.1615    8.6630 C   0  0  0  0  0  0  0  0  0  0  0  0
   -1.1289    2.2163    9.6807 C   0  0  0  0  0  0  0  0  0  0  0  0
   -0.5714    3.4855    9.4614 C   0  0  0  0  0  0  0  0  0  0  0  0
   -0.6718    4.4707   10.4438 C   0  0  0  0  0  0  0  0  0  0  0  0
   -1.3112    4.1938   11.6564 C   0  0  0  0  0  0  0  0  0  0  0  0
   -1.8650    2.9233   11.8905 C   0  0  0  0  0  0  0  0  0  0  0  0
   -2.5574    2.6182   13.1894 C   0  0  0  0  0  0  0  0  0  0  0  0
   -4.0720    2.7661   13.0514 C   0  0  0  0  0  0  0  0  0  0  0  0
   -1.7872    1.9429   10.8875 C   0  0  0  0  0  0  0  0  0  0  0  0
    0.2063    0.5703    8.2678 C   0  0  0  0  0  0  0  0  0  0  0  0
   -0.0661   -0.3690    6.8814 S   0  0  0  0  0  0  0  0  0  0  0  0
   -1.7049   -0.0403    6.7749 C   0  0  0  0  0  0  0  0  0  0  0  0
   -2.6299   -0.0596    5.7246 C   0  0  0  0  0  0  0  0  0  0  0  0
   -2.4581   -0.2743    4.3872 N   0  0  0  0  0  0  0  0  0  0  0  0
   -3.5000    0.4081    3.8068 C   0  0  0  0  0  0  0  0  0  0  0  0
   -3.7233    0.7029    2.4373 C   0  0  0  0  0  0  0  0  0  0  0  0
   -3.3781    0.0017    1.3112 N   0  0  0  0  0  0  0  0  0  0  0  0
   -3.8587    0.7648    0.3041 C   0  0  0  0  0  0  0  0  0  0  0  0
   -3.9489    0.5972   -1.0634 C   0  0  0  0  0  0  0  0  0  0  0  0
   -3.4475   -0.5394   -2.1628 S   0  0  0  0  0  0  0  0  0  0  0  0
   -3.0548   -1.4297    1.1900 C   0  0  0  0  0  0  0  0  0  0  0  0
   -1.7224   -1.6530    0.4582 C   0  0  0  0  0  0  0  0  0  0  0  0
   -1.1571   -0.5683    3.7696 C   0  0  0  0  0  0  0  0  0  0  0  0
   -0.7421   -2.0219    3.9962 C   0  0  0  0  0  0  0  0  0  0  0  0
    1.5399    1.1337    8.5536 C   0  0  0  0  0  0  0  0  0  0  0  0
    2.1969    1.8383    7.5485 C   0  0  0  0  0  0  0  0  0  0  0  0
    1.7680    2.1007    6.3066 N   0  0  0  0  0  0  0  0  0  0  0  0
    2.7059    2.8799    5.7750 N   0  0  0  0  0  0  0  0  0  0  0  0
    2.6645    3.3623    4.3950 C   0  0  0  0  0  0  0  0  0  0  0  0
    1.2337    3.7077    3.9821 C   0  0  0  0  0  0  0  0  0  0  0  0
    3.7189    3.1112    6.6075 N   0  0  0  0  0  0  0  0  0  0  0  0
    3.3912    2.4520    7.7368 C   0  0  0  0  0  0  0  0  0  0  0  0
    4.0654    2.4098    8.9582 C   0  0  0  0  0  0  0  0  0  0  0  0
    3.4299    1.7172   10.0236 C   0  0  0  0  0  0  0  0  0  0  0  0
    2.1677    1.0747    9.8223 C   0  0  0  0  0  0  0  0  0  0  0  0
    1.3938    0.1944   11.1416 Cl  0  0  0  0  0  0  0  0  0  0  0  0
    4.2126    1.6415   11.6058 Cl  0  0  0  0  0  0  0  0  0  0  0  0
    5.3196    3.1691    9.1400 C   0  0  0  0  0  0  0  0  0  0  0  0
    6.3888    3.0401    8.3298 C   0  0  0  0  0  0  0  0  0  0  0  0
    6.6717    1.8684    7.4886 C   0  0  0  0  0  0  0  0  0  0  0  0
    5.9096    0.8793    7.3036 O   0  0  0  0  0  0  0  0  0  0  0  0
    8.0249    1.9723    6.9942 C   0  0  0  0  0  0  0  0  0  0  0  0
    8.7286    1.0096    6.2302 C   0  0  0  0  0  0  0  0  0  0  0  0
   10.0394    1.3530    5.9652 C   0  0  0  0  0  0  0  0  0  0  0  0
   10.6379    2.5675    6.4299 C   0  0  0  0  0  0  0  0  0  0  0  0
    9.9630    3.5063    7.1941 C   0  0  0  0  0  0  0  0  0  0  0  0
    8.6014    3.1833    7.4632 C   0  0  0  0  0  0  0  0  0  0  0  0
    7.5846    3.9370    8.2511 C   0  0  0  0  0  0  0  0  0  0  0  0
    7.6259    5.2563    8.5754 C   0  0  0  0  0  0  0  0  0  0  0  0
    6.5110    5.9490    9.1643 C   0  0  0  0  0  0  0  0  0  0  0  0
    5.6198    6.5158    9.6369 N   0  0  0  0  0  0  0  0  0  0  0  0
    8.7315    6.1071    8.2149 C   0  0  0  0  0  0  0  0  0  0  0  0
    9.6025    6.8109    7.9225 N   0  0  0  0  0  0  0  0  0  0  0  0
   11.9273    2.2116    5.7577 C   0  0  0  0  0  0  0  0  0  0  0  0
   12.2531    2.9742    4.4357 C   0  0  0  0  0  0  0  0  0  0  0  0
   13.3498    2.1874    3.7624 C   0  0  0  0  0  0  0  0  0  0  0  0
   12.7966    1.0447    3.3375 C   0  0  0  0  0  0  0  0  0  0  0  0
   11.3419    1.0998    3.7359 C   0  0  0  0  0  0  0  0  0  0  0  0
   11.1018    2.5861    3.5239 C   0  0  0  0  0  0  0  0  0  0  0  0
   11.3169    0.9617    5.2893 C   0  0  0  0  0  0  0  0  0  0  0  0
    1.2206   -1.8660   -8.5568 H   0  0  0  0  0  0  0  0  0  0  0  0
   -0.0845   -6.6630   -4.8663 H   0  0  0  0  0  0  0  0  0  0  0  0
    4.2379   -3.9708   -4.6163 H   0  0  0  0  0  0  0  0  0  0  0  0
    4.0546   -6.4825   -2.1557 H   0  0  0  0  0  0  0  0  0  0  0  0
    3.8018   -4.3691   -0.7071 H   0  0  0  0  0  0  0  0  0  0  0  0
    1.9161   -2.7722   -1.6753 H   0  0  0  0  0  0  0  0  0  0  0  0
   -0.3043   -4.1116   -1.7941 H   0  0  0  0  0  0  0  0  0  0  0  0
    0.1483   -6.5717   -0.8954 H   0  0  0  0  0  0  0  0  0  0  0  0
    1.6945   -5.1354    0.6950 H   0  0  0  0  0  0  0  0  0  0  0  0
    2.6141   -6.6114    0.1489 H   0  0  0  0  0  0  0  0  0  0  0  0
    2.0368   -7.7188   -2.2564 H   0  0  0  0  0  0  0  0  0  0  0  0
   -0.3087    2.8020   -9.1784 H   0  0  0  0  0  0  0  0  0  0  0  0
    0.8415    4.6506   -8.0638 H   0  0  0  0  0  0  0  0  0  0  0  0
    1.6913    5.5401   -5.8306 H   0  0  0  0  0  0  0  0  0  0  0  0
    3.2437    4.7222   -6.2603 H   0  0  0  0  0  0  0  0  0  0  0  0
    2.4462    4.3898   -4.6696 H   0  0  0  0  0  0  0  0  0  0  0  0
    2.0795    1.9992   -4.9059 H   0  0  0  0  0  0  0  0  0  0  0  0
    0.9293    0.1340   -6.0137 H   0  0  0  0  0  0  0  0  0  0  0  0
    1.5383    0.8950  -10.1169 H   0  0  0  0  0  0  0  0  0  0  0  0
    1.4148    0.8093  -12.5705 H   0  0  0  0  0  0  0  0  0  0  0  0
    0.3067   -0.2456  -14.5677 H   0  0  0  0  0  0  0  0  0  0  0  0
   -1.4021   -0.7965  -14.4537 H   0  0  0  0  0  0  0  0  0  0  0  0
   -1.0314    0.9717  -14.4770 H   0  0  0  0  0  0  0  0  0  0  0  0
   -2.5905   -0.7726  -12.3141 H   0  0  0  0  0  0  0  0  0  0  0  0
   -2.4867   -0.6530   -9.8757 H   0  0  0  0  0  0  0  0  0  0  0  0
   -4.7855   -4.7114   -6.1249 H   0  0  0  0  0  0  0  0  0  0  0  0
   -3.9375   -6.9954   -5.7272 H   0  0  0  0  0  0  0  0  0  0  0  0
   -3.3410   -8.5249   -3.3627 H   0  0  0  0  0  0  0  0  0  0  0  0
   -1.9705   -8.3043   -4.5193 H   0  0  0  0  0  0  0  0  0  0  0  0
   -1.7419   -7.9237   -2.7722 H   0  0  0  0  0  0  0  0  0  0  0  0
   -2.0841   -5.6604   -2.0694 H   0  0  0  0  0  0  0  0  0  0  0  0
   -2.8734   -3.3683   -2.5097 H   0  0  0  0  0  0  0  0  0  0  0  0
   -5.8507   -3.1453   -2.3654 H   0  0  0  0  0  0  0  0  0  0  0  0
   -8.2473   -2.6952   -2.0101 H   0  0  0  0  0  0  0  0  0  0  0  0
  -10.5885   -2.4489   -3.9865 H   0  0  0  0  0  0  0  0  0  0  0  0
  -10.3551   -0.7031   -4.4014 H   0  0  0  0  0  0  0  0  0  0  0  0
  -10.2022   -1.2424   -2.6901 H   0  0  0  0  0  0  0  0  0  0  0  0
   -8.5227   -1.0425   -5.9863 H   0  0  0  0  0  0  0  0  0  0  0  0
   -6.1384   -1.4983   -6.3411 H   0  0  0  0  0  0  0  0  0  0  0  0
   -6.3707    1.0897   -5.1811 H   0  0  0  0  0  0  0  0  0  0  0  0
   -7.4640    2.7973   -6.5812 H   0  0  0  0  0  0  0  0  0  0  0  0
   -7.0124    5.1950   -6.2105 H   0  0  0  0  0  0  0  0  0  0  0  0
   -6.2315    6.9364   -4.6297 H   0  0  0  0  0  0  0  0  0  0  0  0
   -5.1394    6.5081   -3.2707 H   0  0  0  0  0  0  0  0  0  0  0  0
   -3.8827    7.8070   -4.9284 H   0  0  0  0  0  0  0  0  0  0  0  0
   -4.3908    6.7045   -6.2628 H   0  0  0  0  0  0  0  0  0  0  0  0
   -3.2716    6.1102   -4.9727 H   0  0  0  0  0  0  0  0  0  0  0  0
   -4.3205    4.1927   -3.0067 H   0  0  0  0  0  0  0  0  0  0  0  0
   -0.0606    3.7036    8.5322 H   0  0  0  0  0  0  0  0  0  0  0  0
   -0.2444    5.4486   10.2733 H   0  0  0  0  0  0  0  0  0  0  0  0
   -1.3701    4.9656   12.4125 H   0  0  0  0  0  0  0  0  0  0  0  0
   -2.3212    1.5775   13.5001 H   0  0  0  0  0  0  0  0  0  0  0  0
   -2.1970    3.2952   13.9946 H   0  0  0  0  0  0  0  0  0  0  0  0
   -4.5582    2.5186   14.0183 H   0  0  0  0  0  0  0  0  0  0  0  0
   -4.3355    3.8098   12.7767 H   0  0  0  0  0  0  0  0  0  0  0  0
   -4.4607    2.0725   12.2745 H   0  0  0  0  0  0  0  0  0  0  0  0
   -2.2180    0.9635   11.0587 H   0  0  0  0  0  0  0  0  0  0  0  0
   -3.8701   -1.9381    0.6292 H   0  0  0  0  0  0  0  0  0  0  0  0
   -3.0426   -1.9048    2.1871 H   0  0  0  0  0  0  0  0  0  0  0  0
   -1.2668   -0.6923    0.1302 H   0  0  0  0  0  0  0  0  0  0  0  0
   -0.9996   -2.1823    1.1148 H   0  0  0  0  0  0  0  0  0  0  0  0
   -1.8794   -2.2885   -0.4394 H   0  0  0  0  0  0  0  0  0  0  0  0
   -0.3882    0.1124    4.1882 H   0  0  0  0  0  0  0  0  0  0  0  0
   -1.1613   -0.3366    2.6956 H   0  0  0  0  0  0  0  0  0  0  0  0
   -0.8313   -2.3054    5.0627 H   0  0  0  0  0  0  0  0  0  0  0  0
   -1.3780   -2.7208    3.4193 H   0  0  0  0  0  0  0  0  0  0  0  0
    0.3093   -2.1627    3.6762 H   0  0  0  0  0  0  0  0  0  0  0  0
    3.2966    4.2716    4.3004 H   0  0  0  0  0  0  0  0  0  0  0  0
    3.0634    2.5694    3.7224 H   0  0  0  0  0  0  0  0  0  0  0  0
    0.7881    4.4301    4.7022 H   0  0  0  0  0  0  0  0  0  0  0  0
    1.2360    4.1651    2.9712 H   0  0  0  0  0  0  0  0  0  0  0  0
    0.6104    2.7890    3.9470 H   0  0  0  0  0  0  0  0  0  0  0  0
    5.3347    3.8700    9.9580 H   0  0  0  0  0  0  0  0  0  0  0  0
    8.2900    0.0796    5.8928 H   0  0  0  0  0  0  0  0  0  0  0  0
   10.4747    4.3791    7.5619 H   0  0  0  0  0  0  0  0  0  0  0  0
   12.7810    2.0793    6.4605 H   0  0  0  0  0  0  0  0  0  0  0  0
   12.4481    4.0613    4.5402 H   0  0  0  0  0  0  0  0  0  0  0  0
   14.3668    2.5164    3.5604 H   0  0  0  0  0  0  0  0  0  0  0  0
   13.2849    0.2898    2.7296 H   0  0  0  0  0  0  0  0  0  0  0  0
   10.6717    0.4124    3.1798 H   0  0  0  0  0  0  0  0  0  0  0  0
   11.2459    2.9098    2.4642 H   0  0  0  0  0  0  0  0  0  0  0  0
   10.1051    2.9445    3.8707 H   0  0  0  0  0  0  0  0  0  0  0  0
   11.7782    0.0361    5.7064 H   0  0  0  0  0  0  0  0  0  0  0  0
  1  2  2  3
  2  3  1  0
  3  4  2  0
  3  5  1  0
  5  6  2  0
  6  7  1  0
  7  8  2  0
  8  9  1  0
  9 10  2  0
 10 11  1  0
 11 12  2  3
 12 13  1  0
 13 14  3  0
 12 15  1  0
 15 16  3  0
  8 17  1  0
 17 18  1  0
 18 19  1  0
 19 20  2  0
 20 21  1  0
 21 22  1  0
 21 23  1  0
  1 24  1  0
 24 25  2  0
 25 26  1  0
 26 27  1  0
 27 28  2  0
 28 29  1  0
 29 30  2  0
 30 31  1  0
 30 32  1  0
 32 33  2  0
 26 34  1  0
 34 35  2  0
 35 36  1  0
 36 37  2  0
 37 38  1  0
 37 39  1  0
 39 40  2  0
 25 41  1  0
 41 42  1  0
 42 43  1  0
 43 44  2  0
 44 45  1  0
 45 46  1  0
 46 47  2  0
 47 48  1  0
 48 49  2  0
 49 50  1  0
 49 51  1  0
 51 52  2  0
 45 53  1  0
 53 54  2  0
 54 55  1  0
 55 56  2  0
 56 57  1  0
 56 58  1  0
 58 59  2  0
 44 60  1  0
 60 61  1  0
 43 62  1  0
 62 63  2  0
 63 64  1  0
 64 65  2  0
 65 66  1  0
 66 67  2  0
 67 68  1  0
 68 69  1  0
 69 70  1  0
 68 71  2  0
 63 72  1  0
 72 73  1  0
 73 74  1  0
 74 75  1  0
 75 76  1  0
 76 77  1  0
 77 78  2  0
 78 79  1  0
 79 80  1  0
 77 81  1  0
 81 82  1  0
 82 83  1  0
 83 84  1  0
 84 85  1  0
 85 86  1  0
 86 87  2  0
 87 88  1  0
 88 89  2  0
 89 90  1  0
 90 91  1  0
 91 92  1  0
 90 93  2  0
 85 94  2  0
 94 95  1  0
 95 96  1  0
 96 97  1  0
 97 98  1  0
 98 99  1  0
 99100  1  0
100101  1  0
101102  1  0
102103  1  0
103104  1  0
101105  1  0
105106  1  0
 98107  1  0
107108  1  0
 94109  1  0
109110  1  0
110111  2  0
111112  1  0
112113  1  0
113114  1  0
112115  1  0
115116  2  0
116117  1  0
117118  2  0
118119  1  0
119120  1  0
118121  1  0
117122  1  0
122123  2  3
123124  1  0
124125  2  0
124126  1  0
126127  2  0
127128  1  0
128129  2  0
129130  1  0
130131  2  0
131132  1  0
132133  2  3
133134  1  0
134135  3  0
133136  1  0
136137  3  0
129138  1  0
138139  1  0
139140  1  0
140141  2  0
141142  1  0
142143  1  0
142144  1  0
 11  2  1  0
 23 17  1  0
 61 24  1  0
104 62  1  0
119109  2  0
132123  1  0
144138  1  0
 10  5  1  0
 22 18  1  0
 33 27  1  0
 40 34  1  0
 60 41  2  0
 71 64  1  0
103 72  2  0
116110  1  0
131126  1  0
143139  1  0
 23  7  1  0
 52 46  1  0
 59 53  1  0
102 74  2  0
144128  1  0
100 75  2  0
 80 76  2  0
 99 81  2  0
 97 82  2  0
 96 84  2  0
 93 86  1  0
  1145  1  0
  6146  1  0
  9147  1  0
 17148  1  0
 18149  1  0
 19150  1  0
 20151  1  0
 21152  1  0
 22153  1  0
 22154  1  0
 23155  1  0
 28156  1  0
 29157  1  0
 31158  1  0
 31159  1  0
 31160  1  0
 32161  1  0
 33162  1  0
 35163  1  0
 36164  1  0
 38165  1  0
 38166  1  0
 38167  1  0
 39168  1  0
 40169  1  0
 47170  1  0
 48171  1  0
 50172  1  0
 50173  1  0
 50174  1  0
 51175  1  0
 52176  1  0
 54177  1  0
 55178  1  0
 57179  1  0
 57180  1  0
 57181  1  0
 58182  1  0
 59183  1  0
 65184  1  0
 66185  1  0
 67186  1  0
 69187  1  0
 69188  1  0
 70189  1  0
 70190  1  0
 70191  1  0
 71192  1  0
 87193  1  0
 88194  1  0
 89195  1  0
 91196  1  0
 91197  1  0
 92198  1  0
 92199  1  0
 92200  1  0
 93201  1  0
105202  1  0
105203  1  0
106204  1  0
106205  1  0
106206  1  0
107207  1  0
107208  1  0
108209  1  0
108210  1  0
108211  1  0
113212  1  0
113213  1  0
114214  1  0
114215  1  0
114216  1  0
122217  1  0
127218  1  0
130219  1  0
138220  1  0
139221  1  0
140222  1  0
141223  1  0
142224  1  0
143225  1  0
143226  1  0
144227  1  0
M  END

