
     RDKit          3D

265293  0  0  0  0  0  0  0  0999 V2000
    7.3301    5.3069    1.1489 C   0  0  0  0  0  0  0  0  0  0  0  0
    7.1543    6.6438    1.2038 C   0  0  0  0  0  0  0  0  0  0  0  0
    6.3167    7.4023    0.2646 C   0  0  0  0  0  0  0  0  0  0  0  0
    5.9477    7.0267   -0.8788 O   0  0  0  0  0  0  0  0  0  0  0  0
    5.9659    8.6661    0.8689 C   0  0  0  0  0  0  0  0  0  0  0  0
    5.0046    9.5875    0.3958 C   0  0  0  0  0  0  0  0  0  0  0  0
    4.7098   10.5981    1.2845 C   0  0  0  0  0  0  0  0  0  0  0  0
    5.3253   10.7103    2.5690 C   0  0  0  0  0  0  0  0  0  0  0  0
    6.2786    9.8182    3.0352 C   0  0  0  0  0  0  0  0  0  0  0  0
    6.6077    8.7691    2.1301 C   0  0  0  0  0  0  0  0  0  0  0  0
    7.4698    7.5696    2.3373 C   0  0  0  0  0  0  0  0  0  0  0  0
    8.4198    7.4046    3.2981 C   0  0  0  0  0  0  0  0  0  0  0  0
    8.7011    8.4114    4.2892 C   0  0  0  0  0  0  0  0  0  0  0  0
    8.9315    9.2003    5.1065 N   0  0  0  0  0  0  0  0  0  0  0  0
    9.2096    6.2027    3.4122 C   0  0  0  0  0  0  0  0  0  0  0  0
    9.8293    5.2365    3.5407 N   0  0  0  0  0  0  0  0  0  0  0  0
    4.4815   11.9081    2.8889 C   0  0  0  0  0  0  0  0  0  0  0  0
    5.1860   13.2940    2.8369 C   0  0  0  0  0  0  0  0  0  0  0  0
    4.0763   14.3172    2.7957 C   0  0  0  0  0  0  0  0  0  0  0  0
    3.5028   14.2080    1.5926 C   0  0  0  0  0  0  0  0  0  0  0  0
    4.2505   13.1208    0.8565 C   0  0  0  0  0  0  0  0  0  0  0  0
    5.6463   13.3862    1.3911 C   0  0  0  0  0  0  0  0  0  0  0  0
    3.8544   11.7927    1.5656 C   0  0  0  0  0  0  0  0  0  0  0  0
    6.5706    4.4729    0.2108 C   0  0  0  0  0  0  0  0  0  0  0  0
    5.2237    4.1332    0.3833 C   0  0  0  0  0  0  0  0  0  0  0  0
    4.5292    4.2444    1.6364 N   0  0  0  0  0  0  0  0  0  0  0  0
    3.1852    4.7752    1.6737 C   0  0  0  0  0  0  0  0  0  0  0  0
    2.1937    4.1566    2.4530 C   0  0  0  0  0  0  0  0  0  0  0  0
    0.8766    4.6288    2.4268 C   0  0  0  0  0  0  0  0  0  0  0  0
    0.5364    5.7272    1.6285 C   0  0  0  0  0  0  0  0  0  0  0  0
   -0.8801    6.2064    1.5438 C   0  0  0  0  0  0  0  0  0  0  0  0
    1.5256    6.3455    0.8474 C   0  0  0  0  0  0  0  0  0  0  0  0
    2.8384    5.8752    0.8698 C   0  0  0  0  0  0  0  0  0  0  0  0
    5.1343    3.6484    2.8017 C   0  0  0  0  0  0  0  0  0  0  0  0
    5.1998    4.3536    4.0140 C   0  0  0  0  0  0  0  0  0  0  0  0
    5.8709    3.8059    5.1135 C   0  0  0  0  0  0  0  0  0  0  0  0
    6.4763    2.5427    5.0193 C   0  0  0  0  0  0  0  0  0  0  0  0
    7.2707    1.9962    6.1651 C   0  0  0  0  0  0  0  0  0  0  0  0
    6.4083    1.8320    3.8098 C   0  0  0  0  0  0  0  0  0  0  0  0
    5.7361    2.3794    2.7130 C   0  0  0  0  0  0  0  0  0  0  0  0
    4.7156    3.5074   -0.7385 C   0  0  0  0  0  0  0  0  0  0  0  0
    3.2306    2.8548   -1.1466 S   0  0  0  0  0  0  0  0  0  0  0  0
    3.7546    2.2859   -2.6709 C   0  0  0  0  0  0  0  0  0  0  0  0
    5.1147    2.6127   -2.8365 C   0  0  0  0  0  0  0  0  0  0  0  0
    5.9806    2.0967   -3.8558 N   0  0  0  0  0  0  0  0  0  0  0  0
    6.7373    0.8834   -3.5962 C   0  0  0  0  0  0  0  0  0  0  0  0
    7.3967    0.2048   -4.6403 C   0  0  0  0  0  0  0  0  0  0  0  0
    8.1065   -0.9769   -4.3957 C   0  0  0  0  0  0  0  0  0  0  0  0
    8.1601   -1.5147   -3.1028 C   0  0  0  0  0  0  0  0  0  0  0  0
    8.9244   -2.7764   -2.8440 C   0  0  0  0  0  0  0  0  0  0  0  0
    7.5097   -0.8554   -2.0537 C   0  0  0  0  0  0  0  0  0  0  0  0
    6.8054    0.3239   -2.2964 C   0  0  0  0  0  0  0  0  0  0  0  0
    6.3118    2.9701   -4.9557 C   0  0  0  0  0  0  0  0  0  0  0  0
    5.2961    3.5728   -5.7113 C   0  0  0  0  0  0  0  0  0  0  0  0
    5.6127    4.3994   -6.7945 C   0  0  0  0  0  0  0  0  0  0  0  0
    6.9486    4.6526   -7.1261 C   0  0  0  0  0  0  0  0  0  0  0  0
    7.2751    5.5258   -8.2989 C   0  0  0  0  0  0  0  0  0  0  0  0
    7.9689    4.0816   -6.3507 C   0  0  0  0  0  0  0  0  0  0  0  0
    7.6550    3.2569   -5.2691 C   0  0  0  0  0  0  0  0  0  0  0  0
    5.6054    3.3231   -1.7449 C   0  0  0  0  0  0  0  0  0  0  0  0
    7.1082    3.9591   -1.3238 S   0  0  0  0  0  0  0  0  0  0  0  0
    2.8017    1.8951   -3.7218 C   0  0  0  0  0  0  0  0  0  0  0  0
    2.9436    0.9151   -4.7255 C   0  0  0  0  0  0  0  0  0  0  0  0
    3.8287   -0.2568   -4.6225 C   0  0  0  0  0  0  0  0  0  0  0  0
    4.4894   -0.7475   -5.7555 C   0  0  0  0  0  0  0  0  0  0  0  0
    5.1529   -1.9816   -5.7062 C   0  0  0  0  0  0  0  0  0  0  0  0
    5.1593   -2.7265   -4.5269 C   0  0  0  0  0  0  0  0  0  0  0  0
    4.5210   -2.2319   -3.3739 C   0  0  0  0  0  0  0  0  0  0  0  0
    4.4543   -3.0687   -2.1258 C   0  0  0  0  0  0  0  0  0  0  0  0
    3.1630   -3.8813   -2.0917 C   0  0  0  0  0  0  0  0  0  0  0  0
    3.8502   -1.0051   -3.4340 C   0  0  0  0  0  0  0  0  0  0  0  0
    1.8303    0.9209   -5.5797 C   0  0  0  0  0  0  0  0  0  0  0  0
    1.2864   -0.1790   -6.7548 S   0  0  0  0  0  0  0  0  0  0  0  0
   -0.2571    0.5235   -6.7909 C   0  0  0  0  0  0  0  0  0  0  0  0
   -1.5022    0.0049   -7.0021 C   0  0  0  0  0  0  0  0  0  0  0  0
   -1.8493   -1.1512   -7.6959 C   0  0  0  0  0  0  0  0  0  0  0  0
   -3.1409   -1.6954   -7.5138 C   0  0  0  0  0  0  0  0  0  0  0  0
   -3.4143   -2.8599   -8.1523 N   0  0  0  0  0  0  0  0  0  0  0  0
   -1.9746   -3.1035   -8.9267 S   0  0  0  0  0  0  0  0  0  0  0  0
   -1.0020   -1.8362   -8.5041 N   0  0  0  0  0  0  0  0  0  0  0  0
   -4.0186   -1.0689   -6.6253 C   0  0  0  0  0  0  0  0  0  0  0  0
   -5.0661   -1.6477   -5.9654 C   0  0  0  0  0  0  0  0  0  0  0  0
   -5.3938   -3.2830   -5.6732 S   0  0  0  0  0  0  0  0  0  0  0  0
   -5.7954   -2.9903   -4.0538 C   0  0  0  0  0  0  0  0  0  0  0  0
   -5.8570   -3.8359   -2.9402 C   0  0  0  0  0  0  0  0  0  0  0  0
   -6.0030   -5.3136   -3.0053 C   0  0  0  0  0  0  0  0  0  0  0  0
   -6.9162   -5.9655   -2.1641 C   0  0  0  0  0  0  0  0  0  0  0  0
   -7.1272   -7.3453   -2.2818 C   0  0  0  0  0  0  0  0  0  0  0  0
   -6.4504   -8.0771   -3.2573 C   0  0  0  0  0  0  0  0  0  0  0  0
   -5.5416   -7.4374   -4.1120 C   0  0  0  0  0  0  0  0  0  0  0  0
   -4.9034   -8.1913   -5.2470 C   0  0  0  0  0  0  0  0  0  0  0  0
   -5.8251   -8.2122   -6.4615 C   0  0  0  0  0  0  0  0  0  0  0  0
   -5.3116   -6.0631   -3.9714 C   0  0  0  0  0  0  0  0  0  0  0  0
   -5.7417   -3.0825   -1.7509 C   0  0  0  0  0  0  0  0  0  0  0  0
   -5.5391   -1.4331   -2.1188 S   0  0  0  0  0  0  0  0  0  0  0  0
   -5.6690   -1.6528   -3.7729 C   0  0  0  0  0  0  0  0  0  0  0  0
   -5.2884   -0.8773   -4.8656 C   0  0  0  0  0  0  0  0  0  0  0  0
   -4.5508    0.2586   -4.8464 N   0  0  0  0  0  0  0  0  0  0  0  0
   -3.6920    0.1119   -5.9165 C   0  0  0  0  0  0  0  0  0  0  0  0
   -2.3787    0.6746   -6.1247 C   0  0  0  0  0  0  0  0  0  0  0  0
   -1.6732    1.6296   -5.4290 N   0  0  0  0  0  0  0  0  0  0  0  0
   -0.3909    1.5049   -5.8629 C   0  0  0  0  0  0  0  0  0  0  0  0
    0.8172    1.7743   -5.2148 C   0  0  0  0  0  0  0  0  0  0  0  0
    1.2747    2.6340   -3.8562 S   0  0  0  0  0  0  0  0  0  0  0  0
   -2.0998    2.5701   -4.3930 C   0  0  0  0  0  0  0  0  0  0  0  0
   -2.1238    1.9027   -3.0180 C   0  0  0  0  0  0  0  0  0  0  0  0
   -5.2345    1.4895   -4.4106 C   0  0  0  0  0  0  0  0  0  0  0  0
   -5.7528    2.2966   -5.6068 C   0  0  0  0  0  0  0  0  0  0  0  0
   -5.5709   -3.6172   -0.3961 C   0  0  0  0  0  0  0  0  0  0  0  0
   -4.3396   -3.8761    0.2326 C   0  0  0  0  0  0  0  0  0  0  0  0
   -3.0510   -3.7765   -0.4002 N   0  0  0  0  0  0  0  0  0  0  0  0
   -2.0907   -2.8181    0.0912 C   0  0  0  0  0  0  0  0  0  0  0  0
   -2.4851   -1.5011    0.3719 C   0  0  0  0  0  0  0  0  0  0  0  0
   -1.5434   -0.5557    0.7932 C   0  0  0  0  0  0  0  0  0  0  0  0
   -0.1998   -0.9168    0.9624 C   0  0  0  0  0  0  0  0  0  0  0  0
    0.8257    0.1081    1.3516 C   0  0  0  0  0  0  0  0  0  0  0  0
    0.1942   -2.2413    0.7042 C   0  0  0  0  0  0  0  0  0  0  0  0
   -0.7425   -3.1848    0.2761 C   0  0  0  0  0  0  0  0  0  0  0  0
   -2.6904   -4.6801   -1.4643 C   0  0  0  0  0  0  0  0  0  0  0  0
   -1.9859   -4.2019   -2.5846 C   0  0  0  0  0  0  0  0  0  0  0  0
   -1.5578   -5.0846   -3.5765 C   0  0  0  0  0  0  0  0  0  0  0  0
   -1.8264   -6.4551   -3.4686 C   0  0  0  0  0  0  0  0  0  0  0  0
   -1.2826   -7.3989   -4.4983 C   0  0  0  0  0  0  0  0  0  0  0  0
   -2.5361   -6.9344   -2.3575 C   0  0  0  0  0  0  0  0  0  0  0  0
   -2.9761   -6.0523   -1.3657 C   0  0  0  0  0  0  0  0  0  0  0  0
   -4.5166   -4.1317    1.5893 C   0  0  0  0  0  0  0  0  0  0  0  0
   -3.4850   -4.4371    2.8762 S   0  0  0  0  0  0  0  0  0  0  0  0
   -4.7398   -4.5316    4.0309 C   0  0  0  0  0  0  0  0  0  0  0  0
   -5.9632   -4.2696    3.3976 C   0  0  0  0  0  0  0  0  0  0  0  0
   -7.2404   -4.2477    4.0568 N   0  0  0  0  0  0  0  0  0  0  0  0
   -7.4803   -3.3248    5.1437 C   0  0  0  0  0  0  0  0  0  0  0  0
   -6.9402   -2.0278    5.1097 C   0  0  0  0  0  0  0  0  0  0  0  0
   -7.1686   -1.1388    6.1654 C   0  0  0  0  0  0  0  0  0  0  0  0
   -7.9433   -1.5271    7.2656 C   0  0  0  0  0  0  0  0  0  0  0  0
   -8.1996   -0.5622    8.3828 C   0  0  0  0  0  0  0  0  0  0  0  0
   -8.5049   -2.8149    7.2932 C   0  0  0  0  0  0  0  0  0  0  0  0
   -8.2678   -3.7069    6.2422 C   0  0  0  0  0  0  0  0  0  0  0  0
   -8.2931   -5.1055    3.5740 C   0  0  0  0  0  0  0  0  0  0  0  0
   -8.0116   -6.4297    3.1910 C   0  0  0  0  0  0  0  0  0  0  0  0
   -9.0330   -7.2621    2.7230 C   0  0  0  0  0  0  0  0  0  0  0  0
  -10.3523   -6.7896    2.6466 C   0  0  0  0  0  0  0  0  0  0  0  0
  -11.4402   -7.6805    2.1264 C   0  0  0  0  0  0  0  0  0  0  0  0
  -10.6293   -5.4584    2.9953 C   0  0  0  0  0  0  0  0  0  0  0  0
   -9.6103   -4.6267    3.4634 C   0  0  0  0  0  0  0  0  0  0  0  0
   -5.7956   -4.0755    2.0281 C   0  0  0  0  0  0  0  0  0  0  0  0
   -6.8233   -3.6696    0.7606 S   0  0  0  0  0  0  0  0  0  0  0  0
   -4.5360   -4.7413    5.4745 C   0  0  0  0  0  0  0  0  0  0  0  0
   -3.7795   -5.7354    5.9736 C   0  0  0  0  0  0  0  0  0  0  0  0
   -3.1544   -6.8112    5.1969 C   0  0  0  0  0  0  0  0  0  0  0  0
   -3.5311   -7.2342    4.0727 O   0  0  0  0  0  0  0  0  0  0  0  0
   -2.0610   -7.3549    5.9682 C   0  0  0  0  0  0  0  0  0  0  0  0
   -1.1001   -8.2755    5.5583 C   0  0  0  0  0  0  0  0  0  0  0  0
   -0.0421   -8.5670    6.4298 C   0  0  0  0  0  0  0  0  0  0  0  0
    0.0464   -7.9272    7.6836 C   0  0  0  0  0  0  0  0  0  0  0  0
    1.2285   -8.1820    8.5684 C   0  0  0  0  0  0  0  0  0  0  0  0
   -0.9365   -6.9897    8.0696 C   0  0  0  0  0  0  0  0  0  0  0  0
   -2.0170   -6.7359    7.2067 C   0  0  0  0  0  0  0  0  0  0  0  0
   -3.1625   -5.7968    7.3348 C   0  0  0  0  0  0  0  0  0  0  0  0
   -3.6562   -5.2691    8.4871 C   0  0  0  0  0  0  0  0  0  0  0  0
   -4.9295   -4.6042    8.5444 C   0  0  0  0  0  0  0  0  0  0  0  0
   -5.9521   -4.0716    8.6190 N   0  0  0  0  0  0  0  0  0  0  0  0
   -3.0243   -5.4733    9.7612 C   0  0  0  0  0  0  0  0  0  0  0  0
   -2.5322   -5.6374   10.7967 N   0  0  0  0  0  0  0  0  0  0  0  0
    7.8221    4.7716    1.9413 H   0  0  0  0  0  0  0  0  0  0  0  0
    4.4804    9.4713   -0.5451 H   0  0  0  0  0  0  0  0  0  0  0  0
    6.6516    9.8986    4.0401 H   0  0  0  0  0  0  0  0  0  0  0  0
    3.7933   11.7495    3.7451 H   0  0  0  0  0  0  0  0  0  0  0  0
    5.9661   13.4681    3.6076 H   0  0  0  0  0  0  0  0  0  0  0  0
    3.8137   15.0375    3.5637 H   0  0  0  0  0  0  0  0  0  0  0  0
    2.6936   14.8214    1.2149 H   0  0  0  0  0  0  0  0  0  0  0  0
    4.1424   13.1277   -0.2456 H   0  0  0  0  0  0  0  0  0  0  0  0
    6.4010   12.6188    1.1071 H   0  0  0  0  0  0  0  0  0  0  0  0
    6.0381   14.3938    1.1220 H   0  0  0  0  0  0  0  0  0  0  0  0
    2.7661   11.5616    1.5844 H   0  0  0  0  0  0  0  0  0  0  0  0
    2.4288    3.2865    3.0563 H   0  0  0  0  0  0  0  0  0  0  0  0
    0.1206    4.1307    3.0270 H   0  0  0  0  0  0  0  0  0  0  0  0
   -0.9058    7.3157    1.5253 H   0  0  0  0  0  0  0  0  0  0  0  0
   -1.4698    5.8589    2.4184 H   0  0  0  0  0  0  0  0  0  0  0  0
   -1.3510    5.8197    0.6139 H   0  0  0  0  0  0  0  0  0  0  0  0
    1.2767    7.1929    0.2198 H   0  0  0  0  0  0  0  0  0  0  0  0
    3.5823    6.3623    0.2559 H   0  0  0  0  0  0  0  0  0  0  0  0
    4.7568    5.3405    4.0956 H   0  0  0  0  0  0  0  0  0  0  0  0
    5.9329    4.3738    6.0365 H   0  0  0  0  0  0  0  0  0  0  0  0
    8.3196    2.3489    6.0761 H   0  0  0  0  0  0  0  0  0  0  0  0
    7.2604    0.8861    6.1574 H   0  0  0  0  0  0  0  0  0  0  0  0
    6.8509    2.3423    7.1332 H   0  0  0  0  0  0  0  0  0  0  0  0
    6.8823    0.8618    3.7142 H   0  0  0  0  0  0  0  0  0  0  0  0
    5.6926    1.8154    1.7923 H   0  0  0  0  0  0  0  0  0  0  0  0
    7.3383    0.5719   -5.6540 H   0  0  0  0  0  0  0  0  0  0  0  0
    8.5954   -1.4809   -5.2214 H   0  0  0  0  0  0  0  0  0  0  0  0
    8.6794   -3.5347   -3.6172 H   0  0  0  0  0  0  0  0  0  0  0  0
   10.0151   -2.5608   -2.8726 H   0  0  0  0  0  0  0  0  0  0  0  0
    8.6695   -3.2018   -1.8488 H   0  0  0  0  0  0  0  0  0  0  0  0
    7.5389   -1.2580   -1.0476 H   0  0  0  0  0  0  0  0  0  0  0  0
    6.3087    0.7823   -1.4526 H   0  0  0  0  0  0  0  0  0  0  0  0
    4.2583    3.3886   -5.4816 H   0  0  0  0  0  0  0  0  0  0  0  0
    4.8099    4.8389   -7.3739 H   0  0  0  0  0  0  0  0  0  0  0  0
    6.8300    5.0952   -9.2222 H   0  0  0  0  0  0  0  0  0  0  0  0
    6.8598    6.5451   -8.1368 H   0  0  0  0  0  0  0  0  0  0  0  0
    8.3731    5.6102   -8.4489 H   0  0  0  0  0  0  0  0  0  0  0  0
    9.0077    4.2734   -6.5861 H   0  0  0  0  0  0  0  0  0  0  0  0
    8.4587    2.8395   -4.6739 H   0  0  0  0  0  0  0  0  0  0  0  0
    4.4757   -0.1889   -6.6837 H   0  0  0  0  0  0  0  0  0  0  0  0
    5.6456   -2.3621   -6.5904 H   0  0  0  0  0  0  0  0  0  0  0  0
    5.6614   -3.6835   -4.5054 H   0  0  0  0  0  0  0  0  0  0  0  0
    5.3231   -3.7638   -2.0718 H   0  0  0  0  0  0  0  0  0  0  0  0
    4.4895   -2.4133   -1.2317 H   0  0  0  0  0  0  0  0  0  0  0  0
    2.2869   -3.1912   -2.0668 H   0  0  0  0  0  0  0  0  0  0  0  0
    3.1457   -4.5130   -1.1827 H   0  0  0  0  0  0  0  0  0  0  0  0
    3.0930   -4.5378   -2.9876 H   0  0  0  0  0  0  0  0  0  0  0  0
    3.2977   -0.6565   -2.5673 H   0  0  0  0  0  0  0  0  0  0  0  0
   -7.5058   -5.4121   -1.4497 H   0  0  0  0  0  0  0  0  0  0  0  0
   -7.8451   -7.8396   -1.6375 H   0  0  0  0  0  0  0  0  0  0  0  0
   -6.6461   -9.1410   -3.3602 H   0  0  0  0  0  0  0  0  0  0  0  0
   -4.6743   -9.2346   -4.9333 H   0  0  0  0  0  0  0  0  0  0  0  0
   -3.9450   -7.7082   -5.5326 H   0  0  0  0  0  0  0  0  0  0  0  0
   -6.7676   -8.7463   -6.2174 H   0  0  0  0  0  0  0  0  0  0  0  0
   -6.0662   -7.1753   -6.7858 H   0  0  0  0  0  0  0  0  0  0  0  0
   -5.3222   -8.7463   -7.2993 H   0  0  0  0  0  0  0  0  0  0  0  0
   -4.5826   -5.5919   -4.6153 H   0  0  0  0  0  0  0  0  0  0  0  0
   -3.0509    3.0376   -4.6905 H   0  0  0  0  0  0  0  0  0  0  0  0
   -1.3996    3.4307   -4.3564 H   0  0  0  0  0  0  0  0  0  0  0  0
   -1.0918    1.7164   -2.6598 H   0  0  0  0  0  0  0  0  0  0  0  0
   -2.6381    2.5709   -2.2908 H   0  0  0  0  0  0  0  0  0  0  0  0
   -2.6540    0.9273   -3.0587 H   0  0  0  0  0  0  0  0  0  0  0  0
   -4.6213    2.0994   -3.7372 H   0  0  0  0  0  0  0  0  0  0  0  0
   -6.1172    1.2265   -3.7808 H   0  0  0  0  0  0  0  0  0  0  0  0
   -6.2854    3.2018   -5.2453 H   0  0  0  0  0  0  0  0  0  0  0  0
   -4.9120    2.6170   -6.2565 H   0  0  0  0  0  0  0  0  0  0  0  0
   -6.4618    1.6764   -6.1991 H   0  0  0  0  0  0  0  0  0  0  0  0
   -3.5155   -1.1974    0.2351 H   0  0  0  0  0  0  0  0  0  0  0  0
   -1.8642    0.4653    0.9703 H   0  0  0  0  0  0  0  0  0  0  0  0
    1.3613    0.4546    0.4438 H   0  0  0  0  0  0  0  0  0  0  0  0
    0.3492    0.9824    1.8417 H   0  0  0  0  0  0  0  0  0  0  0  0
    1.5593   -0.3284    2.0605 H   0  0  0  0  0  0  0  0  0  0  0  0
    1.2288   -2.5390    0.8246 H   0  0  0  0  0  0  0  0  0  0  0  0
   -0.4233   -4.2012    0.0790 H   0  0  0  0  0  0  0  0  0  0  0  0
   -1.7607   -3.1468   -2.6763 H   0  0  0  0  0  0  0  0  0  0  0  0
   -0.9986   -4.6967   -4.4235 H   0  0  0  0  0  0  0  0  0  0  0  0
   -1.8146   -8.3741   -4.4691 H   0  0  0  0  0  0  0  0  0  0  0  0
   -0.2048   -7.5738   -4.3006 H   0  0  0  0  0  0  0  0  0  0  0  0
   -1.4012   -6.9690   -5.5157 H   0  0  0  0  0  0  0  0  0  0  0  0
   -2.7457   -7.9944   -2.2557 H   0  0  0  0  0  0  0  0  0  0  0  0
   -3.5073   -6.4433   -0.5073 H   0  0  0  0  0  0  0  0  0  0  0  0
   -6.3411   -1.7045    4.2668 H   0  0  0  0  0  0  0  0  0  0  0  0
   -6.7442   -0.1416    6.1200 H   0  0  0  0  0  0  0  0  0  0  0  0
   -8.4927   -1.0930    9.3139 H   0  0  0  0  0  0  0  0  0  0  0  0
   -7.2846    0.0291    8.6015 H   0  0  0  0  0  0  0  0  0  0  0  0
   -9.0148    0.1315    8.0893 H   0  0  0  0  0  0  0  0  0  0  0  0
   -9.1137   -3.1324    8.1318 H   0  0  0  0  0  0  0  0  0  0  0  0
   -8.6812   -4.7078    6.2999 H   0  0  0  0  0  0  0  0  0  0  0  0
   -7.0018   -6.8159    3.2572 H   0  0  0  0  0  0  0  0  0  0  0  0
   -8.7964   -8.2781    2.4292 H   0  0  0  0  0  0  0  0  0  0  0  0
  -11.2672   -8.7261    2.4553 H   0  0  0  0  0  0  0  0  0  0  0  0
  -11.4547   -7.6479    1.0176 H   0  0  0  0  0  0  0  0  0  0  0  0
  -12.4313   -7.3607    2.5154 H   0  0  0  0  0  0  0  0  0  0  0  0
  -11.6364   -5.0663    2.9110 H   0  0  0  0  0  0  0  0  0  0  0  0
   -9.8424   -3.5994    3.7221 H   0  0  0  0  0  0  0  0  0  0  0  0
   -4.9109   -3.9668    6.1154 H   0  0  0  0  0  0  0  0  0  0  0  0
   -1.1530   -8.7379    4.5811 H   0  0  0  0  0  0  0  0  0  0  0  0
    0.7198   -9.2730    6.1200 H   0  0  0  0  0  0  0  0  0  0  0  0
    0.9731   -7.9824    9.6291 H   0  0  0  0  0  0  0  0  0  0  0  0
    1.5533   -9.2415    8.4880 H   0  0  0  0  0  0  0  0  0  0  0  0
    2.0644   -7.5186    8.2653 H   0  0  0  0  0  0  0  0  0  0  0  0
   -0.8156   -6.4623    9.0006 H   0  0  0  0  0  0  0  0  0  0  0  0
  1  2  2  3
  2  3  1  0
  3  4  2  0
  3  5  1  0
  5  6  2  0
  6  7  1  0
  7  8  2  0
  8  9  1  0
  9 10  2  0
 10 11  1  0
 11 12  2  3
 12 13  1  0
 13 14  3  0
 12 15  1  0
 15 16  3  0
  8 17  1  0
 17 18  1  0
 18 19  1  0
 19 20  2  0
 20 21  1  0
 21 22  1  0
 21 23  1  0
  1 24  1  0
 24 25  2  0
 25 26  1  0
 26 27  1  0
 27 28  2  0
 28 29  1  0
 29 30  2  0
 30 31  1  0
 30 32  1  0
 32 33  2  0
 26 34  1  0
 34 35  2  0
 35 36  1  0
 36 37  2  0
 37 38  1  0
 37 39  1  0
 39 40  2  0
 25 41  1  0
 41 42  1  0
 42 43  1  0
 43 44  2  0
 44 45  1  0
 45 46  1  0
 46 47  2  0
 47 48  1  0
 48 49  2  0
 49 50  1  0
 49 51  1  0
 51 52  2  0
 45 53  1  0
 53 54  2  0
 54 55  1  0
 55 56  2  0
 56 57  1  0
 56 58  1  0
 58 59  2  0
 44 60  1  0
 60 61  1  0
 43 62  1  0
 62 63  2  0
 63 64  1  0
 64 65  2  0
 65 66  1  0
 66 67  2  0
 67 68  1  0
 68 69  1  0
 69 70  1  0
 68 71  2  0
 63 72  1  0
 72 73  1  0
 73 74  1  0
 74 75  1  0
 75 76  1  0
 76 77  1  0
 77 78  2  0
 78 79  1  0
 79 80  1  0
 77 81  1  0
 81 82  1  0
 82 83  1  0
 83 84  1  0
 84 85  1  0
 85 86  1  0
 86 87  2  0
 87 88  1  0
 88 89  2  0
 89 90  1  0
 90 91  1  0
 91 92  1  0
 90 93  2  0
 85 94  2  0
 94 95  1  0
 95 96  1  0
 96 97  1  0
 97 98  1  0
 98 99  1  0
 99100  1  0
100101  1  0
101102  1  0
102103  1  0
103104  1  0
101105  1  0
105106  1  0
 98107  1  0
107108  1  0
 94109  1  0
109110  2  0
110111  1  0
111112  1  0
112113  2  0
113114  1  0
114115  2  0
115116  1  0
115117  1  0
117118  2  0
111119  1  0
119120  2  0
120121  1  0
121122  2  0
122123  1  0
122124  1  0
124125  2  0
110126  1  0
126127  1  0
127128  1  0
128129  2  0
129130  1  0
130131  1  0
131132  2  0
132133  1  0
133134  2  0
134135  1  0
134136  1  0
136137  2  0
130138  1  0
138139  2  0
139140  1  0
140141  2  0
141142  1  0
141143  1  0
143144  2  0
129145  1  0
145146  1  0
128147  1  0
147148  2  3
148149  1  0
149150  2  0
149151  1  0
151152  2  0
152153  1  0
153154  2  0
154155  1  0
154156  1  0
156157  2  0
157158  1  0
158159  2  3
159160  1  0
160161  3  0
159162  1  0
162163  3  0
 11  2  1  0
 23 17  1  0
 61 24  1  0
104 62  1  0
146109  1  0
158148  1  0
 10  5  1  0
 22 18  1  0
 33 27  1  0
 40 34  1  0
 60 41  2  0
 71 64  1  0
103 72  2  0
118112  1  0
125119  1  0
145126  2  0
157151  1  0
 23  7  1  0
 52 46  1  0
 59 53  1  0
102 74  2  0
137131  1  0
144138  1  0
100 75  2  0
 80 76  2  0
 99 81  2  0
 97 82  2  0
 96 84  2  0
 93 86  1  0
  1164  1  0
  6165  1  0
  9166  1  0
 17167  1  0
 18168  1  0
 19169  1  0
 20170  1  0
 21171  1  0
 22172  1  0
 22173  1  0
 23174  1  0
 28175  1  0
 29176  1  0
 31177  1  0
 31178  1  0
 31179  1  0
 32180  1  0
 33181  1  0
 35182  1  0
 36183  1  0
 38184  1  0
 38185  1  0
 38186  1  0
 39187  1  0
 40188  1  0
 47189  1  0
 48190  1  0
 50191  1  0
 50192  1  0
 50193  1  0
 51194  1  0
 52195  1  0
 54196  1  0
 55197  1  0
 57198  1  0
 57199  1  0
 57200  1  0
 58201  1  0
 59202  1  0
 65203  1  0
 66204  1  0
 67205  1  0
 69206  1  0
 69207  1  0
 70208  1  0
 70209  1  0
 70210  1  0
 71211  1  0
 87212  1  0
 88213  1  0
 89214  1  0
 91215  1  0
 91216  1  0
 92217  1  0
 92218  1  0
 92219  1  0
 93220  1  0
105221  1  0
105222  1  0
106223  1  0
106224  1  0
106225  1  0
107226  1  0
107227  1  0
108228  1  0
108229  1  0
108230  1  0
113231  1  0
114232  1  0
116233  1  0
116234  1  0
116235  1  0
117236  1  0
118237  1  0
120238  1  0
121239  1  0
123240  1  0
123241  1  0
123242  1  0
124243  1  0
125244  1  0
132245  1  0
133246  1  0
135247  1  0
135248  1  0
135249  1  0
136250  1  0
137251  1  0
139252  1  0
140253  1  0
142254  1  0
142255  1  0
142256  1  0
143257  1  0
144258  1  0
147259  1  0
152260  1  0
153261  1  0
155262  1  0
155263  1  0
155264  1  0
156265  1  0
M  END

