
     RDKit          3D

227254  0  0  0  0  0  0  0  0999 V2000
    0.7651    2.9677   -7.0883 C   0  0  0  0  0  0  0  0  0  0  0  0
    1.4816    3.2700   -8.1948 C   0  0  0  0  0  0  0  0  0  0  0  0
    2.5307    4.2911   -8.3347 C   0  0  0  0  0  0  0  0  0  0  0  0
    2.5941    5.3846   -7.7131 O   0  0  0  0  0  0  0  0  0  0  0  0
    3.4090    3.9057   -9.4187 C   0  0  0  0  0  0  0  0  0  0  0  0
    4.6355    4.5054   -9.7864 C   0  0  0  0  0  0  0  0  0  0  0  0
    5.3270    3.8152  -10.7677 C   0  0  0  0  0  0  0  0  0  0  0  0
    4.8404    2.6029  -11.3599 C   0  0  0  0  0  0  0  0  0  0  0  0
    3.6270    2.0241  -11.0236 C   0  0  0  0  0  0  0  0  0  0  0  0
    2.8929    2.7348  -10.0333 C   0  0  0  0  0  0  0  0  0  0  0  0
    1.5878    2.4015   -9.4069 C   0  0  0  0  0  0  0  0  0  0  0  0
    0.5881    1.6665   -9.9656 C   0  0  0  0  0  0  0  0  0  0  0  0
   -0.7591    1.6890   -9.4476 C   0  0  0  0  0  0  0  0  0  0  0  0
   -1.8423    1.7146   -9.0396 N   0  0  0  0  0  0  0  0  0  0  0  0
    0.7589    0.9346  -11.1902 C   0  0  0  0  0  0  0  0  0  0  0  0
    0.8947    0.3114  -12.1599 N   0  0  0  0  0  0  0  0  0  0  0  0
    6.0889    2.4863  -12.1851 C   0  0  0  0  0  0  0  0  0  0  0  0
    5.9591    2.8257  -13.6982 C   0  0  0  0  0  0  0  0  0  0  0  0
    7.3689    3.0150  -14.2009 C   0  0  0  0  0  0  0  0  0  0  0  0
    7.8136    4.1562  -13.6616 C   0  0  0  0  0  0  0  0  0  0  0  0
    6.6880    4.6959  -12.8102 C   0  0  0  0  0  0  0  0  0  0  0  0
    5.5172    4.2789  -13.6851 C   0  0  0  0  0  0  0  0  0  0  0  0
    6.5790    3.7332  -11.5923 C   0  0  0  0  0  0  0  0  0  0  0  0
    0.8819    3.5892   -5.7471 C   0  0  0  0  0  0  0  0  0  0  0  0
   -0.0783    3.4377   -4.7281 C   0  0  0  0  0  0  0  0  0  0  0  0
   -1.2479    2.6152   -4.8372 N   0  0  0  0  0  0  0  0  0  0  0  0
   -1.1870    1.2391   -4.3833 C   0  0  0  0  0  0  0  0  0  0  0  0
   -2.3115    0.6130   -3.8100 C   0  0  0  0  0  0  0  0  0  0  0  0
   -2.2507   -0.7212   -3.3943 C   0  0  0  0  0  0  0  0  0  0  0  0
   -1.0656   -1.4542   -3.5349 C   0  0  0  0  0  0  0  0  0  0  0  0
   -0.9883   -2.8743   -3.0622 C   0  0  0  0  0  0  0  0  0  0  0  0
    0.0721   -0.8281   -4.0605 C   0  0  0  0  0  0  0  0  0  0  0  0
    0.0122    0.5030   -4.4795 C   0  0  0  0  0  0  0  0  0  0  0  0
   -2.4806    3.1989   -5.3083 C   0  0  0  0  0  0  0  0  0  0  0  0
   -2.8686    4.4852   -4.8977 C   0  0  0  0  0  0  0  0  0  0  0  0
   -4.1053    5.0108   -5.2864 C   0  0  0  0  0  0  0  0  0  0  0  0
   -4.9705    4.2642   -6.0967 C   0  0  0  0  0  0  0  0  0  0  0  0
   -6.3372    4.7881   -6.4249 C   0  0  0  0  0  0  0  0  0  0  0  0
   -4.5787    2.9897   -6.5276 C   0  0  0  0  0  0  0  0  0  0  0  0
   -3.3385    2.4661   -6.1465 C   0  0  0  0  0  0  0  0  0  0  0  0
    0.3698    3.9561   -3.5159 C   0  0  0  0  0  0  0  0  0  0  0  0
   -0.2608    4.0271   -1.9626 S   0  0  0  0  0  0  0  0  0  0  0  0
    1.1340    4.7457   -1.2904 C   0  0  0  0  0  0  0  0  0  0  0  0
    2.1029    4.8986   -2.2893 C   0  0  0  0  0  0  0  0  0  0  0  0
    3.4467    5.3378   -2.0678 N   0  0  0  0  0  0  0  0  0  0  0  0
    4.5098    4.3687   -2.1998 C   0  0  0  0  0  0  0  0  0  0  0  0
    4.3279    3.0519   -1.7363 C   0  0  0  0  0  0  0  0  0  0  0  0
    5.3106    2.0809   -1.9486 C   0  0  0  0  0  0  0  0  0  0  0  0
    6.4874    2.4058   -2.6357 C   0  0  0  0  0  0  0  0  0  0  0  0
    7.5436    1.3665   -2.8723 C   0  0  0  0  0  0  0  0  0  0  0  0
    6.6883    3.7229   -3.0744 C   0  0  0  0  0  0  0  0  0  0  0  0
    5.7036    4.6945   -2.8650 C   0  0  0  0  0  0  0  0  0  0  0  0
    3.7149    6.7512   -1.9653 C   0  0  0  0  0  0  0  0  0  0  0  0
    4.7087    7.2270   -1.0965 C   0  0  0  0  0  0  0  0  0  0  0  0
    4.9886    8.5949   -1.0202 C   0  0  0  0  0  0  0  0  0  0  0  0
    4.2685    9.5086   -1.8042 C   0  0  0  0  0  0  0  0  0  0  0  0
    4.5997   10.9711   -1.7594 C   0  0  0  0  0  0  0  0  0  0  0  0
    3.2857    9.0359   -2.6842 C   0  0  0  0  0  0  0  0  0  0  0  0
    3.0063    7.6698   -2.7606 C   0  0  0  0  0  0  0  0  0  0  0  0
    1.6316    4.4542   -3.5229 C   0  0  0  0  0  0  0  0  0  0  0  0
    2.2883    4.2852   -5.0549 S   0  0  0  0  0  0  0  0  0  0  0  0
    1.2592    5.0704    0.1369 C   0  0  0  0  0  0  0  0  0  0  0  0
    0.5115    6.0817    0.7584 C   0  0  0  0  0  0  0  0  0  0  0  0
   -0.1812    7.1542    0.0256 C   0  0  0  0  0  0  0  0  0  0  0  0
    0.5472    8.2423   -0.4699 C   0  0  0  0  0  0  0  0  0  0  0  0
   -0.0995    9.2511   -1.1857 C   0  0  0  0  0  0  0  0  0  0  0  0
   -1.4779    9.1859   -1.4008 C   0  0  0  0  0  0  0  0  0  0  0  0
   -2.2244    8.1156   -0.8854 C   0  0  0  0  0  0  0  0  0  0  0  0
   -3.7034    8.0246   -1.1463 C   0  0  0  0  0  0  0  0  0  0  0  0
   -3.9770    7.1981   -2.3965 C   0  0  0  0  0  0  0  0  0  0  0  0
   -1.5673    7.0936   -0.1847 C   0  0  0  0  0  0  0  0  0  0  0  0
    0.3140    5.8274    2.1154 C   0  0  0  0  0  0  0  0  0  0  0  0
   -0.8873    6.3898    3.1741 S   0  0  0  0  0  0  0  0  0  0  0  0
   -0.6046    5.1271    4.2666 C   0  0  0  0  0  0  0  0  0  0  0  0
   -1.4592    4.4017    5.0560 C   0  0  0  0  0  0  0  0  0  0  0  0
   -2.8427    4.5925    5.2276 C   0  0  0  0  0  0  0  0  0  0  0  0
   -3.6550    3.4810    5.6059 C   0  0  0  0  0  0  0  0  0  0  0  0
   -4.9943    3.6828    5.6820 N   0  0  0  0  0  0  0  0  0  0  0  0
   -5.0531    5.2823    5.2422 S   0  0  0  0  0  0  0  0  0  0  0  0
   -3.4919    5.7529    4.9534 N   0  0  0  0  0  0  0  0  0  0  0  0
   -3.0296    2.2661    5.8782 C   0  0  0  0  0  0  0  0  0  0  0  0
   -3.5204    1.0536    6.2612 C   0  0  0  0  0  0  0  0  0  0  0  0
   -4.9931    0.2133    6.2879 S   0  0  0  0  0  0  0  0  0  0  0  0
   -4.1768   -1.2423    6.6760 C   0  0  0  0  0  0  0  0  0  0  0  0
   -4.5722   -2.5850    6.6763 C   0  0  0  0  0  0  0  0  0  0  0  0
   -5.9222   -3.0082    6.2495 C   0  0  0  0  0  0  0  0  0  0  0  0
   -6.0793   -3.8527    5.1395 C   0  0  0  0  0  0  0  0  0  0  0  0
   -7.3553   -4.2238    4.7122 C   0  0  0  0  0  0  0  0  0  0  0  0
   -8.4863   -3.7564    5.3861 C   0  0  0  0  0  0  0  0  0  0  0  0
   -8.3455   -2.9111    6.4975 C   0  0  0  0  0  0  0  0  0  0  0  0
   -9.5612   -2.3749    7.2019 C   0  0  0  0  0  0  0  0  0  0  0  0
  -10.0327   -1.0793    6.5477 C   0  0  0  0  0  0  0  0  0  0  0  0
   -7.0604   -2.5243    6.9123 C   0  0  0  0  0  0  0  0  0  0  0  0
   -3.4601   -3.4439    6.8647 C   0  0  0  0  0  0  0  0  0  0  0  0
   -2.0321   -2.5033    6.9444 S   0  0  0  0  0  0  0  0  0  0  0  0
   -2.8241   -1.0438    6.7808 C   0  0  0  0  0  0  0  0  0  0  0  0
   -2.4544    0.2572    6.4986 C   0  0  0  0  0  0  0  0  0  0  0  0
   -1.2676    0.8610    6.2604 N   0  0  0  0  0  0  0  0  0  0  0  0
   -1.6404    2.0968    5.7879 C   0  0  0  0  0  0  0  0  0  0  0  0
   -0.8711    3.1339    5.2042 C   0  0  0  0  0  0  0  0  0  0  0  0
    0.2068    3.0149    4.3616 N   0  0  0  0  0  0  0  0  0  0  0  0
    0.3542    4.2570    3.8200 C   0  0  0  0  0  0  0  0  0  0  0  0
    0.8778    4.6658    2.5839 C   0  0  0  0  0  0  0  0  0  0  0  0
    1.6226    3.8795    1.2969 S   0  0  0  0  0  0  0  0  0  0  0  0
    0.6868    1.7804    3.7216 C   0  0  0  0  0  0  0  0  0  0  0  0
   -0.3058    1.2884    2.6658 C   0  0  0  0  0  0  0  0  0  0  0  0
    0.0011    0.4064    6.8558 C   0  0  0  0  0  0  0  0  0  0  0  0
    0.8782    1.5547    7.3596 C   0  0  0  0  0  0  0  0  0  0  0  0
   -3.4777   -4.9283    6.8936 C   0  0  0  0  0  0  0  0  0  0  0  0
   -2.4783   -5.7179    6.4888 C   0  0  0  0  0  0  0  0  0  0  0  0
   -2.9077   -7.0607    6.3487 C   0  0  0  0  0  0  0  0  0  0  0  0
   -4.2885   -7.0732    6.7502 C   0  0  0  0  0  0  0  0  0  0  0  0
   -5.0577   -8.0723    6.7750 O   0  0  0  0  0  0  0  0  0  0  0  0
   -4.6536   -5.7440    7.1489 N   0  0  0  0  0  0  0  0  0  0  0  0
   -5.6190   -5.4924    8.2168 C   0  0  0  0  0  0  0  0  0  0  0  0
   -1.9944   -7.8154    5.7484 C   0  0  0  0  0  0  0  0  0  0  0  0
   -0.8422   -7.0013    5.4390 N   0  0  0  0  0  0  0  0  0  0  0  0
    0.4562   -7.4597    4.9614 C   0  0  0  0  0  0  0  0  0  0  0  0
   -1.1525   -5.6808    5.8995 C   0  0  0  0  0  0  0  0  0  0  0  0
   -0.3907   -4.6871    5.7822 O   0  0  0  0  0  0  0  0  0  0  0  0
   -2.2425   -9.1281    5.1324 C   0  0  0  0  0  0  0  0  0  0  0  0
   -1.4691  -10.1970    5.3882 C   0  0  0  0  0  0  0  0  0  0  0  0
   -0.4686  -10.2726    6.4590 C   0  0  0  0  0  0  0  0  0  0  0  0
   -0.4530   -9.5789    7.5108 O   0  0  0  0  0  0  0  0  0  0  0  0
    0.5075  -11.2845    6.1084 C   0  0  0  0  0  0  0  0  0  0  0  0
    1.7115  -11.5833    6.7866 C   0  0  0  0  0  0  0  0  0  0  0  0
    2.5333  -12.4606    6.1015 C   0  0  0  0  0  0  0  0  0  0  0  0
    2.2042  -12.9977    4.8141 C   0  0  0  0  0  0  0  0  0  0  0  0
    1.0125  -12.7277    4.1582 C   0  0  0  0  0  0  0  0  0  0  0  0
    0.1303  -11.8690    4.8717 C   0  0  0  0  0  0  0  0  0  0  0  0
   -1.2000  -11.3372    4.4641 C   0  0  0  0  0  0  0  0  0  0  0  0
   -2.0660  -11.9023    3.5859 C   0  0  0  0  0  0  0  0  0  0  0  0
   -3.4182  -11.4318    3.4287 C   0  0  0  0  0  0  0  0  0  0  0  0
   -4.5117  -11.0686    3.2996 N   0  0  0  0  0  0  0  0  0  0  0  0
   -1.7558  -13.1111    2.8682 C   0  0  0  0  0  0  0  0  0  0  0  0
   -1.5189  -14.0842    2.2885 N   0  0  0  0  0  0  0  0  0  0  0  0
    3.5382  -13.6808    4.7413 C   0  0  0  0  0  0  0  0  0  0  0  0
    4.6394  -13.0434    3.8425 C   0  0  0  0  0  0  0  0  0  0  0  0
    4.4877  -11.5358    3.8136 C   0  0  0  0  0  0  0  0  0  0  0  0
    4.7957  -11.0945    5.0341 C   0  0  0  0  0  0  0  0  0  0  0  0
    5.1355  -12.3152    5.8556 C   0  0  0  0  0  0  0  0  0  0  0  0
    5.8244  -13.1395    4.7875 C   0  0  0  0  0  0  0  0  0  0  0  0
    3.8548  -13.1750    6.0809 C   0  0  0  0  0  0  0  0  0  0  0  0
    0.0867    2.1261   -7.1281 H   0  0  0  0  0  0  0  0  0  0  0  0
    5.0279    5.3955   -9.3100 H   0  0  0  0  0  0  0  0  0  0  0  0
    3.3165    1.0854  -11.4534 H   0  0  0  0  0  0  0  0  0  0  0  0
    6.7049    1.5885  -11.9443 H   0  0  0  0  0  0  0  0  0  0  0  0
    5.3344    2.1286  -14.2910 H   0  0  0  0  0  0  0  0  0  0  0  0
    7.8985    2.3995  -14.9195 H   0  0  0  0  0  0  0  0  0  0  0  0
    8.7666    4.6288  -13.8697 H   0  0  0  0  0  0  0  0  0  0  0  0
    6.7522    5.7778  -12.5623 H   0  0  0  0  0  0  0  0  0  0  0  0
    4.5170    4.4489  -13.2286 H   0  0  0  0  0  0  0  0  0  0  0  0
    5.5302    4.7546  -14.6961 H   0  0  0  0  0  0  0  0  0  0  0  0
    7.5056    3.6252  -10.9853 H   0  0  0  0  0  0  0  0  0  0  0  0
   -3.2370    1.1560   -3.6785 H   0  0  0  0  0  0  0  0  0  0  0  0
   -3.1305   -1.1797   -2.9612 H   0  0  0  0  0  0  0  0  0  0  0  0
   -0.5261   -2.9046   -2.0535 H   0  0  0  0  0  0  0  0  0  0  0  0
   -0.3717   -3.4773   -3.7630 H   0  0  0  0  0  0  0  0  0  0  0  0
   -1.9993   -3.3364   -3.0113 H   0  0  0  0  0  0  0  0  0  0  0  0
    1.0038   -1.3767   -4.1499 H   0  0  0  0  0  0  0  0  0  0  0  0
    0.9052    0.9508   -4.8892 H   0  0  0  0  0  0  0  0  0  0  0  0
   -2.2314    5.0719   -4.2494 H   0  0  0  0  0  0  0  0  0  0  0  0
   -4.3993    5.9904   -4.9354 H   0  0  0  0  0  0  0  0  0  0  0  0
   -7.0548    4.4362   -5.6548 H   0  0  0  0  0  0  0  0  0  0  0  0
   -6.3417    5.8975   -6.4423 H   0  0  0  0  0  0  0  0  0  0  0  0
   -6.6666    4.4214   -7.4198 H   0  0  0  0  0  0  0  0  0  0  0  0
   -5.2411    2.3943   -7.1436 H   0  0  0  0  0  0  0  0  0  0  0  0
   -3.0556    1.4797   -6.4866 H   0  0  0  0  0  0  0  0  0  0  0  0
    3.4173    2.7729   -1.2224 H   0  0  0  0  0  0  0  0  0  0  0  0
    5.1430    1.0719   -1.5930 H   0  0  0  0  0  0  0  0  0  0  0  0
    8.0292    1.5280   -3.8574 H   0  0  0  0  0  0  0  0  0  0  0  0
    8.3113    1.4321   -2.0750 H   0  0  0  0  0  0  0  0  0  0  0  0
    7.1050    0.3463   -2.8636 H   0  0  0  0  0  0  0  0  0  0  0  0
    7.5987    3.9925   -3.5937 H   0  0  0  0  0  0  0  0  0  0  0  0
    5.8631    5.6928   -3.2562 H   0  0  0  0  0  0  0  0  0  0  0  0
    5.2722    6.5373   -0.4799 H   0  0  0  0  0  0  0  0  0  0  0  0
    5.7686    8.9404   -0.3514 H   0  0  0  0  0  0  0  0  0  0  0  0
    5.0249   11.2483   -0.7716 H   0  0  0  0  0  0  0  0  0  0  0  0
    3.6864   11.5820   -1.9263 H   0  0  0  0  0  0  0  0  0  0  0  0
    5.3397   11.2053   -2.5510 H   0  0  0  0  0  0  0  0  0  0  0  0
    2.7331    9.7264   -3.3110 H   0  0  0  0  0  0  0  0  0  0  0  0
    2.2459    7.3344   -3.4542 H   0  0  0  0  0  0  0  0  0  0  0  0
    1.6113    8.3129   -0.2946 H   0  0  0  0  0  0  0  0  0  0  0  0
    0.4665   10.0885   -1.5694 H   0  0  0  0  0  0  0  0  0  0  0  0
   -1.9673    9.9768   -1.9532 H   0  0  0  0  0  0  0  0  0  0  0  0
   -4.1365    9.0405   -1.2791 H   0  0  0  0  0  0  0  0  0  0  0  0
   -4.2160    7.5561   -0.2780 H   0  0  0  0  0  0  0  0  0  0  0  0
   -3.6169    6.1556   -2.2547 H   0  0  0  0  0  0  0  0  0  0  0  0
   -5.0701    7.1748   -2.5999 H   0  0  0  0  0  0  0  0  0  0  0  0
   -3.4608    7.6442   -3.2756 H   0  0  0  0  0  0  0  0  0  0  0  0
   -2.1296    6.2469    0.1941 H   0  0  0  0  0  0  0  0  0  0  0  0
   -5.2156   -4.2082    4.5954 H   0  0  0  0  0  0  0  0  0  0  0  0
   -7.4690   -4.8690    3.8480 H   0  0  0  0  0  0  0  0  0  0  0  0
   -9.4711   -4.0404    5.0352 H   0  0  0  0  0  0  0  0  0  0  0  0
   -9.3327   -2.1798    8.2713 H   0  0  0  0  0  0  0  0  0  0  0  0
  -10.3829   -3.1204    7.1692 H   0  0  0  0  0  0  0  0  0  0  0  0
  -10.9107   -0.6793    7.1007 H   0  0  0  0  0  0  0  0  0  0  0  0
  -10.3241   -1.2643    5.4887 H   0  0  0  0  0  0  0  0  0  0  0  0
   -9.2195   -0.3168    6.5725 H   0  0  0  0  0  0  0  0  0  0  0  0
   -6.9420   -1.8606    7.7602 H   0  0  0  0  0  0  0  0  0  0  0  0
    0.8435    0.9852    4.4562 H   0  0  0  0  0  0  0  0  0  0  0  0
    1.6795    1.9511    3.2626 H   0  0  0  0  0  0  0  0  0  0  0  0
   -1.2214    0.8934    3.1544 H   0  0  0  0  0  0  0  0  0  0  0  0
   -0.5945    2.1130    1.9813 H   0  0  0  0  0  0  0  0  0  0  0  0
    0.1560    0.4773    2.0661 H   0  0  0  0  0  0  0  0  0  0  0  0
    0.5523   -0.2615    6.1664 H   0  0  0  0  0  0  0  0  0  0  0  0
   -0.2296   -0.2169    7.7468 H   0  0  0  0  0  0  0  0  0  0  0  0
    1.3920    2.0616    6.5212 H   0  0  0  0  0  0  0  0  0  0  0  0
    1.6531    1.1559    8.0439 H   0  0  0  0  0  0  0  0  0  0  0  0
    0.2691    2.2926    7.9213 H   0  0  0  0  0  0  0  0  0  0  0  0
   -6.6405   -5.7255    7.8536 H   0  0  0  0  0  0  0  0  0  0  0  0
   -5.3849   -6.1420    9.0880 H   0  0  0  0  0  0  0  0  0  0  0  0
   -5.5809   -4.4387    8.5533 H   0  0  0  0  0  0  0  0  0  0  0  0
    1.0066   -6.6244    4.4812 H   0  0  0  0  0  0  0  0  0  0  0  0
    0.3260   -8.2685    4.2093 H   0  0  0  0  0  0  0  0  0  0  0  0
    1.0500   -7.8407    5.8150 H   0  0  0  0  0  0  0  0  0  0  0  0
   -2.9123   -9.1153    4.2856 H   0  0  0  0  0  0  0  0  0  0  0  0
    1.9981  -11.1218    7.7219 H   0  0  0  0  0  0  0  0  0  0  0  0
    0.8197  -13.1008    3.1634 H   0  0  0  0  0  0  0  0  0  0  0  0
    3.4715  -14.7890    4.6841 H   0  0  0  0  0  0  0  0  0  0  0  0
    4.7776  -13.5162    2.8493 H   0  0  0  0  0  0  0  0  0  0  0  0
    4.2572  -10.9123    2.9553 H   0  0  0  0  0  0  0  0  0  0  0  0
    4.8416  -10.0569    5.3467 H   0  0  0  0  0  0  0  0  0  0  0  0
    5.7355  -12.1173    6.7683 H   0  0  0  0  0  0  0  0  0  0  0  0
    6.0554  -14.1836    5.1087 H   0  0  0  0  0  0  0  0  0  0  0  0
    6.7516  -12.6635    4.3878 H   0  0  0  0  0  0  0  0  0  0  0  0
    3.9489  -13.9735    6.8518 H   0  0  0  0  0  0  0  0  0  0  0  0
  1  2  2  3
  2  3  1  0
  3  4  2  0
  3  5  1  0
  5  6  2  0
  6  7  1  0
  7  8  2  0
  8  9  1  0
  9 10  2  0
 10 11  1  0
 11 12  2  3
 12 13  1  0
 13 14  3  0
 12 15  1  0
 15 16  3  0
  8 17  1  0
 17 18  1  0
 18 19  1  0
 19 20  2  0
 20 21  1  0
 21 22  1  0
 21 23  1  0
  1 24  1  0
 24 25  2  0
 25 26  1  0
 26 27  1  0
 27 28  2  0
 28 29  1  0
 29 30  2  0
 30 31  1  0
 30 32  1  0
 32 33  2  0
 26 34  1  0
 34 35  2  0
 35 36  1  0
 36 37  2  0
 37 38  1  0
 37 39  1  0
 39 40  2  0
 25 41  1  0
 41 42  1  0
 42 43  1  0
 43 44  2  0
 44 45  1  0
 45 46  1  0
 46 47  2  0
 47 48  1  0
 48 49  2  0
 49 50  1  0
 49 51  1  0
 51 52  2  0
 45 53  1  0
 53 54  2  0
 54 55  1  0
 55 56  2  0
 56 57  1  0
 56 58  1  0
 58 59  2  0
 44 60  1  0
 60 61  1  0
 43 62  1  0
 62 63  2  0
 63 64  1  0
 64 65  2  0
 65 66  1  0
 66 67  2  0
 67 68  1  0
 68 69  1  0
 69 70  1  0
 68 71  2  0
 63 72  1  0
 72 73  1  0
 73 74  1  0
 74 75  1  0
 75 76  1  0
 76 77  1  0
 77 78  2  0
 78 79  1  0
 79 80  1  0
 77 81  1  0
 81 82  1  0
 82 83  1  0
 83 84  1  0
 84 85  1  0
 85 86  1  0
 86 87  2  0
 87 88  1  0
 88 89  2  0
 89 90  1  0
 90 91  1  0
 91 92  1  0
 90 93  2  0
 85 94  2  0
 94 95  1  0
 95 96  1  0
 96 97  1  0
 97 98  1  0
 98 99  1  0
 99100  1  0
100101  1  0
101102  1  0
102103  1  0
103104  1  0
101105  1  0
105106  1  0
 98107  1  0
107108  1  0
 94109  1  0
109110  2  0
110111  1  0
111112  1  0
112113  2  0
112114  1  0
114115  1  0
111116  2  0
116117  1  0
117118  1  0
117119  1  0
119120  2  0
116121  1  0
121122  2  3
122123  1  0
123124  2  0
123125  1  0
125126  2  0
126127  1  0
127128  2  0
128129  1  0
129130  2  0
130131  1  0
131132  2  3
132133  1  0
133134  3  0
132135  1  0
135136  3  0
128137  1  0
137138  1  0
138139  1  0
139140  2  0
140141  1  0
141142  1  0
141143  1  0
 11  2  1  0
 23 17  1  0
 61 24  1  0
104 62  1  0
114109  1  0
131122  1  0
143137  1  0
 10  5  1  0
 22 18  1  0
 33 27  1  0
 40 34  1  0
 60 41  2  0
 71 64  1  0
103 72  2  0
119110  1  0
130125  1  0
142138  1  0
 23  7  1  0
 52 46  1  0
 59 53  1  0
102 74  2  0
143127  1  0
100 75  2  0
 80 76  2  0
 99 81  2  0
 97 82  2  0
 96 84  2  0
 93 86  1  0
  1144  1  0
  6145  1  0
  9146  1  0
 17147  1  0
 18148  1  0
 19149  1  0
 20150  1  0
 21151  1  0
 22152  1  0
 22153  1  0
 23154  1  0
 28155  1  0
 29156  1  0
 31157  1  0
 31158  1  0
 31159  1  0
 32160  1  0
 33161  1  0
 35162  1  0
 36163  1  0
 38164  1  0
 38165  1  0
 38166  1  0
 39167  1  0
 40168  1  0
 47169  1  0
 48170  1  0
 50171  1  0
 50172  1  0
 50173  1  0
 51174  1  0
 52175  1  0
 54176  1  0
 55177  1  0
 57178  1  0
 57179  1  0
 57180  1  0
 58181  1  0
 59182  1  0
 65183  1  0
 66184  1  0
 67185  1  0
 69186  1  0
 69187  1  0
 70188  1  0
 70189  1  0
 70190  1  0
 71191  1  0
 87192  1  0
 88193  1  0
 89194  1  0
 91195  1  0
 91196  1  0
 92197  1  0
 92198  1  0
 92199  1  0
 93200  1  0
105201  1  0
105202  1  0
106203  1  0
106204  1  0
106205  1  0
107206  1  0
107207  1  0
108208  1  0
108209  1  0
108210  1  0
115211  1  0
115212  1  0
115213  1  0
118214  1  0
118215  1  0
118216  1  0
121217  1  0
126218  1  0
129219  1  0
137220  1  0
138221  1  0
139222  1  0
140223  1  0
141224  1  0
142225  1  0
142226  1  0
143227  1  0
M  END

