
     RDKit          3D

266294  0  0  0  0  0  0  0  0999 V2000
   -9.9345   -3.5754    0.5106 C   0  0  0  0  0  0  0  0  0  0  0  0
  -10.8124   -2.5933    0.7840 C   0  0  0  0  0  0  0  0  0  0  0  0
  -10.8267   -1.8422    2.0460 C   0  0  0  0  0  0  0  0  0  0  0  0
  -10.4082   -2.2654    3.1561 O   0  0  0  0  0  0  0  0  0  0  0  0
  -11.4142   -0.5483    1.8190 C   0  0  0  0  0  0  0  0  0  0  0  0
  -11.5661    0.4869    2.7719 C   0  0  0  0  0  0  0  0  0  0  0  0
  -12.1299    1.6359    2.2584 C   0  0  0  0  0  0  0  0  0  0  0  0
  -12.5083    1.7763    0.8847 C   0  0  0  0  0  0  0  0  0  0  0  0
  -12.3700    0.7606   -0.0551 C   0  0  0  0  0  0  0  0  0  0  0  0
  -11.8077   -0.4467    0.4597 C   0  0  0  0  0  0  0  0  0  0  0  0
  -11.5413   -1.7504   -0.2230 C   0  0  0  0  0  0  0  0  0  0  0  0
  -11.8917   -2.1156   -1.4773 C   0  0  0  0  0  0  0  0  0  0  0  0
  -11.8890   -3.4926   -1.8971 C   0  0  0  0  0  0  0  0  0  0  0  0
  -11.9035   -4.5960   -2.2411 N   0  0  0  0  0  0  0  0  0  0  0  0
  -12.3211   -1.1712   -2.4774 C   0  0  0  0  0  0  0  0  0  0  0  0
  -12.6335   -0.4221   -3.3010 N   0  0  0  0  0  0  0  0  0  0  0  0
  -12.9361    3.1888    1.1332 C   0  0  0  0  0  0  0  0  0  0  0  0
  -11.9734    4.3132    0.6361 C   0  0  0  0  0  0  0  0  0  0  0  0
  -12.4272    5.5757    1.3227 C   0  0  0  0  0  0  0  0  0  0  0  0
  -12.1062    5.4368    2.6172 C   0  0  0  0  0  0  0  0  0  0  0  0
  -11.4460    4.0872    2.7536 C   0  0  0  0  0  0  0  0  0  0  0  0
  -10.7017    4.0583    1.4313 C   0  0  0  0  0  0  0  0  0  0  0  0
  -12.5737    3.0382    2.5473 C   0  0  0  0  0  0  0  0  0  0  0  0
   -8.6660   -3.6433    1.2392 C   0  0  0  0  0  0  0  0  0  0  0  0
   -8.1641   -4.6996    2.0142 C   0  0  0  0  0  0  0  0  0  0  0  0
   -8.8100   -5.9678    2.1747 N   0  0  0  0  0  0  0  0  0  0  0  0
   -8.6020   -7.0331    1.2152 C   0  0  0  0  0  0  0  0  0  0  0  0
   -7.4670   -7.0486    0.3809 C   0  0  0  0  0  0  0  0  0  0  0  0
   -7.2682   -8.0811   -0.5393 C   0  0  0  0  0  0  0  0  0  0  0  0
   -8.1971   -9.1226   -0.6421 C   0  0  0  0  0  0  0  0  0  0  0  0
   -8.0164  -10.1991   -1.6691 C   0  0  0  0  0  0  0  0  0  0  0  0
   -9.3395   -9.1055    0.1692 C   0  0  0  0  0  0  0  0  0  0  0  0
   -9.5439   -8.0761    1.0881 C   0  0  0  0  0  0  0  0  0  0  0  0
   -9.6108   -6.1765    3.3449 C   0  0  0  0  0  0  0  0  0  0  0  0
  -10.8657   -5.5593    3.4598 C   0  0  0  0  0  0  0  0  0  0  0  0
  -11.6800   -5.8192    4.5662 C   0  0  0  0  0  0  0  0  0  0  0  0
  -11.2544   -6.7058    5.5639 C   0  0  0  0  0  0  0  0  0  0  0  0
  -12.1215   -6.9839    6.7570 C   0  0  0  0  0  0  0  0  0  0  0  0
   -9.9853   -7.2971    5.4647 C   0  0  0  0  0  0  0  0  0  0  0  0
   -9.1727   -7.0440    4.3536 C   0  0  0  0  0  0  0  0  0  0  0  0
   -6.8871   -4.4039    2.4912 C   0  0  0  0  0  0  0  0  0  0  0  0
   -5.6970   -5.2298    3.3563 S   0  0  0  0  0  0  0  0  0  0  0  0
   -4.5488   -3.9623    3.2202 C   0  0  0  0  0  0  0  0  0  0  0  0
   -5.0981   -2.9202    2.4626 C   0  0  0  0  0  0  0  0  0  0  0  0
   -4.3534   -1.8032    1.9578 N   0  0  0  0  0  0  0  0  0  0  0  0
   -3.9671   -0.7596    2.8684 C   0  0  0  0  0  0  0  0  0  0  0  0
   -4.9092   -0.1983    3.7468 C   0  0  0  0  0  0  0  0  0  0  0  0
   -4.5382    0.8327    4.6093 C   0  0  0  0  0  0  0  0  0  0  0  0
   -3.2095    1.2951    4.6324 C   0  0  0  0  0  0  0  0  0  0  0  0
   -2.8113    2.4153    5.5432 C   0  0  0  0  0  0  0  0  0  0  0  0
   -2.2695    0.7334    3.7525 C   0  0  0  0  0  0  0  0  0  0  0  0
   -2.6435   -0.2923    2.8838 C   0  0  0  0  0  0  0  0  0  0  0  0
   -4.1319   -1.6825    0.5328 C   0  0  0  0  0  0  0  0  0  0  0  0
   -4.0962   -0.4200   -0.0868 C   0  0  0  0  0  0  0  0  0  0  0  0
   -3.9437   -0.3069   -1.4734 C   0  0  0  0  0  0  0  0  0  0  0  0
   -3.8306   -1.4594   -2.2640 C   0  0  0  0  0  0  0  0  0  0  0  0
   -3.6374   -1.3418   -3.7460 C   0  0  0  0  0  0  0  0  0  0  0  0
   -3.8327   -2.7208   -1.6512 C   0  0  0  0  0  0  0  0  0  0  0  0
   -3.9914   -2.8334   -0.2682 C   0  0  0  0  0  0  0  0  0  0  0  0
   -6.4011   -3.2018    2.0913 C   0  0  0  0  0  0  0  0  0  0  0  0
   -7.5052   -2.4049    1.1307 S   0  0  0  0  0  0  0  0  0  0  0  0
   -3.1376   -4.0279    3.6115 C   0  0  0  0  0  0  0  0  0  0  0  0
   -2.6058   -3.4746    4.7922 C   0  0  0  0  0  0  0  0  0  0  0  0
   -3.4322   -2.9828    5.9209 C   0  0  0  0  0  0  0  0  0  0  0  0
   -3.2031   -1.7090    6.4718 C   0  0  0  0  0  0  0  0  0  0  0  0
   -4.0294   -1.2192    7.4859 C   0  0  0  0  0  0  0  0  0  0  0  0
   -5.0836   -1.9949    7.9675 C   0  0  0  0  0  0  0  0  0  0  0  0
   -5.3301   -3.2676    7.4270 C   0  0  0  0  0  0  0  0  0  0  0  0
   -6.4483   -4.1195    7.9607 C   0  0  0  0  0  0  0  0  0  0  0  0
   -5.9695   -4.9596    9.1428 C   0  0  0  0  0  0  0  0  0  0  0  0
   -4.4893   -3.7600    6.4174 C   0  0  0  0  0  0  0  0  0  0  0  0
   -1.2204   -3.2894    4.6708 C   0  0  0  0  0  0  0  0  0  0  0  0
   -0.0082   -2.5749    5.6571 S   0  0  0  0  0  0  0  0  0  0  0  0
    1.1406   -2.7223    4.4151 C   0  0  0  0  0  0  0  0  0  0  0  0
    2.4535   -2.4459    4.1433 C   0  0  0  0  0  0  0  0  0  0  0  0
    3.5117   -1.9802    4.9262 C   0  0  0  0  0  0  0  0  0  0  0  0
    4.8085   -1.8742    4.3268 C   0  0  0  0  0  0  0  0  0  0  0  0
    5.8105   -1.3957    5.1117 N   0  0  0  0  0  0  0  0  0  0  0  0
    4.9711   -1.1771    6.5288 S   0  0  0  0  0  0  0  0  0  0  0  0
    3.3989   -1.6283    6.2304 N   0  0  0  0  0  0  0  0  0  0  0  0
    4.9626   -2.2032    2.9659 C   0  0  0  0  0  0  0  0  0  0  0  0
    5.9544   -1.8883    2.0764 C   0  0  0  0  0  0  0  0  0  0  0  0
    7.2901   -0.8426    2.1251 S   0  0  0  0  0  0  0  0  0  0  0  0
    7.2128   -0.5427    0.4515 C   0  0  0  0  0  0  0  0  0  0  0  0
    7.7604    0.4846   -0.3329 C   0  0  0  0  0  0  0  0  0  0  0  0
    8.7776    1.3950    0.2141 C   0  0  0  0  0  0  0  0  0  0  0  0
    9.9965    0.8706    0.6489 C   0  0  0  0  0  0  0  0  0  0  0  0
   10.9525    1.6993    1.2413 C   0  0  0  0  0  0  0  0  0  0  0  0
   10.6735    3.0536    1.4421 C   0  0  0  0  0  0  0  0  0  0  0  0
    9.4285    3.5805    1.0679 C   0  0  0  0  0  0  0  0  0  0  0  0
    9.1099    5.0229    1.3390 C   0  0  0  0  0  0  0  0  0  0  0  0
    8.7761    5.2436    2.8077 C   0  0  0  0  0  0  0  0  0  0  0  0
    8.4834    2.7450    0.4474 C   0  0  0  0  0  0  0  0  0  0  0  0
    7.0530    0.6259   -1.5562 C   0  0  0  0  0  0  0  0  0  0  0  0
    5.7949   -0.5175   -1.5806 S   0  0  0  0  0  0  0  0  0  0  0  0
    6.1338   -1.1880   -0.0888 C   0  0  0  0  0  0  0  0  0  0  0  0
    5.4066   -1.9459    0.8266 C   0  0  0  0  0  0  0  0  0  0  0  0
    4.0897   -2.2855    0.8568 N   0  0  0  0  0  0  0  0  0  0  0  0
    3.8623   -2.5642    2.1776 C   0  0  0  0  0  0  0  0  0  0  0  0
    2.6251   -2.8083    2.8019 C   0  0  0  0  0  0  0  0  0  0  0  0
    1.5094   -3.4120    2.2924 N   0  0  0  0  0  0  0  0  0  0  0  0
    0.6218   -3.2934    3.3037 C   0  0  0  0  0  0  0  0  0  0  0  0
   -0.7058   -3.6562    3.4566 C   0  0  0  0  0  0  0  0  0  0  0  0
   -1.9082   -4.2167    2.4473 S   0  0  0  0  0  0  0  0  0  0  0  0
    1.4716   -4.4578    1.2613 C   0  0  0  0  0  0  0  0  0  0  0  0
    1.6013   -5.8399    1.8920 C   0  0  0  0  0  0  0  0  0  0  0  0
    3.0832   -1.7288   -0.0645 C   0  0  0  0  0  0  0  0  0  0  0  0
    2.8175   -0.2531    0.2503 C   0  0  0  0  0  0  0  0  0  0  0  0
    7.0726    1.7451   -2.5218 C   0  0  0  0  0  0  0  0  0  0  0  0
    8.1565    2.5640   -2.9414 C   0  0  0  0  0  0  0  0  0  0  0  0
    9.5564    2.2300   -2.7997 N   0  0  0  0  0  0  0  0  0  0  0  0
    9.9748    0.8574   -3.0134 C   0  0  0  0  0  0  0  0  0  0  0  0
    9.2882    0.0220   -3.9168 C   0  0  0  0  0  0  0  0  0  0  0  0
    9.6845   -1.3041   -4.0983 C   0  0  0  0  0  0  0  0  0  0  0  0
   10.7909   -1.8183   -3.4089 C   0  0  0  0  0  0  0  0  0  0  0  0
   11.2261   -3.2388   -3.6065 C   0  0  0  0  0  0  0  0  0  0  0  0
   11.4872   -0.9871   -2.5155 C   0  0  0  0  0  0  0  0  0  0  0  0
   11.0847    0.3380   -2.3244 C   0  0  0  0  0  0  0  0  0  0  0  0
   10.5334    3.3000   -2.7013 C   0  0  0  0  0  0  0  0  0  0  0  0
   10.2334    4.4835   -2.0051 C   0  0  0  0  0  0  0  0  0  0  0  0
   11.1465    5.5415   -1.9561 C   0  0  0  0  0  0  0  0  0  0  0  0
   12.3723    5.4446   -2.6215 C   0  0  0  0  0  0  0  0  0  0  0  0
   13.3014    6.6290   -2.6587 C   0  0  0  0  0  0  0  0  0  0  0  0
   12.6719    4.2802   -3.3448 C   0  0  0  0  0  0  0  0  0  0  0  0
   11.7668    3.2171   -3.3740 C   0  0  0  0  0  0  0  0  0  0  0  0
    7.6902    3.5773   -3.7950 C   0  0  0  0  0  0  0  0  0  0  0  0
    8.3976    4.8491   -4.6443 S   0  0  0  0  0  0  0  0  0  0  0  0
    6.9434    5.3635   -5.3653 C   0  0  0  0  0  0  0  0  0  0  0  0
    5.9249    4.4647   -5.0316 C   0  0  0  0  0  0  0  0  0  0  0  0
    4.8281    4.1897   -5.9202 N   0  0  0  0  0  0  0  0  0  0  0  0
    3.6736    5.0445   -5.9385 C   0  0  0  0  0  0  0  0  0  0  0  0
    3.2291    5.5955   -7.1519 C   0  0  0  0  0  0  0  0  0  0  0  0
    2.0300    6.3080   -7.2083 C   0  0  0  0  0  0  0  0  0  0  0  0
    1.2563    6.4758   -6.0484 C   0  0  0  0  0  0  0  0  0  0  0  0
   -0.0890    7.1349   -6.1381 C   0  0  0  0  0  0  0  0  0  0  0  0
    1.7241    5.9735   -4.8264 C   0  0  0  0  0  0  0  0  0  0  0  0
    2.9313    5.2718   -4.7680 C   0  0  0  0  0  0  0  0  0  0  0  0
    4.9448    3.0832   -6.8428 C   0  0  0  0  0  0  0  0  0  0  0  0
    3.8027    2.3673   -7.2557 C   0  0  0  0  0  0  0  0  0  0  0  0
    3.9270    1.2983   -8.1522 C   0  0  0  0  0  0  0  0  0  0  0  0
    5.1883    0.9178   -8.6312 C   0  0  0  0  0  0  0  0  0  0  0  0
    5.3381   -0.2219   -9.5956 C   0  0  0  0  0  0  0  0  0  0  0  0
    6.3214    1.6359   -8.2325 C   0  0  0  0  0  0  0  0  0  0  0  0
    6.2013    2.7067   -7.3481 C   0  0  0  0  0  0  0  0  0  0  0  0
    6.3760    3.5254   -4.1109 C   0  0  0  0  0  0  0  0  0  0  0  0
    5.6519    2.2408   -3.3356 S   0  0  0  0  0  0  0  0  0  0  0  0
    6.6920    6.6615   -6.0243 C   0  0  0  0  0  0  0  0  0  0  0  0
    6.1613    7.6775   -5.3100 C   0  0  0  0  0  0  0  0  0  0  0  0
    4.9922    8.4335   -5.7622 C   0  0  0  0  0  0  0  0  0  0  0  0
    4.7156    8.7163   -6.9584 O   0  0  0  0  0  0  0  0  0  0  0  0
    4.1586    8.7165   -4.5978 C   0  0  0  0  0  0  0  0  0  0  0  0
    2.8830    9.2917   -4.5363 C   0  0  0  0  0  0  0  0  0  0  0  0
    2.2999    9.8181   -5.7020 O   0  0  0  0  0  0  0  0  0  0  0  0
    1.0894   10.5666   -5.7143 C   0  0  0  0  0  0  0  0  0  0  0  0
    2.2390    9.3367   -3.2821 C   0  0  0  0  0  0  0  0  0  0  0  0
    2.8658    8.8167   -2.1333 C   0  0  0  0  0  0  0  0  0  0  0  0
    4.1456    8.2528   -2.2194 C   0  0  0  0  0  0  0  0  0  0  0  0
    4.7918    8.2237   -3.4645 C   0  0  0  0  0  0  0  0  0  0  0  0
    6.1393    7.7430   -3.8342 C   0  0  0  0  0  0  0  0  0  0  0  0
    7.2290    7.7123   -3.0367 C   0  0  0  0  0  0  0  0  0  0  0  0
    8.5540    7.8009   -3.5935 C   0  0  0  0  0  0  0  0  0  0  0  0
    9.6187    7.8826   -4.0399 N   0  0  0  0  0  0  0  0  0  0  0  0
    7.1382    7.5322   -1.6109 C   0  0  0  0  0  0  0  0  0  0  0  0
    7.0699    7.3204   -0.4697 N   0  0  0  0  0  0  0  0  0  0  0  0
   -9.9196   -4.0607   -0.4498 H   0  0  0  0  0  0  0  0  0  0  0  0
  -11.2518    0.4020    3.8069 H   0  0  0  0  0  0  0  0  0  0  0  0
  -12.6708    0.9205   -1.0733 H   0  0  0  0  0  0  0  0  0  0  0  0
  -14.0190    3.3670    0.9473 H   0  0  0  0  0  0  0  0  0  0  0  0
  -11.8546    4.3807   -0.4661 H   0  0  0  0  0  0  0  0  0  0  0  0
  -12.8488    6.4605    0.8618 H   0  0  0  0  0  0  0  0  0  0  0  0
  -12.2211    6.1949    3.3873 H   0  0  0  0  0  0  0  0  0  0  0  0
  -10.8332    3.9496    3.6660 H   0  0  0  0  0  0  0  0  0  0  0  0
   -9.9466    4.8751    1.3358 H   0  0  0  0  0  0  0  0  0  0  0  0
  -10.2022    3.0926    1.1991 H   0  0  0  0  0  0  0  0  0  0  0  0
  -13.4296    3.1035    3.2536 H   0  0  0  0  0  0  0  0  0  0  0  0
   -6.7144   -6.2655    0.4481 H   0  0  0  0  0  0  0  0  0  0  0  0
   -6.3935   -8.0663   -1.1764 H   0  0  0  0  0  0  0  0  0  0  0  0
   -6.9351  -10.3996   -1.8417 H   0  0  0  0  0  0  0  0  0  0  0  0
   -8.4912  -11.1480   -1.3345 H   0  0  0  0  0  0  0  0  0  0  0  0
   -8.4859   -9.8827   -2.6223 H   0  0  0  0  0  0  0  0  0  0  0  0
  -10.0850   -9.8880    0.0811 H   0  0  0  0  0  0  0  0  0  0  0  0
  -10.4384   -8.0875    1.6972 H   0  0  0  0  0  0  0  0  0  0  0  0
  -11.2242   -4.9032    2.6742 H   0  0  0  0  0  0  0  0  0  0  0  0
  -12.6488   -5.3397    4.6323 H   0  0  0  0  0  0  0  0  0  0  0  0
  -12.0302   -8.0484    7.0607 H   0  0  0  0  0  0  0  0  0  0  0  0
  -13.1922   -6.7862    6.5245 H   0  0  0  0  0  0  0  0  0  0  0  0
  -11.8095   -6.3354    7.6070 H   0  0  0  0  0  0  0  0  0  0  0  0
   -9.6339   -7.9714    6.2390 H   0  0  0  0  0  0  0  0  0  0  0  0
   -8.2074   -7.5345    4.2758 H   0  0  0  0  0  0  0  0  0  0  0  0
   -5.9360   -0.5367    3.7307 H   0  0  0  0  0  0  0  0  0  0  0  0
   -5.2806    1.2695    5.2673 H   0  0  0  0  0  0  0  0  0  0  0  0
   -1.8170    2.2026    5.9947 H   0  0  0  0  0  0  0  0  0  0  0  0
   -2.7557    3.3601    4.9670 H   0  0  0  0  0  0  0  0  0  0  0  0
   -3.5437    2.5395    6.3687 H   0  0  0  0  0  0  0  0  0  0  0  0
   -1.2438    1.0815    3.7563 H   0  0  0  0  0  0  0  0  0  0  0  0
   -1.9078   -0.7251    2.2146 H   0  0  0  0  0  0  0  0  0  0  0  0
   -4.2242    0.4840    0.4960 H   0  0  0  0  0  0  0  0  0  0  0  0
   -3.9245    0.6770   -1.9277 H   0  0  0  0  0  0  0  0  0  0  0  0
   -4.1416   -0.4290   -4.1307 H   0  0  0  0  0  0  0  0  0  0  0  0
   -2.5548   -1.2890   -3.9790 H   0  0  0  0  0  0  0  0  0  0  0  0
   -4.0797   -2.2220   -4.2645 H   0  0  0  0  0  0  0  0  0  0  0  0
   -3.7196   -3.6223   -2.2452 H   0  0  0  0  0  0  0  0  0  0  0  0
   -4.0231   -3.8189    0.1698 H   0  0  0  0  0  0  0  0  0  0  0  0
   -2.4093   -1.0816    6.0917 H   0  0  0  0  0  0  0  0  0  0  0  0
   -3.8559   -0.2312    7.8853 H   0  0  0  0  0  0  0  0  0  0  0  0
   -5.7112   -1.6010    8.7540 H   0  0  0  0  0  0  0  0  0  0  0  0
   -6.8307   -4.7977    7.1598 H   0  0  0  0  0  0  0  0  0  0  0  0
   -7.3013   -3.4787    8.2790 H   0  0  0  0  0  0  0  0  0  0  0  0
   -6.8124   -5.5732    9.5256 H   0  0  0  0  0  0  0  0  0  0  0  0
   -5.6079   -4.2984    9.9591 H   0  0  0  0  0  0  0  0  0  0  0  0
   -5.1498   -5.6366    8.8224 H   0  0  0  0  0  0  0  0  0  0  0  0
   -4.6590   -4.7534    6.0211 H   0  0  0  0  0  0  0  0  0  0  0  0
   10.2244   -0.1775    0.5151 H   0  0  0  0  0  0  0  0  0  0  0  0
   11.9079    1.2892    1.5540 H   0  0  0  0  0  0  0  0  0  0  0  0
   11.4198    3.6821    1.9133 H   0  0  0  0  0  0  0  0  0  0  0  0
    8.2514    5.3504    0.7167 H   0  0  0  0  0  0  0  0  0  0  0  0
    9.9876    5.6518    1.0568 H   0  0  0  0  0  0  0  0  0  0  0  0
    8.5658    6.3200    2.9751 H   0  0  0  0  0  0  0  0  0  0  0  0
    7.8797    4.6489    3.0972 H   0  0  0  0  0  0  0  0  0  0  0  0
    9.6327    4.9493    3.4480 H   0  0  0  0  0  0  0  0  0  0  0  0
    7.5098    3.1333    0.1593 H   0  0  0  0  0  0  0  0  0  0  0  0
    2.3165   -4.3474    0.5548 H   0  0  0  0  0  0  0  0  0  0  0  0
    0.5207   -4.3850    0.6865 H   0  0  0  0  0  0  0  0  0  0  0  0
    1.5924   -6.6130    1.0976 H   0  0  0  0  0  0  0  0  0  0  0  0
    0.7630   -6.0367    2.5886 H   0  0  0  0  0  0  0  0  0  0  0  0
    2.5570   -5.9181    2.4541 H   0  0  0  0  0  0  0  0  0  0  0  0
    3.4384   -1.8294   -1.1138 H   0  0  0  0  0  0  0  0  0  0  0  0
    2.1243   -2.2597    0.0008 H   0  0  0  0  0  0  0  0  0  0  0  0
    2.3136   -0.1584    1.2310 H   0  0  0  0  0  0  0  0  0  0  0  0
    2.1490    0.1710   -0.5297 H   0  0  0  0  0  0  0  0  0  0  0  0
    3.7604    0.3372    0.2683 H   0  0  0  0  0  0  0  0  0  0  0  0
    8.4443    0.3952   -4.4829 H   0  0  0  0  0  0  0  0  0  0  0  0
    9.1356   -1.9278   -4.7910 H   0  0  0  0  0  0  0  0  0  0  0  0
   10.5951   -3.7515   -4.3636 H   0  0  0  0  0  0  0  0  0  0  0  0
   11.1537   -3.7880   -2.6446 H   0  0  0  0  0  0  0  0  0  0  0  0
   12.2806   -3.2557   -3.9638 H   0  0  0  0  0  0  0  0  0  0  0  0
   12.3506   -1.3613   -1.9776 H   0  0  0  0  0  0  0  0  0  0  0  0
   11.6459    0.9586   -1.6355 H   0  0  0  0  0  0  0  0  0  0  0  0
    9.2659    4.6157   -1.5389 H   0  0  0  0  0  0  0  0  0  0  0  0
   10.8860    6.4535   -1.4240 H   0  0  0  0  0  0  0  0  0  0  0  0
   13.2938    7.1572   -1.6829 H   0  0  0  0  0  0  0  0  0  0  0  0
   12.9703    7.3242   -3.4520 H   0  0  0  0  0  0  0  0  0  0  0  0
   14.3446    6.3084   -2.8781 H   0  0  0  0  0  0  0  0  0  0  0  0
   13.5958    4.1983   -3.9129 H   0  0  0  0  0  0  0  0  0  0  0  0
   12.0137    2.3472   -3.9689 H   0  0  0  0  0  0  0  0  0  0  0  0
    3.8028    5.4479   -8.0625 H   0  0  0  0  0  0  0  0  0  0  0  0
    1.6777    6.6839   -8.1588 H   0  0  0  0  0  0  0  0  0  0  0  0
   -0.8113    6.4128   -6.5664 H   0  0  0  0  0  0  0  0  0  0  0  0
   -0.4562    7.4368   -5.1353 H   0  0  0  0  0  0  0  0  0  0  0  0
   -0.0413    8.0323   -6.7939 H   0  0  0  0  0  0  0  0  0  0  0  0
    1.1619    6.1159   -3.9193 H   0  0  0  0  0  0  0  0  0  0  0  0
    3.2925    4.8939   -3.8209 H   0  0  0  0  0  0  0  0  0  0  0  0
    2.8250    2.6180   -6.8669 H   0  0  0  0  0  0  0  0  0  0  0  0
    3.0383    0.7653   -8.4714 H   0  0  0  0  0  0  0  0  0  0  0  0
    5.6486    0.1615  -10.5865 H   0  0  0  0  0  0  0  0  0  0  0  0
    6.1105   -0.9291   -9.2184 H   0  0  0  0  0  0  0  0  0  0  0  0
    4.3931   -0.7868   -9.7108 H   0  0  0  0  0  0  0  0  0  0  0  0
    7.3002    1.3667   -8.6092 H   0  0  0  0  0  0  0  0  0  0  0  0
    7.1064    3.2326   -7.0677 H   0  0  0  0  0  0  0  0  0  0  0  0
    6.5863    6.6528   -7.1040 H   0  0  0  0  0  0  0  0  0  0  0  0
    0.8445   10.8433   -6.7581 H   0  0  0  0  0  0  0  0  0  0  0  0
    1.2112   11.4895   -5.1059 H   0  0  0  0  0  0  0  0  0  0  0  0
    0.2479    9.9621   -5.3158 H   0  0  0  0  0  0  0  0  0  0  0  0
    1.2452    9.7418   -3.1726 H   0  0  0  0  0  0  0  0  0  0  0  0
    2.3650    8.8581   -1.1753 H   0  0  0  0  0  0  0  0  0  0  0  0
    4.5948    7.8321   -1.3332 H   0  0  0  0  0  0  0  0  0  0  0  0
  1  2  2  3
  2  3  1  0
  3  4  2  0
  3  5  1  0
  5  6  2  0
  6  7  1  0
  7  8  2  0
  8  9  1  0
  9 10  2  0
 10 11  1  0
 11 12  2  3
 12 13  1  0
 13 14  3  0
 12 15  1  0
 15 16  3  0
  8 17  1  0
 17 18  1  0
 18 19  1  0
 19 20  2  0
 20 21  1  0
 21 22  1  0
 21 23  1  0
  1 24  1  0
 24 25  2  0
 25 26  1  0
 26 27  1  0
 27 28  2  0
 28 29  1  0
 29 30  2  0
 30 31  1  0
 30 32  1  0
 32 33  2  0
 26 34  1  0
 34 35  2  0
 35 36  1  0
 36 37  2  0
 37 38  1  0
 37 39  1  0
 39 40  2  0
 25 41  1  0
 41 42  1  0
 42 43  1  0
 43 44  2  0
 44 45  1  0
 45 46  1  0
 46 47  2  0
 47 48  1  0
 48 49  2  0
 49 50  1  0
 49 51  1  0
 51 52  2  0
 45 53  1  0
 53 54  2  0
 54 55  1  0
 55 56  2  0
 56 57  1  0
 56 58  1  0
 58 59  2  0
 44 60  1  0
 60 61  1  0
 43 62  1  0
 62 63  2  0
 63 64  1  0
 64 65  2  0
 65 66  1  0
 66 67  2  0
 67 68  1  0
 68 69  1  0
 69 70  1  0
 68 71  2  0
 63 72  1  0
 72 73  1  0
 73 74  1  0
 74 75  1  0
 75 76  1  0
 76 77  1  0
 77 78  2  0
 78 79  1  0
 79 80  1  0
 77 81  1  0
 81 82  1  0
 82 83  1  0
 83 84  1  0
 84 85  1  0
 85 86  1  0
 86 87  2  0
 87 88  1  0
 88 89  2  0
 89 90  1  0
 90 91  1  0
 91 92  1  0
 90 93  2  0
 85 94  2  0
 94 95  1  0
 95 96  1  0
 96 97  1  0
 97 98  1  0
 98 99  1  0
 99100  1  0
100101  1  0
101102  1  0
102103  1  0
103104  1  0
101105  1  0
105106  1  0
 98107  1  0
107108  1  0
 94109  1  0
109110  2  0
110111  1  0
111112  1  0
112113  2  0
113114  1  0
114115  2  0
115116  1  0
115117  1  0
117118  2  0
111119  1  0
119120  2  0
120121  1  0
121122  2  0
122123  1  0
122124  1  0
124125  2  0
110126  1  0
126127  1  0
127128  1  0
128129  2  0
129130  1  0
130131  1  0
131132  2  0
132133  1  0
133134  2  0
134135  1  0
134136  1  0
136137  2  0
130138  1  0
138139  2  0
139140  1  0
140141  2  0
141142  1  0
141143  1  0
143144  2  0
129145  1  0
145146  1  0
128147  1  0
147148  2  3
148149  1  0
149150  2  0
149151  1  0
151152  2  0
152153  1  0
153154  1  0
152155  1  0
155156  2  0
156157  1  0
157158  2  0
158159  1  0
159160  2  3
160161  1  0
161162  3  0
160163  1  0
163164  3  0
 11  2  1  0
 23 17  1  0
 61 24  1  0
104 62  1  0
146109  1  0
159148  1  0
 10  5  1  0
 22 18  1  0
 33 27  1  0
 40 34  1  0
 60 41  2  0
 71 64  1  0
103 72  2  0
118112  1  0
125119  1  0
145126  2  0
158151  1  0
 23  7  1  0
 52 46  1  0
 59 53  1  0
102 74  2  0
137131  1  0
144138  1  0
100 75  2  0
 80 76  2  0
 99 81  2  0
 97 82  2  0
 96 84  2  0
 93 86  1  0
  1165  1  0
  6166  1  0
  9167  1  0
 17168  1  0
 18169  1  0
 19170  1  0
 20171  1  0
 21172  1  0
 22173  1  0
 22174  1  0
 23175  1  0
 28176  1  0
 29177  1  0
 31178  1  0
 31179  1  0
 31180  1  0
 32181  1  0
 33182  1  0
 35183  1  0
 36184  1  0
 38185  1  0
 38186  1  0
 38187  1  0
 39188  1  0
 40189  1  0
 47190  1  0
 48191  1  0
 50192  1  0
 50193  1  0
 50194  1  0
 51195  1  0
 52196  1  0
 54197  1  0
 55198  1  0
 57199  1  0
 57200  1  0
 57201  1  0
 58202  1  0
 59203  1  0
 65204  1  0
 66205  1  0
 67206  1  0
 69207  1  0
 69208  1  0
 70209  1  0
 70210  1  0
 70211  1  0
 71212  1  0
 87213  1  0
 88214  1  0
 89215  1  0
 91216  1  0
 91217  1  0
 92218  1  0
 92219  1  0
 92220  1  0
 93221  1  0
105222  1  0
105223  1  0
106224  1  0
106225  1  0
106226  1  0
107227  1  0
107228  1  0
108229  1  0
108230  1  0
108231  1  0
113232  1  0
114233  1  0
116234  1  0
116235  1  0
116236  1  0
117237  1  0
118238  1  0
120239  1  0
121240  1  0
123241  1  0
123242  1  0
123243  1  0
124244  1  0
125245  1  0
132246  1  0
133247  1  0
135248  1  0
135249  1  0
135250  1  0
136251  1  0
137252  1  0
139253  1  0
140254  1  0
142255  1  0
142256  1  0
142257  1  0
143258  1  0
144259  1  0
147260  1  0
154261  1  0
154262  1  0
154263  1  0
155264  1  0
156265  1  0
157266  1  0
M  END

