
     RDKit          3D

216243  0  0  0  0  0  0  0  0999 V2000
   -4.6601   -3.7104   -7.8537 C   0  0  0  0  0  0  0  0  0  0  0  0
   -5.5336   -4.0089   -6.8706 C   0  0  0  0  0  0  0  0  0  0  0  0
   -5.9463   -3.0820   -5.8098 C   0  0  0  0  0  0  0  0  0  0  0  0
   -5.9474   -1.8224   -5.8784 O   0  0  0  0  0  0  0  0  0  0  0  0
   -6.3124   -3.8495   -4.6424 C   0  0  0  0  0  0  0  0  0  0  0  0
   -6.5212   -3.3503   -3.3372 C   0  0  0  0  0  0  0  0  0  0  0  0
   -6.6036   -4.3322   -2.3704 C   0  0  0  0  0  0  0  0  0  0  0  0
   -6.5004   -5.7304   -2.6611 C   0  0  0  0  0  0  0  0  0  0  0  0
   -6.3133   -6.2286   -3.9398 C   0  0  0  0  0  0  0  0  0  0  0  0
   -6.2263   -5.2294   -4.9534 C   0  0  0  0  0  0  0  0  0  0  0  0
   -5.8884   -5.3766   -6.3965 C   0  0  0  0  0  0  0  0  0  0  0  0
   -6.0256   -6.4867   -7.1601 C   0  0  0  0  0  0  0  0  0  0  0  0
   -6.4342   -7.7538   -6.6108 C   0  0  0  0  0  0  0  0  0  0  0  0
   -6.7536   -8.7811   -6.1804 N   0  0  0  0  0  0  0  0  0  0  0  0
   -5.9045   -6.4485   -8.5940 C   0  0  0  0  0  0  0  0  0  0  0  0
   -5.8106   -6.4289   -9.7483 N   0  0  0  0  0  0  0  0  0  0  0  0
   -6.5461   -6.0502   -1.1942 C   0  0  0  0  0  0  0  0  0  0  0  0
   -5.1900   -6.4582   -0.5434 C   0  0  0  0  0  0  0  0  0  0  0  0
   -5.3756   -6.3214    0.9489 C   0  0  0  0  0  0  0  0  0  0  0  0
   -5.4633   -5.0084    1.2028 C   0  0  0  0  0  0  0  0  0  0  0  0
   -5.3346   -4.3074   -0.1276 C   0  0  0  0  0  0  0  0  0  0  0  0
   -4.3211   -5.2357   -0.7795 C   0  0  0  0  0  0  0  0  0  0  0  0
   -6.6436   -4.6173   -0.9036 C   0  0  0  0  0  0  0  0  0  0  0  0
   -3.9707   -2.4080   -7.8949 C   0  0  0  0  0  0  0  0  0  0  0  0
   -4.3006   -1.4230   -8.8412 C   0  0  0  0  0  0  0  0  0  0  0  0
   -3.7069   -0.1190   -8.7641 C   0  0  0  0  0  0  0  0  0  0  0  0
   -4.1110    0.7842   -9.6944 N   0  0  0  0  0  0  0  0  0  0  0  0
   -5.1870   -0.1319  -10.5574 S   0  0  0  0  0  0  0  0  0  0  0  0
   -5.2008   -1.6227   -9.8386 N   0  0  0  0  0  0  0  0  0  0  0  0
   -2.7999    0.2028   -7.7346 C   0  0  0  0  0  0  0  0  0  0  0  0
   -2.4481   -0.8107   -6.8224 C   0  0  0  0  0  0  0  0  0  0  0  0
   -1.5556   -0.6886   -5.7404 C   0  0  0  0  0  0  0  0  0  0  0  0
   -1.4311   -1.8675   -5.0090 C   0  0  0  0  0  0  0  0  0  0  0  0
   -0.5693   -2.0630   -3.8375 C   0  0  0  0  0  0  0  0  0  0  0  0
   -0.4959   -3.2002   -3.2963 O   0  0  0  0  0  0  0  0  0  0  0  0
    0.1560   -0.9863   -3.3174 O   0  0  0  0  0  0  0  0  0  0  0  0
    0.9648   -1.1092   -2.1505 C   0  0  0  0  0  0  0  0  0  0  0  0
    1.5097    0.2518   -1.7501 C   0  0  0  0  0  0  0  0  0  0  0  0
   -2.4273   -3.0530   -5.6816 S   0  0  0  0  0  0  0  0  0  0  0  0
   -3.0169   -2.0773   -6.9201 C   0  0  0  0  0  0  0  0  0  0  0  0
   -2.3276    1.5833   -7.5344 C   0  0  0  0  0  0  0  0  0  0  0  0
   -1.1637    2.1498   -8.0874 C   0  0  0  0  0  0  0  0  0  0  0  0
   -0.3510    1.5444   -9.1552 C   0  0  0  0  0  0  0  0  0  0  0  0
   -0.1829    2.2341  -10.3640 C   0  0  0  0  0  0  0  0  0  0  0  0
    0.5465    1.6582  -11.4057 C   0  0  0  0  0  0  0  0  0  0  0  0
    1.1247    0.3975  -11.2439 C   0  0  0  0  0  0  0  0  0  0  0  0
    0.9708   -0.3012  -10.0344 C   0  0  0  0  0  0  0  0  0  0  0  0
    1.6593   -1.6263   -9.8386 C   0  0  0  0  0  0  0  0  0  0  0  0
    3.1010   -1.4216   -9.3829 C   0  0  0  0  0  0  0  0  0  0  0  0
    0.2344    0.2796   -8.9887 C   0  0  0  0  0  0  0  0  0  0  0  0
   -0.8431    3.3505   -7.4465 C   0  0  0  0  0  0  0  0  0  0  0  0
    0.6445    4.1784   -7.2692 S   0  0  0  0  0  0  0  0  0  0  0  0
    0.0485    5.0348   -5.9268 C   0  0  0  0  0  0  0  0  0  0  0  0
    0.5567    5.6779   -4.8318 C   0  0  0  0  0  0  0  0  0  0  0  0
    1.8354    6.1721   -4.5779 C   0  0  0  0  0  0  0  0  0  0  0  0
    2.1155    6.7072   -3.2880 C   0  0  0  0  0  0  0  0  0  0  0  0
    3.3761    7.1576   -3.0725 N   0  0  0  0  0  0  0  0  0  0  0  0
    4.0406    6.8536   -4.5606 S   0  0  0  0  0  0  0  0  0  0  0  0
    2.8470    6.1693   -5.4785 N   0  0  0  0  0  0  0  0  0  0  0  0
    1.1163    6.6724   -2.3043 C   0  0  0  0  0  0  0  0  0  0  0  0
    1.2442    6.8036   -0.9467 C   0  0  0  0  0  0  0  0  0  0  0  0
    2.5738    6.8048    0.1116 S   0  0  0  0  0  0  0  0  0  0  0  0
    1.6523    6.1210    1.3653 C   0  0  0  0  0  0  0  0  0  0  0  0
    2.0302    5.4657    2.5442 C   0  0  0  0  0  0  0  0  0  0  0  0
    3.4194    5.4309    3.0378 C   0  0  0  0  0  0  0  0  0  0  0  0
    4.1317    4.2219    3.0790 C   0  0  0  0  0  0  0  0  0  0  0  0
    5.4587    4.2039    3.5124 C   0  0  0  0  0  0  0  0  0  0  0  0
    6.0805    5.3878    3.9188 C   0  0  0  0  0  0  0  0  0  0  0  0
    5.3749    6.6002    3.8998 C   0  0  0  0  0  0  0  0  0  0  0  0
    6.0473    7.8774    4.3259 C   0  0  0  0  0  0  0  0  0  0  0  0
    6.7718    8.5286    3.1526 C   0  0  0  0  0  0  0  0  0  0  0  0
    4.0503    6.6198    3.4351 C   0  0  0  0  0  0  0  0  0  0  0  0
    0.9787    4.6786    3.0461 C   0  0  0  0  0  0  0  0  0  0  0  0
   -0.3421    4.7623    1.9847 S   0  0  0  0  0  0  0  0  0  0  0  0
    0.3757    5.8481    0.9322 C   0  0  0  0  0  0  0  0  0  0  0  0
    0.1417    6.2352   -0.3892 C   0  0  0  0  0  0  0  0  0  0  0  0
   -0.7411    5.7809   -1.3208 N   0  0  0  0  0  0  0  0  0  0  0  0
   -0.1499    6.0906   -2.5315 C   0  0  0  0  0  0  0  0  0  0  0  0
   -0.4669    5.6634   -3.8604 C   0  0  0  0  0  0  0  0  0  0  0  0
   -1.6053    5.0970   -4.3916 N   0  0  0  0  0  0  0  0  0  0  0  0
   -1.2198    4.6900   -5.6193 C   0  0  0  0  0  0  0  0  0  0  0  0
   -1.7324    3.7265   -6.4672 C   0  0  0  0  0  0  0  0  0  0  0  0
   -2.9186    2.5638   -6.2758 S   0  0  0  0  0  0  0  0  0  0  0  0
   -3.0263    5.2756   -4.0552 C   0  0  0  0  0  0  0  0  0  0  0  0
   -3.3473    6.7127   -3.6314 C   0  0  0  0  0  0  0  0  0  0  0  0
   -1.8213    4.8322   -1.0236 C   0  0  0  0  0  0  0  0  0  0  0  0
   -1.4167    3.3982   -1.3686 C   0  0  0  0  0  0  0  0  0  0  0  0
    1.1020    3.6172    4.0418 C   0  0  0  0  0  0  0  0  0  0  0  0
    1.1327    2.2688    3.7208 C   0  0  0  0  0  0  0  0  0  0  0  0
    1.1753    1.4439    4.8501 C   0  0  0  0  0  0  0  0  0  0  0  0
    1.2451    0.0408    4.8347 C   0  0  0  0  0  0  0  0  0  0  0  0
    1.2246   -0.7401    3.5820 C   0  0  0  0  0  0  0  0  0  0  0  0
    2.3107   -1.5558    3.2362 C   0  0  0  0  0  0  0  0  0  0  0  0
    2.2410   -2.3810    2.1079 C   0  0  0  0  0  0  0  0  0  0  0  0
    1.0760   -2.4072    1.3346 C   0  0  0  0  0  0  0  0  0  0  0  0
   -0.0101   -1.5887    1.6751 C   0  0  0  0  0  0  0  0  0  0  0  0
   -1.5322   -1.6617    0.7294 S   0  0  0  0  0  0  0  0  0  0  0  0
   -2.4017   -2.7525    1.9116 C   0  0  0  0  0  0  0  0  0  0  0  0
   -1.7922   -4.1503    1.9413 C   0  0  0  0  0  0  0  0  0  0  0  0
    0.0745   -0.7399    2.7824 C   0  0  0  0  0  0  0  0  0  0  0  0
    1.2958   -0.6000    6.0764 C   0  0  0  0  0  0  0  0  0  0  0  0
    1.2778    0.0881    7.2953 C   0  0  0  0  0  0  0  0  0  0  0  0
    1.1785    1.5014    7.3120 C   0  0  0  0  0  0  0  0  0  0  0  0
    0.9371    2.2592    8.5601 C   0  0  0  0  0  0  0  0  0  0  0  0
    1.8689    2.2416    9.6134 C   0  0  0  0  0  0  0  0  0  0  0  0
    1.5764    2.8968   10.8157 C   0  0  0  0  0  0  0  0  0  0  0  0
    0.3561    3.5636   10.9748 C   0  0  0  0  0  0  0  0  0  0  0  0
   -0.5710    3.5950    9.9261 C   0  0  0  0  0  0  0  0  0  0  0  0
   -2.1382    4.4463   10.1422 S   0  0  0  0  0  0  0  0  0  0  0  0
   -3.0598    2.9611   10.6947 C   0  0  0  0  0  0  0  0  0  0  0  0
   -3.8517    2.3653    9.5383 C   0  0  0  0  0  0  0  0  0  0  0  0
   -0.2765    2.9533    8.7185 C   0  0  0  0  0  0  0  0  0  0  0  0
    1.1510    2.1506    6.0600 C   0  0  0  0  0  0  0  0  0  0  0  0
    1.1068    3.8071    5.7203 S   0  0  0  0  0  0  0  0  0  0  0  0
    1.3703   -0.7737    8.4081 C   0  0  0  0  0  0  0  0  0  0  0  0
    1.4537   -2.1156    8.0369 C   0  0  0  0  0  0  0  0  0  0  0  0
    1.3986   -2.2469    6.3609 S   0  0  0  0  0  0  0  0  0  0  0  0
    1.8784   -3.2386    8.8811 C   0  0  0  0  0  0  0  0  0  0  0  0
    3.1409   -3.7031    8.7824 C   0  0  0  0  0  0  0  0  0  0  0  0
    4.2282   -2.9832    8.1074 C   0  0  0  0  0  0  0  0  0  0  0  0
    4.3608   -1.7293    8.0446 O   0  0  0  0  0  0  0  0  0  0  0  0
    5.1119   -3.9420    7.4873 C   0  0  0  0  0  0  0  0  0  0  0  0
    6.1157   -3.6628    6.5322 C   0  0  0  0  0  0  0  0  0  0  0  0
    6.6082   -4.7865    5.8996 C   0  0  0  0  0  0  0  0  0  0  0  0
    6.1379   -6.1125    6.1761 C   0  0  0  0  0  0  0  0  0  0  0  0
    5.1737   -6.3920    7.1311 C   0  0  0  0  0  0  0  0  0  0  0  0
    4.6701   -5.2483    7.8131 C   0  0  0  0  0  0  0  0  0  0  0  0
    3.5222   -5.1454    8.7593 C   0  0  0  0  0  0  0  0  0  0  0  0
    3.0371   -6.1250    9.5620 C   0  0  0  0  0  0  0  0  0  0  0  0
    2.0373   -5.8629   10.5657 C   0  0  0  0  0  0  0  0  0  0  0  0
    1.2372   -5.6627   11.3794 N   0  0  0  0  0  0  0  0  0  0  0  0
    3.5938   -7.4553    9.5684 C   0  0  0  0  0  0  0  0  0  0  0  0
    4.0360   -8.5244    9.5885 N   0  0  0  0  0  0  0  0  0  0  0  0
    7.0124   -6.6651    5.0873 C   0  0  0  0  0  0  0  0  0  0  0  0
    6.3038   -7.0718    3.7603 C   0  0  0  0  0  0  0  0  0  0  0  0
    7.3979   -7.2013    2.7241 C   0  0  0  0  0  0  0  0  0  0  0  0
    7.8344   -5.9593    2.4755 C   0  0  0  0  0  0  0  0  0  0  0  0
    7.0218   -5.0384    3.3497 C   0  0  0  0  0  0  0  0  0  0  0  0
    5.6892   -5.7668    3.2847 C   0  0  0  0  0  0  0  0  0  0  0  0
    7.4968   -5.3068    4.8091 C   0  0  0  0  0  0  0  0  0  0  0  0
   -4.2801   -4.4822   -8.5005 H   0  0  0  0  0  0  0  0  0  0  0  0
   -6.5168   -2.2953   -3.0969 H   0  0  0  0  0  0  0  0  0  0  0  0
   -6.1463   -7.2822   -4.0969 H   0  0  0  0  0  0  0  0  0  0  0  0
   -7.4300   -6.6492   -0.8862 H   0  0  0  0  0  0  0  0  0  0  0  0
   -4.7659   -7.4278   -0.8786 H   0  0  0  0  0  0  0  0  0  0  0  0
   -5.3292   -7.1074    1.6958 H   0  0  0  0  0  0  0  0  0  0  0  0
   -5.5017   -4.5529    2.1879 H   0  0  0  0  0  0  0  0  0  0  0  0
   -5.0536   -3.2369   -0.0826 H   0  0  0  0  0  0  0  0  0  0  0  0
   -4.1143   -5.0187   -1.8492 H   0  0  0  0  0  0  0  0  0  0  0  0
   -3.3443   -5.2833   -0.2433 H   0  0  0  0  0  0  0  0  0  0  0  0
   -7.5906   -4.3016   -0.4091 H   0  0  0  0  0  0  0  0  0  0  0  0
   -1.0111    0.2165   -5.5055 H   0  0  0  0  0  0  0  0  0  0  0  0
    1.8062   -1.8100   -2.3458 H   0  0  0  0  0  0  0  0  0  0  0  0
    0.3526   -1.5073   -1.3202 H   0  0  0  0  0  0  0  0  0  0  0  0
    2.1608    0.6492   -2.5560 H   0  0  0  0  0  0  0  0  0  0  0  0
    0.6709    0.9587   -1.5695 H   0  0  0  0  0  0  0  0  0  0  0  0
    2.1053    0.1530   -0.8182 H   0  0  0  0  0  0  0  0  0  0  0  0
   -0.6320    3.2095  -10.5077 H   0  0  0  0  0  0  0  0  0  0  0  0
    0.6680    2.1914  -12.3412 H   0  0  0  0  0  0  0  0  0  0  0  0
    1.6961   -0.0330  -12.0563 H   0  0  0  0  0  0  0  0  0  0  0  0
    1.1154   -2.2342   -9.0841 H   0  0  0  0  0  0  0  0  0  0  0  0
    1.6506   -2.1974  -10.7920 H   0  0  0  0  0  0  0  0  0  0  0  0
    3.1249   -0.9658   -8.3692 H   0  0  0  0  0  0  0  0  0  0  0  0
    3.6205   -2.4044   -9.3476 H   0  0  0  0  0  0  0  0  0  0  0  0
    3.6407   -0.7631  -10.0964 H   0  0  0  0  0  0  0  0  0  0  0  0
    0.1315   -0.2432   -8.0497 H   0  0  0  0  0  0  0  0  0  0  0  0
    3.6722    3.3013    2.7457 H   0  0  0  0  0  0  0  0  0  0  0  0
    6.0092    3.2728    3.5295 H   0  0  0  0  0  0  0  0  0  0  0  0
    7.1111    5.3603    4.2432 H   0  0  0  0  0  0  0  0  0  0  0  0
    5.2974    8.5878    4.7348 H   0  0  0  0  0  0  0  0  0  0  0  0
    6.7783    7.6655    5.1371 H   0  0  0  0  0  0  0  0  0  0  0  0
    6.0492    8.7787    2.3415 H   0  0  0  0  0  0  0  0  0  0  0  0
    7.5492    7.8436    2.7495 H   0  0  0  0  0  0  0  0  0  0  0  0
    7.2651    9.4645    3.4929 H   0  0  0  0  0  0  0  0  0  0  0  0
    3.5043    7.5577    3.3916 H   0  0  0  0  0  0  0  0  0  0  0  0
   -3.6448    5.0904   -4.9601 H   0  0  0  0  0  0  0  0  0  0  0  0
   -3.3646    4.4999   -3.3496 H   0  0  0  0  0  0  0  0  0  0  0  0
   -3.1088    7.4086   -4.4645 H   0  0  0  0  0  0  0  0  0  0  0  0
   -4.4285    6.7930   -3.3965 H   0  0  0  0  0  0  0  0  0  0  0  0
   -2.7649    7.0212   -2.7413 H   0  0  0  0  0  0  0  0  0  0  0  0
   -2.0897    4.8753    0.0453 H   0  0  0  0  0  0  0  0  0  0  0  0
   -2.7581    5.1416   -1.4872 H   0  0  0  0  0  0  0  0  0  0  0  0
   -2.2039    2.6974   -1.0261 H   0  0  0  0  0  0  0  0  0  0  0  0
   -0.4625    3.1428   -0.8614 H   0  0  0  0  0  0  0  0  0  0  0  0
   -1.2846    3.2818   -2.4626 H   0  0  0  0  0  0  0  0  0  0  0  0
    1.1302    1.9064    2.6993 H   0  0  0  0  0  0  0  0  0  0  0  0
    3.2016   -1.5710    3.8467 H   0  0  0  0  0  0  0  0  0  0  0  0
    3.0768   -3.0197    1.8499 H   0  0  0  0  0  0  0  0  0  0  0  0
    1.0112   -3.0755    0.4857 H   0  0  0  0  0  0  0  0  0  0  0  0
   -2.3991   -2.3101    2.9284 H   0  0  0  0  0  0  0  0  0  0  0  0
   -3.4543   -2.8221    1.5786 H   0  0  0  0  0  0  0  0  0  0  0  0
   -1.5060   -4.4659    0.9181 H   0  0  0  0  0  0  0  0  0  0  0  0
   -0.8891   -4.1580    2.5858 H   0  0  0  0  0  0  0  0  0  0  0  0
   -2.5335   -4.8651    2.3608 H   0  0  0  0  0  0  0  0  0  0  0  0
   -0.7738   -0.1228    3.0514 H   0  0  0  0  0  0  0  0  0  0  0  0
    2.8091    1.7163    9.5061 H   0  0  0  0  0  0  0  0  0  0  0  0
    2.2917    2.8830   11.6274 H   0  0  0  0  0  0  0  0  0  0  0  0
    0.1362    4.0616   11.9111 H   0  0  0  0  0  0  0  0  0  0  0  0
   -2.3825    2.1879   11.1251 H   0  0  0  0  0  0  0  0  0  0  0  0
   -3.7686    3.2719   11.4901 H   0  0  0  0  0  0  0  0  0  0  0  0
   -4.5636    3.1190    9.1374 H   0  0  0  0  0  0  0  0  0  0  0  0
   -3.1702    2.0358    8.7257 H   0  0  0  0  0  0  0  0  0  0  0  0
   -4.4290    1.4850    9.8958 H   0  0  0  0  0  0  0  0  0  0  0  0
   -0.9989    2.9738    7.9136 H   0  0  0  0  0  0  0  0  0  0  0  0
    1.4456   -0.4405    9.4349 H   0  0  0  0  0  0  0  0  0  0  0  0
    1.0843   -3.8783    9.2345 H   0  0  0  0  0  0  0  0  0  0  0  0
    6.4046   -2.6586    6.2540 H   0  0  0  0  0  0  0  0  0  0  0  0
    4.7919   -7.3945    7.2608 H   0  0  0  0  0  0  0  0  0  0  0  0
    7.7926   -7.3685    5.4540 H   0  0  0  0  0  0  0  0  0  0  0  0
    5.6128   -7.9393    3.8290 H   0  0  0  0  0  0  0  0  0  0  0  0
    7.7101   -8.1043    2.2074 H   0  0  0  0  0  0  0  0  0  0  0  0
    8.5610   -5.6796    1.7178 H   0  0  0  0  0  0  0  0  0  0  0  0
    7.0098   -3.9738    3.0358 H   0  0  0  0  0  0  0  0  0  0  0  0
    4.9109   -5.3551    3.9642 H   0  0  0  0  0  0  0  0  0  0  0  0
    5.2688   -5.8252    2.2497 H   0  0  0  0  0  0  0  0  0  0  0  0
    8.5811   -5.1471    5.0041 H   0  0  0  0  0  0  0  0  0  0  0  0
  1  2  2  3
  2  3  1  0
  3  4  2  0
  3  5  1  0
  5  6  2  0
  6  7  1  0
  7  8  2  0
  8  9  1  0
  9 10  2  0
 10 11  1  0
 11 12  2  3
 12 13  1  0
 13 14  3  0
 12 15  1  0
 15 16  3  0
  8 17  1  0
 17 18  1  0
 18 19  1  0
 19 20  2  0
 20 21  1  0
 21 22  1  0
 21 23  1  0
  1 24  1  0
 24 25  1  0
 25 26  1  0
 26 27  2  0
 27 28  1  0
 28 29  1  0
 26 30  1  0
 30 31  2  0
 31 32  1  0
 32 33  2  0
 33 34  1  0
 34 35  2  0
 34 36  1  0
 36 37  1  0
 37 38  1  0
 33 39  1  0
 39 40  1  0
 30 41  1  0
 41 42  2  0
 42 43  1  0
 43 44  2  0
 44 45  1  0
 45 46  2  0
 46 47  1  0
 47 48  1  0
 48 49  1  0
 47 50  2  0
 42 51  1  0
 51 52  1  0
 52 53  1  0
 53 54  1  0
 54 55  1  0
 55 56  1  0
 56 57  2  0
 57 58  1  0
 58 59  1  0
 56 60  1  0
 60 61  1  0
 61 62  1  0
 62 63  1  0
 63 64  1  0
 64 65  1  0
 65 66  2  0
 66 67  1  0
 67 68  2  0
 68 69  1  0
 69 70  1  0
 70 71  1  0
 69 72  2  0
 64 73  2  0
 73 74  1  0
 74 75  1  0
 75 76  1  0
 76 77  1  0
 77 78  1  0
 78 79  1  0
 79 80  1  0
 80 81  1  0
 81 82  1  0
 82 83  1  0
 80 84  1  0
 84 85  1  0
 77 86  1  0
 86 87  1  0
 73 88  1  0
 88 89  2  0
 89 90  1  0
 90 91  2  0
 91 92  1  0
 92 93  2  0
 93 94  1  0
 94 95  2  0
 95 96  1  0
 96 97  1  0
 97 98  1  0
 98 99  1  0
 96100  2  0
 91101  1  0
101102  2  0
102103  1  0
103104  1  0
104105  2  0
105106  1  0
106107  2  0
107108  1  0
108109  1  0
109110  1  0
110111  1  0
108112  2  0
103113  2  0
113114  1  0
102115  1  0
115116  2  0
116117  1  0
116118  1  0
118119  2  3
119120  1  0
120121  2  0
120122  1  0
122123  2  0
123124  1  0
124125  2  0
125126  1  0
126127  2  0
127128  1  0
128129  2  3
129130  1  0
130131  3  0
129132  1  0
132133  3  0
125134  1  0
134135  1  0
135136  1  0
136137  2  0
137138  1  0
138139  1  0
138140  1  0
 11  2  1  0
 23 17  1  0
 40 24  2  0
 83 41  1  0
114 88  1  0
128119  1  0
140134  1  0
 10  5  1  0
 22 18  1  0
 29 25  2  0
 40 31  1  0
 50 43  1  0
 82 51  2  0
113 90  1  0
127122  1  0
139135  1  0
 23  7  1  0
 81 53  2  0
100 92  1  0
117101  1  0
140124  1  0
 79 54  2  0
112104  1  0
 59 55  2  0
 78 60  2  0
 76 61  2  0
 75 63  2  0
 72 65  1  0
  1141  1  0
  6142  1  0
  9143  1  0
 17144  1  0
 18145  1  0
 19146  1  0
 20147  1  0
 21148  1  0
 22149  1  0
 22150  1  0
 23151  1  0
 32152  1  0
 37153  1  0
 37154  1  0
 38155  1  0
 38156  1  0
 38157  1  0
 44158  1  0
 45159  1  0
 46160  1  0
 48161  1  0
 48162  1  0
 49163  1  0
 49164  1  0
 49165  1  0
 50166  1  0
 66167  1  0
 67168  1  0
 68169  1  0
 70170  1  0
 70171  1  0
 71172  1  0
 71173  1  0
 71174  1  0
 72175  1  0
 84176  1  0
 84177  1  0
 85178  1  0
 85179  1  0
 85180  1  0
 86181  1  0
 86182  1  0
 87183  1  0
 87184  1  0
 87185  1  0
 89186  1  0
 93187  1  0
 94188  1  0
 95189  1  0
 98190  1  0
 98191  1  0
 99192  1  0
 99193  1  0
 99194  1  0
100195  1  0
105196  1  0
106197  1  0
107198  1  0
110199  1  0
110200  1  0
111201  1  0
111202  1  0
111203  1  0
112204  1  0
115205  1  0
118206  1  0
123207  1  0
126208  1  0
134209  1  0
135210  1  0
136211  1  0
137212  1  0
138213  1  0
139214  1  0
139215  1  0
140216  1  0
M  END

