
     RDKit          3D

185206  0  0  0  0  0  0  0  0999 V2000
   -7.3821   -3.8907   -0.6783 C   0  0  0  0  0  0  0  0  0  0  0  0
   -7.7401   -3.7475    0.6187 C   0  0  0  0  0  0  0  0  0  0  0  0
   -7.4611   -2.5170    1.3721 C   0  0  0  0  0  0  0  0  0  0  0  0
   -7.6643   -1.3302    0.9855 O   0  0  0  0  0  0  0  0  0  0  0  0
   -6.7782   -2.8715    2.6110 C   0  0  0  0  0  0  0  0  0  0  0  0
   -5.9870   -2.0126    3.3987 C   0  0  0  0  0  0  0  0  0  0  0  0
   -5.3681   -2.6924    4.4581 C   0  0  0  0  0  0  0  0  0  0  0  0
   -5.5203   -4.0933    4.7091 C   0  0  0  0  0  0  0  0  0  0  0  0
   -6.2748   -4.9547    3.9075 C   0  0  0  0  0  0  0  0  0  0  0  0
   -6.8931   -4.2894    2.7922 C   0  0  0  0  0  0  0  0  0  0  0  0
   -7.5969   -4.8570    1.5975 C   0  0  0  0  0  0  0  0  0  0  0  0
   -7.9445   -6.1386    1.3720 C   0  0  0  0  0  0  0  0  0  0  0  0
   -8.9106   -6.4276    0.3619 C   0  0  0  0  0  0  0  0  0  0  0  0
   -9.8156   -6.5754   -0.3693 N   0  0  0  0  0  0  0  0  0  0  0  0
   -7.5338   -7.2414    2.2090 C   0  0  0  0  0  0  0  0  0  0  0  0
   -7.2182   -8.1397    2.8697 N   0  0  0  0  0  0  0  0  0  0  0  0
   -4.5839   -3.9989    5.8644 C   0  0  0  0  0  0  0  0  0  0  0  0
   -5.1972   -4.0249    7.2833 C   0  0  0  0  0  0  0  0  0  0  0  0
   -4.1169   -3.5001    8.1913 C   0  0  0  0  0  0  0  0  0  0  0  0
   -3.9870   -2.1909    7.9380 C   0  0  0  0  0  0  0  0  0  0  0  0
   -4.9857   -1.8776    6.8534 C   0  0  0  0  0  0  0  0  0  0  0  0
   -6.1108   -2.8017    7.2953 C   0  0  0  0  0  0  0  0  0  0  0  0
   -4.4302   -2.5607    5.5869 C   0  0  0  0  0  0  0  0  0  0  0  0
   -6.8088   -2.7739   -1.4499 C   0  0  0  0  0  0  0  0  0  0  0  0
   -7.5096   -1.9719   -2.3479 C   0  0  0  0  0  0  0  0  0  0  0  0
   -8.5701   -2.3723   -3.1936 O   0  0  0  0  0  0  0  0  0  0  0  0
   -8.9657   -3.6966   -3.5768 C   0  0  0  0  0  0  0  0  0  0  0  0
   -8.1030   -4.1866   -4.7382 C   0  0  0  0  0  0  0  0  0  0  0  0
   -6.9250   -0.6928   -2.5171 C   0  0  0  0  0  0  0  0  0  0  0  0
   -7.5736    0.3293   -3.1931 O   0  0  0  0  0  0  0  0  0  0  0  0
   -8.7009    1.0483   -2.6608 C   0  0  0  0  0  0  0  0  0  0  0  0
   -9.9559    0.1877   -2.5454 C   0  0  0  0  0  0  0  0  0  0  0  0
   -5.7241   -0.4975   -1.8063 C   0  0  0  0  0  0  0  0  0  0  0  0
   -5.4480   -1.9180   -0.9466 S   0  0  0  0  0  0  0  0  0  0  0  0
   -4.9066    0.7577   -1.6826 C   0  0  0  0  0  0  0  0  0  0  0  0
   -4.7532    1.7556   -2.6705 C   0  0  0  0  0  0  0  0  0  0  0  0
   -5.2473    1.6938   -4.0498 C   0  0  0  0  0  0  0  0  0  0  0  0
   -6.1325    2.6552   -4.5451 C   0  0  0  0  0  0  0  0  0  0  0  0
   -6.4764    2.6713   -5.9042 C   0  0  0  0  0  0  0  0  0  0  0  0
   -5.9286    1.7482   -6.7899 C   0  0  0  0  0  0  0  0  0  0  0  0
   -5.0327    0.7682   -6.2979 C   0  0  0  0  0  0  0  0  0  0  0  0
   -4.3317   -0.1585   -7.2612 C   0  0  0  0  0  0  0  0  0  0  0  0
   -3.1157    0.5334   -7.8788 C   0  0  0  0  0  0  0  0  0  0  0  0
   -4.7048    0.7491   -4.9360 C   0  0  0  0  0  0  0  0  0  0  0  0
   -3.8467    2.7431   -2.2873 C   0  0  0  0  0  0  0  0  0  0  0  0
   -3.0938    4.0305   -3.1301 S   0  0  0  0  0  0  0  0  0  0  0  0
   -2.0844    4.3264   -1.7994 C   0  0  0  0  0  0  0  0  0  0  0  0
   -1.0274    5.1347   -1.4286 C   0  0  0  0  0  0  0  0  0  0  0  0
   -0.3873    6.1488   -2.1231 C   0  0  0  0  0  0  0  0  0  0  0  0
    0.7403    6.7722   -1.5256 C   0  0  0  0  0  0  0  0  0  0  0  0
    1.3604    7.7286   -2.2622 N   0  0  0  0  0  0  0  0  0  0  0  0
    0.4345    7.7026   -3.6371 S   0  0  0  0  0  0  0  0  0  0  0  0
   -0.7143    6.5491   -3.3749 N   0  0  0  0  0  0  0  0  0  0  0  0
    1.1761    6.3295   -0.2791 C   0  0  0  0  0  0  0  0  0  0  0  0
    2.4437    6.4694    0.2648 C   0  0  0  0  0  0  0  0  0  0  0  0
    3.9600    6.7597   -0.4562 S   0  0  0  0  0  0  0  0  0  0  0  0
    4.7666    5.6584    0.5767 C   0  0  0  0  0  0  0  0  0  0  0  0
    5.9982    4.9777    0.4577 C   0  0  0  0  0  0  0  0  0  0  0  0
    6.9756    5.2655   -0.6119 C   0  0  0  0  0  0  0  0  0  0  0  0
    8.3306    5.4124   -0.3159 C   0  0  0  0  0  0  0  0  0  0  0  0
    9.2590    5.7610   -1.3174 C   0  0  0  0  0  0  0  0  0  0  0  0
    8.8154    6.0019   -2.6225 C   0  0  0  0  0  0  0  0  0  0  0  0
    7.4485    5.8866   -2.9314 C   0  0  0  0  0  0  0  0  0  0  0  0
    6.9590    6.1728   -4.3239 C   0  0  0  0  0  0  0  0  0  0  0  0
    7.0242    4.9143   -5.1950 C   0  0  0  0  0  0  0  0  0  0  0  0
    6.5461    5.4806   -1.9391 C   0  0  0  0  0  0  0  0  0  0  0  0
    6.0536    3.8394    1.2873 C   0  0  0  0  0  0  0  0  0  0  0  0
    4.5795    3.7451    2.1354 S   0  0  0  0  0  0  0  0  0  0  0  0
    3.8777    5.1005    1.4457 C   0  0  0  0  0  0  0  0  0  0  0  0
    2.5423    5.5302    1.2577 C   0  0  0  0  0  0  0  0  0  0  0  0
    1.3896    4.8211    1.4077 N   0  0  0  0  0  0  0  0  0  0  0  0
    0.5380    5.2959    0.4322 C   0  0  0  0  0  0  0  0  0  0  0  0
   -0.6482    4.7111   -0.1399 C   0  0  0  0  0  0  0  0  0  0  0  0
   -1.5078    3.7150    0.3035 N   0  0  0  0  0  0  0  0  0  0  0  0
   -2.2997    3.4805   -0.7691 C   0  0  0  0  0  0  0  0  0  0  0  0
   -3.3134    2.5672   -1.0472 C   0  0  0  0  0  0  0  0  0  0  0  0
   -3.8922    1.1451   -0.3578 S   0  0  0  0  0  0  0  0  0  0  0  0
   -1.9480    3.3662    1.6480 C   0  0  0  0  0  0  0  0  0  0  0  0
   -2.1387    4.6074    2.5374 C   0  0  0  0  0  0  0  0  0  0  0  0
    1.3144    3.6334    2.2514 C   0  0  0  0  0  0  0  0  0  0  0  0
    1.5871    2.3582    1.4367 C   0  0  0  0  0  0  0  0  0  0  0  0
    6.7248    2.5616    0.8883 C   0  0  0  0  0  0  0  0  0  0  0  0
    8.0655    2.1622    1.0262 C   0  0  0  0  0  0  0  0  0  0  0  0
    9.0880    3.0258    1.4333 O   0  0  0  0  0  0  0  0  0  0  0  0
   10.0164    2.7072    2.4701 C   0  0  0  0  0  0  0  0  0  0  0  0
   10.9481    3.8951    2.6861 C   0  0  0  0  0  0  0  0  0  0  0  0
    8.2587    0.7704    0.7464 C   0  0  0  0  0  0  0  0  0  0  0  0
    9.5244    0.1577    0.6226 O   0  0  0  0  0  0  0  0  0  0  0  0
   10.4634    0.6181   -0.3443 C   0  0  0  0  0  0  0  0  0  0  0  0
   11.8447    0.0066   -0.1127 C   0  0  0  0  0  0  0  0  0  0  0  0
    7.0559    0.0897    0.5598 C   0  0  0  0  0  0  0  0  0  0  0  0
    5.8222    1.2195    0.4901 S   0  0  0  0  0  0  0  0  0  0  0  0
    6.8205   -1.3620    0.4725 C   0  0  0  0  0  0  0  0  0  0  0  0
    5.7393   -1.9258    1.0468 C   0  0  0  0  0  0  0  0  0  0  0  0
    4.9627   -1.3101    2.1482 C   0  0  0  0  0  0  0  0  0  0  0  0
    5.3708   -0.4523    2.9600 O   0  0  0  0  0  0  0  0  0  0  0  0
    3.7019   -2.0042    2.2926 C   0  0  0  0  0  0  0  0  0  0  0  0
    2.7283   -1.7346    3.2834 C   0  0  0  0  0  0  0  0  0  0  0  0
    1.7144   -2.6826    3.3145 C   0  0  0  0  0  0  0  0  0  0  0  0
    1.6607   -3.8196    2.4407 C   0  0  0  0  0  0  0  0  0  0  0  0
    2.6200   -4.0804    1.4644 C   0  0  0  0  0  0  0  0  0  0  0  0
    3.6670   -3.1114    1.3976 C   0  0  0  0  0  0  0  0  0  0  0  0
    4.9153   -3.1057    0.5614 C   0  0  0  0  0  0  0  0  0  0  0  0
    5.0843   -3.8416   -0.5885 C   0  0  0  0  0  0  0  0  0  0  0  0
    6.3297   -3.8701   -1.3356 C   0  0  0  0  0  0  0  0  0  0  0  0
    7.3405   -3.8980   -1.9086 N   0  0  0  0  0  0  0  0  0  0  0  0
    3.9688   -4.5183   -1.2520 C   0  0  0  0  0  0  0  0  0  0  0  0
    3.0773   -5.0372   -1.7780 N   0  0  0  0  0  0  0  0  0  0  0  0
    0.4066   -4.3016    3.1072 C   0  0  0  0  0  0  0  0  0  0  0  0
   -0.9514   -4.1267    2.3678 C   0  0  0  0  0  0  0  0  0  0  0  0
   -0.9124   -2.9194    1.4732 C   0  0  0  0  0  0  0  0  0  0  0  0
   -0.8430   -1.8482    2.2647 C   0  0  0  0  0  0  0  0  0  0  0  0
   -0.8585   -2.3673    3.6864 C   0  0  0  0  0  0  0  0  0  0  0  0
   -1.7931   -3.5457    3.4945 C   0  0  0  0  0  0  0  0  0  0  0  0
    0.4608   -3.1280    4.0042 C   0  0  0  0  0  0  0  0  0  0  0  0
   -7.1933   -4.8661   -1.0859 H   0  0  0  0  0  0  0  0  0  0  0  0
   -5.8315   -0.9473    3.1949 H   0  0  0  0  0  0  0  0  0  0  0  0
   -6.3535   -6.0156    4.1575 H   0  0  0  0  0  0  0  0  0  0  0  0
   -3.6816   -4.6239    5.7308 H   0  0  0  0  0  0  0  0  0  0  0  0
   -5.6479   -4.9798    7.6143 H   0  0  0  0  0  0  0  0  0  0  0  0
   -3.6112   -4.0239    9.0022 H   0  0  0  0  0  0  0  0  0  0  0  0
   -3.3584   -1.4994    8.5121 H   0  0  0  0  0  0  0  0  0  0  0  0
   -5.2492   -0.8094    6.7410 H   0  0  0  0  0  0  0  0  0  0  0  0
   -6.5447   -2.5440    8.3020 H   0  0  0  0  0  0  0  0  0  0  0  0
   -6.9767   -2.8577    6.5882 H   0  0  0  0  0  0  0  0  0  0  0  0
   -3.4333   -2.2372    5.2636 H   0  0  0  0  0  0  0  0  0  0  0  0
   -8.9371   -4.4074   -2.7219 H   0  0  0  0  0  0  0  0  0  0  0  0
  -10.0152   -3.6810   -3.9694 H   0  0  0  0  0  0  0  0  0  0  0  0
   -8.0791   -3.4217   -5.5527 H   0  0  0  0  0  0  0  0  0  0  0  0
   -8.5252   -5.1283   -5.1529 H   0  0  0  0  0  0  0  0  0  0  0  0
   -7.0604   -4.3829   -4.4231 H   0  0  0  0  0  0  0  0  0  0  0  0
   -8.4300    1.4380   -1.6581 H   0  0  0  0  0  0  0  0  0  0  0  0
   -8.9083    1.9176   -3.3165 H   0  0  0  0  0  0  0  0  0  0  0  0
   -9.8529   -0.5305   -1.6965 H   0  0  0  0  0  0  0  0  0  0  0  0
  -10.1370   -0.3632   -3.4940 H   0  0  0  0  0  0  0  0  0  0  0  0
  -10.8374    0.8436   -2.3456 H   0  0  0  0  0  0  0  0  0  0  0  0
   -6.5732    3.3875   -3.8743 H   0  0  0  0  0  0  0  0  0  0  0  0
   -7.1739    3.4167   -6.2939 H   0  0  0  0  0  0  0  0  0  0  0  0
   -6.1651    1.7915   -7.8350 H   0  0  0  0  0  0  0  0  0  0  0  0
   -5.0464   -0.4647   -8.0593 H   0  0  0  0  0  0  0  0  0  0  0  0
   -3.9867   -1.0867   -6.7305 H   0  0  0  0  0  0  0  0  0  0  0  0
   -3.4435    1.3717   -8.5330 H   0  0  0  0  0  0  0  0  0  0  0  0
   -2.4330    0.9272   -7.0826 H   0  0  0  0  0  0  0  0  0  0  0  0
   -2.5436   -0.1851   -8.5041 H   0  0  0  0  0  0  0  0  0  0  0  0
   -3.9647    0.0333   -4.5714 H   0  0  0  0  0  0  0  0  0  0  0  0
    8.6817    5.3129    0.7028 H   0  0  0  0  0  0  0  0  0  0  0  0
   10.3187    5.8854   -1.0757 H   0  0  0  0  0  0  0  0  0  0  0  0
    9.5319    6.2567   -3.3878 H   0  0  0  0  0  0  0  0  0  0  0  0
    7.5787    6.9686   -4.7796 H   0  0  0  0  0  0  0  0  0  0  0  0
    5.9040    6.5440   -4.2945 H   0  0  0  0  0  0  0  0  0  0  0  0
    7.8762    4.2480   -4.9100 H   0  0  0  0  0  0  0  0  0  0  0  0
    7.1591    5.2131   -6.2576 H   0  0  0  0  0  0  0  0  0  0  0  0
    6.0767    4.3291   -5.1169 H   0  0  0  0  0  0  0  0  0  0  0  0
    5.5043    5.3420   -2.2318 H   0  0  0  0  0  0  0  0  0  0  0  0
   -1.2511    2.6348    2.1090 H   0  0  0  0  0  0  0  0  0  0  0  0
   -2.9219    2.8161    1.6448 H   0  0  0  0  0  0  0  0  0  0  0  0
   -1.2018    5.1733    2.6911 H   0  0  0  0  0  0  0  0  0  0  0  0
   -2.5656    4.2884    3.5183 H   0  0  0  0  0  0  0  0  0  0  0  0
   -2.8705    5.3066    2.0627 H   0  0  0  0  0  0  0  0  0  0  0  0
    2.0553    3.6861    3.0866 H   0  0  0  0  0  0  0  0  0  0  0  0
    0.3859    3.6082    2.8257 H   0  0  0  0  0  0  0  0  0  0  0  0
    2.0457    1.5757    2.0918 H   0  0  0  0  0  0  0  0  0  0  0  0
    2.3075    2.5440    0.5968 H   0  0  0  0  0  0  0  0  0  0  0  0
    0.6558    1.9403    0.9914 H   0  0  0  0  0  0  0  0  0  0  0  0
    9.4555    2.4939    3.3997 H   0  0  0  0  0  0  0  0  0  0  0  0
   10.6207    1.8170    2.2188 H   0  0  0  0  0  0  0  0  0  0  0  0
   11.4566    3.7884    3.6669 H   0  0  0  0  0  0  0  0  0  0  0  0
   11.7126    3.9210    1.8846 H   0  0  0  0  0  0  0  0  0  0  0  0
   10.3691    4.8436    2.6785 H   0  0  0  0  0  0  0  0  0  0  0  0
   10.1034    0.3269   -1.3565 H   0  0  0  0  0  0  0  0  0  0  0  0
   10.5526    1.7287   -0.3027 H   0  0  0  0  0  0  0  0  0  0  0  0
   12.1539    0.1700    0.9381 H   0  0  0  0  0  0  0  0  0  0  0  0
   12.5864    0.5045   -0.7806 H   0  0  0  0  0  0  0  0  0  0  0  0
   11.8340   -1.0811   -0.3248 H   0  0  0  0  0  0  0  0  0  0  0  0
    7.4443   -1.8513   -0.2203 H   0  0  0  0  0  0  0  0  0  0  0  0
    2.7665   -0.8850    3.9812 H   0  0  0  0  0  0  0  0  0  0  0  0
    2.5684   -4.9729    0.8482 H   0  0  0  0  0  0  0  0  0  0  0  0
    0.5351   -5.2589    3.6608 H   0  0  0  0  0  0  0  0  0  0  0  0
   -1.3687   -5.0459    1.9105 H   0  0  0  0  0  0  0  0  0  0  0  0
   -0.9736   -2.8964    0.3858 H   0  0  0  0  0  0  0  0  0  0  0  0
   -0.8064   -0.8042    1.9228 H   0  0  0  0  0  0  0  0  0  0  0  0
   -1.1728   -1.6253    4.4519 H   0  0  0  0  0  0  0  0  0  0  0  0
   -1.8706   -4.2143    4.3935 H   0  0  0  0  0  0  0  0  0  0  0  0
   -2.8399   -3.2671    3.1903 H   0  0  0  0  0  0  0  0  0  0  0  0
    0.6157   -3.3794    5.0756 H   0  0  0  0  0  0  0  0  0  0  0  0
  1  2  2  3
  2  3  1  0
  3  4  2  0
  3  5  1  0
  5  6  2  0
  6  7  1  0
  7  8  2  0
  8  9  1  0
  9 10  2  0
 10 11  1  0
 11 12  2  3
 12 13  1  0
 13 14  3  0
 12 15  1  0
 15 16  3  0
  8 17  1  0
 17 18  1  0
 18 19  1  0
 19 20  2  0
 20 21  1  0
 21 22  1  0
 21 23  1  0
  1 24  1  0
 24 25  2  0
 25 26  1  0
 26 27  1  0
 27 28  1  0
 25 29  1  0
 29 30  1  0
 30 31  1  0
 31 32  1  0
 29 33  2  0
 33 34  1  0
 33 35  1  0
 35 36  2  0
 36 37  1  0
 37 38  2  0
 38 39  1  0
 39 40  2  0
 40 41  1  0
 41 42  1  0
 42 43  1  0
 41 44  2  0
 36 45  1  0
 45 46  1  0
 46 47  1  0
 47 48  1  0
 48 49  1  0
 49 50  1  0
 50 51  2  0
 51 52  1  0
 52 53  1  0
 50 54  1  0
 54 55  1  0
 55 56  1  0
 56 57  1  0
 57 58  1  0
 58 59  1  0
 59 60  2  0
 60 61  1  0
 61 62  2  0
 62 63  1  0
 63 64  1  0
 64 65  1  0
 63 66  2  0
 58 67  2  0
 67 68  1  0
 68 69  1  0
 69 70  1  0
 70 71  1  0
 71 72  1  0
 72 73  1  0
 73 74  1  0
 74 75  1  0
 75 76  1  0
 76 77  1  0
 74 78  1  0
 78 79  1  0
 71 80  1  0
 80 81  1  0
 67 82  1  0
 82 83  2  0
 83 84  1  0
 84 85  1  0
 85 86  1  0
 83 87  1  0
 87 88  1  0
 88 89  1  0
 89 90  1  0
 87 91  2  0
 91 92  1  0
 91 93  1  0
 93 94  2  3
 94 95  1  0
 95 96  2  0
 95 97  1  0
 97 98  2  0
 98 99  1  0
 99100  2  0
100101  1  0
101102  2  0
102103  1  0
103104  2  3
104105  1  0
105106  3  0
104107  1  0
107108  3  0
100109  1  0
109110  1  0
110111  1  0
111112  2  0
112113  1  0
113114  1  0
113115  1  0
 11  2  1  0
 23 17  1  0
 34 24  1  0
 77 35  1  0
 92 82  1  0
103 94  1  0
115109  1  0
 10  5  1  0
 22 18  1  0
 44 37  1  0
 76 45  2  0
102 97  1  0
114110  1  0
 23  7  1  0
 75 47  2  0
115 99  1  0
 73 48  2  0
 53 49  2  0
 72 54  2  0
 70 55  2  0
 69 57  2  0
 66 59  1  0
  1116  1  0
  6117  1  0
  9118  1  0
 17119  1  0
 18120  1  0
 19121  1  0
 20122  1  0
 21123  1  0
 22124  1  0
 22125  1  0
 23126  1  0
 27127  1  0
 27128  1  0
 28129  1  0
 28130  1  0
 28131  1  0
 31132  1  0
 31133  1  0
 32134  1  0
 32135  1  0
 32136  1  0
 38137  1  0
 39138  1  0
 40139  1  0
 42140  1  0
 42141  1  0
 43142  1  0
 43143  1  0
 43144  1  0
 44145  1  0
 60146  1  0
 61147  1  0
 62148  1  0
 64149  1  0
 64150  1  0
 65151  1  0
 65152  1  0
 65153  1  0
 66154  1  0
 78155  1  0
 78156  1  0
 79157  1  0
 79158  1  0
 79159  1  0
 80160  1  0
 80161  1  0
 81162  1  0
 81163  1  0
 81164  1  0
 85165  1  0
 85166  1  0
 86167  1  0
 86168  1  0
 86169  1  0
 89170  1  0
 89171  1  0
 90172  1  0
 90173  1  0
 90174  1  0
 93175  1  0
 98176  1  0
101177  1  0
109178  1  0
110179  1  0
111180  1  0
112181  1  0
113182  1  0
114183  1  0
114184  1  0
115185  1  0
M  END

