
     RDKit          3D

262290  0  0  0  0  0  0  0  0999 V2000
    8.9868    4.2558   -1.1863 C   0  0  0  0  0  0  0  0  0  0  0  0
    9.9197    4.3712   -0.2226 C   0  0  0  0  0  0  0  0  0  0  0  0
   10.0430    3.5043    0.9614 C   0  0  0  0  0  0  0  0  0  0  0  0
    9.5899    2.3323    1.0735 O   0  0  0  0  0  0  0  0  0  0  0  0
   10.7518    4.2232    2.0033 C   0  0  0  0  0  0  0  0  0  0  0  0
   10.9725    3.8206    3.3415 C   0  0  0  0  0  0  0  0  0  0  0  0
   11.5766    4.7890    4.1298 C   0  0  0  0  0  0  0  0  0  0  0  0
   11.9214    6.0851    3.6306 C   0  0  0  0  0  0  0  0  0  0  0  0
   11.7065    6.4808    2.3261 C   0  0  0  0  0  0  0  0  0  0  0  0
   11.1235    5.4908    1.4919 C   0  0  0  0  0  0  0  0  0  0  0  0
   10.7489    5.5762    0.0576 C   0  0  0  0  0  0  0  0  0  0  0  0
   11.2754    6.4267   -0.8535 C   0  0  0  0  0  0  0  0  0  0  0  0
   12.2383    7.4386   -0.5078 C   0  0  0  0  0  0  0  0  0  0  0  0
   13.0137    8.2577   -0.2508 N   0  0  0  0  0  0  0  0  0  0  0  0
   11.0623    6.2734   -2.2588 C   0  0  0  0  0  0  0  0  0  0  0  0
   10.9113    6.1718   -3.4004 N   0  0  0  0  0  0  0  0  0  0  0  0
   12.4021    6.5008    4.9883 C   0  0  0  0  0  0  0  0  0  0  0  0
   11.4869    7.4440    5.8269 C   0  0  0  0  0  0  0  0  0  0  0  0
   10.0356    7.1695    5.5175 C   0  0  0  0  0  0  0  0  0  0  0  0
    9.7589    5.9574    5.9982 C   0  0  0  0  0  0  0  0  0  0  0  0
   11.0376    5.4449    6.6166 C   0  0  0  0  0  0  0  0  0  0  0  0
   11.5783    6.7506    7.1728 C   0  0  0  0  0  0  0  0  0  0  0  0
   12.0817    5.1669    5.4977 C   0  0  0  0  0  0  0  0  0  0  0  0
    7.9470    3.2129   -1.1410 C   0  0  0  0  0  0  0  0  0  0  0  0
    8.0442    1.9043   -1.6537 C   0  0  0  0  0  0  0  0  0  0  0  0
    8.9648    1.4818   -2.6980 N   0  0  0  0  0  0  0  0  0  0  0  0
    9.5885    2.4307   -3.5750 C   0  0  0  0  0  0  0  0  0  0  0  0
   10.9826    2.4567   -3.7081 C   0  0  0  0  0  0  0  0  0  0  0  0
   11.5880    3.2761   -4.6698 C   0  0  0  0  0  0  0  0  0  0  0  0
   10.8005    4.0719   -5.5214 C   0  0  0  0  0  0  0  0  0  0  0  0
   11.4596    4.9717   -6.5298 C   0  0  0  0  0  0  0  0  0  0  0  0
    9.4038    4.0674   -5.3662 C   0  0  0  0  0  0  0  0  0  0  0  0
    8.8008    3.2528   -4.4035 C   0  0  0  0  0  0  0  0  0  0  0  0
    8.8854    0.1451   -3.2170 C   0  0  0  0  0  0  0  0  0  0  0  0
    7.8853   -0.1914   -4.1449 C   0  0  0  0  0  0  0  0  0  0  0  0
    7.7483   -1.5109   -4.5833 C   0  0  0  0  0  0  0  0  0  0  0  0
    8.6149   -2.5092   -4.1046 C   0  0  0  0  0  0  0  0  0  0  0  0
    8.4516   -3.9336   -4.5564 C   0  0  0  0  0  0  0  0  0  0  0  0
    9.6614   -2.1557   -3.2422 C   0  0  0  0  0  0  0  0  0  0  0  0
    9.7914   -0.8365   -2.7918 C   0  0  0  0  0  0  0  0  0  0  0  0
    7.0462    1.0924   -1.0817 C   0  0  0  0  0  0  0  0  0  0  0  0
    6.6903   -0.5492   -1.0861 S   0  0  0  0  0  0  0  0  0  0  0  0
    5.3439   -0.4180   -0.0535 C   0  0  0  0  0  0  0  0  0  0  0  0
    5.1177    0.9406    0.2548 C   0  0  0  0  0  0  0  0  0  0  0  0
    3.8691    1.4920    0.7434 N   0  0  0  0  0  0  0  0  0  0  0  0
    3.0029    0.7716    1.6265 C   0  0  0  0  0  0  0  0  0  0  0  0
    3.1654    0.8820    3.0141 C   0  0  0  0  0  0  0  0  0  0  0  0
    2.2329    0.2941    3.8783 C   0  0  0  0  0  0  0  0  0  0  0  0
    1.1415   -0.4240    3.3650 C   0  0  0  0  0  0  0  0  0  0  0  0
    0.1255   -1.0265    4.2929 C   0  0  0  0  0  0  0  0  0  0  0  0
    0.9607   -0.5042    1.9777 C   0  0  0  0  0  0  0  0  0  0  0  0
    1.8800    0.1047    1.1156 C   0  0  0  0  0  0  0  0  0  0  0  0
    3.3249    2.6820    0.1282 C   0  0  0  0  0  0  0  0  0  0  0  0
    3.2215    2.7689   -1.2728 C   0  0  0  0  0  0  0  0  0  0  0  0
    2.6602    3.8994   -1.8707 C   0  0  0  0  0  0  0  0  0  0  0  0
    2.1893    4.9580   -1.0781 C   0  0  0  0  0  0  0  0  0  0  0  0
    1.6436    6.1949   -1.7264 C   0  0  0  0  0  0  0  0  0  0  0  0
    2.2938    4.8746    0.3227 C   0  0  0  0  0  0  0  0  0  0  0  0
    2.8430    3.7350    0.9238 C   0  0  0  0  0  0  0  0  0  0  0  0
    6.1442    1.7302   -0.2828 C   0  0  0  0  0  0  0  0  0  0  0  0
    6.5780    3.3442   -0.1348 S   0  0  0  0  0  0  0  0  0  0  0  0
    4.5850   -1.5881    0.3857 C   0  0  0  0  0  0  0  0  0  0  0  0
    4.5378   -2.1465    1.6866 C   0  0  0  0  0  0  0  0  0  0  0  0
    5.3299   -1.6760    2.8614 C   0  0  0  0  0  0  0  0  0  0  0  0
    6.6549   -1.2328    2.6971 C   0  0  0  0  0  0  0  0  0  0  0  0
    7.3969   -0.7851    3.7932 C   0  0  0  0  0  0  0  0  0  0  0  0
    6.8453   -0.8011    5.0738 C   0  0  0  0  0  0  0  0  0  0  0  0
    5.5346   -1.2609    5.2669 C   0  0  0  0  0  0  0  0  0  0  0  0
    4.9409   -1.2843    6.6535 C   0  0  0  0  0  0  0  0  0  0  0  0
    4.6842    0.1290    7.1703 C   0  0  0  0  0  0  0  0  0  0  0  0
    4.7871   -1.7000    4.1600 C   0  0  0  0  0  0  0  0  0  0  0  0
    3.7076   -3.2762    1.6933 C   0  0  0  0  0  0  0  0  0  0  0  0
    3.0423   -4.2683    2.9173 S   0  0  0  0  0  0  0  0  0  0  0  0
    2.1399   -5.1509    1.7827 C   0  0  0  0  0  0  0  0  0  0  0  0
    0.9920   -5.8993    1.7754 C   0  0  0  0  0  0  0  0  0  0  0  0
    0.1737   -6.2574    2.8475 C   0  0  0  0  0  0  0  0  0  0  0  0
   -1.1660   -6.6530    2.5833 C   0  0  0  0  0  0  0  0  0  0  0  0
   -1.9526   -6.9167    3.6562 N   0  0  0  0  0  0  0  0  0  0  0  0
   -0.8752   -6.6251    4.8805 S   0  0  0  0  0  0  0  0  0  0  0  0
    0.5402   -6.1671    4.1518 N   0  0  0  0  0  0  0  0  0  0  0  0
   -1.6037   -6.7118    1.2578 C   0  0  0  0  0  0  0  0  0  0  0  0
   -2.8812   -6.7481    0.7647 C   0  0  0  0  0  0  0  0  0  0  0  0
   -4.3437   -6.1815    1.4095 S   0  0  0  0  0  0  0  0  0  0  0  0
   -4.8606   -5.6082   -0.1014 C   0  0  0  0  0  0  0  0  0  0  0  0
   -5.8112   -4.6415   -0.4229 C   0  0  0  0  0  0  0  0  0  0  0  0
   -6.8604   -4.1968    0.5083 C   0  0  0  0  0  0  0  0  0  0  0  0
   -6.5253   -3.5098    1.6839 C   0  0  0  0  0  0  0  0  0  0  0  0
   -7.5265   -3.0720    2.5498 C   0  0  0  0  0  0  0  0  0  0  0  0
   -8.8666   -3.3808    2.2884 C   0  0  0  0  0  0  0  0  0  0  0  0
   -9.2118   -4.1186    1.1445 C   0  0  0  0  0  0  0  0  0  0  0  0
  -10.6394   -4.5521    0.9188 C   0  0  0  0  0  0  0  0  0  0  0  0
  -10.8354   -6.0007    1.3652 C   0  0  0  0  0  0  0  0  0  0  0  0
   -8.2046   -4.5138    0.2503 C   0  0  0  0  0  0  0  0  0  0  0  0
   -5.5215   -4.0342   -1.6611 C   0  0  0  0  0  0  0  0  0  0  0  0
   -4.1018   -4.7134   -2.3060 S   0  0  0  0  0  0  0  0  0  0  0  0
   -3.8973   -5.8150   -1.0528 C   0  0  0  0  0  0  0  0  0  0  0  0
   -2.7799   -6.4867   -0.5687 C   0  0  0  0  0  0  0  0  0  0  0  0
   -1.5017   -6.3721   -0.9934 N   0  0  0  0  0  0  0  0  0  0  0  0
   -0.7644   -6.4244    0.1634 C   0  0  0  0  0  0  0  0  0  0  0  0
    0.5498   -5.9306    0.4341 C   0  0  0  0  0  0  0  0  0  0  0  0
    1.3980   -5.1797   -0.3458 N   0  0  0  0  0  0  0  0  0  0  0  0
    2.3229   -4.7043    0.5193 C   0  0  0  0  0  0  0  0  0  0  0  0
    3.1986   -3.6280    0.4658 C   0  0  0  0  0  0  0  0  0  0  0  0
    3.6711   -2.5235   -0.6965 S   0  0  0  0  0  0  0  0  0  0  0  0
    1.3195   -4.8009   -1.7564 C   0  0  0  0  0  0  0  0  0  0  0  0
    0.2385   -3.7525   -1.9888 C   0  0  0  0  0  0  0  0  0  0  0  0
   -1.1368   -6.9007   -2.3204 C   0  0  0  0  0  0  0  0  0  0  0  0
   -0.1925   -8.1024   -2.2249 C   0  0  0  0  0  0  0  0  0  0  0  0
   -6.1563   -2.7988   -2.1422 C   0  0  0  0  0  0  0  0  0  0  0  0
   -5.6822   -1.4962   -1.8856 C   0  0  0  0  0  0  0  0  0  0  0  0
   -4.2895   -1.1294   -1.8407 N   0  0  0  0  0  0  0  0  0  0  0  0
   -3.4900   -1.2992   -3.0411 C   0  0  0  0  0  0  0  0  0  0  0  0
   -2.0953   -1.4595   -2.9533 C   0  0  0  0  0  0  0  0  0  0  0  0
   -1.3139   -1.5402   -4.1103 C   0  0  0  0  0  0  0  0  0  0  0  0
   -1.9139   -1.5203   -5.3761 C   0  0  0  0  0  0  0  0  0  0  0  0
   -1.0782   -1.6930   -6.6096 C   0  0  0  0  0  0  0  0  0  0  0  0
   -3.3098   -1.4039   -5.4733 C   0  0  0  0  0  0  0  0  0  0  0  0
   -4.0903   -1.2821   -4.3204 C   0  0  0  0  0  0  0  0  0  0  0  0
   -3.7943   -0.3493   -0.7283 C   0  0  0  0  0  0  0  0  0  0  0  0
   -2.9211    0.7402   -0.9300 C   0  0  0  0  0  0  0  0  0  0  0  0
   -2.4014    1.4504    0.1570 C   0  0  0  0  0  0  0  0  0  0  0  0
   -2.7677    1.1054    1.4659 C   0  0  0  0  0  0  0  0  0  0  0  0
   -2.1860    1.8615    2.6248 C   0  0  0  0  0  0  0  0  0  0  0  0
   -3.6722    0.0545    1.6710 C   0  0  0  0  0  0  0  0  0  0  0  0
   -4.1822   -0.6630    0.5823 C   0  0  0  0  0  0  0  0  0  0  0  0
   -6.6966   -0.5573   -2.0390 C   0  0  0  0  0  0  0  0  0  0  0  0
   -6.8231    1.0717   -1.6949 S   0  0  0  0  0  0  0  0  0  0  0  0
   -8.4630    1.1715   -2.1452 C   0  0  0  0  0  0  0  0  0  0  0  0
   -8.8953   -0.0734   -2.6643 C   0  0  0  0  0  0  0  0  0  0  0  0
  -10.1660   -0.3400   -3.3205 N   0  0  0  0  0  0  0  0  0  0  0  0
  -11.0450    0.7342   -3.6897 C   0  0  0  0  0  0  0  0  0  0  0  0
  -12.2539    0.9192   -3.0077 C   0  0  0  0  0  0  0  0  0  0  0  0
  -13.1200    1.9512   -3.3839 C   0  0  0  0  0  0  0  0  0  0  0  0
  -12.7796    2.8117   -4.4408 C   0  0  0  0  0  0  0  0  0  0  0  0
  -13.7051    3.9210   -4.8565 C   0  0  0  0  0  0  0  0  0  0  0  0
  -11.5858    2.5995   -5.1463 C   0  0  0  0  0  0  0  0  0  0  0  0
  -10.7263    1.5612   -4.7760 C   0  0  0  0  0  0  0  0  0  0  0  0
  -10.3575   -1.5621   -4.0475 C   0  0  0  0  0  0  0  0  0  0  0  0
  -11.2413   -2.5377   -3.5745 C   0  0  0  0  0  0  0  0  0  0  0  0
  -11.4100   -3.7360   -4.2777 C   0  0  0  0  0  0  0  0  0  0  0  0
  -10.7116   -3.9609   -5.4733 C   0  0  0  0  0  0  0  0  0  0  0  0
  -10.8644   -5.2515   -6.2227 C   0  0  0  0  0  0  0  0  0  0  0  0
   -9.8209   -2.9837   -5.9443 C   0  0  0  0  0  0  0  0  0  0  0  0
   -9.6455   -1.7903   -5.2381 C   0  0  0  0  0  0  0  0  0  0  0  0
   -7.8847   -1.0319   -2.4936 C   0  0  0  0  0  0  0  0  0  0  0  0
   -7.7931   -2.7076   -2.6047 S   0  0  0  0  0  0  0  0  0  0  0  0
   -9.2872    2.3663   -1.8847 C   0  0  0  0  0  0  0  0  0  0  0  0
   -9.3976    2.9507   -0.6781 C   0  0  0  0  0  0  0  0  0  0  0  0
   -9.8052    4.3549   -0.5222 C   0  0  0  0  0  0  0  0  0  0  0  0
  -10.3643    5.0781   -1.3915 O   0  0  0  0  0  0  0  0  0  0  0  0
   -9.3670    4.7895    0.7870 C   0  0  0  0  0  0  0  0  0  0  0  0
   -8.7657    3.7435    1.4497 C   0  0  0  0  0  0  0  0  0  0  0  0
   -8.3200    4.0564    2.7340 C   0  0  0  0  0  0  0  0  0  0  0  0
   -8.7001    5.6937    2.9780 S   0  0  0  0  0  0  0  0  0  0  0  0
   -9.4344    5.9846    1.4797 C   0  0  0  0  0  0  0  0  0  0  0  0
   -9.9929    7.2804    0.9971 C   0  0  0  0  0  0  0  0  0  0  0  0
   -8.8449    2.5028    0.6460 C   0  0  0  0  0  0  0  0  0  0  0  0
   -8.8083    1.2480    1.1510 C   0  0  0  0  0  0  0  0  0  0  0  0
   -8.2291    0.9686    2.4353 C   0  0  0  0  0  0  0  0  0  0  0  0
   -7.7525    0.7275    3.4637 N   0  0  0  0  0  0  0  0  0  0  0  0
   -9.5070    0.1527    0.5312 C   0  0  0  0  0  0  0  0  0  0  0  0
  -10.0784   -0.7425    0.0651 N   0  0  0  0  0  0  0  0  0  0  0  0
    8.8239    5.0603   -1.8859 H   0  0  0  0  0  0  0  0  0  0  0  0
   10.6640    2.8606    3.7312 H   0  0  0  0  0  0  0  0  0  0  0  0
   11.9316    7.4840    2.0108 H   0  0  0  0  0  0  0  0  0  0  0  0
   13.4826    6.7516    5.0209 H   0  0  0  0  0  0  0  0  0  0  0  0
   11.7773    8.5171    5.8207 H   0  0  0  0  0  0  0  0  0  0  0  0
    9.3144    7.8561    5.0918 H   0  0  0  0  0  0  0  0  0  0  0  0
    8.7838    5.4897    6.0259 H   0  0  0  0  0  0  0  0  0  0  0  0
   10.9083    4.6283    7.3578 H   0  0  0  0  0  0  0  0  0  0  0  0
   12.6197    6.6725    7.5645 H   0  0  0  0  0  0  0  0  0  0  0  0
   10.9209    7.2070    7.9547 H   0  0  0  0  0  0  0  0  0  0  0  0
   12.9803    4.5989    5.8158 H   0  0  0  0  0  0  0  0  0  0  0  0
   11.6032    1.8206   -3.0814 H   0  0  0  0  0  0  0  0  0  0  0  0
   12.6681    3.2971   -4.7481 H   0  0  0  0  0  0  0  0  0  0  0  0
   10.7150    5.4150   -7.2252 H   0  0  0  0  0  0  0  0  0  0  0  0
   12.1932    4.3945   -7.1323 H   0  0  0  0  0  0  0  0  0  0  0  0
   11.9899    5.7949   -6.0072 H   0  0  0  0  0  0  0  0  0  0  0  0
    8.7805    4.6929   -5.9976 H   0  0  0  0  0  0  0  0  0  0  0  0
    7.7231    3.2265   -4.3259 H   0  0  0  0  0  0  0  0  0  0  0  0
    7.1858    0.5579   -4.4852 H   0  0  0  0  0  0  0  0  0  0  0  0
    6.9475   -1.7624   -5.2748 H   0  0  0  0  0  0  0  0  0  0  0  0
    7.3893   -4.1507   -4.8041 H   0  0  0  0  0  0  0  0  0  0  0  0
    8.7583   -4.6343   -3.7528 H   0  0  0  0  0  0  0  0  0  0  0  0
    9.0751   -4.1124   -5.4562 H   0  0  0  0  0  0  0  0  0  0  0  0
   10.3747   -2.8986   -2.9090 H   0  0  0  0  0  0  0  0  0  0  0  0
   10.5897   -0.5799   -2.1011 H   0  0  0  0  0  0  0  0  0  0  0  0
    4.0029    1.4320    3.4249 H   0  0  0  0  0  0  0  0  0  0  0  0
    2.3578    0.3967    4.9484 H   0  0  0  0  0  0  0  0  0  0  0  0
   -0.2123   -2.0098    3.9030 H   0  0  0  0  0  0  0  0  0  0  0  0
   -0.7473   -0.3453    4.3754 H   0  0  0  0  0  0  0  0  0  0  0  0
    0.5558   -1.1782    5.3063 H   0  0  0  0  0  0  0  0  0  0  0  0
    0.0983   -1.0163    1.5663 H   0  0  0  0  0  0  0  0  0  0  0  0
    1.7126    0.0622    0.0482 H   0  0  0  0  0  0  0  0  0  0  0  0
    3.5623    1.9480   -1.8957 H   0  0  0  0  0  0  0  0  0  0  0  0
    2.5910    3.9505   -2.9535 H   0  0  0  0  0  0  0  0  0  0  0  0
    2.4816    6.8678   -2.0043 H   0  0  0  0  0  0  0  0  0  0  0  0
    1.0726    5.9333   -2.6408 H   0  0  0  0  0  0  0  0  0  0  0  0
    0.9660    6.7392   -1.0354 H   0  0  0  0  0  0  0  0  0  0  0  0
    1.9549    5.6972    0.9448 H   0  0  0  0  0  0  0  0  0  0  0  0
    2.9146    3.6841    2.0058 H   0  0  0  0  0  0  0  0  0  0  0  0
    7.1379   -1.2645    1.7294 H   0  0  0  0  0  0  0  0  0  0  0  0
    8.4121   -0.4370    3.6527 H   0  0  0  0  0  0  0  0  0  0  0  0
    7.4398   -0.4652    5.9140 H   0  0  0  0  0  0  0  0  0  0  0  0
    3.9823   -1.8515    6.6580 H   0  0  0  0  0  0  0  0  0  0  0  0
    5.6413   -1.8030    7.3424 H   0  0  0  0  0  0  0  0  0  0  0  0
    5.6437    0.6560    7.3592 H   0  0  0  0  0  0  0  0  0  0  0  0
    4.1188    0.0763    8.1239 H   0  0  0  0  0  0  0  0  0  0  0  0
    4.0879    0.7157    6.4435 H   0  0  0  0  0  0  0  0  0  0  0  0
    3.7722   -2.0285    4.3170 H   0  0  0  0  0  0  0  0  0  0  0  0
   -5.4900   -3.3197    1.9314 H   0  0  0  0  0  0  0  0  0  0  0  0
   -7.2663   -2.5256    3.4463 H   0  0  0  0  0  0  0  0  0  0  0  0
   -9.6288   -3.0586    2.9849 H   0  0  0  0  0  0  0  0  0  0  0  0
  -10.8916   -4.4604   -0.1608 H   0  0  0  0  0  0  0  0  0  0  0  0
  -11.3377   -3.9024    1.4843 H   0  0  0  0  0  0  0  0  0  0  0  0
  -10.5885   -6.1047    2.4452 H   0  0  0  0  0  0  0  0  0  0  0  0
  -10.1871   -6.6773    0.7726 H   0  0  0  0  0  0  0  0  0  0  0  0
  -11.8935   -6.3035    1.2071 H   0  0  0  0  0  0  0  0  0  0  0  0
   -8.4637   -5.0881   -0.6292 H   0  0  0  0  0  0  0  0  0  0  0  0
    1.2064   -5.6967   -2.3838 H   0  0  0  0  0  0  0  0  0  0  0  0
    2.2857   -4.3901   -2.1035 H   0  0  0  0  0  0  0  0  0  0  0  0
   -0.0295   -3.7585   -3.0621 H   0  0  0  0  0  0  0  0  0  0  0  0
    0.6169   -2.7484   -1.7087 H   0  0  0  0  0  0  0  0  0  0  0  0
   -0.6729   -3.9630   -1.3954 H   0  0  0  0  0  0  0  0  0  0  0  0
   -2.0487   -7.2617   -2.8428 H   0  0  0  0  0  0  0  0  0  0  0  0
   -0.7550   -6.1032   -2.9815 H   0  0  0  0  0  0  0  0  0  0  0  0
    0.0097   -8.4994   -3.2404 H   0  0  0  0  0  0  0  0  0  0  0  0
    0.7741   -7.8291   -1.7558 H   0  0  0  0  0  0  0  0  0  0  0  0
   -0.6651   -8.9048   -1.6187 H   0  0  0  0  0  0  0  0  0  0  0  0
   -1.6088   -1.4934   -1.9865 H   0  0  0  0  0  0  0  0  0  0  0  0
   -0.2373   -1.6253   -4.0212 H   0  0  0  0  0  0  0  0  0  0  0  0
   -1.0316   -2.7698   -6.8761 H   0  0  0  0  0  0  0  0  0  0  0  0
   -1.5159   -1.1261   -7.4597 H   0  0  0  0  0  0  0  0  0  0  0  0
   -0.0469   -1.3178   -6.4423 H   0  0  0  0  0  0  0  0  0  0  0  0
   -3.7890   -1.4058   -6.4450 H   0  0  0  0  0  0  0  0  0  0  0  0
   -5.1570   -1.1617   -4.4334 H   0  0  0  0  0  0  0  0  0  0  0  0
   -2.6373    1.0398   -1.9288 H   0  0  0  0  0  0  0  0  0  0  0  0
   -1.7155    2.2704   -0.0203 H   0  0  0  0  0  0  0  0  0  0  0  0
   -2.4408    2.9400    2.5391 H   0  0  0  0  0  0  0  0  0  0  0  0
   -2.5754    1.4835    3.5945 H   0  0  0  0  0  0  0  0  0  0  0  0
   -1.0803    1.7532    2.6257 H   0  0  0  0  0  0  0  0  0  0  0  0
   -3.9799   -0.2168    2.6740 H   0  0  0  0  0  0  0  0  0  0  0  0
   -4.8749   -1.4691    0.7583 H   0  0  0  0  0  0  0  0  0  0  0  0
  -12.5196    0.2701   -2.1844 H   0  0  0  0  0  0  0  0  0  0  0  0
  -14.0539    2.0817   -2.8507 H   0  0  0  0  0  0  0  0  0  0  0  0
  -14.4161    4.1700   -4.0410 H   0  0  0  0  0  0  0  0  0  0  0  0
  -13.1195    4.8351   -5.0968 H   0  0  0  0  0  0  0  0  0  0  0  0
  -14.2788    3.6088   -5.7545 H   0  0  0  0  0  0  0  0  0  0  0  0
  -11.3210    3.2384   -5.9799 H   0  0  0  0  0  0  0  0  0  0  0  0
   -9.8049    1.4137   -5.3216 H   0  0  0  0  0  0  0  0  0  0  0  0
  -11.7982   -2.3691   -2.6582 H   0  0  0  0  0  0  0  0  0  0  0  0
  -12.0921   -4.4838   -3.8908 H   0  0  0  0  0  0  0  0  0  0  0  0
  -11.7408   -5.8305   -5.8606 H   0  0  0  0  0  0  0  0  0  0  0  0
   -9.9511   -5.8683   -6.0922 H   0  0  0  0  0  0  0  0  0  0  0  0
  -11.0093   -5.0503   -7.3057 H   0  0  0  0  0  0  0  0  0  0  0  0
   -9.2555   -3.1509   -6.8548 H   0  0  0  0  0  0  0  0  0  0  0  0
   -8.9478   -1.0485   -5.6051 H   0  0  0  0  0  0  0  0  0  0  0  0
   -9.6720    2.8958   -2.7438 H   0  0  0  0  0  0  0  0  0  0  0  0
   -7.8189    3.4098    3.4455 H   0  0  0  0  0  0  0  0  0  0  0  0
   -9.3219    7.7033    0.2225 H   0  0  0  0  0  0  0  0  0  0  0  0
  -11.0000    7.1138    0.5628 H   0  0  0  0  0  0  0  0  0  0  0  0
  -10.0737    8.0010    1.8388 H   0  0  0  0  0  0  0  0  0  0  0  0
  1  2  2  3
  2  3  1  0
  3  4  2  0
  3  5  1  0
  5  6  2  0
  6  7  1  0
  7  8  2  0
  8  9  1  0
  9 10  2  0
 10 11  1  0
 11 12  2  3
 12 13  1  0
 13 14  3  0
 12 15  1  0
 15 16  3  0
  8 17  1  0
 17 18  1  0
 18 19  1  0
 19 20  2  0
 20 21  1  0
 21 22  1  0
 21 23  1  0
  1 24  1  0
 24 25  2  0
 25 26  1  0
 26 27  1  0
 27 28  2  0
 28 29  1  0
 29 30  2  0
 30 31  1  0
 30 32  1  0
 32 33  2  0
 26 34  1  0
 34 35  2  0
 35 36  1  0
 36 37  2  0
 37 38  1  0
 37 39  1  0
 39 40  2  0
 25 41  1  0
 41 42  1  0
 42 43  1  0
 43 44  2  0
 44 45  1  0
 45 46  1  0
 46 47  2  0
 47 48  1  0
 48 49  2  0
 49 50  1  0
 49 51  1  0
 51 52  2  0
 45 53  1  0
 53 54  2  0
 54 55  1  0
 55 56  2  0
 56 57  1  0
 56 58  1  0
 58 59  2  0
 44 60  1  0
 60 61  1  0
 43 62  1  0
 62 63  2  0
 63 64  1  0
 64 65  2  0
 65 66  1  0
 66 67  2  0
 67 68  1  0
 68 69  1  0
 69 70  1  0
 68 71  2  0
 63 72  1  0
 72 73  1  0
 73 74  1  0
 74 75  1  0
 75 76  1  0
 76 77  1  0
 77 78  2  0
 78 79  1  0
 79 80  1  0
 77 81  1  0
 81 82  1  0
 82 83  1  0
 83 84  1  0
 84 85  1  0
 85 86  1  0
 86 87  2  0
 87 88  1  0
 88 89  2  0
 89 90  1  0
 90 91  1  0
 91 92  1  0
 90 93  2  0
 85 94  2  0
 94 95  1  0
 95 96  1  0
 96 97  1  0
 97 98  1  0
 98 99  1  0
 99100  1  0
100101  1  0
101102  1  0
102103  1  0
103104  1  0
101105  1  0
105106  1  0
 98107  1  0
107108  1  0
 94109  1  0
109110  2  0
110111  1  0
111112  1  0
112113  2  0
113114  1  0
114115  2  0
115116  1  0
115117  1  0
117118  2  0
111119  1  0
119120  2  0
120121  1  0
121122  2  0
122123  1  0
122124  1  0
124125  2  0
110126  1  0
126127  1  0
127128  1  0
128129  2  0
129130  1  0
130131  1  0
131132  2  0
132133  1  0
133134  2  0
134135  1  0
134136  1  0
136137  2  0
130138  1  0
138139  2  0
139140  1  0
140141  2  0
141142  1  0
141143  1  0
143144  2  0
129145  1  0
145146  1  0
128147  1  0
147148  2  3
148149  1  0
149150  2  0
149151  1  0
151152  1  0
152153  2  0
153154  1  0
154155  1  0
155156  1  0
152157  1  0
157158  2  3
158159  1  0
159160  3  0
158161  1  0
161162  3  0
 11  2  1  0
 23 17  1  0
 61 24  1  0
104 62  1  0
146109  1  0
157148  1  0
 10  5  1  0
 22 18  1  0
 33 27  1  0
 40 34  1  0
 60 41  2  0
 71 64  1  0
103 72  2  0
118112  1  0
125119  1  0
145126  2  0
155151  2  0
 23  7  1  0
 52 46  1  0
 59 53  1  0
102 74  2  0
137131  1  0
144138  1  0
100 75  2  0
 80 76  2  0
 99 81  2  0
 97 82  2  0
 96 84  2  0
 93 86  1  0
  1163  1  0
  6164  1  0
  9165  1  0
 17166  1  0
 18167  1  0
 19168  1  0
 20169  1  0
 21170  1  0
 22171  1  0
 22172  1  0
 23173  1  0
 28174  1  0
 29175  1  0
 31176  1  0
 31177  1  0
 31178  1  0
 32179  1  0
 33180  1  0
 35181  1  0
 36182  1  0
 38183  1  0
 38184  1  0
 38185  1  0
 39186  1  0
 40187  1  0
 47188  1  0
 48189  1  0
 50190  1  0
 50191  1  0
 50192  1  0
 51193  1  0
 52194  1  0
 54195  1  0
 55196  1  0
 57197  1  0
 57198  1  0
 57199  1  0
 58200  1  0
 59201  1  0
 65202  1  0
 66203  1  0
 67204  1  0
 69205  1  0
 69206  1  0
 70207  1  0
 70208  1  0
 70209  1  0
 71210  1  0
 87211  1  0
 88212  1  0
 89213  1  0
 91214  1  0
 91215  1  0
 92216  1  0
 92217  1  0
 92218  1  0
 93219  1  0
105220  1  0
105221  1  0
106222  1  0
106223  1  0
106224  1  0
107225  1  0
107226  1  0
108227  1  0
108228  1  0
108229  1  0
113230  1  0
114231  1  0
116232  1  0
116233  1  0
116234  1  0
117235  1  0
118236  1  0
120237  1  0
121238  1  0
123239  1  0
123240  1  0
123241  1  0
124242  1  0
125243  1  0
132244  1  0
133245  1  0
135246  1  0
135247  1  0
135248  1  0
136249  1  0
137250  1  0
139251  1  0
140252  1  0
142253  1  0
142254  1  0
142255  1  0
143256  1  0
144257  1  0
147258  1  0
153259  1  0
156260  1  0
156261  1  0
156262  1  0
M  END

