
     RDKit          3D

257284  0  0  0  0  0  0  0  0999 V2000
   -0.3347    7.9139    4.6065 C   0  0  0  0  0  0  0  0  0  0  0  0
   -0.1339    8.1103    3.2761 C   0  0  0  0  0  0  0  0  0  0  0  0
   -0.9661    7.6254    2.1731 C   0  0  0  0  0  0  0  0  0  0  0  0
   -2.1825    7.3154    2.2567 O   0  0  0  0  0  0  0  0  0  0  0  0
   -0.2322    7.6583    0.9325 C   0  0  0  0  0  0  0  0  0  0  0  0
   -0.7175    7.3735   -0.3774 C   0  0  0  0  0  0  0  0  0  0  0  0
    0.2345    7.4851   -1.3791 C   0  0  0  0  0  0  0  0  0  0  0  0
    1.5885    7.8460   -1.0919 C   0  0  0  0  0  0  0  0  0  0  0  0
    2.0382    8.1986    0.1527 C   0  0  0  0  0  0  0  0  0  0  0  0
    1.0859    8.1156    1.1954 C   0  0  0  0  0  0  0  0  0  0  0  0
    1.1642    8.5051    2.6310 C   0  0  0  0  0  0  0  0  0  0  0  0
    2.1879    9.1986    3.1794 C   0  0  0  0  0  0  0  0  0  0  0  0
    3.4863    9.3057    2.5697 C   0  0  0  0  0  0  0  0  0  0  0  0
    4.5504    9.3763    2.0720 N   0  0  0  0  0  0  0  0  0  0  0  0
    2.0498    9.9946    4.4014 C   0  0  0  0  0  0  0  0  0  0  0  0
    1.9430   10.6330    5.3047 N   0  0  0  0  0  0  0  0  0  0  0  0
    1.9717    7.6860   -2.5201 C   0  0  0  0  0  0  0  0  0  0  0  0
    2.3124    8.9993   -3.2512 C   0  0  0  0  0  0  0  0  0  0  0  0
    2.2536    8.6849   -4.7216 C   0  0  0  0  0  0  0  0  0  0  0  0
    0.9604    8.4968   -5.0127 C   0  0  0  0  0  0  0  0  0  0  0  0
    0.1938    8.6684   -3.7220 C   0  0  0  0  0  0  0  0  0  0  0  0
    1.0266    9.7857   -3.1199 C   0  0  0  0  0  0  0  0  0  0  0  0
    0.5522    7.4330   -2.8493 C   0  0  0  0  0  0  0  0  0  0  0  0
   -0.3372    6.5535    5.2037 C   0  0  0  0  0  0  0  0  0  0  0  0
   -1.4053    5.7348    5.6637 C   0  0  0  0  0  0  0  0  0  0  0  0
   -2.7925    6.1195    5.6380 N   0  0  0  0  0  0  0  0  0  0  0  0
   -3.5340    6.5165    6.8064 C   0  0  0  0  0  0  0  0  0  0  0  0
   -4.6004    5.6935    7.1969 C   0  0  0  0  0  0  0  0  0  0  0  0
   -5.7740    6.2730    7.6769 C   0  0  0  0  0  0  0  0  0  0  0  0
   -5.8619    7.6644    7.8494 C   0  0  0  0  0  0  0  0  0  0  0  0
   -7.1697    8.2732    8.2587 C   0  0  0  0  0  0  0  0  0  0  0  0
   -4.7381    8.4703    7.5867 C   0  0  0  0  0  0  0  0  0  0  0  0
   -3.5556    7.8816    7.1229 C   0  0  0  0  0  0  0  0  0  0  0  0
   -3.5792    6.0641    4.4572 C   0  0  0  0  0  0  0  0  0  0  0  0
   -3.7316    4.8722    3.7367 C   0  0  0  0  0  0  0  0  0  0  0  0
   -4.6664    4.8124    2.6908 C   0  0  0  0  0  0  0  0  0  0  0  0
   -5.4463    5.9242    2.3498 C   0  0  0  0  0  0  0  0  0  0  0  0
   -6.4663    5.8791    1.2650 C   0  0  0  0  0  0  0  0  0  0  0  0
   -5.3193    7.1033    3.1032 C   0  0  0  0  0  0  0  0  0  0  0  0
   -4.3814    7.1619    4.1198 C   0  0  0  0  0  0  0  0  0  0  0  0
   -0.9384    4.5821    6.3528 C   0  0  0  0  0  0  0  0  0  0  0  0
   -1.5785    3.0522    6.7737 S   0  0  0  0  0  0  0  0  0  0  0  0
   -0.1038    2.3474    7.2932 C   0  0  0  0  0  0  0  0  0  0  0  0
    0.8825    3.3350    7.1501 C   0  0  0  0  0  0  0  0  0  0  0  0
    2.2270    3.1089    7.6232 N   0  0  0  0  0  0  0  0  0  0  0  0
    2.3809    2.6018    8.9564 C   0  0  0  0  0  0  0  0  0  0  0  0
    1.7772    3.2737   10.0270 C   0  0  0  0  0  0  0  0  0  0  0  0
    1.8212    2.7332   11.3138 C   0  0  0  0  0  0  0  0  0  0  0  0
    2.4442    1.4992   11.5448 C   0  0  0  0  0  0  0  0  0  0  0  0
    2.5501    0.9717   12.9405 C   0  0  0  0  0  0  0  0  0  0  0  0
    3.0277    0.8101   10.4724 C   0  0  0  0  0  0  0  0  0  0  0  0
    2.9919    1.3585    9.1845 C   0  0  0  0  0  0  0  0  0  0  0  0
    3.3789    3.4713    6.8471 C   0  0  0  0  0  0  0  0  0  0  0  0
    3.7371    4.8191    6.7185 C   0  0  0  0  0  0  0  0  0  0  0  0
    4.5669    5.2225    5.6705 C   0  0  0  0  0  0  0  0  0  0  0  0
    5.2043    4.2870    4.8785 C   0  0  0  0  0  0  0  0  0  0  0  0
    6.1330    4.7517    3.8028 C   0  0  0  0  0  0  0  0  0  0  0  0
    5.0017    2.9155    5.1318 C   0  0  0  0  0  0  0  0  0  0  0  0
    4.0759    2.5063    6.0858 C   0  0  0  0  0  0  0  0  0  0  0  0
    0.3988    4.5181    6.5606 C   0  0  0  0  0  0  0  0  0  0  0  0
    1.0816    5.8677    5.8215 S   0  0  0  0  0  0  0  0  0  0  0  0
    0.3125    0.9267    7.2045 C   0  0  0  0  0  0  0  0  0  0  0  0
   -0.0468   -0.2439    7.9241 C   0  0  0  0  0  0  0  0  0  0  0  0
   -1.3539   -0.3378    8.5663 C   0  0  0  0  0  0  0  0  0  0  0  0
   -1.5551   -0.7877    9.8812 C   0  0  0  0  0  0  0  0  0  0  0  0
   -2.8660   -0.8633   10.3931 C   0  0  0  0  0  0  0  0  0  0  0  0
   -3.9654   -0.5161    9.5995 C   0  0  0  0  0  0  0  0  0  0  0  0
   -3.7668   -0.1019    8.2798 C   0  0  0  0  0  0  0  0  0  0  0  0
   -4.8900    0.2657    7.3536 C   0  0  0  0  0  0  0  0  0  0  0  0
   -5.1007    1.7818    7.3038 C   0  0  0  0  0  0  0  0  0  0  0  0
   -2.4587   -0.0086    7.7939 C   0  0  0  0  0  0  0  0  0  0  0  0
    0.6261   -1.3843    7.4153 C   0  0  0  0  0  0  0  0  0  0  0  0
    0.3916   -3.0928    7.5393 S   0  0  0  0  0  0  0  0  0  0  0  0
    1.3710   -3.4594    6.1723 C   0  0  0  0  0  0  0  0  0  0  0  0
    1.3350   -4.4184    5.1882 C   0  0  0  0  0  0  0  0  0  0  0  0
    0.8636   -5.7550    5.2351 C   0  0  0  0  0  0  0  0  0  0  0  0
    0.5012   -6.3696    4.0341 C   0  0  0  0  0  0  0  0  0  0  0  0
    0.1284   -7.6877    4.1081 N   0  0  0  0  0  0  0  0  0  0  0  0
    0.3322   -7.9545    5.7343 S   0  0  0  0  0  0  0  0  0  0  0  0
    0.8346   -6.4976    6.3635 N   0  0  0  0  0  0  0  0  0  0  0  0
    0.6244   -5.6907    2.8075 C   0  0  0  0  0  0  0  0  0  0  0  0
    0.2979   -6.0229    1.5095 C   0  0  0  0  0  0  0  0  0  0  0  0
   -0.5400   -7.2188    0.6176 S   0  0  0  0  0  0  0  0  0  0  0  0
   -0.0377   -6.5859   -0.9073 C   0  0  0  0  0  0  0  0  0  0  0  0
   -0.2972   -6.9275   -2.2479 C   0  0  0  0  0  0  0  0  0  0  0  0
   -1.5852   -7.4483   -2.6449 C   0  0  0  0  0  0  0  0  0  0  0  0
   -1.7859   -8.7463   -3.1286 C   0  0  0  0  0  0  0  0  0  0  0  0
   -3.0380   -9.0953   -3.6489 C   0  0  0  0  0  0  0  0  0  0  0  0
   -4.0671   -8.1386   -3.7040 C   0  0  0  0  0  0  0  0  0  0  0  0
   -3.8714   -6.8513   -3.2288 C   0  0  0  0  0  0  0  0  0  0  0  0
   -4.9414   -5.7934   -3.3084 C   0  0  0  0  0  0  0  0  0  0  0  0
   -5.4511   -5.4075   -1.9191 C   0  0  0  0  0  0  0  0  0  0  0  0
   -2.6202   -6.5213   -2.7004 C   0  0  0  0  0  0  0  0  0  0  0  0
    0.5004   -6.2115   -3.1500 C   0  0  0  0  0  0  0  0  0  0  0  0
    1.3637   -5.0362   -2.2363 S   0  0  0  0  0  0  0  0  0  0  0  0
    0.7774   -5.5241   -0.7042 C   0  0  0  0  0  0  0  0  0  0  0  0
    0.8857   -5.1389    0.6695 C   0  0  0  0  0  0  0  0  0  0  0  0
    1.5652   -4.1781    1.3809 N   0  0  0  0  0  0  0  0  0  0  0  0
    1.3310   -4.4593    2.7261 C   0  0  0  0  0  0  0  0  0  0  0  0
    1.6362   -3.7755    3.9431 C   0  0  0  0  0  0  0  0  0  0  0  0
    1.8907   -2.4569    4.2515 N   0  0  0  0  0  0  0  0  0  0  0  0
    1.7478   -2.2947    5.5733 C   0  0  0  0  0  0  0  0  0  0  0  0
    1.3916   -1.1531    6.3188 C   0  0  0  0  0  0  0  0  0  0  0  0
    1.3272    0.4719    5.9522 S   0  0  0  0  0  0  0  0  0  0  0  0
    2.2455   -1.3483    3.3510 C   0  0  0  0  0  0  0  0  0  0  0  0
    3.7635   -1.0997    3.4474 C   0  0  0  0  0  0  0  0  0  0  0  0
    2.6198   -3.3847    0.7684 C   0  0  0  0  0  0  0  0  0  0  0  0
    3.7791   -4.2691    0.3425 C   0  0  0  0  0  0  0  0  0  0  0  0
    0.4776   -6.2859   -4.6405 C   0  0  0  0  0  0  0  0  0  0  0  0
    1.5626   -6.4741   -5.5705 C   0  0  0  0  0  0  0  0  0  0  0  0
    2.7363   -7.2396   -5.2114 N   0  0  0  0  0  0  0  0  0  0  0  0
    2.5804   -8.4608   -4.4555 C   0  0  0  0  0  0  0  0  0  0  0  0
    2.3150   -9.6715   -5.1264 C   0  0  0  0  0  0  0  0  0  0  0  0
    1.9657  -10.8141   -4.3895 C   0  0  0  0  0  0  0  0  0  0  0  0
    1.8542  -10.7518   -3.0041 C   0  0  0  0  0  0  0  0  0  0  0  0
    1.3345  -11.9362   -2.2369 C   0  0  0  0  0  0  0  0  0  0  0  0
    2.1794   -9.5471   -2.3300 C   0  0  0  0  0  0  0  0  0  0  0  0
    2.5866   -8.4166   -3.0387 C   0  0  0  0  0  0  0  0  0  0  0  0
    4.1083   -6.7820   -5.4368 C   0  0  0  0  0  0  0  0  0  0  0  0
    4.5527   -5.5763   -4.8911 C   0  0  0  0  0  0  0  0  0  0  0  0
    5.8921   -5.1800   -5.0299 C   0  0  0  0  0  0  0  0  0  0  0  0
    6.8030   -5.9922   -5.7429 C   0  0  0  0  0  0  0  0  0  0  0  0
    8.2206   -5.5457   -5.9521 C   0  0  0  0  0  0  0  0  0  0  0  0
    6.3756   -7.2358   -6.2057 C   0  0  0  0  0  0  0  0  0  0  0  0
    5.0397   -7.6338   -6.0580 C   0  0  0  0  0  0  0  0  0  0  0  0
    1.1857   -6.0891   -6.9343 C   0  0  0  0  0  0  0  0  0  0  0  0
    2.0258   -5.7216   -8.3636 S   0  0  0  0  0  0  0  0  0  0  0  0
    0.7682   -4.7704   -9.1647 C   0  0  0  0  0  0  0  0  0  0  0  0
   -0.2315   -4.5588   -8.1609 C   0  0  0  0  0  0  0  0  0  0  0  0
   -0.7422   -3.1734   -7.7980 N   0  0  0  0  0  0  0  0  0  0  0  0
   -1.4146   -2.1323   -8.5649 C   0  0  0  0  0  0  0  0  0  0  0  0
   -1.6902   -0.8685   -7.8376 C   0  0  0  0  0  0  0  0  0  0  0  0
   -2.1998    0.2262   -8.5512 C   0  0  0  0  0  0  0  0  0  0  0  0
   -2.6090    0.1321   -9.8383 C   0  0  0  0  0  0  0  0  0  0  0  0
   -3.1418    1.3363  -10.5587 C   0  0  0  0  0  0  0  0  0  0  0  0
   -2.4003   -1.0944  -10.4897 C   0  0  0  0  0  0  0  0  0  0  0  0
   -1.8268   -2.3089   -9.8949 C   0  0  0  0  0  0  0  0  0  0  0  0
   -0.1896   -2.7476   -6.5976 C   0  0  0  0  0  0  0  0  0  0  0  0
   -0.9297   -2.8165   -5.4250 C   0  0  0  0  0  0  0  0  0  0  0  0
   -0.5126   -2.2012   -4.2851 C   0  0  0  0  0  0  0  0  0  0  0  0
    0.6027   -1.3612   -4.3732 C   0  0  0  0  0  0  0  0  0  0  0  0
    1.0776   -0.6814   -3.1566 C   0  0  0  0  0  0  0  0  0  0  0  0
    1.2759   -1.1599   -5.6050 C   0  0  0  0  0  0  0  0  0  0  0  0
    0.9314   -1.9371   -6.6692 C   0  0  0  0  0  0  0  0  0  0  0  0
   -0.0375   -5.4370   -7.0587 C   0  0  0  0  0  0  0  0  0  0  0  0
   -0.8049   -5.6579   -5.5510 S   0  0  0  0  0  0  0  0  0  0  0  0
    1.2264   -3.6650  -10.0632 C   0  0  0  0  0  0  0  0  0  0  0  0
    1.5023   -3.6084  -11.4211 C   0  0  0  0  0  0  0  0  0  0  0  0
    2.6954   -2.3693  -12.0274 S   0  0  0  0  0  0  0  0  0  0  0  0
    3.0370   -3.5203  -13.3348 C   0  0  0  0  0  0  0  0  0  0  0  0
    4.5865   -4.0717  -13.5422 S   0  0  0  0  0  0  0  0  0  0  0  0
    1.9254   -4.3528  -13.6865 N   0  0  0  0  0  0  0  0  0  0  0  0
    1.8431   -5.0964  -14.9432 C   0  0  0  0  0  0  0  0  0  0  0  0
    2.2241   -6.5658  -14.7393 C   0  0  0  0  0  0  0  0  0  0  0  0
    0.9952   -4.3663  -12.5611 C   0  0  0  0  0  0  0  0  0  0  0  0
   -0.1541   -4.8164  -12.5864 O   0  0  0  0  0  0  0  0  0  0  0  0
    0.2057    8.5889    5.2562 H   0  0  0  0  0  0  0  0  0  0  0  0
   -1.7486    7.0894   -0.5925 H   0  0  0  0  0  0  0  0  0  0  0  0
    3.0376    8.5332    0.2821 H   0  0  0  0  0  0  0  0  0  0  0  0
    2.6430    6.8304   -2.7228 H   0  0  0  0  0  0  0  0  0  0  0  0
    3.2414    9.5055   -2.9109 H   0  0  0  0  0  0  0  0  0  0  0  0
    3.0822    8.6555   -5.4230 H   0  0  0  0  0  0  0  0  0  0  0  0
    0.5484    8.2794   -5.9946 H   0  0  0  0  0  0  0  0  0  0  0  0
   -0.8889    8.8912   -3.8431 H   0  0  0  0  0  0  0  0  0  0  0  0
    0.7601   10.0333   -2.0559 H   0  0  0  0  0  0  0  0  0  0  0  0
    1.0385   10.7111   -3.7334 H   0  0  0  0  0  0  0  0  0  0  0  0
    0.3714    6.4526   -3.3268 H   0  0  0  0  0  0  0  0  0  0  0  0
   -4.5990    4.6478    6.9496 H   0  0  0  0  0  0  0  0  0  0  0  0
   -6.6560    5.6449    7.8195 H   0  0  0  0  0  0  0  0  0  0  0  0
   -7.1062    9.3797    8.2489 H   0  0  0  0  0  0  0  0  0  0  0  0
   -7.4363    7.9222    9.2801 H   0  0  0  0  0  0  0  0  0  0  0  0
   -7.9677    7.9560    7.5475 H   0  0  0  0  0  0  0  0  0  0  0  0
   -4.7728    9.5533    7.6708 H   0  0  0  0  0  0  0  0  0  0  0  0
   -2.7390    8.5192    6.8149 H   0  0  0  0  0  0  0  0  0  0  0  0
   -3.1666    4.0072    4.0234 H   0  0  0  0  0  0  0  0  0  0  0  0
   -4.8025    3.8783    2.1549 H   0  0  0  0  0  0  0  0  0  0  0  0
   -6.3390    6.7660    0.6087 H   0  0  0  0  0  0  0  0  0  0  0  0
   -6.3551    4.9622    0.6435 H   0  0  0  0  0  0  0  0  0  0  0  0
   -7.4890    5.9163    1.7066 H   0  0  0  0  0  0  0  0  0  0  0  0
   -5.9504    7.9629    2.8815 H   0  0  0  0  0  0  0  0  0  0  0  0
   -4.2923    8.1113    4.6555 H   0  0  0  0  0  0  0  0  0  0  0  0
    1.2648    4.2035    9.8487 H   0  0  0  0  0  0  0  0  0  0  0  0
    1.3488    3.2625   12.1317 H   0  0  0  0  0  0  0  0  0  0  0  0
    3.4773    1.3740   13.4010 H   0  0  0  0  0  0  0  0  0  0  0  0
    1.6749    1.2885   13.5570 H   0  0  0  0  0  0  0  0  0  0  0  0
    2.6065   -0.1388   12.9369 H   0  0  0  0  0  0  0  0  0  0  0  0
    3.4917   -0.1593   10.6416 H   0  0  0  0  0  0  0  0  0  0  0  0
    3.4012    0.7866    8.3661 H   0  0  0  0  0  0  0  0  0  0  0  0
    3.2597    5.5391    7.3660 H   0  0  0  0  0  0  0  0  0  0  0  0
    4.6986    6.2879    5.4726 H   0  0  0  0  0  0  0  0  0  0  0  0
    5.5727    5.4065    3.0964 H   0  0  0  0  0  0  0  0  0  0  0  0
    6.5755    3.9102    3.2362 H   0  0  0  0  0  0  0  0  0  0  0  0
    6.9585    5.3439    4.2610 H   0  0  0  0  0  0  0  0  0  0  0  0
    5.5356    2.1625    4.5726 H   0  0  0  0  0  0  0  0  0  0  0  0
    3.8992    1.4472    6.2049 H   0  0  0  0  0  0  0  0  0  0  0  0
   -0.7211   -1.0727   10.5030 H   0  0  0  0  0  0  0  0  0  0  0  0
   -3.0119   -1.2033   11.4185 H   0  0  0  0  0  0  0  0  0  0  0  0
   -4.9773   -0.5759   10.0119 H   0  0  0  0  0  0  0  0  0  0  0  0
   -5.8244   -0.2615    7.6466 H   0  0  0  0  0  0  0  0  0  0  0  0
   -4.6115   -0.0792    6.3337 H   0  0  0  0  0  0  0  0  0  0  0  0
   -6.0146    2.0510    7.8617 H   0  0  0  0  0  0  0  0  0  0  0  0
   -5.2258    2.1283    6.2526 H   0  0  0  0  0  0  0  0  0  0  0  0
   -4.2295    2.3250    7.7307 H   0  0  0  0  0  0  0  0  0  0  0  0
   -2.3036    0.3047    6.7676 H   0  0  0  0  0  0  0  0  0  0  0  0
   -0.9692   -9.4630   -3.1087 H   0  0  0  0  0  0  0  0  0  0  0  0
   -3.1805  -10.1008   -4.0247 H   0  0  0  0  0  0  0  0  0  0  0  0
   -5.0242   -8.4149   -4.1362 H   0  0  0  0  0  0  0  0  0  0  0  0
   -5.7919   -6.1532   -3.9250 H   0  0  0  0  0  0  0  0  0  0  0  0
   -4.5197   -4.8886   -3.8123 H   0  0  0  0  0  0  0  0  0  0  0  0
   -5.9104   -4.3987   -1.9671 H   0  0  0  0  0  0  0  0  0  0  0  0
   -6.2241   -6.1313   -1.5719 H   0  0  0  0  0  0  0  0  0  0  0  0
   -4.6205   -5.3545   -1.1811 H   0  0  0  0  0  0  0  0  0  0  0  0
   -2.4340   -5.5042   -2.3531 H   0  0  0  0  0  0  0  0  0  0  0  0
    1.7409   -0.4160    3.6356 H   0  0  0  0  0  0  0  0  0  0  0  0
    1.8229   -1.4651    2.3390 H   0  0  0  0  0  0  0  0  0  0  0  0
    3.9765   -0.3162    4.2218 H   0  0  0  0  0  0  0  0  0  0  0  0
    4.2984   -2.0173    3.7720 H   0  0  0  0  0  0  0  0  0  0  0  0
    4.1801   -0.7641    2.4683 H   0  0  0  0  0  0  0  0  0  0  0  0
    3.1191   -2.6777    1.4458 H   0  0  0  0  0  0  0  0  0  0  0  0
    2.1974   -2.8504   -0.1133 H   0  0  0  0  0  0  0  0  0  0  0  0
    4.3454   -3.7788   -0.4828 H   0  0  0  0  0  0  0  0  0  0  0  0
    3.4361   -5.2792    0.0068 H   0  0  0  0  0  0  0  0  0  0  0  0
    4.4851   -4.4047    1.1966 H   0  0  0  0  0  0  0  0  0  0  0  0
    2.4013   -9.6895   -6.2188 H   0  0  0  0  0  0  0  0  0  0  0  0
    1.7351  -11.7540   -4.8397 H   0  0  0  0  0  0  0  0  0  0  0  0
    0.3671  -12.3113   -2.6411 H   0  0  0  0  0  0  0  0  0  0  0  0
    1.1461  -11.6914   -1.1651 H   0  0  0  0  0  0  0  0  0  0  0  0
    2.0803  -12.7465   -2.2582 H   0  0  0  0  0  0  0  0  0  0  0  0
    2.0572   -9.5131   -1.2463 H   0  0  0  0  0  0  0  0  0  0  0  0
    2.8844   -7.5159   -2.4887 H   0  0  0  0  0  0  0  0  0  0  0  0
    3.8961   -4.9550   -4.2935 H   0  0  0  0  0  0  0  0  0  0  0  0
    6.2259   -4.2401   -4.6223 H   0  0  0  0  0  0  0  0  0  0  0  0
    8.6644   -6.0610   -6.8375 H   0  0  0  0  0  0  0  0  0  0  0  0
    8.2838   -4.4460   -6.1303 H   0  0  0  0  0  0  0  0  0  0  0  0
    8.8430   -5.8059   -5.0671 H   0  0  0  0  0  0  0  0  0  0  0  0
    7.0965   -7.8718   -6.7138 H   0  0  0  0  0  0  0  0  0  0  0  0
    4.7341   -8.6093   -6.3979 H   0  0  0  0  0  0  0  0  0  0  0  0
   -2.2716   -0.6826   -6.9027 H   0  0  0  0  0  0  0  0  0  0  0  0
   -2.3076    1.1317   -8.0011 H   0  0  0  0  0  0  0  0  0  0  0  0
   -3.1359    2.2581   -9.9277 H   0  0  0  0  0  0  0  0  0  0  0  0
   -4.2010    1.1421  -10.7679 H   0  0  0  0  0  0  0  0  0  0  0  0
   -2.6126    1.6423  -11.4980 H   0  0  0  0  0  0  0  0  0  0  0  0
   -2.6785   -0.9974  -11.5605 H   0  0  0  0  0  0  0  0  0  0  0  0
   -1.6859   -3.2179  -10.4122 H   0  0  0  0  0  0  0  0  0  0  0  0
   -1.8812   -3.3414   -5.4668 H   0  0  0  0  0  0  0  0  0  0  0  0
   -1.0883   -2.3454   -3.3872 H   0  0  0  0  0  0  0  0  0  0  0  0
    1.9439   -0.0327   -3.3844 H   0  0  0  0  0  0  0  0  0  0  0  0
    0.2416   -0.0717   -2.7867 H   0  0  0  0  0  0  0  0  0  0  0  0
    1.3505   -1.4371   -2.3902 H   0  0  0  0  0  0  0  0  0  0  0  0
    2.0352   -0.4158   -5.7311 H   0  0  0  0  0  0  0  0  0  0  0  0
    1.3507   -1.7394   -7.6596 H   0  0  0  0  0  0  0  0  0  0  0  0
    1.8682   -2.9620   -9.5165 H   0  0  0  0  0  0  0  0  0  0  0  0
    0.8285   -5.0209  -15.3863 H   0  0  0  0  0  0  0  0  0  0  0  0
    2.5774   -4.6796  -15.6935 H   0  0  0  0  0  0  0  0  0  0  0  0
    3.2169   -6.8000  -15.1954 H   0  0  0  0  0  0  0  0  0  0  0  0
    1.4870   -7.2397  -15.2215 H   0  0  0  0  0  0  0  0  0  0  0  0
    2.2700   -6.8241  -13.6544 H   0  0  0  0  0  0  0  0  0  0  0  0
  1  2  2  3
  2  3  1  0
  3  4  2  0
  3  5  1  0
  5  6  2  0
  6  7  1  0
  7  8  2  0
  8  9  1  0
  9 10  2  0
 10 11  1  0
 11 12  2  3
 12 13  1  0
 13 14  3  0
 12 15  1  0
 15 16  3  0
  8 17  1  0
 17 18  1  0
 18 19  1  0
 19 20  2  0
 20 21  1  0
 21 22  1  0
 21 23  1  0
  1 24  1  0
 24 25  2  0
 25 26  1  0
 26 27  1  0
 27 28  2  0
 28 29  1  0
 29 30  2  0
 30 31  1  0
 30 32  1  0
 32 33  2  0
 26 34  1  0
 34 35  2  0
 35 36  1  0
 36 37  2  0
 37 38  1  0
 37 39  1  0
 39 40  2  0
 25 41  1  0
 41 42  1  0
 42 43  1  0
 43 44  2  0
 44 45  1  0
 45 46  1  0
 46 47  2  0
 47 48  1  0
 48 49  2  0
 49 50  1  0
 49 51  1  0
 51 52  2  0
 45 53  1  0
 53 54  2  0
 54 55  1  0
 55 56  2  0
 56 57  1  0
 56 58  1  0
 58 59  2  0
 44 60  1  0
 60 61  1  0
 43 62  1  0
 62 63  2  0
 63 64  1  0
 64 65  2  0
 65 66  1  0
 66 67  2  0
 67 68  1  0
 68 69  1  0
 69 70  1  0
 68 71  2  0
 63 72  1  0
 72 73  1  0
 73 74  1  0
 74 75  1  0
 75 76  1  0
 76 77  1  0
 77 78  2  0
 78 79  1  0
 79 80  1  0
 77 81  1  0
 81 82  1  0
 82 83  1  0
 83 84  1  0
 84 85  1  0
 85 86  1  0
 86 87  2  0
 87 88  1  0
 88 89  2  0
 89 90  1  0
 90 91  1  0
 91 92  1  0
 90 93  2  0
 85 94  2  0
 94 95  1  0
 95 96  1  0
 96 97  1  0
 97 98  1  0
 98 99  1  0
 99100  1  0
100101  1  0
101102  1  0
102103  1  0
103104  1  0
101105  1  0
105106  1  0
 98107  1  0
107108  1  0
 94109  1  0
109110  2  0
110111  1  0
111112  1  0
112113  2  0
113114  1  0
114115  2  0
115116  1  0
115117  1  0
117118  2  0
111119  1  0
119120  2  0
120121  1  0
121122  2  0
122123  1  0
122124  1  0
124125  2  0
110126  1  0
126127  1  0
127128  1  0
128129  2  0
129130  1  0
130131  1  0
131132  2  0
132133  1  0
133134  2  0
134135  1  0
134136  1  0
136137  2  0
130138  1  0
138139  2  0
139140  1  0
140141  2  0
141142  1  0
141143  1  0
143144  2  0
129145  1  0
145146  1  0
128147  1  0
147148  2  3
148149  1  0
149150  1  0
150151  2  0
150152  1  0
152153  1  0
153154  1  0
152155  1  0
155156  2  0
 11  2  1  0
 23 17  1  0
 61 24  1  0
104 62  1  0
146109  1  0
155148  1  0
 10  5  1  0
 22 18  1  0
 33 27  1  0
 40 34  1  0
 60 41  2  0
 71 64  1  0
103 72  2  0
118112  1  0
125119  1  0
145126  2  0
 23  7  1  0
 52 46  1  0
 59 53  1  0
102 74  2  0
137131  1  0
144138  1  0
100 75  2  0
 80 76  2  0
 99 81  2  0
 97 82  2  0
 96 84  2  0
 93 86  1  0
  1157  1  0
  6158  1  0
  9159  1  0
 17160  1  0
 18161  1  0
 19162  1  0
 20163  1  0
 21164  1  0
 22165  1  0
 22166  1  0
 23167  1  0
 28168  1  0
 29169  1  0
 31170  1  0
 31171  1  0
 31172  1  0
 32173  1  0
 33174  1  0
 35175  1  0
 36176  1  0
 38177  1  0
 38178  1  0
 38179  1  0
 39180  1  0
 40181  1  0
 47182  1  0
 48183  1  0
 50184  1  0
 50185  1  0
 50186  1  0
 51187  1  0
 52188  1  0
 54189  1  0
 55190  1  0
 57191  1  0
 57192  1  0
 57193  1  0
 58194  1  0
 59195  1  0
 65196  1  0
 66197  1  0
 67198  1  0
 69199  1  0
 69200  1  0
 70201  1  0
 70202  1  0
 70203  1  0
 71204  1  0
 87205  1  0
 88206  1  0
 89207  1  0
 91208  1  0
 91209  1  0
 92210  1  0
 92211  1  0
 92212  1  0
 93213  1  0
105214  1  0
105215  1  0
106216  1  0
106217  1  0
106218  1  0
107219  1  0
107220  1  0
108221  1  0
108222  1  0
108223  1  0
113224  1  0
114225  1  0
116226  1  0
116227  1  0
116228  1  0
117229  1  0
118230  1  0
120231  1  0
121232  1  0
123233  1  0
123234  1  0
123235  1  0
124236  1  0
125237  1  0
132238  1  0
133239  1  0
135240  1  0
135241  1  0
135242  1  0
136243  1  0
137244  1  0
139245  1  0
140246  1  0
142247  1  0
142248  1  0
142249  1  0
143250  1  0
144251  1  0
147252  1  0
153253  1  0
153254  1  0
154255  1  0
154256  1  0
154257  1  0
M  END

