
     RDKit          3D

209232  0  0  0  0  0  0  0  0999 V2000
   -3.5418   -0.6925   -6.3202 C   0  0  0  0  0  0  0  0  0  0  0  0
   -2.4675   -0.2649   -7.0028 C   0  0  0  0  0  0  0  0  0  0  0  0
   -1.6598    0.8923   -6.6175 C   0  0  0  0  0  0  0  0  0  0  0  0
   -2.0859    1.9525   -6.0783 O   0  0  0  0  0  0  0  0  0  0  0  0
   -0.2746    0.6116   -6.9079 C   0  0  0  0  0  0  0  0  0  0  0  0
    0.8537    1.3519   -6.4787 C   0  0  0  0  0  0  0  0  0  0  0  0
    2.0550    0.7285   -6.7496 C   0  0  0  0  0  0  0  0  0  0  0  0
    2.1542   -0.5495   -7.3865 C   0  0  0  0  0  0  0  0  0  0  0  0
    1.0568   -1.2716   -7.8152 C   0  0  0  0  0  0  0  0  0  0  0  0
   -0.1945   -0.6379   -7.5773 C   0  0  0  0  0  0  0  0  0  0  0  0
   -1.5775   -1.1532   -7.8041 C   0  0  0  0  0  0  0  0  0  0  0  0
   -1.9761   -2.1173   -8.6651 C   0  0  0  0  0  0  0  0  0  0  0  0
   -1.0443   -2.9650   -9.3584 C   0  0  0  0  0  0  0  0  0  0  0  0
   -0.3024   -3.6724   -9.9089 N   0  0  0  0  0  0  0  0  0  0  0  0
   -3.3686   -2.3521   -8.9458 C   0  0  0  0  0  0  0  0  0  0  0  0
   -4.4867   -2.5335   -9.1980 N   0  0  0  0  0  0  0  0  0  0  0  0
    3.6483   -0.5215   -7.2450 C   0  0  0  0  0  0  0  0  0  0  0  0
    4.4611   -0.2322   -8.5374 C   0  0  0  0  0  0  0  0  0  0  0  0
    5.8561    0.1197   -8.0718 C   0  0  0  0  0  0  0  0  0  0  0  0
    5.7679    1.3154   -7.4717 C   0  0  0  0  0  0  0  0  0  0  0  0
    4.3201    1.7262   -7.5677 C   0  0  0  0  0  0  0  0  0  0  0  0
    3.9921    1.1547   -8.9374 C   0  0  0  0  0  0  0  0  0  0  0  0
    3.5505    0.7900   -6.6000 C   0  0  0  0  0  0  0  0  0  0  0  0
   -3.8541   -0.1455   -4.9959 C   0  0  0  0  0  0  0  0  0  0  0  0
   -4.9732    0.6309   -4.6454 C   0  0  0  0  0  0  0  0  0  0  0  0
   -6.0786    0.9053   -5.5337 N   0  0  0  0  0  0  0  0  0  0  0  0
   -6.6003    2.2422   -5.6279 C   0  0  0  0  0  0  0  0  0  0  0  0
   -5.7273    3.3421   -5.7149 C   0  0  0  0  0  0  0  0  0  0  0  0
   -6.2369    4.6422   -5.7522 C   0  0  0  0  0  0  0  0  0  0  0  0
   -7.6264    4.8581   -5.7155 C   0  0  0  0  0  0  0  0  0  0  0  0
   -8.1627    6.2663   -5.7234 C   0  0  0  0  0  0  0  0  0  0  0  0
   -8.4969    3.7599   -5.6429 C   0  0  0  0  0  0  0  0  0  0  0  0
   -7.9854    2.4592   -5.6007 C   0  0  0  0  0  0  0  0  0  0  0  0
   -6.6374   -0.1653   -6.3248 C   0  0  0  0  0  0  0  0  0  0  0  0
   -6.8119   -1.4497   -5.7728 C   0  0  0  0  0  0  0  0  0  0  0  0
   -7.2904   -2.4997   -6.5566 C   0  0  0  0  0  0  0  0  0  0  0  0
   -7.6237   -2.2848   -7.9007 C   0  0  0  0  0  0  0  0  0  0  0  0
   -8.0750   -3.4402   -8.7480 C   0  0  0  0  0  0  0  0  0  0  0  0
   -7.4807   -1.0050   -8.4471 C   0  0  0  0  0  0  0  0  0  0  0  0
   -6.9927    0.0472   -7.6645 C   0  0  0  0  0  0  0  0  0  0  0  0
   -4.8016    1.1941   -3.3722 C   0  0  0  0  0  0  0  0  0  0  0  0
   -5.5948    2.3491   -2.4356 S   0  0  0  0  0  0  0  0  0  0  0  0
   -4.3651    2.4622   -1.2541 C   0  0  0  0  0  0  0  0  0  0  0  0
   -3.3306    1.5746   -1.6088 C   0  0  0  0  0  0  0  0  0  0  0  0
   -2.0301    1.5193   -1.0000 N   0  0  0  0  0  0  0  0  0  0  0  0
   -0.9687    2.4003   -1.4546 C   0  0  0  0  0  0  0  0  0  0  0  0
    0.1619    2.6171   -0.6482 C   0  0  0  0  0  0  0  0  0  0  0  0
    1.2041    3.4469   -1.0803 C   0  0  0  0  0  0  0  0  0  0  0  0
    1.1279    4.0837   -2.3297 C   0  0  0  0  0  0  0  0  0  0  0  0
    2.2706    4.9133   -2.8338 C   0  0  0  0  0  0  0  0  0  0  0  0
   -0.0021    3.8776   -3.1399 C   0  0  0  0  0  0  0  0  0  0  0  0
   -1.0438    3.0574   -2.7004 C   0  0  0  0  0  0  0  0  0  0  0  0
   -1.7205    0.3648   -0.1969 C   0  0  0  0  0  0  0  0  0  0  0  0
   -0.6405   -0.4676   -0.5413 C   0  0  0  0  0  0  0  0  0  0  0  0
   -0.3215   -1.5775    0.2450 C   0  0  0  0  0  0  0  0  0  0  0  0
   -1.0929   -1.8830    1.3765 C   0  0  0  0  0  0  0  0  0  0  0  0
   -0.7229   -3.0470    2.2466 C   0  0  0  0  0  0  0  0  0  0  0  0
   -2.1751   -1.0586    1.7193 C   0  0  0  0  0  0  0  0  0  0  0  0
   -2.4907    0.0546    0.9313 C   0  0  0  0  0  0  0  0  0  0  0  0
   -3.6321    0.8728   -2.7639 C   0  0  0  0  0  0  0  0  0  0  0  0
   -2.7171   -0.1327   -3.7283 S   0  0  0  0  0  0  0  0  0  0  0  0
   -4.3562    3.3492   -0.0668 C   0  0  0  0  0  0  0  0  0  0  0  0
   -5.3101    3.3412    0.9753 C   0  0  0  0  0  0  0  0  0  0  0  0
   -6.7001    2.8486    0.8677 C   0  0  0  0  0  0  0  0  0  0  0  0
   -7.5693    3.4397   -0.0628 C   0  0  0  0  0  0  0  0  0  0  0  0
   -8.9123    3.0606   -0.1116 C   0  0  0  0  0  0  0  0  0  0  0  0
   -9.4096    2.1221    0.7947 C   0  0  0  0  0  0  0  0  0  0  0  0
   -8.5626    1.5486    1.7559 C   0  0  0  0  0  0  0  0  0  0  0  0
   -9.1056    0.5619    2.7534 C   0  0  0  0  0  0  0  0  0  0  0  0
   -9.1504   -0.8374    2.1552 C   0  0  0  0  0  0  0  0  0  0  0  0
   -7.1992    1.8861    1.7634 C   0  0  0  0  0  0  0  0  0  0  0  0
   -4.7610    3.8584    2.1626 C   0  0  0  0  0  0  0  0  0  0  0  0
   -5.1216    3.5331    3.7996 S   0  0  0  0  0  0  0  0  0  0  0  0
   -3.5918    4.0566    4.3151 C   0  0  0  0  0  0  0  0  0  0  0  0
   -2.7298    3.5646    5.2666 C   0  0  0  0  0  0  0  0  0  0  0  0
   -2.9584    2.9390    6.4951 C   0  0  0  0  0  0  0  0  0  0  0  0
   -1.8490    2.3934    7.2082 C   0  0  0  0  0  0  0  0  0  0  0  0
   -2.1118    1.7808    8.3894 N   0  0  0  0  0  0  0  0  0  0  0  0
   -3.7523    2.0156    8.4590 S   0  0  0  0  0  0  0  0  0  0  0  0
   -4.1755    2.8256    7.0803 N   0  0  0  0  0  0  0  0  0  0  0  0
   -0.5787    2.4343    6.6141 C   0  0  0  0  0  0  0  0  0  0  0  0
    0.5460    1.7055    6.8901 C   0  0  0  0  0  0  0  0  0  0  0  0
    0.9704    0.4288    7.9329 S   0  0  0  0  0  0  0  0  0  0  0  0
    2.2572   -0.0231    6.9018 C   0  0  0  0  0  0  0  0  0  0  0  0
    3.1900   -1.0623    6.9185 C   0  0  0  0  0  0  0  0  0  0  0  0
    3.3522   -1.9954    8.0439 C   0  0  0  0  0  0  0  0  0  0  0  0
    4.5464   -2.0032    8.7809 C   0  0  0  0  0  0  0  0  0  0  0  0
    4.6863   -2.8368    9.8956 C   0  0  0  0  0  0  0  0  0  0  0  0
    3.6362   -3.6734   10.2751 C   0  0  0  0  0  0  0  0  0  0  0  0
    2.4420   -3.6964    9.5278 C   0  0  0  0  0  0  0  0  0  0  0  0
    1.3132   -4.6028    9.9404 C   0  0  0  0  0  0  0  0  0  0  0  0
    0.3333   -3.8634   10.8533 C   0  0  0  0  0  0  0  0  0  0  0  0
    2.2984   -2.8406    8.4250 C   0  0  0  0  0  0  0  0  0  0  0  0
    3.9570   -1.0591    5.7425 C   0  0  0  0  0  0  0  0  0  0  0  0
    3.4646    0.2093    4.7168 S   0  0  0  0  0  0  0  0  0  0  0  0
    2.2984    0.7708    5.7837 C   0  0  0  0  0  0  0  0  0  0  0  0
    1.3315    1.7657    5.7839 C   0  0  0  0  0  0  0  0  0  0  0  0
    0.7879    2.4974    4.7825 N   0  0  0  0  0  0  0  0  0  0  0  0
   -0.3728    2.9850    5.3369 C   0  0  0  0  0  0  0  0  0  0  0  0
   -1.4486    3.6617    4.7101 C   0  0  0  0  0  0  0  0  0  0  0  0
   -1.4951    4.2696    3.4922 N   0  0  0  0  0  0  0  0  0  0  0  0
   -2.8143    4.4449    3.2586 C   0  0  0  0  0  0  0  0  0  0  0  0
   -3.4818    4.3369    2.0543 C   0  0  0  0  0  0  0  0  0  0  0  0
   -2.9240    4.0610    0.5113 S   0  0  0  0  0  0  0  0  0  0  0  0
   -0.4279    5.0498    2.8485 C   0  0  0  0  0  0  0  0  0  0  0  0
   -0.7658    6.5425    2.7987 C   0  0  0  0  0  0  0  0  0  0  0  0
    1.1111    2.2795    3.3685 C   0  0  0  0  0  0  0  0  0  0  0  0
    2.4097    2.9840    2.9658 C   0  0  0  0  0  0  0  0  0  0  0  0
    4.9820   -2.0344    5.3436 C   0  0  0  0  0  0  0  0  0  0  0  0
    6.3319   -1.7840    5.5730 C   0  0  0  0  0  0  0  0  0  0  0  0
    6.8922   -0.8435    6.3515 N   0  0  0  0  0  0  0  0  0  0  0  0
    8.1966   -1.0234    6.2096 N   0  0  0  0  0  0  0  0  0  0  0  0
    9.1941   -0.2930    6.9830 C   0  0  0  0  0  0  0  0  0  0  0  0
    9.8202   -1.2101    8.0328 C   0  0  0  0  0  0  0  0  0  0  0  0
    8.5012   -2.0081    5.3723 N   0  0  0  0  0  0  0  0  0  0  0  0
    7.3190   -2.4947    4.9663 C   0  0  0  0  0  0  0  0  0  0  0  0
    7.0481   -3.4976    4.0373 C   0  0  0  0  0  0  0  0  0  0  0  0
    5.6884   -3.8655    3.8747 C   0  0  0  0  0  0  0  0  0  0  0  0
    4.6638   -3.1246    4.5051 C   0  0  0  0  0  0  0  0  0  0  0  0
    3.3644   -3.4123    4.2416 F   0  0  0  0  0  0  0  0  0  0  0  0
    5.3384   -4.9134    3.0728 F   0  0  0  0  0  0  0  0  0  0  0  0
    8.1282   -3.9573    3.1233 C   0  0  0  0  0  0  0  0  0  0  0  0
    8.0605   -3.8012    1.7875 C   0  0  0  0  0  0  0  0  0  0  0  0
    6.5586   -3.4056    0.8646 S   0  0  0  0  0  0  0  0  0  0  0  0
    7.4199   -3.9002   -0.6293 C   0  0  0  0  0  0  0  0  0  0  0  0
    6.6079   -4.7119   -1.8033 S   0  0  0  0  0  0  0  0  0  0  0  0
    8.8426   -3.9977   -0.4929 N   0  0  0  0  0  0  0  0  0  0  0  0
    9.7902   -4.0504   -1.6126 C   0  0  0  0  0  0  0  0  0  0  0  0
   10.4802   -5.4110   -1.6857 C   0  0  0  0  0  0  0  0  0  0  0  0
    9.1999   -3.9762    0.8839 C   0  0  0  0  0  0  0  0  0  0  0  0
   10.4040   -3.9779    1.2733 O   0  0  0  0  0  0  0  0  0  0  0  0
   -3.9898   -1.6460   -6.5466 H   0  0  0  0  0  0  0  0  0  0  0  0
    0.7818    2.2890   -5.9502 H   0  0  0  0  0  0  0  0  0  0  0  0
    1.1732   -2.2440   -8.2633 H   0  0  0  0  0  0  0  0  0  0  0  0
    4.0491   -1.3437   -6.6083 H   0  0  0  0  0  0  0  0  0  0  0  0
    4.4092   -1.0111   -9.3299 H   0  0  0  0  0  0  0  0  0  0  0  0
    6.7737   -0.4294   -8.2676 H   0  0  0  0  0  0  0  0  0  0  0  0
    6.6017    1.9050   -7.1051 H   0  0  0  0  0  0  0  0  0  0  0  0
    4.1278    2.8143   -7.4271 H   0  0  0  0  0  0  0  0  0  0  0  0
    2.9100    1.2172   -9.2051 H   0  0  0  0  0  0  0  0  0  0  0  0
    4.5965    1.6186   -9.7584 H   0  0  0  0  0  0  0  0  0  0  0  0
    3.8800    0.8148   -5.5398 H   0  0  0  0  0  0  0  0  0  0  0  0
   -4.6569    3.1920   -5.7446 H   0  0  0  0  0  0  0  0  0  0  0  0
   -5.5559    5.4817   -5.8113 H   0  0  0  0  0  0  0  0  0  0  0  0
   -7.8361    6.7834   -4.7958 H   0  0  0  0  0  0  0  0  0  0  0  0
   -7.7623    6.8138   -6.5991 H   0  0  0  0  0  0  0  0  0  0  0  0
   -9.2697    6.2766   -5.7648 H   0  0  0  0  0  0  0  0  0  0  0  0
   -9.5694    3.9059   -5.6078 H   0  0  0  0  0  0  0  0  0  0  0  0
   -8.6692    1.6265   -5.5233 H   0  0  0  0  0  0  0  0  0  0  0  0
   -6.5785   -1.6353   -4.7251 H   0  0  0  0  0  0  0  0  0  0  0  0
   -7.3959   -3.4834   -6.1162 H   0  0  0  0  0  0  0  0  0  0  0  0
   -7.1997   -4.0713   -9.0224 H   0  0  0  0  0  0  0  0  0  0  0  0
   -8.5699   -3.0862   -9.6792 H   0  0  0  0  0  0  0  0  0  0  0  0
   -8.8028   -4.0657   -8.1883 H   0  0  0  0  0  0  0  0  0  0  0  0
   -7.7114   -0.8264   -9.4935 H   0  0  0  0  0  0  0  0  0  0  0  0
   -6.8605    1.0242   -8.1163 H   0  0  0  0  0  0  0  0  0  0  0  0
    0.2431    2.1520    0.3231 H   0  0  0  0  0  0  0  0  0  0  0  0
    2.0730    3.5810   -0.4478 H   0  0  0  0  0  0  0  0  0  0  0  0
    1.8872    5.8366   -3.3229 H   0  0  0  0  0  0  0  0  0  0  0  0
    2.8542    4.3288   -3.5758 H   0  0  0  0  0  0  0  0  0  0  0  0
    2.9449    5.2182   -2.0067 H   0  0  0  0  0  0  0  0  0  0  0  0
   -0.0608    4.3420   -4.1131 H   0  0  0  0  0  0  0  0  0  0  0  0
   -1.8931    2.9247   -3.3533 H   0  0  0  0  0  0  0  0  0  0  0  0
   -0.0385   -0.2495   -1.4162 H   0  0  0  0  0  0  0  0  0  0  0  0
    0.5286   -2.1922   -0.0271 H   0  0  0  0  0  0  0  0  0  0  0  0
   -0.2091   -3.8369    1.6615 H   0  0  0  0  0  0  0  0  0  0  0  0
   -1.6352   -3.5005    2.6975 H   0  0  0  0  0  0  0  0  0  0  0  0
   -0.0505   -2.7020    3.0609 H   0  0  0  0  0  0  0  0  0  0  0  0
   -2.7672   -1.2720    2.6011 H   0  0  0  0  0  0  0  0  0  0  0  0
   -3.3229    0.6886    1.2154 H   0  0  0  0  0  0  0  0  0  0  0  0
   -7.2129    4.2065   -0.7393 H   0  0  0  0  0  0  0  0  0  0  0  0
   -9.5765    3.5076   -0.8445 H   0  0  0  0  0  0  0  0  0  0  0  0
  -10.4600    1.8480    0.7545 H   0  0  0  0  0  0  0  0  0  0  0  0
  -10.1313    0.8658    3.0636 H   0  0  0  0  0  0  0  0  0  0  0  0
   -8.4773    0.5522    3.6690 H   0  0  0  0  0  0  0  0  0  0  0  0
   -8.1412   -1.1394    1.8049 H   0  0  0  0  0  0  0  0  0  0  0  0
   -9.8638   -0.8671    1.3045 H   0  0  0  0  0  0  0  0  0  0  0  0
   -9.4907   -1.5604    2.9299 H   0  0  0  0  0  0  0  0  0  0  0  0
   -6.5360    1.4168    2.4760 H   0  0  0  0  0  0  0  0  0  0  0  0
    5.3603   -1.3399    8.5153 H   0  0  0  0  0  0  0  0  0  0  0  0
    5.6024   -2.8178   10.4754 H   0  0  0  0  0  0  0  0  0  0  0  0
    3.7494   -4.3067   11.1473 H   0  0  0  0  0  0  0  0  0  0  0  0
    0.7695   -4.9647    9.0387 H   0  0  0  0  0  0  0  0  0  0  0  0
    1.7090   -5.4924   10.4733 H   0  0  0  0  0  0  0  0  0  0  0  0
    0.8608   -3.4979   11.7627 H   0  0  0  0  0  0  0  0  0  0  0  0
   -0.4743   -4.5611   11.1636 H   0  0  0  0  0  0  0  0  0  0  0  0
   -0.1172   -3.0029   10.3166 H   0  0  0  0  0  0  0  0  0  0  0  0
    1.3711   -2.8326    7.8607 H   0  0  0  0  0  0  0  0  0  0  0  0
   -0.2664    4.6832    1.8129 H   0  0  0  0  0  0  0  0  0  0  0  0
    0.5086    4.9585    3.4262 H   0  0  0  0  0  0  0  0  0  0  0  0
    0.1091    7.1044    2.4024 H   0  0  0  0  0  0  0  0  0  0  0  0
   -1.0024    6.9100    3.8222 H   0  0  0  0  0  0  0  0  0  0  0  0
   -1.6399    6.7210    2.1350 H   0  0  0  0  0  0  0  0  0  0  0  0
    1.2149    1.1908    3.1869 H   0  0  0  0  0  0  0  0  0  0  0  0
    0.2732    2.5765    2.7073 H   0  0  0  0  0  0  0  0  0  0  0  0
    3.0143    3.2653    3.8564 H   0  0  0  0  0  0  0  0  0  0  0  0
    3.0202    2.2999    2.3340 H   0  0  0  0  0  0  0  0  0  0  0  0
    2.2016    3.8977    2.3726 H   0  0  0  0  0  0  0  0  0  0  0  0
    8.7237    0.5759    7.4991 H   0  0  0  0  0  0  0  0  0  0  0  0
    9.9932    0.0893    6.3058 H   0  0  0  0  0  0  0  0  0  0  0  0
   10.5457   -0.6406    8.6469 H   0  0  0  0  0  0  0  0  0  0  0  0
   10.3462   -2.0513    7.5309 H   0  0  0  0  0  0  0  0  0  0  0  0
    9.0240   -1.6254    8.6917 H   0  0  0  0  0  0  0  0  0  0  0  0
    9.0980   -4.1820    3.5636 H   0  0  0  0  0  0  0  0  0  0  0  0
    9.2575   -3.8723   -2.5788 H   0  0  0  0  0  0  0  0  0  0  0  0
   10.5570   -3.2564   -1.4821 H   0  0  0  0  0  0  0  0  0  0  0  0
   11.1716   -5.4189   -2.5595 H   0  0  0  0  0  0  0  0  0  0  0  0
   11.0827   -5.6020   -0.7684 H   0  0  0  0  0  0  0  0  0  0  0  0
    9.7282   -6.2222   -1.8117 H   0  0  0  0  0  0  0  0  0  0  0  0
  1  2  2  3
  2  3  1  0
  3  4  2  0
  3  5  1  0
  5  6  2  0
  6  7  1  0
  7  8  2  0
  8  9  1  0
  9 10  2  0
 10 11  1  0
 11 12  2  3
 12 13  1  0
 13 14  3  0
 12 15  1  0
 15 16  3  0
  8 17  1  0
 17 18  1  0
 18 19  1  0
 19 20  2  0
 20 21  1  0
 21 22  1  0
 21 23  1  0
  1 24  1  0
 24 25  2  0
 25 26  1  0
 26 27  1  0
 27 28  2  0
 28 29  1  0
 29 30  2  0
 30 31  1  0
 30 32  1  0
 32 33  2  0
 26 34  1  0
 34 35  2  0
 35 36  1  0
 36 37  2  0
 37 38  1  0
 37 39  1  0
 39 40  2  0
 25 41  1  0
 41 42  1  0
 42 43  1  0
 43 44  2  0
 44 45  1  0
 45 46  1  0
 46 47  2  0
 47 48  1  0
 48 49  2  0
 49 50  1  0
 49 51  1  0
 51 52  2  0
 45 53  1  0
 53 54  2  0
 54 55  1  0
 55 56  2  0
 56 57  1  0
 56 58  1  0
 58 59  2  0
 44 60  1  0
 60 61  1  0
 43 62  1  0
 62 63  2  0
 63 64  1  0
 64 65  2  0
 65 66  1  0
 66 67  2  0
 67 68  1  0
 68 69  1  0
 69 70  1  0
 68 71  2  0
 63 72  1  0
 72 73  1  0
 73 74  1  0
 74 75  1  0
 75 76  1  0
 76 77  1  0
 77 78  2  0
 78 79  1  0
 79 80  1  0
 77 81  1  0
 81 82  1  0
 82 83  1  0
 83 84  1  0
 84 85  1  0
 85 86  1  0
 86 87  2  0
 87 88  1  0
 88 89  2  0
 89 90  1  0
 90 91  1  0
 91 92  1  0
 90 93  2  0
 85 94  2  0
 94 95  1  0
 95 96  1  0
 96 97  1  0
 97 98  1  0
 98 99  1  0
 99100  1  0
100101  1  0
101102  1  0
102103  1  0
103104  1  0
101105  1  0
105106  1  0
 98107  1  0
107108  1  0
 94109  1  0
109110  1  0
110111  2  0
111112  1  0
112113  1  0
113114  1  0
112115  1  0
115116  2  0
116117  1  0
117118  2  0
118119  1  0
119120  1  0
118121  1  0
117122  1  0
122123  2  3
123124  1  0
124125  1  0
125126  2  0
125127  1  0
127128  1  0
128129  1  0
127130  1  0
130131  2  0
 11  2  1  0
 23 17  1  0
 61 24  1  0
104 62  1  0
119109  2  0
130123  1  0
 10  5  1  0
 22 18  1  0
 33 27  1  0
 40 34  1  0
 60 41  2  0
 71 64  1  0
103 72  2  0
116110  1  0
 23  7  1  0
 52 46  1  0
 59 53  1  0
102 74  2  0
100 75  2  0
 80 76  2  0
 99 81  2  0
 97 82  2  0
 96 84  2  0
 93 86  1  0
  1132  1  0
  6133  1  0
  9134  1  0
 17135  1  0
 18136  1  0
 19137  1  0
 20138  1  0
 21139  1  0
 22140  1  0
 22141  1  0
 23142  1  0
 28143  1  0
 29144  1  0
 31145  1  0
 31146  1  0
 31147  1  0
 32148  1  0
 33149  1  0
 35150  1  0
 36151  1  0
 38152  1  0
 38153  1  0
 38154  1  0
 39155  1  0
 40156  1  0
 47157  1  0
 48158  1  0
 50159  1  0
 50160  1  0
 50161  1  0
 51162  1  0
 52163  1  0
 54164  1  0
 55165  1  0
 57166  1  0
 57167  1  0
 57168  1  0
 58169  1  0
 59170  1  0
 65171  1  0
 66172  1  0
 67173  1  0
 69174  1  0
 69175  1  0
 70176  1  0
 70177  1  0
 70178  1  0
 71179  1  0
 87180  1  0
 88181  1  0
 89182  1  0
 91183  1  0
 91184  1  0
 92185  1  0
 92186  1  0
 92187  1  0
 93188  1  0
105189  1  0
105190  1  0
106191  1  0
106192  1  0
106193  1  0
107194  1  0
107195  1  0
108196  1  0
108197  1  0
108198  1  0
113199  1  0
113200  1  0
114201  1  0
114202  1  0
114203  1  0
122204  1  0
128205  1  0
128206  1  0
129207  1  0
129208  1  0
129209  1  0
M  END

