
     RDKit          3D

260289  0  0  0  0  0  0  0  0999 V2000
   -2.1221   -6.6089   -1.4077 C   0  0  0  0  0  0  0  0  0  0  0  0
   -1.6079   -6.3314   -0.1896 C   0  0  0  0  0  0  0  0  0  0  0  0
   -1.9224   -5.1333    0.6069 C   0  0  0  0  0  0  0  0  0  0  0  0
   -2.8185   -4.2812    0.3735 O   0  0  0  0  0  0  0  0  0  0  0  0
   -0.9724   -5.0194    1.6841 C   0  0  0  0  0  0  0  0  0  0  0  0
   -0.9354   -4.0017    2.6649 C   0  0  0  0  0  0  0  0  0  0  0  0
    0.0551   -4.1678    3.6083 C   0  0  0  0  0  0  0  0  0  0  0  0
    0.9596   -5.2739    3.6002 C   0  0  0  0  0  0  0  0  0  0  0  0
    0.9342   -6.2745    2.6374 C   0  0  0  0  0  0  0  0  0  0  0  0
   -0.0693   -6.1139    1.6358 C   0  0  0  0  0  0  0  0  0  0  0  0
   -0.4297   -6.9897    0.4739 C   0  0  0  0  0  0  0  0  0  0  0  0
    0.1476   -8.1772    0.1344 C   0  0  0  0  0  0  0  0  0  0  0  0
   -0.4249   -9.0788   -0.8298 C   0  0  0  0  0  0  0  0  0  0  0  0
   -0.8777   -9.8124   -1.6003 N   0  0  0  0  0  0  0  0  0  0  0  0
    1.3627   -8.6546    0.7384 C   0  0  0  0  0  0  0  0  0  0  0  0
    2.3463   -9.0502    1.2035 N   0  0  0  0  0  0  0  0  0  0  0  0
    1.6069   -4.7708    4.8543 C   0  0  0  0  0  0  0  0  0  0  0  0
    1.2521   -5.5298    6.1669 C   0  0  0  0  0  0  0  0  0  0  0  0
    1.6938   -4.6325    7.2962 C   0  0  0  0  0  0  0  0  0  0  0  0
    0.8556   -3.5893    7.3003 C   0  0  0  0  0  0  0  0  0  0  0  0
   -0.1213   -3.8223    6.1763 C   0  0  0  0  0  0  0  0  0  0  0  0
   -0.2500   -5.3294    6.2885 C   0  0  0  0  0  0  0  0  0  0  0  0
    0.6834   -3.6327    4.8584 C   0  0  0  0  0  0  0  0  0  0  0  0
   -3.2586   -5.8821   -1.9912 C   0  0  0  0  0  0  0  0  0  0  0  0
   -3.1865   -5.0511   -3.1179 C   0  0  0  0  0  0  0  0  0  0  0  0
   -2.0118   -4.9012   -3.9309 N   0  0  0  0  0  0  0  0  0  0  0  0
   -1.2622   -3.6648   -3.9018 C   0  0  0  0  0  0  0  0  0  0  0  0
   -1.1809   -2.9042   -2.7193 C   0  0  0  0  0  0  0  0  0  0  0  0
   -0.4259   -1.7290   -2.6810 C   0  0  0  0  0  0  0  0  0  0  0  0
    0.2713   -1.2999   -3.8203 C   0  0  0  0  0  0  0  0  0  0  0  0
    1.0683   -0.0310   -3.7806 C   0  0  0  0  0  0  0  0  0  0  0  0
    0.1710   -2.0373   -5.0079 C   0  0  0  0  0  0  0  0  0  0  0  0
   -0.5900   -3.2093   -5.0499 C   0  0  0  0  0  0  0  0  0  0  0  0
   -1.5487   -6.0462   -4.6784 C   0  0  0  0  0  0  0  0  0  0  0  0
   -2.4665   -6.8771   -5.3473 C   0  0  0  0  0  0  0  0  0  0  0  0
   -2.0263   -8.0123   -6.0304 C   0  0  0  0  0  0  0  0  0  0  0  0
   -0.6619   -8.3350   -6.0627 C   0  0  0  0  0  0  0  0  0  0  0  0
   -0.2002   -9.5830   -6.7546 C   0  0  0  0  0  0  0  0  0  0  0  0
    0.2541   -7.5211   -5.3790 C   0  0  0  0  0  0  0  0  0  0  0  0
   -0.1855   -6.3840   -4.6966 C   0  0  0  0  0  0  0  0  0  0  0  0
   -4.3578   -4.3171   -3.2742 C   0  0  0  0  0  0  0  0  0  0  0  0
   -4.8045   -2.9929   -4.1916 S   0  0  0  0  0  0  0  0  0  0  0  0
   -6.2881   -2.7117   -3.3755 C   0  0  0  0  0  0  0  0  0  0  0  0
   -6.4107   -3.6993   -2.3658 C   0  0  0  0  0  0  0  0  0  0  0  0
   -7.4592   -3.8099   -1.3861 N   0  0  0  0  0  0  0  0  0  0  0  0
   -7.1486   -3.3603   -0.0450 C   0  0  0  0  0  0  0  0  0  0  0  0
   -6.6882   -2.0518    0.1810 C   0  0  0  0  0  0  0  0  0  0  0  0
   -6.3906   -1.6139    1.4734 C   0  0  0  0  0  0  0  0  0  0  0  0
   -6.5103   -2.4900    2.5610 C   0  0  0  0  0  0  0  0  0  0  0  0
   -6.2465   -2.0016    3.9557 C   0  0  0  0  0  0  0  0  0  0  0  0
   -6.9316   -3.8084    2.3405 C   0  0  0  0  0  0  0  0  0  0  0  0
   -7.2328   -4.2442    1.0463 C   0  0  0  0  0  0  0  0  0  0  0  0
   -8.5598   -4.7321   -1.6354 C   0  0  0  0  0  0  0  0  0  0  0  0
   -9.6880   -4.7562   -0.7903 C   0  0  0  0  0  0  0  0  0  0  0  0
  -10.7666   -5.6049   -1.0566 C   0  0  0  0  0  0  0  0  0  0  0  0
  -10.7552   -6.4332   -2.1821 C   0  0  0  0  0  0  0  0  0  0  0  0
  -11.9184   -7.3348   -2.4702 C   0  0  0  0  0  0  0  0  0  0  0  0
   -9.6253   -6.4506   -3.0104 C   0  0  0  0  0  0  0  0  0  0  0  0
   -8.5469   -5.6054   -2.7479 C   0  0  0  0  0  0  0  0  0  0  0  0
   -5.3197   -4.5660   -2.3566 C   0  0  0  0  0  0  0  0  0  0  0  0
   -4.7952   -5.7288   -1.2661 S   0  0  0  0  0  0  0  0  0  0  0  0
   -6.9388   -1.3781   -3.4081 C   0  0  0  0  0  0  0  0  0  0  0  0
   -8.1317   -0.9946   -2.7500 C   0  0  0  0  0  0  0  0  0  0  0  0
   -9.3792   -1.7964   -2.7606 C   0  0  0  0  0  0  0  0  0  0  0  0
   -9.7040   -2.5503   -3.9024 C   0  0  0  0  0  0  0  0  0  0  0  0
  -10.9421   -3.1891   -3.9980 C   0  0  0  0  0  0  0  0  0  0  0  0
  -11.8698   -3.0865   -2.9625 C   0  0  0  0  0  0  0  0  0  0  0  0
  -11.5487   -2.3704   -1.7999 C   0  0  0  0  0  0  0  0  0  0  0  0
  -12.5233   -2.2932   -0.6583 C   0  0  0  0  0  0  0  0  0  0  0  0
  -13.3520   -1.0174   -0.7380 C   0  0  0  0  0  0  0  0  0  0  0  0
  -10.3073   -1.7193   -1.7083 C   0  0  0  0  0  0  0  0  0  0  0  0
   -8.1139    0.3754   -2.4291 C   0  0  0  0  0  0  0  0  0  0  0  0
   -8.6312    1.1471   -0.9899 S   0  0  0  0  0  0  0  0  0  0  0  0
   -7.5073    2.4032   -1.1503 C   0  0  0  0  0  0  0  0  0  0  0  0
   -6.7464    3.1385   -0.2664 C   0  0  0  0  0  0  0  0  0  0  0  0
   -6.9409    3.4767    1.0782 C   0  0  0  0  0  0  0  0  0  0  0  0
   -5.8903    4.1476    1.7796 C   0  0  0  0  0  0  0  0  0  0  0  0
   -6.1156    4.4484    3.0837 N   0  0  0  0  0  0  0  0  0  0  0  0
   -7.6527    3.8505    3.2466 S   0  0  0  0  0  0  0  0  0  0  0  0
   -8.0743    3.2115    1.7762 N   0  0  0  0  0  0  0  0  0  0  0  0
   -4.6776    4.3861    1.1142 C   0  0  0  0  0  0  0  0  0  0  0  0
   -3.4459    4.7347    1.6019 C   0  0  0  0  0  0  0  0  0  0  0  0
   -2.7180    4.9117    3.1289 S   0  0  0  0  0  0  0  0  0  0  0  0
   -1.1550    4.6984    2.4710 C   0  0  0  0  0  0  0  0  0  0  0  0
    0.1375    4.5813    3.0156 C   0  0  0  0  0  0  0  0  0  0  0  0
    0.4566    4.7056    4.4583 C   0  0  0  0  0  0  0  0  0  0  0  0
    1.3599    3.8131    5.0592 C   0  0  0  0  0  0  0  0  0  0  0  0
    1.6346    3.8950    6.4255 C   0  0  0  0  0  0  0  0  0  0  0  0
    1.0066    4.8621    7.2101 C   0  0  0  0  0  0  0  0  0  0  0  0
    0.1100    5.7715    6.6271 C   0  0  0  0  0  0  0  0  0  0  0  0
   -0.6130    6.7745    7.4815 C   0  0  0  0  0  0  0  0  0  0  0  0
   -1.9597    6.2209    7.9361 C   0  0  0  0  0  0  0  0  0  0  0  0
   -0.1653    5.6850    5.2506 C   0  0  0  0  0  0  0  0  0  0  0  0
    1.0593    4.2135    2.0064 C   0  0  0  0  0  0  0  0  0  0  0  0
    0.2577    4.0228    0.5224 S   0  0  0  0  0  0  0  0  0  0  0  0
   -1.2408    4.4295    1.1279 C   0  0  0  0  0  0  0  0  0  0  0  0
   -2.5367    4.4546    0.6319 C   0  0  0  0  0  0  0  0  0  0  0  0
   -3.1003    3.9211   -0.4826 N   0  0  0  0  0  0  0  0  0  0  0  0
   -4.4498    3.9518   -0.2062 C   0  0  0  0  0  0  0  0  0  0  0  0
   -5.5403    3.3965   -0.9306 C   0  0  0  0  0  0  0  0  0  0  0  0
   -5.5723    2.8958   -2.1994 N   0  0  0  0  0  0  0  0  0  0  0  0
   -6.7514    2.2417   -2.2674 C   0  0  0  0  0  0  0  0  0  0  0  0
   -7.0522    1.0773   -2.9527 C   0  0  0  0  0  0  0  0  0  0  0  0
   -6.0029    0.0095   -3.6860 S   0  0  0  0  0  0  0  0  0  0  0  0
   -4.8515    3.4013   -3.3762 C   0  0  0  0  0  0  0  0  0  0  0  0
   -5.8008    4.0203   -4.3999 C   0  0  0  0  0  0  0  0  0  0  0  0
   -2.3928    3.0015   -1.3871 C   0  0  0  0  0  0  0  0  0  0  0  0
   -1.5839    3.7474   -2.4515 C   0  0  0  0  0  0  0  0  0  0  0  0
    2.5126    4.0485    2.1094 C   0  0  0  0  0  0  0  0  0  0  0  0
    3.4170    5.0945    1.9249 C   0  0  0  0  0  0  0  0  0  0  0  0
    4.6632    4.6710    1.4257 C   0  0  0  0  0  0  0  0  0  0  0  0
    5.7136    5.5121    1.0018 C   0  0  0  0  0  0  0  0  0  0  0  0
    5.7826    6.9294    1.4255 C   0  0  0  0  0  0  0  0  0  0  0  0
    5.6116    7.3573    2.7477 C   0  0  0  0  0  0  0  0  0  0  0  0
    5.8930    8.7179    2.9108 C   0  0  0  0  0  0  0  0  0  0  0  0
    5.8794    9.4158    4.1193 C   0  0  0  0  0  0  0  0  0  0  0  0
    6.2475   10.7777    4.1276 C   0  0  0  0  0  0  0  0  0  0  0  0
    6.2950   11.5283    5.4289 C   0  0  0  0  0  0  0  0  0  0  0  0
    7.6163   11.2824    6.1533 C   0  0  0  0  0  0  0  0  0  0  0  0
    6.6273   11.4093    2.9195 C   0  0  0  0  0  0  0  0  0  0  0  0
    6.6273   10.6960    1.7112 C   0  0  0  0  0  0  0  0  0  0  0  0
    6.2563    9.3553    1.7375 C   0  0  0  0  0  0  0  0  0  0  0  0
    6.2595    8.2476    0.4745 S   0  0  0  0  0  0  0  0  0  0  0  0
    6.7491    4.9012    0.2661 C   0  0  0  0  0  0  0  0  0  0  0  0
    6.8119    3.5204    0.0572 C   0  0  0  0  0  0  0  0  0  0  0  0
    5.8387    2.6628    0.6125 C   0  0  0  0  0  0  0  0  0  0  0  0
    6.0373    1.1932    0.6451 C   0  0  0  0  0  0  0  0  0  0  0  0
    4.8482   -0.0007    0.4313 S   0  0  0  0  0  0  0  0  0  0  0  0
    5.8475   -1.2899    0.8289 C   0  0  0  0  0  0  0  0  0  0  0  0
    5.5233   -2.6383    0.9098 C   0  0  0  0  0  0  0  0  0  0  0  0
    6.5280   -3.5417    1.2865 C   0  0  0  0  0  0  0  0  0  0  0  0
    7.8395   -3.0858    1.5580 C   0  0  0  0  0  0  0  0  0  0  0  0
    8.9212   -4.0577    1.9402 C   0  0  0  0  0  0  0  0  0  0  0  0
    9.1684   -4.0357    3.4464 C   0  0  0  0  0  0  0  0  0  0  0  0
    8.1305   -1.7045    1.4815 C   0  0  0  0  0  0  0  0  0  0  0  0
    7.1143   -0.8172    1.1217 C   0  0  0  0  0  0  0  0  0  0  0  0
    7.2328    0.5724    1.0279 C   0  0  0  0  0  0  0  0  0  0  0  0
    4.7407    3.2860    1.2354 C   0  0  0  0  0  0  0  0  0  0  0  0
    3.2712    2.6051    1.6859 S   0  0  0  0  0  0  0  0  0  0  0  0
    7.8624    3.1335   -0.7907 C   0  0  0  0  0  0  0  0  0  0  0  0
    8.6443    4.2026   -1.2245 C   0  0  0  0  0  0  0  0  0  0  0  0
    8.0197    5.6239   -0.5673 S   0  0  0  0  0  0  0  0  0  0  0  0
    9.6532    4.1707   -2.3470 C   0  0  0  0  0  0  0  0  0  0  0  0
   10.5856    2.9911   -2.1978 C   0  0  0  0  0  0  0  0  0  0  0  0
   10.3186    1.8187   -2.7765 C   0  0  0  0  0  0  0  0  0  0  0  0
    9.1648    1.7079   -3.6848 C   0  0  0  0  0  0  0  0  0  0  0  0
    8.3554    0.6232   -3.7115 C   0  0  0  0  0  0  0  0  0  0  0  0
    7.0151    0.4352   -4.7061 S   0  0  0  0  0  0  0  0  0  0  0  0
    6.5056   -1.0401   -4.0575 C   0  0  0  0  0  0  0  0  0  0  0  0
    5.3668   -1.6595   -4.4746 C   0  0  0  0  0  0  0  0  0  0  0  0
    4.5992   -1.1124   -5.5694 C   0  0  0  0  0  0  0  0  0  0  0  0
    3.9769   -0.7048   -6.4575 N   0  0  0  0  0  0  0  0  0  0  0  0
    4.8647   -2.8956   -3.9450 C   0  0  0  0  0  0  0  0  0  0  0  0
    4.4496   -3.8950   -3.5347 N   0  0  0  0  0  0  0  0  0  0  0  0
    7.3726   -1.4208   -3.0616 N   0  0  0  0  0  0  0  0  0  0  0  0
    7.2884   -2.6330   -2.2304 C   0  0  0  0  0  0  0  0  0  0  0  0
    7.8389   -3.8509   -2.9662 C   0  0  0  0  0  0  0  0  0  0  0  0
    8.3789   -0.5035   -2.8714 C   0  0  0  0  0  0  0  0  0  0  0  0
    9.2505   -0.6628   -1.9712 O   0  0  0  0  0  0  0  0  0  0  0  0
    8.9251    2.9228   -4.5503 C   0  0  0  0  0  0  0  0  0  0  0  0
    8.9340    4.2333   -3.7331 C   0  0  0  0  0  0  0  0  0  0  0  0
   -1.6417   -7.3169   -2.0599 H   0  0  0  0  0  0  0  0  0  0  0  0
   -1.6267   -3.1706    2.6882 H   0  0  0  0  0  0  0  0  0  0  0  0
    1.6277   -7.0951    2.6960 H   0  0  0  0  0  0  0  0  0  0  0  0
    2.6782   -4.4937    4.7267 H   0  0  0  0  0  0  0  0  0  0  0  0
    1.6099   -6.5789    6.2211 H   0  0  0  0  0  0  0  0  0  0  0  0
    2.4709   -4.8315    8.0287 H   0  0  0  0  0  0  0  0  0  0  0  0
    0.8326   -2.7904    8.0338 H   0  0  0  0  0  0  0  0  0  0  0  0
   -1.0681   -3.2477    6.2471 H   0  0  0  0  0  0  0  0  0  0  0  0
   -0.8458   -5.7929    5.4722 H   0  0  0  0  0  0  0  0  0  0  0  0
   -0.6632   -5.6713    7.2685 H   0  0  0  0  0  0  0  0  0  0  0  0
    1.1645   -2.6384    4.7334 H   0  0  0  0  0  0  0  0  0  0  0  0
   -1.6892   -3.2222   -1.8200 H   0  0  0  0  0  0  0  0  0  0  0  0
   -0.3742   -1.1578   -1.7625 H   0  0  0  0  0  0  0  0  0  0  0  0
    1.4709    0.1460   -2.7609 H   0  0  0  0  0  0  0  0  0  0  0  0
    0.4216    0.8234   -4.0693 H   0  0  0  0  0  0  0  0  0  0  0  0
    1.9268   -0.0904   -4.4810 H   0  0  0  0  0  0  0  0  0  0  0  0
    0.6867   -1.7069   -5.9005 H   0  0  0  0  0  0  0  0  0  0  0  0
   -0.6570   -3.7593   -5.9801 H   0  0  0  0  0  0  0  0  0  0  0  0
   -3.5242   -6.6443   -5.3361 H   0  0  0  0  0  0  0  0  0  0  0  0
   -2.7501   -8.6439   -6.5287 H   0  0  0  0  0  0  0  0  0  0  0  0
   -0.2116  -10.4282   -6.0357 H   0  0  0  0  0  0  0  0  0  0  0  0
    0.8313   -9.4523   -7.1465 H   0  0  0  0  0  0  0  0  0  0  0  0
   -0.8641   -9.8266   -7.6103 H   0  0  0  0  0  0  0  0  0  0  0  0
    1.3070   -7.7738   -5.3661 H   0  0  0  0  0  0  0  0  0  0  0  0
    0.5351   -5.7788   -4.1606 H   0  0  0  0  0  0  0  0  0  0  0  0
   -6.5638   -1.3625   -0.6380 H   0  0  0  0  0  0  0  0  0  0  0  0
   -6.0643   -0.5936    1.6202 H   0  0  0  0  0  0  0  0  0  0  0  0
   -5.9250   -2.8387    4.6108 H   0  0  0  0  0  0  0  0  0  0  0  0
   -7.1736   -1.5560    4.3704 H   0  0  0  0  0  0  0  0  0  0  0  0
   -5.4429   -1.2364    3.9526 H   0  0  0  0  0  0  0  0  0  0  0  0
   -7.0304   -4.5015    3.1686 H   0  0  0  0  0  0  0  0  0  0  0  0
   -7.5395   -5.2727    0.8998 H   0  0  0  0  0  0  0  0  0  0  0  0
   -9.7599   -4.0880    0.0573 H   0  0  0  0  0  0  0  0  0  0  0  0
  -11.6268   -5.5920   -0.4000 H   0  0  0  0  0  0  0  0  0  0  0  0
  -11.8101   -8.2764   -1.8923 H   0  0  0  0  0  0  0  0  0  0  0  0
  -12.8694   -6.8354   -2.1865 H   0  0  0  0  0  0  0  0  0  0  0  0
  -11.9727   -7.5761   -3.5527 H   0  0  0  0  0  0  0  0  0  0  0  0
   -9.5862   -7.1094   -3.8694 H   0  0  0  0  0  0  0  0  0  0  0  0
   -7.7104   -5.6354   -3.4322 H   0  0  0  0  0  0  0  0  0  0  0  0
   -9.0177   -2.6182   -4.7362 H   0  0  0  0  0  0  0  0  0  0  0  0
  -11.1897   -3.7616   -4.8828 H   0  0  0  0  0  0  0  0  0  0  0  0
  -12.8269   -3.5843   -3.0523 H   0  0  0  0  0  0  0  0  0  0  0  0
  -11.9757   -2.3187    0.3093 H   0  0  0  0  0  0  0  0  0  0  0  0
  -13.2004   -3.1742   -0.6697 H   0  0  0  0  0  0  0  0  0  0  0  0
  -12.6917   -0.1230   -0.7688 H   0  0  0  0  0  0  0  0  0  0  0  0
  -13.9966   -1.0339   -1.6420 H   0  0  0  0  0  0  0  0  0  0  0  0
  -14.0019   -0.9471    0.1592 H   0  0  0  0  0  0  0  0  0  0  0  0
  -10.0600   -1.1892   -0.8011 H   0  0  0  0  0  0  0  0  0  0  0  0
    1.8297    3.0235    4.4875 H   0  0  0  0  0  0  0  0  0  0  0  0
    2.3169    3.1899    6.8819 H   0  0  0  0  0  0  0  0  0  0  0  0
    1.2078    4.8959    8.2734 H   0  0  0  0  0  0  0  0  0  0  0  0
   -0.7722    7.7171    6.9136 H   0  0  0  0  0  0  0  0  0  0  0  0
   -0.0010    7.0251    8.3755 H   0  0  0  0  0  0  0  0  0  0  0  0
   -2.6047    6.0039    7.0574 H   0  0  0  0  0  0  0  0  0  0  0  0
   -1.8140    5.2888    8.5223 H   0  0  0  0  0  0  0  0  0  0  0  0
   -2.4734    6.9675    8.5776 H   0  0  0  0  0  0  0  0  0  0  0  0
   -0.8594    6.3829    4.8013 H   0  0  0  0  0  0  0  0  0  0  0  0
   -4.1684    4.2078   -3.0742 H   0  0  0  0  0  0  0  0  0  0  0  0
   -4.2829    2.5810   -3.8588 H   0  0  0  0  0  0  0  0  0  0  0  0
   -5.2156    4.4344   -5.2470 H   0  0  0  0  0  0  0  0  0  0  0  0
   -6.5030    3.2580   -4.8013 H   0  0  0  0  0  0  0  0  0  0  0  0
   -6.3789    4.8460   -3.9285 H   0  0  0  0  0  0  0  0  0  0  0  0
   -3.0938    2.2926   -1.8566 H   0  0  0  0  0  0  0  0  0  0  0  0
   -1.7101    2.3493   -0.8022 H   0  0  0  0  0  0  0  0  0  0  0  0
   -2.0574    4.7089   -2.7271 H   0  0  0  0  0  0  0  0  0  0  0  0
   -1.4896    3.1132   -3.3574 H   0  0  0  0  0  0  0  0  0  0  0  0
   -0.5643    3.9748   -2.0892 H   0  0  0  0  0  0  0  0  0  0  0  0
    3.1247    6.1332    2.0069 H   0  0  0  0  0  0  0  0  0  0  0  0
    5.3430    6.6981    3.5640 H   0  0  0  0  0  0  0  0  0  0  0  0
    5.6085    8.9093    5.0376 H   0  0  0  0  0  0  0  0  0  0  0  0
    6.1765   12.6194    5.2494 H   0  0  0  0  0  0  0  0  0  0  0  0
    5.4551   11.2060    6.0832 H   0  0  0  0  0  0  0  0  0  0  0  0
    7.6352   11.8622    7.0997 H   0  0  0  0  0  0  0  0  0  0  0  0
    7.7315   10.2040    6.3954 H   0  0  0  0  0  0  0  0  0  0  0  0
    8.4696   11.6092    5.5235 H   0  0  0  0  0  0  0  0  0  0  0  0
    6.9342   12.4498    2.9228 H   0  0  0  0  0  0  0  0  0  0  0  0
    6.9318   11.1720    0.7872 H   0  0  0  0  0  0  0  0  0  0  0  0
    4.5250   -2.9812    0.6812 H   0  0  0  0  0  0  0  0  0  0  0  0
    6.2920   -4.5931    1.3580 H   0  0  0  0  0  0  0  0  0  0  0  0
    9.8654   -3.7951    1.4111 H   0  0  0  0  0  0  0  0  0  0  0  0
    8.6464   -5.0878    1.6312 H   0  0  0  0  0  0  0  0  0  0  0  0
    9.4615   -3.0162    3.7774 H   0  0  0  0  0  0  0  0  0  0  0  0
    8.2515   -4.3467    3.9905 H   0  0  0  0  0  0  0  0  0  0  0  0
    9.9903   -4.7399    3.6999 H   0  0  0  0  0  0  0  0  0  0  0  0
    9.1324   -1.3340    1.6896 H   0  0  0  0  0  0  0  0  0  0  0  0
    8.1413    1.1149    1.2680 H   0  0  0  0  0  0  0  0  0  0  0  0
    8.0084    2.1206   -1.1343 H   0  0  0  0  0  0  0  0  0  0  0  0
   10.2764    5.0828   -2.2546 H   0  0  0  0  0  0  0  0  0  0  0  0
   11.4386    3.0670   -1.5331 H   0  0  0  0  0  0  0  0  0  0  0  0
   10.9692    0.9720   -2.5865 H   0  0  0  0  0  0  0  0  0  0  0  0
    6.2569   -2.7955   -1.8724 H   0  0  0  0  0  0  0  0  0  0  0  0
    7.8840   -2.5170   -1.2992 H   0  0  0  0  0  0  0  0  0  0  0  0
    7.2783   -4.0466   -3.8992 H   0  0  0  0  0  0  0  0  0  0  0  0
    7.7534   -4.7487   -2.3174 H   0  0  0  0  0  0  0  0  0  0  0  0
    8.9047   -3.6935   -3.2208 H   0  0  0  0  0  0  0  0  0  0  0  0
    9.7422    2.9577   -5.3050 H   0  0  0  0  0  0  0  0  0  0  0  0
    7.9694    2.8673   -5.1140 H   0  0  0  0  0  0  0  0  0  0  0  0
    7.8759    4.5694   -3.6010 H   0  0  0  0  0  0  0  0  0  0  0  0
    9.4235    5.0177   -4.3542 H   0  0  0  0  0  0  0  0  0  0  0  0
  1  2  2  3
  2  3  1  0
  3  4  2  0
  3  5  1  0
  5  6  2  0
  6  7  1  0
  7  8  2  0
  8  9  1  0
  9 10  2  0
 10 11  1  0
 11 12  2  3
 12 13  1  0
 13 14  3  0
 12 15  1  0
 15 16  3  0
  8 17  1  0
 17 18  1  0
 18 19  1  0
 19 20  2  0
 20 21  1  0
 21 22  1  0
 21 23  1  0
  1 24  1  0
 24 25  2  0
 25 26  1  0
 26 27  1  0
 27 28  2  0
 28 29  1  0
 29 30  2  0
 30 31  1  0
 30 32  1  0
 32 33  2  0
 26 34  1  0
 34 35  2  0
 35 36  1  0
 36 37  2  0
 37 38  1  0
 37 39  1  0
 39 40  2  0
 25 41  1  0
 41 42  1  0
 42 43  1  0
 43 44  2  0
 44 45  1  0
 45 46  1  0
 46 47  2  0
 47 48  1  0
 48 49  2  0
 49 50  1  0
 49 51  1  0
 51 52  2  0
 45 53  1  0
 53 54  2  0
 54 55  1  0
 55 56  2  0
 56 57  1  0
 56 58  1  0
 58 59  2  0
 44 60  1  0
 60 61  1  0
 43 62  1  0
 62 63  2  0
 63 64  1  0
 64 65  2  0
 65 66  1  0
 66 67  2  0
 67 68  1  0
 68 69  1  0
 69 70  1  0
 68 71  2  0
 63 72  1  0
 72 73  1  0
 73 74  1  0
 74 75  1  0
 75 76  1  0
 76 77  1  0
 77 78  2  0
 78 79  1  0
 79 80  1  0
 77 81  1  0
 81 82  1  0
 82 83  1  0
 83 84  1  0
 84 85  1  0
 85 86  1  0
 86 87  2  0
 87 88  1  0
 88 89  2  0
 89 90  1  0
 90 91  1  0
 91 92  1  0
 90 93  2  0
 85 94  2  0
 94 95  1  0
 95 96  1  0
 96 97  1  0
 97 98  1  0
 98 99  1  0
 99100  1  0
100101  1  0
101102  1  0
102103  1  0
103104  1  0
101105  1  0
105106  1  0
 98107  1  0
107108  1  0
 94109  1  0
109110  2  0
110111  1  0
111112  2  0
112113  1  0
113114  2  0
114115  1  0
115116  2  0
116117  1  0
117118  1  0
118119  1  0
117120  2  0
120121  1  0
121122  2  0
122123  1  0
112124  1  0
124125  2  0
125126  1  0
126127  1  0
127128  1  0
128129  1  0
129130  2  0
130131  1  0
131132  2  0
132133  1  0
133134  1  0
132135  1  0
135136  2  0
136137  1  0
126138  2  0
138139  1  0
125140  1  0
140141  2  0
141142  1  0
141143  1  0
143144  1  0
144145  2  0
145146  1  0
146147  2  3
147148  1  0
148149  1  0
149150  2  3
150151  1  0
151152  3  0
150153  1  0
153154  3  0
149155  1  0
155156  1  0
156157  1  0
155158  1  0
158159  2  0
146160  1  0
160161  1  0
 11  2  1  0
 23 17  1  0
 61 24  1  0
104 62  1  0
139109  1  0
161143  1  0
 10  5  1  0
 22 18  1  0
 33 27  1  0
 40 34  1  0
 60 41  2  0
 71 64  1  0
103 72  2  0
138111  1  0
158147  1  0
 23  7  1  0
 52 46  1  0
 59 53  1  0
102 74  2  0
123113  1  0
142124  1  0
100 75  2  0
122115  1  0
137127  2  0
 80 76  2  0
 99 81  2  0
136129  1  0
 97 82  2  0
 96 84  2  0
 93 86  1  0
  1162  1  0
  6163  1  0
  9164  1  0
 17165  1  0
 18166  1  0
 19167  1  0
 20168  1  0
 21169  1  0
 22170  1  0
 22171  1  0
 23172  1  0
 28173  1  0
 29174  1  0
 31175  1  0
 31176  1  0
 31177  1  0
 32178  1  0
 33179  1  0
 35180  1  0
 36181  1  0
 38182  1  0
 38183  1  0
 38184  1  0
 39185  1  0
 40186  1  0
 47187  1  0
 48188  1  0
 50189  1  0
 50190  1  0
 50191  1  0
 51192  1  0
 52193  1  0
 54194  1  0
 55195  1  0
 57196  1  0
 57197  1  0
 57198  1  0
 58199  1  0
 59200  1  0
 65201  1  0
 66202  1  0
 67203  1  0
 69204  1  0
 69205  1  0
 70206  1  0
 70207  1  0
 70208  1  0
 71209  1  0
 87210  1  0
 88211  1  0
 89212  1  0
 91213  1  0
 91214  1  0
 92215  1  0
 92216  1  0
 92217  1  0
 93218  1  0
105219  1  0
105220  1  0
106221  1  0
106222  1  0
106223  1  0
107224  1  0
107225  1  0
108226  1  0
108227  1  0
108228  1  0
110229  1  0
114230  1  0
116231  1  0
118232  1  0
118233  1  0
119234  1  0
119235  1  0
119236  1  0
120237  1  0
121238  1  0
130239  1  0
131240  1  0
133241  1  0
133242  1  0
134243  1  0
134244  1  0
134245  1  0
135246  1  0
137247  1  0
140248  1  0
143249  1  0
144250  1  0
145251  1  0
156252  1  0
156253  1  0
157254  1  0
157255  1  0
157256  1  0
160257  1  0
160258  1  0
161259  1  0
161260  1  0
M  END

