
     RDKit          3D

259287  0  0  0  0  0  0  0  0999 V2000
    3.6357   -5.6528    3.1076 C   0  0  0  0  0  0  0  0  0  0  0  0
    4.7622   -5.8723    2.4037 C   0  0  0  0  0  0  0  0  0  0  0  0
    4.8060   -6.6033    1.1334 C   0  0  0  0  0  0  0  0  0  0  0  0
    3.8869   -7.2873    0.6169 O   0  0  0  0  0  0  0  0  0  0  0  0
    6.1177   -6.4668    0.5574 C   0  0  0  0  0  0  0  0  0  0  0  0
    6.5599   -7.0975   -0.6221 C   0  0  0  0  0  0  0  0  0  0  0  0
    7.8828   -6.8315   -0.9332 C   0  0  0  0  0  0  0  0  0  0  0  0
    8.7233   -5.9835   -0.1430 C   0  0  0  0  0  0  0  0  0  0  0  0
    8.2896   -5.3660    1.0269 C   0  0  0  0  0  0  0  0  0  0  0  0
    6.9318   -5.6492    1.3885 C   0  0  0  0  0  0  0  0  0  0  0  0
    6.1318   -5.2754    2.6133 C   0  0  0  0  0  0  0  0  0  0  0  0
    6.5797   -4.5490    3.6752 C   0  0  0  0  0  0  0  0  0  0  0  0
    5.8113   -4.3757    4.8832 C   0  0  0  0  0  0  0  0  0  0  0  0
    5.2280   -4.2296    5.8771 N   0  0  0  0  0  0  0  0  0  0  0  0
    7.8757   -3.9141    3.7106 C   0  0  0  0  0  0  0  0  0  0  0  0
    8.9127   -3.3947    3.7700 N   0  0  0  0  0  0  0  0  0  0  0  0
    9.8741   -6.2358   -1.0714 C   0  0  0  0  0  0  0  0  0  0  0  0
   10.2562   -5.1009   -2.0607 C   0  0  0  0  0  0  0  0  0  0  0  0
   11.1362   -5.7582   -3.0982 C   0  0  0  0  0  0  0  0  0  0  0  0
   10.3379   -6.5318   -3.8407 C   0  0  0  0  0  0  0  0  0  0  0  0
    8.9530   -6.3952   -3.2638 C   0  0  0  0  0  0  0  0  0  0  0  0
    8.9949   -4.9227   -2.8978 C   0  0  0  0  0  0  0  0  0  0  0  0
    9.0168   -7.1072   -1.8800 C   0  0  0  0  0  0  0  0  0  0  0  0
    2.3192   -5.7184    2.4468 C   0  0  0  0  0  0  0  0  0  0  0  0
    1.9082   -4.7316    1.5534 C   0  0  0  0  0  0  0  0  0  0  0  0
    2.3346   -3.3611    1.6517 N   0  0  0  0  0  0  0  0  0  0  0  0
    1.8110   -2.6416    2.7915 C   0  0  0  0  0  0  0  0  0  0  0  0
    0.4424   -2.3671    2.8908 C   0  0  0  0  0  0  0  0  0  0  0  0
   -0.0885   -1.8175    4.0640 C   0  0  0  0  0  0  0  0  0  0  0  0
    0.7486   -1.5485    5.1591 C   0  0  0  0  0  0  0  0  0  0  0  0
    0.1929   -0.9421    6.4078 C   0  0  0  0  0  0  0  0  0  0  0  0
    2.1267   -1.8038    5.0570 C   0  0  0  0  0  0  0  0  0  0  0  0
    2.6509   -2.3702    3.8889 C   0  0  0  0  0  0  0  0  0  0  0  0
    3.4117   -2.8263    0.8455 C   0  0  0  0  0  0  0  0  0  0  0  0
    3.9788   -1.5570    1.1047 C   0  0  0  0  0  0  0  0  0  0  0  0
    5.0511   -1.0769    0.3510 C   0  0  0  0  0  0  0  0  0  0  0  0
    5.5620   -1.8274   -0.7170 C   0  0  0  0  0  0  0  0  0  0  0  0
    6.7424   -1.3147   -1.4857 C   0  0  0  0  0  0  0  0  0  0  0  0
    5.0061   -3.0828   -0.9967 C   0  0  0  0  0  0  0  0  0  0  0  0
    3.9390   -3.5738   -0.2412 C   0  0  0  0  0  0  0  0  0  0  0  0
    0.8448   -5.1611    0.7797 C   0  0  0  0  0  0  0  0  0  0  0  0
   -0.1425   -4.4237   -0.3243 S   0  0  0  0  0  0  0  0  0  0  0  0
   -1.1573   -5.7526   -0.6116 C   0  0  0  0  0  0  0  0  0  0  0  0
   -0.7455   -6.8138    0.2493 C   0  0  0  0  0  0  0  0  0  0  0  0
   -1.4974   -8.0178    0.5275 N   0  0  0  0  0  0  0  0  0  0  0  0
   -2.4705   -7.9782    1.6323 C   0  0  0  0  0  0  0  0  0  0  0  0
   -3.4924   -8.9385    1.7468 C   0  0  0  0  0  0  0  0  0  0  0  0
   -4.3793   -8.9195    2.8305 C   0  0  0  0  0  0  0  0  0  0  0  0
   -4.2524   -7.9574    3.8331 C   0  0  0  0  0  0  0  0  0  0  0  0
   -5.1434   -7.9988    5.0408 C   0  0  0  0  0  0  0  0  0  0  0  0
   -3.2355   -6.9988    3.7385 C   0  0  0  0  0  0  0  0  0  0  0  0
   -2.3746   -6.9925    2.6366 C   0  0  0  0  0  0  0  0  0  0  0  0
   -1.0329   -9.2857    0.0054 C   0  0  0  0  0  0  0  0  0  0  0  0
   -1.8747  -10.1228   -0.7547 C   0  0  0  0  0  0  0  0  0  0  0  0
   -1.4844  -11.4080   -1.1183 C   0  0  0  0  0  0  0  0  0  0  0  0
   -0.2133  -11.8903   -0.7783 C   0  0  0  0  0  0  0  0  0  0  0  0
    0.1704  -13.3085   -1.0746 C   0  0  0  0  0  0  0  0  0  0  0  0
    0.6685  -11.0437   -0.0889 C   0  0  0  0  0  0  0  0  0  0  0  0
    0.2639   -9.7662    0.2985 C   0  0  0  0  0  0  0  0  0  0  0  0
    0.3831   -6.4175    1.0150 C   0  0  0  0  0  0  0  0  0  0  0  0
    1.2836   -7.0599    2.2929 S   0  0  0  0  0  0  0  0  0  0  0  0
   -2.1728   -5.6448   -1.7033 C   0  0  0  0  0  0  0  0  0  0  0  0
   -3.5740   -5.5262   -1.5299 C   0  0  0  0  0  0  0  0  0  0  0  0
   -4.4390   -6.6317   -1.0868 C   0  0  0  0  0  0  0  0  0  0  0  0
   -4.3591   -7.8534   -1.7719 C   0  0  0  0  0  0  0  0  0  0  0  0
   -5.3411   -8.8352   -1.5999 C   0  0  0  0  0  0  0  0  0  0  0  0
   -6.4423   -8.5828   -0.7846 C   0  0  0  0  0  0  0  0  0  0  0  0
   -6.5585   -7.3462   -0.1229 C   0  0  0  0  0  0  0  0  0  0  0  0
   -7.7862   -7.0508    0.6995 C   0  0  0  0  0  0  0  0  0  0  0  0
   -7.6567   -7.6506    2.0919 C   0  0  0  0  0  0  0  0  0  0  0  0
   -5.5405   -6.3837   -0.2618 C   0  0  0  0  0  0  0  0  0  0  0  0
   -4.1232   -4.5489   -2.3845 C   0  0  0  0  0  0  0  0  0  0  0  0
   -5.6521   -3.7903   -2.5027 S   0  0  0  0  0  0  0  0  0  0  0  0
   -5.0950   -2.6721   -3.6691 C   0  0  0  0  0  0  0  0  0  0  0  0
   -5.3666   -1.3544   -3.9706 C   0  0  0  0  0  0  0  0  0  0  0  0
   -6.4252   -0.5231   -3.5810 C   0  0  0  0  0  0  0  0  0  0  0  0
   -6.3155    0.8806   -3.7701 C   0  0  0  0  0  0  0  0  0  0  0  0
   -7.3403    1.6364   -3.3219 N   0  0  0  0  0  0  0  0  0  0  0  0
   -8.3380    0.4688   -2.7102 S   0  0  0  0  0  0  0  0  0  0  0  0
   -7.5444   -0.9654   -2.9637 N   0  0  0  0  0  0  0  0  0  0  0  0
   -5.1581    1.3985   -4.3656 C   0  0  0  0  0  0  0  0  0  0  0  0
   -4.7030    2.6883   -4.5641 C   0  0  0  0  0  0  0  0  0  0  0  0
   -4.9563    4.1821   -3.7966 S   0  0  0  0  0  0  0  0  0  0  0  0
   -3.3193    4.6706   -3.9872 C   0  0  0  0  0  0  0  0  0  0  0  0
   -2.5193    5.5492   -3.2339 C   0  0  0  0  0  0  0  0  0  0  0  0
   -2.9913    6.8423   -2.6567 C   0  0  0  0  0  0  0  0  0  0  0  0
   -2.2071    7.9973   -2.8363 C   0  0  0  0  0  0  0  0  0  0  0  0
   -2.6602    9.2489   -2.4245 C   0  0  0  0  0  0  0  0  0  0  0  0
   -3.9421    9.3798   -1.8931 C   0  0  0  0  0  0  0  0  0  0  0  0
   -4.7650    8.2517   -1.7374 C   0  0  0  0  0  0  0  0  0  0  0  0
   -6.2116    8.4483   -1.3602 C   0  0  0  0  0  0  0  0  0  0  0  0
   -7.0361    8.8015   -2.5980 C   0  0  0  0  0  0  0  0  0  0  0  0
   -4.2736    6.9858   -2.0850 C   0  0  0  0  0  0  0  0  0  0  0  0
   -1.1732    5.1256   -3.2166 C   0  0  0  0  0  0  0  0  0  0  0  0
   -1.0165    3.7461   -4.1847 S   0  0  0  0  0  0  0  0  0  0  0  0
   -2.6321    3.6710   -4.6201 C   0  0  0  0  0  0  0  0  0  0  0  0
   -3.4157    2.5825   -4.9875 C   0  0  0  0  0  0  0  0  0  0  0  0
   -3.0430    1.3039   -5.1783 N   0  0  0  0  0  0  0  0  0  0  0  0
   -4.0917    0.5688   -4.7243 C   0  0  0  0  0  0  0  0  0  0  0  0
   -4.1596   -0.8231   -4.4571 C   0  0  0  0  0  0  0  0  0  0  0  0
   -3.1438   -1.7433   -4.3583 N   0  0  0  0  0  0  0  0  0  0  0  0
   -3.7668   -2.8707   -3.9307 C   0  0  0  0  0  0  0  0  0  0  0  0
   -3.2545   -3.9646   -3.2372 C   0  0  0  0  0  0  0  0  0  0  0  0
   -1.7429   -4.6190   -2.9969 S   0  0  0  0  0  0  0  0  0  0  0  0
   -1.7115   -1.4825   -4.1069 C   0  0  0  0  0  0  0  0  0  0  0  0
   -0.8248   -2.1637   -5.1527 C   0  0  0  0  0  0  0  0  0  0  0  0
   -2.0147    0.9049   -6.1468 C   0  0  0  0  0  0  0  0  0  0  0  0
   -2.2925    1.5157   -7.5227 C   0  0  0  0  0  0  0  0  0  0  0  0
   -0.2099    5.4058   -2.1158 C   0  0  0  0  0  0  0  0  0  0  0  0
   -0.1260    4.6369   -0.9468 C   0  0  0  0  0  0  0  0  0  0  0  0
   -0.8815    3.4347   -0.7274 N   0  0  0  0  0  0  0  0  0  0  0  0
   -2.2865    3.5658   -0.4125 C   0  0  0  0  0  0  0  0  0  0  0  0
   -3.2609    2.8132   -1.0940 C   0  0  0  0  0  0  0  0  0  0  0  0
   -4.6147    2.9411   -0.7676 C   0  0  0  0  0  0  0  0  0  0  0  0
   -5.0204    3.8823    0.1972 C   0  0  0  0  0  0  0  0  0  0  0  0
   -6.4674    4.0356    0.5353 C   0  0  0  0  0  0  0  0  0  0  0  0
   -4.0572    4.6435    0.8721 C   0  0  0  0  0  0  0  0  0  0  0  0
   -2.7090    4.4848    0.5723 C   0  0  0  0  0  0  0  0  0  0  0  0
   -0.2592    2.1535   -1.0337 C   0  0  0  0  0  0  0  0  0  0  0  0
    0.9688    2.0958   -1.7412 C   0  0  0  0  0  0  0  0  0  0  0  0
    1.5629    0.8757   -2.0466 C   0  0  0  0  0  0  0  0  0  0  0  0
    0.9669   -0.3279   -1.6499 C   0  0  0  0  0  0  0  0  0  0  0  0
    1.5880   -1.6280   -2.0456 C   0  0  0  0  0  0  0  0  0  0  0  0
   -0.2428   -0.2956   -0.9381 C   0  0  0  0  0  0  0  0  0  0  0  0
   -0.8353    0.9330   -0.6091 C   0  0  0  0  0  0  0  0  0  0  0  0
    0.6369    5.2631    0.0483 C   0  0  0  0  0  0  0  0  0  0  0  0
    0.6821    5.1642    1.7297 S   0  0  0  0  0  0  0  0  0  0  0  0
    1.2447    6.7416    2.0094 C   0  0  0  0  0  0  0  0  0  0  0  0
    1.6250    7.2379    0.7552 C   0  0  0  0  0  0  0  0  0  0  0  0
    2.6978    8.2016    0.6035 N   0  0  0  0  0  0  0  0  0  0  0  0
    2.4933    9.6178    0.7310 C   0  0  0  0  0  0  0  0  0  0  0  0
    1.3092   10.2080    0.2537 C   0  0  0  0  0  0  0  0  0  0  0  0
    1.1809   11.5945    0.1740 C   0  0  0  0  0  0  0  0  0  0  0  0
    2.2266   12.4291    0.6000 C   0  0  0  0  0  0  0  0  0  0  0  0
    2.1204   13.9120    0.4040 C   0  0  0  0  0  0  0  0  0  0  0  0
    3.3796   11.8539    1.1581 C   0  0  0  0  0  0  0  0  0  0  0  0
    3.5137   10.4664    1.2313 C   0  0  0  0  0  0  0  0  0  0  0  0
    4.0120    7.6847    0.3254 C   0  0  0  0  0  0  0  0  0  0  0  0
    4.9419    7.4717    1.3571 C   0  0  0  0  0  0  0  0  0  0  0  0
    6.1957    6.9143    1.0773 C   0  0  0  0  0  0  0  0  0  0  0  0
    6.5465    6.6004   -0.2443 C   0  0  0  0  0  0  0  0  0  0  0  0
    7.8737    5.9554   -0.5166 C   0  0  0  0  0  0  0  0  0  0  0  0
    5.6279    6.8419   -1.2789 C   0  0  0  0  0  0  0  0  0  0  0  0
    4.3844    7.4062   -0.9939 C   0  0  0  0  0  0  0  0  0  0  0  0
    1.1909    6.4399   -0.3065 C   0  0  0  0  0  0  0  0  0  0  0  0
    0.7528    6.8017   -1.8962 S   0  0  0  0  0  0  0  0  0  0  0  0
    0.3115    7.5973    2.7350 C   0  0  0  0  0  0  0  0  0  0  0  0
    0.3542    7.9584    4.0238 C   0  0  0  0  0  0  0  0  0  0  0  0
   -0.6836    8.8687    4.5343 C   0  0  0  0  0  0  0  0  0  0  0  0
   -1.3392    9.7200    3.8731 O   0  0  0  0  0  0  0  0  0  0  0  0
   -0.8926    8.5858    5.9144 C   0  0  0  0  0  0  0  0  0  0  0  0
   -2.2866    8.6312    6.8331 S   0  0  0  0  0  0  0  0  0  0  0  0
   -1.8351    7.3372    7.8339 C   0  0  0  0  0  0  0  0  0  0  0  0
   -0.6106    6.8372    7.3908 C   0  0  0  0  0  0  0  0  0  0  0  0
   -0.0991    7.5323    6.2833 C   0  0  0  0  0  0  0  0  0  0  0  0
    0.8623    7.1868    5.2053 C   0  0  0  0  0  0  0  0  0  0  0  0
    1.8293    6.2574    5.3237 C   0  0  0  0  0  0  0  0  0  0  0  0
    2.8332    6.0097    4.3320 C   0  0  0  0  0  0  0  0  0  0  0  0
    3.6588    5.7072    3.5657 N   0  0  0  0  0  0  0  0  0  0  0  0
    1.8298    5.2878    6.4360 C   0  0  0  0  0  0  0  0  0  0  0  0
    1.8011    4.5201    7.3173 N   0  0  0  0  0  0  0  0  0  0  0  0
    3.6235   -5.1594    4.0484 H   0  0  0  0  0  0  0  0  0  0  0  0
    5.9345   -7.7593   -1.2227 H   0  0  0  0  0  0  0  0  0  0  0  0
    8.9715   -4.7578    1.6004 H   0  0  0  0  0  0  0  0  0  0  0  0
   10.7184   -6.7659   -0.5783 H   0  0  0  0  0  0  0  0  0  0  0  0
   10.6715   -4.1818   -1.5983 H   0  0  0  0  0  0  0  0  0  0  0  0
   12.2006   -5.6044   -3.2686 H   0  0  0  0  0  0  0  0  0  0  0  0
   10.6327   -7.1085   -4.7177 H   0  0  0  0  0  0  0  0  0  0  0  0
    8.1264   -6.7061   -3.9309 H   0  0  0  0  0  0  0  0  0  0  0  0
    9.1320   -4.2434   -3.7642 H   0  0  0  0  0  0  0  0  0  0  0  0
    8.1153   -4.5732   -2.3147 H   0  0  0  0  0  0  0  0  0  0  0  0
    9.3121   -8.1809   -1.8877 H   0  0  0  0  0  0  0  0  0  0  0  0
   -0.2100   -2.5884    2.0641 H   0  0  0  0  0  0  0  0  0  0  0  0
   -1.1516   -1.6126    4.1125 H   0  0  0  0  0  0  0  0  0  0  0  0
    0.7143   -1.3429    7.2993 H   0  0  0  0  0  0  0  0  0  0  0  0
    0.3246    0.1575    6.3698 H   0  0  0  0  0  0  0  0  0  0  0  0
   -0.8854   -1.1827    6.5138 H   0  0  0  0  0  0  0  0  0  0  0  0
    2.7960   -1.5751    5.8816 H   0  0  0  0  0  0  0  0  0  0  0  0
    3.7112   -2.5988    3.8534 H   0  0  0  0  0  0  0  0  0  0  0  0
    3.6027   -0.9167    1.8980 H   0  0  0  0  0  0  0  0  0  0  0  0
    5.4659   -0.1101    0.6109 H   0  0  0  0  0  0  0  0  0  0  0  0
    6.6555   -1.6056   -2.5485 H   0  0  0  0  0  0  0  0  0  0  0  0
    7.6684   -1.7417   -1.0578 H   0  0  0  0  0  0  0  0  0  0  0  0
    6.8032   -0.2074   -1.4341 H   0  0  0  0  0  0  0  0  0  0  0  0
    5.3997   -3.6775   -1.8151 H   0  0  0  0  0  0  0  0  0  0  0  0
    3.5275   -4.5341   -0.5063 H   0  0  0  0  0  0  0  0  0  0  0  0
   -3.6671   -9.7001    1.0119 H   0  0  0  0  0  0  0  0  0  0  0  0
   -5.1803   -9.6595    2.8723 H   0  0  0  0  0  0  0  0  0  0  0  0
   -4.7679   -8.7846    5.7248 H   0  0  0  0  0  0  0  0  0  0  0  0
   -6.1828   -8.2433    4.7419 H   0  0  0  0  0  0  0  0  0  0  0  0
   -5.1468   -7.0238    5.5654 H   0  0  0  0  0  0  0  0  0  0  0  0
   -3.0993   -6.2557    4.5208 H   0  0  0  0  0  0  0  0  0  0  0  0
   -1.6248   -6.2196    2.6242 H   0  0  0  0  0  0  0  0  0  0  0  0
   -2.8576   -9.8059   -1.0483 H   0  0  0  0  0  0  0  0  0  0  0  0
   -2.1947  -12.0520   -1.6327 H   0  0  0  0  0  0  0  0  0  0  0  0
   -0.0807  -13.9506   -0.2066 H   0  0  0  0  0  0  0  0  0  0  0  0
   -0.3742  -13.6826   -1.9675 H   0  0  0  0  0  0  0  0  0  0  0  0
    1.2576  -13.3855   -1.2883 H   0  0  0  0  0  0  0  0  0  0  0  0
    1.6568  -11.4020    0.1872 H   0  0  0  0  0  0  0  0  0  0  0  0
    0.9614   -9.1760    0.8520 H   0  0  0  0  0  0  0  0  0  0  0  0
   -3.5648   -8.0386   -2.4864 H   0  0  0  0  0  0  0  0  0  0  0  0
   -5.2705   -9.7800   -2.1339 H   0  0  0  0  0  0  0  0  0  0  0  0
   -7.2125   -9.3499   -0.6838 H   0  0  0  0  0  0  0  0  0  0  0  0
   -8.6808   -7.4862    0.1977 H   0  0  0  0  0  0  0  0  0  0  0  0
   -7.9573   -5.9580    0.7727 H   0  0  0  0  0  0  0  0  0  0  0  0
   -8.5954   -7.4838    2.6578 H   0  0  0  0  0  0  0  0  0  0  0  0
   -7.4754   -8.7453    2.0364 H   0  0  0  0  0  0  0  0  0  0  0  0
   -6.8242   -7.1534    2.6365 H   0  0  0  0  0  0  0  0  0  0  0  0
   -5.6405   -5.4248    0.2343 H   0  0  0  0  0  0  0  0  0  0  0  0
   -1.2618    7.9411   -3.3638 H   0  0  0  0  0  0  0  0  0  0  0  0
   -2.0451   10.1241   -2.5693 H   0  0  0  0  0  0  0  0  0  0  0  0
   -4.3042   10.3733   -1.6351 H   0  0  0  0  0  0  0  0  0  0  0  0
   -6.3221    9.2693   -0.6120 H   0  0  0  0  0  0  0  0  0  0  0  0
   -6.6162    7.5263   -0.9008 H   0  0  0  0  0  0  0  0  0  0  0  0
   -6.8938    8.0342   -3.3918 H   0  0  0  0  0  0  0  0  0  0  0  0
   -8.1132    8.8513   -2.3361 H   0  0  0  0  0  0  0  0  0  0  0  0
   -6.7283    9.7905   -3.0003 H   0  0  0  0  0  0  0  0  0  0  0  0
   -4.9255    6.1370   -1.9572 H   0  0  0  0  0  0  0  0  0  0  0  0
   -1.4869   -0.3968   -4.0395 H   0  0  0  0  0  0  0  0  0  0  0  0
   -1.4374   -1.8288   -3.1026 H   0  0  0  0  0  0  0  0  0  0  0  0
   -1.4287   -2.6273   -5.9640 H   0  0  0  0  0  0  0  0  0  0  0  0
   -0.1235   -1.4342   -5.6122 H   0  0  0  0  0  0  0  0  0  0  0  0
   -0.2061   -2.9627   -4.6944 H   0  0  0  0  0  0  0  0  0  0  0  0
   -2.0357   -0.1811   -6.3017 H   0  0  0  0  0  0  0  0  0  0  0  0
   -1.0028    1.2149   -5.7969 H   0  0  0  0  0  0  0  0  0  0  0  0
   -3.2953    1.1902   -7.8856 H   0  0  0  0  0  0  0  0  0  0  0  0
   -1.5254    1.1609   -8.2477 H   0  0  0  0  0  0  0  0  0  0  0  0
   -2.2612    2.6289   -7.4948 H   0  0  0  0  0  0  0  0  0  0  0  0
   -2.9834    2.1321   -1.8866 H   0  0  0  0  0  0  0  0  0  0  0  0
   -5.3496    2.3343   -1.2768 H   0  0  0  0  0  0  0  0  0  0  0  0
   -6.6603    5.0120    1.0288 H   0  0  0  0  0  0  0  0  0  0  0  0
   -7.0806    3.9959   -0.3921 H   0  0  0  0  0  0  0  0  0  0  0  0
   -6.7849    3.2175    1.2152 H   0  0  0  0  0  0  0  0  0  0  0  0
   -4.3466    5.3644    1.6358 H   0  0  0  0  0  0  0  0  0  0  0  0
   -2.0007    5.0965    1.0977 H   0  0  0  0  0  0  0  0  0  0  0  0
    1.4672    2.9872   -2.0985 H   0  0  0  0  0  0  0  0  0  0  0  0
    2.4808    0.8729   -2.6153 H   0  0  0  0  0  0  0  0  0  0  0  0
    2.6924   -1.5503   -2.0543 H   0  0  0  0  0  0  0  0  0  0  0  0
    1.2342   -1.9169   -3.0567 H   0  0  0  0  0  0  0  0  0  0  0  0
    1.3257   -2.4098   -1.3142 H   0  0  0  0  0  0  0  0  0  0  0  0
   -0.7411   -1.2184   -0.6503 H   0  0  0  0  0  0  0  0  0  0  0  0
   -1.7506    0.9120   -0.0344 H   0  0  0  0  0  0  0  0  0  0  0  0
    0.5103    9.5775   -0.1217 H   0  0  0  0  0  0  0  0  0  0  0  0
    0.2806   12.0102   -0.2593 H   0  0  0  0  0  0  0  0  0  0  0  0
    3.0600   14.4280    0.6873 H   0  0  0  0  0  0  0  0  0  0  0  0
    1.2843   14.3121    1.0105 H   0  0  0  0  0  0  0  0  0  0  0  0
    1.9250   14.1311   -0.6653 H   0  0  0  0  0  0  0  0  0  0  0  0
    4.1844   12.4855    1.5278 H   0  0  0  0  0  0  0  0  0  0  0  0
    4.4249   10.0737    1.6611 H   0  0  0  0  0  0  0  0  0  0  0  0
    4.6889    7.7189    2.3776 H   0  0  0  0  0  0  0  0  0  0  0  0
    6.9033    6.7650    1.8950 H   0  0  0  0  0  0  0  0  0  0  0  0
    8.6857    6.5028    0.0137 H   0  0  0  0  0  0  0  0  0  0  0  0
    7.8584    4.9075   -0.1479 H   0  0  0  0  0  0  0  0  0  0  0  0
    8.0916    5.9528   -1.6040 H   0  0  0  0  0  0  0  0  0  0  0  0
    5.8887    6.6063   -2.3020 H   0  0  0  0  0  0  0  0  0  0  0  0
    3.6828    7.5579   -1.7966 H   0  0  0  0  0  0  0  0  0  0  0  0
   -0.6437    7.7132    2.2235 H   0  0  0  0  0  0  0  0  0  0  0  0
   -2.4353    6.8898    8.6083 H   0  0  0  0  0  0  0  0  0  0  0  0
   -0.2409    5.8981    7.7880 H   0  0  0  0  0  0  0  0  0  0  0  0
  1  2  2  3
  2  3  1  0
  3  4  2  0
  3  5  1  0
  5  6  2  0
  6  7  1  0
  7  8  2  0
  8  9  1  0
  9 10  2  0
 10 11  1  0
 11 12  2  3
 12 13  1  0
 13 14  3  0
 12 15  1  0
 15 16  3  0
  8 17  1  0
 17 18  1  0
 18 19  1  0
 19 20  2  0
 20 21  1  0
 21 22  1  0
 21 23  1  0
  1 24  1  0
 24 25  2  0
 25 26  1  0
 26 27  1  0
 27 28  2  0
 28 29  1  0
 29 30  2  0
 30 31  1  0
 30 32  1  0
 32 33  2  0
 26 34  1  0
 34 35  2  0
 35 36  1  0
 36 37  2  0
 37 38  1  0
 37 39  1  0
 39 40  2  0
 25 41  1  0
 41 42  1  0
 42 43  1  0
 43 44  2  0
 44 45  1  0
 45 46  1  0
 46 47  2  0
 47 48  1  0
 48 49  2  0
 49 50  1  0
 49 51  1  0
 51 52  2  0
 45 53  1  0
 53 54  2  0
 54 55  1  0
 55 56  2  0
 56 57  1  0
 56 58  1  0
 58 59  2  0
 44 60  1  0
 60 61  1  0
 43 62  1  0
 62 63  2  0
 63 64  1  0
 64 65  2  0
 65 66  1  0
 66 67  2  0
 67 68  1  0
 68 69  1  0
 69 70  1  0
 68 71  2  0
 63 72  1  0
 72 73  1  0
 73 74  1  0
 74 75  1  0
 75 76  1  0
 76 77  1  0
 77 78  2  0
 78 79  1  0
 79 80  1  0
 77 81  1  0
 81 82  1  0
 82 83  1  0
 83 84  1  0
 84 85  1  0
 85 86  1  0
 86 87  2  0
 87 88  1  0
 88 89  2  0
 89 90  1  0
 90 91  1  0
 91 92  1  0
 90 93  2  0
 85 94  2  0
 94 95  1  0
 95 96  1  0
 96 97  1  0
 97 98  1  0
 98 99  1  0
 99100  1  0
100101  1  0
101102  1  0
102103  1  0
103104  1  0
101105  1  0
105106  1  0
 98107  1  0
107108  1  0
 94109  1  0
109110  2  0
110111  1  0
111112  1  0
112113  2  0
113114  1  0
114115  2  0
115116  1  0
115117  1  0
117118  2  0
111119  1  0
119120  2  0
120121  1  0
121122  2  0
122123  1  0
122124  1  0
124125  2  0
110126  1  0
126127  1  0
127128  1  0
128129  2  0
129130  1  0
130131  1  0
131132  2  0
132133  1  0
133134  2  0
134135  1  0
134136  1  0
136137  2  0
130138  1  0
138139  2  0
139140  1  0
140141  2  0
141142  1  0
141143  1  0
143144  2  0
129145  1  0
145146  1  0
128147  1  0
147148  2  3
148149  1  0
149150  2  0
149151  1  0
151152  1  0
152153  1  0
153154  2  0
154155  1  0
155156  1  0
156157  2  3
157158  1  0
158159  3  0
157160  1  0
160161  3  0
 11  2  1  0
 23 17  1  0
 61 24  1  0
104 62  1  0
146109  1  0
156148  1  0
 10  5  1  0
 22 18  1  0
 33 27  1  0
 40 34  1  0
 60 41  2  0
 71 64  1  0
103 72  2  0
118112  1  0
125119  1  0
145126  2  0
155151  2  0
 23  7  1  0
 52 46  1  0
 59 53  1  0
102 74  2  0
137131  1  0
144138  1  0
100 75  2  0
 80 76  2  0
 99 81  2  0
 97 82  2  0
 96 84  2  0
 93 86  1  0
  1162  1  0
  6163  1  0
  9164  1  0
 17165  1  0
 18166  1  0
 19167  1  0
 20168  1  0
 21169  1  0
 22170  1  0
 22171  1  0
 23172  1  0
 28173  1  0
 29174  1  0
 31175  1  0
 31176  1  0
 31177  1  0
 32178  1  0
 33179  1  0
 35180  1  0
 36181  1  0
 38182  1  0
 38183  1  0
 38184  1  0
 39185  1  0
 40186  1  0
 47187  1  0
 48188  1  0
 50189  1  0
 50190  1  0
 50191  1  0
 51192  1  0
 52193  1  0
 54194  1  0
 55195  1  0
 57196  1  0
 57197  1  0
 57198  1  0
 58199  1  0
 59200  1  0
 65201  1  0
 66202  1  0
 67203  1  0
 69204  1  0
 69205  1  0
 70206  1  0
 70207  1  0
 70208  1  0
 71209  1  0
 87210  1  0
 88211  1  0
 89212  1  0
 91213  1  0
 91214  1  0
 92215  1  0
 92216  1  0
 92217  1  0
 93218  1  0
105219  1  0
105220  1  0
106221  1  0
106222  1  0
106223  1  0
107224  1  0
107225  1  0
108226  1  0
108227  1  0
108228  1  0
113229  1  0
114230  1  0
116231  1  0
116232  1  0
116233  1  0
117234  1  0
118235  1  0
120236  1  0
121237  1  0
123238  1  0
123239  1  0
123240  1  0
124241  1  0
125242  1  0
132243  1  0
133244  1  0
135245  1  0
135246  1  0
135247  1  0
136248  1  0
137249  1  0
139250  1  0
140251  1  0
142252  1  0
142253  1  0
142254  1  0
143255  1  0
144256  1  0
147257  1  0
153258  1  0
154259  1  0
M  END

