
     RDKit          3D

237265  0  0  0  0  0  0  0  0999 V2000
   -4.5731    2.9173   -1.0143 C   0  0  0  0  0  0  0  0  0  0  0  0
   -3.7727    3.8190   -0.4061 C   0  0  0  0  0  0  0  0  0  0  0  0
   -3.6594    4.0561    1.0351 C   0  0  0  0  0  0  0  0  0  0  0  0
   -4.6192    4.1959    1.8370 O   0  0  0  0  0  0  0  0  0  0  0  0
   -2.2853    4.3721    1.3493 C   0  0  0  0  0  0  0  0  0  0  0  0
   -1.7040    4.4480    2.6354 C   0  0  0  0  0  0  0  0  0  0  0  0
   -0.3406    4.6649    2.6155 C   0  0  0  0  0  0  0  0  0  0  0  0
    0.4136    4.8215    1.4092 C   0  0  0  0  0  0  0  0  0  0  0  0
   -0.1528    4.7532    0.1455 C   0  0  0  0  0  0  0  0  0  0  0  0
   -1.5588    4.5209    0.1415 C   0  0  0  0  0  0  0  0  0  0  0  0
   -2.4979    4.3295   -1.0009 C   0  0  0  0  0  0  0  0  0  0  0  0
   -2.2981    4.6795   -2.2966 C   0  0  0  0  0  0  0  0  0  0  0  0
   -3.3700    4.7005   -3.2584 C   0  0  0  0  0  0  0  0  0  0  0  0
   -4.2311    4.7260   -4.0290 N   0  0  0  0  0  0  0  0  0  0  0  0
   -1.0393    5.1795   -2.7794 C   0  0  0  0  0  0  0  0  0  0  0  0
   -0.0340    5.5840   -3.1834 N   0  0  0  0  0  0  0  0  0  0  0  0
    1.6799    4.9814    2.2023 C   0  0  0  0  0  0  0  0  0  0  0  0
    2.6928    3.7906    2.2209 C   0  0  0  0  0  0  0  0  0  0  0  0
    1.9561    2.4848    2.0462 C   0  0  0  0  0  0  0  0  0  0  0  0
    1.2294    2.3090    3.1499 C   0  0  0  0  0  0  0  0  0  0  0  0
    1.5094    3.4933    4.0480 C   0  0  0  0  0  0  0  0  0  0  0  0
    2.9724    3.7041    3.7102 C   0  0  0  0  0  0  0  0  0  0  0  0
    0.9058    4.7962    3.4340 C   0  0  0  0  0  0  0  0  0  0  0  0
   -5.3286    1.8144   -0.3600 C   0  0  0  0  0  0  0  0  0  0  0  0
   -5.7983    0.6694   -1.0436 C   0  0  0  0  0  0  0  0  0  0  0  0
   -5.8728    0.5165   -2.4727 N   0  0  0  0  0  0  0  0  0  0  0  0
   -7.1523    0.1889   -3.0571 C   0  0  0  0  0  0  0  0  0  0  0  0
   -7.2582   -0.8110   -4.0391 C   0  0  0  0  0  0  0  0  0  0  0  0
   -8.5001   -1.1311   -4.5938 C   0  0  0  0  0  0  0  0  0  0  0  0
   -9.6585   -0.4669   -4.1597 C   0  0  0  0  0  0  0  0  0  0  0  0
  -10.9832   -0.7756   -4.7942 C   0  0  0  0  0  0  0  0  0  0  0  0
   -9.5570    0.5322   -3.1833 C   0  0  0  0  0  0  0  0  0  0  0  0
   -8.3140    0.8516   -2.6300 C   0  0  0  0  0  0  0  0  0  0  0  0
   -4.6818    0.5456   -3.2901 C   0  0  0  0  0  0  0  0  0  0  0  0
   -3.4728    0.0057   -2.8213 C   0  0  0  0  0  0  0  0  0  0  0  0
   -2.3314    0.0258   -3.6278 C   0  0  0  0  0  0  0  0  0  0  0  0
   -2.3841    0.5781   -4.9174 C   0  0  0  0  0  0  0  0  0  0  0  0
   -1.1592    0.5978   -5.7844 C   0  0  0  0  0  0  0  0  0  0  0  0
   -3.5776    1.1529   -5.3725 C   0  0  0  0  0  0  0  0  0  0  0  0
   -4.7185    1.1303   -4.5686 C   0  0  0  0  0  0  0  0  0  0  0  0
   -6.1656   -0.3438   -0.1620 C   0  0  0  0  0  0  0  0  0  0  0  0
   -6.3537   -1.9956   -0.3490 S   0  0  0  0  0  0  0  0  0  0  0  0
   -6.2976   -2.3529    1.3242 C   0  0  0  0  0  0  0  0  0  0  0  0
   -6.1122   -1.1405    2.0183 C   0  0  0  0  0  0  0  0  0  0  0  0
   -6.1697   -0.9970    3.4430 N   0  0  0  0  0  0  0  0  0  0  0  0
   -7.4636   -0.7200    3.9996 C   0  0  0  0  0  0  0  0  0  0  0  0
   -8.4595   -1.7058    3.9800 C   0  0  0  0  0  0  0  0  0  0  0  0
   -9.7457   -1.4123    4.4379 C   0  0  0  0  0  0  0  0  0  0  0  0
  -10.0590   -0.1162    4.8823 C   0  0  0  0  0  0  0  0  0  0  0  0
  -11.4343    0.1946    5.3934 C   0  0  0  0  0  0  0  0  0  0  0  0
   -9.0531    0.8622    4.9281 C   0  0  0  0  0  0  0  0  0  0  0  0
   -7.7612    0.5628    4.4854 C   0  0  0  0  0  0  0  0  0  0  0  0
   -4.9881   -1.0027    4.2776 C   0  0  0  0  0  0  0  0  0  0  0  0
   -5.0879   -1.3608    5.6334 C   0  0  0  0  0  0  0  0  0  0  0  0
   -3.9474   -1.4796    6.4273 C   0  0  0  0  0  0  0  0  0  0  0  0
   -2.6786   -1.2334    5.8852 C   0  0  0  0  0  0  0  0  0  0  0  0
   -1.4601   -1.3336    6.7533 C   0  0  0  0  0  0  0  0  0  0  0  0
   -2.5683   -0.8411    4.5427 C   0  0  0  0  0  0  0  0  0  0  0  0
   -3.7085   -0.7385    3.7413 C   0  0  0  0  0  0  0  0  0  0  0  0
   -6.0417   -0.0536    1.1529 C   0  0  0  0  0  0  0  0  0  0  0  0
   -5.4389    1.4925    1.3181 S   0  0  0  0  0  0  0  0  0  0  0  0
   -5.9468   -3.6916    1.8483 C   0  0  0  0  0  0  0  0  0  0  0  0
   -6.0695   -4.9028    1.1294 C   0  0  0  0  0  0  0  0  0  0  0  0
   -7.0142   -5.0964    0.0089 C   0  0  0  0  0  0  0  0  0  0  0  0
   -6.5661   -5.4862   -1.2631 C   0  0  0  0  0  0  0  0  0  0  0  0
   -7.4754   -5.6202   -2.3147 C   0  0  0  0  0  0  0  0  0  0  0  0
   -8.8327   -5.3660   -2.1092 C   0  0  0  0  0  0  0  0  0  0  0  0
   -9.2967   -4.9805   -0.8434 C   0  0  0  0  0  0  0  0  0  0  0  0
  -10.7533   -4.6748   -0.6251 C   0  0  0  0  0  0  0  0  0  0  0  0
  -11.0520   -3.2113   -0.9376 C   0  0  0  0  0  0  0  0  0  0  0  0
   -8.3777   -4.8272    0.2077 C   0  0  0  0  0  0  0  0  0  0  0  0
   -5.1289   -5.8556    1.5627 C   0  0  0  0  0  0  0  0  0  0  0  0
   -4.3376   -7.0877    0.6952 S   0  0  0  0  0  0  0  0  0  0  0  0
   -2.9932   -7.0622    1.7327 C   0  0  0  0  0  0  0  0  0  0  0  0
   -1.6477   -7.1302    1.4625 C   0  0  0  0  0  0  0  0  0  0  0  0
   -0.9445   -7.8424    0.4860 C   0  0  0  0  0  0  0  0  0  0  0  0
    0.4577   -7.6185    0.3516 C   0  0  0  0  0  0  0  0  0  0  0  0
    1.0989   -8.3184   -0.6151 N   0  0  0  0  0  0  0  0  0  0  0  0
   -0.1691   -9.1920   -1.2218 S   0  0  0  0  0  0  0  0  0  0  0  0
   -1.5062   -8.7441   -0.3534 N   0  0  0  0  0  0  0  0  0  0  0  0
    1.0635   -6.6378    1.1470 C   0  0  0  0  0  0  0  0  0  0  0  0
    2.2659   -6.0180    0.9874 C   0  0  0  0  0  0  0  0  0  0  0  0
    3.5104   -6.0391   -0.1666 S   0  0  0  0  0  0  0  0  0  0  0  0
    4.0531   -4.5082    0.3472 C   0  0  0  0  0  0  0  0  0  0  0  0
    5.0587   -3.6508   -0.1032 C   0  0  0  0  0  0  0  0  0  0  0  0
    5.9318   -3.9175   -1.2681 C   0  0  0  0  0  0  0  0  0  0  0  0
    7.3158   -3.7044   -1.1825 C   0  0  0  0  0  0  0  0  0  0  0  0
    8.1293   -3.8998   -2.3024 C   0  0  0  0  0  0  0  0  0  0  0  0
    7.5650   -4.2970   -3.5174 C   0  0  0  0  0  0  0  0  0  0  0  0
    6.1790   -4.4945   -3.6224 C   0  0  0  0  0  0  0  0  0  0  0  0
    5.5680   -4.9221   -4.9291 C   0  0  0  0  0  0  0  0  0  0  0  0
    5.4602   -6.4407   -5.0042 C   0  0  0  0  0  0  0  0  0  0  0  0
    5.3702   -4.3225   -2.4888 C   0  0  0  0  0  0  0  0  0  0  0  0
    5.0431   -2.4454    0.6240 C   0  0  0  0  0  0  0  0  0  0  0  0
    3.7738   -2.4590    1.7590 S   0  0  0  0  0  0  0  0  0  0  0  0
    3.2596   -4.0041    1.3471 C   0  0  0  0  0  0  0  0  0  0  0  0
    2.2228   -4.8627    1.6997 C   0  0  0  0  0  0  0  0  0  0  0  0
    1.0301   -4.6764    2.3279 N   0  0  0  0  0  0  0  0  0  0  0  0
    0.3352   -5.8380    2.0468 C   0  0  0  0  0  0  0  0  0  0  0  0
   -1.0285   -6.1781    2.2855 C   0  0  0  0  0  0  0  0  0  0  0  0
   -1.9480   -5.6122    3.1177 N   0  0  0  0  0  0  0  0  0  0  0  0
   -3.1362   -6.1210    2.7131 C   0  0  0  0  0  0  0  0  0  0  0  0
   -4.3477   -5.4497    2.6190 C   0  0  0  0  0  0  0  0  0  0  0  0
   -4.7212   -3.8771    3.0043 S   0  0  0  0  0  0  0  0  0  0  0  0
   -1.7137   -4.9393    4.4032 C   0  0  0  0  0  0  0  0  0  0  0  0
   -2.4889   -5.5951    5.5428 C   0  0  0  0  0  0  0  0  0  0  0  0
    0.4882   -3.3410    2.6422 C   0  0  0  0  0  0  0  0  0  0  0  0
   -0.4718   -2.8559    1.5576 C   0  0  0  0  0  0  0  0  0  0  0  0
    5.8566   -1.2609    0.3295 C   0  0  0  0  0  0  0  0  0  0  0  0
    7.0773   -0.6837    1.3255 S   0  0  0  0  0  0  0  0  0  0  0  0
    7.6041    0.5373    0.2903 C   0  0  0  0  0  0  0  0  0  0  0  0
    6.8331    0.4945   -0.8763 C   0  0  0  0  0  0  0  0  0  0  0  0
    6.9596    1.4028   -2.0418 C   0  0  0  0  0  0  0  0  0  0  0  0
    7.8680    2.2739   -2.0838 O   0  0  0  0  0  0  0  0  0  0  0  0
    5.9876    1.2607   -3.1572 C   0  0  0  0  0  0  0  0  0  0  0  0
    5.9222    2.0683   -4.3018 C   0  0  0  0  0  0  0  0  0  0  0  0
    6.8278    3.2263   -4.6377 C   0  0  0  0  0  0  0  0  0  0  0  0
    6.3839    4.0104   -5.8711 C   0  0  0  0  0  0  0  0  0  0  0  0
    4.6403    1.5150   -5.2474 S   0  0  0  0  0  0  0  0  0  0  0  0
    4.1554    0.2624   -4.2407 C   0  0  0  0  0  0  0  0  0  0  0  0
    2.9421   -0.5822   -4.4923 C   0  0  0  0  0  0  0  0  0  0  0  0
    1.7503   -0.0651   -3.6940 C   0  0  0  0  0  0  0  0  0  0  0  0
    4.9921    0.2583   -3.1177 C   0  0  0  0  0  0  0  0  0  0  0  0
    4.8740   -0.6472   -1.9525 C   0  0  0  0  0  0  0  0  0  0  0  0
    3.9524   -1.5028   -1.8882 O   0  0  0  0  0  0  0  0  0  0  0  0
    5.8413   -0.5029   -0.8437 C   0  0  0  0  0  0  0  0  0  0  0  0
    8.7775    1.3847    0.5406 C   0  0  0  0  0  0  0  0  0  0  0  0
    8.8978    2.1912    1.6099 C   0  0  0  0  0  0  0  0  0  0  0  0
    7.7845    2.6385    2.4598 C   0  0  0  0  0  0  0  0  0  0  0  0
    6.6384    2.1263    2.5247 O   0  0  0  0  0  0  0  0  0  0  0  0
    8.1926    3.8420    3.1510 C   0  0  0  0  0  0  0  0  0  0  0  0
    7.3899    4.6541    3.9871 C   0  0  0  0  0  0  0  0  0  0  0  0
    8.0279    5.7897    4.4426 C   0  0  0  0  0  0  0  0  0  0  0  0
    9.3757    6.1227    4.0971 C   0  0  0  0  0  0  0  0  0  0  0  0
   10.1652    5.3388    3.2769 C   0  0  0  0  0  0  0  0  0  0  0  0
    9.5313    4.1554    2.8008 C   0  0  0  0  0  0  0  0  0  0  0  0
   10.0564    3.0860    1.9040 C   0  0  0  0  0  0  0  0  0  0  0  0
   11.3544    2.8426    1.5851 C   0  0  0  0  0  0  0  0  0  0  0  0
   11.7736    1.5847    1.0164 C   0  0  0  0  0  0  0  0  0  0  0  0
   12.1156    0.5720    0.5740 N   0  0  0  0  0  0  0  0  0  0  0  0
   12.4171    3.7714    1.8662 C   0  0  0  0  0  0  0  0  0  0  0  0
   13.2782    4.5132    2.0697 N   0  0  0  0  0  0  0  0  0  0  0  0
    9.2861    7.3943    4.8855 C   0  0  0  0  0  0  0  0  0  0  0  0
    9.1513    8.7319    4.0984 C   0  0  0  0  0  0  0  0  0  0  0  0
    8.4285    8.4913    2.7924 C   0  0  0  0  0  0  0  0  0  0  0  0
    7.1695    8.1836    3.1074 C   0  0  0  0  0  0  0  0  0  0  0  0
    7.0773    8.2263    4.6163 C   0  0  0  0  0  0  0  0  0  0  0  0
    8.0239    9.3818    4.8810 C   0  0  0  0  0  0  0  0  0  0  0  0
    7.9024    7.0573    5.2352 C   0  0  0  0  0  0  0  0  0  0  0  0
   -4.4737    2.8058   -2.0753 H   0  0  0  0  0  0  0  0  0  0  0  0
   -2.2614    4.2993    3.5522 H   0  0  0  0  0  0  0  0  0  0  0  0
    0.4619    4.8229   -0.7360 H   0  0  0  0  0  0  0  0  0  0  0  0
    2.1382    5.9870    2.1120 H   0  0  0  0  0  0  0  0  0  0  0  0
    3.5866    3.9153    1.5748 H   0  0  0  0  0  0  0  0  0  0  0  0
    2.0505    1.7811    1.2254 H   0  0  0  0  0  0  0  0  0  0  0  0
    0.6303    1.4302    3.3807 H   0  0  0  0  0  0  0  0  0  0  0  0
    1.2826    3.3301    5.1231 H   0  0  0  0  0  0  0  0  0  0  0  0
    3.6249    2.8424    3.9934 H   0  0  0  0  0  0  0  0  0  0  0  0
    3.3972    4.6454    4.1412 H   0  0  0  0  0  0  0  0  0  0  0  0
    0.9073    5.6816    4.1109 H   0  0  0  0  0  0  0  0  0  0  0  0
   -6.3783   -1.3475   -4.3726 H   0  0  0  0  0  0  0  0  0  0  0  0
   -8.5572   -1.8966   -5.3574 H   0  0  0  0  0  0  0  0  0  0  0  0
  -11.1199   -0.1339   -5.6904 H   0  0  0  0  0  0  0  0  0  0  0  0
  -11.8108   -0.5836   -4.0853 H   0  0  0  0  0  0  0  0  0  0  0  0
  -11.0279   -1.8402   -5.1036 H   0  0  0  0  0  0  0  0  0  0  0  0
  -10.4380    1.0711   -2.8508 H   0  0  0  0  0  0  0  0  0  0  0  0
   -8.2568    1.6261   -1.8759 H   0  0  0  0  0  0  0  0  0  0  0  0
   -3.4161   -0.4381   -1.8351 H   0  0  0  0  0  0  0  0  0  0  0  0
   -1.4118   -0.4008   -3.2476 H   0  0  0  0  0  0  0  0  0  0  0  0
   -0.5077    1.4458   -5.4891 H   0  0  0  0  0  0  0  0  0  0  0  0
   -0.5981   -0.3542   -5.6806 H   0  0  0  0  0  0  0  0  0  0  0  0
   -1.4327    0.7169   -6.8554 H   0  0  0  0  0  0  0  0  0  0  0  0
   -3.6307    1.6124   -6.3510 H   0  0  0  0  0  0  0  0  0  0  0  0
   -5.6307    1.5866   -4.9369 H   0  0  0  0  0  0  0  0  0  0  0  0
   -8.2355   -2.6989    3.6112 H   0  0  0  0  0  0  0  0  0  0  0  0
  -10.5040   -2.1861    4.4303 H   0  0  0  0  0  0  0  0  0  0  0  0
  -12.1866   -0.4663    4.9138 H   0  0  0  0  0  0  0  0  0  0  0  0
  -11.7019    1.2466    5.1593 H   0  0  0  0  0  0  0  0  0  0  0  0
  -11.4617    0.0436    6.4916 H   0  0  0  0  0  0  0  0  0  0  0  0
   -9.2734    1.8607    5.2893 H   0  0  0  0  0  0  0  0  0  0  0  0
   -6.9978    1.3335    4.4885 H   0  0  0  0  0  0  0  0  0  0  0  0
   -6.0504   -1.5871    6.0742 H   0  0  0  0  0  0  0  0  0  0  0  0
   -4.0517   -1.7752    7.4647 H   0  0  0  0  0  0  0  0  0  0  0  0
   -1.6058   -2.1021    7.5429 H   0  0  0  0  0  0  0  0  0  0  0  0
   -0.5724   -1.6259    6.1532 H   0  0  0  0  0  0  0  0  0  0  0  0
   -1.2705   -0.3526    7.2359 H   0  0  0  0  0  0  0  0  0  0  0  0
   -1.5961   -0.6238    4.1144 H   0  0  0  0  0  0  0  0  0  0  0  0
   -3.5886   -0.4682    2.6997 H   0  0  0  0  0  0  0  0  0  0  0  0
   -5.5147   -5.6555   -1.4513 H   0  0  0  0  0  0  0  0  0  0  0  0
   -7.1248   -5.9166   -3.2947 H   0  0  0  0  0  0  0  0  0  0  0  0
   -9.5244   -5.4699   -2.9369 H   0  0  0  0  0  0  0  0  0  0  0  0
  -11.0395   -4.8884    0.4276 H   0  0  0  0  0  0  0  0  0  0  0  0
  -11.3794   -5.3241   -1.2743 H   0  0  0  0  0  0  0  0  0  0  0  0
  -10.4615   -2.5472   -0.2700 H   0  0  0  0  0  0  0  0  0  0  0  0
  -10.8036   -2.9824   -1.9957 H   0  0  0  0  0  0  0  0  0  0  0  0
  -12.1331   -3.0108   -0.7760 H   0  0  0  0  0  0  0  0  0  0  0  0
   -8.7260   -4.5038    1.1827 H   0  0  0  0  0  0  0  0  0  0  0  0
    7.7672   -3.3918   -0.2494 H   0  0  0  0  0  0  0  0  0  0  0  0
    9.1948   -3.7413   -2.2301 H   0  0  0  0  0  0  0  0  0  0  0  0
    8.2062   -4.4476   -4.3796 H   0  0  0  0  0  0  0  0  0  0  0  0
    4.5545   -4.4776   -5.0397 H   0  0  0  0  0  0  0  0  0  0  0  0
    6.1830   -4.5552   -5.7807 H   0  0  0  0  0  0  0  0  0  0  0  0
    6.4699   -6.9014   -4.9388 H   0  0  0  0  0  0  0  0  0  0  0  0
    4.9967   -6.7347   -5.9694 H   0  0  0  0  0  0  0  0  0  0  0  0
    4.8269   -6.8245   -4.1757 H   0  0  0  0  0  0  0  0  0  0  0  0
    4.3008   -4.4672   -2.5697 H   0  0  0  0  0  0  0  0  0  0  0  0
   -0.6411   -5.0296    4.6800 H   0  0  0  0  0  0  0  0  0  0  0  0
   -2.0170   -3.8737    4.3263 H   0  0  0  0  0  0  0  0  0  0  0  0
   -2.2653   -6.6829    5.5865 H   0  0  0  0  0  0  0  0  0  0  0  0
   -3.5789   -5.4459    5.4103 H   0  0  0  0  0  0  0  0  0  0  0  0
   -2.1921   -5.1331    6.5082 H   0  0  0  0  0  0  0  0  0  0  0  0
    0.0254   -3.2975    3.6316 H   0  0  0  0  0  0  0  0  0  0  0  0
    1.3030   -2.6007    2.7302 H   0  0  0  0  0  0  0  0  0  0  0  0
   -1.3788   -3.4935    1.5153 H   0  0  0  0  0  0  0  0  0  0  0  0
   -0.7881   -1.8136    1.7833 H   0  0  0  0  0  0  0  0  0  0  0  0
    0.0332   -2.8717    0.5670 H   0  0  0  0  0  0  0  0  0  0  0  0
    6.8526    3.9289   -3.7775 H   0  0  0  0  0  0  0  0  0  0  0  0
    7.8559    2.8425   -4.8096 H   0  0  0  0  0  0  0  0  0  0  0  0
    6.3827    3.3569   -6.7701 H   0  0  0  0  0  0  0  0  0  0  0  0
    5.3662    4.4312   -5.7166 H   0  0  0  0  0  0  0  0  0  0  0  0
    7.0907    4.8483   -6.0513 H   0  0  0  0  0  0  0  0  0  0  0  0
    3.1473   -1.6428   -4.2348 H   0  0  0  0  0  0  0  0  0  0  0  0
    2.6860   -0.5531   -5.5742 H   0  0  0  0  0  0  0  0  0  0  0  0
    1.9888    0.0017   -2.6116 H   0  0  0  0  0  0  0  0  0  0  0  0
    0.8959   -0.7607   -3.8182 H   0  0  0  0  0  0  0  0  0  0  0  0
    1.4568    0.9430   -4.0556 H   0  0  0  0  0  0  0  0  0  0  0  0
    9.5498    1.3715   -0.2158 H   0  0  0  0  0  0  0  0  0  0  0  0
    6.3584    4.4252    4.2249 H   0  0  0  0  0  0  0  0  0  0  0  0
   11.1582    5.6563    3.0083 H   0  0  0  0  0  0  0  0  0  0  0  0
    9.9744    7.4325    5.7581 H   0  0  0  0  0  0  0  0  0  0  0  0
   10.0842    9.3304    4.0160 H   0  0  0  0  0  0  0  0  0  0  0  0
    8.8228    8.6188    1.7921 H   0  0  0  0  0  0  0  0  0  0  0  0
    6.3612    8.0139    2.4018 H   0  0  0  0  0  0  0  0  0  0  0  0
    6.0530    8.3495    5.0201 H   0  0  0  0  0  0  0  0  0  0  0  0
    8.2599    9.5272    5.9618 H   0  0  0  0  0  0  0  0  0  0  0  0
    7.6789   10.3494    4.4433 H   0  0  0  0  0  0  0  0  0  0  0  0
    7.7451    6.8973    6.3252 H   0  0  0  0  0  0  0  0  0  0  0  0
  1  2  2  3
  2  3  1  0
  3  4  2  0
  3  5  1  0
  5  6  2  0
  6  7  1  0
  7  8  2  0
  8  9  1  0
  9 10  2  0
 10 11  1  0
 11 12  2  3
 12 13  1  0
 13 14  3  0
 12 15  1  0
 15 16  3  0
  8 17  1  0
 17 18  1  0
 18 19  1  0
 19 20  2  0
 20 21  1  0
 21 22  1  0
 21 23  1  0
  1 24  1  0
 24 25  2  0
 25 26  1  0
 26 27  1  0
 27 28  2  0
 28 29  1  0
 29 30  2  0
 30 31  1  0
 30 32  1  0
 32 33  2  0
 26 34  1  0
 34 35  2  0
 35 36  1  0
 36 37  2  0
 37 38  1  0
 37 39  1  0
 39 40  2  0
 25 41  1  0
 41 42  1  0
 42 43  1  0
 43 44  2  0
 44 45  1  0
 45 46  1  0
 46 47  2  0
 47 48  1  0
 48 49  2  0
 49 50  1  0
 49 51  1  0
 51 52  2  0
 45 53  1  0
 53 54  2  0
 54 55  1  0
 55 56  2  0
 56 57  1  0
 56 58  1  0
 58 59  2  0
 44 60  1  0
 60 61  1  0
 43 62  1  0
 62 63  2  0
 63 64  1  0
 64 65  2  0
 65 66  1  0
 66 67  2  0
 67 68  1  0
 68 69  1  0
 69 70  1  0
 68 71  2  0
 63 72  1  0
 72 73  1  0
 73 74  1  0
 74 75  1  0
 75 76  1  0
 76 77  1  0
 77 78  2  0
 78 79  1  0
 79 80  1  0
 77 81  1  0
 81 82  1  0
 82 83  1  0
 83 84  1  0
 84 85  1  0
 85 86  1  0
 86 87  2  0
 87 88  1  0
 88 89  2  0
 89 90  1  0
 90 91  1  0
 91 92  1  0
 90 93  2  0
 85 94  2  0
 94 95  1  0
 95 96  1  0
 96 97  1  0
 97 98  1  0
 98 99  1  0
 99100  1  0
100101  1  0
101102  1  0
102103  1  0
103104  1  0
101105  1  0
105106  1  0
 98107  1  0
107108  1  0
 94109  1  0
109110  1  0
110111  1  0
111112  2  0
112113  1  0
113114  2  0
113115  1  0
115116  2  0
116117  1  0
117118  1  0
116119  1  0
119120  1  0
120121  1  0
121122  1  0
120123  2  0
123124  1  0
124125  2  0
124126  1  0
111127  1  0
127128  2  3
128129  1  0
129130  2  0
129131  1  0
131132  2  0
132133  1  0
133134  2  0
134135  1  0
135136  2  0
136137  1  0
137138  2  3
138139  1  0
139140  3  0
138141  1  0
141142  3  0
134143  1  0
143144  1  0
144145  1  0
145146  2  0
146147  1  0
147148  1  0
147149  1  0
 11  2  1  0
 23 17  1  0
 61 24  1  0
104 62  1  0
126109  2  0
137128  1  0
149143  1  0
 10  5  1  0
 22 18  1  0
 33 27  1  0
 40 34  1  0
 60 41  2  0
 71 64  1  0
103 72  2  0
126112  1  0
136131  1  0
148144  1  0
 23  7  1  0
 52 46  1  0
 59 53  1  0
102 74  2  0
123115  1  0
149133  1  0
100 75  2  0
 80 76  2  0
 99 81  2  0
 97 82  2  0
 96 84  2  0
 93 86  1  0
  1150  1  0
  6151  1  0
  9152  1  0
 17153  1  0
 18154  1  0
 19155  1  0
 20156  1  0
 21157  1  0
 22158  1  0
 22159  1  0
 23160  1  0
 28161  1  0
 29162  1  0
 31163  1  0
 31164  1  0
 31165  1  0
 32166  1  0
 33167  1  0
 35168  1  0
 36169  1  0
 38170  1  0
 38171  1  0
 38172  1  0
 39173  1  0
 40174  1  0
 47175  1  0
 48176  1  0
 50177  1  0
 50178  1  0
 50179  1  0
 51180  1  0
 52181  1  0
 54182  1  0
 55183  1  0
 57184  1  0
 57185  1  0
 57186  1  0
 58187  1  0
 59188  1  0
 65189  1  0
 66190  1  0
 67191  1  0
 69192  1  0
 69193  1  0
 70194  1  0
 70195  1  0
 70196  1  0
 71197  1  0
 87198  1  0
 88199  1  0
 89200  1  0
 91201  1  0
 91202  1  0
 92203  1  0
 92204  1  0
 92205  1  0
 93206  1  0
105207  1  0
105208  1  0
106209  1  0
106210  1  0
106211  1  0
107212  1  0
107213  1  0
108214  1  0
108215  1  0
108216  1  0
117217  1  0
117218  1  0
118219  1  0
118220  1  0
118221  1  0
121222  1  0
121223  1  0
122224  1  0
122225  1  0
122226  1  0
127227  1  0
132228  1  0
135229  1  0
143230  1  0
144231  1  0
145232  1  0
146233  1  0
147234  1  0
148235  1  0
148236  1  0
149237  1  0
M  END

