
     RDKit          3D

229254  0  0  0  0  0  0  0  0999 V2000
    3.5685   -1.4405   -6.4630 C   0  0  0  0  0  0  0  0  0  0  0  0
    4.3162   -0.3229   -6.4143 C   0  0  0  0  0  0  0  0  0  0  0  0
    5.7143   -0.3021   -6.8383 C   0  0  0  0  0  0  0  0  0  0  0  0
    6.2771   -1.1529   -7.5783 O   0  0  0  0  0  0  0  0  0  0  0  0
    6.3695    0.8358   -6.2296 C   0  0  0  0  0  0  0  0  0  0  0  0
    7.7120    1.2508   -6.4026 C   0  0  0  0  0  0  0  0  0  0  0  0
    8.0209    2.4309   -5.7507 C   0  0  0  0  0  0  0  0  0  0  0  0
    7.0700    3.1671   -4.9767 C   0  0  0  0  0  0  0  0  0  0  0  0
    5.7564    2.7715   -4.8058 C   0  0  0  0  0  0  0  0  0  0  0  0
    5.4185    1.5523   -5.4543 C   0  0  0  0  0  0  0  0  0  0  0  0
    4.0872    0.9118   -5.6014 C   0  0  0  0  0  0  0  0  0  0  0  0
    2.9163    1.5539   -5.4025 C   0  0  0  0  0  0  0  0  0  0  0  0
    1.8639    1.5319   -6.3764 C   0  0  0  0  0  0  0  0  0  0  0  0
    1.0060    1.5520   -7.1579 N   0  0  0  0  0  0  0  0  0  0  0  0
    2.7198    2.4398   -4.2904 C   0  0  0  0  0  0  0  0  0  0  0  0
    2.5522    3.1512   -3.3871 N   0  0  0  0  0  0  0  0  0  0  0  0
    8.0861    4.2240   -4.6884 C   0  0  0  0  0  0  0  0  0  0  0  0
    7.9596    5.5786   -5.4533 C   0  0  0  0  0  0  0  0  0  0  0  0
    7.3590    5.3494   -6.8226 C   0  0  0  0  0  0  0  0  0  0  0  0
    8.2625    4.6691   -7.5298 C   0  0  0  0  0  0  0  0  0  0  0  0
    9.4504    4.4561   -6.6204 C   0  0  0  0  0  0  0  0  0  0  0  0
    9.4082    5.7735   -5.8633 C   0  0  0  0  0  0  0  0  0  0  0  0
    9.0703    3.4701   -5.4722 C   0  0  0  0  0  0  0  0  0  0  0  0
    2.2861   -1.5701   -5.7626 C   0  0  0  0  0  0  0  0  0  0  0  0
    1.0098   -1.3946   -6.3409 C   0  0  0  0  0  0  0  0  0  0  0  0
    0.6985   -1.4913   -7.7571 N   0  0  0  0  0  0  0  0  0  0  0  0
   -0.6525   -1.7129   -8.1957 C   0  0  0  0  0  0  0  0  0  0  0  0
   -1.1892   -0.9266   -9.2243 C   0  0  0  0  0  0  0  0  0  0  0  0
   -2.4635   -1.2048   -9.7312 C   0  0  0  0  0  0  0  0  0  0  0  0
   -3.2116   -2.2725   -9.2145 C   0  0  0  0  0  0  0  0  0  0  0  0
   -4.5380   -2.6325   -9.8118 C   0  0  0  0  0  0  0  0  0  0  0  0
   -2.6774   -3.0544   -8.1827 C   0  0  0  0  0  0  0  0  0  0  0  0
   -1.4045   -2.7807   -7.6782 C   0  0  0  0  0  0  0  0  0  0  0  0
    1.7238   -1.8066   -8.7135 C   0  0  0  0  0  0  0  0  0  0  0  0
    2.0143   -3.1482   -9.0060 C   0  0  0  0  0  0  0  0  0  0  0  0
    3.0658   -3.4674   -9.8658 C   0  0  0  0  0  0  0  0  0  0  0  0
    3.8320   -2.4515  -10.4517 C   0  0  0  0  0  0  0  0  0  0  0  0
    5.0042   -2.7904  -11.3272 C   0  0  0  0  0  0  0  0  0  0  0  0
    3.5306   -1.1091  -10.1755 C   0  0  0  0  0  0  0  0  0  0  0  0
    2.4725   -0.7890   -9.3182 C   0  0  0  0  0  0  0  0  0  0  0  0
    0.0872   -1.0517   -5.3453 C   0  0  0  0  0  0  0  0  0  0  0  0
   -1.4113   -0.2876   -5.3536 S   0  0  0  0  0  0  0  0  0  0  0  0
   -1.4673   -0.0798   -3.6616 C   0  0  0  0  0  0  0  0  0  0  0  0
   -0.3086   -0.6251   -3.0859 C   0  0  0  0  0  0  0  0  0  0  0  0
   -0.2307   -1.0263   -1.7025 N   0  0  0  0  0  0  0  0  0  0  0  0
   -1.3312   -1.7632   -1.1272 C   0  0  0  0  0  0  0  0  0  0  0  0
   -1.7095   -1.5496    0.2078 C   0  0  0  0  0  0  0  0  0  0  0  0
   -2.7964   -2.2456    0.7543 C   0  0  0  0  0  0  0  0  0  0  0  0
   -3.5016   -3.1780   -0.0217 C   0  0  0  0  0  0  0  0  0  0  0  0
   -4.6885   -3.8914    0.5488 C   0  0  0  0  0  0  0  0  0  0  0  0
   -3.1369   -3.3802   -1.3613 C   0  0  0  0  0  0  0  0  0  0  0  0
   -2.0505   -2.6927   -1.9031 C   0  0  0  0  0  0  0  0  0  0  0  0
    1.0224   -0.9949   -1.0016 C   0  0  0  0  0  0  0  0  0  0  0  0
    1.6541   -2.1952   -0.6461 C   0  0  0  0  0  0  0  0  0  0  0  0
    2.8437   -2.1767    0.0869 C   0  0  0  0  0  0  0  0  0  0  0  0
    3.4102   -0.9539    0.4792 C   0  0  0  0  0  0  0  0  0  0  0  0
    4.6554   -0.9498    1.3182 C   0  0  0  0  0  0  0  0  0  0  0  0
    2.7724    0.2502    0.1306 C   0  0  0  0  0  0  0  0  0  0  0  0
    1.5909    0.2280   -0.6194 C   0  0  0  0  0  0  0  0  0  0  0  0
    0.5513   -1.1038   -4.0664 C   0  0  0  0  0  0  0  0  0  0  0  0
    2.1794   -1.4771   -4.0632 S   0  0  0  0  0  0  0  0  0  0  0  0
   -2.4784    0.6851   -2.9094 C   0  0  0  0  0  0  0  0  0  0  0  0
   -3.8760    0.5459   -2.9953 C   0  0  0  0  0  0  0  0  0  0  0  0
   -4.5908   -0.1733   -4.0566 C   0  0  0  0  0  0  0  0  0  0  0  0
   -5.3457   -1.3208   -3.7769 C   0  0  0  0  0  0  0  0  0  0  0  0
   -6.0727   -1.9451   -4.7938 C   0  0  0  0  0  0  0  0  0  0  0  0
   -6.0594   -1.4210   -6.0913 C   0  0  0  0  0  0  0  0  0  0  0  0
   -5.3131   -0.2644   -6.3782 C   0  0  0  0  0  0  0  0  0  0  0  0
   -5.3088    0.3322   -7.7606 C   0  0  0  0  0  0  0  0  0  0  0  0
   -6.0666    1.6563   -7.7958 C   0  0  0  0  0  0  0  0  0  0  0  0
   -4.5831    0.3520   -5.3546 C   0  0  0  0  0  0  0  0  0  0  0  0
   -4.5103    1.2373   -1.9609 C   0  0  0  0  0  0  0  0  0  0  0  0
   -6.0829    1.1463   -1.2910 S   0  0  0  0  0  0  0  0  0  0  0  0
   -5.5997    2.0841    0.0412 C   0  0  0  0  0  0  0  0  0  0  0  0
   -5.9833    2.2600    1.3454 C   0  0  0  0  0  0  0  0  0  0  0  0
   -7.1580    1.9355    2.0220 C   0  0  0  0  0  0  0  0  0  0  0  0
   -7.1845    2.0655    3.4445 C   0  0  0  0  0  0  0  0  0  0  0  0
   -8.3353    1.7100    4.0671 N   0  0  0  0  0  0  0  0  0  0  0  0
   -9.2504    1.2804    2.7522 S   0  0  0  0  0  0  0  0  0  0  0  0
   -8.2900    1.4924    1.4176 N   0  0  0  0  0  0  0  0  0  0  0  0
   -6.0151    2.4530    4.1202 C   0  0  0  0  0  0  0  0  0  0  0  0
   -5.6653    2.2619    5.4318 C   0  0  0  0  0  0  0  0  0  0  0  0
   -6.3102    1.3156    6.6923 S   0  0  0  0  0  0  0  0  0  0  0  0
   -4.7725    1.0577    7.3826 C   0  0  0  0  0  0  0  0  0  0  0  0
   -4.2707    0.2028    8.3854 C   0  0  0  0  0  0  0  0  0  0  0  0
   -5.0962   -0.6419    9.2803 C   0  0  0  0  0  0  0  0  0  0  0  0
   -4.7550   -0.7627   10.6375 C   0  0  0  0  0  0  0  0  0  0  0  0
   -5.5255   -1.5535   11.4911 C   0  0  0  0  0  0  0  0  0  0  0  0
   -6.6466   -2.2305   11.0034 C   0  0  0  0  0  0  0  0  0  0  0  0
   -7.0048   -2.1196    9.6513 C   0  0  0  0  0  0  0  0  0  0  0  0
   -8.1880   -2.8769    9.1135 C   0  0  0  0  0  0  0  0  0  0  0  0
   -7.7646   -4.2516    8.6106 C   0  0  0  0  0  0  0  0  0  0  0  0
   -6.2190   -1.3337    8.7920 C   0  0  0  0  0  0  0  0  0  0  0  0
   -2.8578    0.2248    8.3991 C   0  0  0  0  0  0  0  0  0  0  0  0
   -2.3029    1.2461    7.1648 S   0  0  0  0  0  0  0  0  0  0  0  0
   -3.8144    1.6750    6.6225 C   0  0  0  0  0  0  0  0  0  0  0  0
   -4.3046    2.3168    5.4886 C   0  0  0  0  0  0  0  0  0  0  0  0
   -3.7329    2.5166    4.2674 N   0  0  0  0  0  0  0  0  0  0  0  0
   -4.8110    2.6925    3.4328 C   0  0  0  0  0  0  0  0  0  0  0  0
   -4.8306    2.7058    2.0144 C   0  0  0  0  0  0  0  0  0  0  0  0
   -3.8000    2.9007    1.1434 N   0  0  0  0  0  0  0  0  0  0  0  0
   -4.2943    2.4424   -0.0267 C   0  0  0  0  0  0  0  0  0  0  0  0
   -3.6661    1.9477   -1.1481 C   0  0  0  0  0  0  0  0  0  0  0  0
   -2.0759    1.6754   -1.5741 S   0  0  0  0  0  0  0  0  0  0  0  0
   -2.7311    3.9117    1.2435 C   0  0  0  0  0  0  0  0  0  0  0  0
   -2.9622    5.0791    0.2843 C   0  0  0  0  0  0  0  0  0  0  0  0
   -2.4239    1.9470    3.8871 C   0  0  0  0  0  0  0  0  0  0  0  0
   -2.5767    0.5058    3.3932 C   0  0  0  0  0  0  0  0  0  0  0  0
   -1.9465   -0.8001    8.9306 C   0  0  0  0  0  0  0  0  0  0  0  0
   -0.6866   -0.3809    9.4061 C   0  0  0  0  0  0  0  0  0  0  0  0
    0.4168   -1.2262    9.2427 C   0  0  0  0  0  0  0  0  0  0  0  0
    1.8850   -0.8452    9.3194 C   0  0  0  0  0  0  0  0  0  0  0  0
    2.3954   -0.8699   10.7859 C   0  0  0  0  0  0  0  0  0  0  0  0
    2.1632   -2.1979   11.5200 C   0  0  0  0  0  0  0  0  0  0  0  0
    2.1780    0.5505    8.6920 C   0  0  0  0  0  0  0  0  0  0  0  0
    1.5834    0.7623    7.2928 C   0  0  0  0  0  0  0  0  0  0  0  0
    2.4988   -1.9742    8.5083 C   0  0  0  0  0  0  0  0  0  0  0  0
    1.5532   -2.9408    8.2035 C   0  0  0  0  0  0  0  0  0  0  0  0
    0.2568   -2.4804    8.6708 C   0  0  0  0  0  0  0  0  0  0  0  0
   -1.0068   -2.9746    8.3436 C   0  0  0  0  0  0  0  0  0  0  0  0
   -2.1165   -2.1320    8.4931 C   0  0  0  0  0  0  0  0  0  0  0  0
    1.8473   -4.0046    7.3489 C   0  0  0  0  0  0  0  0  0  0  0  0
    3.1198   -4.0648    6.7663 C   0  0  0  0  0  0  0  0  0  0  0  0
    4.0672   -3.0450    7.0036 C   0  0  0  0  0  0  0  0  0  0  0  0
    3.7755   -2.0230    7.9302 C   0  0  0  0  0  0  0  0  0  0  0  0
    5.3369   -3.0459    6.2497 C   0  0  0  0  0  0  0  0  0  0  0  0
    5.7121   -2.0523    5.4147 C   0  0  0  0  0  0  0  0  0  0  0  0
    4.9905   -0.7931    5.1891 C   0  0  0  0  0  0  0  0  0  0  0  0
    3.7826   -0.5574    5.4631 O   0  0  0  0  0  0  0  0  0  0  0  0
    5.8780    0.1354    4.5320 C   0  0  0  0  0  0  0  0  0  0  0  0
    5.6389    1.4732    4.2150 C   0  0  0  0  0  0  0  0  0  0  0  0
    6.6658    2.2052    3.6012 C   0  0  0  0  0  0  0  0  0  0  0  0
    6.4689    3.5074    3.2843 F   0  0  0  0  0  0  0  0  0  0  0  0
    7.9107    1.6022    3.3506 C   0  0  0  0  0  0  0  0  0  0  0  0
    8.1298    0.2546    3.6842 C   0  0  0  0  0  0  0  0  0  0  0  0
    7.0789   -0.4892    4.2523 C   0  0  0  0  0  0  0  0  0  0  0  0
    7.0091   -1.9191    4.6726 C   0  0  0  0  0  0  0  0  0  0  0  0
    7.8095   -2.9273    4.2375 C   0  0  0  0  0  0  0  0  0  0  0  0
    7.4727   -4.3137    4.4256 C   0  0  0  0  0  0  0  0  0  0  0  0
    7.2042   -5.4312    4.5674 N   0  0  0  0  0  0  0  0  0  0  0  0
    8.9360   -2.7004    3.3698 C   0  0  0  0  0  0  0  0  0  0  0  0
    9.8310   -2.5291    2.6559 N   0  0  0  0  0  0  0  0  0  0  0  0
    3.9391   -2.3057   -7.0035 H   0  0  0  0  0  0  0  0  0  0  0  0
    8.4318    0.7133   -7.0086 H   0  0  0  0  0  0  0  0  0  0  0  0
    5.0695    3.3857   -4.2475 H   0  0  0  0  0  0  0  0  0  0  0  0
    8.3462    4.3176   -3.6101 H   0  0  0  0  0  0  0  0  0  0  0  0
    7.5077    6.4138   -4.8749 H   0  0  0  0  0  0  0  0  0  0  0  0
    6.4059    5.7129   -7.1908 H   0  0  0  0  0  0  0  0  0  0  0  0
    8.1746    4.3844   -8.5728 H   0  0  0  0  0  0  0  0  0  0  0  0
   10.4058    4.2321   -7.1375 H   0  0  0  0  0  0  0  0  0  0  0  0
    9.5707    6.6687   -6.5119 H   0  0  0  0  0  0  0  0  0  0  0  0
   10.1082    5.8100   -4.9969 H   0  0  0  0  0  0  0  0  0  0  0  0
    9.9305    3.0939   -4.8718 H   0  0  0  0  0  0  0  0  0  0  0  0
   -0.6137   -0.1122   -9.6466 H   0  0  0  0  0  0  0  0  0  0  0  0
   -2.8579   -0.5929  -10.5339 H   0  0  0  0  0  0  0  0  0  0  0  0
   -4.9300   -1.8116  -10.4525 H   0  0  0  0  0  0  0  0  0  0  0  0
   -5.2790   -2.8297   -9.0068 H   0  0  0  0  0  0  0  0  0  0  0  0
   -4.4267   -3.5477  -10.4321 H   0  0  0  0  0  0  0  0  0  0  0  0
   -3.2347   -3.8946   -7.7887 H   0  0  0  0  0  0  0  0  0  0  0  0
   -0.9944   -3.4054   -6.8954 H   0  0  0  0  0  0  0  0  0  0  0  0
    1.4451   -3.9407   -8.5344 H   0  0  0  0  0  0  0  0  0  0  0  0
    3.2922   -4.5101  -10.0558 H   0  0  0  0  0  0  0  0  0  0  0  0
    5.0114   -2.1403  -12.2265 H   0  0  0  0  0  0  0  0  0  0  0  0
    5.9451   -2.6360  -10.7588 H   0  0  0  0  0  0  0  0  0  0  0  0
    4.9637   -3.8485  -11.6627 H   0  0  0  0  0  0  0  0  0  0  0  0
    4.1221   -0.3143  -10.6135 H   0  0  0  0  0  0  0  0  0  0  0  0
    2.2606    0.2517   -9.1049 H   0  0  0  0  0  0  0  0  0  0  0  0
   -1.1760   -0.8313    0.8193 H   0  0  0  0  0  0  0  0  0  0  0  0
   -3.0800   -2.0575    1.7834 H   0  0  0  0  0  0  0  0  0  0  0  0
   -4.8846   -4.8367   -0.0041 H   0  0  0  0  0  0  0  0  0  0  0  0
   -5.5835   -3.2380    0.4746 H   0  0  0  0  0  0  0  0  0  0  0  0
   -4.5113   -4.1500    1.6137 H   0  0  0  0  0  0  0  0  0  0  0  0
   -3.6913   -4.0680   -1.9902 H   0  0  0  0  0  0  0  0  0  0  0  0
   -1.7782   -2.8775   -2.9365 H   0  0  0  0  0  0  0  0  0  0  0  0
    1.2222   -3.1458   -0.9426 H   0  0  0  0  0  0  0  0  0  0  0  0
    3.3235   -3.1137    0.3489 H   0  0  0  0  0  0  0  0  0  0  0  0
    4.4031   -1.2636    2.3521 H   0  0  0  0  0  0  0  0  0  0  0  0
    5.1224    0.0552    1.3498 H   0  0  0  0  0  0  0  0  0  0  0  0
    5.3987   -1.6626    0.9000 H   0  0  0  0  0  0  0  0  0  0  0  0
    3.1809    1.2058    0.4536 H   0  0  0  0  0  0  0  0  0  0  0  0
    1.1010    1.1592   -0.8793 H   0  0  0  0  0  0  0  0  0  0  0  0
   -5.3701   -1.7260   -2.7719 H   0  0  0  0  0  0  0  0  0  0  0  0
   -6.6568   -2.8304   -4.5758 H   0  0  0  0  0  0  0  0  0  0  0  0
   -6.6362   -1.9104   -6.8673 H   0  0  0  0  0  0  0  0  0  0  0  0
   -5.7763   -0.3622   -8.4909 H   0  0  0  0  0  0  0  0  0  0  0  0
   -4.2587    0.5074   -8.0817 H   0  0  0  0  0  0  0  0  0  0  0  0
   -7.1307    1.4960   -7.5207 H   0  0  0  0  0  0  0  0  0  0  0  0
   -6.0220    2.0863   -8.8189 H   0  0  0  0  0  0  0  0  0  0  0  0
   -5.6080    2.3848   -7.0956 H   0  0  0  0  0  0  0  0  0  0  0  0
   -4.0173    1.2520   -5.5676 H   0  0  0  0  0  0  0  0  0  0  0  0
   -3.9025   -0.2301   11.0406 H   0  0  0  0  0  0  0  0  0  0  0  0
   -5.2613   -1.6386   12.5365 H   0  0  0  0  0  0  0  0  0  0  0  0
   -7.2333   -2.8471   11.6791 H   0  0  0  0  0  0  0  0  0  0  0  0
   -8.6545   -2.3102    8.2821 H   0  0  0  0  0  0  0  0  0  0  0  0
   -8.9607   -2.9967    9.9019 H   0  0  0  0  0  0  0  0  0  0  0  0
   -6.9769   -4.1538    7.8310 H   0  0  0  0  0  0  0  0  0  0  0  0
   -8.6422   -4.7757    8.1770 H   0  0  0  0  0  0  0  0  0  0  0  0
   -7.3689   -4.8606    9.4521 H   0  0  0  0  0  0  0  0  0  0  0  0
   -6.4689   -1.2910    7.7371 H   0  0  0  0  0  0  0  0  0  0  0  0
   -2.7094    4.3484    2.2666 H   0  0  0  0  0  0  0  0  0  0  0  0
   -1.7470    3.4442    1.0156 H   0  0  0  0  0  0  0  0  0  0  0  0
   -3.9417    5.5597    0.4924 H   0  0  0  0  0  0  0  0  0  0  0  0
   -2.1546    5.8307    0.4142 H   0  0  0  0  0  0  0  0  0  0  0  0
   -2.9372    4.7309   -0.7673 H   0  0  0  0  0  0  0  0  0  0  0  0
   -1.7228    1.9806    4.7385 H   0  0  0  0  0  0  0  0  0  0  0  0
   -1.9088    2.5409    3.1279 H   0  0  0  0  0  0  0  0  0  0  0  0
   -1.5917    0.0043    3.3858 H   0  0  0  0  0  0  0  0  0  0  0  0
   -2.9776    0.5028    2.3614 H   0  0  0  0  0  0  0  0  0  0  0  0
   -3.2560   -0.0609    4.0610 H   0  0  0  0  0  0  0  0  0  0  0  0
   -0.5328    0.6505    9.7055 H   0  0  0  0  0  0  0  0  0  0  0  0
    3.4862   -0.6542   10.7959 H   0  0  0  0  0  0  0  0  0  0  0  0
    1.8893   -0.0650   11.3634 H   0  0  0  0  0  0  0  0  0  0  0  0
    2.5606   -2.1166   12.5550 H   0  0  0  0  0  0  0  0  0  0  0  0
    2.6924   -3.0308   11.0095 H   0  0  0  0  0  0  0  0  0  0  0  0
    1.0781   -2.4270   11.5829 H   0  0  0  0  0  0  0  0  0  0  0  0
    1.7885    1.3517    9.3536 H   0  0  0  0  0  0  0  0  0  0  0  0
    3.2771    0.7034    8.6385 H   0  0  0  0  0  0  0  0  0  0  0  0
    2.1612    1.5508    6.7618 H   0  0  0  0  0  0  0  0  0  0  0  0
    0.5320    1.1000    7.3688 H   0  0  0  0  0  0  0  0  0  0  0  0
    1.6069   -0.1685    6.6895 H   0  0  0  0  0  0  0  0  0  0  0  0
   -1.1173   -3.9399    7.8704 H   0  0  0  0  0  0  0  0  0  0  0  0
   -3.0686   -2.4581    8.0964 H   0  0  0  0  0  0  0  0  0  0  0  0
    1.0938   -4.7352    7.0898 H   0  0  0  0  0  0  0  0  0  0  0  0
    3.3451   -4.8644    6.0729 H   0  0  0  0  0  0  0  0  0  0  0  0
    4.4969   -1.2387    8.1207 H   0  0  0  0  0  0  0  0  0  0  0  0
    5.9624   -3.9106    6.4015 H   0  0  0  0  0  0  0  0  0  0  0  0
    4.6892    1.9404    4.4422 H   0  0  0  0  0  0  0  0  0  0  0  0
    8.7058    2.1808    2.8978 H   0  0  0  0  0  0  0  0  0  0  0  0
    9.1063   -0.1639    3.5121 H   0  0  0  0  0  0  0  0  0  0  0  0
  1  2  2  3
  2  3  1  0
  3  4  2  0
  3  5  1  0
  5  6  2  0
  6  7  1  0
  7  8  2  0
  8  9  1  0
  9 10  2  0
 10 11  1  0
 11 12  2  3
 12 13  1  0
 13 14  3  0
 12 15  1  0
 15 16  3  0
  8 17  1  0
 17 18  1  0
 18 19  1  0
 19 20  2  0
 20 21  1  0
 21 22  1  0
 21 23  1  0
  1 24  1  0
 24 25  2  0
 25 26  1  0
 26 27  1  0
 27 28  2  0
 28 29  1  0
 29 30  2  0
 30 31  1  0
 30 32  1  0
 32 33  2  0
 26 34  1  0
 34 35  2  0
 35 36  1  0
 36 37  2  0
 37 38  1  0
 37 39  1  0
 39 40  2  0
 25 41  1  0
 41 42  1  0
 42 43  1  0
 43 44  2  0
 44 45  1  0
 45 46  1  0
 46 47  2  0
 47 48  1  0
 48 49  2  0
 49 50  1  0
 49 51  1  0
 51 52  2  0
 45 53  1  0
 53 54  2  0
 54 55  1  0
 55 56  2  0
 56 57  1  0
 56 58  1  0
 58 59  2  0
 44 60  1  0
 60 61  1  0
 43 62  1  0
 62 63  2  0
 63 64  1  0
 64 65  2  0
 65 66  1  0
 66 67  2  0
 67 68  1  0
 68 69  1  0
 69 70  1  0
 68 71  2  0
 63 72  1  0
 72 73  1  0
 73 74  1  0
 74 75  1  0
 75 76  1  0
 76 77  1  0
 77 78  2  0
 78 79  1  0
 79 80  1  0
 77 81  1  0
 81 82  1  0
 82 83  1  0
 83 84  1  0
 84 85  1  0
 85 86  1  0
 86 87  2  0
 87 88  1  0
 88 89  2  0
 89 90  1  0
 90 91  1  0
 91 92  1  0
 90 93  2  0
 85 94  2  0
 94 95  1  0
 95 96  1  0
 96 97  1  0
 97 98  1  0
 98 99  1  0
 99100  1  0
100101  1  0
101102  1  0
102103  1  0
103104  1  0
101105  1  0
105106  1  0
 98107  1  0
107108  1  0
 94109  1  0
109110  2  0
110111  1  0
111112  1  0
112113  1  0
113114  1  0
112115  1  0
115116  1  0
112117  1  0
117118  2  0
118119  1  0
119120  1  0
120121  2  0
118122  1  0
122123  2  0
123124  1  0
124125  2  0
124126  1  0
126127  2  3
127128  1  0
128129  2  0
128130  1  0
130131  2  0
131132  1  0
132133  1  0
132134  2  0
134135  1  0
135136  2  0
136137  1  0
137138  2  3
138139  1  0
139140  3  0
138141  1  0
141142  3  0
 11  2  1  0
 23 17  1  0
 61 24  1  0
104 62  1  0
121109  1  0
137127  1  0
 10  5  1  0
 22 18  1  0
 33 27  1  0
 40 34  1  0
 60 41  2  0
 71 64  1  0
103 72  2  0
119111  2  0
136130  1  0
 23  7  1  0
 52 46  1  0
 59 53  1  0
102 74  2  0
125117  1  0
100 75  2  0
 80 76  2  0
 99 81  2  0
 97 82  2  0
 96 84  2  0
 93 86  1  0
  1143  1  0
  6144  1  0
  9145  1  0
 17146  1  0
 18147  1  0
 19148  1  0
 20149  1  0
 21150  1  0
 22151  1  0
 22152  1  0
 23153  1  0
 28154  1  0
 29155  1  0
 31156  1  0
 31157  1  0
 31158  1  0
 32159  1  0
 33160  1  0
 35161  1  0
 36162  1  0
 38163  1  0
 38164  1  0
 38165  1  0
 39166  1  0
 40167  1  0
 47168  1  0
 48169  1  0
 50170  1  0
 50171  1  0
 50172  1  0
 51173  1  0
 52174  1  0
 54175  1  0
 55176  1  0
 57177  1  0
 57178  1  0
 57179  1  0
 58180  1  0
 59181  1  0
 65182  1  0
 66183  1  0
 67184  1  0
 69185  1  0
 69186  1  0
 70187  1  0
 70188  1  0
 70189  1  0
 71190  1  0
 87191  1  0
 88192  1  0
 89193  1  0
 91194  1  0
 91195  1  0
 92196  1  0
 92197  1  0
 92198  1  0
 93199  1  0
105200  1  0
105201  1  0
106202  1  0
106203  1  0
106204  1  0
107205  1  0
107206  1  0
108207  1  0
108208  1  0
108209  1  0
110210  1  0
113211  1  0
113212  1  0
114213  1  0
114214  1  0
114215  1  0
115216  1  0
115217  1  0
116218  1  0
116219  1  0
116220  1  0
120221  1  0
121222  1  0
122223  1  0
123224  1  0
125225  1  0
126226  1  0
131227  1  0
134228  1  0
135229  1  0
M  END

