
     RDKit          3D

238266  0  0  0  0  0  0  0  0999 V2000
    2.6346    7.2892   -1.7036 C   0  0  0  0  0  0  0  0  0  0  0  0
    3.7154    6.6592   -1.1914 C   0  0  0  0  0  0  0  0  0  0  0  0
    3.6845    5.6287   -0.1408 C   0  0  0  0  0  0  0  0  0  0  0  0
    2.6696    5.0202    0.2865 O   0  0  0  0  0  0  0  0  0  0  0  0
    5.0079    5.4849    0.4146 C   0  0  0  0  0  0  0  0  0  0  0  0
    5.3750    4.6916    1.5247 C   0  0  0  0  0  0  0  0  0  0  0  0
    6.6807    4.8655    1.9296 C   0  0  0  0  0  0  0  0  0  0  0  0
    7.5836    5.7751    1.2933 C   0  0  0  0  0  0  0  0  0  0  0  0
    7.2276    6.5573    0.2054 C   0  0  0  0  0  0  0  0  0  0  0  0
    5.8902    6.3685   -0.2519 C   0  0  0  0  0  0  0  0  0  0  0  0
    5.1507    7.0567   -1.3504 C   0  0  0  0  0  0  0  0  0  0  0  0
    5.6990    7.7453   -2.3890 C   0  0  0  0  0  0  0  0  0  0  0  0
    7.1153    7.9660   -2.5120 C   0  0  0  0  0  0  0  0  0  0  0  0
    8.2530    8.1520   -2.6295 N   0  0  0  0  0  0  0  0  0  0  0  0
    4.9179    8.2368   -3.4970 C   0  0  0  0  0  0  0  0  0  0  0  0
    4.3144    8.6310   -4.4026 N   0  0  0  0  0  0  0  0  0  0  0  0
    8.6660    5.4082    2.2682 C   0  0  0  0  0  0  0  0  0  0  0  0
    9.8202    4.4838    1.7701 C   0  0  0  0  0  0  0  0  0  0  0  0
    9.3147    3.5676    0.6783 C   0  0  0  0  0  0  0  0  0  0  0  0
    8.4687    2.7171    1.2631 C   0  0  0  0  0  0  0  0  0  0  0  0
    8.4268    3.0829    2.7265 C   0  0  0  0  0  0  0  0  0  0  0  0
    9.8776    3.4864    2.9126 C   0  0  0  0  0  0  0  0  0  0  0  0
    7.7397    4.4704    2.9142 C   0  0  0  0  0  0  0  0  0  0  0  0
    1.2632    6.9394   -1.3181 C   0  0  0  0  0  0  0  0  0  0  0  0
    0.6086    5.6976   -1.5302 C   0  0  0  0  0  0  0  0  0  0  0  0
    1.0682    4.6506   -2.4266 N   0  0  0  0  0  0  0  0  0  0  0  0
    1.9645    4.9464   -3.5039 C   0  0  0  0  0  0  0  0  0  0  0  0
    3.2187    4.3233   -3.5722 C   0  0  0  0  0  0  0  0  0  0  0  0
    4.0895    4.6069   -4.6283 C   0  0  0  0  0  0  0  0  0  0  0  0
    3.7020    5.4946   -5.6428 C   0  0  0  0  0  0  0  0  0  0  0  0
    4.6497    5.8117   -6.7618 C   0  0  0  0  0  0  0  0  0  0  0  0
    2.4445    6.1160   -5.5744 C   0  0  0  0  0  0  0  0  0  0  0  0
    1.5815    5.8412   -4.5113 C   0  0  0  0  0  0  0  0  0  0  0  0
    0.4157    3.3736   -2.4652 C   0  0  0  0  0  0  0  0  0  0  0  0
   -0.7857    3.2176   -3.1711 C   0  0  0  0  0  0  0  0  0  0  0  0
   -1.4588    1.9930   -3.1545 C   0  0  0  0  0  0  0  0  0  0  0  0
   -0.9315    0.9053   -2.4407 C   0  0  0  0  0  0  0  0  0  0  0  0
   -1.6433   -0.4167   -2.4343 C   0  0  0  0  0  0  0  0  0  0  0  0
    0.2989    1.0481   -1.7815 C   0  0  0  0  0  0  0  0  0  0  0  0
    0.9642    2.2787   -1.7817 C   0  0  0  0  0  0  0  0  0  0  0  0
   -0.4765    5.5833   -0.6504 C   0  0  0  0  0  0  0  0  0  0  0  0
   -1.4239    4.3102   -0.1099 S   0  0  0  0  0  0  0  0  0  0  0  0
   -2.1565    5.1629    1.1657 C   0  0  0  0  0  0  0  0  0  0  0  0
   -1.6312    6.4627    1.1730 C   0  0  0  0  0  0  0  0  0  0  0  0
   -2.0590    7.5085    2.0543 N   0  0  0  0  0  0  0  0  0  0  0  0
   -3.2365    8.2820    1.7141 C   0  0  0  0  0  0  0  0  0  0  0  0
   -3.8727    9.0820    2.6803 C   0  0  0  0  0  0  0  0  0  0  0  0
   -5.0139    9.8179    2.3523 C   0  0  0  0  0  0  0  0  0  0  0  0
   -5.5665    9.7392    1.0675 C   0  0  0  0  0  0  0  0  0  0  0  0
   -6.8122   10.4922    0.7206 C   0  0  0  0  0  0  0  0  0  0  0  0
   -4.9223    8.9703    0.0920 C   0  0  0  0  0  0  0  0  0  0  0  0
   -3.7718    8.2499    0.4075 C   0  0  0  0  0  0  0  0  0  0  0  0
   -1.1414    7.9464    3.0737 C   0  0  0  0  0  0  0  0  0  0  0  0
   -0.6623    7.0416    4.0335 C   0  0  0  0  0  0  0  0  0  0  0  0
    0.2390    7.4613    5.0149 C   0  0  0  0  0  0  0  0  0  0  0  0
    0.6779    8.7933    5.0526 C   0  0  0  0  0  0  0  0  0  0  0  0
    1.6821    9.2335    6.0735 C   0  0  0  0  0  0  0  0  0  0  0  0
    0.2257    9.6916    4.0715 C   0  0  0  0  0  0  0  0  0  0  0  0
   -0.6801    9.2705    3.0942 C   0  0  0  0  0  0  0  0  0  0  0  0
   -0.7030    6.6509    0.1525 C   0  0  0  0  0  0  0  0  0  0  0  0
    0.4392    7.8367   -0.1319 S   0  0  0  0  0  0  0  0  0  0  0  0
   -2.6305    4.4491    2.3559 C   0  0  0  0  0  0  0  0  0  0  0  0
   -3.8982    4.4821    2.9670 C   0  0  0  0  0  0  0  0  0  0  0  0
   -5.0417    5.3358    2.5846 C   0  0  0  0  0  0  0  0  0  0  0  0
   -5.4298    5.4800    1.2467 C   0  0  0  0  0  0  0  0  0  0  0  0
   -6.5762    6.2123    0.9222 C   0  0  0  0  0  0  0  0  0  0  0  0
   -7.3451    6.8015    1.9311 C   0  0  0  0  0  0  0  0  0  0  0  0
   -6.9786    6.6525    3.2776 C   0  0  0  0  0  0  0  0  0  0  0  0
   -7.8222    7.2394    4.3823 C   0  0  0  0  0  0  0  0  0  0  0  0
   -7.2076    8.5215    4.9351 C   0  0  0  0  0  0  0  0  0  0  0  0
   -5.8197    5.9294    3.5948 C   0  0  0  0  0  0  0  0  0  0  0  0
   -4.0110    3.4574    3.9203 C   0  0  0  0  0  0  0  0  0  0  0  0
   -5.3836    2.6655    4.5274 S   0  0  0  0  0  0  0  0  0  0  0  0
   -4.4752    1.3254    5.0389 C   0  0  0  0  0  0  0  0  0  0  0  0
   -4.7621   -0.0144    5.0350 C   0  0  0  0  0  0  0  0  0  0  0  0
   -5.9882   -0.6529    4.7795 C   0  0  0  0  0  0  0  0  0  0  0  0
   -5.9810   -2.0168    4.3607 C   0  0  0  0  0  0  0  0  0  0  0  0
   -7.1780   -2.5751    4.0609 N   0  0  0  0  0  0  0  0  0  0  0  0
   -8.1699   -1.2782    4.3326 S   0  0  0  0  0  0  0  0  0  0  0  0
   -7.1914   -0.0299    4.8123 N   0  0  0  0  0  0  0  0  0  0  0  0
   -4.7592   -2.6865    4.2830 C   0  0  0  0  0  0  0  0  0  0  0  0
   -4.4322   -3.9376    3.8589 C   0  0  0  0  0  0  0  0  0  0  0  0
   -5.1347   -5.0533    2.7960 S   0  0  0  0  0  0  0  0  0  0  0  0
   -3.6076   -5.7360    2.4704 C   0  0  0  0  0  0  0  0  0  0  0  0
   -3.1756   -6.6209    1.4838 C   0  0  0  0  0  0  0  0  0  0  0  0
   -4.0397   -7.1778    0.4274 C   0  0  0  0  0  0  0  0  0  0  0  0
   -4.1248   -8.5608    0.2372 C   0  0  0  0  0  0  0  0  0  0  0  0
   -4.8132   -9.0776   -0.8649 C   0  0  0  0  0  0  0  0  0  0  0  0
   -5.4019   -8.2119   -1.7926 C   0  0  0  0  0  0  0  0  0  0  0  0
   -5.3239   -6.8228   -1.6118 C   0  0  0  0  0  0  0  0  0  0  0  0
   -5.8755   -5.8854   -2.6523 C   0  0  0  0  0  0  0  0  0  0  0  0
   -4.7768   -5.4445   -3.6159 C   0  0  0  0  0  0  0  0  0  0  0  0
   -4.6448   -6.3109   -0.4961 C   0  0  0  0  0  0  0  0  0  0  0  0
   -1.7725   -6.6525    1.4161 C   0  0  0  0  0  0  0  0  0  0  0  0
   -1.1152   -5.5114    2.4934 S   0  0  0  0  0  0  0  0  0  0  0  0
   -2.6030   -5.0772    3.1435 C   0  0  0  0  0  0  0  0  0  0  0  0
   -3.0744   -4.0537    3.9541 C   0  0  0  0  0  0  0  0  0  0  0  0
   -2.4856   -2.9185    4.4192 N   0  0  0  0  0  0  0  0  0  0  0  0
   -3.5433   -2.0609    4.5624 C   0  0  0  0  0  0  0  0  0  0  0  0
   -3.5325   -0.6675    4.8311 C   0  0  0  0  0  0  0  0  0  0  0  0
   -2.5371    0.2396    4.5662 N   0  0  0  0  0  0  0  0  0  0  0  0
   -3.1532    1.4485    4.7108 C   0  0  0  0  0  0  0  0  0  0  0  0
   -2.8969    2.6648    4.0697 C   0  0  0  0  0  0  0  0  0  0  0  0
   -1.7208    3.1775    3.0101 S   0  0  0  0  0  0  0  0  0  0  0  0
   -1.3581    0.0095    3.7194 C   0  0  0  0  0  0  0  0  0  0  0  0
   -0.0759    0.4883    4.4004 C   0  0  0  0  0  0  0  0  0  0  0  0
   -1.3265   -2.9121    5.3326 C   0  0  0  0  0  0  0  0  0  0  0  0
   -0.0203   -3.2965    4.6464 C   0  0  0  0  0  0  0  0  0  0  0  0
   -1.0154   -7.3714    0.3906 C   0  0  0  0  0  0  0  0  0  0  0  0
   -0.8860   -6.7889   -0.8836 C   0  0  0  0  0  0  0  0  0  0  0  0
   -0.3685   -7.5272   -1.9575 C   0  0  0  0  0  0  0  0  0  0  0  0
   -0.0392   -8.8846   -1.8014 C   0  0  0  0  0  0  0  0  0  0  0  0
   -0.2749   -9.4841   -0.5497 C   0  0  0  0  0  0  0  0  0  0  0  0
   -0.0426  -10.8634   -0.0953 C   0  0  0  0  0  0  0  0  0  0  0  0
   -0.2909  -12.0218   -0.7297 C   0  0  0  0  0  0  0  0  0  0  0  0
   -1.1552  -12.1775   -1.9185 C   0  0  0  0  0  0  0  0  0  0  0  0
   -2.1824  -11.2898   -2.2967 C   0  0  0  0  0  0  0  0  0  0  0  0
   -2.9637  -11.7469   -3.3456 C   0  0  0  0  0  0  0  0  0  0  0  0
   -2.4179  -13.2747   -3.7723 S   0  0  0  0  0  0  0  0  0  0  0  0
   -1.1703  -13.3627   -2.6503 C   0  0  0  0  0  0  0  0  0  0  0  0
   -0.0969  -10.7584    1.3622 C   0  0  0  0  0  0  0  0  0  0  0  0
    0.1765  -11.6901    2.1662 O   0  0  0  0  0  0  0  0  0  0  0  0
   -0.5506   -9.4696    1.7708 N   0  0  0  0  0  0  0  0  0  0  0  0
   -0.4466   -8.9720    3.1468 C   0  0  0  0  0  0  0  0  0  0  0  0
    0.9194   -8.3390    3.3918 C   0  0  0  0  0  0  0  0  0  0  0  0
   -0.6382   -8.7164    0.5514 C   0  0  0  0  0  0  0  0  0  0  0  0
    0.6589   -9.5779   -2.9034 C   0  0  0  0  0  0  0  0  0  0  0  0
    1.9547   -9.3383   -3.1860 C   0  0  0  0  0  0  0  0  0  0  0  0
    2.8338   -8.4463   -2.4142 C   0  0  0  0  0  0  0  0  0  0  0  0
    2.6347   -8.0282   -1.2431 O   0  0  0  0  0  0  0  0  0  0  0  0
    3.9783   -8.0958   -3.2279 C   0  0  0  0  0  0  0  0  0  0  0  0
    4.9757   -7.1415   -2.9294 C   0  0  0  0  0  0  0  0  0  0  0  0
    5.8596   -6.9128   -3.9683 C   0  0  0  0  0  0  0  0  0  0  0  0
    5.7597   -7.5639   -5.2372 C   0  0  0  0  0  0  0  0  0  0  0  0
    4.7806   -8.4993   -5.5369 C   0  0  0  0  0  0  0  0  0  0  0  0
    3.8860   -8.7826   -4.4656 C   0  0  0  0  0  0  0  0  0  0  0  0
    2.6978   -9.6819   -4.4432 C   0  0  0  0  0  0  0  0  0  0  0  0
    2.4669  -10.7221   -5.2848 C   0  0  0  0  0  0  0  0  0  0  0  0
    1.3584  -11.6209   -5.1280 C   0  0  0  0  0  0  0  0  0  0  0  0
    0.4728  -12.3553   -5.0233 N   0  0  0  0  0  0  0  0  0  0  0  0
    3.3862  -11.0891   -6.3317 C   0  0  0  0  0  0  0  0  0  0  0  0
    4.1168  -11.4036   -7.1713 N   0  0  0  0  0  0  0  0  0  0  0  0
    6.9304   -6.7805   -5.7536 C   0  0  0  0  0  0  0  0  0  0  0  0
    6.6508   -5.6043   -6.7391 C   0  0  0  0  0  0  0  0  0  0  0  0
    5.2945   -5.0039   -6.4524 C   0  0  0  0  0  0  0  0  0  0  0  0
    5.3908   -4.3954   -5.2683 C   0  0  0  0  0  0  0  0  0  0  0  0
    6.8081   -4.6107   -4.7876 C   0  0  0  0  0  0  0  0  0  0  0  0
    7.5251   -4.5282   -6.1219 C   0  0  0  0  0  0  0  0  0  0  0  0
    7.0372   -6.1163   -4.4493 C   0  0  0  0  0  0  0  0  0  0  0  0
    2.7497    8.2027   -2.2631 H   0  0  0  0  0  0  0  0  0  0  0  0
    4.6850    4.0311    2.0372 H   0  0  0  0  0  0  0  0  0  0  0  0
    7.9213    7.2752   -0.1981 H   0  0  0  0  0  0  0  0  0  0  0  0
    8.9862    6.2432    2.9310 H   0  0  0  0  0  0  0  0  0  0  0  0
   10.7761    5.0047    1.5447 H   0  0  0  0  0  0  0  0  0  0  0  0
    9.6396    3.5322   -0.3562 H   0  0  0  0  0  0  0  0  0  0  0  0
    7.9807    1.8736    0.7856 H   0  0  0  0  0  0  0  0  0  0  0  0
    8.0703    2.2731    3.3991 H   0  0  0  0  0  0  0  0  0  0  0  0
   10.5974    2.6482    2.7375 H   0  0  0  0  0  0  0  0  0  0  0  0
   10.0838    3.9523    3.9056 H   0  0  0  0  0  0  0  0  0  0  0  0
    7.5005    4.7362    3.9693 H   0  0  0  0  0  0  0  0  0  0  0  0
    3.5324    3.6360   -2.7973 H   0  0  0  0  0  0  0  0  0  0  0  0
    5.0621    4.1343   -4.6596 H   0  0  0  0  0  0  0  0  0  0  0  0
    5.0419    4.8690   -7.1977 H   0  0  0  0  0  0  0  0  0  0  0  0
    5.4973    6.4154   -6.3732 H   0  0  0  0  0  0  0  0  0  0  0  0
    4.1446    6.3870   -7.5679 H   0  0  0  0  0  0  0  0  0  0  0  0
    2.1336    6.8155   -6.3410 H   0  0  0  0  0  0  0  0  0  0  0  0
    0.6118    6.3246   -4.4713 H   0  0  0  0  0  0  0  0  0  0  0  0
   -1.2067    4.0536   -3.7189 H   0  0  0  0  0  0  0  0  0  0  0  0
   -2.3956    1.8946   -3.6900 H   0  0  0  0  0  0  0  0  0  0  0  0
   -1.1947   -1.0828   -3.2011 H   0  0  0  0  0  0  0  0  0  0  0  0
   -1.5589   -0.9008   -1.4370 H   0  0  0  0  0  0  0  0  0  0  0  0
   -2.7253   -0.2879   -2.6591 H   0  0  0  0  0  0  0  0  0  0  0  0
    0.7365    0.2116   -1.2516 H   0  0  0  0  0  0  0  0  0  0  0  0
    1.8988    2.3856   -1.2481 H   0  0  0  0  0  0  0  0  0  0  0  0
   -3.4966    9.1284    3.6951 H   0  0  0  0  0  0  0  0  0  0  0  0
   -5.4705   10.4476    3.1043 H   0  0  0  0  0  0  0  0  0  0  0  0
   -6.5393   11.4438    0.2188 H   0  0  0  0  0  0  0  0  0  0  0  0
   -7.4096   10.7167    1.6310 H   0  0  0  0  0  0  0  0  0  0  0  0
   -7.4481    9.8882    0.0362 H   0  0  0  0  0  0  0  0  0  0  0  0
   -5.3202    8.9124   -0.9144 H   0  0  0  0  0  0  0  0  0  0  0  0
   -3.3135    7.6563   -0.3705 H   0  0  0  0  0  0  0  0  0  0  0  0
   -0.9941    6.0108    4.0284 H   0  0  0  0  0  0  0  0  0  0  0  0
    0.5985    6.7447    5.7435 H   0  0  0  0  0  0  0  0  0  0  0  0
    1.5040   10.2924    6.3614 H   0  0  0  0  0  0  0  0  0  0  0  0
    1.6118    8.6086    6.9914 H   0  0  0  0  0  0  0  0  0  0  0  0
    2.7030    9.1389    5.6488 H   0  0  0  0  0  0  0  0  0  0  0  0
    0.5782   10.7172    4.0649 H   0  0  0  0  0  0  0  0  0  0  0  0
   -1.0070    9.9704    2.3365 H   0  0  0  0  0  0  0  0  0  0  0  0
   -4.8650    5.0044    0.4553 H   0  0  0  0  0  0  0  0  0  0  0  0
   -6.8692    6.3218   -0.1128 H   0  0  0  0  0  0  0  0  0  0  0  0
   -8.2268    7.3643    1.6622 H   0  0  0  0  0  0  0  0  0  0  0  0
   -8.8480    7.4561    4.0146 H   0  0  0  0  0  0  0  0  0  0  0  0
   -7.9187    6.4994    5.2081 H   0  0  0  0  0  0  0  0  0  0  0  0
   -6.1428    8.3622    5.2144 H   0  0  0  0  0  0  0  0  0  0  0  0
   -7.7664    8.8369    5.8419 H   0  0  0  0  0  0  0  0  0  0  0  0
   -7.2793    9.3328    4.1815 H   0  0  0  0  0  0  0  0  0  0  0  0
   -5.5272    5.8133    4.6328 H   0  0  0  0  0  0  0  0  0  0  0  0
   -3.6399   -9.2408    0.9255 H   0  0  0  0  0  0  0  0  0  0  0  0
   -4.8660  -10.1476   -1.0167 H   0  0  0  0  0  0  0  0  0  0  0  0
   -5.9023   -8.6245   -2.6611 H   0  0  0  0  0  0  0  0  0  0  0  0
   -6.6901   -6.3787   -3.2265 H   0  0  0  0  0  0  0  0  0  0  0  0
   -6.3094   -4.9871   -2.1572 H   0  0  0  0  0  0  0  0  0  0  0  0
   -4.3444   -6.3239   -4.1410 H   0  0  0  0  0  0  0  0  0  0  0  0
   -3.9694   -4.9130   -3.0661 H   0  0  0  0  0  0  0  0  0  0  0  0
   -5.2047   -4.7527   -4.3741 H   0  0  0  0  0  0  0  0  0  0  0  0
   -4.5442   -5.2398   -0.3753 H   0  0  0  0  0  0  0  0  0  0  0  0
   -1.2485   -1.0489    3.4495 H   0  0  0  0  0  0  0  0  0  0  0  0
   -1.4949    0.5065    2.7398 H   0  0  0  0  0  0  0  0  0  0  0  0
    0.7734    0.4079    3.6910 H   0  0  0  0  0  0  0  0  0  0  0  0
    0.1506   -0.1285    5.2950 H   0  0  0  0  0  0  0  0  0  0  0  0
   -0.1694    1.5460    4.7268 H   0  0  0  0  0  0  0  0  0  0  0  0
   -1.5164   -3.6055    6.1805 H   0  0  0  0  0  0  0  0  0  0  0  0
   -1.2072   -1.9078    5.7799 H   0  0  0  0  0  0  0  0  0  0  0  0
    0.0073   -2.9395    3.5948 H   0  0  0  0  0  0  0  0  0  0  0  0
    0.1120   -4.3992    4.6727 H   0  0  0  0  0  0  0  0  0  0  0  0
    0.8368   -2.8560    5.1931 H   0  0  0  0  0  0  0  0  0  0  0  0
   -1.1928   -5.7638   -1.0473 H   0  0  0  0  0  0  0  0  0  0  0  0
   -0.2163   -7.0369   -2.9107 H   0  0  0  0  0  0  0  0  0  0  0  0
   -0.0429  -12.9385   -0.2110 H   0  0  0  0  0  0  0  0  0  0  0  0
   -2.3959  -10.3591   -1.7964 H   0  0  0  0  0  0  0  0  0  0  0  0
   -3.8072  -11.2262   -3.7808 H   0  0  0  0  0  0  0  0  0  0  0  0
   -0.5091  -14.2072   -2.5059 H   0  0  0  0  0  0  0  0  0  0  0  0
   -0.5864   -9.8129    3.8608 H   0  0  0  0  0  0  0  0  0  0  0  0
   -1.2555   -8.2497    3.3642 H   0  0  0  0  0  0  0  0  0  0  0  0
    0.9578   -7.9177    4.4191 H   0  0  0  0  0  0  0  0  0  0  0  0
    1.1125   -7.5257    2.6613 H   0  0  0  0  0  0  0  0  0  0  0  0
    1.7164   -9.1097    3.2910 H   0  0  0  0  0  0  0  0  0  0  0  0
    0.0353  -10.1155   -3.5945 H   0  0  0  0  0  0  0  0  0  0  0  0
    5.0262   -6.6045   -1.9908 H   0  0  0  0  0  0  0  0  0  0  0  0
    4.7005   -8.9091   -6.5302 H   0  0  0  0  0  0  0  0  0  0  0  0
    7.8128   -7.4072   -6.0142 H   0  0  0  0  0  0  0  0  0  0  0  0
    6.8523   -5.8258   -7.8088 H   0  0  0  0  0  0  0  0  0  0  0  0
    4.4359   -4.9671   -7.1150 H   0  0  0  0  0  0  0  0  0  0  0  0
    4.6267   -3.7786   -4.8082 H   0  0  0  0  0  0  0  0  0  0  0  0
    7.1559   -3.8941   -4.0134 H   0  0  0  0  0  0  0  0  0  0  0  0
    7.4226   -3.5329   -6.6188 H   0  0  0  0  0  0  0  0  0  0  0  0
    8.6036   -4.8080   -6.0683 H   0  0  0  0  0  0  0  0  0  0  0  0
    7.9885   -6.3396   -3.9157 H   0  0  0  0  0  0  0  0  0  0  0  0
  1  2  2  3
  2  3  1  0
  3  4  2  0
  3  5  1  0
  5  6  2  0
  6  7  1  0
  7  8  2  0
  8  9  1  0
  9 10  2  0
 10 11  1  0
 11 12  2  3
 12 13  1  0
 13 14  3  0
 12 15  1  0
 15 16  3  0
  8 17  1  0
 17 18  1  0
 18 19  1  0
 19 20  2  0
 20 21  1  0
 21 22  1  0
 21 23  1  0
  1 24  1  0
 24 25  2  0
 25 26  1  0
 26 27  1  0
 27 28  2  0
 28 29  1  0
 29 30  2  0
 30 31  1  0
 30 32  1  0
 32 33  2  0
 26 34  1  0
 34 35  2  0
 35 36  1  0
 36 37  2  0
 37 38  1  0
 37 39  1  0
 39 40  2  0
 25 41  1  0
 41 42  1  0
 42 43  1  0
 43 44  2  0
 44 45  1  0
 45 46  1  0
 46 47  2  0
 47 48  1  0
 48 49  2  0
 49 50  1  0
 49 51  1  0
 51 52  2  0
 45 53  1  0
 53 54  2  0
 54 55  1  0
 55 56  2  0
 56 57  1  0
 56 58  1  0
 58 59  2  0
 44 60  1  0
 60 61  1  0
 43 62  1  0
 62 63  2  0
 63 64  1  0
 64 65  2  0
 65 66  1  0
 66 67  2  0
 67 68  1  0
 68 69  1  0
 69 70  1  0
 68 71  2  0
 63 72  1  0
 72 73  1  0
 73 74  1  0
 74 75  1  0
 75 76  1  0
 76 77  1  0
 77 78  2  0
 78 79  1  0
 79 80  1  0
 77 81  1  0
 81 82  1  0
 82 83  1  0
 83 84  1  0
 84 85  1  0
 85 86  1  0
 86 87  2  0
 87 88  1  0
 88 89  2  0
 89 90  1  0
 90 91  1  0
 91 92  1  0
 90 93  2  0
 85 94  2  0
 94 95  1  0
 95 96  1  0
 96 97  1  0
 97 98  1  0
 98 99  1  0
 99100  1  0
100101  1  0
101102  1  0
102103  1  0
103104  1  0
101105  1  0
105106  1  0
 98107  1  0
107108  1  0
 94109  1  0
109110  2  0
110111  1  0
111112  2  0
112113  1  0
113114  1  0
114115  2  3
115116  1  0
116117  1  0
117118  2  0
118119  1  0
119120  1  0
114121  1  0
121122  2  0
121123  1  0
123124  1  0
124125  1  0
123126  1  0
112127  1  0
127128  2  3
128129  1  0
129130  2  0
129131  1  0
131132  2  0
132133  1  0
133134  2  0
134135  1  0
135136  2  0
136137  1  0
137138  2  3
138139  1  0
139140  3  0
138141  1  0
141142  3  0
134143  1  0
143144  1  0
144145  1  0
145146  2  0
146147  1  0
147148  1  0
147149  1  0
 11  2  1  0
 23 17  1  0
 61 24  1  0
104 62  1  0
126109  1  0
137128  1  0
149143  1  0
 10  5  1  0
 22 18  1  0
 33 27  1  0
 40 34  1  0
 60 41  2  0
 71 64  1  0
103 72  2  0
126113  2  0
136131  1  0
148144  1  0
 23  7  1  0
 52 46  1  0
 59 53  1  0
102 74  2  0
120116  2  0
149133  1  0
100 75  2  0
 80 76  2  0
 99 81  2  0
 97 82  2  0
 96 84  2  0
 93 86  1  0
  1150  1  0
  6151  1  0
  9152  1  0
 17153  1  0
 18154  1  0
 19155  1  0
 20156  1  0
 21157  1  0
 22158  1  0
 22159  1  0
 23160  1  0
 28161  1  0
 29162  1  0
 31163  1  0
 31164  1  0
 31165  1  0
 32166  1  0
 33167  1  0
 35168  1  0
 36169  1  0
 38170  1  0
 38171  1  0
 38172  1  0
 39173  1  0
 40174  1  0
 47175  1  0
 48176  1  0
 50177  1  0
 50178  1  0
 50179  1  0
 51180  1  0
 52181  1  0
 54182  1  0
 55183  1  0
 57184  1  0
 57185  1  0
 57186  1  0
 58187  1  0
 59188  1  0
 65189  1  0
 66190  1  0
 67191  1  0
 69192  1  0
 69193  1  0
 70194  1  0
 70195  1  0
 70196  1  0
 71197  1  0
 87198  1  0
 88199  1  0
 89200  1  0
 91201  1  0
 91202  1  0
 92203  1  0
 92204  1  0
 92205  1  0
 93206  1  0
105207  1  0
105208  1  0
106209  1  0
106210  1  0
106211  1  0
107212  1  0
107213  1  0
108214  1  0
108215  1  0
108216  1  0
110217  1  0
111218  1  0
115219  1  0
117220  1  0
118221  1  0
120222  1  0
124223  1  0
124224  1  0
125225  1  0
125226  1  0
125227  1  0
127228  1  0
132229  1  0
135230  1  0
143231  1  0
144232  1  0
145233  1  0
146234  1  0
147235  1  0
148236  1  0
148237  1  0
149238  1  0
M  END

