
     RDKit          3D

247273  0  0  0  0  0  0  0  0999 V2000
   -0.4751    8.0011   -0.3197 C   0  0  0  0  0  0  0  0  0  0  0  0
   -0.7662    8.1338   -1.6292 C   0  0  0  0  0  0  0  0  0  0  0  0
   -0.5418    7.0944   -2.6395 C   0  0  0  0  0  0  0  0  0  0  0  0
   -0.6541    5.8455   -2.4665 O   0  0  0  0  0  0  0  0  0  0  0  0
   -0.1313    7.7224   -3.8669 C   0  0  0  0  0  0  0  0  0  0  0  0
    0.4464    7.0801   -4.9831 C   0  0  0  0  0  0  0  0  0  0  0  0
    1.0334    7.9502   -5.8785 C   0  0  0  0  0  0  0  0  0  0  0  0
    1.0485    9.3697   -5.6976 C   0  0  0  0  0  0  0  0  0  0  0  0
    0.4522   10.0066   -4.6188 C   0  0  0  0  0  0  0  0  0  0  0  0
   -0.1738    9.1283   -3.6939 C   0  0  0  0  0  0  0  0  0  0  0  0
   -0.7506    9.4279   -2.3541 C   0  0  0  0  0  0  0  0  0  0  0  0
   -1.3403   10.5774   -1.9590 C   0  0  0  0  0  0  0  0  0  0  0  0
   -2.0849   10.6545   -0.7271 C   0  0  0  0  0  0  0  0  0  0  0  0
   -2.7005   10.7356    0.2532 N   0  0  0  0  0  0  0  0  0  0  0  0
   -1.3993   11.7313   -2.8114 C   0  0  0  0  0  0  0  0  0  0  0  0
   -1.4442   12.6692   -3.4924 N   0  0  0  0  0  0  0  0  0  0  0  0
    1.9137    9.5258   -6.9153 C   0  0  0  0  0  0  0  0  0  0  0  0
    3.4285    9.8150   -6.6680 C   0  0  0  0  0  0  0  0  0  0  0  0
    4.1204    9.5333   -7.9822 C   0  0  0  0  0  0  0  0  0  0  0  0
    4.0868    8.2050   -8.1504 C   0  0  0  0  0  0  0  0  0  0  0  0
    3.3659    7.6403   -6.9509 C   0  0  0  0  0  0  0  0  0  0  0  0
    3.8962    8.5943   -5.8911 C   0  0  0  0  0  0  0  0  0  0  0  0
    1.8795    8.0711   -7.1049 C   0  0  0  0  0  0  0  0  0  0  0  0
    0.3496    6.8758    0.1407 C   0  0  0  0  0  0  0  0  0  0  0  0
   -0.0321    5.8595    1.0311 C   0  0  0  0  0  0  0  0  0  0  0  0
   -1.2876    5.7883    1.7270 N   0  0  0  0  0  0  0  0  0  0  0  0
   -1.4701    6.5473    2.9446 C   0  0  0  0  0  0  0  0  0  0  0  0
   -0.3632    6.9553    3.7154 C   0  0  0  0  0  0  0  0  0  0  0  0
   -0.5460    7.6641    4.9045 C   0  0  0  0  0  0  0  0  0  0  0  0
   -1.8364    7.9693    5.3573 C   0  0  0  0  0  0  0  0  0  0  0  0
   -2.0276    8.7494    6.6254 C   0  0  0  0  0  0  0  0  0  0  0  0
   -2.9438    7.5925    4.5800 C   0  0  0  0  0  0  0  0  0  0  0  0
   -2.7632    6.8818    3.3931 C   0  0  0  0  0  0  0  0  0  0  0  0
   -2.2201    4.7615    1.3296 C   0  0  0  0  0  0  0  0  0  0  0  0
   -2.6569    3.7923    2.2476 C   0  0  0  0  0  0  0  0  0  0  0  0
   -3.4744    2.7378    1.8169 C   0  0  0  0  0  0  0  0  0  0  0  0
   -3.8320    2.6191    0.4675 C   0  0  0  0  0  0  0  0  0  0  0  0
   -4.6822    1.4762    0.0015 C   0  0  0  0  0  0  0  0  0  0  0  0
   -3.4149    3.6052   -0.4416 C   0  0  0  0  0  0  0  0  0  0  0  0
   -2.6165    4.6662   -0.0066 C   0  0  0  0  0  0  0  0  0  0  0  0
    0.9385    4.8633    1.0871 C   0  0  0  0  0  0  0  0  0  0  0  0
    1.0169    3.3313    1.7686 S   0  0  0  0  0  0  0  0  0  0  0  0
    2.5079    2.9523    1.0293 C   0  0  0  0  0  0  0  0  0  0  0  0
    2.9192    4.0222    0.2274 C   0  0  0  0  0  0  0  0  0  0  0  0
    3.9746    3.9611   -0.7392 N   0  0  0  0  0  0  0  0  0  0  0  0
    3.6435    3.8636   -2.1476 C   0  0  0  0  0  0  0  0  0  0  0  0
    2.4625    3.2154   -2.5616 C   0  0  0  0  0  0  0  0  0  0  0  0
    2.1019    3.1723   -3.9130 C   0  0  0  0  0  0  0  0  0  0  0  0
    2.9167    3.7711   -4.8815 C   0  0  0  0  0  0  0  0  0  0  0  0
    2.5081    3.7574   -6.3253 C   0  0  0  0  0  0  0  0  0  0  0  0
    4.0883    4.4301   -4.4797 C   0  0  0  0  0  0  0  0  0  0  0  0
    4.4506    4.4746   -3.1290 C   0  0  0  0  0  0  0  0  0  0  0  0
    5.3199    4.2256   -0.2996 C   0  0  0  0  0  0  0  0  0  0  0  0
    5.5909    5.3515    0.4944 C   0  0  0  0  0  0  0  0  0  0  0  0
    6.8990    5.6240    0.9005 C   0  0  0  0  0  0  0  0  0  0  0  0
    7.9455    4.7620    0.5477 C   0  0  0  0  0  0  0  0  0  0  0  0
    9.3508    5.0588    0.9786 C   0  0  0  0  0  0  0  0  0  0  0  0
    7.6751    3.6410   -0.2532 C   0  0  0  0  0  0  0  0  0  0  0  0
    6.3659    3.3681   -0.6670 C   0  0  0  0  0  0  0  0  0  0  0  0
    2.0265    5.0767    0.3024 C   0  0  0  0  0  0  0  0  0  0  0  0
    1.8655    6.5057   -0.5455 S   0  0  0  0  0  0  0  0  0  0  0  0
    3.0707    1.5992    0.9997 C   0  0  0  0  0  0  0  0  0  0  0  0
    4.1212    1.1060    1.8013 C   0  0  0  0  0  0  0  0  0  0  0  0
    5.0291    1.9432    2.6154 C   0  0  0  0  0  0  0  0  0  0  0  0
    6.4174    1.7696    2.4956 C   0  0  0  0  0  0  0  0  0  0  0  0
    7.3012    2.6489    3.1322 C   0  0  0  0  0  0  0  0  0  0  0  0
    6.8071    3.7109    3.8831 C   0  0  0  0  0  0  0  0  0  0  0  0
    5.4250    3.8986    4.0268 C   0  0  0  0  0  0  0  0  0  0  0  0
    4.8979    5.0394    4.8536 C   0  0  0  0  0  0  0  0  0  0  0  0
    5.0326    4.7297    6.3406 C   0  0  0  0  0  0  0  0  0  0  0  0
    4.5377    2.9978    3.4088 C   0  0  0  0  0  0  0  0  0  0  0  0
    4.2951   -0.2660    1.5699 C   0  0  0  0  0  0  0  0  0  0  0  0
    5.1096   -1.5036    2.4196 S   0  0  0  0  0  0  0  0  0  0  0  0
    4.4756   -2.6916    1.3763 C   0  0  0  0  0  0  0  0  0  0  0  0
    4.2540   -4.0435    1.3837 C   0  0  0  0  0  0  0  0  0  0  0  0
    4.4416   -5.0013    2.3987 C   0  0  0  0  0  0  0  0  0  0  0  0
    3.8167   -6.2855    2.2630 C   0  0  0  0  0  0  0  0  0  0  0  0
    3.9600   -7.1567    3.2924 N   0  0  0  0  0  0  0  0  0  0  0  0
    4.8466   -6.2105    4.3251 S   0  0  0  0  0  0  0  0  0  0  0  0
    5.0829   -4.7549    3.5675 N   0  0  0  0  0  0  0  0  0  0  0  0
    3.1146   -6.5721    1.0861 C   0  0  0  0  0  0  0  0  0  0  0  0
    2.4240   -7.6861    0.6611 C   0  0  0  0  0  0  0  0  0  0  0  0
    1.4449   -8.8415    1.4335 S   0  0  0  0  0  0  0  0  0  0  0  0
    0.3994   -8.9697    0.0827 C   0  0  0  0  0  0  0  0  0  0  0  0
   -0.9653   -9.3284    0.0286 C   0  0  0  0  0  0  0  0  0  0  0  0
   -1.5549  -10.4273    0.8396 C   0  0  0  0  0  0  0  0  0  0  0  0
   -2.9124  -10.4449    1.2166 C   0  0  0  0  0  0  0  0  0  0  0  0
   -3.4546  -11.5457    1.8822 C   0  0  0  0  0  0  0  0  0  0  0  0
   -2.6617  -12.6670    2.1456 C   0  0  0  0  0  0  0  0  0  0  0  0
   -1.3180  -12.6876    1.7531 C   0  0  0  0  0  0  0  0  0  0  0  0
   -0.4764  -13.9086    2.0140 C   0  0  0  0  0  0  0  0  0  0  0  0
    0.1990  -13.8142    3.3776 C   0  0  0  0  0  0  0  0  0  0  0  0
   -0.7658  -11.5594    1.1285 C   0  0  0  0  0  0  0  0  0  0  0  0
   -1.6248   -8.6255   -1.0214 C   0  0  0  0  0  0  0  0  0  0  0  0
   -0.4763   -7.6860   -1.8519 S   0  0  0  0  0  0  0  0  0  0  0  0
    0.8137   -8.1090   -0.9061 C   0  0  0  0  0  0  0  0  0  0  0  0
    1.9446   -7.3842   -0.5775 C   0  0  0  0  0  0  0  0  0  0  0  0
    2.2958   -6.1431   -0.9889 N   0  0  0  0  0  0  0  0  0  0  0  0
    2.9543   -5.6159    0.0763 C   0  0  0  0  0  0  0  0  0  0  0  0
    3.4149   -4.2914    0.2866 C   0  0  0  0  0  0  0  0  0  0  0  0
    2.9786   -3.1091   -0.2643 N   0  0  0  0  0  0  0  0  0  0  0  0
    3.6626   -2.1642    0.4258 C   0  0  0  0  0  0  0  0  0  0  0  0
    3.5006   -0.7930    0.5812 C   0  0  0  0  0  0  0  0  0  0  0  0
    2.4369    0.3684    0.0173 S   0  0  0  0  0  0  0  0  0  0  0  0
    1.7280   -2.8512   -0.9935 C   0  0  0  0  0  0  0  0  0  0  0  0
    1.9894   -2.1766   -2.3442 C   0  0  0  0  0  0  0  0  0  0  0  0
    2.3466   -5.7035   -2.3894 C   0  0  0  0  0  0  0  0  0  0  0  0
    2.9503   -6.7685   -3.3002 C   0  0  0  0  0  0  0  0  0  0  0  0
   -2.9792   -8.0550   -0.9800 C   0  0  0  0  0  0  0  0  0  0  0  0
   -3.6845   -7.9771   -2.1955 C   0  0  0  0  0  0  0  0  0  0  0  0
   -3.4697   -8.9081   -3.1569 F   0  0  0  0  0  0  0  0  0  0  0  0
   -4.4335   -6.8351   -2.5123 C   0  0  0  0  0  0  0  0  0  0  0  0
   -4.9597   -6.7138   -3.7567 F   0  0  0  0  0  0  0  0  0  0  0  0
   -4.4564   -5.7465   -1.6216 C   0  0  0  0  0  0  0  0  0  0  0  0
   -3.8937   -5.8864   -0.3465 C   0  0  0  0  0  0  0  0  0  0  0  0
   -3.8836   -4.8418    0.5263 N   0  0  0  0  0  0  0  0  0  0  0  0
   -3.3149   -4.9307    1.7533 C   0  0  0  0  0  0  0  0  0  0  0  0
   -3.1832   -3.6930    2.5560 C   0  0  0  0  0  0  0  0  0  0  0  0
   -4.2381   -2.7704    2.6165 C   0  0  0  0  0  0  0  0  0  0  0  0
   -4.1061   -1.5993    3.3681 C   0  0  0  0  0  0  0  0  0  0  0  0
   -2.9141   -1.3367    4.0564 C   0  0  0  0  0  0  0  0  0  0  0  0
   -1.8423   -2.2326    3.9851 C   0  0  0  0  0  0  0  0  0  0  0  0
   -0.6744   -1.9348    4.7127 O   0  0  0  0  0  0  0  0  0  0  0  0
    0.5008   -2.7436    4.7615 C   0  0  0  0  0  0  0  0  0  0  0  0
    1.3593   -2.5318    3.5154 C   0  0  0  0  0  0  0  0  0  0  0  0
   -1.9731   -3.3979    3.2148 C   0  0  0  0  0  0  0  0  0  0  0  0
   -2.7771   -6.1757    2.1651 C   0  0  0  0  0  0  0  0  0  0  0  0
   -2.6869   -7.1764    1.2468 N   0  0  0  0  0  0  0  0  0  0  0  0
   -3.2194   -7.0661   -0.0001 C   0  0  0  0  0  0  0  0  0  0  0  0
   -2.3898   -6.4611    3.5658 C   0  0  0  0  0  0  0  0  0  0  0  0
   -1.2550   -7.2375    3.8360 C   0  0  0  0  0  0  0  0  0  0  0  0
   -0.8930   -7.5228    5.1562 C   0  0  0  0  0  0  0  0  0  0  0  0
   -1.6681   -7.0448    6.2144 C   0  0  0  0  0  0  0  0  0  0  0  0
   -2.8186   -6.2803    5.9640 C   0  0  0  0  0  0  0  0  0  0  0  0
   -3.6268   -5.7639    6.9885 O   0  0  0  0  0  0  0  0  0  0  0  0
   -3.3969   -5.9747    8.3815 C   0  0  0  0  0  0  0  0  0  0  0  0
   -4.3834   -5.1351    9.1836 C   0  0  0  0  0  0  0  0  0  0  0  0
   -3.1818   -6.0109    4.6403 C   0  0  0  0  0  0  0  0  0  0  0  0
   -4.7794   -4.3833   -2.0896 C   0  0  0  0  0  0  0  0  0  0  0  0
   -5.9677   -3.9869   -2.5545 C   0  0  0  0  0  0  0  0  0  0  0  0
   -7.3494   -4.9136   -2.7717 S   0  0  0  0  0  0  0  0  0  0  0  0
   -8.3234   -3.6161   -3.2594 C   0  0  0  0  0  0  0  0  0  0  0  0
   -9.6454   -3.7415   -3.5353 C   0  0  0  0  0  0  0  0  0  0  0  0
  -10.2647   -5.0454   -3.5516 C   0  0  0  0  0  0  0  0  0  0  0  0
  -10.7544   -6.0922   -3.5308 N   0  0  0  0  0  0  0  0  0  0  0  0
  -10.5187   -2.6222   -3.7619 C   0  0  0  0  0  0  0  0  0  0  0  0
  -11.2310   -1.7222   -3.9334 N   0  0  0  0  0  0  0  0  0  0  0  0
   -7.5810   -2.4598   -3.2767 N   0  0  0  0  0  0  0  0  0  0  0  0
   -7.9959   -1.1463   -3.6972 C   0  0  0  0  0  0  0  0  0  0  0  0
   -7.8769   -0.0545   -2.8131 C   0  0  0  0  0  0  0  0  0  0  0  0
   -8.0733    1.2536   -3.2740 C   0  0  0  0  0  0  0  0  0  0  0  0
   -8.4046    1.4799   -4.6122 C   0  0  0  0  0  0  0  0  0  0  0  0
   -8.5398    0.4009   -5.4897 C   0  0  0  0  0  0  0  0  0  0  0  0
   -8.3226   -0.9047   -5.0405 C   0  0  0  0  0  0  0  0  0  0  0  0
   -6.2876   -2.6727   -2.8802 C   0  0  0  0  0  0  0  0  0  0  0  0
   -5.4410   -1.7381   -2.8181 O   0  0  0  0  0  0  0  0  0  0  0  0
   -0.5094    8.8626    0.3328 H   0  0  0  0  0  0  0  0  0  0  0  0
    0.5198    6.0060   -5.0798 H   0  0  0  0  0  0  0  0  0  0  0  0
    0.5516   11.0693   -4.4649 H   0  0  0  0  0  0  0  0  0  0  0  0
    1.4347   10.1111   -7.7341 H   0  0  0  0  0  0  0  0  0  0  0  0
    3.6642   10.8006   -6.2105 H   0  0  0  0  0  0  0  0  0  0  0  0
    4.6337   10.2413   -8.6184 H   0  0  0  0  0  0  0  0  0  0  0  0
    4.5599    7.6564   -8.9607 H   0  0  0  0  0  0  0  0  0  0  0  0
    3.5420    6.5601   -6.7646 H   0  0  0  0  0  0  0  0  0  0  0  0
    3.4152    8.4752   -4.8953 H   0  0  0  0  0  0  0  0  0  0  0  0
    5.0052    8.5419   -5.7594 H   0  0  0  0  0  0  0  0  0  0  0  0
    1.3715    7.7275   -8.0312 H   0  0  0  0  0  0  0  0  0  0  0  0
    0.6461    6.7082    3.4146 H   0  0  0  0  0  0  0  0  0  0  0  0
    0.3219    7.9589    5.4837 H   0  0  0  0  0  0  0  0  0  0  0  0
   -2.9994    8.5032    7.0979 H   0  0  0  0  0  0  0  0  0  0  0  0
   -1.2230    8.5060    7.3526 H   0  0  0  0  0  0  0  0  0  0  0  0
   -1.9944    9.8362    6.4045 H   0  0  0  0  0  0  0  0  0  0  0  0
   -3.9473    7.8516    4.8941 H   0  0  0  0  0  0  0  0  0  0  0  0
   -3.6262    6.5902    2.8102 H   0  0  0  0  0  0  0  0  0  0  0  0
   -2.3532    3.8394    3.2854 H   0  0  0  0  0  0  0  0  0  0  0  0
   -3.8012    1.9924    2.5344 H   0  0  0  0  0  0  0  0  0  0  0  0
   -4.6021    1.3343   -1.0962 H   0  0  0  0  0  0  0  0  0  0  0  0
   -5.7449    1.6744    0.2629 H   0  0  0  0  0  0  0  0  0  0  0  0
   -4.3645    0.5297    0.4869 H   0  0  0  0  0  0  0  0  0  0  0  0
   -3.7007    3.5493   -1.4849 H   0  0  0  0  0  0  0  0  0  0  0  0
   -2.3156    5.4243   -0.7116 H   0  0  0  0  0  0  0  0  0  0  0  0
    1.8077    2.7469   -1.8400 H   0  0  0  0  0  0  0  0  0  0  0  0
    1.1824    2.6732   -4.1981 H   0  0  0  0  0  0  0  0  0  0  0  0
    3.4006    3.8052   -6.9808 H   0  0  0  0  0  0  0  0  0  0  0  0
    1.8597    4.6330   -6.5322 H   0  0  0  0  0  0  0  0  0  0  0  0
    1.9452    2.8280   -6.5593 H   0  0  0  0  0  0  0  0  0  0  0  0
    4.7221    4.9127   -5.2127 H   0  0  0  0  0  0  0  0  0  0  0  0
    5.3456    5.0137   -2.8491 H   0  0  0  0  0  0  0  0  0  0  0  0
    4.7970    6.0295    0.7717 H   0  0  0  0  0  0  0  0  0  0  0  0
    7.0928    6.5095    1.4943 H   0  0  0  0  0  0  0  0  0  0  0  0
    9.3641    5.7062    1.8824 H   0  0  0  0  0  0  0  0  0  0  0  0
    9.8889    4.1180    1.2247 H   0  0  0  0  0  0  0  0  0  0  0  0
    9.8887    5.5801    0.1592 H   0  0  0  0  0  0  0  0  0  0  0  0
    8.4718    2.9683   -0.5386 H   0  0  0  0  0  0  0  0  0  0  0  0
    6.1673    2.4929   -1.2726 H   0  0  0  0  0  0  0  0  0  0  0  0
    6.8240    0.9883    1.8607 H   0  0  0  0  0  0  0  0  0  0  0  0
    8.3653    2.5206    3.0041 H   0  0  0  0  0  0  0  0  0  0  0  0
    7.5038    4.3949    4.3509 H   0  0  0  0  0  0  0  0  0  0  0  0
    3.8286    5.2410    4.6171 H   0  0  0  0  0  0  0  0  0  0  0  0
    5.4721    5.9630    4.6165 H   0  0  0  0  0  0  0  0  0  0  0  0
    4.5517    3.7557    6.5768 H   0  0  0  0  0  0  0  0  0  0  0  0
    6.1059    4.6909    6.6218 H   0  0  0  0  0  0  0  0  0  0  0  0
    4.5390    5.5290    6.9340 H   0  0  0  0  0  0  0  0  0  0  0  0
    3.4694    3.1243    3.5324 H   0  0  0  0  0  0  0  0  0  0  0  0
   -3.5741   -9.6230    0.9950 H   0  0  0  0  0  0  0  0  0  0  0  0
   -4.4961  -11.5503    2.1681 H   0  0  0  0  0  0  0  0  0  0  0  0
   -3.1056  -13.5222    2.6406 H   0  0  0  0  0  0  0  0  0  0  0  0
   -1.1083  -14.8221    1.9833 H   0  0  0  0  0  0  0  0  0  0  0  0
    0.2992  -14.0139    1.2264 H   0  0  0  0  0  0  0  0  0  0  0  0
    0.8304  -14.7152    3.5407 H   0  0  0  0  0  0  0  0  0  0  0  0
   -0.5644  -13.7661    4.1828 H   0  0  0  0  0  0  0  0  0  0  0  0
    0.8476  -12.9141    3.4278 H   0  0  0  0  0  0  0  0  0  0  0  0
    0.2685  -11.5975    0.8052 H   0  0  0  0  0  0  0  0  0  0  0  0
    1.1448   -3.7803   -1.1333 H   0  0  0  0  0  0  0  0  0  0  0  0
    1.0758   -2.1937   -0.3774 H   0  0  0  0  0  0  0  0  0  0  0  0
    2.4482   -1.1802   -2.2062 H   0  0  0  0  0  0  0  0  0  0  0  0
    1.0322   -2.0529   -2.8901 H   0  0  0  0  0  0  0  0  0  0  0  0
    2.6831   -2.7676   -2.9725 H   0  0  0  0  0  0  0  0  0  0  0  0
    3.0136   -4.8302   -2.4681 H   0  0  0  0  0  0  0  0  0  0  0  0
    1.3300   -5.4438   -2.7532 H   0  0  0  0  0  0  0  0  0  0  0  0
    2.2905   -7.6636   -3.3567 H   0  0  0  0  0  0  0  0  0  0  0  0
    3.0697   -6.3613   -4.3266 H   0  0  0  0  0  0  0  0  0  0  0  0
    3.9524   -7.0705   -2.9201 H   0  0  0  0  0  0  0  0  0  0  0  0
   -5.1693   -2.9636    2.0976 H   0  0  0  0  0  0  0  0  0  0  0  0
   -4.9277   -0.9016    3.4309 H   0  0  0  0  0  0  0  0  0  0  0  0
   -2.8237   -0.4335    4.6487 H   0  0  0  0  0  0  0  0  0  0  0  0
    0.2442   -3.8168    4.8844 H   0  0  0  0  0  0  0  0  0  0  0  0
    1.0906   -2.4471    5.6512 H   0  0  0  0  0  0  0  0  0  0  0  0
    0.8224   -2.8543    2.5974 H   0  0  0  0  0  0  0  0  0  0  0  0
    2.2951   -3.1227    3.6075 H   0  0  0  0  0  0  0  0  0  0  0  0
    1.6278   -1.4558    3.4122 H   0  0  0  0  0  0  0  0  0  0  0  0
   -1.1473   -4.0872    3.1139 H   0  0  0  0  0  0  0  0  0  0  0  0
   -0.6422   -7.6146    3.0274 H   0  0  0  0  0  0  0  0  0  0  0  0
   -0.0091   -8.1111    5.3614 H   0  0  0  0  0  0  0  0  0  0  0  0
   -1.3706   -7.2882    7.2255 H   0  0  0  0  0  0  0  0  0  0  0  0
   -2.3638   -5.6597    8.6506 H   0  0  0  0  0  0  0  0  0  0  0  0
   -3.5396   -7.0490    8.6305 H   0  0  0  0  0  0  0  0  0  0  0  0
   -4.2378   -4.0588    8.9525 H   0  0  0  0  0  0  0  0  0  0  0  0
   -5.4222   -5.4360    8.9280 H   0  0  0  0  0  0  0  0  0  0  0  0
   -4.2178   -5.3023   10.2668 H   0  0  0  0  0  0  0  0  0  0  0  0
   -4.0911   -5.4526    4.4559 H   0  0  0  0  0  0  0  0  0  0  0  0
   -4.0092   -3.6388   -1.9434 H   0  0  0  0  0  0  0  0  0  0  0  0
   -7.5898   -0.2115   -1.7821 H   0  0  0  0  0  0  0  0  0  0  0  0
   -7.9346    2.0915   -2.6017 H   0  0  0  0  0  0  0  0  0  0  0  0
   -8.5245    2.4855   -4.9721 H   0  0  0  0  0  0  0  0  0  0  0  0
   -8.7790    0.5795   -6.5275 H   0  0  0  0  0  0  0  0  0  0  0  0
   -8.3969   -1.7331   -5.7352 H   0  0  0  0  0  0  0  0  0  0  0  0
  1  2  2  3
  2  3  1  0
  3  4  2  0
  3  5  1  0
  5  6  2  0
  6  7  1  0
  7  8  2  0
  8  9  1  0
  9 10  2  0
 10 11  1  0
 11 12  2  3
 12 13  1  0
 13 14  3  0
 12 15  1  0
 15 16  3  0
  8 17  1  0
 17 18  1  0
 18 19  1  0
 19 20  2  0
 20 21  1  0
 21 22  1  0
 21 23  1  0
  1 24  1  0
 24 25  2  0
 25 26  1  0
 26 27  1  0
 27 28  2  0
 28 29  1  0
 29 30  2  0
 30 31  1  0
 30 32  1  0
 32 33  2  0
 26 34  1  0
 34 35  2  0
 35 36  1  0
 36 37  2  0
 37 38  1  0
 37 39  1  0
 39 40  2  0
 25 41  1  0
 41 42  1  0
 42 43  1  0
 43 44  2  0
 44 45  1  0
 45 46  1  0
 46 47  2  0
 47 48  1  0
 48 49  2  0
 49 50  1  0
 49 51  1  0
 51 52  2  0
 45 53  1  0
 53 54  2  0
 54 55  1  0
 55 56  2  0
 56 57  1  0
 56 58  1  0
 58 59  2  0
 44 60  1  0
 60 61  1  0
 43 62  1  0
 62 63  2  0
 63 64  1  0
 64 65  2  0
 65 66  1  0
 66 67  2  0
 67 68  1  0
 68 69  1  0
 69 70  1  0
 68 71  2  0
 63 72  1  0
 72 73  1  0
 73 74  1  0
 74 75  1  0
 75 76  1  0
 76 77  1  0
 77 78  2  0
 78 79  1  0
 79 80  1  0
 77 81  1  0
 81 82  1  0
 82 83  1  0
 83 84  1  0
 84 85  1  0
 85 86  1  0
 86 87  2  0
 87 88  1  0
 88 89  2  0
 89 90  1  0
 90 91  1  0
 91 92  1  0
 90 93  2  0
 85 94  2  0
 94 95  1  0
 95 96  1  0
 96 97  1  0
 97 98  1  0
 98 99  1  0
 99100  1  0
100101  1  0
101102  1  0
102103  1  0
103104  1  0
101105  1  0
105106  1  0
 98107  1  0
107108  1  0
 94109  1  0
109110  2  0
110111  1  0
110112  1  0
112113  1  0
112114  2  0
114115  1  0
115116  2  0
116117  1  0
117118  1  0
118119  2  0
119120  1  0
120121  2  0
121122  1  0
122123  1  0
123124  1  0
124125  1  0
122126  2  0
117127  2  0
127128  1  0
128129  2  0
127130  1  0
130131  2  0
131132  1  0
132133  2  0
133134  1  0
134135  1  0
135136  1  0
136137  1  0
134138  2  0
114139  1  0
139140  2  3
140141  1  0
141142  1  0
142143  2  3
143144  1  0
144145  3  0
143146  1  0
146147  3  0
142148  1  0
148149  1  0
149150  2  0
150151  1  0
151152  2  0
152153  1  0
153154  2  0
148155  1  0
155156  2  0
 11  2  1  0
 23 17  1  0
 61 24  1  0
104 62  1  0
129109  1  0
138130  1  0
155140  1  0
 10  5  1  0
 22 18  1  0
 33 27  1  0
 40 34  1  0
 60 41  2  0
 71 64  1  0
103 72  2  0
129115  1  0
154149  1  0
 23  7  1  0
 52 46  1  0
 59 53  1  0
102 74  2  0
126118  1  0
100 75  2  0
 80 76  2  0
 99 81  2  0
 97 82  2  0
 96 84  2  0
 93 86  1  0
  1157  1  0
  6158  1  0
  9159  1  0
 17160  1  0
 18161  1  0
 19162  1  0
 20163  1  0
 21164  1  0
 22165  1  0
 22166  1  0
 23167  1  0
 28168  1  0
 29169  1  0
 31170  1  0
 31171  1  0
 31172  1  0
 32173  1  0
 33174  1  0
 35175  1  0
 36176  1  0
 38177  1  0
 38178  1  0
 38179  1  0
 39180  1  0
 40181  1  0
 47182  1  0
 48183  1  0
 50184  1  0
 50185  1  0
 50186  1  0
 51187  1  0
 52188  1  0
 54189  1  0
 55190  1  0
 57191  1  0
 57192  1  0
 57193  1  0
 58194  1  0
 59195  1  0
 65196  1  0
 66197  1  0
 67198  1  0
 69199  1  0
 69200  1  0
 70201  1  0
 70202  1  0
 70203  1  0
 71204  1  0
 87205  1  0
 88206  1  0
 89207  1  0
 91208  1  0
 91209  1  0
 92210  1  0
 92211  1  0
 92212  1  0
 93213  1  0
105214  1  0
105215  1  0
106216  1  0
106217  1  0
106218  1  0
107219  1  0
107220  1  0
108221  1  0
108222  1  0
108223  1  0
119224  1  0
120225  1  0
121226  1  0
124227  1  0
124228  1  0
125229  1  0
125230  1  0
125231  1  0
126232  1  0
131233  1  0
132234  1  0
133235  1  0
136236  1  0
136237  1  0
137238  1  0
137239  1  0
137240  1  0
138241  1  0
139242  1  0
150243  1  0
151244  1  0
152245  1  0
153246  1  0
154247  1  0
M  END

