
     RDKit          3D

291322  0  0  0  0  0  0  0  0999 V2000
    8.5763    5.7358    2.4286 C   0  0  0  0  0  0  0  0  0  0  0  0
    8.8153    4.9790    3.5099 C   0  0  0  0  0  0  0  0  0  0  0  0
    7.8472    4.9392    4.6105 C   0  0  0  0  0  0  0  0  0  0  0  0
    7.2187    5.9380    5.0565 O   0  0  0  0  0  0  0  0  0  0  0  0
    7.6709    3.5822    5.0701 C   0  0  0  0  0  0  0  0  0  0  0  0
    6.7276    3.1141    6.0164 C   0  0  0  0  0  0  0  0  0  0  0  0
    6.6736    1.7375    6.1192 C   0  0  0  0  0  0  0  0  0  0  0  0
    7.4827    0.8655    5.3224 C   0  0  0  0  0  0  0  0  0  0  0  0
    8.4045    1.3163    4.3958 C   0  0  0  0  0  0  0  0  0  0  0  0
    8.5032    2.7332    4.2986 C   0  0  0  0  0  0  0  0  0  0  0  0
    9.3069    3.5712    3.3674 C   0  0  0  0  0  0  0  0  0  0  0  0
   10.3441    3.1697    2.5878 C   0  0  0  0  0  0  0  0  0  0  0  0
   11.1219    4.0997    1.8077 C   0  0  0  0  0  0  0  0  0  0  0  0
   11.7533    4.8423    1.1857 N   0  0  0  0  0  0  0  0  0  0  0  0
   10.8051    1.8087    2.5357 C   0  0  0  0  0  0  0  0  0  0  0  0
   11.1948    0.7185    2.4817 N   0  0  0  0  0  0  0  0  0  0  0  0
    6.8094   -0.3318    5.9163 C   0  0  0  0  0  0  0  0  0  0  0  0
    5.7664   -1.0582    5.0144 C   0  0  0  0  0  0  0  0  0  0  0  0
    4.9729   -1.9492    5.9392 C   0  0  0  0  0  0  0  0  0  0  0  0
    4.2234   -1.1375    6.6944 C   0  0  0  0  0  0  0  0  0  0  0  0
    4.5358    0.2716    6.2529 C   0  0  0  0  0  0  0  0  0  0  0  0
    4.7170    0.0149    4.7653 C   0  0  0  0  0  0  0  0  0  0  0  0
    5.9856    0.5585    6.7408 C   0  0  0  0  0  0  0  0  0  0  0  0
    7.4167    5.4449    1.5532 C   0  0  0  0  0  0  0  0  0  0  0  0
    7.4619    5.4035    0.1463 C   0  0  0  0  0  0  0  0  0  0  0  0
    8.5639    5.8715   -0.6565 N   0  0  0  0  0  0  0  0  0  0  0  0
    9.1152    5.0055   -1.6680 C   0  0  0  0  0  0  0  0  0  0  0  0
    9.3286    3.6411   -1.3981 C   0  0  0  0  0  0  0  0  0  0  0  0
    9.8223    2.7933   -2.3941 C   0  0  0  0  0  0  0  0  0  0  0  0
   10.0939    3.2883   -3.6777 C   0  0  0  0  0  0  0  0  0  0  0  0
   10.6510    2.3831   -4.7332 C   0  0  0  0  0  0  0  0  0  0  0  0
    9.9000    4.6517   -3.9431 C   0  0  0  0  0  0  0  0  0  0  0  0
    9.4065    5.5030   -2.9499 C   0  0  0  0  0  0  0  0  0  0  0  0
    9.0593    7.2147   -0.4673 C   0  0  0  0  0  0  0  0  0  0  0  0
   10.4307    7.4939   -0.5933 C   0  0  0  0  0  0  0  0  0  0  0  0
   10.9215    8.7753   -0.3333 C   0  0  0  0  0  0  0  0  0  0  0  0
   10.0510    9.7988    0.0697 C   0  0  0  0  0  0  0  0  0  0  0  0
   10.5804   11.1745    0.3462 C   0  0  0  0  0  0  0  0  0  0  0  0
    8.6768    9.5390    0.1571 C   0  0  0  0  0  0  0  0  0  0  0  0
    8.1842    8.2561   -0.1001 C   0  0  0  0  0  0  0  0  0  0  0  0
    6.3142    4.8070   -0.3763 C   0  0  0  0  0  0  0  0  0  0  0  0
    5.8644    4.2719   -1.8991 S   0  0  0  0  0  0  0  0  0  0  0  0
    4.4090    3.5626   -1.3737 C   0  0  0  0  0  0  0  0  0  0  0  0
    4.2725    3.7464    0.0182 C   0  0  0  0  0  0  0  0  0  0  0  0
    3.1739    3.2837    0.8320 N   0  0  0  0  0  0  0  0  0  0  0  0
    2.6742    1.9462    0.6956 C   0  0  0  0  0  0  0  0  0  0  0  0
    3.4178    0.8668    1.1911 C   0  0  0  0  0  0  0  0  0  0  0  0
    2.8406   -0.4033    1.2723 C   0  0  0  0  0  0  0  0  0  0  0  0
    1.5333   -0.6216    0.7994 C   0  0  0  0  0  0  0  0  0  0  0  0
    0.8948   -1.9735    0.9093 C   0  0  0  0  0  0  0  0  0  0  0  0
    0.8023    0.4571    0.2828 C   0  0  0  0  0  0  0  0  0  0  0  0
    1.3621    1.7366    0.2533 C   0  0  0  0  0  0  0  0  0  0  0  0
    2.7208    4.0816    1.9467 C   0  0  0  0  0  0  0  0  0  0  0  0
    2.4984    3.4972    3.2106 C   0  0  0  0  0  0  0  0  0  0  0  0
    2.1338    4.2866    4.3017 C   0  0  0  0  0  0  0  0  0  0  0  0
    1.9919    5.6734    4.1555 C   0  0  0  0  0  0  0  0  0  0  0  0
    1.5793    6.5155    5.3256 C   0  0  0  0  0  0  0  0  0  0  0  0
    2.1847    6.2563    2.8940 C   0  0  0  0  0  0  0  0  0  0  0  0
    2.5507    5.4678    1.8004 C   0  0  0  0  0  0  0  0  0  0  0  0
    5.3747    4.4366    0.5300 C   0  0  0  0  0  0  0  0  0  0  0  0
    5.9370    4.7692    2.0749 S   0  0  0  0  0  0  0  0  0  0  0  0
    3.5884    2.7282   -2.2584 C   0  0  0  0  0  0  0  0  0  0  0  0
    2.2742    2.9899   -2.6660 C   0  0  0  0  0  0  0  0  0  0  0  0
    1.8574    2.0293   -3.5859 C   0  0  0  0  0  0  0  0  0  0  0  0
    0.3591    1.6289   -4.2555 S   0  0  0  0  0  0  0  0  0  0  0  0
    0.9579    0.2163   -4.9988 C   0  0  0  0  0  0  0  0  0  0  0  0
    0.3331   -1.0861   -5.0709 C   0  0  0  0  0  0  0  0  0  0  0  0
   -1.0170   -1.4118   -5.2340 C   0  0  0  0  0  0  0  0  0  0  0  0
   -1.4245   -2.6795   -4.7781 C   0  0  0  0  0  0  0  0  0  0  0  0
   -2.8184   -3.3084   -4.7723 C   0  0  0  0  0  0  0  0  0  0  0  0
   -3.9320   -2.2538   -4.8610 C   0  0  0  0  0  0  0  0  0  0  0  0
   -4.9046   -2.2993   -5.8854 C   0  0  0  0  0  0  0  0  0  0  0  0
   -5.8312   -1.2742   -6.0476 C   0  0  0  0  0  0  0  0  0  0  0  0
   -5.8288   -0.1712   -5.1871 C   0  0  0  0  0  0  0  0  0  0  0  0
   -6.7894    0.9714   -5.4181 C   0  0  0  0  0  0  0  0  0  0  0  0
   -8.2438    0.4983   -5.5218 C   0  0  0  0  0  0  0  0  0  0  0  0
   -4.8558   -0.0980   -4.1794 C   0  0  0  0  0  0  0  0  0  0  0  0
   -3.9183   -1.1244   -4.0199 C   0  0  0  0  0  0  0  0  0  0  0  0
   -2.8436   -4.3155   -5.9432 C   0  0  0  0  0  0  0  0  0  0  0  0
   -2.4116   -3.9166   -7.2300 C   0  0  0  0  0  0  0  0  0  0  0  0
   -2.3462   -4.8331   -8.2808 C   0  0  0  0  0  0  0  0  0  0  0  0
   -2.7218   -6.1671   -8.0795 C   0  0  0  0  0  0  0  0  0  0  0  0
   -2.5392   -7.1839   -9.1737 C   0  0  0  0  0  0  0  0  0  0  0  0
   -1.1658   -7.8388   -9.0713 C   0  0  0  0  0  0  0  0  0  0  0  0
   -3.1725   -6.5701   -6.8169 C   0  0  0  0  0  0  0  0  0  0  0  0
   -3.2549   -5.6543   -5.7704 C   0  0  0  0  0  0  0  0  0  0  0  0
   -2.6769   -4.0569   -3.4461 C   0  0  0  0  0  0  0  0  0  0  0  0
   -1.3410   -4.2753   -3.1719 C   0  0  0  0  0  0  0  0  0  0  0  0
   -0.5349   -3.4538   -4.0371 C   0  0  0  0  0  0  0  0  0  0  0  0
    0.8418   -3.2072   -4.0204 C   0  0  0  0  0  0  0  0  0  0  0  0
    1.2755   -2.0220   -4.6436 C   0  0  0  0  0  0  0  0  0  0  0  0
    2.6841   -1.4410   -4.7345 C   0  0  0  0  0  0  0  0  0  0  0  0
    3.6203   -1.8902   -3.6039 C   0  0  0  0  0  0  0  0  0  0  0  0
    4.9714   -2.2274   -3.8541 C   0  0  0  0  0  0  0  0  0  0  0  0
    5.8126   -2.6349   -2.8169 C   0  0  0  0  0  0  0  0  0  0  0  0
    5.3314   -2.7194   -1.5075 C   0  0  0  0  0  0  0  0  0  0  0  0
    6.2244   -3.2029   -0.3968 C   0  0  0  0  0  0  0  0  0  0  0  0
    6.1744   -4.7251   -0.2861 C   0  0  0  0  0  0  0  0  0  0  0  0
    3.9941   -2.4001   -1.2495 C   0  0  0  0  0  0  0  0  0  0  0  0
    3.1576   -1.9539   -2.2758 C   0  0  0  0  0  0  0  0  0  0  0  0
    3.2508   -1.7172   -6.1412 C   0  0  0  0  0  0  0  0  0  0  0  0
    4.0631   -0.7601   -6.7884 C   0  0  0  0  0  0  0  0  0  0  0  0
    4.4921   -0.9572   -8.1024 C   0  0  0  0  0  0  0  0  0  0  0  0
    4.1470   -2.1259   -8.7934 C   0  0  0  0  0  0  0  0  0  0  0  0
    4.5063   -2.2791  -10.2485 C   0  0  0  0  0  0  0  0  0  0  0  0
    3.4372   -1.6402  -11.1316 C   0  0  0  0  0  0  0  0  0  0  0  0
    3.4007   -3.1150   -8.1399 C   0  0  0  0  0  0  0  0  0  0  0  0
    2.9772   -2.9251   -6.8191 C   0  0  0  0  0  0  0  0  0  0  0  0
    2.2825    0.0177   -4.6527 C   0  0  0  0  0  0  0  0  0  0  0  0
    2.7714    1.0612   -3.8736 C   0  0  0  0  0  0  0  0  0  0  0  0
    4.1827    1.3239   -3.0114 S   0  0  0  0  0  0  0  0  0  0  0  0
   -1.0774   -4.8788   -1.6123 S   0  0  0  0  0  0  0  0  0  0  0  0
   -2.7409   -5.0170   -1.3676 C   0  0  0  0  0  0  0  0  0  0  0  0
   -3.5839   -5.3214   -0.2483 C   0  0  0  0  0  0  0  0  0  0  0  0
   -4.8706   -5.0183   -0.5880 C   0  0  0  0  0  0  0  0  0  0  0  0
   -4.9848   -4.4949   -2.0232 C   0  0  0  0  0  0  0  0  0  0  0  0
   -3.4975   -4.5113   -2.3967 C   0  0  0  0  0  0  0  0  0  0  0  0
   -5.5744   -3.0786   -1.9135 C   0  0  0  0  0  0  0  0  0  0  0  0
   -6.9442   -2.8283   -2.1466 C   0  0  0  0  0  0  0  0  0  0  0  0
   -7.5183   -1.5977   -1.8166 C   0  0  0  0  0  0  0  0  0  0  0  0
   -6.7587   -0.6091   -1.1754 C   0  0  0  0  0  0  0  0  0  0  0  0
   -7.4133    0.6639   -0.7054 C   0  0  0  0  0  0  0  0  0  0  0  0
   -7.5204    1.6835   -1.8331 C   0  0  0  0  0  0  0  0  0  0  0  0
   -5.4015   -0.8435   -0.9285 C   0  0  0  0  0  0  0  0  0  0  0  0
   -4.8213   -2.0670   -1.2735 C   0  0  0  0  0  0  0  0  0  0  0  0
   -5.7284   -5.4821   -2.9370 C   0  0  0  0  0  0  0  0  0  0  0  0
   -5.8042   -6.8596   -2.6208 C   0  0  0  0  0  0  0  0  0  0  0  0
   -6.3278   -7.7783   -3.5297 C   0  0  0  0  0  0  0  0  0  0  0  0
   -6.7786   -7.3569   -4.7863 C   0  0  0  0  0  0  0  0  0  0  0  0
   -7.2706   -8.3645   -5.7907 C   0  0  0  0  0  0  0  0  0  0  0  0
   -6.1060   -8.9615   -6.5782 C   0  0  0  0  0  0  0  0  0  0  0  0
   -6.6978   -5.9983   -5.1208 C   0  0  0  0  0  0  0  0  0  0  0  0
   -6.1865   -5.0777   -4.2039 C   0  0  0  0  0  0  0  0  0  0  0  0
   -5.7092   -4.8133    0.5143 C   0  0  0  0  0  0  0  0  0  0  0  0
   -5.0152   -4.9226    1.7245 C   0  0  0  0  0  0  0  0  0  0  0  0
   -3.3709   -5.2343    1.4123 S   0  0  0  0  0  0  0  0  0  0  0  0
   -5.5501   -4.5335    3.0429 C   0  0  0  0  0  0  0  0  0  0  0  0
   -6.3830   -3.5180    3.2737 C   0  0  0  0  0  0  0  0  0  0  0  0
   -6.6208   -3.3423    4.6521 C   0  0  0  0  0  0  0  0  0  0  0  0
   -5.8636   -4.3763    5.3166 C   0  0  0  0  0  0  0  0  0  0  0  0
   -5.8158   -4.6058    6.5557 O   0  0  0  0  0  0  0  0  0  0  0  0
   -5.1813   -5.1329    4.3067 N   0  0  0  0  0  0  0  0  0  0  0  0
   -4.4836   -6.4004    4.5216 C   0  0  0  0  0  0  0  0  0  0  0  0
   -3.0978   -6.1453    5.1023 C   0  0  0  0  0  0  0  0  0  0  0  0
   -7.3795   -2.2801    4.8912 C   0  0  0  0  0  0  0  0  0  0  0  0
   -7.7515   -1.6590    3.6367 N   0  0  0  0  0  0  0  0  0  0  0  0
   -8.9440   -0.8458    3.3943 C   0  0  0  0  0  0  0  0  0  0  0  0
  -10.1717   -1.7321    3.2183 C   0  0  0  0  0  0  0  0  0  0  0  0
   -7.0989   -2.4428    2.6279 C   0  0  0  0  0  0  0  0  0  0  0  0
   -7.1541   -2.2074    1.3929 O   0  0  0  0  0  0  0  0  0  0  0  0
   -7.8145   -1.8637    6.2393 C   0  0  0  0  0  0  0  0  0  0  0  0
   -7.8524   -0.5834    6.6649 C   0  0  0  0  0  0  0  0  0  0  0  0
   -7.1791    0.5417    6.0035 C   0  0  0  0  0  0  0  0  0  0  0  0
   -6.5040    0.4833    4.9350 O   0  0  0  0  0  0  0  0  0  0  0  0
   -7.2575    1.7052    6.8492 C   0  0  0  0  0  0  0  0  0  0  0  0
   -6.7601    2.9967    6.5588 C   0  0  0  0  0  0  0  0  0  0  0  0
   -6.9852    3.9240    7.5539 C   0  0  0  0  0  0  0  0  0  0  0  0
   -7.6573    3.6061    8.7759 C   0  0  0  0  0  0  0  0  0  0  0  0
   -8.1503    2.3445    9.0663 C   0  0  0  0  0  0  0  0  0  0  0  0
   -7.9362    1.3674    8.0490 C   0  0  0  0  0  0  0  0  0  0  0  0
   -8.3550   -0.0689    7.9859 C   0  0  0  0  0  0  0  0  0  0  0  0
   -9.1374   -0.7292    8.8812 C   0  0  0  0  0  0  0  0  0  0  0  0
   -9.6918   -2.0352    8.6196 C   0  0  0  0  0  0  0  0  0  0  0  0
  -10.1162   -3.0879    8.4005 N   0  0  0  0  0  0  0  0  0  0  0  0
   -9.4316   -0.2107   10.1932 C   0  0  0  0  0  0  0  0  0  0  0  0
   -9.6736    0.1860   11.2561 N   0  0  0  0  0  0  0  0  0  0  0  0
   -7.4769    5.0133    9.2604 C   0  0  0  0  0  0  0  0  0  0  0  0
   -6.3806    5.2850   10.3366 C   0  0  0  0  0  0  0  0  0  0  0  0
   -5.2437    4.3048   10.1789 C   0  0  0  0  0  0  0  0  0  0  0  0
   -4.6324    4.6105    9.0362 C   0  0  0  0  0  0  0  0  0  0  0  0
   -5.3790    5.7863    8.4477 C   0  0  0  0  0  0  0  0  0  0  0  0
   -5.7188    6.5103    9.7370 C   0  0  0  0  0  0  0  0  0  0  0  0
   -6.8054    5.3463    8.0008 C   0  0  0  0  0  0  0  0  0  0  0  0
    9.4487    6.0908    1.9092 H   0  0  0  0  0  0  0  0  0  0  0  0
    6.0702    3.7671    6.5732 H   0  0  0  0  0  0  0  0  0  0  0  0
    8.9410    0.6192    3.7780 H   0  0  0  0  0  0  0  0  0  0  0  0
    7.4991   -0.9944    6.4891 H   0  0  0  0  0  0  0  0  0  0  0  0
    6.1754   -1.5570    4.1098 H   0  0  0  0  0  0  0  0  0  0  0  0
    4.9371   -3.0336    5.9401 H   0  0  0  0  0  0  0  0  0  0  0  0
    3.4741   -1.4497    7.4165 H   0  0  0  0  0  0  0  0  0  0  0  0
    3.7737    1.0313    6.5275 H   0  0  0  0  0  0  0  0  0  0  0  0
    5.0894    0.8910    4.1879 H   0  0  0  0  0  0  0  0  0  0  0  0
    3.7940   -0.3721    4.2691 H   0  0  0  0  0  0  0  0  0  0  0  0
    6.1550    0.4626    7.8364 H   0  0  0  0  0  0  0  0  0  0  0  0
    9.1122    3.2346   -0.4180 H   0  0  0  0  0  0  0  0  0  0  0  0
    9.9832    1.7480   -2.1677 H   0  0  0  0  0  0  0  0  0  0  0  0
   10.2632    1.3487   -4.6059 H   0  0  0  0  0  0  0  0  0  0  0  0
   11.7582    2.3660   -4.6580 H   0  0  0  0  0  0  0  0  0  0  0  0
   10.3621    2.7329   -5.7467 H   0  0  0  0  0  0  0  0  0  0  0  0
   10.1192    5.0548   -4.9243 H   0  0  0  0  0  0  0  0  0  0  0  0
    9.2364    6.5455   -3.1847 H   0  0  0  0  0  0  0  0  0  0  0  0
   11.1222    6.7128   -0.8755 H   0  0  0  0  0  0  0  0  0  0  0  0
   11.9835    8.9642   -0.4290 H   0  0  0  0  0  0  0  0  0  0  0  0
   10.5831   11.7638   -0.5929 H   0  0  0  0  0  0  0  0  0  0  0  0
   11.6139   11.1229    0.7464 H   0  0  0  0  0  0  0  0  0  0  0  0
    9.9477   11.6934    1.0974 H   0  0  0  0  0  0  0  0  0  0  0  0
    7.9862   10.3247    0.4425 H   0  0  0  0  0  0  0  0  0  0  0  0
    7.1204    8.0768   -0.0123 H   0  0  0  0  0  0  0  0  0  0  0  0
    4.4151    1.0263    1.5829 H   0  0  0  0  0  0  0  0  0  0  0  0
    3.4054   -1.2125    1.7223 H   0  0  0  0  0  0  0  0  0  0  0  0
    0.2126   -1.9911    1.7855 H   0  0  0  0  0  0  0  0  0  0  0  0
    0.3080   -2.1956   -0.0099 H   0  0  0  0  0  0  0  0  0  0  0  0
    1.6530   -2.7734    1.0402 H   0  0  0  0  0  0  0  0  0  0  0  0
   -0.2123    0.3129   -0.0658 H   0  0  0  0  0  0  0  0  0  0  0  0
    0.7666    2.5717   -0.0898 H   0  0  0  0  0  0  0  0  0  0  0  0
    2.6305    2.4342    3.3632 H   0  0  0  0  0  0  0  0  0  0  0  0
    1.9690    3.8196    5.2658 H   0  0  0  0  0  0  0  0  0  0  0  0
    0.4741    6.5069    5.4105 H   0  0  0  0  0  0  0  0  0  0  0  0
    1.9257    7.5635    5.2029 H   0  0  0  0  0  0  0  0  0  0  0  0
    2.0186    6.1160    6.2647 H   0  0  0  0  0  0  0  0  0  0  0  0
    2.0611    7.3240    2.7573 H   0  0  0  0  0  0  0  0  0  0  0  0
    2.7140    5.9359    0.8392 H   0  0  0  0  0  0  0  0  0  0  0  0
    1.6636    3.8081   -2.3084 H   0  0  0  0  0  0  0  0  0  0  0  0
   -1.7204   -0.6935   -5.6332 H   0  0  0  0  0  0  0  0  0  0  0  0
   -4.9700   -3.1291   -6.5774 H   0  0  0  0  0  0  0  0  0  0  0  0
   -6.5419   -1.3394   -6.8618 H   0  0  0  0  0  0  0  0  0  0  0  0
   -6.7142    1.7090   -4.5962 H   0  0  0  0  0  0  0  0  0  0  0  0
   -6.5078    1.5000   -6.3531 H   0  0  0  0  0  0  0  0  0  0  0  0
   -8.9278    1.3661   -5.4080 H   0  0  0  0  0  0  0  0  0  0  0  0
   -8.4241    0.0520   -6.5221 H   0  0  0  0  0  0  0  0  0  0  0  0
   -8.4707   -0.2523   -4.7347 H   0  0  0  0  0  0  0  0  0  0  0  0
   -4.8061    0.7623   -3.5254 H   0  0  0  0  0  0  0  0  0  0  0  0
   -3.1566   -1.0261   -3.2554 H   0  0  0  0  0  0  0  0  0  0  0  0
   -2.1113   -2.8953   -7.4141 H   0  0  0  0  0  0  0  0  0  0  0  0
   -1.9763   -4.5099   -9.2469 H   0  0  0  0  0  0  0  0  0  0  0  0
   -3.3264   -7.9687   -9.1015 H   0  0  0  0  0  0  0  0  0  0  0  0
   -2.6432   -6.7040  -10.1733 H   0  0  0  0  0  0  0  0  0  0  0  0
   -1.0439   -8.3295   -8.0791 H   0  0  0  0  0  0  0  0  0  0  0  0
   -0.3684   -7.0740   -9.1979 H   0  0  0  0  0  0  0  0  0  0  0  0
   -1.0546   -8.6066   -9.8664 H   0  0  0  0  0  0  0  0  0  0  0  0
   -3.4197   -7.6085   -6.6301 H   0  0  0  0  0  0  0  0  0  0  0  0
   -3.6043   -6.0216   -4.8161 H   0  0  0  0  0  0  0  0  0  0  0  0
    1.5234   -3.8539   -3.4853 H   0  0  0  0  0  0  0  0  0  0  0  0
    5.3925   -2.1853   -4.8467 H   0  0  0  0  0  0  0  0  0  0  0  0
    6.8406   -2.8994   -3.0406 H   0  0  0  0  0  0  0  0  0  0  0  0
    7.2738   -2.8805   -0.5854 H   0  0  0  0  0  0  0  0  0  0  0  0
    5.9102   -2.7558    0.5728 H   0  0  0  0  0  0  0  0  0  0  0  0
    6.5020   -5.1910   -1.2389 H   0  0  0  0  0  0  0  0  0  0  0  0
    5.1406   -5.0546   -0.0475 H   0  0  0  0  0  0  0  0  0  0  0  0
    6.8548   -5.0546    0.5267 H   0  0  0  0  0  0  0  0  0  0  0  0
    3.6022   -2.5113   -0.2538 H   0  0  0  0  0  0  0  0  0  0  0  0
    2.1388   -1.6783   -2.0340 H   0  0  0  0  0  0  0  0  0  0  0  0
    4.3478    0.1545   -6.2835 H   0  0  0  0  0  0  0  0  0  0  0  0
    5.0775   -0.1866   -8.5888 H   0  0  0  0  0  0  0  0  0  0  0  0
    4.6084   -3.3547  -10.5106 H   0  0  0  0  0  0  0  0  0  0  0  0
    5.4868   -1.7941  -10.4517 H   0  0  0  0  0  0  0  0  0  0  0  0
    3.7171   -1.7586  -12.1995 H   0  0  0  0  0  0  0  0  0  0  0  0
    2.4548   -2.1331  -10.9658 H   0  0  0  0  0  0  0  0  0  0  0  0
    3.3454   -0.5546  -10.9051 H   0  0  0  0  0  0  0  0  0  0  0  0
    3.1288   -4.0260   -8.6572 H   0  0  0  0  0  0  0  0  0  0  0  0
    2.4006   -3.7096   -6.3460 H   0  0  0  0  0  0  0  0  0  0  0  0
   -7.5971   -3.5970   -2.5352 H   0  0  0  0  0  0  0  0  0  0  0  0
   -8.5702   -1.4361   -2.0061 H   0  0  0  0  0  0  0  0  0  0  0  0
   -8.4348    0.4389   -0.3233 H   0  0  0  0  0  0  0  0  0  0  0  0
   -6.8369    1.1147    0.1354 H   0  0  0  0  0  0  0  0  0  0  0  0
   -6.5073    1.9998   -2.1625 H   0  0  0  0  0  0  0  0  0  0  0  0
   -8.0714    2.5778   -1.4752 H   0  0  0  0  0  0  0  0  0  0  0  0
   -8.0793    1.2497   -2.6880 H   0  0  0  0  0  0  0  0  0  0  0  0
   -4.7988   -0.0964   -0.4265 H   0  0  0  0  0  0  0  0  0  0  0  0
   -3.7873   -2.2386   -1.0042 H   0  0  0  0  0  0  0  0  0  0  0  0
   -5.4273   -7.2454   -1.6822 H   0  0  0  0  0  0  0  0  0  0  0  0
   -6.3600   -8.8281   -3.2611 H   0  0  0  0  0  0  0  0  0  0  0  0
   -7.9855   -7.8885   -6.4969 H   0  0  0  0  0  0  0  0  0  0  0  0
   -7.8142   -9.1799   -5.2681 H   0  0  0  0  0  0  0  0  0  0  0  0
   -5.3650   -9.4194   -5.8878 H   0  0  0  0  0  0  0  0  0  0  0  0
   -5.6153   -8.1722   -7.1852 H   0  0  0  0  0  0  0  0  0  0  0  0
   -6.4858   -9.7473   -7.2653 H   0  0  0  0  0  0  0  0  0  0  0  0
   -7.0160   -5.6528   -6.0974 H   0  0  0  0  0  0  0  0  0  0  0  0
   -6.1311   -4.0436   -4.4892 H   0  0  0  0  0  0  0  0  0  0  0  0
   -6.7371   -4.4971    0.4276 H   0  0  0  0  0  0  0  0  0  0  0  0
   -4.3911   -6.9594    3.5676 H   0  0  0  0  0  0  0  0  0  0  0  0
   -5.0670   -7.0332    5.2240 H   0  0  0  0  0  0  0  0  0  0  0  0
   -2.5134   -5.4938    4.4206 H   0  0  0  0  0  0  0  0  0  0  0  0
   -3.1855   -5.6576    6.0947 H   0  0  0  0  0  0  0  0  0  0  0  0
   -2.5613   -7.1095    5.2299 H   0  0  0  0  0  0  0  0  0  0  0  0
   -8.7957   -0.2456    2.4682 H   0  0  0  0  0  0  0  0  0  0  0  0
   -9.1198   -0.1455    4.2323 H   0  0  0  0  0  0  0  0  0  0  0  0
  -11.0626   -1.1000    3.0148 H   0  0  0  0  0  0  0  0  0  0  0  0
  -10.0229   -2.4284    2.3657 H   0  0  0  0  0  0  0  0  0  0  0  0
  -10.3480   -2.3187    4.1455 H   0  0  0  0  0  0  0  0  0  0  0  0
   -8.0314   -2.6668    6.9163 H   0  0  0  0  0  0  0  0  0  0  0  0
   -6.2490    3.2399    5.6354 H   0  0  0  0  0  0  0  0  0  0  0  0
   -8.6686    2.1735    9.9889 H   0  0  0  0  0  0  0  0  0  0  0  0
   -8.4330    5.5657    9.4177 H   0  0  0  0  0  0  0  0  0  0  0  0
   -6.7561    5.4012   11.3727 H   0  0  0  0  0  0  0  0  0  0  0  0
   -4.9272    3.5446   10.8867 H   0  0  0  0  0  0  0  0  0  0  0  0
   -3.7272    4.1482    8.6527 H   0  0  0  0  0  0  0  0  0  0  0  0
   -4.8088    6.3790    7.7025 H   0  0  0  0  0  0  0  0  0  0  0  0
   -4.8200    6.8493   10.3038 H   0  0  0  0  0  0  0  0  0  0  0  0
   -6.4082    7.3738    9.5961 H   0  0  0  0  0  0  0  0  0  0  0  0
   -7.3552    6.0857    7.3815 H   0  0  0  0  0  0  0  0  0  0  0  0
  1  2  2  3
  2  3  1  0
  3  4  2  0
  3  5  1  0
  5  6  2  0
  6  7  1  0
  7  8  2  0
  8  9  1  0
  9 10  2  0
 10 11  1  0
 11 12  2  3
 12 13  1  0
 13 14  3  0
 12 15  1  0
 15 16  3  0
  8 17  1  0
 17 18  1  0
 18 19  1  0
 19 20  2  0
 20 21  1  0
 21 22  1  0
 21 23  1  0
  1 24  1  0
 24 25  2  0
 25 26  1  0
 26 27  1  0
 27 28  2  0
 28 29  1  0
 29 30  2  0
 30 31  1  0
 30 32  1  0
 32 33  2  0
 26 34  1  0
 34 35  2  0
 35 36  1  0
 36 37  2  0
 37 38  1  0
 37 39  1  0
 39 40  2  0
 25 41  1  0
 41 42  1  0
 42 43  1  0
 43 44  2  0
 44 45  1  0
 45 46  1  0
 46 47  2  0
 47 48  1  0
 48 49  2  0
 49 50  1  0
 49 51  1  0
 51 52  2  0
 45 53  1  0
 53 54  2  0
 54 55  1  0
 55 56  2  0
 56 57  1  0
 56 58  1  0
 58 59  2  0
 44 60  1  0
 60 61  1  0
 43 62  1  0
 62 63  2  0
 63 64  1  0
 64 65  1  0
 65 66  1  0
 66 67  1  0
 67 68  2  0
 68 69  1  0
 69 70  1  0
 70 71  1  0
 71 72  2  0
 72 73  1  0
 73 74  2  0
 74 75  1  0
 75 76  1  0
 74 77  1  0
 77 78  2  0
 70 79  1  0
 79 80  2  0
 80 81  1  0
 81 82  2  0
 82 83  1  0
 83 84  1  0
 82 85  1  0
 85 86  2  0
 70 87  1  0
 87 88  2  0
 88 89  1  0
 89 90  1  0
 90 91  2  0
 91 92  1  0
 92 93  1  0
 93 94  2  0
 94 95  1  0
 95 96  2  0
 96 97  1  0
 97 98  1  0
 96 99  1  0
 99100  2  0
 92101  1  0
101102  2  0
102103  1  0
103104  2  0
104105  1  0
105106  1  0
104107  1  0
107108  2  0
 92109  1  0
109110  1  0
110111  1  0
 88112  1  0
112113  1  0
113114  1  0
114115  2  0
115116  1  0
116117  1  0
116118  1  0
118119  2  0
119120  1  0
120121  2  0
121122  1  0
122123  1  0
121124  1  0
124125  2  0
116126  1  0
126127  2  0
127128  1  0
128129  2  0
129130  1  0
130131  1  0
129132  1  0
132133  2  0
115134  1  0
134135  2  0
135136  1  0
135137  1  0
137138  2  0
138139  1  0
139140  1  0
140141  2  0
140142  1  0
142143  1  0
143144  1  0
139145  2  0
145146  1  0
146147  1  0
147148  1  0
146149  1  0
149150  2  0
145151  1  0
151152  2  3
152153  1  0
153154  2  0
153155  1  0
155156  2  0
156157  1  0
157158  2  0
158159  1  0
159160  2  0
160161  1  0
161162  2  3
162163  1  0
163164  3  0
162165  1  0
165166  3  0
158167  1  0
167168  1  0
168169  1  0
169170  2  0
170171  1  0
171172  1  0
171173  1  0
 11  2  1  0
 23 17  1  0
 61 24  1  0
111 62  1  0
117113  2  0
125118  1  0
133126  1  0
142137  1  0
161152  1  0
173167  1  0
 10  5  1  0
 22 18  1  0
 33 27  1  0
 40 34  1  0
 60 41  2  0
110 64  2  0
136114  1  0
149138  1  0
160155  1  0
172168  1  0
 23  7  1  0
 52 46  1  0
 59 53  1  0
109 66  2  0
173157  1  0
 91 67  1  0
100 93  1  0
108101  1  0
 89 69  2  0
 78 71  1  0
 86 79  1  0
117 87  1  0
  1174  1  0
  6175  1  0
  9176  1  0
 17177  1  0
 18178  1  0
 19179  1  0
 20180  1  0
 21181  1  0
 22182  1  0
 22183  1  0
 23184  1  0
 28185  1  0
 29186  1  0
 31187  1  0
 31188  1  0
 31189  1  0
 32190  1  0
 33191  1  0
 35192  1  0
 36193  1  0
 38194  1  0
 38195  1  0
 38196  1  0
 39197  1  0
 40198  1  0
 47199  1  0
 48200  1  0
 50201  1  0
 50202  1  0
 50203  1  0
 51204  1  0
 52205  1  0
 54206  1  0
 55207  1  0
 57208  1  0
 57209  1  0
 57210  1  0
 58211  1  0
 59212  1  0
 63213  1  0
 68214  1  0
 72215  1  0
 73216  1  0
 75217  1  0
 75218  1  0
 76219  1  0
 76220  1  0
 76221  1  0
 77222  1  0
 78223  1  0
 80224  1  0
 81225  1  0
 83226  1  0
 83227  1  0
 84228  1  0
 84229  1  0
 84230  1  0
 85231  1  0
 86232  1  0
 90233  1  0
 94234  1  0
 95235  1  0
 97236  1  0
 97237  1  0
 98238  1  0
 98239  1  0
 98240  1  0
 99241  1  0
100242  1  0
102243  1  0
103244  1  0
105245  1  0
105246  1  0
106247  1  0
106248  1  0
106249  1  0
107250  1  0
108251  1  0
119252  1  0
120253  1  0
122254  1  0
122255  1  0
123256  1  0
123257  1  0
123258  1  0
124259  1  0
125260  1  0
127261  1  0
128262  1  0
130263  1  0
130264  1  0
131265  1  0
131266  1  0
131267  1  0
132268  1  0
133269  1  0
134270  1  0
143271  1  0
143272  1  0
144273  1  0
144274  1  0
144275  1  0
147276  1  0
147277  1  0
148278  1  0
148279  1  0
148280  1  0
151281  1  0
156282  1  0
159283  1  0
167284  1  0
168285  1  0
169286  1  0
170287  1  0
171288  1  0
172289  1  0
172290  1  0
173291  1  0
M  END

