
     RDKit          3D

214240  0  0  0  0  0  0  0  0999 V2000
    3.8015   -3.9115    6.1115 C   0  0  0  0  0  0  0  0  0  0  0  0
    3.4596   -3.2992    7.2608 C   0  0  0  0  0  0  0  0  0  0  0  0
    2.4879   -2.2063    7.3948 C   0  0  0  0  0  0  0  0  0  0  0  0
    1.6501   -1.8443    6.5187 O   0  0  0  0  0  0  0  0  0  0  0  0
    2.6816   -1.5647    8.6832 C   0  0  0  0  0  0  0  0  0  0  0  0
    1.9336   -0.4944    9.2367 C   0  0  0  0  0  0  0  0  0  0  0  0
    2.3086   -0.1579   10.5262 C   0  0  0  0  0  0  0  0  0  0  0  0
    3.3664   -0.8238   11.2259 C   0  0  0  0  0  0  0  0  0  0  0  0
    4.1033   -1.8615   10.6973 C   0  0  0  0  0  0  0  0  0  0  0  0
    3.7379   -2.2241    9.3705 C   0  0  0  0  0  0  0  0  0  0  0  0
    4.2284   -3.3617    8.5423 C   0  0  0  0  0  0  0  0  0  0  0  0
    5.0957   -4.3383    8.9142 C   0  0  0  0  0  0  0  0  0  0  0  0
    5.9354   -4.2396   10.0844 C   0  0  0  0  0  0  0  0  0  0  0  0
    6.6183   -4.1754   11.0097 N   0  0  0  0  0  0  0  0  0  0  0  0
    5.2156   -5.5859    8.2024 C   0  0  0  0  0  0  0  0  0  0  0  0
    5.3148   -6.5857    7.6366 N   0  0  0  0  0  0  0  0  0  0  0  0
    3.0980   -0.0122   12.4530 C   0  0  0  0  0  0  0  0  0  0  0  0
    2.3499   -0.7437   13.6062 C   0  0  0  0  0  0  0  0  0  0  0  0
    1.8913    0.3415   14.5439 C   0  0  0  0  0  0  0  0  0  0  0  0
    0.9179    1.0040   13.9103 C   0  0  0  0  0  0  0  0  0  0  0  0
    0.7534    0.3420   12.5611 C   0  0  0  0  0  0  0  0  0  0  0  0
    1.0096   -1.0931   12.9782 C   0  0  0  0  0  0  0  0  0  0  0  0
    2.0281    0.6950   11.7386 C   0  0  0  0  0  0  0  0  0  0  0  0
    3.1446   -3.7509    4.8017 C   0  0  0  0  0  0  0  0  0  0  0  0
    3.8705   -3.4708    3.6433 C   0  0  0  0  0  0  0  0  0  0  0  0
    4.9928   -2.5767    3.6637 N   0  0  0  0  0  0  0  0  0  0  0  0
    4.7657   -1.1613    3.8493 C   0  0  0  0  0  0  0  0  0  0  0  0
    5.4249   -0.4441    4.8545 C   0  0  0  0  0  0  0  0  0  0  0  0
    5.2164    0.9285    5.0105 C   0  0  0  0  0  0  0  0  0  0  0  0
    4.3274    1.6030    4.1553 C   0  0  0  0  0  0  0  0  0  0  0  0
    4.1393    3.0819    4.3003 C   0  0  0  0  0  0  0  0  0  0  0  0
    3.6471    0.8883    3.1654 C   0  0  0  0  0  0  0  0  0  0  0  0
    3.8521   -0.4827    3.0160 C   0  0  0  0  0  0  0  0  0  0  0  0
    6.3203   -3.0940    3.5500 C   0  0  0  0  0  0  0  0  0  0  0  0
    6.8757   -3.2997    2.2758 C   0  0  0  0  0  0  0  0  0  0  0  0
    8.2137   -3.6826    2.1513 C   0  0  0  0  0  0  0  0  0  0  0  0
    9.0211   -3.8505    3.2869 C   0  0  0  0  0  0  0  0  0  0  0  0
   10.4783   -4.1580    3.1477 C   0  0  0  0  0  0  0  0  0  0  0  0
    8.4573   -3.6472    4.5609 C   0  0  0  0  0  0  0  0  0  0  0  0
    7.1166   -3.2919    4.6874 C   0  0  0  0  0  0  0  0  0  0  0  0
    3.1363   -3.7672    2.4937 C   0  0  0  0  0  0  0  0  0  0  0  0
    3.3810   -3.5325    0.8628 S   0  0  0  0  0  0  0  0  0  0  0  0
    1.8147   -4.0451    0.3936 C   0  0  0  0  0  0  0  0  0  0  0  0
    1.0700   -4.3160    1.5569 C   0  0  0  0  0  0  0  0  0  0  0  0
   -0.3696   -4.3625    1.6054 N   0  0  0  0  0  0  0  0  0  0  0  0
   -1.0457   -3.6049    2.6281 C   0  0  0  0  0  0  0  0  0  0  0  0
   -1.8910   -4.2558    3.5494 C   0  0  0  0  0  0  0  0  0  0  0  0
   -2.6141   -3.5115    4.4852 C   0  0  0  0  0  0  0  0  0  0  0  0
   -2.4851   -2.1218    4.5307 C   0  0  0  0  0  0  0  0  0  0  0  0
   -3.2957   -1.3326    5.5166 C   0  0  0  0  0  0  0  0  0  0  0  0
   -1.6325   -1.4725    3.6204 C   0  0  0  0  0  0  0  0  0  0  0  0
   -0.9264   -2.2136    2.6761 C   0  0  0  0  0  0  0  0  0  0  0  0
   -1.1548   -5.1361    0.6710 C   0  0  0  0  0  0  0  0  0  0  0  0
   -2.4667   -4.7466    0.3597 C   0  0  0  0  0  0  0  0  0  0  0  0
   -3.2899   -5.5473   -0.4392 C   0  0  0  0  0  0  0  0  0  0  0  0
   -2.7931   -6.7622   -0.9431 C   0  0  0  0  0  0  0  0  0  0  0  0
   -3.6984   -7.6181   -1.7825 C   0  0  0  0  0  0  0  0  0  0  0  0
   -1.4678   -7.1346   -0.6850 C   0  0  0  0  0  0  0  0  0  0  0  0
   -0.6465   -6.3311    0.1204 C   0  0  0  0  0  0  0  0  0  0  0  0
    1.8684   -4.2155    2.7073 C   0  0  0  0  0  0  0  0  0  0  0  0
    1.6011   -4.3374    4.3723 S   0  0  0  0  0  0  0  0  0  0  0  0
    1.2791   -3.6309   -0.9211 C   0  0  0  0  0  0  0  0  0  0  0  0
    1.5797   -4.2018   -2.1909 C   0  0  0  0  0  0  0  0  0  0  0  0
    1.9526   -5.6424   -2.4384 C   0  0  0  0  0  0  0  0  0  0  0  0
    2.9503   -6.2105   -1.6241 C   0  0  0  0  0  0  0  0  0  0  0  0
    3.3204   -7.5566   -1.7586 C   0  0  0  0  0  0  0  0  0  0  0  0
    2.7570   -8.3339   -2.7577 C   0  0  0  0  0  0  0  0  0  0  0  0
    1.7872   -7.7908   -3.5940 C   0  0  0  0  0  0  0  0  0  0  0  0
    1.3227   -6.4680   -3.4214 C   0  0  0  0  0  0  0  0  0  0  0  0
    0.2027   -6.0054   -4.3431 C   0  0  0  0  0  0  0  0  0  0  0  0
   -1.0700   -6.8417   -4.2121 C   0  0  0  0  0  0  0  0  0  0  0  0
    1.4519   -3.2249   -3.2180 C   0  0  0  0  0  0  0  0  0  0  0  0
    1.7463   -3.1608   -4.9055 S   0  0  0  0  0  0  0  0  0  0  0  0
    1.2298   -1.5427   -4.9907 C   0  0  0  0  0  0  0  0  0  0  0  0
    1.0881   -0.5099   -5.8828 C   0  0  0  0  0  0  0  0  0  0  0  0
    1.2460   -0.4895   -7.2781 C   0  0  0  0  0  0  0  0  0  0  0  0
    0.9441    0.7045   -7.9912 C   0  0  0  0  0  0  0  0  0  0  0  0
    1.0885    0.6741   -9.3397 N   0  0  0  0  0  0  0  0  0  0  0  0
    1.5925   -0.8969   -9.5280 S   0  0  0  0  0  0  0  0  0  0  0  0
    1.6447   -1.5539   -8.0152 N   0  0  0  0  0  0  0  0  0  0  0  0
    0.5509    1.8280   -7.2608 C   0  0  0  0  0  0  0  0  0  0  0  0
    0.1519    3.0549   -7.7185 C   0  0  0  0  0  0  0  0  0  0  0  0
   -0.3063    3.8249   -9.1608 S   0  0  0  0  0  0  0  0  0  0  0  0
   -0.8914    5.1755   -8.2924 C   0  0  0  0  0  0  0  0  0  0  0  0
   -1.6193    6.3208   -8.6503 C   0  0  0  0  0  0  0  0  0  0  0  0
   -2.1056    6.6358   -9.9932 C   0  0  0  0  0  0  0  0  0  0  0  0
   -1.4536    7.5856  -10.8194 C   0  0  0  0  0  0  0  0  0  0  0  0
   -0.1152    8.1849  -10.4424 C   0  0  0  0  0  0  0  0  0  0  0  0
    1.0144    7.1713  -10.6771 C   0  0  0  0  0  0  0  0  0  0  0  0
   -2.0618    7.9601  -12.0326 C   0  0  0  0  0  0  0  0  0  0  0  0
   -3.3040    7.4406  -12.4035 C   0  0  0  0  0  0  0  0  0  0  0  0
   -3.9564    6.5391  -11.5666 C   0  0  0  0  0  0  0  0  0  0  0  0
   -3.3598    6.1409  -10.3605 C   0  0  0  0  0  0  0  0  0  0  0  0
   -2.0447    7.0138   -7.5007 C   0  0  0  0  0  0  0  0  0  0  0  0
   -1.4838    6.2158   -6.0990 S   0  0  0  0  0  0  0  0  0  0  0  0
   -0.7335    4.9916   -6.9550 C   0  0  0  0  0  0  0  0  0  0  0  0
   -0.1583    3.7762   -6.6265 C   0  0  0  0  0  0  0  0  0  0  0  0
    0.0179    3.1146   -5.4617 N   0  0  0  0  0  0  0  0  0  0  0  0
    0.4459    1.8563   -5.8481 C   0  0  0  0  0  0  0  0  0  0  0  0
    0.6963    0.6215   -5.1288 C   0  0  0  0  0  0  0  0  0  0  0  0
    0.5918    0.2712   -3.7928 N   0  0  0  0  0  0  0  0  0  0  0  0
    0.9049   -1.0568   -3.7859 C   0  0  0  0  0  0  0  0  0  0  0  0
    1.0167   -2.0006   -2.7771 C   0  0  0  0  0  0  0  0  0  0  0  0
    0.8146   -2.0150   -1.1254 S   0  0  0  0  0  0  0  0  0  0  0  0
    0.5494    1.0616   -2.5714 C   0  0  0  0  0  0  0  0  0  0  0  0
    1.9140    1.7006   -2.3005 C   0  0  0  0  0  0  0  0  0  0  0  0
   -0.3057    3.7404   -4.1840 C   0  0  0  0  0  0  0  0  0  0  0  0
   -1.7768    3.5337   -3.8337 C   0  0  0  0  0  0  0  0  0  0  0  0
   -2.9524    8.1610   -7.5393 C   0  0  0  0  0  0  0  0  0  0  0  0
   -3.3805    8.8445   -6.5185 N   0  0  0  0  0  0  0  0  0  0  0  0
   -4.4344    8.4694   -5.9030 N   0  0  0  0  0  0  0  0  0  0  0  0
   -4.9662    9.3229   -5.0722 C   0  0  0  0  0  0  0  0  0  0  0  0
   -4.2388    8.1433   -6.2139 S   0  0  0  0  0  0  0  0  0  0  0  0
   -6.1685    8.9574   -4.2999 C   0  0  0  0  0  0  0  0  0  0  0  0
   -6.3983    7.7537   -3.7064 C   0  0  0  0  0  0  0  0  0  0  0  0
   -5.4302    6.6673   -3.5797 C   0  0  0  0  0  0  0  0  0  0  0  0
   -4.1743    6.7777   -3.5193 O   0  0  0  0  0  0  0  0  0  0  0  0
   -6.1606    5.4231   -3.4241 C   0  0  0  0  0  0  0  0  0  0  0  0
   -5.6249    4.1150   -3.4617 C   0  0  0  0  0  0  0  0  0  0  0  0
   -6.5907    3.1160   -3.4190 C   0  0  0  0  0  0  0  0  0  0  0  0
   -7.9929    3.3807   -3.3329 C   0  0  0  0  0  0  0  0  0  0  0  0
   -8.5207    4.6611   -3.3002 C   0  0  0  0  0  0  0  0  0  0  0  0
   -7.5494    5.7062   -3.3312 C   0  0  0  0  0  0  0  0  0  0  0  0
   -7.7446    7.1947   -3.3572 C   0  0  0  0  0  0  0  0  0  0  0  0
   -8.8559    7.8746   -2.9886 C   0  0  0  0  0  0  0  0  0  0  0  0
   -8.8651    9.3209   -2.8310 C   0  0  0  0  0  0  0  0  0  0  0  0
   -8.8951   10.4763   -2.7142 N   0  0  0  0  0  0  0  0  0  0  0  0
  -10.1063    7.2289   -2.6402 C   0  0  0  0  0  0  0  0  0  0  0  0
  -11.1091    6.7217   -2.3664 N   0  0  0  0  0  0  0  0  0  0  0  0
   -8.2925    1.9155   -3.3285 C   0  0  0  0  0  0  0  0  0  0  0  0
   -8.6887    1.2787   -1.9569 C   0  0  0  0  0  0  0  0  0  0  0  0
   -8.5298   -0.2188   -2.1223 C   0  0  0  0  0  0  0  0  0  0  0  0
   -7.2133   -0.4442   -2.2068 C   0  0  0  0  0  0  0  0  0  0  0  0
   -6.5324    0.8912   -2.0938 C   0  0  0  0  0  0  0  0  0  0  0  0
   -7.4747    1.5500   -1.0928 C   0  0  0  0  0  0  0  0  0  0  0  0
   -6.8543    1.6427   -3.4158 C   0  0  0  0  0  0  0  0  0  0  0  0
    4.7256   -4.4708    6.0602 H   0  0  0  0  0  0  0  0  0  0  0  0
    1.1030   -0.0207    8.7276 H   0  0  0  0  0  0  0  0  0  0  0  0
    4.8518   -2.3445   11.2958 H   0  0  0  0  0  0  0  0  0  0  0  0
    3.9545    0.6251   12.7635 H   0  0  0  0  0  0  0  0  0  0  0  0
    2.8984   -1.5869   14.0800 H   0  0  0  0  0  0  0  0  0  0  0  0
    2.2131    0.5030   15.5682 H   0  0  0  0  0  0  0  0  0  0  0  0
    0.3173    1.7950   14.3374 H   0  0  0  0  0  0  0  0  0  0  0  0
   -0.2132    0.5416   12.0566 H   0  0  0  0  0  0  0  0  0  0  0  0
    1.0722   -1.8104   12.1331 H   0  0  0  0  0  0  0  0  0  0  0  0
    0.2632   -1.4767   13.7164 H   0  0  0  0  0  0  0  0  0  0  0  0
    2.2192    1.7840   11.5850 H   0  0  0  0  0  0  0  0  0  0  0  0
    6.0967   -0.9434    5.5410 H   0  0  0  0  0  0  0  0  0  0  0  0
    5.7401    1.4686    5.7791 H   0  0  0  0  0  0  0  0  0  0  0  0
    3.9122    3.3414    5.3561 H   0  0  0  0  0  0  0  0  0  0  0  0
    5.0642    3.6140    3.9902 H   0  0  0  0  0  0  0  0  0  0  0  0
    3.3010    3.4489    3.6709 H   0  0  0  0  0  0  0  0  0  0  0  0
    2.9574    1.3986    2.4964 H   0  0  0  0  0  0  0  0  0  0  0  0
    3.3182   -1.0063    2.2450 H   0  0  0  0  0  0  0  0  0  0  0  0
    6.2716   -3.1514    1.3871 H   0  0  0  0  0  0  0  0  0  0  0  0
    8.6284   -3.8302    1.1550 H   0  0  0  0  0  0  0  0  0  0  0  0
   11.0594   -3.2098    3.1982 H   0  0  0  0  0  0  0  0  0  0  0  0
   10.6887   -4.6597    2.1764 H   0  0  0  0  0  0  0  0  0  0  0  0
   10.8098   -4.8299    3.9676 H   0  0  0  0  0  0  0  0  0  0  0  0
    9.0677   -3.7529    5.4435 H   0  0  0  0  0  0  0  0  0  0  0  0
    6.6947   -3.1479    5.6767 H   0  0  0  0  0  0  0  0  0  0  0  0
   -2.0120   -5.3258    3.5094 H   0  0  0  0  0  0  0  0  0  0  0  0
   -3.2772   -4.0257    5.1811 H   0  0  0  0  0  0  0  0  0  0  0  0
   -4.3531   -1.3170    5.1995 H   0  0  0  0  0  0  0  0  0  0  0  0
   -3.2321   -1.7844    6.5216 H   0  0  0  0  0  0  0  0  0  0  0  0
   -2.9376   -0.2838    5.5990 H   0  0  0  0  0  0  0  0  0  0  0  0
   -1.5564   -0.3958    3.6245 H   0  0  0  0  0  0  0  0  0  0  0  0
   -0.2805   -1.6936    1.9733 H   0  0  0  0  0  0  0  0  0  0  0  0
   -2.8779   -3.8290    0.7542 H   0  0  0  0  0  0  0  0  0  0  0  0
   -4.3025   -5.2285   -0.6495 H   0  0  0  0  0  0  0  0  0  0  0  0
   -3.2617   -8.6256   -1.9387 H   0  0  0  0  0  0  0  0  0  0  0  0
   -4.6799   -7.7326   -1.2780 H   0  0  0  0  0  0  0  0  0  0  0  0
   -3.8614   -7.1371   -2.7676 H   0  0  0  0  0  0  0  0  0  0  0  0
   -1.0694   -8.0513   -1.0930 H   0  0  0  0  0  0  0  0  0  0  0  0
    0.3510   -6.6576    0.3504 H   0  0  0  0  0  0  0  0  0  0  0  0
    3.4671   -5.6238   -0.8866 H   0  0  0  0  0  0  0  0  0  0  0  0
    4.0622   -7.9859   -1.0939 H   0  0  0  0  0  0  0  0  0  0  0  0
    3.0575   -9.3673   -2.8834 H   0  0  0  0  0  0  0  0  0  0  0  0
    1.3781   -8.4126   -4.3855 H   0  0  0  0  0  0  0  0  0  0  0  0
    0.5654   -6.0527   -5.3942 H   0  0  0  0  0  0  0  0  0  0  0  0
   -0.1102   -4.9707   -4.1438 H   0  0  0  0  0  0  0  0  0  0  0  0
   -1.6593   -6.4409   -3.3677 H   0  0  0  0  0  0  0  0  0  0  0  0
   -1.6779   -6.7333   -5.1339 H   0  0  0  0  0  0  0  0  0  0  0  0
   -0.8699   -7.9183   -4.0293 H   0  0  0  0  0  0  0  0  0  0  0  0
   -0.1130    8.5062   -9.3789 H   0  0  0  0  0  0  0  0  0  0  0  0
    0.0919    9.0901  -11.0553 H   0  0  0  0  0  0  0  0  0  0  0  0
    1.9895    7.7087  -10.7461 H   0  0  0  0  0  0  0  0  0  0  0  0
    1.0765    6.4588   -9.8208 H   0  0  0  0  0  0  0  0  0  0  0  0
    0.8448    6.5969  -11.6237 H   0  0  0  0  0  0  0  0  0  0  0  0
   -1.5653    8.6705  -12.6861 H   0  0  0  0  0  0  0  0  0  0  0  0
   -3.7651    7.7566  -13.3293 H   0  0  0  0  0  0  0  0  0  0  0  0
   -4.9292    6.1610  -11.8369 H   0  0  0  0  0  0  0  0  0  0  0  0
   -3.8922    5.4561   -9.6997 H   0  0  0  0  0  0  0  0  0  0  0  0
   -0.3030    1.7502   -2.5687 H   0  0  0  0  0  0  0  0  0  0  0  0
    0.3059    0.4402   -1.6986 H   0  0  0  0  0  0  0  0  0  0  0  0
    2.3001    2.2000   -3.2184 H   0  0  0  0  0  0  0  0  0  0  0  0
    2.6455    0.9097   -2.0166 H   0  0  0  0  0  0  0  0  0  0  0  0
    1.8353    2.4372   -1.4763 H   0  0  0  0  0  0  0  0  0  0  0  0
    0.4043    3.4723   -3.4171 H   0  0  0  0  0  0  0  0  0  0  0  0
   -0.1247    4.8346   -4.2348 H   0  0  0  0  0  0  0  0  0  0  0  0
   -2.0465    2.4564   -3.7960 H   0  0  0  0  0  0  0  0  0  0  0  0
   -1.9995    3.9971   -2.8503 H   0  0  0  0  0  0  0  0  0  0  0  0
   -2.4186    4.0195   -4.5942 H   0  0  0  0  0  0  0  0  0  0  0  0
   -6.9434    9.6842   -4.3466 H   0  0  0  0  0  0  0  0  0  0  0  0
   -4.5821    3.9069   -3.5416 H   0  0  0  0  0  0  0  0  0  0  0  0
   -9.5885    4.8128   -3.2555 H   0  0  0  0  0  0  0  0  0  0  0  0
   -8.8849    1.5703   -4.2048 H   0  0  0  0  0  0  0  0  0  0  0  0
   -9.6675    1.6022   -1.5479 H   0  0  0  0  0  0  0  0  0  0  0  0
   -9.3048   -0.9699   -2.1088 H   0  0  0  0  0  0  0  0  0  0  0  0
   -6.7435   -1.4169   -2.2655 H   0  0  0  0  0  0  0  0  0  0  0  0
   -5.4657    0.8564   -1.8003 H   0  0  0  0  0  0  0  0  0  0  0  0
   -7.5104    1.0266   -0.1173 H   0  0  0  0  0  0  0  0  0  0  0  0
   -7.2707    2.6275   -0.9123 H   0  0  0  0  0  0  0  0  0  0  0  0
   -6.5366    1.1266   -4.3512 H   0  0  0  0  0  0  0  0  0  0  0  0
  1  2  2  3
  2  3  1  0
  3  4  2  0
  3  5  1  0
  5  6  2  0
  6  7  1  0
  7  8  2  0
  8  9  1  0
  9 10  2  0
 10 11  1  0
 11 12  2  3
 12 13  1  0
 13 14  3  0
 12 15  1  0
 15 16  3  0
  8 17  1  0
 17 18  1  0
 18 19  1  0
 19 20  2  0
 20 21  1  0
 21 22  1  0
 21 23  1  0
  1 24  1  0
 24 25  2  0
 25 26  1  0
 26 27  1  0
 27 28  2  0
 28 29  1  0
 29 30  2  0
 30 31  1  0
 30 32  1  0
 32 33  2  0
 26 34  1  0
 34 35  2  0
 35 36  1  0
 36 37  2  0
 37 38  1  0
 37 39  1  0
 39 40  2  0
 25 41  1  0
 41 42  1  0
 42 43  1  0
 43 44  2  0
 44 45  1  0
 45 46  1  0
 46 47  2  0
 47 48  1  0
 48 49  2  0
 49 50  1  0
 49 51  1  0
 51 52  2  0
 45 53  1  0
 53 54  2  0
 54 55  1  0
 55 56  2  0
 56 57  1  0
 56 58  1  0
 58 59  2  0
 44 60  1  0
 60 61  1  0
 43 62  1  0
 62 63  2  0
 63 64  1  0
 64 65  2  0
 65 66  1  0
 66 67  2  0
 67 68  1  0
 68 69  2  0
 69 70  1  0
 70 71  1  0
 63 72  1  0
 72 73  1  0
 73 74  1  0
 74 75  1  0
 75 76  1  0
 76 77  1  0
 77 78  2  0
 78 79  1  0
 79 80  1  0
 77 81  1  0
 81 82  1  0
 82 83  1  0
 83 84  1  0
 84 85  1  0
 85 86  1  0
 86 87  2  0
 87 88  1  0
 88 89  1  0
 87 90  1  0
 90 91  2  0
 91 92  1  0
 92 93  2  0
 85 94  2  0
 94 95  1  0
 95 96  1  0
 96 97  1  0
 97 98  1  0
 98 99  1  0
 99100  1  0
100101  1  0
101102  1  0
102103  1  0
103104  1  0
101105  1  0
105106  1  0
 98107  1  0
107108  1  0
 94109  1  0
109110  2  0
110111  1  0
111112  2  0
112113  1  0
112114  1  0
114115  2  3
115116  1  0
116117  2  0
116118  1  0
118119  2  0
119120  1  0
120121  2  0
121122  1  0
122123  2  0
123124  1  0
124125  2  3
125126  1  0
126127  3  0
125128  1  0
128129  3  0
121130  1  0
130131  1  0
131132  1  0
132133  2  0
133134  1  0
134135  1  0
134136  1  0
 11  2  1  0
 23 17  1  0
 61 24  1  0
104 62  1  0
113109  1  0
124115  1  0
136130  1  0
 10  5  1  0
 22 18  1  0
 33 27  1  0
 40 34  1  0
 60 41  2  0
 69 64  1  0
103 72  2  0
123118  1  0
135131  1  0
 23  7  1  0
 52 46  1  0
 59 53  1  0
102 74  2  0
136120  1  0
100 75  2  0
 80 76  2  0
 99 81  2  0
 97 82  2  0
 96 84  2  0
 93 86  1  0
  1137  1  0
  6138  1  0
  9139  1  0
 17140  1  0
 18141  1  0
 19142  1  0
 20143  1  0
 21144  1  0
 22145  1  0
 22146  1  0
 23147  1  0
 28148  1  0
 29149  1  0
 31150  1  0
 31151  1  0
 31152  1  0
 32153  1  0
 33154  1  0
 35155  1  0
 36156  1  0
 38157  1  0
 38158  1  0
 38159  1  0
 39160  1  0
 40161  1  0
 47162  1  0
 48163  1  0
 50164  1  0
 50165  1  0
 50166  1  0
 51167  1  0
 52168  1  0
 54169  1  0
 55170  1  0
 57171  1  0
 57172  1  0
 57173  1  0
 58174  1  0
 59175  1  0
 65176  1  0
 66177  1  0
 67178  1  0
 68179  1  0
 70180  1  0
 70181  1  0
 71182  1  0
 71183  1  0
 71184  1  0
 88185  1  0
 88186  1  0
 89187  1  0
 89188  1  0
 89189  1  0
 90190  1  0
 91191  1  0
 92192  1  0
 93193  1  0
105194  1  0
105195  1  0
106196  1  0
106197  1  0
106198  1  0
107199  1  0
107200  1  0
108201  1  0
108202  1  0
108203  1  0
114204  1  0
119205  1  0
122206  1  0
130207  1  0
131208  1  0
132209  1  0
133210  1  0
134211  1  0
135212  1  0
135213  1  0
136214  1  0
M  END

