
     RDKit          3D

188210  0  0  0  0  0  0  0  0999 V2000
    4.4065    5.2807    5.7666 C   0  0  0  0  0  0  0  0  0  0  0  0
    3.1117    5.3712    5.3935 C   0  0  0  0  0  0  0  0  0  0  0  0
    2.5086    4.6603    4.2542 C   0  0  0  0  0  0  0  0  0  0  0  0
    3.1203    3.9913    3.3754 O   0  0  0  0  0  0  0  0  0  0  0  0
    1.0738    4.7914    4.3234 C   0  0  0  0  0  0  0  0  0  0  0  0
    0.1256    4.1634    3.4812 C   0  0  0  0  0  0  0  0  0  0  0  0
   -1.1875    4.4350    3.8152 C   0  0  0  0  0  0  0  0  0  0  0  0
   -1.5561    5.2628    4.9256 C   0  0  0  0  0  0  0  0  0  0  0  0
   -0.6294    5.8608    5.7675 C   0  0  0  0  0  0  0  0  0  0  0  0
    0.7342    5.6221    5.4228 C   0  0  0  0  0  0  0  0  0  0  0  0
    1.9912    6.0907    6.0863 C   0  0  0  0  0  0  0  0  0  0  0  0
    2.1029    7.1545    6.9304 C   0  0  0  0  0  0  0  0  0  0  0  0
    0.9673    7.9407    7.3432 C   0  0  0  0  0  0  0  0  0  0  0  0
    0.0661    8.5905    7.6714 N   0  0  0  0  0  0  0  0  0  0  0  0
    3.3690    7.6863    7.3504 C   0  0  0  0  0  0  0  0  0  0  0  0
    4.3848    8.1240    7.6997 N   0  0  0  0  0  0  0  0  0  0  0  0
   -3.0109    5.0432    4.6242 C   0  0  0  0  0  0  0  0  0  0  0  0
   -3.8143    4.0842    5.5511 C   0  0  0  0  0  0  0  0  0  0  0  0
   -2.9028    3.0160    6.1088 C   0  0  0  0  0  0  0  0  0  0  0  0
   -2.5534    2.2406    5.0812 C   0  0  0  0  0  0  0  0  0  0  0  0
   -3.2426    2.8047    3.8595 C   0  0  0  0  0  0  0  0  0  0  0  0
   -4.5387    3.2569    4.5056 C   0  0  0  0  0  0  0  0  0  0  0  0
   -2.6324    4.1929    3.4920 C   0  0  0  0  0  0  0  0  0  0  0  0
    5.4199    4.6943    4.8729 C   0  0  0  0  0  0  0  0  0  0  0  0
    5.5879    3.3023    4.7868 C   0  0  0  0  0  0  0  0  0  0  0  0
    6.2468    2.7407    3.6856 C   0  0  0  0  0  0  0  0  0  0  0  0
    6.7377    3.5755    2.6664 C   0  0  0  0  0  0  0  0  0  0  0  0
    6.6970    4.9687    2.8340 C   0  0  0  0  0  0  0  0  0  0  0  0
    6.0495    5.5253    3.9364 C   0  0  0  0  0  0  0  0  0  0  0  0
    6.9086    3.0434    1.3063 C   0  0  0  0  0  0  0  0  0  0  0  0
    7.7398    1.9939    0.8674 C   0  0  0  0  0  0  0  0  0  0  0  0
    8.7047    1.2633    1.7104 C   0  0  0  0  0  0  0  0  0  0  0  0
    9.6841    1.9564    2.4430 C   0  0  0  0  0  0  0  0  0  0  0  0
   10.6251    1.2547    3.2025 C   0  0  0  0  0  0  0  0  0  0  0  0
   10.5891   -0.1425    3.2486 C   0  0  0  0  0  0  0  0  0  0  0  0
    9.5917   -0.8459    2.5561 C   0  0  0  0  0  0  0  0  0  0  0  0
    9.5578   -2.3518    2.5846 C   0  0  0  0  0  0  0  0  0  0  0  0
   10.5032   -2.9440    1.5459 C   0  0  0  0  0  0  0  0  0  0  0  0
    8.6619   -0.1381    1.7766 C   0  0  0  0  0  0  0  0  0  0  0  0
    7.4343    1.6466   -0.4582 C   0  0  0  0  0  0  0  0  0  0  0  0
    7.9539    0.4093   -1.5036 S   0  0  0  0  0  0  0  0  0  0  0  0
    6.7786    0.8233   -2.6664 C   0  0  0  0  0  0  0  0  0  0  0  0
    6.0661    0.0914   -3.5717 C   0  0  0  0  0  0  0  0  0  0  0  0
    6.3086   -1.2065   -4.0412 C   0  0  0  0  0  0  0  0  0  0  0  0
    5.2623   -1.9094   -4.7022 C   0  0  0  0  0  0  0  0  0  0  0  0
    5.5234   -3.1797   -5.1039 N   0  0  0  0  0  0  0  0  0  0  0  0
    7.0911   -3.3115   -4.5812 S   0  0  0  0  0  0  0  0  0  0  0  0
    7.4776   -1.8714   -3.8650 N   0  0  0  0  0  0  0  0  0  0  0  0
    4.0331   -1.2666   -4.8695 C   0  0  0  0  0  0  0  0  0  0  0  0
    2.8293   -1.7404   -5.3196 C   0  0  0  0  0  0  0  0  0  0  0  0
    2.0973   -3.2668   -5.4614 S   0  0  0  0  0  0  0  0  0  0  0  0
    0.5420   -2.5887   -5.2434 C   0  0  0  0  0  0  0  0  0  0  0  0
   -0.6798   -3.1563   -4.8692 C   0  0  0  0  0  0  0  0  0  0  0  0
   -1.0226   -4.5857   -5.0321 C   0  0  0  0  0  0  0  0  0  0  0  0
   -0.1514   -5.6059   -4.6171 C   0  0  0  0  0  0  0  0  0  0  0  0
   -0.4903   -6.9452   -4.8149 C   0  0  0  0  0  0  0  0  0  0  0  0
   -1.6934   -7.2851   -5.4378 C   0  0  0  0  0  0  0  0  0  0  0  0
   -2.5727   -6.2776   -5.8652 C   0  0  0  0  0  0  0  0  0  0  0  0
   -3.8542   -6.6291   -6.5750 C   0  0  0  0  0  0  0  0  0  0  0  0
   -3.7134   -6.4269   -8.0817 C   0  0  0  0  0  0  0  0  0  0  0  0
   -2.2286   -4.9302   -5.6639 C   0  0  0  0  0  0  0  0  0  0  0  0
   -1.5338   -2.1839   -4.3010 C   0  0  0  0  0  0  0  0  0  0  0  0
   -0.7511   -0.6719   -4.2960 S   0  0  0  0  0  0  0  0  0  0  0  0
    0.6274   -1.2318   -5.0472 C   0  0  0  0  0  0  0  0  0  0  0  0
    1.9225   -0.7529   -5.1134 C   0  0  0  0  0  0  0  0  0  0  0  0
    2.4724    0.3798   -4.6253 N   0  0  0  0  0  0  0  0  0  0  0  0
    3.7836    0.0399   -4.4073 C   0  0  0  0  0  0  0  0  0  0  0  0
    4.8079    0.7151   -3.6786 C   0  0  0  0  0  0  0  0  0  0  0  0
    4.7205    1.7653   -2.7883 N   0  0  0  0  0  0  0  0  0  0  0  0
    5.9597    1.8218   -2.2315 C   0  0  0  0  0  0  0  0  0  0  0  0
    6.3770    2.3203   -1.0042 C   0  0  0  0  0  0  0  0  0  0  0  0
    5.7857    3.4295    0.0893 S   0  0  0  0  0  0  0  0  0  0  0  0
    3.5152    2.2682   -2.1078 C   0  0  0  0  0  0  0  0  0  0  0  0
    3.2909    3.7535   -2.3818 C   0  0  0  0  0  0  0  0  0  0  0  0
    1.8914    1.7233   -4.7878 C   0  0  0  0  0  0  0  0  0  0  0  0
    1.2471    1.9030   -6.1624 C   0  0  0  0  0  0  0  0  0  0  0  0
   -2.6106   -2.4862   -3.3459 C   0  0  0  0  0  0  0  0  0  0  0  0
   -2.4788   -2.4728   -1.9547 C   0  0  0  0  0  0  0  0  0  0  0  0
   -1.2110   -2.1729   -1.2484 C   0  0  0  0  0  0  0  0  0  0  0  0
   -0.9217   -0.8500   -0.8293 C   0  0  0  0  0  0  0  0  0  0  0  0
    0.3265   -0.5624   -0.2552 C   0  0  0  0  0  0  0  0  0  0  0  0
    1.2797   -1.5698   -0.0633 C   0  0  0  0  0  0  0  0  0  0  0  0
    2.6117   -1.2479    0.5665 C   0  0  0  0  0  0  0  0  0  0  0  0
    3.7022   -1.0655   -0.4881 C   0  0  0  0  0  0  0  0  0  0  0  0
    0.9837   -2.8811   -0.4558 C   0  0  0  0  0  0  0  0  0  0  0  0
   -0.2519   -3.1964   -1.0414 C   0  0  0  0  0  0  0  0  0  0  0  0
   -0.5448   -4.6492   -1.3423 C   0  0  0  0  0  0  0  0  0  0  0  0
   -0.9024   -5.4139   -0.0694 C   0  0  0  0  0  0  0  0  0  0  0  0
   -1.9392    0.2691   -0.9267 C   0  0  0  0  0  0  0  0  0  0  0  0
   -2.6294    0.4908    0.4177 C   0  0  0  0  0  0  0  0  0  0  0  0
   -3.6543   -2.8235   -1.2832 C   0  0  0  0  0  0  0  0  0  0  0  0
   -4.7264   -3.0675   -2.1432 C   0  0  0  0  0  0  0  0  0  0  0  0
   -4.1921   -2.9164   -3.7346 S   0  0  0  0  0  0  0  0  0  0  0  0
   -6.0480   -3.5872   -1.7507 C   0  0  0  0  0  0  0  0  0  0  0  0
   -6.6990   -3.2094   -0.6326 C   0  0  0  0  0  0  0  0  0  0  0  0
   -6.4546   -1.9589    0.1052 C   0  0  0  0  0  0  0  0  0  0  0  0
   -5.6355   -1.0535   -0.2084 O   0  0  0  0  0  0  0  0  0  0  0  0
   -7.4167   -1.8531    1.1763 C   0  0  0  0  0  0  0  0  0  0  0  0
   -7.4834   -0.8283    2.1511 C   0  0  0  0  0  0  0  0  0  0  0  0
   -8.4427   -1.0449    3.1237 C   0  0  0  0  0  0  0  0  0  0  0  0
   -9.2791   -2.2063    3.1471 C   0  0  0  0  0  0  0  0  0  0  0  0
   -9.2263   -3.2050    2.1846 C   0  0  0  0  0  0  0  0  0  0  0  0
   -8.2823   -2.9748    1.1428 C   0  0  0  0  0  0  0  0  0  0  0  0
   -7.9066   -3.8481   -0.0081 C   0  0  0  0  0  0  0  0  0  0  0  0
   -8.5264   -4.9964   -0.3823 C   0  0  0  0  0  0  0  0  0  0  0  0
   -7.9251   -5.9539   -1.2716 C   0  0  0  0  0  0  0  0  0  0  0  0
   -7.4476   -6.7340   -1.9808 N   0  0  0  0  0  0  0  0  0  0  0  0
   -9.8357   -5.3574    0.0958 C   0  0  0  0  0  0  0  0  0  0  0  0
  -10.8951   -5.6510    0.4585 N   0  0  0  0  0  0  0  0  0  0  0  0
   -9.9118   -1.7472    4.4276 C   0  0  0  0  0  0  0  0  0  0  0  0
   -9.4761   -2.4488    5.7504 C   0  0  0  0  0  0  0  0  0  0  0  0
   -8.0382   -2.9067    5.6541 C   0  0  0  0  0  0  0  0  0  0  0  0
   -7.2864   -1.8054    5.6264 C   0  0  0  0  0  0  0  0  0  0  0  0
   -8.2373   -0.6347    5.6997 C   0  0  0  0  0  0  0  0  0  0  0  0
   -9.2772   -1.2303    6.6330 C   0  0  0  0  0  0  0  0  0  0  0  0
   -9.0735   -0.5426    4.3882 C   0  0  0  0  0  0  0  0  0  0  0  0
    4.7611    5.7084    6.6897 H   0  0  0  0  0  0  0  0  0  0  0  0
    0.3993    3.5167    2.6551 H   0  0  0  0  0  0  0  0  0  0  0  0
   -0.9556    6.4272    6.6242 H   0  0  0  0  0  0  0  0  0  0  0  0
   -3.5558    5.9642    4.3275 H   0  0  0  0  0  0  0  0  0  0  0  0
   -4.4630    4.5801    6.3030 H   0  0  0  0  0  0  0  0  0  0  0  0
   -2.6356    2.8554    7.1477 H   0  0  0  0  0  0  0  0  0  0  0  0
   -1.9579    1.3359    5.1414 H   0  0  0  0  0  0  0  0  0  0  0  0
   -3.3558    2.1008    3.0094 H   0  0  0  0  0  0  0  0  0  0  0  0
   -5.1869    3.8639    3.8277 H   0  0  0  0  0  0  0  0  0  0  0  0
   -5.1372    2.4145    4.9309 H   0  0  0  0  0  0  0  0  0  0  0  0
   -2.9443    4.6014    2.5052 H   0  0  0  0  0  0  0  0  0  0  0  0
    5.1109    2.6557    5.5104 H   0  0  0  0  0  0  0  0  0  0  0  0
    6.2452    1.6636    3.5569 H   0  0  0  0  0  0  0  0  0  0  0  0
    7.0591    5.6222    2.0477 H   0  0  0  0  0  0  0  0  0  0  0  0
    5.9340    6.5990    3.9915 H   0  0  0  0  0  0  0  0  0  0  0  0
    9.7398    3.0380    2.3931 H   0  0  0  0  0  0  0  0  0  0  0  0
   11.3962    1.7924    3.7394 H   0  0  0  0  0  0  0  0  0  0  0  0
   11.3319   -0.6791    3.8289 H   0  0  0  0  0  0  0  0  0  0  0  0
    8.5274   -2.7164    2.3829 H   0  0  0  0  0  0  0  0  0  0  0  0
    9.8470   -2.7185    3.5955 H   0  0  0  0  0  0  0  0  0  0  0  0
   10.3928   -4.0472    1.5367 H   0  0  0  0  0  0  0  0  0  0  0  0
   11.5556   -2.6918    1.7970 H   0  0  0  0  0  0  0  0  0  0  0  0
   10.2673   -2.5538    0.5346 H   0  0  0  0  0  0  0  0  0  0  0  0
    7.8950   -0.6798    1.2323 H   0  0  0  0  0  0  0  0  0  0  0  0
    0.7814   -5.3648   -4.1265 H   0  0  0  0  0  0  0  0  0  0  0  0
    0.1881   -7.7251   -4.4890 H   0  0  0  0  0  0  0  0  0  0  0  0
   -1.9382   -8.3288   -5.5895 H   0  0  0  0  0  0  0  0  0  0  0  0
   -4.6780   -5.9883   -6.1944 H   0  0  0  0  0  0  0  0  0  0  0  0
   -4.1313   -7.6865   -6.3757 H   0  0  0  0  0  0  0  0  0  0  0  0
   -2.8963   -7.0646   -8.4832 H   0  0  0  0  0  0  0  0  0  0  0  0
   -3.4939   -5.3623   -8.3118 H   0  0  0  0  0  0  0  0  0  0  0  0
   -4.6612   -6.7079   -8.5871 H   0  0  0  0  0  0  0  0  0  0  0  0
   -2.8872   -4.1530   -6.0336 H   0  0  0  0  0  0  0  0  0  0  0  0
    3.6028    2.0997   -1.0180 H   0  0  0  0  0  0  0  0  0  0  0  0
    2.6292    1.6715   -2.3717 H   0  0  0  0  0  0  0  0  0  0  0  0
    3.8761    4.3744   -1.6779 H   0  0  0  0  0  0  0  0  0  0  0  0
    3.5935    4.0337   -3.4130 H   0  0  0  0  0  0  0  0  0  0  0  0
    2.2157    3.9983   -2.2438 H   0  0  0  0  0  0  0  0  0  0  0  0
    1.1264    1.8992   -4.0038 H   0  0  0  0  0  0  0  0  0  0  0  0
    2.6946    2.4753   -4.7241 H   0  0  0  0  0  0  0  0  0  0  0  0
    1.9547    1.6119   -6.9646 H   0  0  0  0  0  0  0  0  0  0  0  0
    0.9585    2.9678   -6.2971 H   0  0  0  0  0  0  0  0  0  0  0  0
    0.3231    1.2939   -6.2398 H   0  0  0  0  0  0  0  0  0  0  0  0
    0.5481    0.4513    0.0657 H   0  0  0  0  0  0  0  0  0  0  0  0
    2.9109   -2.0696    1.2573 H   0  0  0  0  0  0  0  0  0  0  0  0
    2.5331   -0.3213    1.1807 H   0  0  0  0  0  0  0  0  0  0  0  0
    4.5928   -0.5880   -0.0282 H   0  0  0  0  0  0  0  0  0  0  0  0
    3.3390   -0.4208   -1.3116 H   0  0  0  0  0  0  0  0  0  0  0  0
    4.0009   -2.0488   -0.9097 H   0  0  0  0  0  0  0  0  0  0  0  0
    1.7157   -3.6613   -0.2816 H   0  0  0  0  0  0  0  0  0  0  0  0
   -1.3738   -4.7591   -2.0723 H   0  0  0  0  0  0  0  0  0  0  0  0
    0.3479   -5.1204   -1.8024 H   0  0  0  0  0  0  0  0  0  0  0  0
    0.0294   -5.6689    0.4826 H   0  0  0  0  0  0  0  0  0  0  0  0
   -1.4233   -6.3599   -0.3351 H   0  0  0  0  0  0  0  0  0  0  0  0
   -1.5598   -4.8090    0.5894 H   0  0  0  0  0  0  0  0  0  0  0  0
   -2.7117    0.0654   -1.6995 H   0  0  0  0  0  0  0  0  0  0  0  0
   -1.4360    1.2115   -1.2333 H   0  0  0  0  0  0  0  0  0  0  0  0
   -3.0951   -0.4517    0.7774 H   0  0  0  0  0  0  0  0  0  0  0  0
   -1.8958    0.8415    1.1738 H   0  0  0  0  0  0  0  0  0  0  0  0
   -3.4232    1.2610    0.3139 H   0  0  0  0  0  0  0  0  0  0  0  0
   -3.7107   -2.9295   -0.2065 H   0  0  0  0  0  0  0  0  0  0  0  0
   -6.4650   -4.3212   -2.4138 H   0  0  0  0  0  0  0  0  0  0  0  0
   -6.8158    0.0241    2.1673 H   0  0  0  0  0  0  0  0  0  0  0  0
   -9.8433   -4.0840    2.2767 H   0  0  0  0  0  0  0  0  0  0  0  0
  -11.0006   -1.5414    4.3409 H   0  0  0  0  0  0  0  0  0  0  0  0
  -10.1840   -3.2076    6.1402 H   0  0  0  0  0  0  0  0  0  0  0  0
   -7.6703   -3.9257    5.7035 H   0  0  0  0  0  0  0  0  0  0  0  0
   -6.2004   -1.7720    5.6248 H   0  0  0  0  0  0  0  0  0  0  0  0
   -7.7823    0.3208    6.0377 H   0  0  0  0  0  0  0  0  0  0  0  0
  -10.1959   -0.6026    6.7361 H   0  0  0  0  0  0  0  0  0  0  0  0
   -8.8752   -1.4674    7.6473 H   0  0  0  0  0  0  0  0  0  0  0  0
   -9.6526    0.4012    4.2616 H   0  0  0  0  0  0  0  0  0  0  0  0
  1  2  2  3
  2  3  1  0
  3  4  2  0
  3  5  1  0
  5  6  2  0
  6  7  1  0
  7  8  2  0
  8  9  1  0
  9 10  2  0
 10 11  1  0
 11 12  2  3
 12 13  1  0
 13 14  3  0
 12 15  1  0
 15 16  3  0
  8 17  1  0
 17 18  1  0
 18 19  1  0
 19 20  2  0
 20 21  1  0
 21 22  1  0
 21 23  1  0
  1 24  1  0
 24 25  2  0
 25 26  1  0
 26 27  2  0
 27 28  1  0
 28 29  2  0
 27 30  1  0
 30 31  2  0
 31 32  1  0
 32 33  2  0
 33 34  1  0
 34 35  2  0
 35 36  1  0
 36 37  1  0
 37 38  1  0
 36 39  2  0
 31 40  1  0
 40 41  1  0
 41 42  1  0
 42 43  1  0
 43 44  1  0
 44 45  1  0
 45 46  2  0
 46 47  1  0
 47 48  1  0
 45 49  1  0
 49 50  1  0
 50 51  1  0
 51 52  1  0
 52 53  1  0
 53 54  1  0
 54 55  2  0
 55 56  1  0
 56 57  2  0
 57 58  1  0
 58 59  1  0
 59 60  1  0
 58 61  2  0
 53 62  2  0
 62 63  1  0
 63 64  1  0
 64 65  1  0
 65 66  1  0
 66 67  1  0
 67 68  1  0
 68 69  1  0
 69 70  1  0
 70 71  1  0
 71 72  1  0
 69 73  1  0
 73 74  1  0
 66 75  1  0
 75 76  1  0
 62 77  1  0
 77 78  2  0
 78 79  1  0
 79 80  2  0
 80 81  1  0
 81 82  2  0
 82 83  1  0
 83 84  1  0
 82 85  1  0
 85 86  2  0
 86 87  1  0
 87 88  1  0
 80 89  1  0
 89 90  1  0
 78 91  1  0
 91 92  2  0
 92 93  1  0
 92 94  1  0
 94 95  2  3
 95 96  1  0
 96 97  2  0
 96 98  1  0
 98 99  2  0
 99100  1  0
100101  2  0
101102  1  0
102103  2  0
103104  1  0
104105  2  3
105106  1  0
106107  3  0
105108  1  0
108109  3  0
101110  1  0
110111  1  0
111112  1  0
112113  2  0
113114  1  0
114115  1  0
114116  1  0
 11  2  1  0
 23 17  1  0
 29 24  1  0
 72 30  1  0
 93 77  1  0
104 95  1  0
116110  1  0
 10  5  1  0
 22 18  1  0
 39 32  1  0
 71 40  2  0
 86 79  1  0
103 98  1  0
115111  1  0
 23  7  1  0
 70 42  2  0
116100  1  0
 68 43  2  0
 48 44  2  0
 67 49  2  0
 65 50  2  0
 64 52  2  0
 61 54  1  0
  1117  1  0
  6118  1  0
  9119  1  0
 17120  1  0
 18121  1  0
 19122  1  0
 20123  1  0
 21124  1  0
 22125  1  0
 22126  1  0
 23127  1  0
 25128  1  0
 26129  1  0
 28130  1  0
 29131  1  0
 33132  1  0
 34133  1  0
 35134  1  0
 37135  1  0
 37136  1  0
 38137  1  0
 38138  1  0
 38139  1  0
 39140  1  0
 55141  1  0
 56142  1  0
 57143  1  0
 59144  1  0
 59145  1  0
 60146  1  0
 60147  1  0
 60148  1  0
 61149  1  0
 73150  1  0
 73151  1  0
 74152  1  0
 74153  1  0
 74154  1  0
 75155  1  0
 75156  1  0
 76157  1  0
 76158  1  0
 76159  1  0
 81160  1  0
 83161  1  0
 83162  1  0
 84163  1  0
 84164  1  0
 84165  1  0
 85166  1  0
 87167  1  0
 87168  1  0
 88169  1  0
 88170  1  0
 88171  1  0
 89172  1  0
 89173  1  0
 90174  1  0
 90175  1  0
 90176  1  0
 91177  1  0
 94178  1  0
 99179  1  0
102180  1  0
110181  1  0
111182  1  0
112183  1  0
113184  1  0
114185  1  0
115186  1  0
115187  1  0
116188  1  0
M  END

