
     RDKit          3D

266294  0  0  0  0  0  0  0  0999 V2000
   -6.3470   -2.5466   -0.7107 C   0  0  0  0  0  0  0  0  0  0  0  0
   -6.1903   -1.2664   -0.2832 C   0  0  0  0  0  0  0  0  0  0  0  0
   -5.3704   -0.8598    0.8733 C   0  0  0  0  0  0  0  0  0  0  0  0
   -4.5526   -1.5821    1.5049 O   0  0  0  0  0  0  0  0  0  0  0  0
   -5.6282    0.5285    1.1679 C   0  0  0  0  0  0  0  0  0  0  0  0
   -5.1522    1.2549    2.2835 C   0  0  0  0  0  0  0  0  0  0  0  0
   -5.6171    2.5573    2.3407 C   0  0  0  0  0  0  0  0  0  0  0  0
   -6.5139    3.1134    1.3710 C   0  0  0  0  0  0  0  0  0  0  0  0
   -7.0049    2.3930    0.2900 C   0  0  0  0  0  0  0  0  0  0  0  0
   -6.5156    1.0563    0.1945 C   0  0  0  0  0  0  0  0  0  0  0  0
   -6.8407   -0.0138   -0.8017 C   0  0  0  0  0  0  0  0  0  0  0  0
   -7.4347    0.1719   -2.0117 C   0  0  0  0  0  0  0  0  0  0  0  0
   -7.7575   -0.9008   -2.9183 C   0  0  0  0  0  0  0  0  0  0  0  0
   -8.0114   -1.7529   -3.6613 N   0  0  0  0  0  0  0  0  0  0  0  0
   -7.7767    1.4807   -2.4984 C   0  0  0  0  0  0  0  0  0  0  0  0
   -8.0676    2.5256   -2.9140 N   0  0  0  0  0  0  0  0  0  0  0  0
   -6.5138    4.4266    2.1016 C   0  0  0  0  0  0  0  0  0  0  0  0
   -7.7962    4.7836    2.9205 C   0  0  0  0  0  0  0  0  0  0  0  0
   -7.3922    5.9021    3.8504 C   0  0  0  0  0  0  0  0  0  0  0  0
   -6.5705    5.3591    4.7633 C   0  0  0  0  0  0  0  0  0  0  0  0
   -6.4441    3.8938    4.4154 C   0  0  0  0  0  0  0  0  0  0  0  0
   -7.8736    3.6518    3.9338 C   0  0  0  0  0  0  0  0  0  0  0  0
   -5.6122    3.8482    3.1006 C   0  0  0  0  0  0  0  0  0  0  0  0
   -5.6824   -3.6728   -0.0445 C   0  0  0  0  0  0  0  0  0  0  0  0
   -5.9616   -4.0835    1.2657 C   0  0  0  0  0  0  0  0  0  0  0  0
   -7.2598   -3.9790    1.8692 N   0  0  0  0  0  0  0  0  0  0  0  0
   -7.4444   -3.3893    3.1617 C   0  0  0  0  0  0  0  0  0  0  0  0
   -7.6264   -4.2109    4.2861 C   0  0  0  0  0  0  0  0  0  0  0  0
   -7.9652   -3.6515    5.5198 C   0  0  0  0  0  0  0  0  0  0  0  0
   -8.1039   -2.2592    5.6529 C   0  0  0  0  0  0  0  0  0  0  0  0
   -8.5009   -1.6707    6.9747 C   0  0  0  0  0  0  0  0  0  0  0  0
   -7.9299   -1.4372    4.5273 C   0  0  0  0  0  0  0  0  0  0  0  0
   -7.6100   -1.9990    3.2857 C   0  0  0  0  0  0  0  0  0  0  0  0
   -8.3216   -4.7761    1.3280 C   0  0  0  0  0  0  0  0  0  0  0  0
   -8.1555   -6.1634    1.1701 C   0  0  0  0  0  0  0  0  0  0  0  0
   -9.1970   -6.9431    0.6773 C   0  0  0  0  0  0  0  0  0  0  0  0
  -10.4237   -6.3502    0.3283 C   0  0  0  0  0  0  0  0  0  0  0  0
  -11.5415   -7.1912   -0.2017 C   0  0  0  0  0  0  0  0  0  0  0  0
  -10.5779   -4.9562    0.4497 C   0  0  0  0  0  0  0  0  0  0  0  0
   -9.5347   -4.1779    0.9507 C   0  0  0  0  0  0  0  0  0  0  0  0
   -4.8808   -4.7640    1.8211 C   0  0  0  0  0  0  0  0  0  0  0  0
   -4.4592   -5.2509    3.3616 S   0  0  0  0  0  0  0  0  0  0  0  0
   -2.8572   -5.7100    2.9685 C   0  0  0  0  0  0  0  0  0  0  0  0
   -2.6830   -5.5188    1.5797 C   0  0  0  0  0  0  0  0  0  0  0  0
   -1.5834   -6.0287    0.8061 N   0  0  0  0  0  0  0  0  0  0  0  0
   -0.9952   -5.1923   -0.2113 C   0  0  0  0  0  0  0  0  0  0  0  0
   -0.6176   -3.8711    0.0841 C   0  0  0  0  0  0  0  0  0  0  0  0
   -0.1707   -3.0197   -0.9311 C   0  0  0  0  0  0  0  0  0  0  0  0
   -0.1055   -3.4724   -2.2568 C   0  0  0  0  0  0  0  0  0  0  0  0
    0.2425   -2.5196   -3.3615 C   0  0  0  0  0  0  0  0  0  0  0  0
   -0.4533   -4.7971   -2.5494 C   0  0  0  0  0  0  0  0  0  0  0  0
   -0.8874   -5.6527   -1.5349 C   0  0  0  0  0  0  0  0  0  0  0  0
   -1.3131   -7.4482    0.8229 C   0  0  0  0  0  0  0  0  0  0  0  0
   -2.3609   -8.3761    0.9768 C   0  0  0  0  0  0  0  0  0  0  0  0
   -2.1025   -9.7466    0.9762 C   0  0  0  0  0  0  0  0  0  0  0  0
   -0.7961  -10.2208    0.8291 C   0  0  0  0  0  0  0  0  0  0  0  0
   -0.5408  -11.6949    0.7680 C   0  0  0  0  0  0  0  0  0  0  0  0
    0.2536   -9.3030    0.6631 C   0  0  0  0  0  0  0  0  0  0  0  0
   -0.0015   -7.9270    0.6656 C   0  0  0  0  0  0  0  0  0  0  0  0
   -3.8215   -4.9460    0.9952 C   0  0  0  0  0  0  0  0  0  0  0  0
   -4.1364   -4.2291   -0.4923 S   0  0  0  0  0  0  0  0  0  0  0  0
   -1.7415   -5.8232    3.9545 C   0  0  0  0  0  0  0  0  0  0  0  0
   -1.7635   -5.3352    5.2872 C   0  0  0  0  0  0  0  0  0  0  0  0
   -2.9745   -5.0238    6.0565 C   0  0  0  0  0  0  0  0  0  0  0  0
   -3.3416   -3.6970    6.3479 C   0  0  0  0  0  0  0  0  0  0  0  0
   -4.5322   -3.4418    7.0336 C   0  0  0  0  0  0  0  0  0  0  0  0
   -5.3454   -4.4989    7.4619 C   0  0  0  0  0  0  0  0  0  0  0  0
   -4.9882   -5.8282    7.1708 C   0  0  0  0  0  0  0  0  0  0  0  0
   -5.8860   -6.9790    7.5467 C   0  0  0  0  0  0  0  0  0  0  0  0
   -6.8167   -7.3369    6.3921 C   0  0  0  0  0  0  0  0  0  0  0  0
   -3.7971   -6.0809    6.4699 C   0  0  0  0  0  0  0  0  0  0  0  0
   -0.4724   -5.1524    5.8009 C   0  0  0  0  0  0  0  0  0  0  0  0
    0.0952   -4.0427    6.9596 S   0  0  0  0  0  0  0  0  0  0  0  0
    1.6756   -4.1305    6.3550 C   0  0  0  0  0  0  0  0  0  0  0  0
    2.6446   -3.1687    6.1655 C   0  0  0  0  0  0  0  0  0  0  0  0
    2.9065   -1.9736    6.8425 C   0  0  0  0  0  0  0  0  0  0  0  0
    3.8797   -1.0850    6.3014 C   0  0  0  0  0  0  0  0  0  0  0  0
    4.0883    0.0792    6.9675 N   0  0  0  0  0  0  0  0  0  0  0  0
    3.0123   -0.1203    8.2117 S   0  0  0  0  0  0  0  0  0  0  0  0
    2.2811   -1.5874    7.9749 N   0  0  0  0  0  0  0  0  0  0  0  0
    4.5071   -1.4188    5.0819 C   0  0  0  0  0  0  0  0  0  0  0  0
    5.1789   -0.6123    4.2112 C   0  0  0  0  0  0  0  0  0  0  0  0
    5.3856    1.0680    4.0775 S   0  0  0  0  0  0  0  0  0  0  0  0
    5.5536    0.9564    2.3935 C   0  0  0  0  0  0  0  0  0  0  0  0
    5.5008    1.9274    1.4000 C   0  0  0  0  0  0  0  0  0  0  0  0
    5.1660    3.3340    1.6730 C   0  0  0  0  0  0  0  0  0  0  0  0
    3.8376    3.7638    1.5311 C   0  0  0  0  0  0  0  0  0  0  0  0
    3.4903    5.0728    1.8649 C   0  0  0  0  0  0  0  0  0  0  0  0
    4.4597    5.9601    2.3310 C   0  0  0  0  0  0  0  0  0  0  0  0
    5.8007    5.5548    2.4404 C   0  0  0  0  0  0  0  0  0  0  0  0
    6.8611    6.5131    2.9245 C   0  0  0  0  0  0  0  0  0  0  0  0
    6.8683    7.8315    2.1487 C   0  0  0  0  0  0  0  0  0  0  0  0
    6.1398    4.2255    2.1369 C   0  0  0  0  0  0  0  0  0  0  0  0
    5.3700    1.3350    0.1339 C   0  0  0  0  0  0  0  0  0  0  0  0
    5.1936   -0.3446    0.2828 S   0  0  0  0  0  0  0  0  0  0  0  0
    5.3920   -0.3351    1.9525 C   0  0  0  0  0  0  0  0  0  0  0  0
    5.1602   -1.2337    2.9953 C   0  0  0  0  0  0  0  0  0  0  0  0
    4.5042   -2.4246    3.0313 N   0  0  0  0  0  0  0  0  0  0  0  0
    4.1584   -2.5679    4.3573 C   0  0  0  0  0  0  0  0  0  0  0  0
    3.2843   -3.5050    4.9681 C   0  0  0  0  0  0  0  0  0  0  0  0
    2.7965   -4.6735    4.4666 N   0  0  0  0  0  0  0  0  0  0  0  0
    1.7738   -4.9835    5.2937 C   0  0  0  0  0  0  0  0  0  0  0  0
    0.5413   -5.5350    4.9647 C   0  0  0  0  0  0  0  0  0  0  0  0
   -0.1062   -6.0091    3.5026 S   0  0  0  0  0  0  0  0  0  0  0  0
    3.6050   -5.6923    3.7803 C   0  0  0  0  0  0  0  0  0  0  0  0
    4.0859   -6.7838    4.7434 C   0  0  0  0  0  0  0  0  0  0  0  0
    3.8945   -3.0645    1.8446 C   0  0  0  0  0  0  0  0  0  0  0  0
    4.9434   -3.7642    0.9730 C   0  0  0  0  0  0  0  0  0  0  0  0
    5.1689    2.0870   -1.1062 C   0  0  0  0  0  0  0  0  0  0  0  0
    6.0099    3.1182   -1.5836 C   0  0  0  0  0  0  0  0  0  0  0  0
    7.4074    3.2725   -1.2333 N   0  0  0  0  0  0  0  0  0  0  0  0
    8.1419    4.4349   -1.6488 C   0  0  0  0  0  0  0  0  0  0  0  0
    8.9446    4.3849   -2.8003 C   0  0  0  0  0  0  0  0  0  0  0  0
    9.6211    5.5285   -3.2376 C   0  0  0  0  0  0  0  0  0  0  0  0
    9.5143    6.7285   -2.5214 C   0  0  0  0  0  0  0  0  0  0  0  0
   10.2475    7.9478   -2.9956 C   0  0  0  0  0  0  0  0  0  0  0  0
    8.7305    6.7683   -1.3522 C   0  0  0  0  0  0  0  0  0  0  0  0
    8.0504    5.6254   -0.9233 C   0  0  0  0  0  0  0  0  0  0  0  0
    8.1766    2.1534   -0.7562 C   0  0  0  0  0  0  0  0  0  0  0  0
    8.9423    2.2702    0.4173 C   0  0  0  0  0  0  0  0  0  0  0  0
    9.6320    1.1653    0.9193 C   0  0  0  0  0  0  0  0  0  0  0  0
    9.6060   -0.0575    0.2353 C   0  0  0  0  0  0  0  0  0  0  0  0
   10.3016   -1.2559    0.8097 C   0  0  0  0  0  0  0  0  0  0  0  0
    8.8718   -0.1704   -0.9553 C   0  0  0  0  0  0  0  0  0  0  0  0
    8.1756    0.9344   -1.4561 C   0  0  0  0  0  0  0  0  0  0  0  0
    5.3331    3.8686   -2.5513 C   0  0  0  0  0  0  0  0  0  0  0  0
    5.6242    5.3052   -3.3876 S   0  0  0  0  0  0  0  0  0  0  0  0
    4.1448    5.2806   -4.2253 C   0  0  0  0  0  0  0  0  0  0  0  0
    3.4112    4.1503   -3.8328 C   0  0  0  0  0  0  0  0  0  0  0  0
    2.1618    3.7417   -4.4100 N   0  0  0  0  0  0  0  0  0  0  0  0
    0.9408    3.9247   -3.6679 C   0  0  0  0  0  0  0  0  0  0  0  0
    0.6797    5.1419   -3.0169 C   0  0  0  0  0  0  0  0  0  0  0  0
   -0.5074    5.3141   -2.2962 C   0  0  0  0  0  0  0  0  0  0  0  0
   -1.4370    4.2664   -2.2030 C   0  0  0  0  0  0  0  0  0  0  0  0
   -2.7300    4.4535   -1.4624 C   0  0  0  0  0  0  0  0  0  0  0  0
   -1.1848    3.0571   -2.8576 C   0  0  0  0  0  0  0  0  0  0  0  0
   -0.0007    2.8828   -3.5770 C   0  0  0  0  0  0  0  0  0  0  0  0
    2.1755    2.9610   -5.6260 C   0  0  0  0  0  0  0  0  0  0  0  0
    3.1484    1.9628   -5.8310 C   0  0  0  0  0  0  0  0  0  0  0  0
    3.1911    1.2497   -7.0283 C   0  0  0  0  0  0  0  0  0  0  0  0
    2.2688    1.5162   -8.0495 C   0  0  0  0  0  0  0  0  0  0  0  0
    2.3140    0.7219   -9.3215 C   0  0  0  0  0  0  0  0  0  0  0  0
    1.2776    2.4923   -7.8426 C   0  0  0  0  0  0  0  0  0  0  0  0
    1.2329    3.2087   -6.6427 C   0  0  0  0  0  0  0  0  0  0  0  0
    4.0991    3.4042   -2.8831 C   0  0  0  0  0  0  0  0  0  0  0  0
    3.6971    2.0754   -1.9475 S   0  0  0  0  0  0  0  0  0  0  0  0
    3.5975    6.4161   -4.9755 C   0  0  0  0  0  0  0  0  0  0  0  0
    3.2565    6.3246   -6.2693 C   0  0  0  0  0  0  0  0  0  0  0  0
    3.7946    5.3262   -7.1956 C   0  0  0  0  0  0  0  0  0  0  0  0
    4.6365    4.4333   -6.9235 O   0  0  0  0  0  0  0  0  0  0  0  0
    3.2655    5.5762   -8.5122 C   0  0  0  0  0  0  0  0  0  0  0  0
    3.4160    4.7876   -9.6568 C   0  0  0  0  0  0  0  0  0  0  0  0
    2.6861    5.1371  -10.7977 C   0  0  0  0  0  0  0  0  0  0  0  0
    1.7698    6.1962  -10.7566 C   0  0  0  0  0  0  0  0  0  0  0  0
    1.5935    6.9608   -9.5781 C   0  0  0  0  0  0  0  0  0  0  0  0
    0.5639    7.9041   -9.4687 O   0  0  0  0  0  0  0  0  0  0  0  0
   -0.3388    8.2579  -10.5091 C   0  0  0  0  0  0  0  0  0  0  0  0
    2.4420    6.6955   -8.4762 C   0  0  0  0  0  0  0  0  0  0  0  0
    2.4511    7.2741   -7.0979 C   0  0  0  0  0  0  0  0  0  0  0  0
    1.9428    8.4712   -6.7131 C   0  0  0  0  0  0  0  0  0  0  0  0
    1.6826    8.8000   -5.3387 C   0  0  0  0  0  0  0  0  0  0  0  0
    1.4637    9.0799   -4.2397 N   0  0  0  0  0  0  0  0  0  0  0  0
    1.7226    9.5448   -7.6497 C   0  0  0  0  0  0  0  0  0  0  0  0
    1.5472   10.4155   -8.3933 N   0  0  0  0  0  0  0  0  0  0  0  0
   -6.9677   -2.8069   -1.5567 H   0  0  0  0  0  0  0  0  0  0  0  0
   -4.5062    0.8242    3.0384 H   0  0  0  0  0  0  0  0  0  0  0  0
   -7.7311    2.8290   -0.3757 H   0  0  0  0  0  0  0  0  0  0  0  0
   -6.0710    5.2601    1.5097 H   0  0  0  0  0  0  0  0  0  0  0  0
   -8.7199    4.9659    2.3358 H   0  0  0  0  0  0  0  0  0  0  0  0
   -7.7463    6.9267    3.8479 H   0  0  0  0  0  0  0  0  0  0  0  0
   -6.1689    5.8782    5.6293 H   0  0  0  0  0  0  0  0  0  0  0  0
   -6.0763    3.2372    5.2304 H   0  0  0  0  0  0  0  0  0  0  0  0
   -8.0356    2.6534    3.4673 H   0  0  0  0  0  0  0  0  0  0  0  0
   -8.6365    3.8171    4.7283 H   0  0  0  0  0  0  0  0  0  0  0  0
   -4.6133    4.3282    3.1455 H   0  0  0  0  0  0  0  0  0  0  0  0
   -7.5285   -5.2863    4.1894 H   0  0  0  0  0  0  0  0  0  0  0  0
   -8.1519   -4.2982    6.3642 H   0  0  0  0  0  0  0  0  0  0  0  0
   -8.2545   -0.5854    7.0229 H   0  0  0  0  0  0  0  0  0  0  0  0
   -9.5917   -1.8004    7.1212 H   0  0  0  0  0  0  0  0  0  0  0  0
   -7.9641   -2.1774    7.8000 H   0  0  0  0  0  0  0  0  0  0  0  0
   -8.0958   -0.3690    4.5997 H   0  0  0  0  0  0  0  0  0  0  0  0
   -7.5533   -1.3690    2.4130 H   0  0  0  0  0  0  0  0  0  0  0  0
   -7.2234   -6.6360    1.4577 H   0  0  0  0  0  0  0  0  0  0  0  0
   -9.0589   -8.0102    0.5617 H   0  0  0  0  0  0  0  0  0  0  0  0
  -12.5238   -6.7161    0.0052 H   0  0  0  0  0  0  0  0  0  0  0  0
  -11.5302   -8.1947    0.2724 H   0  0  0  0  0  0  0  0  0  0  0  0
  -11.4147   -7.3072   -1.3054 H   0  0  0  0  0  0  0  0  0  0  0  0
  -11.5065   -4.4777    0.1606 H   0  0  0  0  0  0  0  0  0  0  0  0
   -9.6582   -3.1104    1.0623 H   0  0  0  0  0  0  0  0  0  0  0  0
   -0.7069   -3.4956    1.0931 H   0  0  0  0  0  0  0  0  0  0  0  0
    0.0790   -1.9928   -0.6882 H   0  0  0  0  0  0  0  0  0  0  0  0
    1.1442   -1.9314   -3.0906 H   0  0  0  0  0  0  0  0  0  0  0  0
    0.4518   -3.0609   -4.3089 H   0  0  0  0  0  0  0  0  0  0  0  0
   -0.6100   -1.8299   -3.5220 H   0  0  0  0  0  0  0  0  0  0  0  0
   -0.4256   -5.1609   -3.5712 H   0  0  0  0  0  0  0  0  0  0  0  0
   -1.1873   -6.6579   -1.7950 H   0  0  0  0  0  0  0  0  0  0  0  0
   -3.3867   -8.0420    1.0799 H   0  0  0  0  0  0  0  0  0  0  0  0
   -2.9288  -10.4433    1.0824 H   0  0  0  0  0  0  0  0  0  0  0  0
   -0.8362  -12.0738   -0.2317 H   0  0  0  0  0  0  0  0  0  0  0  0
   -1.1437  -12.2105    1.5460 H   0  0  0  0  0  0  0  0  0  0  0  0
    0.5253  -11.9276    0.9529 H   0  0  0  0  0  0  0  0  0  0  0  0
    1.2755   -9.6598    0.5342 H   0  0  0  0  0  0  0  0  0  0  0  0
    0.8274   -7.2359    0.5546 H   0  0  0  0  0  0  0  0  0  0  0  0
   -2.7203   -2.8708    6.0216 H   0  0  0  0  0  0  0  0  0  0  0  0
   -4.8311   -2.4168    7.2356 H   0  0  0  0  0  0  0  0  0  0  0  0
   -6.2618   -4.2796    8.0021 H   0  0  0  0  0  0  0  0  0  0  0  0
   -5.2643   -7.8671    7.7891 H   0  0  0  0  0  0  0  0  0  0  0  0
   -6.4818   -6.7307    8.4531 H   0  0  0  0  0  0  0  0  0  0  0  0
   -7.6291   -6.5792    6.3073 H   0  0  0  0  0  0  0  0  0  0  0  0
   -7.2797   -8.3240    6.5792 H   0  0  0  0  0  0  0  0  0  0  0  0
   -6.2566   -7.3832    5.4377 H   0  0  0  0  0  0  0  0  0  0  0  0
   -3.5131   -7.1053    6.2272 H   0  0  0  0  0  0  0  0  0  0  0  0
    3.0597    3.0797    1.1917 H   0  0  0  0  0  0  0  0  0  0  0  0
    2.4577    5.3964    1.7704 H   0  0  0  0  0  0  0  0  0  0  0  0
    4.1568    6.9642    2.6128 H   0  0  0  0  0  0  0  0  0  0  0  0
    7.8710    6.0518    2.8258 H   0  0  0  0  0  0  0  0  0  0  0  0
    6.6975    6.7183    4.0072 H   0  0  0  0  0  0  0  0  0  0  0  0
    7.8191    8.3735    2.3371 H   0  0  0  0  0  0  0  0  0  0  0  0
    6.0300    8.4825    2.4819 H   0  0  0  0  0  0  0  0  0  0  0  0
    6.7723    7.6584    1.0645 H   0  0  0  0  0  0  0  0  0  0  0  0
    7.1582    3.8789    2.2697 H   0  0  0  0  0  0  0  0  0  0  0  0
    3.0363   -6.1304    2.9401 H   0  0  0  0  0  0  0  0  0  0  0  0
    4.5137   -5.2278    3.3565 H   0  0  0  0  0  0  0  0  0  0  0  0
    3.2311   -7.4290    5.0508 H   0  0  0  0  0  0  0  0  0  0  0  0
    4.5282   -6.3252    5.6536 H   0  0  0  0  0  0  0  0  0  0  0  0
    4.8418   -7.4298    4.2432 H   0  0  0  0  0  0  0  0  0  0  0  0
    3.3393   -2.3076    1.2434 H   0  0  0  0  0  0  0  0  0  0  0  0
    3.1031   -3.7801    2.1215 H   0  0  0  0  0  0  0  0  0  0  0  0
    5.5755   -4.4634    1.5534 H   0  0  0  0  0  0  0  0  0  0  0  0
    4.4370   -4.3597    0.1744 H   0  0  0  0  0  0  0  0  0  0  0  0
    5.6224   -3.0416    0.4972 H   0  0  0  0  0  0  0  0  0  0  0  0
    9.0217    3.4689   -3.3747 H   0  0  0  0  0  0  0  0  0  0  0  0
   10.2163    5.4826   -4.1418 H   0  0  0  0  0  0  0  0  0  0  0  0
    9.9410    8.8524   -2.4310 H   0  0  0  0  0  0  0  0  0  0  0  0
   10.0305    8.1256   -4.0689 H   0  0  0  0  0  0  0  0  0  0  0  0
   11.3413    7.7926   -2.8663 H   0  0  0  0  0  0  0  0  0  0  0  0
    8.6387    7.6841   -0.7820 H   0  0  0  0  0  0  0  0  0  0  0  0
    7.4377    5.6601   -0.0378 H   0  0  0  0  0  0  0  0  0  0  0  0
    8.9743    3.2092    0.9509 H   0  0  0  0  0  0  0  0  0  0  0  0
   10.1847    1.2685    1.8457 H   0  0  0  0  0  0  0  0  0  0  0  0
   11.2216   -0.9535    1.3601 H   0  0  0  0  0  0  0  0  0  0  0  0
   10.5989   -1.9676    0.0036 H   0  0  0  0  0  0  0  0  0  0  0  0
    9.6093   -1.7695    1.5114 H   0  0  0  0  0  0  0  0  0  0  0  0
    8.8348   -1.1126   -1.4911 H   0  0  0  0  0  0  0  0  0  0  0  0
    7.6085    0.8372   -2.3753 H   0  0  0  0  0  0  0  0  0  0  0  0
    1.3810    5.9658   -3.0836 H   0  0  0  0  0  0  0  0  0  0  0  0
   -0.7031    6.2627   -1.8106 H   0  0  0  0  0  0  0  0  0  0  0  0
   -3.5554    4.5750   -2.1977 H   0  0  0  0  0  0  0  0  0  0  0  0
   -2.9353    3.5650   -0.8302 H   0  0  0  0  0  0  0  0  0  0  0  0
   -2.6911    5.3412   -0.7990 H   0  0  0  0  0  0  0  0  0  0  0  0
   -1.9032    2.2462   -2.8051 H   0  0  0  0  0  0  0  0  0  0  0  0
    0.1816    1.9323   -4.0651 H   0  0  0  0  0  0  0  0  0  0  0  0
    3.8829    1.7336   -5.0694 H   0  0  0  0  0  0  0  0  0  0  0  0
    3.9467    0.4830   -7.1687 H   0  0  0  0  0  0  0  0  0  0  0  0
    1.7161    1.2036  -10.1268 H   0  0  0  0  0  0  0  0  0  0  0  0
    3.3636    0.6333   -9.6793 H   0  0  0  0  0  0  0  0  0  0  0  0
    1.9141   -0.2959   -9.1379 H   0  0  0  0  0  0  0  0  0  0  0  0
    0.5445    2.7038   -8.6161 H   0  0  0  0  0  0  0  0  0  0  0  0
    0.4872    3.9824   -6.5078 H   0  0  0  0  0  0  0  0  0  0  0  0
    3.3690    7.2838   -4.3829 H   0  0  0  0  0  0  0  0  0  0  0  0
    4.0582    3.9216   -9.6604 H   0  0  0  0  0  0  0  0  0  0  0  0
    2.7808    4.5480  -11.7005 H   0  0  0  0  0  0  0  0  0  0  0  0
    1.1691    6.3850  -11.6392 H   0  0  0  0  0  0  0  0  0  0  0  0
   -0.9187    7.3626  -10.8386 H   0  0  0  0  0  0  0  0  0  0  0  0
    0.2200    8.6917  -11.3667 H   0  0  0  0  0  0  0  0  0  0  0  0
   -1.0488    9.0185  -10.1326 H   0  0  0  0  0  0  0  0  0  0  0  0
  1  2  2  3
  2  3  1  0
  3  4  2  0
  3  5  1  0
  5  6  2  0
  6  7  1  0
  7  8  2  0
  8  9  1  0
  9 10  2  0
 10 11  1  0
 11 12  2  3
 12 13  1  0
 13 14  3  0
 12 15  1  0
 15 16  3  0
  8 17  1  0
 17 18  1  0
 18 19  1  0
 19 20  2  0
 20 21  1  0
 21 22  1  0
 21 23  1  0
  1 24  1  0
 24 25  2  0
 25 26  1  0
 26 27  1  0
 27 28  2  0
 28 29  1  0
 29 30  2  0
 30 31  1  0
 30 32  1  0
 32 33  2  0
 26 34  1  0
 34 35  2  0
 35 36  1  0
 36 37  2  0
 37 38  1  0
 37 39  1  0
 39 40  2  0
 25 41  1  0
 41 42  1  0
 42 43  1  0
 43 44  2  0
 44 45  1  0
 45 46  1  0
 46 47  2  0
 47 48  1  0
 48 49  2  0
 49 50  1  0
 49 51  1  0
 51 52  2  0
 45 53  1  0
 53 54  2  0
 54 55  1  0
 55 56  2  0
 56 57  1  0
 56 58  1  0
 58 59  2  0
 44 60  1  0
 60 61  1  0
 43 62  1  0
 62 63  2  0
 63 64  1  0
 64 65  2  0
 65 66  1  0
 66 67  2  0
 67 68  1  0
 68 69  1  0
 69 70  1  0
 68 71  2  0
 63 72  1  0
 72 73  1  0
 73 74  1  0
 74 75  1  0
 75 76  1  0
 76 77  1  0
 77 78  2  0
 78 79  1  0
 79 80  1  0
 77 81  1  0
 81 82  1  0
 82 83  1  0
 83 84  1  0
 84 85  1  0
 85 86  1  0
 86 87  2  0
 87 88  1  0
 88 89  2  0
 89 90  1  0
 90 91  1  0
 91 92  1  0
 90 93  2  0
 85 94  2  0
 94 95  1  0
 95 96  1  0
 96 97  1  0
 97 98  1  0
 98 99  1  0
 99100  1  0
100101  1  0
101102  1  0
102103  1  0
103104  1  0
101105  1  0
105106  1  0
 98107  1  0
107108  1  0
 94109  1  0
109110  2  0
110111  1  0
111112  1  0
112113  2  0
113114  1  0
114115  2  0
115116  1  0
115117  1  0
117118  2  0
111119  1  0
119120  2  0
120121  1  0
121122  2  0
122123  1  0
122124  1  0
124125  2  0
110126  1  0
126127  1  0
127128  1  0
128129  2  0
129130  1  0
130131  1  0
131132  2  0
132133  1  0
133134  2  0
134135  1  0
134136  1  0
136137  2  0
130138  1  0
138139  2  0
139140  1  0
140141  2  0
141142  1  0
141143  1  0
143144  2  0
129145  1  0
145146  1  0
128147  1  0
147148  2  3
148149  1  0
149150  2  0
149151  1  0
151152  2  0
152153  1  0
153154  2  0
154155  1  0
155156  1  0
156157  1  0
155158  2  0
158159  1  0
159160  2  3
160161  1  0
161162  3  0
160163  1  0
163164  3  0
 11  2  1  0
 23 17  1  0
 61 24  1  0
104 62  1  0
146109  1  0
159148  1  0
 10  5  1  0
 22 18  1  0
 33 27  1  0
 40 34  1  0
 60 41  2  0
 71 64  1  0
103 72  2  0
118112  1  0
125119  1  0
145126  2  0
158151  1  0
 23  7  1  0
 52 46  1  0
 59 53  1  0
102 74  2  0
137131  1  0
144138  1  0
100 75  2  0
 80 76  2  0
 99 81  2  0
 97 82  2  0
 96 84  2  0
 93 86  1  0
  1165  1  0
  6166  1  0
  9167  1  0
 17168  1  0
 18169  1  0
 19170  1  0
 20171  1  0
 21172  1  0
 22173  1  0
 22174  1  0
 23175  1  0
 28176  1  0
 29177  1  0
 31178  1  0
 31179  1  0
 31180  1  0
 32181  1  0
 33182  1  0
 35183  1  0
 36184  1  0
 38185  1  0
 38186  1  0
 38187  1  0
 39188  1  0
 40189  1  0
 47190  1  0
 48191  1  0
 50192  1  0
 50193  1  0
 50194  1  0
 51195  1  0
 52196  1  0
 54197  1  0
 55198  1  0
 57199  1  0
 57200  1  0
 57201  1  0
 58202  1  0
 59203  1  0
 65204  1  0
 66205  1  0
 67206  1  0
 69207  1  0
 69208  1  0
 70209  1  0
 70210  1  0
 70211  1  0
 71212  1  0
 87213  1  0
 88214  1  0
 89215  1  0
 91216  1  0
 91217  1  0
 92218  1  0
 92219  1  0
 92220  1  0
 93221  1  0
105222  1  0
105223  1  0
106224  1  0
106225  1  0
106226  1  0
107227  1  0
107228  1  0
108229  1  0
108230  1  0
108231  1  0
113232  1  0
114233  1  0
116234  1  0
116235  1  0
116236  1  0
117237  1  0
118238  1  0
120239  1  0
121240  1  0
123241  1  0
123242  1  0
123243  1  0
124244  1  0
125245  1  0
132246  1  0
133247  1  0
135248  1  0
135249  1  0
135250  1  0
136251  1  0
137252  1  0
139253  1  0
140254  1  0
142255  1  0
142256  1  0
142257  1  0
143258  1  0
144259  1  0
147260  1  0
152261  1  0
153262  1  0
154263  1  0
157264  1  0
157265  1  0
157266  1  0
M  END

