
     RDKit          3D

246274  0  0  0  0  0  0  0  0999 V2000
    4.5594   -0.2137    6.9525 C   0  0  0  0  0  0  0  0  0  0  0  0
    5.3812   -1.2742    7.0549 C   0  0  0  0  0  0  0  0  0  0  0  0
    5.0721   -2.6367    6.5966 C   0  0  0  0  0  0  0  0  0  0  0  0
    3.9315   -3.1002    6.3288 O   0  0  0  0  0  0  0  0  0  0  0  0
    6.3103   -3.3554    6.4111 C   0  0  0  0  0  0  0  0  0  0  0  0
    6.4652   -4.6505    5.8674 C   0  0  0  0  0  0  0  0  0  0  0  0
    7.7814   -5.0248    5.6846 C   0  0  0  0  0  0  0  0  0  0  0  0
    8.8879   -4.1708    5.9909 C   0  0  0  0  0  0  0  0  0  0  0  0
    8.7426   -2.8999    6.5226 C   0  0  0  0  0  0  0  0  0  0  0  0
    7.3942   -2.5111    6.7635 C   0  0  0  0  0  0  0  0  0  0  0  0
    6.8558   -1.2266    7.2950 C   0  0  0  0  0  0  0  0  0  0  0  0
    7.5269   -0.3132    8.0429 C   0  0  0  0  0  0  0  0  0  0  0  0
    8.9266   -0.4457    8.3527 C   0  0  0  0  0  0  0  0  0  0  0  0
   10.0493   -0.5413    8.6157 N   0  0  0  0  0  0  0  0  0  0  0  0
    6.8571    0.7737    8.7111 C   0  0  0  0  0  0  0  0  0  0  0  0
    6.3257    1.6487    9.2521 N   0  0  0  0  0  0  0  0  0  0  0  0
    9.8473   -5.2027    5.4794 C   0  0  0  0  0  0  0  0  0  0  0  0
   10.4749   -4.9368    4.0788 C   0  0  0  0  0  0  0  0  0  0  0  0
   11.0709   -6.2530    3.6402 C   0  0  0  0  0  0  0  0  0  0  0  0
   10.0425   -7.0657    3.3751 C   0  0  0  0  0  0  0  0  0  0  0  0
    8.7867   -6.2690    3.6393 C   0  0  0  0  0  0  0  0  0  0  0  0
    9.2667   -4.9127    3.1568 C   0  0  0  0  0  0  0  0  0  0  0  0
    8.7141   -6.0850    5.1837 C   0  0  0  0  0  0  0  0  0  0  0  0
    3.1945   -0.3119    6.4219 C   0  0  0  0  0  0  0  0  0  0  0  0
    2.7563    0.2259    5.1981 C   0  0  0  0  0  0  0  0  0  0  0  0
    3.5776    1.0018    4.2995 N   0  0  0  0  0  0  0  0  0  0  0  0
    3.1094    2.2797    3.8096 C   0  0  0  0  0  0  0  0  0  0  0  0
    3.5070    2.7459    2.5437 C   0  0  0  0  0  0  0  0  0  0  0  0
    3.1100    4.0090    2.0936 C   0  0  0  0  0  0  0  0  0  0  0  0
    2.2921    4.8194    2.8926 C   0  0  0  0  0  0  0  0  0  0  0  0
    1.9015    6.1900    2.4245 C   0  0  0  0  0  0  0  0  0  0  0  0
    1.8919    4.3600    4.1555 C   0  0  0  0  0  0  0  0  0  0  0  0
    2.2946    3.1015    4.6111 C   0  0  0  0  0  0  0  0  0  0  0  0
    4.9404    0.5946    4.0579 C   0  0  0  0  0  0  0  0  0  0  0  0
    5.9968    1.4919    4.2826 C   0  0  0  0  0  0  0  0  0  0  0  0
    7.3229    1.0731    4.1463 C   0  0  0  0  0  0  0  0  0  0  0  0
    7.6133   -0.2506    3.7866 C   0  0  0  0  0  0  0  0  0  0  0  0
    9.0408   -0.6864    3.6485 C   0  0  0  0  0  0  0  0  0  0  0  0
    6.5590   -1.1422    3.5292 C   0  0  0  0  0  0  0  0  0  0  0  0
    5.2318   -0.7238    3.6712 C   0  0  0  0  0  0  0  0  0  0  0  0
    1.4015   -0.0429    4.9999 C   0  0  0  0  0  0  0  0  0  0  0  0
    0.2976    0.2565    3.7691 S   0  0  0  0  0  0  0  0  0  0  0  0
   -0.9944   -0.5159    4.5747 C   0  0  0  0  0  0  0  0  0  0  0  0
   -0.5531   -0.9942    5.8193 C   0  0  0  0  0  0  0  0  0  0  0  0
   -1.4051   -1.5599    6.8316 N   0  0  0  0  0  0  0  0  0  0  0  0
   -1.5557   -0.8887    8.1082 C   0  0  0  0  0  0  0  0  0  0  0  0
   -1.8923   -1.6117    9.2691 C   0  0  0  0  0  0  0  0  0  0  0  0
   -2.0538   -0.9569   10.4943 C   0  0  0  0  0  0  0  0  0  0  0  0
   -1.8829    0.4319   10.5844 C   0  0  0  0  0  0  0  0  0  0  0  0
   -2.0258    1.1347   11.9015 C   0  0  0  0  0  0  0  0  0  0  0  0
   -1.5114    1.1536    9.4419 C   0  0  0  0  0  0  0  0  0  0  0  0
   -1.3512    0.5014    8.2175 C   0  0  0  0  0  0  0  0  0  0  0  0
   -2.1024   -2.7880    6.5406 C   0  0  0  0  0  0  0  0  0  0  0  0
   -1.4228   -3.8603    5.9404 C   0  0  0  0  0  0  0  0  0  0  0  0
   -2.1057   -5.0330    5.6082 C   0  0  0  0  0  0  0  0  0  0  0  0
   -3.4803   -5.1463    5.8593 C   0  0  0  0  0  0  0  0  0  0  0  0
   -4.1979   -6.4195    5.5254 C   0  0  0  0  0  0  0  0  0  0  0  0
   -4.1587   -4.0834    6.4752 C   0  0  0  0  0  0  0  0  0  0  0  0
   -3.4761   -2.9101    6.8086 C   0  0  0  0  0  0  0  0  0  0  0  0
    0.7941   -0.7163    6.0117 C   0  0  0  0  0  0  0  0  0  0  0  0
    1.8888   -1.0443    7.2401 S   0  0  0  0  0  0  0  0  0  0  0  0
   -2.3620   -0.6138    4.0475 C   0  0  0  0  0  0  0  0  0  0  0  0
   -3.2061    0.4688    3.7467 C   0  0  0  0  0  0  0  0  0  0  0  0
   -2.7856    1.8770    3.8144 C   0  0  0  0  0  0  0  0  0  0  0  0
   -2.5452    2.4838    5.0532 C   0  0  0  0  0  0  0  0  0  0  0  0
   -2.0260    3.7798    5.1111 C   0  0  0  0  0  0  0  0  0  0  0  0
   -1.7347    4.4725    3.9324 C   0  0  0  0  0  0  0  0  0  0  0  0
   -1.9762    3.8781    2.6811 C   0  0  0  0  0  0  0  0  0  0  0  0
   -1.6487    4.6183    1.4082 C   0  0  0  0  0  0  0  0  0  0  0  0
   -0.5455    3.9158    0.6195 C   0  0  0  0  0  0  0  0  0  0  0  0
   -2.5170    2.5827    2.6307 C   0  0  0  0  0  0  0  0  0  0  0  0
   -4.3916    0.0260    3.1555 C   0  0  0  0  0  0  0  0  0  0  0  0
   -5.6428    0.8315    2.3272 S   0  0  0  0  0  0  0  0  0  0  0  0
   -6.2704   -0.6418    1.7589 C   0  0  0  0  0  0  0  0  0  0  0  0
   -6.9141   -1.0098    0.6091 C   0  0  0  0  0  0  0  0  0  0  0  0
   -7.7764   -0.3097   -0.2310 C   0  0  0  0  0  0  0  0  0  0  0  0
   -8.1791   -0.9196   -1.4539 C   0  0  0  0  0  0  0  0  0  0  0  0
   -9.0042   -0.1940   -2.2497 N   0  0  0  0  0  0  0  0  0  0  0  0
   -9.1785    1.1650   -1.3206 S   0  0  0  0  0  0  0  0  0  0  0  0
   -8.2635    0.9268    0.0383 N   0  0  0  0  0  0  0  0  0  0  0  0
   -7.6197   -2.1591   -1.8198 C   0  0  0  0  0  0  0  0  0  0  0  0
   -7.4412   -2.6473   -3.0889 C   0  0  0  0  0  0  0  0  0  0  0  0
   -7.5627   -1.8243   -4.5640 S   0  0  0  0  0  0  0  0  0  0  0  0
   -6.1994   -2.5859   -5.2115 C   0  0  0  0  0  0  0  0  0  0  0  0
   -5.3089   -2.0970   -6.1804 C   0  0  0  0  0  0  0  0  0  0  0  0
   -5.6268   -0.8655   -6.9276 C   0  0  0  0  0  0  0  0  0  0  0  0
   -5.0551    0.3600   -6.5512 C   0  0  0  0  0  0  0  0  0  0  0  0
   -5.4379    1.5409   -7.1879 C   0  0  0  0  0  0  0  0  0  0  0  0
   -6.4290    1.5162   -8.1710 C   0  0  0  0  0  0  0  0  0  0  0  0
   -7.0466    0.3061   -8.5278 C   0  0  0  0  0  0  0  0  0  0  0  0
   -8.1686    0.2870   -9.5334 C   0  0  0  0  0  0  0  0  0  0  0  0
   -7.7511   -0.4087  -10.8256 C   0  0  0  0  0  0  0  0  0  0  0  0
   -6.6373   -0.8842   -7.9006 C   0  0  0  0  0  0  0  0  0  0  0  0
   -4.0210   -2.6645   -6.0336 C   0  0  0  0  0  0  0  0  0  0  0  0
   -4.0694   -3.7270   -4.7121 S   0  0  0  0  0  0  0  0  0  0  0  0
   -5.6640   -3.4590   -4.2927 C   0  0  0  0  0  0  0  0  0  0  0  0
   -6.3340   -3.4598   -3.0543 C   0  0  0  0  0  0  0  0  0  0  0  0
   -5.8205   -3.5613   -1.7900 N   0  0  0  0  0  0  0  0  0  0  0  0
   -6.6645   -2.8022   -1.0133 C   0  0  0  0  0  0  0  0  0  0  0  0
   -6.4318   -2.2854    0.2915 C   0  0  0  0  0  0  0  0  0  0  0  0
   -5.6127   -2.7489    1.2803 N   0  0  0  0  0  0  0  0  0  0  0  0
   -5.5080   -1.7059    2.1359 C   0  0  0  0  0  0  0  0  0  0  0  0
   -4.4595   -1.3297    2.9574 C   0  0  0  0  0  0  0  0  0  0  0  0
   -3.0468   -2.0629    3.4693 S   0  0  0  0  0  0  0  0  0  0  0  0
   -5.3380   -4.1496    1.6295 C   0  0  0  0  0  0  0  0  0  0  0  0
   -6.1667   -4.5814    2.8365 C   0  0  0  0  0  0  0  0  0  0  0  0
   -4.4079   -3.8704   -1.5013 C   0  0  0  0  0  0  0  0  0  0  0  0
   -4.1165   -5.3566   -1.6914 C   0  0  0  0  0  0  0  0  0  0  0  0
   -2.7359   -2.0856   -6.4858 C   0  0  0  0  0  0  0  0  0  0  0  0
   -1.6119   -2.0356   -5.6614 C   0  0  0  0  0  0  0  0  0  0  0  0
   -0.6689   -1.0842   -6.0582 C   0  0  0  0  0  0  0  0  0  0  0  0
    0.4595   -0.6995   -5.3141 C   0  0  0  0  0  0  0  0  0  0  0  0
    0.7993   -1.3292   -4.0231 C   0  0  0  0  0  0  0  0  0  0  0  0
    0.0282   -1.0653   -2.8813 C   0  0  0  0  0  0  0  0  0  0  0  0
    0.3749   -1.6371   -1.6523 C   0  0  0  0  0  0  0  0  0  0  0  0
    1.4955   -2.4663   -1.5567 C   0  0  0  0  0  0  0  0  0  0  0  0
    2.2697   -2.7328   -2.6921 C   0  0  0  0  0  0  0  0  0  0  0  0
    3.6944   -3.8199   -2.5722 S   0  0  0  0  0  0  0  0  0  0  0  0
    4.8799   -2.4994   -2.1336 C   0  0  0  0  0  0  0  0  0  0  0  0
    5.3423   -1.7430   -3.3744 C   0  0  0  0  0  0  0  0  0  0  0  0
    1.9150   -2.1733   -3.9264 C   0  0  0  0  0  0  0  0  0  0  0  0
    1.1747    0.4123   -5.7760 C   0  0  0  0  0  0  0  0  0  0  0  0
    0.8135    1.1121   -6.9326 C   0  0  0  0  0  0  0  0  0  0  0  0
   -0.2827    0.6842   -7.7191 C   0  0  0  0  0  0  0  0  0  0  0  0
   -0.6921    1.4245   -8.9347 C   0  0  0  0  0  0  0  0  0  0  0  0
    0.2075    1.5597  -10.0038 C   0  0  0  0  0  0  0  0  0  0  0  0
   -0.1393    2.3143  -11.1267 C   0  0  0  0  0  0  0  0  0  0  0  0
   -1.3808    2.9517  -11.1863 C   0  0  0  0  0  0  0  0  0  0  0  0
   -2.2913    2.8167  -10.1324 C   0  0  0  0  0  0  0  0  0  0  0  0
   -3.8650    3.6774  -10.1953 S   0  0  0  0  0  0  0  0  0  0  0  0
   -4.6699    2.4313  -11.2560 C   0  0  0  0  0  0  0  0  0  0  0  0
   -6.0083    2.9598  -11.7528 C   0  0  0  0  0  0  0  0  0  0  0  0
   -1.9492    2.0499   -9.0094 C   0  0  0  0  0  0  0  0  0  0  0  0
   -1.0145   -0.4176   -7.2371 C   0  0  0  0  0  0  0  0  0  0  0  0
   -2.4956   -1.0162   -7.7774 S   0  0  0  0  0  0  0  0  0  0  0  0
    1.5226    2.3136   -7.0874 C   0  0  0  0  0  0  0  0  0  0  0  0
    2.4212    2.5471   -6.0497 C   0  0  0  0  0  0  0  0  0  0  0  0
    2.3604    1.2719   -4.9494 S   0  0  0  0  0  0  0  0  0  0  0  0
    3.0282    3.8482   -5.7583 C   0  0  0  0  0  0  0  0  0  0  0  0
    2.4219    4.7573   -4.9709 C   0  0  0  0  0  0  0  0  0  0  0  0
    1.0598    4.6202   -4.3920 C   0  0  0  0  0  0  0  0  0  0  0  0
    0.3187    3.5998   -4.4061 O   0  0  0  0  0  0  0  0  0  0  0  0
    0.7082    5.8931   -3.8225 C   0  0  0  0  0  0  0  0  0  0  0  0
    1.7288    6.7785   -3.9795 C   0  0  0  0  0  0  0  0  0  0  0  0
    1.3242    8.2981   -3.3183 S   0  0  0  0  0  0  0  0  0  0  0  0
   -0.2123    7.7444   -2.8416 C   0  0  0  0  0  0  0  0  0  0  0  0
   -1.2961    8.3295   -2.1982 C   0  0  0  0  0  0  0  0  0  0  0  0
   -2.3411    7.4097   -2.0483 C   0  0  0  0  0  0  0  0  0  0  0  0
   -1.8996    5.9000   -2.7125 S   0  0  0  0  0  0  0  0  0  0  0  0
   -0.3860    6.4356   -3.1809 C   0  0  0  0  0  0  0  0  0  0  0  0
    2.8851    6.1564   -4.6513 C   0  0  0  0  0  0  0  0  0  0  0  0
    4.0971    6.7307   -4.8259 C   0  0  0  0  0  0  0  0  0  0  0  0
    4.3340    8.1012   -4.4502 C   0  0  0  0  0  0  0  0  0  0  0  0
    4.5216    9.2076   -4.1639 N   0  0  0  0  0  0  0  0  0  0  0  0
    5.2355    6.0098   -5.3306 C   0  0  0  0  0  0  0  0  0  0  0  0
    6.1572    5.4412   -5.7382 N   0  0  0  0  0  0  0  0  0  0  0  0
    4.9513    0.7869    7.0517 H   0  0  0  0  0  0  0  0  0  0  0  0
    5.6328   -5.2793    5.5808 H   0  0  0  0  0  0  0  0  0  0  0  0
    9.6002   -2.2668    6.6799 H   0  0  0  0  0  0  0  0  0  0  0  0
   10.5455   -5.5858    6.2566 H   0  0  0  0  0  0  0  0  0  0  0  0
   11.1548   -4.0629    4.0126 H   0  0  0  0  0  0  0  0  0  0  0  0
   12.1184   -6.4804    3.4757 H   0  0  0  0  0  0  0  0  0  0  0  0
   10.1126   -8.0646    2.9582 H   0  0  0  0  0  0  0  0  0  0  0  0
    7.8666   -6.6583    3.1534 H   0  0  0  0  0  0  0  0  0  0  0  0
    9.5353   -4.8917    2.0732 H   0  0  0  0  0  0  0  0  0  0  0  0
    8.5500   -4.0870    3.3580 H   0  0  0  0  0  0  0  0  0  0  0  0
    8.6864   -7.0219    5.7838 H   0  0  0  0  0  0  0  0  0  0  0  0
    4.1326    2.1329    1.9074 H   0  0  0  0  0  0  0  0  0  0  0  0
    3.4424    4.3536    1.1220 H   0  0  0  0  0  0  0  0  0  0  0  0
    2.7084    6.9082    2.6776 H   0  0  0  0  0  0  0  0  0  0  0  0
    0.9574    6.5214    2.9091 H   0  0  0  0  0  0  0  0  0  0  0  0
    1.7427    6.1971    1.3254 H   0  0  0  0  0  0  0  0  0  0  0  0
    1.2751    4.9790    4.7944 H   0  0  0  0  0  0  0  0  0  0  0  0
    1.9897    2.7799    5.5988 H   0  0  0  0  0  0  0  0  0  0  0  0
    5.7937    2.5067    4.5981 H   0  0  0  0  0  0  0  0  0  0  0  0
    8.1249    1.7771    4.3367 H   0  0  0  0  0  0  0  0  0  0  0  0
    9.6377   -0.3074    4.5048 H   0  0  0  0  0  0  0  0  0  0  0  0
    9.1252   -1.7920    3.6366 H   0  0  0  0  0  0  0  0  0  0  0  0
    9.4606   -0.2836    2.7042 H   0  0  0  0  0  0  0  0  0  0  0  0
    6.7637   -2.1648    3.2381 H   0  0  0  0  0  0  0  0  0  0  0  0
    4.4289   -1.4290    3.4968 H   0  0  0  0  0  0  0  0  0  0  0  0
   -2.0172   -2.6860    9.2338 H   0  0  0  0  0  0  0  0  0  0  0  0
   -2.3091   -1.5370   11.3728 H   0  0  0  0  0  0  0  0  0  0  0  0
   -2.5063    2.1252   11.7605 H   0  0  0  0  0  0  0  0  0  0  0  0
   -1.0229    1.2800   12.3540 H   0  0  0  0  0  0  0  0  0  0  0  0
   -2.6549    0.5443   12.6009 H   0  0  0  0  0  0  0  0  0  0  0  0
   -1.3445    2.2215    9.4982 H   0  0  0  0  0  0  0  0  0  0  0  0
   -1.0630    1.0875    7.3567 H   0  0  0  0  0  0  0  0  0  0  0  0
   -0.3635   -3.7856    5.7268 H   0  0  0  0  0  0  0  0  0  0  0  0
   -1.5649   -5.8507    5.1475 H   0  0  0  0  0  0  0  0  0  0  0  0
   -5.2965   -6.2601    5.4722 H   0  0  0  0  0  0  0  0  0  0  0  0
   -3.9835   -7.1805    6.3046 H   0  0  0  0  0  0  0  0  0  0  0  0
   -3.8576   -6.8047    4.5403 H   0  0  0  0  0  0  0  0  0  0  0  0
   -5.2186   -4.1568    6.6871 H   0  0  0  0  0  0  0  0  0  0  0  0
   -4.0203   -2.0873    7.2543 H   0  0  0  0  0  0  0  0  0  0  0  0
   -2.7611    1.9518    5.9702 H   0  0  0  0  0  0  0  0  0  0  0  0
   -1.8435    4.2470    6.0724 H   0  0  0  0  0  0  0  0  0  0  0  0
   -1.3254    5.4724    3.9967 H   0  0  0  0  0  0  0  0  0  0  0  0
   -2.5599    4.6878    0.7775 H   0  0  0  0  0  0  0  0  0  0  0  0
   -1.3193    5.6549    1.6318 H   0  0  0  0  0  0  0  0  0  0  0  0
   -0.2035    4.5723   -0.2081 H   0  0  0  0  0  0  0  0  0  0  0  0
    0.3187    3.6894    1.2768 H   0  0  0  0  0  0  0  0  0  0  0  0
   -0.9239    2.9674    0.1854 H   0  0  0  0  0  0  0  0  0  0  0  0
   -2.6914    2.1074    1.6727 H   0  0  0  0  0  0  0  0  0  0  0  0
   -4.3147    0.3992   -5.7604 H   0  0  0  0  0  0  0  0  0  0  0  0
   -4.9808    2.4805   -6.9025 H   0  0  0  0  0  0  0  0  0  0  0  0
   -6.7308    2.4464   -8.6322 H   0  0  0  0  0  0  0  0  0  0  0  0
   -9.0407   -0.2459   -9.0976 H   0  0  0  0  0  0  0  0  0  0  0  0
   -8.4999    1.3210   -9.7731 H   0  0  0  0  0  0  0  0  0  0  0  0
   -6.8562    0.0827  -11.2580 H   0  0  0  0  0  0  0  0  0  0  0  0
   -7.5247   -1.4788  -10.6352 H   0  0  0  0  0  0  0  0  0  0  0  0
   -8.5812   -0.3505  -11.5610 H   0  0  0  0  0  0  0  0  0  0  0  0
   -7.1227   -1.8206   -8.1520 H   0  0  0  0  0  0  0  0  0  0  0  0
   -4.2594   -4.2800    1.8558 H   0  0  0  0  0  0  0  0  0  0  0  0
   -5.6131   -4.8122    0.7911 H   0  0  0  0  0  0  0  0  0  0  0  0
   -7.2460   -4.4124    2.6381 H   0  0  0  0  0  0  0  0  0  0  0  0
   -6.0051   -5.6619    3.0329 H   0  0  0  0  0  0  0  0  0  0  0  0
   -5.8667   -4.0112    3.7398 H   0  0  0  0  0  0  0  0  0  0  0  0
   -3.7454   -3.2514   -2.1337 H   0  0  0  0  0  0  0  0  0  0  0  0
   -4.1069   -3.5719   -0.4897 H   0  0  0  0  0  0  0  0  0  0  0  0
   -4.7032   -5.9672   -0.9768 H   0  0  0  0  0  0  0  0  0  0  0  0
   -4.3768   -5.6850   -2.7175 H   0  0  0  0  0  0  0  0  0  0  0  0
   -3.0377   -5.5502   -1.5213 H   0  0  0  0  0  0  0  0  0  0  0  0
   -1.5343   -2.5844   -4.7333 H   0  0  0  0  0  0  0  0  0  0  0  0
   -0.8352   -0.4133   -2.9414 H   0  0  0  0  0  0  0  0  0  0  0  0
   -0.2237   -1.4344   -0.7729 H   0  0  0  0  0  0  0  0  0  0  0  0
    1.7602   -2.9023   -0.6014 H   0  0  0  0  0  0  0  0  0  0  0  0
    5.7602   -2.9799   -1.6554 H   0  0  0  0  0  0  0  0  0  0  0  0
    4.4339   -1.7946   -1.3981 H   0  0  0  0  0  0  0  0  0  0  0  0
    5.7240   -2.4511   -4.1397 H   0  0  0  0  0  0  0  0  0  0  0  0
    4.5063   -1.1548   -3.8035 H   0  0  0  0  0  0  0  0  0  0  0  0
    6.1561   -1.0396   -3.1020 H   0  0  0  0  0  0  0  0  0  0  0  0
    2.5106   -2.3890   -4.8056 H   0  0  0  0  0  0  0  0  0  0  0  0
    1.1817    1.0877   -9.9623 H   0  0  0  0  0  0  0  0  0  0  0  0
    0.5585    2.4136  -11.9496 H   0  0  0  0  0  0  0  0  0  0  0  0
   -1.6359    3.5467  -12.0534 H   0  0  0  0  0  0  0  0  0  0  0  0
   -4.0282    2.2114  -12.1356 H   0  0  0  0  0  0  0  0  0  0  0  0
   -4.8233    1.4958  -10.6778 H   0  0  0  0  0  0  0  0  0  0  0  0
   -6.4708    2.2219  -12.4409 H   0  0  0  0  0  0  0  0  0  0  0  0
   -5.8615    3.9133  -12.3046 H   0  0  0  0  0  0  0  0  0  0  0  0
   -6.6979    3.1352  -10.9012 H   0  0  0  0  0  0  0  0  0  0  0  0
   -2.6420    1.9758   -8.1811 H   0  0  0  0  0  0  0  0  0  0  0  0
    1.3125    3.0443   -7.8575 H   0  0  0  0  0  0  0  0  0  0  0  0
    3.9492    4.0668   -6.2688 H   0  0  0  0  0  0  0  0  0  0  0  0
   -1.3301    9.3577   -1.8616 H   0  0  0  0  0  0  0  0  0  0  0  0
   -3.2927    7.6240   -1.5803 H   0  0  0  0  0  0  0  0  0  0  0  0
  1  2  2  3
  2  3  1  0
  3  4  2  0
  3  5  1  0
  5  6  2  0
  6  7  1  0
  7  8  2  0
  8  9  1  0
  9 10  2  0
 10 11  1  0
 11 12  2  3
 12 13  1  0
 13 14  3  0
 12 15  1  0
 15 16  3  0
  8 17  1  0
 17 18  1  0
 18 19  1  0
 19 20  2  0
 20 21  1  0
 21 22  1  0
 21 23  1  0
  1 24  1  0
 24 25  2  0
 25 26  1  0
 26 27  1  0
 27 28  2  0
 28 29  1  0
 29 30  2  0
 30 31  1  0
 30 32  1  0
 32 33  2  0
 26 34  1  0
 34 35  2  0
 35 36  1  0
 36 37  2  0
 37 38  1  0
 37 39  1  0
 39 40  2  0
 25 41  1  0
 41 42  1  0
 42 43  1  0
 43 44  2  0
 44 45  1  0
 45 46  1  0
 46 47  2  0
 47 48  1  0
 48 49  2  0
 49 50  1  0
 49 51  1  0
 51 52  2  0
 45 53  1  0
 53 54  2  0
 54 55  1  0
 55 56  2  0
 56 57  1  0
 56 58  1  0
 58 59  2  0
 44 60  1  0
 60 61  1  0
 43 62  1  0
 62 63  2  0
 63 64  1  0
 64 65  2  0
 65 66  1  0
 66 67  2  0
 67 68  1  0
 68 69  1  0
 69 70  1  0
 68 71  2  0
 63 72  1  0
 72 73  1  0
 73 74  1  0
 74 75  1  0
 75 76  1  0
 76 77  1  0
 77 78  2  0
 78 79  1  0
 79 80  1  0
 77 81  1  0
 81 82  1  0
 82 83  1  0
 83 84  1  0
 84 85  1  0
 85 86  1  0
 86 87  2  0
 87 88  1  0
 88 89  2  0
 89 90  1  0
 90 91  1  0
 91 92  1  0
 90 93  2  0
 85 94  2  0
 94 95  1  0
 95 96  1  0
 96 97  1  0
 97 98  1  0
 98 99  1  0
 99100  1  0
100101  1  0
101102  1  0
102103  1  0
103104  1  0
101105  1  0
105106  1  0
 98107  1  0
107108  1  0
 94109  1  0
109110  2  0
110111  1  0
111112  2  0
112113  1  0
113114  2  0
114115  1  0
115116  2  0
116117  1  0
117118  1  0
118119  1  0
119120  1  0
117121  2  0
112122  1  0
122123  2  0
123124  1  0
124125  1  0
125126  2  0
126127  1  0
127128  2  0
128129  1  0
129130  1  0
130131  1  0
131132  1  0
129133  2  0
124134  2  0
134135  1  0
123136  1  0
136137  2  0
137138  1  0
137139  1  0
139140  2  3
140141  1  0
141142  2  0
141143  1  0
143144  2  0
144145  1  0
145146  1  0
146147  1  0
147148  2  0
148149  1  0
149150  1  0
144151  1  0
151152  2  3
152153  1  0
153154  3  0
152155  1  0
155156  3  0
 11  2  1  0
 23 17  1  0
 61 24  1  0
104 62  1  0
135109  1  0
151140  1  0
 10  5  1  0
 22 18  1  0
 33 27  1  0
 40 34  1  0
 60 41  2  0
 71 64  1  0
103 72  2  0
134111  1  0
150143  1  0
 23  7  1  0
 52 46  1  0
 59 53  1  0
102 74  2  0
121113  1  0
138122  1  0
150146  2  0
100 75  2  0
133125  1  0
 80 76  2  0
 99 81  2  0
 97 82  2  0
 96 84  2  0
 93 86  1  0
  1157  1  0
  6158  1  0
  9159  1  0
 17160  1  0
 18161  1  0
 19162  1  0
 20163  1  0
 21164  1  0
 22165  1  0
 22166  1  0
 23167  1  0
 28168  1  0
 29169  1  0
 31170  1  0
 31171  1  0
 31172  1  0
 32173  1  0
 33174  1  0
 35175  1  0
 36176  1  0
 38177  1  0
 38178  1  0
 38179  1  0
 39180  1  0
 40181  1  0
 47182  1  0
 48183  1  0
 50184  1  0
 50185  1  0
 50186  1  0
 51187  1  0
 52188  1  0
 54189  1  0
 55190  1  0
 57191  1  0
 57192  1  0
 57193  1  0
 58194  1  0
 59195  1  0
 65196  1  0
 66197  1  0
 67198  1  0
 69199  1  0
 69200  1  0
 70201  1  0
 70202  1  0
 70203  1  0
 71204  1  0
 87205  1  0
 88206  1  0
 89207  1  0
 91208  1  0
 91209  1  0
 92210  1  0
 92211  1  0
 92212  1  0
 93213  1  0
105214  1  0
105215  1  0
106216  1  0
106217  1  0
106218  1  0
107219  1  0
107220  1  0
108221  1  0
108222  1  0
108223  1  0
110224  1  0
114225  1  0
115226  1  0
116227  1  0
119228  1  0
119229  1  0
120230  1  0
120231  1  0
120232  1  0
121233  1  0
126234  1  0
127235  1  0
128236  1  0
131237  1  0
131238  1  0
132239  1  0
132240  1  0
132241  1  0
133242  1  0
136243  1  0
139244  1  0
147245  1  0
148246  1  0
M  END

