
     RDKit          3D

251281  0  0  0  0  0  0  0  0999 V2000
   -3.3381    0.9304   -3.3835 C   0  0  0  0  0  0  0  0  0  0  0  0
   -3.4167   -0.3906   -3.6396 C   0  0  0  0  0  0  0  0  0  0  0  0
   -3.6300   -1.4538   -2.6458 C   0  0  0  0  0  0  0  0  0  0  0  0
   -3.9531   -1.2998   -1.4371 O   0  0  0  0  0  0  0  0  0  0  0  0
   -3.3167   -2.7296   -3.2572 C   0  0  0  0  0  0  0  0  0  0  0  0
   -3.4077   -4.0097   -2.6577 C   0  0  0  0  0  0  0  0  0  0  0  0
   -3.0035   -5.0446   -3.4844 C   0  0  0  0  0  0  0  0  0  0  0  0
   -2.5046   -4.8334   -4.8098 C   0  0  0  0  0  0  0  0  0  0  0  0
   -2.4179   -3.5833   -5.3979 C   0  0  0  0  0  0  0  0  0  0  0  0
   -2.8890   -2.5099   -4.5878 C   0  0  0  0  0  0  0  0  0  0  0  0
   -3.0463   -1.0665   -4.9207 C   0  0  0  0  0  0  0  0  0  0  0  0
   -3.1394   -0.5306   -6.1666 C   0  0  0  0  0  0  0  0  0  0  0  0
   -2.9108   -1.2992   -7.3613 C   0  0  0  0  0  0  0  0  0  0  0  0
   -2.7328   -1.9072   -8.3310 N   0  0  0  0  0  0  0  0  0  0  0  0
   -3.6226    0.8051   -6.3947 C   0  0  0  0  0  0  0  0  0  0  0  0
   -4.0170    1.8780   -6.5890 N   0  0  0  0  0  0  0  0  0  0  0  0
   -2.2954   -6.3093   -4.9850 C   0  0  0  0  0  0  0  0  0  0  0  0
   -3.3042   -7.0413   -5.9190 C   0  0  0  0  0  0  0  0  0  0  0  0
   -3.1564   -8.5162   -5.6138 C   0  0  0  0  0  0  0  0  0  0  0  0
   -3.6721   -8.7030   -4.3926 C   0  0  0  0  0  0  0  0  0  0  0  0
   -4.1428   -7.3495   -3.9137 C   0  0  0  0  0  0  0  0  0  0  0  0
   -4.6412   -6.7946   -5.2375 C   0  0  0  0  0  0  0  0  0  0  0  0
   -2.8484   -6.5299   -3.6440 C   0  0  0  0  0  0  0  0  0  0  0  0
   -3.6843    1.5317   -2.0902 C   0  0  0  0  0  0  0  0  0  0  0  0
   -2.7773    2.1570   -1.2282 C   0  0  0  0  0  0  0  0  0  0  0  0
   -1.3725    2.3074   -1.4931 N   0  0  0  0  0  0  0  0  0  0  0  0
   -1.0065    3.2074   -2.5571 C   0  0  0  0  0  0  0  0  0  0  0  0
   -1.5502    4.5029   -2.5971 C   0  0  0  0  0  0  0  0  0  0  0  0
   -1.2307    5.3697   -3.6447 C   0  0  0  0  0  0  0  0  0  0  0  0
   -0.3704    4.9517   -4.6691 C   0  0  0  0  0  0  0  0  0  0  0  0
   -0.0173    5.8836   -5.7930 C   0  0  0  0  0  0  0  0  0  0  0  0
    0.1979    3.6666   -4.6158 C   0  0  0  0  0  0  0  0  0  0  0  0
   -0.1188    2.7992   -3.5644 C   0  0  0  0  0  0  0  0  0  0  0  0
   -0.3920    1.7904   -0.5561 C   0  0  0  0  0  0  0  0  0  0  0  0
   -0.7310    0.7432    0.3260 C   0  0  0  0  0  0  0  0  0  0  0  0
    0.1315    0.3652    1.3536 C   0  0  0  0  0  0  0  0  0  0  0  0
    1.4040    0.9432    1.4566 C   0  0  0  0  0  0  0  0  0  0  0  0
    2.3675    0.4869    2.5116 C   0  0  0  0  0  0  0  0  0  0  0  0
    1.7804    1.9405    0.5464 C   0  0  0  0  0  0  0  0  0  0  0  0
    0.8879    2.3745   -0.4396 C   0  0  0  0  0  0  0  0  0  0  0  0
   -3.3900    2.5173   -0.0349 C   0  0  0  0  0  0  0  0  0  0  0  0
   -2.8062    3.0459    1.4407 S   0  0  0  0  0  0  0  0  0  0  0  0
   -4.2917    2.8471    2.2454 C   0  0  0  0  0  0  0  0  0  0  0  0
   -5.2485    2.3687    1.3408 C   0  0  0  0  0  0  0  0  0  0  0  0
   -6.6309    2.1613    1.6553 N   0  0  0  0  0  0  0  0  0  0  0  0
   -7.0220    0.9703    2.3610 C   0  0  0  0  0  0  0  0  0  0  0  0
   -6.6611   -0.2950    1.8689 C   0  0  0  0  0  0  0  0  0  0  0  0
   -7.1681   -1.4500    2.4663 C   0  0  0  0  0  0  0  0  0  0  0  0
   -8.0287   -1.3604    3.5710 C   0  0  0  0  0  0  0  0  0  0  0  0
   -8.6666   -2.5958    4.1340 C   0  0  0  0  0  0  0  0  0  0  0  0
   -8.3679   -0.0941    4.0788 C   0  0  0  0  0  0  0  0  0  0  0  0
   -7.8600    1.0640    3.4833 C   0  0  0  0  0  0  0  0  0  0  0  0
   -7.6218    3.0933    1.1610 C   0  0  0  0  0  0  0  0  0  0  0  0
   -7.2938    4.4501    0.9578 C   0  0  0  0  0  0  0  0  0  0  0  0
   -8.2494    5.3446    0.4610 C   0  0  0  0  0  0  0  0  0  0  0  0
   -9.5436    4.8993    0.1504 C   0  0  0  0  0  0  0  0  0  0  0  0
  -10.5837    5.8565   -0.3576 C   0  0  0  0  0  0  0  0  0  0  0  0
   -9.8778    3.5556    0.3619 C   0  0  0  0  0  0  0  0  0  0  0  0
   -8.9269    2.6601    0.8607 C   0  0  0  0  0  0  0  0  0  0  0  0
   -4.7072    2.2091    0.0663 C   0  0  0  0  0  0  0  0  0  0  0  0
   -5.2282    1.4610   -1.3502 S   0  0  0  0  0  0  0  0  0  0  0  0
   -4.3289    2.6854    3.6981 C   0  0  0  0  0  0  0  0  0  0  0  0
   -4.0775    3.7263    4.6047 C   0  0  0  0  0  0  0  0  0  0  0  0
   -4.3467    5.1427    4.2914 C   0  0  0  0  0  0  0  0  0  0  0  0
   -5.6866    5.5608    4.3336 C   0  0  0  0  0  0  0  0  0  0  0  0
   -6.0466    6.8459    3.9281 C   0  0  0  0  0  0  0  0  0  0  0  0
   -5.0701    7.7299    3.4678 C   0  0  0  0  0  0  0  0  0  0  0  0
   -3.7335    7.3249    3.4093 C   0  0  0  0  0  0  0  0  0  0  0  0
   -3.3458    6.0355    3.8207 C   0  0  0  0  0  0  0  0  0  0  0  0
   -1.8915    5.6449    3.6849 C   0  0  0  0  0  0  0  0  0  0  0  0
   -1.0117    6.4022    4.6757 C   0  0  0  0  0  0  0  0  0  0  0  0
   -3.5159    3.2498    5.7963 C   0  0  0  0  0  0  0  0  0  0  0  0
   -2.6611    4.0191    7.0467 S   0  0  0  0  0  0  0  0  0  0  0  0
   -2.0416    2.5446    7.6241 C   0  0  0  0  0  0  0  0  0  0  0  0
   -0.8202    2.2121    8.1590 C   0  0  0  0  0  0  0  0  0  0  0  0
    0.2270    3.0520    8.5758 C   0  0  0  0  0  0  0  0  0  0  0  0
    1.5596    2.5271    8.6384 C   0  0  0  0  0  0  0  0  0  0  0  0
    2.5501    3.3931    8.9476 N   0  0  0  0  0  0  0  0  0  0  0  0
    1.6625    4.7811    9.1221 S   0  0  0  0  0  0  0  0  0  0  0  0
    0.0860    4.3754    8.8226 N   0  0  0  0  0  0  0  0  0  0  0  0
    1.7615    1.1709    8.3530 C   0  0  0  0  0  0  0  0  0  0  0  0
    2.9053    0.4270    8.1574 C   0  0  0  0  0  0  0  0  0  0  0  0
    4.4280    0.8393    7.5193 S   0  0  0  0  0  0  0  0  0  0  0  0
    4.5410   -0.6255    6.6531 C   0  0  0  0  0  0  0  0  0  0  0  0
    5.2645   -0.9356    5.4929 C   0  0  0  0  0  0  0  0  0  0  0  0
    6.6138   -0.4082    5.2055 C   0  0  0  0  0  0  0  0  0  0  0  0
    6.8511    0.8825    4.6598 C   0  0  0  0  0  0  0  0  0  0  0  0
    5.7360    1.8321    4.2877 C   0  0  0  0  0  0  0  0  0  0  0  0
    5.6564    2.0325    2.7732 C   0  0  0  0  0  0  0  0  0  0  0  0
    8.1807    1.2796    4.4177 C   0  0  0  0  0  0  0  0  0  0  0  0
    9.2459    0.4097    4.6638 C   0  0  0  0  0  0  0  0  0  0  0  0
    9.0044   -0.8635    5.1715 C   0  0  0  0  0  0  0  0  0  0  0  0
    7.7009   -1.2666    5.4516 C   0  0  0  0  0  0  0  0  0  0  0  0
    4.6088   -1.9202    4.7182 C   0  0  0  0  0  0  0  0  0  0  0  0
    3.1686   -2.3675    5.5100 S   0  0  0  0  0  0  0  0  0  0  0  0
    3.4021   -1.3730    6.8337 C   0  0  0  0  0  0  0  0  0  0  0  0
    2.4943   -0.8046    7.7110 C   0  0  0  0  0  0  0  0  0  0  0  0
    1.1499   -0.9074    7.6718 N   0  0  0  0  0  0  0  0  0  0  0  0
    0.7032    0.3362    7.9878 C   0  0  0  0  0  0  0  0  0  0  0  0
   -0.5808    0.8885    7.7576 C   0  0  0  0  0  0  0  0  0  0  0  0
   -1.5402    0.4571    6.8703 N   0  0  0  0  0  0  0  0  0  0  0  0
   -2.4369    1.4862    6.8470 C   0  0  0  0  0  0  0  0  0  0  0  0
   -3.2971    1.8983    5.8278 C   0  0  0  0  0  0  0  0  0  0  0  0
   -3.8057    1.2269    4.3817 S   0  0  0  0  0  0  0  0  0  0  0  0
   -1.3273   -0.4487    5.7245 C   0  0  0  0  0  0  0  0  0  0  0  0
   -2.3874   -1.5491    5.6613 C   0  0  0  0  0  0  0  0  0  0  0  0
    0.4095   -2.1614    7.8615 C   0  0  0  0  0  0  0  0  0  0  0  0
    0.8559   -2.8771    9.1385 C   0  0  0  0  0  0  0  0  0  0  0  0
    4.8744   -2.2471    3.2991 C   0  0  0  0  0  0  0  0  0  0  0  0
    3.9177   -2.7566    2.4170 C   0  0  0  0  0  0  0  0  0  0  0  0
    4.3029   -2.6893    1.0666 C   0  0  0  0  0  0  0  0  0  0  0  0
    3.5257   -3.0551   -0.0528 C   0  0  0  0  0  0  0  0  0  0  0  0
    2.1354   -3.5390    0.0729 C   0  0  0  0  0  0  0  0  0  0  0  0
    1.5964   -4.6592   -0.5462 C   0  0  0  0  0  0  0  0  0  0  0  0
    0.2251   -4.8240   -0.2986 C   0  0  0  0  0  0  0  0  0  0  0  0
   -0.5641   -5.9759   -0.8442 C   0  0  0  0  0  0  0  0  0  0  0  0
   -0.4024   -7.2154    0.0282 C   0  0  0  0  0  0  0  0  0  0  0  0
   -0.3082   -3.8325    0.5206 C   0  0  0  0  0  0  0  0  0  0  0  0
   -1.9705   -3.6812    1.0695 Cl  0  0  0  0  0  0  0  0  0  0  0  0
    0.9129   -2.7587    0.9192 S   0  0  0  0  0  0  0  0  0  0  0  0
    4.1134   -2.8720   -1.3231 C   0  0  0  0  0  0  0  0  0  0  0  0
    5.4099   -2.3711   -1.4852 C   0  0  0  0  0  0  0  0  0  0  0  0
    6.1900   -2.0230   -0.3649 C   0  0  0  0  0  0  0  0  0  0  0  0
    7.5897   -1.5843   -0.4993 C   0  0  0  0  0  0  0  0  0  0  0  0
    8.5878   -2.3165   -1.1185 C   0  0  0  0  0  0  0  0  0  0  0  0
    9.8637   -1.7445   -0.9989 C   0  0  0  0  0  0  0  0  0  0  0  0
   11.1059   -2.4217   -1.5056 C   0  0  0  0  0  0  0  0  0  0  0  0
   11.3708   -3.7204   -0.7485 C   0  0  0  0  0  0  0  0  0  0  0  0
    9.8524   -0.5428   -0.2891 C   0  0  0  0  0  0  0  0  0  0  0  0
    8.2730   -0.2051    0.1829 S   0  0  0  0  0  0  0  0  0  0  0  0
   11.2398    0.4631    0.1012 Cl  0  0  0  0  0  0  0  0  0  0  0  0
    5.5945   -2.1785    0.8964 C   0  0  0  0  0  0  0  0  0  0  0  0
    6.2309   -1.7904    2.4025 S   0  0  0  0  0  0  0  0  0  0  0  0
    5.7825   -2.2209   -2.8299 C   0  0  0  0  0  0  0  0  0  0  0  0
    4.7636   -2.5593   -3.7137 C   0  0  0  0  0  0  0  0  0  0  0  0
    3.4213   -3.1099   -2.8461 S   0  0  0  0  0  0  0  0  0  0  0  0
    4.9131   -2.5526   -5.1736 C   0  0  0  0  0  0  0  0  0  0  0  0
    4.2606   -1.7093   -6.0011 C   0  0  0  0  0  0  0  0  0  0  0  0
    3.1519   -0.8279   -5.6151 C   0  0  0  0  0  0  0  0  0  0  0  0
    2.7542   -0.5844   -4.4457 O   0  0  0  0  0  0  0  0  0  0  0  0
    2.5765   -0.2517   -6.8089 C   0  0  0  0  0  0  0  0  0  0  0  0
    1.4923    0.6528   -6.8723 C   0  0  0  0  0  0  0  0  0  0  0  0
    1.2202    1.1238   -8.1403 C   0  0  0  0  0  0  0  0  0  0  0  0
    1.9628    0.7155   -9.2939 C   0  0  0  0  0  0  0  0  0  0  0  0
    3.0136   -0.1817   -9.2470 C   0  0  0  0  0  0  0  0  0  0  0  0
    3.3165   -0.6772   -7.9437 C   0  0  0  0  0  0  0  0  0  0  0  0
    4.4324   -1.5700   -7.4889 C   0  0  0  0  0  0  0  0  0  0  0  0
    5.4701   -2.0203   -8.2452 C   0  0  0  0  0  0  0  0  0  0  0  0
    6.6728   -2.5683   -7.6724 C   0  0  0  0  0  0  0  0  0  0  0  0
    7.6460   -3.0087   -7.2308 N   0  0  0  0  0  0  0  0  0  0  0  0
    5.4993   -1.9244   -9.6812 C   0  0  0  0  0  0  0  0  0  0  0  0
    5.5450   -1.8734  -10.8384 N   0  0  0  0  0  0  0  0  0  0  0  0
    1.1362    1.6129  -10.1653 C   0  0  0  0  0  0  0  0  0  0  0  0
    0.0732    0.9195  -11.0631 C   0  0  0  0  0  0  0  0  0  0  0  0
   -0.8600    2.0132  -11.5188 C   0  0  0  0  0  0  0  0  0  0  0  0
   -1.5567    2.3947  -10.4412 C   0  0  0  0  0  0  0  0  0  0  0  0
   -1.0710    1.5401   -9.2981 C   0  0  0  0  0  0  0  0  0  0  0  0
   -0.8412    0.2443  -10.0577 C   0  0  0  0  0  0  0  0  0  0  0  0
    0.3731    2.0255   -8.9860 C   0  0  0  0  0  0  0  0  0  0  0  0
   -2.9083    1.5942   -4.1159 H   0  0  0  0  0  0  0  0  0  0  0  0
   -3.7536   -4.1667   -1.6468 H   0  0  0  0  0  0  0  0  0  0  0  0
   -2.0177   -3.4757   -6.3880 H   0  0  0  0  0  0  0  0  0  0  0  0
   -1.2236   -6.6039   -5.0973 H   0  0  0  0  0  0  0  0  0  0  0  0
   -3.2519   -6.7725   -6.9979 H   0  0  0  0  0  0  0  0  0  0  0  0
   -2.8005   -9.2969   -6.2781 H   0  0  0  0  0  0  0  0  0  0  0  0
   -3.8107   -9.6561   -3.8940 H   0  0  0  0  0  0  0  0  0  0  0  0
   -4.8858   -7.3728   -3.0865 H   0  0  0  0  0  0  0  0  0  0  0  0
   -4.9449   -5.7277   -5.1971 H   0  0  0  0  0  0  0  0  0  0  0  0
   -5.4811   -7.3893   -5.6791 H   0  0  0  0  0  0  0  0  0  0  0  0
   -2.1443   -7.0015   -2.9278 H   0  0  0  0  0  0  0  0  0  0  0  0
   -2.2214    4.8357   -1.8180 H   0  0  0  0  0  0  0  0  0  0  0  0
   -1.6574    6.3650   -3.6532 H   0  0  0  0  0  0  0  0  0  0  0  0
    0.9876    6.3178   -5.6093 H   0  0  0  0  0  0  0  0  0  0  0  0
   -0.0109    5.3316   -6.7548 H   0  0  0  0  0  0  0  0  0  0  0  0
   -0.7600    6.7074   -5.8724 H   0  0  0  0  0  0  0  0  0  0  0  0
    0.8801    3.3462   -5.3912 H   0  0  0  0  0  0  0  0  0  0  0  0
    0.3114    1.8059   -3.5451 H   0  0  0  0  0  0  0  0  0  0  0  0
   -1.6899    0.2454    0.2537 H   0  0  0  0  0  0  0  0  0  0  0  0
   -0.1914   -0.3888    2.0582 H   0  0  0  0  0  0  0  0  0  0  0  0
    3.2595    0.0479    2.0237 H   0  0  0  0  0  0  0  0  0  0  0  0
    2.6728    1.3489    3.1369 H   0  0  0  0  0  0  0  0  0  0  0  0
    1.9140   -0.2866    3.1708 H   0  0  0  0  0  0  0  0  0  0  0  0
    2.7601    2.3998    0.6156 H   0  0  0  0  0  0  0  0  0  0  0  0
    1.1915    3.1862   -1.0855 H   0  0  0  0  0  0  0  0  0  0  0  0
   -6.0280   -0.3818    0.9956 H   0  0  0  0  0  0  0  0  0  0  0  0
   -6.9126   -2.4156    2.0472 H   0  0  0  0  0  0  0  0  0  0  0  0
   -9.6456   -2.7563    3.6370 H   0  0  0  0  0  0  0  0  0  0  0  0
   -8.0247   -3.4858    3.9629 H   0  0  0  0  0  0  0  0  0  0  0  0
   -8.8265   -2.4874    5.2281 H   0  0  0  0  0  0  0  0  0  0  0  0
   -9.0550   -0.0060    4.9121 H   0  0  0  0  0  0  0  0  0  0  0  0
   -8.1576    2.0328    3.8606 H   0  0  0  0  0  0  0  0  0  0  0  0
   -6.3032    4.8199    1.1701 H   0  0  0  0  0  0  0  0  0  0  0  0
   -7.9759    6.3794    0.3137 H   0  0  0  0  0  0  0  0  0  0  0  0
  -11.3372    6.0426    0.4380 H   0  0  0  0  0  0  0  0  0  0  0  0
  -11.0936    5.4226   -1.2435 H   0  0  0  0  0  0  0  0  0  0  0  0
  -10.1293    6.8270   -0.6541 H   0  0  0  0  0  0  0  0  0  0  0  0
  -10.8792    3.2016    0.1505 H   0  0  0  0  0  0  0  0  0  0  0  0
   -9.2141    1.6272    0.9998 H   0  0  0  0  0  0  0  0  0  0  0  0
   -6.4624    4.8745    4.6570 H   0  0  0  0  0  0  0  0  0  0  0  0
   -7.0846    7.1508    3.9607 H   0  0  0  0  0  0  0  0  0  0  0  0
   -5.3532    8.7190    3.1379 H   0  0  0  0  0  0  0  0  0  0  0  0
   -2.9974    8.0207    3.0265 H   0  0  0  0  0  0  0  0  0  0  0  0
   -1.5527    5.8820    2.6519 H   0  0  0  0  0  0  0  0  0  0  0  0
   -1.7359    4.5557    3.8313 H   0  0  0  0  0  0  0  0  0  0  0  0
   -1.2435    6.0947    5.7145 H   0  0  0  0  0  0  0  0  0  0  0  0
    0.0551    6.1832    4.4704 H   0  0  0  0  0  0  0  0  0  0  0  0
   -1.1685    7.4982    4.5827 H   0  0  0  0  0  0  0  0  0  0  0  0
    5.9227    2.8193    4.7700 H   0  0  0  0  0  0  0  0  0  0  0  0
    4.7479    1.4722    4.6446 H   0  0  0  0  0  0  0  0  0  0  0  0
    5.4390    1.0659    2.2634 H   0  0  0  0  0  0  0  0  0  0  0  0
    6.6157    2.4390    2.3777 H   0  0  0  0  0  0  0  0  0  0  0  0
    4.8511    2.7557    2.5408 H   0  0  0  0  0  0  0  0  0  0  0  0
    8.3926    2.2614    4.0144 H   0  0  0  0  0  0  0  0  0  0  0  0
   10.2606    0.7206    4.4428 H   0  0  0  0  0  0  0  0  0  0  0  0
    9.8276   -1.5427    5.3466 H   0  0  0  0  0  0  0  0  0  0  0  0
    7.5285   -2.2618    5.8499 H   0  0  0  0  0  0  0  0  0  0  0  0
   -1.3399    0.1348    4.7792 H   0  0  0  0  0  0  0  0  0  0  0  0
   -0.3230   -0.9080    5.7177 H   0  0  0  0  0  0  0  0  0  0  0  0
   -2.4225   -1.9703    4.6336 H   0  0  0  0  0  0  0  0  0  0  0  0
   -3.3879   -1.1552    5.9209 H   0  0  0  0  0  0  0  0  0  0  0  0
   -2.1462   -2.3741    6.3606 H   0  0  0  0  0  0  0  0  0  0  0  0
   -0.6701   -1.9519    7.9742 H   0  0  0  0  0  0  0  0  0  0  0  0
    0.5637   -2.8282    6.9876 H   0  0  0  0  0  0  0  0  0  0  0  0
    0.2082   -3.7592    9.3143 H   0  0  0  0  0  0  0  0  0  0  0  0
    0.7694   -2.1905   10.0074 H   0  0  0  0  0  0  0  0  0  0  0  0
    1.9072   -3.2206    9.0441 H   0  0  0  0  0  0  0  0  0  0  0  0
    2.9509   -3.1036    2.7496 H   0  0  0  0  0  0  0  0  0  0  0  0
    2.1763   -5.3395   -1.1574 H   0  0  0  0  0  0  0  0  0  0  0  0
   -0.2166   -6.1974   -1.8741 H   0  0  0  0  0  0  0  0  0  0  0  0
   -1.6410   -5.7030   -0.8926 H   0  0  0  0  0  0  0  0  0  0  0  0
   -0.7382   -7.0067    1.0656 H   0  0  0  0  0  0  0  0  0  0  0  0
   -1.0204   -8.0377   -0.3909 H   0  0  0  0  0  0  0  0  0  0  0  0
    0.6599   -7.5400    0.0395 H   0  0  0  0  0  0  0  0  0  0  0  0
    8.4079   -3.2708   -1.5961 H   0  0  0  0  0  0  0  0  0  0  0  0
   11.9936   -1.7587   -1.4059 H   0  0  0  0  0  0  0  0  0  0  0  0
   10.9784   -2.6481   -2.5866 H   0  0  0  0  0  0  0  0  0  0  0  0
   12.3397   -4.1503   -1.0765 H   0  0  0  0  0  0  0  0  0  0  0  0
   10.5660   -4.4616   -0.9520 H   0  0  0  0  0  0  0  0  0  0  0  0
   11.4217   -3.5254    0.3461 H   0  0  0  0  0  0  0  0  0  0  0  0
    6.7462   -1.8480   -3.1568 H   0  0  0  0  0  0  0  0  0  0  0  0
    5.6510   -3.2366   -5.5508 H   0  0  0  0  0  0  0  0  0  0  0  0
    0.9317    0.9708   -6.0033 H   0  0  0  0  0  0  0  0  0  0  0  0
    3.5386   -0.4343  -10.1475 H   0  0  0  0  0  0  0  0  0  0  0  0
    1.7175    2.4286  -10.6496 H   0  0  0  0  0  0  0  0  0  0  0  0
    0.4692    0.2678  -11.8716 H   0  0  0  0  0  0  0  0  0  0  0  0
   -1.0161    2.3583  -12.5365 H   0  0  0  0  0  0  0  0  0  0  0  0
   -2.3758    3.1024  -10.4331 H   0  0  0  0  0  0  0  0  0  0  0  0
   -1.7539    1.4801   -8.4285 H   0  0  0  0  0  0  0  0  0  0  0  0
   -1.7704   -0.1749  -10.5127 H   0  0  0  0  0  0  0  0  0  0  0  0
   -0.3495   -0.5503   -9.4587 H   0  0  0  0  0  0  0  0  0  0  0  0
    0.4754    3.1011   -8.7211 H   0  0  0  0  0  0  0  0  0  0  0  0
  1  2  2  3
  2  3  1  0
  3  4  2  0
  3  5  1  0
  5  6  2  0
  6  7  1  0
  7  8  2  0
  8  9  1  0
  9 10  2  0
 10 11  1  0
 11 12  2  3
 12 13  1  0
 13 14  3  0
 12 15  1  0
 15 16  3  0
  8 17  1  0
 17 18  1  0
 18 19  1  0
 19 20  2  0
 20 21  1  0
 21 22  1  0
 21 23  1  0
  1 24  1  0
 24 25  2  0
 25 26  1  0
 26 27  1  0
 27 28  2  0
 28 29  1  0
 29 30  2  0
 30 31  1  0
 30 32  1  0
 32 33  2  0
 26 34  1  0
 34 35  2  0
 35 36  1  0
 36 37  2  0
 37 38  1  0
 37 39  1  0
 39 40  2  0
 25 41  1  0
 41 42  1  0
 42 43  1  0
 43 44  2  0
 44 45  1  0
 45 46  1  0
 46 47  2  0
 47 48  1  0
 48 49  2  0
 49 50  1  0
 49 51  1  0
 51 52  2  0
 45 53  1  0
 53 54  2  0
 54 55  1  0
 55 56  2  0
 56 57  1  0
 56 58  1  0
 58 59  2  0
 44 60  1  0
 60 61  1  0
 43 62  1  0
 62 63  2  0
 63 64  1  0
 64 65  2  0
 65 66  1  0
 66 67  2  0
 67 68  1  0
 68 69  2  0
 69 70  1  0
 70 71  1  0
 63 72  1  0
 72 73  1  0
 73 74  1  0
 74 75  1  0
 75 76  1  0
 76 77  1  0
 77 78  2  0
 78 79  1  0
 79 80  1  0
 77 81  1  0
 81 82  1  0
 82 83  1  0
 83 84  1  0
 84 85  1  0
 85 86  1  0
 86 87  2  0
 87 88  1  0
 88 89  1  0
 87 90  1  0
 90 91  2  0
 91 92  1  0
 92 93  2  0
 85 94  2  0
 94 95  1  0
 95 96  1  0
 96 97  1  0
 97 98  1  0
 98 99  1  0
 99100  1  0
100101  1  0
101102  1  0
102103  1  0
103104  1  0
101105  1  0
105106  1  0
 98107  1  0
107108  1  0
 94109  1  0
109110  2  0
110111  1  0
111112  2  0
112113  1  0
113114  2  0
114115  1  0
115116  1  0
116117  1  0
115118  2  0
118119  1  0
118120  1  0
112121  1  0
121122  2  0
122123  1  0
123124  1  0
124125  2  0
125126  1  0
126127  1  0
127128  1  0
126129  2  0
129130  1  0
129131  1  0
123132  2  0
132133  1  0
122134  1  0
134135  2  0
135136  1  0
135137  1  0
137138  2  3
138139  1  0
139140  2  0
139141  1  0
141142  2  0
142143  1  0
143144  2  0
144145  1  0
145146  2  0
146147  1  0
147148  2  3
148149  1  0
149150  3  0
148151  1  0
151152  3  0
144153  1  0
153154  1  0
154155  1  0
155156  2  0
156157  1  0
157158  1  0
157159  1  0
 11  2  1  0
 23 17  1  0
 61 24  1  0
104 62  1  0
133109  1  0
147138  1  0
159153  1  0
 10  5  1  0
 22 18  1  0
 33 27  1  0
 40 34  1  0
 60 41  2  0
 69 64  1  0
103 72  2  0
132111  1  0
146141  1  0
158154  1  0
 23  7  1  0
 52 46  1  0
 59 53  1  0
102 74  2  0
120113  1  0
136121  1  0
159143  1  0
100 75  2  0
130124  1  0
 80 76  2  0
 99 81  2  0
 97 82  2  0
 96 84  2  0
 93 86  1  0
  1160  1  0
  6161  1  0
  9162  1  0
 17163  1  0
 18164  1  0
 19165  1  0
 20166  1  0
 21167  1  0
 22168  1  0
 22169  1  0
 23170  1  0
 28171  1  0
 29172  1  0
 31173  1  0
 31174  1  0
 31175  1  0
 32176  1  0
 33177  1  0
 35178  1  0
 36179  1  0
 38180  1  0
 38181  1  0
 38182  1  0
 39183  1  0
 40184  1  0
 47185  1  0
 48186  1  0
 50187  1  0
 50188  1  0
 50189  1  0
 51190  1  0
 52191  1  0
 54192  1  0
 55193  1  0
 57194  1  0
 57195  1  0
 57196  1  0
 58197  1  0
 59198  1  0
 65199  1  0
 66200  1  0
 67201  1  0
 68202  1  0
 70203  1  0
 70204  1  0
 71205  1  0
 71206  1  0
 71207  1  0
 88208  1  0
 88209  1  0
 89210  1  0
 89211  1  0
 89212  1  0
 90213  1  0
 91214  1  0
 92215  1  0
 93216  1  0
105217  1  0
105218  1  0
106219  1  0
106220  1  0
106221  1  0
107222  1  0
107223  1  0
108224  1  0
108225  1  0
108226  1  0
110227  1  0
114228  1  0
116229  1  0
116230  1  0
117231  1  0
117232  1  0
117233  1  0
125234  1  0
127235  1  0
127236  1  0
128237  1  0
128238  1  0
128239  1  0
134240  1  0
137241  1  0
142242  1  0
145243  1  0
153244  1  0
154245  1  0
155246  1  0
156247  1  0
157248  1  0
158249  1  0
158250  1  0
159251  1  0
M  END

