
     RDKit          3D

230256  0  0  0  0  0  0  0  0999 V2000
    3.8816   -3.4585    0.5769 C   0  0  0  0  0  0  0  0  0  0  0  0
    4.3212   -3.3896    1.8488 C   0  0  0  0  0  0  0  0  0  0  0  0
    3.9428   -4.3138    2.9261 C   0  0  0  0  0  0  0  0  0  0  0  0
    2.9178   -5.0450    2.9643 O   0  0  0  0  0  0  0  0  0  0  0  0
    4.9365   -4.2347    3.9693 C   0  0  0  0  0  0  0  0  0  0  0  0
    5.0321   -5.0621    5.1097 C   0  0  0  0  0  0  0  0  0  0  0  0
    6.1456   -4.8085    5.8844 C   0  0  0  0  0  0  0  0  0  0  0  0
    7.1163   -3.8074    5.5638 C   0  0  0  0  0  0  0  0  0  0  0  0
    7.0308   -2.9957    4.4442 C   0  0  0  0  0  0  0  0  0  0  0  0
    5.8752   -3.2238    3.6419 C   0  0  0  0  0  0  0  0  0  0  0  0
    5.4561   -2.5669    2.3696 C   0  0  0  0  0  0  0  0  0  0  0  0
    5.8309   -1.3377    1.9298 C   0  0  0  0  0  0  0  0  0  0  0  0
    6.7893   -0.5235    2.6332 C   0  0  0  0  0  0  0  0  0  0  0  0
    7.5437    0.1469    3.1949 N   0  0  0  0  0  0  0  0  0  0  0  0
    5.1807   -0.6920    0.8194 C   0  0  0  0  0  0  0  0  0  0  0  0
    4.6635   -0.1730   -0.0763 N   0  0  0  0  0  0  0  0  0  0  0  0
    7.9036   -4.1570    6.7915 C   0  0  0  0  0  0  0  0  0  0  0  0
    7.8306   -3.1814    8.0023 C   0  0  0  0  0  0  0  0  0  0  0  0
    6.4919   -2.4833    8.0251 C   0  0  0  0  0  0  0  0  0  0  0  0
    5.5810   -3.4115    8.3206 C   0  0  0  0  0  0  0  0  0  0  0  0
    6.3339   -4.7134    8.4911 C   0  0  0  0  0  0  0  0  0  0  0  0
    7.6003   -4.1720    9.1293 C   0  0  0  0  0  0  0  0  0  0  0  0
    6.9083   -5.1814    7.1197 C   0  0  0  0  0  0  0  0  0  0  0  0
    2.8407   -4.4085    0.1628 C   0  0  0  0  0  0  0  0  0  0  0  0
    2.9587   -5.8063    0.1305 C   0  0  0  0  0  0  0  0  0  0  0  0
    4.1772   -6.5046    0.0850 O   0  0  0  0  0  0  0  0  0  0  0  0
    5.3803   -6.0265   -0.5152 C   0  0  0  0  0  0  0  0  0  0  0  0
    6.5104   -6.0435    0.5013 C   0  0  0  0  0  0  0  0  0  0  0  0
    1.7096   -6.4639    0.2169 C   0  0  0  0  0  0  0  0  0  0  0  0
    1.4981   -7.8450    0.3595 O   0  0  0  0  0  0  0  0  0  0  0  0
    2.5022   -8.8357    0.5722 C   0  0  0  0  0  0  0  0  0  0  0  0
    3.0458   -9.3450   -0.7615 C   0  0  0  0  0  0  0  0  0  0  0  0
    0.6368   -5.5817    0.2197 C   0  0  0  0  0  0  0  0  0  0  0  0
    1.2175   -4.0078    0.2394 S   0  0  0  0  0  0  0  0  0  0  0  0
   -0.7603   -5.9375    0.4811 C   0  0  0  0  0  0  0  0  0  0  0  0
   -1.6760   -6.4161   -0.4729 C   0  0  0  0  0  0  0  0  0  0  0  0
   -1.3515   -6.5556   -1.9082 C   0  0  0  0  0  0  0  0  0  0  0  0
   -1.9170   -5.6734   -2.8426 C   0  0  0  0  0  0  0  0  0  0  0  0
   -1.5608   -5.7499   -4.1891 C   0  0  0  0  0  0  0  0  0  0  0  0
   -0.6319   -6.7007   -4.6155 C   0  0  0  0  0  0  0  0  0  0  0  0
   -0.0437   -7.5781   -3.6929 C   0  0  0  0  0  0  0  0  0  0  0  0
    0.9799   -8.5835   -4.1479 C   0  0  0  0  0  0  0  0  0  0  0  0
    0.4038   -9.9959   -4.1453 C   0  0  0  0  0  0  0  0  0  0  0  0
   -0.4196   -7.5101   -2.3420 C   0  0  0  0  0  0  0  0  0  0  0  0
   -2.9827   -6.3682    0.0318 C   0  0  0  0  0  0  0  0  0  0  0  0
   -4.4884   -6.3547   -0.7556 S   0  0  0  0  0  0  0  0  0  0  0  0
   -5.2642   -5.6719    0.5907 C   0  0  0  0  0  0  0  0  0  0  0  0
   -6.2161   -4.6858    0.6429 C   0  0  0  0  0  0  0  0  0  0  0  0
   -7.2805   -4.3952   -0.2098 C   0  0  0  0  0  0  0  0  0  0  0  0
   -7.9851   -3.1714   -0.0303 C   0  0  0  0  0  0  0  0  0  0  0  0
   -8.9936   -2.9194   -0.9015 N   0  0  0  0  0  0  0  0  0  0  0  0
   -8.9229   -4.2869   -1.8304 S   0  0  0  0  0  0  0  0  0  0  0  0
   -7.6842   -5.1985   -1.2235 N   0  0  0  0  0  0  0  0  0  0  0  0
   -7.5329   -2.2567    0.9372 C   0  0  0  0  0  0  0  0  0  0  0  0
   -7.7112   -0.9012    0.9540 C   0  0  0  0  0  0  0  0  0  0  0  0
   -8.2718    0.1379   -0.2621 S   0  0  0  0  0  0  0  0  0  0  0  0
   -7.1670    1.3483    0.1600 C   0  0  0  0  0  0  0  0  0  0  0  0
   -6.6815    2.4388   -0.5726 C   0  0  0  0  0  0  0  0  0  0  0  0
   -7.1616    2.7647   -1.9251 C   0  0  0  0  0  0  0  0  0  0  0  0
   -7.7303    4.0153   -2.2022 C   0  0  0  0  0  0  0  0  0  0  0  0
   -8.1201    4.3301   -3.5078 C   0  0  0  0  0  0  0  0  0  0  0  0
   -7.9157    3.4127   -4.5441 C   0  0  0  0  0  0  0  0  0  0  0  0
   -7.3219    2.1702   -4.2815 C   0  0  0  0  0  0  0  0  0  0  0  0
   -7.0615    1.1890   -5.3939 C   0  0  0  0  0  0  0  0  0  0  0  0
   -8.1260    0.0983   -5.4209 C   0  0  0  0  0  0  0  0  0  0  0  0
   -6.9681    1.8428   -2.9649 C   0  0  0  0  0  0  0  0  0  0  0  0
   -5.4786    2.9285   -0.0279 C   0  0  0  0  0  0  0  0  0  0  0  0
   -5.0433    1.9475    1.2906 S   0  0  0  0  0  0  0  0  0  0  0  0
   -6.3771    0.9407    1.2051 C   0  0  0  0  0  0  0  0  0  0  0  0
   -6.6515   -0.3656    1.6391 C   0  0  0  0  0  0  0  0  0  0  0  0
   -5.8007   -1.3282    2.1041 N   0  0  0  0  0  0  0  0  0  0  0  0
   -6.3901   -2.5109    1.7181 C   0  0  0  0  0  0  0  0  0  0  0  0
   -5.8144   -3.8107    1.6554 C   0  0  0  0  0  0  0  0  0  0  0  0
   -4.7210   -4.3017    2.3051 N   0  0  0  0  0  0  0  0  0  0  0  0
   -4.3780   -5.4090    1.6053 C   0  0  0  0  0  0  0  0  0  0  0  0
   -3.0947   -5.8412    1.2973 C   0  0  0  0  0  0  0  0  0  0  0  0
   -1.5911   -5.3782    1.8533 S   0  0  0  0  0  0  0  0  0  0  0  0
   -4.3591   -4.0687    3.7123 C   0  0  0  0  0  0  0  0  0  0  0  0
   -4.8063   -5.2303    4.5912 C   0  0  0  0  0  0  0  0  0  0  0  0
   -4.3664   -1.0889    2.3539 C   0  0  0  0  0  0  0  0  0  0  0  0
   -4.1449   -0.3666    3.6824 C   0  0  0  0  0  0  0  0  0  0  0  0
   -4.4837    3.7711   -0.7162 C   0  0  0  0  0  0  0  0  0  0  0  0
   -3.4379    4.4768   -0.0883 C   0  0  0  0  0  0  0  0  0  0  0  0
   -3.3654    4.7372    1.3281 N   0  0  0  0  0  0  0  0  0  0  0  0
   -2.1210    4.5176    2.0215 C   0  0  0  0  0  0  0  0  0  0  0  0
   -1.6151    5.4923    2.8955 C   0  0  0  0  0  0  0  0  0  0  0  0
   -0.3750    5.3119    3.5120 C   0  0  0  0  0  0  0  0  0  0  0  0
    0.3815    4.1596    3.2560 C   0  0  0  0  0  0  0  0  0  0  0  0
    1.7069    3.9614    3.9267 C   0  0  0  0  0  0  0  0  0  0  0  0
   -0.1382    3.1670    2.4120 C   0  0  0  0  0  0  0  0  0  0  0  0
   -1.3799    3.3458    1.7968 C   0  0  0  0  0  0  0  0  0  0  0  0
   -4.5259    5.2325    2.0340 C   0  0  0  0  0  0  0  0  0  0  0  0
   -4.7958    4.8079    3.3476 C   0  0  0  0  0  0  0  0  0  0  0  0
   -5.9373    5.2584    4.0170 C   0  0  0  0  0  0  0  0  0  0  0  0
   -6.8195    6.1507    3.3908 C   0  0  0  0  0  0  0  0  0  0  0  0
   -8.0671    6.6009    4.0893 C   0  0  0  0  0  0  0  0  0  0  0  0
   -6.5640    6.5626    2.0754 C   0  0  0  0  0  0  0  0  0  0  0  0
   -5.4256    6.1116    1.4033 C   0  0  0  0  0  0  0  0  0  0  0  0
   -2.4418    4.8281   -1.0051 C   0  0  0  0  0  0  0  0  0  0  0  0
   -0.9009    5.4919   -0.8902 S   0  0  0  0  0  0  0  0  0  0  0  0
   -0.5161    5.2055   -2.5307 C   0  0  0  0  0  0  0  0  0  0  0  0
   -1.6254    4.6405   -3.1679 C   0  0  0  0  0  0  0  0  0  0  0  0
   -1.6502    4.2346   -4.5437 N   0  0  0  0  0  0  0  0  0  0  0  0
   -2.6677    4.7805   -5.4080 C   0  0  0  0  0  0  0  0  0  0  0  0
   -3.3437    3.9604   -6.3238 C   0  0  0  0  0  0  0  0  0  0  0  0
   -4.3398    4.4927   -7.1473 C   0  0  0  0  0  0  0  0  0  0  0  0
   -4.6828    5.8499   -7.0564 C   0  0  0  0  0  0  0  0  0  0  0  0
   -5.7234    6.4318   -7.9690 C   0  0  0  0  0  0  0  0  0  0  0  0
   -4.0028    6.6739   -6.1468 C   0  0  0  0  0  0  0  0  0  0  0  0
   -3.0090    6.1417   -5.3255 C   0  0  0  0  0  0  0  0  0  0  0  0
   -0.6524    3.3111   -5.0333 C   0  0  0  0  0  0  0  0  0  0  0  0
   -0.1726    2.2781   -4.2072 C   0  0  0  0  0  0  0  0  0  0  0  0
    0.8310    1.4171   -4.6562 C   0  0  0  0  0  0  0  0  0  0  0  0
    1.3659    1.5658   -5.9428 C   0  0  0  0  0  0  0  0  0  0  0  0
    2.4696    0.6596   -6.4008 C   0  0  0  0  0  0  0  0  0  0  0  0
    0.9022    2.6028   -6.7671 C   0  0  0  0  0  0  0  0  0  0  0  0
   -0.1019    3.4663   -6.3169 C   0  0  0  0  0  0  0  0  0  0  0  0
   -2.6733    4.4391   -2.2829 C   0  0  0  0  0  0  0  0  0  0  0  0
   -4.1177    3.6057   -2.3759 S   0  0  0  0  0  0  0  0  0  0  0  0
    0.7180    5.6163   -3.2170 C   0  0  0  0  0  0  0  0  0  0  0  0
    1.9613    5.3530   -2.7774 C   0  0  0  0  0  0  0  0  0  0  0  0
    2.3057    4.3616   -1.7476 C   0  0  0  0  0  0  0  0  0  0  0  0
    1.5016    3.7055   -1.0382 O   0  0  0  0  0  0  0  0  0  0  0  0
    3.7371    4.1427   -1.7736 C   0  0  0  0  0  0  0  0  0  0  0  0
    4.4799    3.2844   -0.9277 C   0  0  0  0  0  0  0  0  0  0  0  0
    5.8444    3.3173   -1.1471 C   0  0  0  0  0  0  0  0  0  0  0  0
    6.4503    4.1464   -2.1438 C   0  0  0  0  0  0  0  0  0  0  0  0
    5.7316    4.9804   -2.9811 C   0  0  0  0  0  0  0  0  0  0  0  0
    4.3207    4.9594   -2.7774 C   0  0  0  0  0  0  0  0  0  0  0  0
    3.2472    5.7729   -3.4257 C   0  0  0  0  0  0  0  0  0  0  0  0
    3.4125    6.7854   -4.3234 C   0  0  0  0  0  0  0  0  0  0  0  0
    2.3669    7.7326   -4.6159 C   0  0  0  0  0  0  0  0  0  0  0  0
    1.5314    8.4992   -4.8442 N   0  0  0  0  0  0  0  0  0  0  0  0
    4.6578    7.0438   -4.9921 C   0  0  0  0  0  0  0  0  0  0  0  0
    5.6498    7.2685   -5.5463 N   0  0  0  0  0  0  0  0  0  0  0  0
    7.8118    3.6562   -1.7500 C   0  0  0  0  0  0  0  0  0  0  0  0
    8.5228    2.6404   -2.6945 C   0  0  0  0  0  0  0  0  0  0  0  0
    7.4974    1.7886   -3.4060 C   0  0  0  0  0  0  0  0  0  0  0  0
    6.9366    1.0132   -2.4755 C   0  0  0  0  0  0  0  0  0  0  0  0
    7.6022    1.3634   -1.1657 C   0  0  0  0  0  0  0  0  0  0  0  0
    9.0068    1.6310   -1.6737 C   0  0  0  0  0  0  0  0  0  0  0  0
    7.1932    2.8022   -0.7301 C   0  0  0  0  0  0  0  0  0  0  0  0
    4.3032   -2.8327   -0.1949 H   0  0  0  0  0  0  0  0  0  0  0  0
    4.3117   -5.8320    5.3496 H   0  0  0  0  0  0  0  0  0  0  0  0
    7.8017   -2.2792    4.2135 H   0  0  0  0  0  0  0  0  0  0  0  0
    8.9150   -4.5737    6.5827 H   0  0  0  0  0  0  0  0  0  0  0  0
    8.7103   -2.5149    8.1256 H   0  0  0  0  0  0  0  0  0  0  0  0
    6.2997   -1.4205    7.9104 H   0  0  0  0  0  0  0  0  0  0  0  0
    4.5245   -3.2329    8.4865 H   0  0  0  0  0  0  0  0  0  0  0  0
    5.8021   -5.4940    9.0729 H   0  0  0  0  0  0  0  0  0  0  0  0
    8.4065   -4.9376    9.2250 H   0  0  0  0  0  0  0  0  0  0  0  0
    7.4255   -3.6887   10.1190 H   0  0  0  0  0  0  0  0  0  0  0  0
    7.3136   -6.2174    7.1050 H   0  0  0  0  0  0  0  0  0  0  0  0
    5.6468   -6.7054   -1.3522 H   0  0  0  0  0  0  0  0  0  0  0  0
    5.2669   -5.0131   -0.9468 H   0  0  0  0  0  0  0  0  0  0  0  0
    7.4523   -5.7160    0.0141 H   0  0  0  0  0  0  0  0  0  0  0  0
    6.6464   -7.0732    0.8912 H   0  0  0  0  0  0  0  0  0  0  0  0
    6.2831   -5.3560    1.3406 H   0  0  0  0  0  0  0  0  0  0  0  0
    2.0349   -9.6946    1.1014 H   0  0  0  0  0  0  0  0  0  0  0  0
    3.3121   -8.4572    1.2292 H   0  0  0  0  0  0  0  0  0  0  0  0
    3.8575  -10.0783   -0.5723 H   0  0  0  0  0  0  0  0  0  0  0  0
    2.2371   -9.8487   -1.3301 H   0  0  0  0  0  0  0  0  0  0  0  0
    3.4516   -8.5112   -1.3723 H   0  0  0  0  0  0  0  0  0  0  0  0
   -2.6120   -4.9057   -2.5225 H   0  0  0  0  0  0  0  0  0  0  0  0
   -1.9959   -5.0633   -4.9021 H   0  0  0  0  0  0  0  0  0  0  0  0
   -0.3615   -6.7417   -5.6654 H   0  0  0  0  0  0  0  0  0  0  0  0
    1.8647   -8.5400   -3.4757 H   0  0  0  0  0  0  0  0  0  0  0  0
    1.3390   -8.3434   -5.1719 H   0  0  0  0  0  0  0  0  0  0  0  0
    1.1624  -10.7069   -4.5369 H   0  0  0  0  0  0  0  0  0  0  0  0
    0.1327  -10.3023   -3.1129 H   0  0  0  0  0  0  0  0  0  0  0  0
   -0.4991  -10.0477   -4.7922 H   0  0  0  0  0  0  0  0  0  0  0  0
    0.0165   -8.1993   -1.6314 H   0  0  0  0  0  0  0  0  0  0  0  0
   -7.8660    4.7412   -1.4122 H   0  0  0  0  0  0  0  0  0  0  0  0
   -8.5691    5.2917   -3.7204 H   0  0  0  0  0  0  0  0  0  0  0  0
   -8.2020    3.6785   -5.5532 H   0  0  0  0  0  0  0  0  0  0  0  0
   -7.0435    1.7083   -6.3757 H   0  0  0  0  0  0  0  0  0  0  0  0
   -6.0609    0.7220   -5.2511 H   0  0  0  0  0  0  0  0  0  0  0  0
   -7.8727   -0.6454   -6.2091 H   0  0  0  0  0  0  0  0  0  0  0  0
   -9.1188    0.5376   -5.6566 H   0  0  0  0  0  0  0  0  0  0  0  0
   -8.1749   -0.4232   -4.4417 H   0  0  0  0  0  0  0  0  0  0  0  0
   -6.4988    0.8870   -2.7538 H   0  0  0  0  0  0  0  0  0  0  0  0
   -4.8658   -3.1595    4.0863 H   0  0  0  0  0  0  0  0  0  0  0  0
   -3.2611   -3.9329    3.8072 H   0  0  0  0  0  0  0  0  0  0  0  0
   -5.8974   -5.4008    4.4817 H   0  0  0  0  0  0  0  0  0  0  0  0
   -4.2635   -6.1600    4.3118 H   0  0  0  0  0  0  0  0  0  0  0  0
   -4.5862   -5.0002    5.6521 H   0  0  0  0  0  0  0  0  0  0  0  0
   -3.7781   -2.0170    2.3416 H   0  0  0  0  0  0  0  0  0  0  0  0
   -3.9301   -0.5054    1.5212 H   0  0  0  0  0  0  0  0  0  0  0  0
   -4.6932    0.6002    3.7118 H   0  0  0  0  0  0  0  0  0  0  0  0
   -3.0608   -0.1633    3.8147 H   0  0  0  0  0  0  0  0  0  0  0  0
   -4.4957   -0.9824    4.5340 H   0  0  0  0  0  0  0  0  0  0  0  0
   -2.1726    6.4025    3.0812 H   0  0  0  0  0  0  0  0  0  0  0  0
    0.0028    6.0774    4.1785 H   0  0  0  0  0  0  0  0  0  0  0  0
    1.5583    3.4224    4.8846 H   0  0  0  0  0  0  0  0  0  0  0  0
    2.1910    4.9402    4.1340 H   0  0  0  0  0  0  0  0  0  0  0  0
    2.3904    3.3726    3.2779 H   0  0  0  0  0  0  0  0  0  0  0  0
    0.4212    2.2594    2.2236 H   0  0  0  0  0  0  0  0  0  0  0  0
   -1.7632    2.5755    1.1398 H   0  0  0  0  0  0  0  0  0  0  0  0
   -4.1382    4.1068    3.8450 H   0  0  0  0  0  0  0  0  0  0  0  0
   -6.1357    4.9065    5.0212 H   0  0  0  0  0  0  0  0  0  0  0  0
   -8.9065    5.9228    3.8256 H   0  0  0  0  0  0  0  0  0  0  0  0
   -7.9264    6.5897    5.1928 H   0  0  0  0  0  0  0  0  0  0  0  0
   -8.3279    7.6383    3.7893 H   0  0  0  0  0  0  0  0  0  0  0  0
   -7.2476    7.2318    1.5697 H   0  0  0  0  0  0  0  0  0  0  0  0
   -5.2464    6.4501    0.3930 H   0  0  0  0  0  0  0  0  0  0  0  0
   -3.1025    2.9079   -6.3959 H   0  0  0  0  0  0  0  0  0  0  0  0
   -4.8428    3.8475   -7.8567 H   0  0  0  0  0  0  0  0  0  0  0  0
   -6.2468    7.2803   -7.4761 H   0  0  0  0  0  0  0  0  0  0  0  0
   -6.4822    5.6667   -8.2358 H   0  0  0  0  0  0  0  0  0  0  0  0
   -5.2357    6.7989   -8.8958 H   0  0  0  0  0  0  0  0  0  0  0  0
   -4.2397    7.7277   -6.0800 H   0  0  0  0  0  0  0  0  0  0  0  0
   -2.4887    6.7950   -4.6335 H   0  0  0  0  0  0  0  0  0  0  0  0
   -0.5739    2.1401   -3.2114 H   0  0  0  0  0  0  0  0  0  0  0  0
    1.1921    0.6355   -4.0014 H   0  0  0  0  0  0  0  0  0  0  0  0
    2.2641   -0.3844   -6.0848 H   0  0  0  0  0  0  0  0  0  0  0  0
    2.5645    0.6720   -7.5083 H   0  0  0  0  0  0  0  0  0  0  0  0
    3.4293    0.9896   -5.9524 H   0  0  0  0  0  0  0  0  0  0  0  0
    1.3215    2.7469   -7.7540 H   0  0  0  0  0  0  0  0  0  0  0  0
   -0.4326    4.2710   -6.9617 H   0  0  0  0  0  0  0  0  0  0  0  0
    0.5700    6.0750   -4.1829 H   0  0  0  0  0  0  0  0  0  0  0  0
    4.0252    2.6748   -0.1574 H   0  0  0  0  0  0  0  0  0  0  0  0
    6.2457    5.5921   -3.6994 H   0  0  0  0  0  0  0  0  0  0  0  0
    8.4717    4.4448   -1.3288 H   0  0  0  0  0  0  0  0  0  0  0  0
    9.3104    3.0728   -3.3453 H   0  0  0  0  0  0  0  0  0  0  0  0
    7.3097    1.7383   -4.4717 H   0  0  0  0  0  0  0  0  0  0  0  0
    6.2083    0.2296   -2.6554 H   0  0  0  0  0  0  0  0  0  0  0  0
    7.5280    0.5877   -0.3750 H   0  0  0  0  0  0  0  0  0  0  0  0
    9.6863    2.0669   -0.9028 H   0  0  0  0  0  0  0  0  0  0  0  0
    9.4881    0.7365   -2.1329 H   0  0  0  0  0  0  0  0  0  0  0  0
    7.4777    3.0765    0.3095 H   0  0  0  0  0  0  0  0  0  0  0  0
  1  2  2  3
  2  3  1  0
  3  4  2  0
  3  5  1  0
  5  6  2  0
  6  7  1  0
  7  8  2  0
  8  9  1  0
  9 10  2  0
 10 11  1  0
 11 12  2  3
 12 13  1  0
 13 14  3  0
 12 15  1  0
 15 16  3  0
  8 17  1  0
 17 18  1  0
 18 19  1  0
 19 20  2  0
 20 21  1  0
 21 22  1  0
 21 23  1  0
  1 24  1  0
 24 25  2  0
 25 26  1  0
 26 27  1  0
 27 28  1  0
 25 29  1  0
 29 30  1  0
 30 31  1  0
 31 32  1  0
 29 33  2  0
 33 34  1  0
 33 35  1  0
 35 36  2  0
 36 37  1  0
 37 38  2  0
 38 39  1  0
 39 40  2  0
 40 41  1  0
 41 42  1  0
 42 43  1  0
 41 44  2  0
 36 45  1  0
 45 46  1  0
 46 47  1  0
 47 48  1  0
 48 49  1  0
 49 50  1  0
 50 51  2  0
 51 52  1  0
 52 53  1  0
 50 54  1  0
 54 55  1  0
 55 56  1  0
 56 57  1  0
 57 58  1  0
 58 59  1  0
 59 60  2  0
 60 61  1  0
 61 62  2  0
 62 63  1  0
 63 64  1  0
 64 65  1  0
 63 66  2  0
 58 67  2  0
 67 68  1  0
 68 69  1  0
 69 70  1  0
 70 71  1  0
 71 72  1  0
 72 73  1  0
 73 74  1  0
 74 75  1  0
 75 76  1  0
 76 77  1  0
 74 78  1  0
 78 79  1  0
 71 80  1  0
 80 81  1  0
 67 82  1  0
 82 83  2  0
 83 84  1  0
 84 85  1  0
 85 86  2  0
 86 87  1  0
 87 88  2  0
 88 89  1  0
 88 90  1  0
 90 91  2  0
 84 92  1  0
 92 93  2  0
 93 94  1  0
 94 95  2  0
 95 96  1  0
 95 97  1  0
 97 98  2  0
 83 99  1  0
 99100  1  0
100101  1  0
101102  2  0
102103  1  0
103104  1  0
104105  2  0
105106  1  0
106107  2  0
107108  1  0
107109  1  0
109110  2  0
103111  1  0
111112  2  0
112113  1  0
113114  2  0
114115  1  0
114116  1  0
116117  2  0
102118  1  0
118119  1  0
101120  1  0
120121  2  3
121122  1  0
122123  2  0
122124  1  0
124125  2  0
125126  1  0
126127  2  0
127128  1  0
128129  2  0
129130  1  0
130131  2  3
131132  1  0
132133  3  0
131134  1  0
134135  3  0
127136  1  0
136137  1  0
137138  1  0
138139  2  0
139140  1  0
140141  1  0
140142  1  0
 11  2  1  0
 23 17  1  0
 34 24  1  0
 77 35  1  0
119 82  1  0
130121  1  0
142136  1  0
 10  5  1  0
 22 18  1  0
 44 37  1  0
 76 45  2  0
 91 85  1  0
 98 92  1  0
118 99  2  0
129124  1  0
141137  1  0
 23  7  1  0
 75 47  2  0
110104  1  0
117111  1  0
142126  1  0
 73 48  2  0
 53 49  2  0
 72 54  2  0
 70 55  2  0
 69 57  2  0
 66 59  1  0
  1143  1  0
  6144  1  0
  9145  1  0
 17146  1  0
 18147  1  0
 19148  1  0
 20149  1  0
 21150  1  0
 22151  1  0
 22152  1  0
 23153  1  0
 27154  1  0
 27155  1  0
 28156  1  0
 28157  1  0
 28158  1  0
 31159  1  0
 31160  1  0
 32161  1  0
 32162  1  0
 32163  1  0
 38164  1  0
 39165  1  0
 40166  1  0
 42167  1  0
 42168  1  0
 43169  1  0
 43170  1  0
 43171  1  0
 44172  1  0
 60173  1  0
 61174  1  0
 62175  1  0
 64176  1  0
 64177  1  0
 65178  1  0
 65179  1  0
 65180  1  0
 66181  1  0
 78182  1  0
 78183  1  0
 79184  1  0
 79185  1  0
 79186  1  0
 80187  1  0
 80188  1  0
 81189  1  0
 81190  1  0
 81191  1  0
 86192  1  0
 87193  1  0
 89194  1  0
 89195  1  0
 89196  1  0
 90197  1  0
 91198  1  0
 93199  1  0
 94200  1  0
 96201  1  0
 96202  1  0
 96203  1  0
 97204  1  0
 98205  1  0
105206  1  0
106207  1  0
108208  1  0
108209  1  0
108210  1  0
109211  1  0
110212  1  0
112213  1  0
113214  1  0
115215  1  0
115216  1  0
115217  1  0
116218  1  0
117219  1  0
120220  1  0
125221  1  0
128222  1  0
136223  1  0
137224  1  0
138225  1  0
139226  1  0
140227  1  0
141228  1  0
141229  1  0
142230  1  0
M  END

