
     RDKit          3D

268296  0  0  0  0  0  0  0  0999 V2000
    6.8225    1.1128    2.2348 C   0  0  0  0  0  0  0  0  0  0  0  0
    6.9607   -0.2252    2.1265 C   0  0  0  0  0  0  0  0  0  0  0  0
    5.8413   -1.1633    2.0302 C   0  0  0  0  0  0  0  0  0  0  0  0
    4.7214   -1.0516    2.6114 O   0  0  0  0  0  0  0  0  0  0  0  0
    6.2066   -2.2412    1.1501 C   0  0  0  0  0  0  0  0  0  0  0  0
    5.3082   -3.1276    0.5164 C   0  0  0  0  0  0  0  0  0  0  0  0
    5.8704   -3.8259   -0.5328 C   0  0  0  0  0  0  0  0  0  0  0  0
    7.2421   -3.6700   -0.9333 C   0  0  0  0  0  0  0  0  0  0  0  0
    8.1371   -2.8205   -0.3010 C   0  0  0  0  0  0  0  0  0  0  0  0
    7.5732   -2.0955    0.7904 C   0  0  0  0  0  0  0  0  0  0  0  0
    8.1370   -0.9217    1.5139 C   0  0  0  0  0  0  0  0  0  0  0  0
    9.4487   -0.6269    1.6973 C   0  0  0  0  0  0  0  0  0  0  0  0
   10.4982   -1.4597    1.1608 C   0  0  0  0  0  0  0  0  0  0  0  0
   11.3405   -2.1335    0.7340 N   0  0  0  0  0  0  0  0  0  0  0  0
    9.8802    0.4697    2.5274 C   0  0  0  0  0  0  0  0  0  0  0  0
   10.2302    1.3522    3.1900 N   0  0  0  0  0  0  0  0  0  0  0  0
    7.0068   -4.5589   -2.1210 C   0  0  0  0  0  0  0  0  0  0  0  0
    6.8778   -3.8550   -3.5086 C   0  0  0  0  0  0  0  0  0  0  0  0
    6.2506   -4.8728   -4.4349 C   0  0  0  0  0  0  0  0  0  0  0  0
    4.9781   -5.0118   -4.0429 C   0  0  0  0  0  0  0  0  0  0  0  0
    4.7867   -4.0922   -2.8615 C   0  0  0  0  0  0  0  0  0  0  0  0
    5.6736   -2.9428   -3.3262 C   0  0  0  0  0  0  0  0  0  0  0  0
    5.6061   -4.7214   -1.6960 C   0  0  0  0  0  0  0  0  0  0  0  0
    5.5320    1.7756    1.9819 C   0  0  0  0  0  0  0  0  0  0  0  0
    5.0324    2.9321    2.6160 C   0  0  0  0  0  0  0  0  0  0  0  0
    5.7130    3.6093    3.6839 N   0  0  0  0  0  0  0  0  0  0  0  0
    6.1619    2.8510    4.8243 C   0  0  0  0  0  0  0  0  0  0  0  0
    7.4543    3.0374    5.3507 C   0  0  0  0  0  0  0  0  0  0  0  0
    7.8898    2.2877    6.4463 C   0  0  0  0  0  0  0  0  0  0  0  0
    7.0435    1.3279    7.0234 C   0  0  0  0  0  0  0  0  0  0  0  0
    7.4927    0.5540    8.2240 C   0  0  0  0  0  0  0  0  0  0  0  0
    5.7502    1.1446    6.5091 C   0  0  0  0  0  0  0  0  0  0  0  0
    5.3177    1.8916    5.4095 C   0  0  0  0  0  0  0  0  0  0  0  0
    6.0888    4.9882    3.5249 C   0  0  0  0  0  0  0  0  0  0  0  0
    6.5864    5.4529    2.2929 C   0  0  0  0  0  0  0  0  0  0  0  0
    6.9875    6.7837    2.1545 C   0  0  0  0  0  0  0  0  0  0  0  0
    6.9025    7.6653    3.2412 C   0  0  0  0  0  0  0  0  0  0  0  0
    7.3382    9.0930    3.0984 C   0  0  0  0  0  0  0  0  0  0  0  0
    6.3675    7.2127    4.4608 C   0  0  0  0  0  0  0  0  0  0  0  0
    5.9685    5.8800    4.6027 C   0  0  0  0  0  0  0  0  0  0  0  0
    3.8811    3.4075    1.9679 C   0  0  0  0  0  0  0  0  0  0  0  0
    2.8971    4.7745    2.0675 S   0  0  0  0  0  0  0  0  0  0  0  0
    1.9885    4.4075    0.6602 C   0  0  0  0  0  0  0  0  0  0  0  0
    2.4802    3.1929    0.1264 C   0  0  0  0  0  0  0  0  0  0  0  0
    2.1149    2.6015   -1.1349 N   0  0  0  0  0  0  0  0  0  0  0  0
    2.7225    3.1071   -2.3445 C   0  0  0  0  0  0  0  0  0  0  0  0
    4.0565    3.5603   -2.3461 C   0  0  0  0  0  0  0  0  0  0  0  0
    4.6343    4.0513   -3.5148 C   0  0  0  0  0  0  0  0  0  0  0  0
    3.8891    4.1210   -4.7009 C   0  0  0  0  0  0  0  0  0  0  0  0
    4.5267    4.6278   -5.9574 C   0  0  0  0  0  0  0  0  0  0  0  0
    2.5641    3.6488   -4.7128 C   0  0  0  0  0  0  0  0  0  0  0  0
    1.9903    3.1472   -3.5444 C   0  0  0  0  0  0  0  0  0  0  0  0
    1.4401    1.3210   -1.1294 C   0  0  0  0  0  0  0  0  0  0  0  0
    1.7561    0.3410   -2.0911 C   0  0  0  0  0  0  0  0  0  0  0  0
    1.1091   -0.8934   -2.0923 C   0  0  0  0  0  0  0  0  0  0  0  0
    0.1530   -1.1951   -1.1151 C   0  0  0  0  0  0  0  0  0  0  0  0
   -0.5544   -2.5187   -1.1446 C   0  0  0  0  0  0  0  0  0  0  0  0
   -0.1556   -0.2349   -0.1369 C   0  0  0  0  0  0  0  0  0  0  0  0
    0.4795    1.0139   -0.1420 C   0  0  0  0  0  0  0  0  0  0  0  0
    3.5167    2.6801    0.8836 C   0  0  0  0  0  0  0  0  0  0  0  0
    4.5917    1.4337    0.6108 S   0  0  0  0  0  0  0  0  0  0  0  0
    0.9090    5.2406    0.0700 C   0  0  0  0  0  0  0  0  0  0  0  0
   -0.1294    5.9204    0.7608 C   0  0  0  0  0  0  0  0  0  0  0  0
   -0.1944    6.0592    2.2287 C   0  0  0  0  0  0  0  0  0  0  0  0
    0.3093    7.2404    2.8014 C   0  0  0  0  0  0  0  0  0  0  0  0
    0.3805    7.3768    4.1929 C   0  0  0  0  0  0  0  0  0  0  0  0
   -0.0439    6.3358    5.0193 C   0  0  0  0  0  0  0  0  0  0  0  0
   -0.5673    5.1641    4.4625 C   0  0  0  0  0  0  0  0  0  0  0  0
   -0.6530    5.0127    3.0658 C   0  0  0  0  0  0  0  0  0  0  0  0
   -1.3373    3.7875    2.5105 C   0  0  0  0  0  0  0  0  0  0  0  0
   -2.8551    3.9473    2.5990 C   0  0  0  0  0  0  0  0  0  0  0  0
   -1.1486    6.3533   -0.1191 C   0  0  0  0  0  0  0  0  0  0  0  0
   -2.8323    6.5707    0.0982 S   0  0  0  0  0  0  0  0  0  0  0  0
   -3.1657    6.3464   -1.5625 C   0  0  0  0  0  0  0  0  0  0  0  0
   -4.1767    5.6876   -2.2444 C   0  0  0  0  0  0  0  0  0  0  0  0
   -5.5397    5.4958   -1.9763 C   0  0  0  0  0  0  0  0  0  0  0  0
   -6.2904    4.5825   -2.7962 C   0  0  0  0  0  0  0  0  0  0  0  0
   -7.5965    4.4126   -2.4746 N   0  0  0  0  0  0  0  0  0  0  0  0
   -7.7087    5.4491   -1.1852 S   0  0  0  0  0  0  0  0  0  0  0  0
   -6.2056    6.1100   -0.9695 N   0  0  0  0  0  0  0  0  0  0  0  0
   -5.6058    3.8198   -3.7641 C   0  0  0  0  0  0  0  0  0  0  0  0
   -5.9430    2.5872   -4.3011 C   0  0  0  0  0  0  0  0  0  0  0  0
   -7.1999    1.4755   -4.0311 S   0  0  0  0  0  0  0  0  0  0  0  0
   -6.1850    0.1196   -4.2310 C   0  0  0  0  0  0  0  0  0  0  0  0
   -6.3364   -1.1814   -3.7240 C   0  0  0  0  0  0  0  0  0  0  0  0
   -7.4420   -2.0848   -4.1741 C   0  0  0  0  0  0  0  0  0  0  0  0
   -7.9027   -2.1327   -5.5321 C   0  0  0  0  0  0  0  0  0  0  0  0
   -7.1940   -1.4414   -6.6771 C   0  0  0  0  0  0  0  0  0  0  0  0
   -7.9806   -0.2427   -7.2094 C   0  0  0  0  0  0  0  0  0  0  0  0
   -8.9892   -2.9657   -5.8686 C   0  0  0  0  0  0  0  0  0  0  0  0
   -9.5771   -3.7871   -4.9122 C   0  0  0  0  0  0  0  0  0  0  0  0
   -9.0719   -3.8286   -3.6173 C   0  0  0  0  0  0  0  0  0  0  0  0
   -7.9871   -3.0107   -3.2649 C   0  0  0  0  0  0  0  0  0  0  0  0
   -5.1079   -1.6615   -3.2014 C   0  0  0  0  0  0  0  0  0  0  0  0
   -3.8922   -0.5535   -3.5989 S   0  0  0  0  0  0  0  0  0  0  0  0
   -4.8853    0.5528   -4.3669 C   0  0  0  0  0  0  0  0  0  0  0  0
   -4.7596    1.9385   -4.5272 C   0  0  0  0  0  0  0  0  0  0  0  0
   -3.6861    2.7417   -4.3421 N   0  0  0  0  0  0  0  0  0  0  0  0
   -4.2149    3.9338   -3.9197 C   0  0  0  0  0  0  0  0  0  0  0  0
   -3.5417    4.9986   -3.2834 C   0  0  0  0  0  0  0  0  0  0  0  0
   -2.2228    5.3099   -3.3394 N   0  0  0  0  0  0  0  0  0  0  0  0
   -2.0160    6.0799   -2.2480 C   0  0  0  0  0  0  0  0  0  0  0  0
   -0.8938    6.0944   -1.4428 C   0  0  0  0  0  0  0  0  0  0  0  0
    0.5280    5.2505   -1.5805 S   0  0  0  0  0  0  0  0  0  0  0  0
   -1.4103    5.3754   -4.5591 C   0  0  0  0  0  0  0  0  0  0  0  0
   -1.1197    6.8230   -4.9512 C   0  0  0  0  0  0  0  0  0  0  0  0
   -2.3071    2.2402   -4.2862 C   0  0  0  0  0  0  0  0  0  0  0  0
   -1.8366    2.0434   -2.8419 C   0  0  0  0  0  0  0  0  0  0  0  0
   -4.9351   -2.5616   -2.0466 C   0  0  0  0  0  0  0  0  0  0  0  0
   -5.0491   -2.1761   -0.6827 C   0  0  0  0  0  0  0  0  0  0  0  0
   -5.7400   -1.0062   -0.1931 N   0  0  0  0  0  0  0  0  0  0  0  0
   -5.2388   -0.3363    0.9865 C   0  0  0  0  0  0  0  0  0  0  0  0
   -3.8994    0.0773    1.0596 C   0  0  0  0  0  0  0  0  0  0  0  0
   -3.3626    0.5314    2.2706 C   0  0  0  0  0  0  0  0  0  0  0  0
   -4.1662    0.5780    3.4248 C   0  0  0  0  0  0  0  0  0  0  0  0
   -3.6023    1.0033    4.7469 C   0  0  0  0  0  0  0  0  0  0  0  0
   -5.5145    0.2242    3.3410 C   0  0  0  0  0  0  0  0  0  0  0  0
   -6.0461   -0.2364    2.1376 C   0  0  0  0  0  0  0  0  0  0  0  0
   -7.1326   -0.8620   -0.4923 C   0  0  0  0  0  0  0  0  0  0  0  0
   -7.6353    0.3618   -0.9565 C   0  0  0  0  0  0  0  0  0  0  0  0
   -8.9986    0.5022   -1.2346 C   0  0  0  0  0  0  0  0  0  0  0  0
   -9.8776   -0.5780   -1.0366 C   0  0  0  0  0  0  0  0  0  0  0  0
  -11.3248   -0.4450   -1.3967 C   0  0  0  0  0  0  0  0  0  0  0  0
   -9.3883   -1.7680   -0.4691 C   0  0  0  0  0  0  0  0  0  0  0  0
   -8.0298   -1.9021   -0.1825 C   0  0  0  0  0  0  0  0  0  0  0  0
   -4.4214   -3.0982    0.1642 C   0  0  0  0  0  0  0  0  0  0  0  0
   -4.2579   -3.2383    1.8335 S   0  0  0  0  0  0  0  0  0  0  0  0
   -3.3429   -4.6694    1.7521 C   0  0  0  0  0  0  0  0  0  0  0  0
   -3.2368   -5.0941    0.4073 C   0  0  0  0  0  0  0  0  0  0  0  0
   -2.7930   -6.4032   -0.0187 N   0  0  0  0  0  0  0  0  0  0  0  0
   -1.7272   -7.0671    0.6721 C   0  0  0  0  0  0  0  0  0  0  0  0
   -2.0335   -8.0375    1.6433 C   0  0  0  0  0  0  0  0  0  0  0  0
   -1.0104   -8.6661    2.3554 C   0  0  0  0  0  0  0  0  0  0  0  0
    0.3314   -8.3827    2.0616 C   0  0  0  0  0  0  0  0  0  0  0  0
    1.4124   -9.1166    2.7912 C   0  0  0  0  0  0  0  0  0  0  0  0
    0.6416   -7.4506    1.0487 C   0  0  0  0  0  0  0  0  0  0  0  0
   -0.3890   -6.7736    0.3817 C   0  0  0  0  0  0  0  0  0  0  0  0
   -3.6000   -7.1775   -0.9317 C   0  0  0  0  0  0  0  0  0  0  0  0
   -5.0053   -7.1240   -0.8660 C   0  0  0  0  0  0  0  0  0  0  0  0
   -5.7836   -7.8930   -1.7287 C   0  0  0  0  0  0  0  0  0  0  0  0
   -5.1738   -8.7387   -2.6595 C   0  0  0  0  0  0  0  0  0  0  0  0
   -6.0218   -9.6010   -3.5417 C   0  0  0  0  0  0  0  0  0  0  0  0
   -3.7709   -8.8022   -2.7293 C   0  0  0  0  0  0  0  0  0  0  0  0
   -2.9928   -8.0235   -1.8694 C   0  0  0  0  0  0  0  0  0  0  0  0
   -3.8384   -4.1589   -0.4503 C   0  0  0  0  0  0  0  0  0  0  0  0
   -4.0424   -4.0156   -2.1164 S   0  0  0  0  0  0  0  0  0  0  0  0
   -3.0517   -5.4589    2.9477 C   0  0  0  0  0  0  0  0  0  0  0  0
   -1.8712   -5.4106    3.5925 C   0  0  0  0  0  0  0  0  0  0  0  0
   -0.6499   -4.7358    3.1488 C   0  0  0  0  0  0  0  0  0  0  0  0
   -0.5381   -3.9524    2.1669 O   0  0  0  0  0  0  0  0  0  0  0  0
    0.4399   -5.1733    4.0033 C   0  0  0  0  0  0  0  0  0  0  0  0
    1.7910   -4.8234    3.9701 C   0  0  0  0  0  0  0  0  0  0  0  0
    2.6696   -5.4284    4.8904 C   0  0  0  0  0  0  0  0  0  0  0  0
    4.0315   -5.1099    4.8294 O   0  0  0  0  0  0  0  0  0  0  0  0
    5.0162   -6.1004    4.7434 C   0  0  0  0  0  0  0  0  0  0  0  0
    5.2037   -6.9181    5.6880 O   0  0  0  0  0  0  0  0  0  0  0  0
    5.8988   -6.1103    3.5527 C   0  0  0  0  0  0  0  0  0  0  0  0
    2.1516   -6.3214    5.8606 C   0  0  0  0  0  0  0  0  0  0  0  0
    0.7799   -6.6283    5.9039 C   0  0  0  0  0  0  0  0  0  0  0  0
   -0.0621   -6.0520    4.9421 C   0  0  0  0  0  0  0  0  0  0  0  0
   -1.5359   -6.2184    4.7899 C   0  0  0  0  0  0  0  0  0  0  0  0
   -2.3276   -6.2546    5.8679 C   0  0  0  0  0  0  0  0  0  0  0  0
   -2.0773   -5.2727    6.9013 C   0  0  0  0  0  0  0  0  0  0  0  0
   -1.7566   -4.5134    7.7149 N   0  0  0  0  0  0  0  0  0  0  0  0
   -2.6215   -7.5595    6.3944 C   0  0  0  0  0  0  0  0  0  0  0  0
   -2.7832   -8.6082    6.8745 N   0  0  0  0  0  0  0  0  0  0  0  0
    7.6753    1.7608    2.2015 H   0  0  0  0  0  0  0  0  0  0  0  0
    4.2374   -3.1457    0.7262 H   0  0  0  0  0  0  0  0  0  0  0  0
    9.1247   -2.6509   -0.7058 H   0  0  0  0  0  0  0  0  0  0  0  0
    7.6074   -5.5002   -2.1080 H   0  0  0  0  0  0  0  0  0  0  0  0
    7.7927   -3.3661   -3.8898 H   0  0  0  0  0  0  0  0  0  0  0  0
    6.7135   -5.3695   -5.2879 H   0  0  0  0  0  0  0  0  0  0  0  0
    4.2314   -5.6234   -4.5308 H   0  0  0  0  0  0  0  0  0  0  0  0
    3.7352   -3.8351   -2.6284 H   0  0  0  0  0  0  0  0  0  0  0  0
    5.3293   -2.4507   -4.2733 H   0  0  0  0  0  0  0  0  0  0  0  0
    5.8177   -2.1439   -2.5694 H   0  0  0  0  0  0  0  0  0  0  0  0
    5.3267   -5.7611   -1.4087 H   0  0  0  0  0  0  0  0  0  0  0  0
    8.1303    3.7558    4.8978 H   0  0  0  0  0  0  0  0  0  0  0  0
    8.8883    2.4517    6.8309 H   0  0  0  0  0  0  0  0  0  0  0  0
    8.5926    0.3942    8.2005 H   0  0  0  0  0  0  0  0  0  0  0  0
    7.0094   -0.4461    8.2518 H   0  0  0  0  0  0  0  0  0  0  0  0
    7.2305    1.1179    9.1440 H   0  0  0  0  0  0  0  0  0  0  0  0
    5.0748    0.4228    6.9598 H   0  0  0  0  0  0  0  0  0  0  0  0
    4.3182    1.7319    5.0219 H   0  0  0  0  0  0  0  0  0  0  0  0
    6.6847    4.7882    1.4413 H   0  0  0  0  0  0  0  0  0  0  0  0
    7.3844    7.1157    1.2012 H   0  0  0  0  0  0  0  0  0  0  0  0
    7.8189    9.4425    4.0365 H   0  0  0  0  0  0  0  0  0  0  0  0
    8.0733    9.2035    2.2753 H   0  0  0  0  0  0  0  0  0  0  0  0
    6.4524    9.7259    2.8847 H   0  0  0  0  0  0  0  0  0  0  0  0
    6.2709    7.8834    5.3085 H   0  0  0  0  0  0  0  0  0  0  0  0
    5.5707    5.5409    5.5482 H   0  0  0  0  0  0  0  0  0  0  0  0
    4.6649    3.5236   -1.4524 H   0  0  0  0  0  0  0  0  0  0  0  0
    5.6738    4.3825   -3.4852 H   0  0  0  0  0  0  0  0  0  0  0  0
    3.7617    5.0316   -6.6472 H   0  0  0  0  0  0  0  0  0  0  0  0
    5.2475    5.4449   -5.7264 H   0  0  0  0  0  0  0  0  0  0  0  0
    5.0662    3.7970   -6.4572 H   0  0  0  0  0  0  0  0  0  0  0  0
    1.9747    3.6680   -5.6249 H   0  0  0  0  0  0  0  0  0  0  0  0
    0.9625    2.8048   -3.5636 H   0  0  0  0  0  0  0  0  0  0  0  0
    2.5143    0.5227   -2.8440 H   0  0  0  0  0  0  0  0  0  0  0  0
    1.3642   -1.6228   -2.8569 H   0  0  0  0  0  0  0  0  0  0  0  0
   -1.2689   -2.5320   -1.9895 H   0  0  0  0  0  0  0  0  0  0  0  0
    0.1840   -3.3354   -1.2869 H   0  0  0  0  0  0  0  0  0  0  0  0
   -1.1097   -2.7055   -0.1980 H   0  0  0  0  0  0  0  0  0  0  0  0
   -0.8874   -0.4528    0.6329 H   0  0  0  0  0  0  0  0  0  0  0  0
    0.2198    1.7401    0.6231 H   0  0  0  0  0  0  0  0  0  0  0  0
    0.6696    8.0392    2.1621 H   0  0  0  0  0  0  0  0  0  0  0  0
    0.7835    8.2895    4.6136 H   0  0  0  0  0  0  0  0  0  0  0  0
    0.0187    6.4503    6.0937 H   0  0  0  0  0  0  0  0  0  0  0  0
   -0.9144    4.3779    5.1229 H   0  0  0  0  0  0  0  0  0  0  0  0
   -1.0298    2.8847    3.0899 H   0  0  0  0  0  0  0  0  0  0  0  0
   -1.0439    3.5996    1.4546 H   0  0  0  0  0  0  0  0  0  0  0  0
   -3.2091    3.7084    3.6263 H   0  0  0  0  0  0  0  0  0  0  0  0
   -3.3470    3.2663    1.8749 H   0  0  0  0  0  0  0  0  0  0  0  0
   -3.1653    4.9832    2.3667 H   0  0  0  0  0  0  0  0  0  0  0  0
   -7.0622   -2.1655   -7.5200 H   0  0  0  0  0  0  0  0  0  0  0  0
   -6.1523   -1.1498   -6.4111 H   0  0  0  0  0  0  0  0  0  0  0  0
   -8.3461    0.3866   -6.3787 H   0  0  0  0  0  0  0  0  0  0  0  0
   -7.3184    0.3730   -7.8554 H   0  0  0  0  0  0  0  0  0  0  0  0
   -8.8496   -0.5896   -7.8179 H   0  0  0  0  0  0  0  0  0  0  0  0
   -9.3433   -3.0088   -6.8923 H   0  0  0  0  0  0  0  0  0  0  0  0
  -10.4007   -4.4284   -5.1902 H   0  0  0  0  0  0  0  0  0  0  0  0
   -9.5104   -4.5028   -2.8851 H   0  0  0  0  0  0  0  0  0  0  0  0
   -7.5679   -3.1286   -2.2865 H   0  0  0  0  0  0  0  0  0  0  0  0
   -1.9555    4.9215   -5.4135 H   0  0  0  0  0  0  0  0  0  0  0  0
   -0.4500    4.8391   -4.4021 H   0  0  0  0  0  0  0  0  0  0  0  0
   -2.0727    7.4001   -5.0301 H   0  0  0  0  0  0  0  0  0  0  0  0
   -0.6072    6.8520   -5.9328 H   0  0  0  0  0  0  0  0  0  0  0  0
   -0.4574    7.3007   -4.1932 H   0  0  0  0  0  0  0  0  0  0  0  0
   -1.6036    2.8711   -4.8426 H   0  0  0  0  0  0  0  0  0  0  0  0
   -2.2430    1.2734   -4.8318 H   0  0  0  0  0  0  0  0  0  0  0  0
   -1.0068    1.3032   -2.8271 H   0  0  0  0  0  0  0  0  0  0  0  0
   -1.4682    2.9929   -2.4069 H   0  0  0  0  0  0  0  0  0  0  0  0
   -2.6644    1.6636   -2.2050 H   0  0  0  0  0  0  0  0  0  0  0  0
   -3.2639   -0.0065    0.1856 H   0  0  0  0  0  0  0  0  0  0  0  0
   -2.3201    0.8247    2.3076 H   0  0  0  0  0  0  0  0  0  0  0  0
   -2.4917    1.0248    4.7243 H   0  0  0  0  0  0  0  0  0  0  0  0
   -3.9862    2.0086    5.0122 H   0  0  0  0  0  0  0  0  0  0  0  0
   -3.9283    0.2864    5.5360 H   0  0  0  0  0  0  0  0  0  0  0  0
   -6.1556    0.2602    4.2190 H   0  0  0  0  0  0  0  0  0  0  0  0
   -7.0750   -0.5700    2.1287 H   0  0  0  0  0  0  0  0  0  0  0  0
   -6.9656    1.1972   -1.1046 H   0  0  0  0  0  0  0  0  0  0  0  0
   -9.3677    1.4466   -1.6195 H   0  0  0  0  0  0  0  0  0  0  0  0
  -11.8214   -1.4375   -1.4247 H   0  0  0  0  0  0  0  0  0  0  0  0
  -11.4213    0.0173   -2.4005 H   0  0  0  0  0  0  0  0  0  0  0  0
  -11.8352    0.1942   -0.6451 H   0  0  0  0  0  0  0  0  0  0  0  0
  -10.0564   -2.6019   -0.2700 H   0  0  0  0  0  0  0  0  0  0  0  0
   -7.6661   -2.8338    0.2498 H   0  0  0  0  0  0  0  0  0  0  0  0
   -3.0672   -8.2510    1.8912 H   0  0  0  0  0  0  0  0  0  0  0  0
   -1.2690   -9.3534    3.1502 H   0  0  0  0  0  0  0  0  0  0  0  0
    1.3887  -10.1863    2.4945 H   0  0  0  0  0  0  0  0  0  0  0  0
    1.2482   -9.0422    3.8882 H   0  0  0  0  0  0  0  0  0  0  0  0
    2.4138   -8.7062    2.5517 H   0  0  0  0  0  0  0  0  0  0  0  0
    1.6720   -7.2260    0.7949 H   0  0  0  0  0  0  0  0  0  0  0  0
   -0.1464   -6.0342   -0.3735 H   0  0  0  0  0  0  0  0  0  0  0  0
   -5.5114   -6.4900   -0.1425 H   0  0  0  0  0  0  0  0  0  0  0  0
   -6.8675   -7.8433   -1.6498 H   0  0  0  0  0  0  0  0  0  0  0  0
   -5.4007  -10.2073   -4.2325 H   0  0  0  0  0  0  0  0  0  0  0  0
   -6.6203  -10.2951   -2.9099 H   0  0  0  0  0  0  0  0  0  0  0  0
   -6.7104   -8.9686   -4.1400 H   0  0  0  0  0  0  0  0  0  0  0  0
   -3.2776   -9.4634   -3.4341 H   0  0  0  0  0  0  0  0  0  0  0  0
   -1.9152   -8.0776   -1.9403 H   0  0  0  0  0  0  0  0  0  0  0  0
   -3.8326   -6.1189    3.3071 H   0  0  0  0  0  0  0  0  0  0  0  0
    2.1786   -4.1527    3.2042 H   0  0  0  0  0  0  0  0  0  0  0  0
    6.2269   -7.1544    3.3364 H   0  0  0  0  0  0  0  0  0  0  0  0
    5.3278   -5.7422    2.6781 H   0  0  0  0  0  0  0  0  0  0  0  0
    6.7709   -5.4352    3.7374 H   0  0  0  0  0  0  0  0  0  0  0  0
    2.8059   -6.7595    6.5974 H   0  0  0  0  0  0  0  0  0  0  0  0
    0.3965   -7.3068    6.6571 H   0  0  0  0  0  0  0  0  0  0  0  0
  1  2  2  3
  2  3  1  0
  3  4  2  0
  3  5  1  0
  5  6  2  0
  6  7  1  0
  7  8  2  0
  8  9  1  0
  9 10  2  0
 10 11  1  0
 11 12  2  3
 12 13  1  0
 13 14  3  0
 12 15  1  0
 15 16  3  0
  8 17  1  0
 17 18  1  0
 18 19  1  0
 19 20  2  0
 20 21  1  0
 21 22  1  0
 21 23  1  0
  1 24  1  0
 24 25  2  0
 25 26  1  0
 26 27  1  0
 27 28  2  0
 28 29  1  0
 29 30  2  0
 30 31  1  0
 30 32  1  0
 32 33  2  0
 26 34  1  0
 34 35  2  0
 35 36  1  0
 36 37  2  0
 37 38  1  0
 37 39  1  0
 39 40  2  0
 25 41  1  0
 41 42  1  0
 42 43  1  0
 43 44  2  0
 44 45  1  0
 45 46  1  0
 46 47  2  0
 47 48  1  0
 48 49  2  0
 49 50  1  0
 49 51  1  0
 51 52  2  0
 45 53  1  0
 53 54  2  0
 54 55  1  0
 55 56  2  0
 56 57  1  0
 56 58  1  0
 58 59  2  0
 44 60  1  0
 60 61  1  0
 43 62  1  0
 62 63  2  0
 63 64  1  0
 64 65  2  0
 65 66  1  0
 66 67  2  0
 67 68  1  0
 68 69  2  0
 69 70  1  0
 70 71  1  0
 63 72  1  0
 72 73  1  0
 73 74  1  0
 74 75  1  0
 75 76  1  0
 76 77  1  0
 77 78  2  0
 78 79  1  0
 79 80  1  0
 77 81  1  0
 81 82  1  0
 82 83  1  0
 83 84  1  0
 84 85  1  0
 85 86  1  0
 86 87  2  0
 87 88  1  0
 88 89  1  0
 87 90  1  0
 90 91  2  0
 91 92  1  0
 92 93  2  0
 85 94  2  0
 94 95  1  0
 95 96  1  0
 96 97  1  0
 97 98  1  0
 98 99  1  0
 99100  1  0
100101  1  0
101102  1  0
102103  1  0
103104  1  0
101105  1  0
105106  1  0
 98107  1  0
107108  1  0
 94109  1  0
109110  2  0
110111  1  0
111112  1  0
112113  2  0
113114  1  0
114115  2  0
115116  1  0
115117  1  0
117118  2  0
111119  1  0
119120  2  0
120121  1  0
121122  2  0
122123  1  0
122124  1  0
124125  2  0
110126  1  0
126127  1  0
127128  1  0
128129  2  0
129130  1  0
130131  1  0
131132  2  0
132133  1  0
133134  2  0
134135  1  0
134136  1  0
136137  2  0
130138  1  0
138139  2  0
139140  1  0
140141  2  0
141142  1  0
141143  1  0
143144  2  0
129145  1  0
145146  1  0
128147  1  0
147148  2  3
148149  1  0
149150  2  0
149151  1  0
151152  2  0
152153  1  0
153154  1  0
154155  1  0
155156  2  0
155157  1  0
153158  2  0
158159  1  0
159160  2  0
160161  1  0
161162  2  3
162163  1  0
163164  3  0
162165  1  0
165166  3  0
 11  2  1  0
 23 17  1  0
 61 24  1  0
104 62  1  0
146109  1  0
161148  1  0
 10  5  1  0
 22 18  1  0
 33 27  1  0
 40 34  1  0
 60 41  2  0
 69 64  1  0
103 72  2  0
118112  1  0
125119  1  0
145126  2  0
160151  1  0
 23  7  1  0
 52 46  1  0
 59 53  1  0
102 74  2  0
137131  1  0
144138  1  0
100 75  2  0
 80 76  2  0
 99 81  2  0
 97 82  2  0
 96 84  2  0
 93 86  1  0
  1167  1  0
  6168  1  0
  9169  1  0
 17170  1  0
 18171  1  0
 19172  1  0
 20173  1  0
 21174  1  0
 22175  1  0
 22176  1  0
 23177  1  0
 28178  1  0
 29179  1  0
 31180  1  0
 31181  1  0
 31182  1  0
 32183  1  0
 33184  1  0
 35185  1  0
 36186  1  0
 38187  1  0
 38188  1  0
 38189  1  0
 39190  1  0
 40191  1  0
 47192  1  0
 48193  1  0
 50194  1  0
 50195  1  0
 50196  1  0
 51197  1  0
 52198  1  0
 54199  1  0
 55200  1  0
 57201  1  0
 57202  1  0
 57203  1  0
 58204  1  0
 59205  1  0
 65206  1  0
 66207  1  0
 67208  1  0
 68209  1  0
 70210  1  0
 70211  1  0
 71212  1  0
 71213  1  0
 71214  1  0
 88215  1  0
 88216  1  0
 89217  1  0
 89218  1  0
 89219  1  0
 90220  1  0
 91221  1  0
 92222  1  0
 93223  1  0
105224  1  0
105225  1  0
106226  1  0
106227  1  0
106228  1  0
107229  1  0
107230  1  0
108231  1  0
108232  1  0
108233  1  0
113234  1  0
114235  1  0
116236  1  0
116237  1  0
116238  1  0
117239  1  0
118240  1  0
120241  1  0
121242  1  0
123243  1  0
123244  1  0
123245  1  0
124246  1  0
125247  1  0
132248  1  0
133249  1  0
135250  1  0
135251  1  0
135252  1  0
136253  1  0
137254  1  0
139255  1  0
140256  1  0
142257  1  0
142258  1  0
142259  1  0
143260  1  0
144261  1  0
147262  1  0
152263  1  0
157264  1  0
157265  1  0
157266  1  0
158267  1  0
159268  1  0
M  END

