
     RDKit          3D

248273  0  0  0  0  0  0  0  0999 V2000
    7.8853    0.9127   -0.3846 C   0  0  0  0  0  0  0  0  0  0  0  0
    8.9337    1.5547    0.1604 C   0  0  0  0  0  0  0  0  0  0  0  0
    9.1165    3.0096    0.1323 C   0  0  0  0  0  0  0  0  0  0  0  0
    8.6717    3.7979   -0.7451 O   0  0  0  0  0  0  0  0  0  0  0  0
    9.8684    3.4002    1.3014 C   0  0  0  0  0  0  0  0  0  0  0  0
   10.0610    4.7148    1.7804 C   0  0  0  0  0  0  0  0  0  0  0  0
   10.6250    4.7697    3.0400 C   0  0  0  0  0  0  0  0  0  0  0  0
   10.9798    3.6043    3.7940 C   0  0  0  0  0  0  0  0  0  0  0  0
   10.7967    2.3119    3.3267 C   0  0  0  0  0  0  0  0  0  0  0  0
   10.2427    2.2330    2.0191 C   0  0  0  0  0  0  0  0  0  0  0  0
    9.8017    1.0339    1.2539 C   0  0  0  0  0  0  0  0  0  0  0  0
   10.2279   -0.2426    1.4148 C   0  0  0  0  0  0  0  0  0  0  0  0
   11.1744   -0.6182    2.4343 C   0  0  0  0  0  0  0  0  0  0  0  0
   11.9373   -0.9282    3.2479 N   0  0  0  0  0  0  0  0  0  0  0  0
    9.8748   -1.2907    0.4878 C   0  0  0  0  0  0  0  0  0  0  0  0
    9.5951   -2.1352   -0.2532 N   0  0  0  0  0  0  0  0  0  0  0  0
   11.4022    4.4615    4.9507 C   0  0  0  0  0  0  0  0  0  0  0  0
   10.4315    4.5199    6.1674 C   0  0  0  0  0  0  0  0  0  0  0  0
   10.8655    5.7175    6.9810 C   0  0  0  0  0  0  0  0  0  0  0  0
   10.5308    6.8027    6.2709 C   0  0  0  0  0  0  0  0  0  0  0  0
    9.8901    6.2991    5.0001 C   0  0  0  0  0  0  0  0  0  0  0  0
    9.1588    5.0939    5.5689 C   0  0  0  0  0  0  0  0  0  0  0  0
   11.0421    5.6542    4.1741 C   0  0  0  0  0  0  0  0  0  0  0  0
    6.7267    1.6550   -0.8904 C   0  0  0  0  0  0  0  0  0  0  0  0
    5.6896    2.1304   -0.0803 C   0  0  0  0  0  0  0  0  0  0  0  0
    5.5477    1.8171    1.3155 N   0  0  0  0  0  0  0  0  0  0  0  0
    5.5110    2.8672    2.3092 C   0  0  0  0  0  0  0  0  0  0  0  0
    4.7340    2.7259    3.4759 C   0  0  0  0  0  0  0  0  0  0  0  0
    4.7074    3.7372    4.4401 C   0  0  0  0  0  0  0  0  0  0  0  0
    5.4638    4.9039    4.2646 C   0  0  0  0  0  0  0  0  0  0  0  0
    5.4089    6.0056    5.2808 C   0  0  0  0  0  0  0  0  0  0  0  0
    6.2279    5.0595    3.0964 C   0  0  0  0  0  0  0  0  0  0  0  0
    6.2470    4.0534    2.1276 C   0  0  0  0  0  0  0  0  0  0  0  0
    5.3101    0.4452    1.6872 C   0  0  0  0  0  0  0  0  0  0  0  0
    6.0711   -0.1571    2.7037 C   0  0  0  0  0  0  0  0  0  0  0  0
    5.8141   -1.4752    3.0888 C   0  0  0  0  0  0  0  0  0  0  0  0
    4.7821   -2.2044    2.4762 C   0  0  0  0  0  0  0  0  0  0  0  0
    4.5173   -3.6224    2.8837 C   0  0  0  0  0  0  0  0  0  0  0  0
    4.0365   -1.6111    1.4460 C   0  0  0  0  0  0  0  0  0  0  0  0
    4.2971   -0.2957    1.0577 C   0  0  0  0  0  0  0  0  0  0  0  0
    4.6780    2.6907   -0.8478 C   0  0  0  0  0  0  0  0  0  0  0  0
    3.0883    3.0487   -0.5095 S   0  0  0  0  0  0  0  0  0  0  0  0
    2.6157    3.1800   -2.1409 C   0  0  0  0  0  0  0  0  0  0  0  0
    3.7458    2.9523   -2.9717 C   0  0  0  0  0  0  0  0  0  0  0  0
    3.7912    3.0908   -4.4153 N   0  0  0  0  0  0  0  0  0  0  0  0
    2.6241    2.8757   -5.2191 C   0  0  0  0  0  0  0  0  0  0  0  0
    2.2994    1.5857   -5.6639 C   0  0  0  0  0  0  0  0  0  0  0  0
    1.1208    1.3715   -6.3871 C   0  0  0  0  0  0  0  0  0  0  0  0
    0.2623    2.4454   -6.6716 C   0  0  0  0  0  0  0  0  0  0  0  0
   -1.0185    2.2177   -7.4191 C   0  0  0  0  0  0  0  0  0  0  0  0
    0.6266    3.7442   -6.2835 C   0  0  0  0  0  0  0  0  0  0  0  0
    1.8017    3.9574   -5.5599 C   0  0  0  0  0  0  0  0  0  0  0  0
    4.9487    3.6632   -5.0663 C   0  0  0  0  0  0  0  0  0  0  0  0
    5.3666    3.1837   -6.3223 C   0  0  0  0  0  0  0  0  0  0  0  0
    6.4655    3.7547   -6.9707 C   0  0  0  0  0  0  0  0  0  0  0  0
    7.1739    4.8082   -6.3716 C   0  0  0  0  0  0  0  0  0  0  0  0
    8.3275    5.4473   -7.0834 C   0  0  0  0  0  0  0  0  0  0  0  0
    6.7488    5.3033   -5.1292 C   0  0  0  0  0  0  0  0  0  0  0  0
    5.6464    4.7364   -4.4826 C   0  0  0  0  0  0  0  0  0  0  0  0
    4.8729    2.6589   -2.1934 C   0  0  0  0  0  0  0  0  0  0  0  0
    6.3525    1.9230   -2.5308 S   0  0  0  0  0  0  0  0  0  0  0  0
    1.2120    2.9180   -2.4757 C   0  0  0  0  0  0  0  0  0  0  0  0
    0.8482    1.9217   -3.2552 O   0  0  0  0  0  0  0  0  0  0  0  0
   -0.4304    1.7568   -3.0810 C   0  0  0  0  0  0  0  0  0  0  0  0
   -1.2402    0.5827   -3.2052 C   0  0  0  0  0  0  0  0  0  0  0  0
   -2.2402    0.7063   -2.2312 C   0  0  0  0  0  0  0  0  0  0  0  0
   -2.1596    2.0523   -1.4957 C   0  0  0  0  0  0  0  0  0  0  0  0
   -3.4645    2.8220   -1.7469 C   0  0  0  0  0  0  0  0  0  0  0  0
   -4.6504    2.3995   -1.1119 C   0  0  0  0  0  0  0  0  0  0  0  0
   -5.8682    3.0278   -1.3749 C   0  0  0  0  0  0  0  0  0  0  0  0
   -5.9345    4.0938   -2.2789 C   0  0  0  0  0  0  0  0  0  0  0  0
   -7.2473    4.7872   -2.5309 C   0  0  0  0  0  0  0  0  0  0  0  0
   -7.5062    5.8525   -1.4698 C   0  0  0  0  0  0  0  0  0  0  0  0
   -4.7617    4.5394   -2.9014 C   0  0  0  0  0  0  0  0  0  0  0  0
   -3.5405    3.9068   -2.6500 C   0  0  0  0  0  0  0  0  0  0  0  0
   -1.8108    1.8775   -0.0055 C   0  0  0  0  0  0  0  0  0  0  0  0
   -0.9197    0.8614    0.4085 C   0  0  0  0  0  0  0  0  0  0  0  0
   -0.5321    0.7477    1.7459 C   0  0  0  0  0  0  0  0  0  0  0  0
   -1.0043    1.6579    2.6999 C   0  0  0  0  0  0  0  0  0  0  0  0
   -0.5464    1.5573    4.1339 C   0  0  0  0  0  0  0  0  0  0  0  0
    0.8014    2.2491    4.3188 C   0  0  0  0  0  0  0  0  0  0  0  0
   -1.8393    2.7089    2.2928 C   0  0  0  0  0  0  0  0  0  0  0  0
   -2.2280    2.8246    0.9532 C   0  0  0  0  0  0  0  0  0  0  0  0
   -0.9555    2.6385   -2.2085 C   0  0  0  0  0  0  0  0  0  0  0  0
    0.1094    3.4114   -1.7745 C   0  0  0  0  0  0  0  0  0  0  0  0
   -2.9632   -0.4230   -1.8265 C   0  0  0  0  0  0  0  0  0  0  0  0
   -2.6477   -1.6348   -2.4394 C   0  0  0  0  0  0  0  0  0  0  0  0
   -2.9177   -2.9485   -1.9589 C   0  0  0  0  0  0  0  0  0  0  0  0
   -2.1635   -3.8646   -2.5712 C   0  0  0  0  0  0  0  0  0  0  0  0
   -1.2420   -3.2488   -3.6014 C   0  0  0  0  0  0  0  0  0  0  0  0
   -1.6197   -1.7725   -3.3805 C   0  0  0  0  0  0  0  0  0  0  0  0
   -0.8904   -0.6434   -3.7845 C   0  0  0  0  0  0  0  0  0  0  0  0
    0.2490   -3.4405   -3.2899 C   0  0  0  0  0  0  0  0  0  0  0  0
    0.7119   -3.5812   -1.9643 C   0  0  0  0  0  0  0  0  0  0  0  0
    2.0805   -3.6660   -1.6898 C   0  0  0  0  0  0  0  0  0  0  0  0
    3.0210   -3.5802   -2.7254 C   0  0  0  0  0  0  0  0  0  0  0  0
    4.4941   -3.6292   -2.4216 C   0  0  0  0  0  0  0  0  0  0  0  0
    5.0687   -2.2218   -2.2809 C   0  0  0  0  0  0  0  0  0  0  0  0
    2.5738   -3.3874   -4.0409 C   0  0  0  0  0  0  0  0  0  0  0  0
    1.2066   -3.3117   -4.3186 C   0  0  0  0  0  0  0  0  0  0  0  0
   -1.6464   -3.8014   -4.9714 C   0  0  0  0  0  0  0  0  0  0  0  0
   -2.3416   -3.0296   -5.9277 C   0  0  0  0  0  0  0  0  0  0  0  0
   -2.7855   -3.6029   -7.1237 C   0  0  0  0  0  0  0  0  0  0  0  0
   -2.5607   -4.9638   -7.3840 C   0  0  0  0  0  0  0  0  0  0  0  0
   -3.0869   -5.5961   -8.6444 C   0  0  0  0  0  0  0  0  0  0  0  0
   -2.0480   -5.5559   -9.7598 C   0  0  0  0  0  0  0  0  0  0  0  0
   -1.8334   -5.7265   -6.4611 C   0  0  0  0  0  0  0  0  0  0  0  0
   -1.3871   -5.1552   -5.2665 C   0  0  0  0  0  0  0  0  0  0  0  0
   -2.3058   -5.0432   -1.8630 C   0  0  0  0  0  0  0  0  0  0  0  0
   -3.1975   -4.6913   -0.8391 C   0  0  0  0  0  0  0  0  0  0  0  0
   -3.5492   -3.4202   -0.9265 O   0  0  0  0  0  0  0  0  0  0  0  0
   -3.5914   -5.5021    0.3143 C   0  0  0  0  0  0  0  0  0  0  0  0
   -4.8803   -6.0497    0.3506 C   0  0  0  0  0  0  0  0  0  0  0  0
   -5.4771   -6.3739    1.5829 C   0  0  0  0  0  0  0  0  0  0  0  0
   -6.7964   -6.8572    1.6751 O   0  0  0  0  0  0  0  0  0  0  0  0
   -7.5834   -7.3658    0.5942 C   0  0  0  0  0  0  0  0  0  0  0  0
   -7.0355   -8.7063    0.1111 C   0  0  0  0  0  0  0  0  0  0  0  0
   -4.7630   -6.1494    2.7691 C   0  0  0  0  0  0  0  0  0  0  0  0
   -3.4228   -5.7388    2.7200 C   0  0  0  0  0  0  0  0  0  0  0  0
   -2.8387   -5.3799    1.4942 C   0  0  0  0  0  0  0  0  0  0  0  0
   -1.5395   -4.8453    1.4055 O   0  0  0  0  0  0  0  0  0  0  0  0
   -0.7325   -4.4186    2.5048 C   0  0  0  0  0  0  0  0  0  0  0  0
   -1.2317   -3.0840    3.0556 C   0  0  0  0  0  0  0  0  0  0  0  0
   -5.4853   -6.1514    4.0547 C   0  0  0  0  0  0  0  0  0  0  0  0
   -5.8638   -5.0075    4.6611 C   0  0  0  0  0  0  0  0  0  0  0  0
   -5.6462   -3.6506    4.1290 C   0  0  0  0  0  0  0  0  0  0  0  0
   -4.8754   -3.3247    3.1879 O   0  0  0  0  0  0  0  0  0  0  0  0
   -6.5206   -2.7318    4.8102 C   0  0  0  0  0  0  0  0  0  0  0  0
   -6.6700   -1.3553    4.5401 C   0  0  0  0  0  0  0  0  0  0  0  0
   -7.6745   -0.7508    5.2671 C   0  0  0  0  0  0  0  0  0  0  0  0
   -8.5132   -1.4598    6.1878 C   0  0  0  0  0  0  0  0  0  0  0  0
   -8.3705   -2.8138    6.4550 C   0  0  0  0  0  0  0  0  0  0  0  0
   -7.3012   -3.4469    5.7562 C   0  0  0  0  0  0  0  0  0  0  0  0
   -6.8314   -4.8635    5.7948 C   0  0  0  0  0  0  0  0  0  0  0  0
   -7.0582   -5.7658    6.7836 C   0  0  0  0  0  0  0  0  0  0  0  0
   -7.9234   -5.4899    7.8989 C   0  0  0  0  0  0  0  0  0  0  0  0
   -8.6152   -5.2797    8.8048 N   0  0  0  0  0  0  0  0  0  0  0  0
   -6.3486   -7.0173    6.8621 C   0  0  0  0  0  0  0  0  0  0  0  0
   -5.7788   -8.0223    6.9367 N   0  0  0  0  0  0  0  0  0  0  0  0
   -9.2993   -0.2069    6.4537 C   0  0  0  0  0  0  0  0  0  0  0  0
  -10.7088   -0.0668    5.8007 C   0  0  0  0  0  0  0  0  0  0  0  0
  -10.7487   -0.8098    4.4844 C   0  0  0  0  0  0  0  0  0  0  0  0
   -9.9530   -0.1432    3.6459 C   0  0  0  0  0  0  0  0  0  0  0  0
   -9.3973    1.0290    4.4223 C   0  0  0  0  0  0  0  0  0  0  0  0
  -10.6128    1.3532    5.2716 C   0  0  0  0  0  0  0  0  0  0  0  0
   -8.4235    0.5211    5.5275 C   0  0  0  0  0  0  0  0  0  0  0  0
    7.7112   -0.1327   -0.1733 H   0  0  0  0  0  0  0  0  0  0  0  0
    9.7318    5.5992    1.2505 H   0  0  0  0  0  0  0  0  0  0  0  0
   10.9995    1.4588    3.9543 H   0  0  0  0  0  0  0  0  0  0  0  0
   12.4843    4.3753    5.1961 H   0  0  0  0  0  0  0  0  0  0  0  0
   10.3159    3.5719    6.7367 H   0  0  0  0  0  0  0  0  0  0  0  0
   11.2811    5.7182    7.9829 H   0  0  0  0  0  0  0  0  0  0  0  0
   10.6200    7.8330    6.6002 H   0  0  0  0  0  0  0  0  0  0  0  0
    9.2594    7.0349    4.4540 H   0  0  0  0  0  0  0  0  0  0  0  0
    8.6807    4.4401    4.8039 H   0  0  0  0  0  0  0  0  0  0  0  0
    8.3949    5.3645    6.3408 H   0  0  0  0  0  0  0  0  0  0  0  0
   11.8952    6.3265    3.9280 H   0  0  0  0  0  0  0  0  0  0  0  0
    4.1408    1.8357    3.6391 H   0  0  0  0  0  0  0  0  0  0  0  0
    4.0936    3.6074    5.3254 H   0  0  0  0  0  0  0  0  0  0  0  0
    4.6820    6.7766    4.9491 H   0  0  0  0  0  0  0  0  0  0  0  0
    5.0904    5.6158    6.2725 H   0  0  0  0  0  0  0  0  0  0  0  0
    6.4084    6.4771    5.3964 H   0  0  0  0  0  0  0  0  0  0  0  0
    6.8100    5.9596    2.9383 H   0  0  0  0  0  0  0  0  0  0  0  0
    6.8422    4.1973    1.2377 H   0  0  0  0  0  0  0  0  0  0  0  0
    6.8642    0.3976    3.1885 H   0  0  0  0  0  0  0  0  0  0  0  0
    6.4177   -1.9235    3.8693 H   0  0  0  0  0  0  0  0  0  0  0  0
    5.2411   -4.2939    2.3768 H   0  0  0  0  0  0  0  0  0  0  0  0
    4.6235   -3.7361    3.9842 H   0  0  0  0  0  0  0  0  0  0  0  0
    3.4857   -3.9305    2.6045 H   0  0  0  0  0  0  0  0  0  0  0  0
    3.2480   -2.1636    0.9497 H   0  0  0  0  0  0  0  0  0  0  0  0
    3.6980    0.1487    0.2720 H   0  0  0  0  0  0  0  0  0  0  0  0
    2.9392    0.7479   -5.4142 H   0  0  0  0  0  0  0  0  0  0  0  0
    0.8671    0.3658   -6.6964 H   0  0  0  0  0  0  0  0  0  0  0  0
   -1.8139    2.8930   -7.0334 H   0  0  0  0  0  0  0  0  0  0  0  0
   -0.8625    2.4255   -8.4990 H   0  0  0  0  0  0  0  0  0  0  0  0
   -1.3716    1.1708   -7.2963 H   0  0  0  0  0  0  0  0  0  0  0  0
   -0.0114    4.5840   -6.5235 H   0  0  0  0  0  0  0  0  0  0  0  0
    2.0622    4.9586   -5.2419 H   0  0  0  0  0  0  0  0  0  0  0  0
    4.8467    2.3658   -6.7997 H   0  0  0  0  0  0  0  0  0  0  0  0
    6.7617    3.3775   -7.9427 H   0  0  0  0  0  0  0  0  0  0  0  0
    7.9666    6.3151   -7.6756 H   0  0  0  0  0  0  0  0  0  0  0  0
    8.8224    4.7226   -7.7658 H   0  0  0  0  0  0  0  0  0  0  0  0
    9.0879    5.7998   -6.3515 H   0  0  0  0  0  0  0  0  0  0  0  0
    7.2707    6.1305   -4.6616 H   0  0  0  0  0  0  0  0  0  0  0  0
    5.3295    5.1449   -3.5318 H   0  0  0  0  0  0  0  0  0  0  0  0
   -4.6350    1.5845   -0.4017 H   0  0  0  0  0  0  0  0  0  0  0  0
   -6.7639    2.6901   -0.8675 H   0  0  0  0  0  0  0  0  0  0  0  0
   -8.0762    4.0462   -2.5177 H   0  0  0  0  0  0  0  0  0  0  0  0
   -7.2473    5.2666   -3.5350 H   0  0  0  0  0  0  0  0  0  0  0  0
   -8.4900    6.3292   -1.6628 H   0  0  0  0  0  0  0  0  0  0  0  0
   -7.5309    5.3928   -0.4579 H   0  0  0  0  0  0  0  0  0  0  0  0
   -6.7135    6.6311   -1.4987 H   0  0  0  0  0  0  0  0  0  0  0  0
   -4.7944    5.3783   -3.5858 H   0  0  0  0  0  0  0  0  0  0  0  0
   -2.6641    4.2691   -3.1691 H   0  0  0  0  0  0  0  0  0  0  0  0
   -0.5035    0.1612   -0.3033 H   0  0  0  0  0  0  0  0  0  0  0  0
    0.1492   -0.0442    2.0352 H   0  0  0  0  0  0  0  0  0  0  0  0
   -0.4565    0.4885    4.4276 H   0  0  0  0  0  0  0  0  0  0  0  0
   -1.2937    2.0240    4.8117 H   0  0  0  0  0  0  0  0  0  0  0  0
    1.5657    1.7940    3.6546 H   0  0  0  0  0  0  0  0  0  0  0  0
    0.7081    3.3301    4.0838 H   0  0  0  0  0  0  0  0  0  0  0  0
    1.1372    2.1418    5.3725 H   0  0  0  0  0  0  0  0  0  0  0  0
   -2.1864    3.4424    3.0123 H   0  0  0  0  0  0  0  0  0  0  0  0
   -2.8446    3.6674    0.6686 H   0  0  0  0  0  0  0  0  0  0  0  0
    0.1305    4.0586   -0.9075 H   0  0  0  0  0  0  0  0  0  0  0  0
   -3.6355   -0.3966   -0.9837 H   0  0  0  0  0  0  0  0  0  0  0  0
   -0.0156   -0.7293   -4.4157 H   0  0  0  0  0  0  0  0  0  0  0  0
    0.0211   -3.6082   -1.1329 H   0  0  0  0  0  0  0  0  0  0  0  0
    2.4070   -3.7888   -0.6644 H   0  0  0  0  0  0  0  0  0  0  0  0
    4.6749   -4.1945   -1.4803 H   0  0  0  0  0  0  0  0  0  0  0  0
    5.0313   -4.1648   -3.2337 H   0  0  0  0  0  0  0  0  0  0  0  0
    6.1432   -2.2818   -2.0019 H   0  0  0  0  0  0  0  0  0  0  0  0
    4.5276   -1.6607   -1.4900 H   0  0  0  0  0  0  0  0  0  0  0  0
    4.9802   -1.6718   -3.2427 H   0  0  0  0  0  0  0  0  0  0  0  0
    3.2856   -3.2825   -4.8491 H   0  0  0  0  0  0  0  0  0  0  0  0
    0.8997   -3.1302   -5.3412 H   0  0  0  0  0  0  0  0  0  0  0  0
   -2.5689   -1.9865   -5.7546 H   0  0  0  0  0  0  0  0  0  0  0  0
   -3.3267   -2.9935   -7.8379 H   0  0  0  0  0  0  0  0  0  0  0  0
   -3.3685   -6.6550   -8.4472 H   0  0  0  0  0  0  0  0  0  0  0  0
   -4.0055   -5.0693   -8.9835 H   0  0  0  0  0  0  0  0  0  0  0  0
   -2.4661   -6.0448  -10.6643 H   0  0  0  0  0  0  0  0  0  0  0  0
   -1.7899   -4.5040  -10.0081 H   0  0  0  0  0  0  0  0  0  0  0  0
   -1.1290   -6.1000   -9.4519 H   0  0  0  0  0  0  0  0  0  0  0  0
   -1.6283   -6.7728   -6.6563 H   0  0  0  0  0  0  0  0  0  0  0  0
   -0.8517   -5.7738   -4.5567 H   0  0  0  0  0  0  0  0  0  0  0  0
   -1.7610   -5.9687   -1.9877 H   0  0  0  0  0  0  0  0  0  0  0  0
   -5.4460   -6.1176   -0.5699 H   0  0  0  0  0  0  0  0  0  0  0  0
   -7.6380   -6.6324   -0.2406 H   0  0  0  0  0  0  0  0  0  0  0  0
   -8.6175   -7.5267    0.9633 H   0  0  0  0  0  0  0  0  0  0  0  0
   -7.7212   -9.1470   -0.6474 H   0  0  0  0  0  0  0  0  0  0  0  0
   -6.9527   -9.4098    0.9689 H   0  0  0  0  0  0  0  0  0  0  0  0
   -6.0333   -8.5745   -0.3503 H   0  0  0  0  0  0  0  0  0  0  0  0
   -2.8905   -5.5951    3.6485 H   0  0  0  0  0  0  0  0  0  0  0  0
    0.3064   -4.2739    2.1345 H   0  0  0  0  0  0  0  0  0  0  0  0
   -0.6982   -5.1943    3.2997 H   0  0  0  0  0  0  0  0  0  0  0  0
   -2.2629   -3.1847    3.4508 H   0  0  0  0  0  0  0  0  0  0  0  0
   -1.2223   -2.3152    2.2530 H   0  0  0  0  0  0  0  0  0  0  0  0
   -0.5669   -2.7523    3.8823 H   0  0  0  0  0  0  0  0  0  0  0  0
   -5.8885   -7.0978    4.3794 H   0  0  0  0  0  0  0  0  0  0  0  0
   -6.0759   -0.8215    3.8070 H   0  0  0  0  0  0  0  0  0  0  0  0
   -9.0534   -3.3186    7.1200 H   0  0  0  0  0  0  0  0  0  0  0  0
   -9.2268    0.1510    7.5042 H   0  0  0  0  0  0  0  0  0  0  0  0
  -11.5669   -0.2676    6.4773 H   0  0  0  0  0  0  0  0  0  0  0  0
  -11.3578   -1.6719    4.2329 H   0  0  0  0  0  0  0  0  0  0  0  0
   -9.7985   -0.3682    2.5950 H   0  0  0  0  0  0  0  0  0  0  0  0
   -9.0125    1.8646    3.7984 H   0  0  0  0  0  0  0  0  0  0  0  0
  -11.5013    1.6650    4.6720 H   0  0  0  0  0  0  0  0  0  0  0  0
  -10.4137    2.1120    6.0659 H   0  0  0  0  0  0  0  0  0  0  0  0
   -7.8126    1.3127    6.0180 H   0  0  0  0  0  0  0  0  0  0  0  0
  1  2  2  3
  2  3  1  0
  3  4  2  0
  3  5  1  0
  5  6  2  0
  6  7  1  0
  7  8  2  0
  8  9  1  0
  9 10  2  0
 10 11  1  0
 11 12  2  3
 12 13  1  0
 13 14  3  0
 12 15  1  0
 15 16  3  0
  8 17  1  0
 17 18  1  0
 18 19  1  0
 19 20  2  0
 20 21  1  0
 21 22  1  0
 21 23  1  0
  1 24  1  0
 24 25  2  0
 25 26  1  0
 26 27  1  0
 27 28  2  0
 28 29  1  0
 29 30  2  0
 30 31  1  0
 30 32  1  0
 32 33  2  0
 26 34  1  0
 34 35  2  0
 35 36  1  0
 36 37  2  0
 37 38  1  0
 37 39  1  0
 39 40  2  0
 25 41  1  0
 41 42  1  0
 42 43  1  0
 43 44  2  0
 44 45  1  0
 45 46  1  0
 46 47  2  0
 47 48  1  0
 48 49  2  0
 49 50  1  0
 49 51  1  0
 51 52  2  0
 45 53  1  0
 53 54  2  0
 54 55  1  0
 55 56  2  0
 56 57  1  0
 56 58  1  0
 58 59  2  0
 44 60  1  0
 60 61  1  0
 43 62  1  0
 62 63  1  0
 63 64  1  0
 64 65  1  0
 65 66  2  0
 66 67  1  0
 67 68  1  0
 68 69  2  0
 69 70  1  0
 70 71  2  0
 71 72  1  0
 72 73  1  0
 71 74  1  0
 74 75  2  0
 67 76  1  0
 76 77  2  0
 77 78  1  0
 78 79  2  0
 79 80  1  0
 80 81  1  0
 79 82  1  0
 82 83  2  0
 67 84  1  0
 84 85  1  0
 66 86  1  0
 86 87  2  0
 87 88  1  0
 88 89  2  0
 89 90  1  0
 90 91  1  0
 91 92  2  0
 90 93  1  0
 93 94  2  0
 94 95  1  0
 95 96  2  0
 96 97  1  0
 97 98  1  0
 96 99  1  0
 99100  2  0
 90101  1  0
101102  2  0
102103  1  0
103104  2  0
104105  1  0
105106  1  0
104107  1  0
107108  2  0
 89109  1  0
109110  2  0
110111  1  0
110112  1  0
112113  2  0
113114  1  0
114115  1  0
115116  1  0
116117  1  0
114118  2  0
118119  1  0
119120  2  0
120121  1  0
121122  1  0
122123  1  0
118124  1  0
124125  2  3
125126  1  0
126127  2  0
126128  1  0
128129  2  0
129130  1  0
130131  2  0
131132  1  0
132133  2  0
133134  1  0
134135  2  3
135136  1  0
136137  3  0
135138  1  0
138139  3  0
131140  1  0
140141  1  0
141142  1  0
142143  2  0
143144  1  0
144145  1  0
144146  1  0
 11  2  1  0
 23 17  1  0
 61 24  1  0
 85 62  2  0
 91 87  1  0
100 93  1  0
108101  1  0
120112  1  0
134125  1  0
146140  1  0
 10  5  1  0
 22 18  1  0
 33 27  1  0
 40 34  1  0
 60 41  2  0
 84 64  2  0
111 88  1  0
133128  1  0
145141  1  0
 23  7  1  0
 52 46  1  0
 59 53  1  0
 92 65  1  0
146130  1  0
 75 68  1  0
 83 76  1  0
  1147  1  0
  6148  1  0
  9149  1  0
 17150  1  0
 18151  1  0
 19152  1  0
 20153  1  0
 21154  1  0
 22155  1  0
 22156  1  0
 23157  1  0
 28158  1  0
 29159  1  0
 31160  1  0
 31161  1  0
 31162  1  0
 32163  1  0
 33164  1  0
 35165  1  0
 36166  1  0
 38167  1  0
 38168  1  0
 38169  1  0
 39170  1  0
 40171  1  0
 47172  1  0
 48173  1  0
 50174  1  0
 50175  1  0
 50176  1  0
 51177  1  0
 52178  1  0
 54179  1  0
 55180  1  0
 57181  1  0
 57182  1  0
 57183  1  0
 58184  1  0
 59185  1  0
 69186  1  0
 70187  1  0
 72188  1  0
 72189  1  0
 73190  1  0
 73191  1  0
 73192  1  0
 74193  1  0
 75194  1  0
 77195  1  0
 78196  1  0
 80197  1  0
 80198  1  0
 81199  1  0
 81200  1  0
 81201  1  0
 82202  1  0
 83203  1  0
 85204  1  0
 86205  1  0
 92206  1  0
 94207  1  0
 95208  1  0
 97209  1  0
 97210  1  0
 98211  1  0
 98212  1  0
 98213  1  0
 99214  1  0
100215  1  0
102216  1  0
103217  1  0
105218  1  0
105219  1  0
106220  1  0
106221  1  0
106222  1  0
107223  1  0
108224  1  0
109225  1  0
113226  1  0
116227  1  0
116228  1  0
117229  1  0
117230  1  0
117231  1  0
119232  1  0
122233  1  0
122234  1  0
123235  1  0
123236  1  0
123237  1  0
124238  1  0
129239  1  0
132240  1  0
140241  1  0
141242  1  0
142243  1  0
143244  1  0
144245  1  0
145246  1  0
145247  1  0
146248  1  0
M  END

