
     RDKit          3D

225251  0  0  0  0  0  0  0  0999 V2000
   -7.0379    1.0870    1.2954 C   0  0  0  0  0  0  0  0  0  0  0  0
   -6.1260    1.7196    2.0726 C   0  0  0  0  0  0  0  0  0  0  0  0
   -4.8978    2.3616    1.5676 C   0  0  0  0  0  0  0  0  0  0  0  0
   -4.2950    2.0960    0.4967 O   0  0  0  0  0  0  0  0  0  0  0  0
   -4.4345    3.3150    2.5385 C   0  0  0  0  0  0  0  0  0  0  0  0
   -3.4015    4.2590    2.3494 C   0  0  0  0  0  0  0  0  0  0  0  0
   -3.2089    5.0924    3.4329 C   0  0  0  0  0  0  0  0  0  0  0  0
   -3.9957    5.0207    4.6284 C   0  0  0  0  0  0  0  0  0  0  0  0
   -5.0306    4.1138    4.8046 C   0  0  0  0  0  0  0  0  0  0  0  0
   -5.2355    3.2270    3.7036 C   0  0  0  0  0  0  0  0  0  0  0  0
   -6.2731    2.1641    3.5002 C   0  0  0  0  0  0  0  0  0  0  0  0
   -7.0990    1.6373    4.4443 C   0  0  0  0  0  0  0  0  0  0  0  0
   -8.0140    0.5593    4.1679 C   0  0  0  0  0  0  0  0  0  0  0  0
   -8.7651   -0.2931    3.9512 N   0  0  0  0  0  0  0  0  0  0  0  0
   -7.1284    2.1095    5.8044 C   0  0  0  0  0  0  0  0  0  0  0  0
   -7.1697    2.4744    6.9021 N   0  0  0  0  0  0  0  0  0  0  0  0
   -3.2324    6.1771    5.2133 C   0  0  0  0  0  0  0  0  0  0  0  0
   -3.9412    7.5646    5.2766 C   0  0  0  0  0  0  0  0  0  0  0  0
   -4.9338    7.6899    4.1437 C   0  0  0  0  0  0  0  0  0  0  0  0
   -4.2249    7.7547    3.0156 C   0  0  0  0  0  0  0  0  0  0  0  0
   -2.7696    7.6747    3.4223 C   0  0  0  0  0  0  0  0  0  0  0  0
   -2.8403    8.4498    4.7255 C   0  0  0  0  0  0  0  0  0  0  0  0
   -2.4378    6.2564    3.9807 C   0  0  0  0  0  0  0  0  0  0  0  0
   -6.8730    1.0092   -0.1645 C   0  0  0  0  0  0  0  0  0  0  0  0
   -6.8817    2.1384   -1.0066 C   0  0  0  0  0  0  0  0  0  0  0  0
   -7.8482    3.2134   -0.9152 N   0  0  0  0  0  0  0  0  0  0  0  0
   -8.6554    3.5019   -2.0763 C   0  0  0  0  0  0  0  0  0  0  0  0
   -9.0195    4.8251   -2.3831 C   0  0  0  0  0  0  0  0  0  0  0  0
   -9.7510    5.1037   -3.5451 C   0  0  0  0  0  0  0  0  0  0  0  0
  -10.1258    4.0628   -4.4136 C   0  0  0  0  0  0  0  0  0  0  0  0
  -10.9010    4.3582   -5.6637 C   0  0  0  0  0  0  0  0  0  0  0  0
   -9.8188    2.7362   -4.0757 C   0  0  0  0  0  0  0  0  0  0  0  0
   -9.0970    2.4572   -2.9139 C   0  0  0  0  0  0  0  0  0  0  0  0
   -8.3339    3.6562    0.3645 C   0  0  0  0  0  0  0  0  0  0  0  0
   -7.5900    4.5675    1.1303 C   0  0  0  0  0  0  0  0  0  0  0  0
   -8.0518    4.9646    2.3943 C   0  0  0  0  0  0  0  0  0  0  0  0
   -9.2525    4.4456    2.9049 C   0  0  0  0  0  0  0  0  0  0  0  0
   -9.7621    4.8653    4.2534 C   0  0  0  0  0  0  0  0  0  0  0  0
   -9.9942    3.5326    2.1360 C   0  0  0  0  0  0  0  0  0  0  0  0
   -9.5445    3.1548    0.8673 C   0  0  0  0  0  0  0  0  0  0  0  0
   -6.0704    1.9490   -2.1320 C   0  0  0  0  0  0  0  0  0  0  0  0
   -5.0804    3.0599   -2.8979 S   0  0  0  0  0  0  0  0  0  0  0  0
   -3.9051    1.9378   -3.4238 C   0  0  0  0  0  0  0  0  0  0  0  0
   -4.3625    0.6441   -3.0671 C   0  0  0  0  0  0  0  0  0  0  0  0
   -3.7101   -0.5951   -3.4437 N   0  0  0  0  0  0  0  0  0  0  0  0
   -3.8973   -1.7706   -2.6448 C   0  0  0  0  0  0  0  0  0  0  0  0
   -3.0349   -2.0400   -1.5718 C   0  0  0  0  0  0  0  0  0  0  0  0
   -3.2480   -3.1681   -0.7738 C   0  0  0  0  0  0  0  0  0  0  0  0
   -4.3328   -4.0254   -1.0342 C   0  0  0  0  0  0  0  0  0  0  0  0
   -4.6062   -5.2077   -0.1545 C   0  0  0  0  0  0  0  0  0  0  0  0
   -5.1838   -3.7562   -2.1175 C   0  0  0  0  0  0  0  0  0  0  0  0
   -4.9548   -2.6444   -2.9284 C   0  0  0  0  0  0  0  0  0  0  0  0
   -3.1797   -0.8000   -4.7722 C   0  0  0  0  0  0  0  0  0  0  0  0
   -3.8641   -0.3196   -5.9054 C   0  0  0  0  0  0  0  0  0  0  0  0
   -3.4428   -0.6817   -7.1897 C   0  0  0  0  0  0  0  0  0  0  0  0
   -2.3357   -1.5286   -7.3605 C   0  0  0  0  0  0  0  0  0  0  0  0
   -1.9040   -1.9406   -8.7384 C   0  0  0  0  0  0  0  0  0  0  0  0
   -1.6144   -1.9564   -6.2373 C   0  0  0  0  0  0  0  0  0  0  0  0
   -2.0403   -1.6045   -4.9544 C   0  0  0  0  0  0  0  0  0  0  0  0
   -5.5053    0.7126   -2.2541 C   0  0  0  0  0  0  0  0  0  0  0  0
   -5.9191   -0.1851   -0.8922 S   0  0  0  0  0  0  0  0  0  0  0  0
   -2.4604    2.2881   -3.5042 C   0  0  0  0  0  0  0  0  0  0  0  0
   -1.8907    3.5889   -3.4816 C   0  0  0  0  0  0  0  0  0  0  0  0
   -2.6041    4.8470   -3.7433 C   0  0  0  0  0  0  0  0  0  0  0  0
   -2.9257    5.7069   -2.6816 C   0  0  0  0  0  0  0  0  0  0  0  0
   -3.5461    6.9322   -2.9378 C   0  0  0  0  0  0  0  0  0  0  0  0
   -3.8325    7.3140   -4.2511 C   0  0  0  0  0  0  0  0  0  0  0  0
   -3.5198    6.4581   -5.3221 C   0  0  0  0  0  0  0  0  0  0  0  0
   -3.7633    6.9047   -6.7396 C   0  0  0  0  0  0  0  0  0  0  0  0
   -2.5079    7.5400   -7.3303 C   0  0  0  0  0  0  0  0  0  0  0  0
   -2.9040    5.2230   -5.0619 C   0  0  0  0  0  0  0  0  0  0  0  0
   -0.5463    3.5630   -3.0766 C   0  0  0  0  0  0  0  0  0  0  0  0
    0.5624    4.7798   -2.6111 S   0  0  0  0  0  0  0  0  0  0  0  0
    1.6997    3.6094   -2.1216 C   0  0  0  0  0  0  0  0  0  0  0  0
    2.8361    3.5392   -1.3577 C   0  0  0  0  0  0  0  0  0  0  0  0
    3.5464    4.5276   -0.6656 C   0  0  0  0  0  0  0  0  0  0  0  0
    4.5635    4.1307    0.2579 C   0  0  0  0  0  0  0  0  0  0  0  0
    5.1942    5.1161    0.9397 N   0  0  0  0  0  0  0  0  0  0  0  0
    4.4049    6.4335    0.3184 S   0  0  0  0  0  0  0  0  0  0  0  0
    3.3010    5.8560   -0.7720 N   0  0  0  0  0  0  0  0  0  0  0  0
    4.8494    2.7681    0.3987 C   0  0  0  0  0  0  0  0  0  0  0  0
    5.8024    2.0923    1.1228 C   0  0  0  0  0  0  0  0  0  0  0  0
    7.0486    2.3245    2.2728 S   0  0  0  0  0  0  0  0  0  0  0  0
    7.4090    0.6458    2.2957 C   0  0  0  0  0  0  0  0  0  0  0  0
    8.2359   -0.1940    3.0675 C   0  0  0  0  0  0  0  0  0  0  0  0
    9.3110    0.2734    3.9792 C   0  0  0  0  0  0  0  0  0  0  0  0
   10.2217    1.2506    3.5376 C   0  0  0  0  0  0  0  0  0  0  0  0
   11.3050    1.6246    4.3407 C   0  0  0  0  0  0  0  0  0  0  0  0
   11.4974    1.0255    5.5876 C   0  0  0  0  0  0  0  0  0  0  0  0
   10.6012    0.0488    6.0456 C   0  0  0  0  0  0  0  0  0  0  0  0
   10.8224   -0.6235    7.3745 C   0  0  0  0  0  0  0  0  0  0  0  0
   10.1440    0.1459    8.5016 C   0  0  0  0  0  0  0  0  0  0  0  0
    9.4994   -0.3029    5.2482 C   0  0  0  0  0  0  0  0  0  0  0  0
    7.9764   -1.5475    2.7386 C   0  0  0  0  0  0  0  0  0  0  0  0
    6.7782   -1.6632    1.5465 S   0  0  0  0  0  0  0  0  0  0  0  0
    6.5904   -0.0204    1.4226 C   0  0  0  0  0  0  0  0  0  0  0  0
    5.6974    0.7938    0.7659 C   0  0  0  0  0  0  0  0  0  0  0  0
    4.7556    0.5559   -0.1710 N   0  0  0  0  0  0  0  0  0  0  0  0
    4.1601    1.7799   -0.3333 C   0  0  0  0  0  0  0  0  0  0  0  0
    3.0509    2.1681   -1.1345 C   0  0  0  0  0  0  0  0  0  0  0  0
    1.9959    1.4268   -1.6129 N   0  0  0  0  0  0  0  0  0  0  0  0
    1.2317    2.3441   -2.2578 C   0  0  0  0  0  0  0  0  0  0  0  0
   -0.0457    2.3200   -2.8046 C   0  0  0  0  0  0  0  0  0  0  0  0
   -1.2463    1.1899   -3.0305 S   0  0  0  0  0  0  0  0  0  0  0  0
    1.5176    0.1022   -1.1698 C   0  0  0  0  0  0  0  0  0  0  0  0
    1.3997    0.0158    0.3539 C   0  0  0  0  0  0  0  0  0  0  0  0
    4.7756   -0.6185   -1.0584 C   0  0  0  0  0  0  0  0  0  0  0  0
    4.8493   -0.2249   -2.5355 C   0  0  0  0  0  0  0  0  0  0  0  0
    8.4299   -2.7841    3.3910 C   0  0  0  0  0  0  0  0  0  0  0  0
    7.6931   -3.2849    4.4848 C   0  0  0  0  0  0  0  0  0  0  0  0
    7.7021   -4.6796    4.8012 C   0  0  0  0  0  0  0  0  0  0  0  0
    6.9037   -5.0746    5.8294 N   0  0  0  0  0  0  0  0  0  0  0  0
    6.2244   -3.6322    6.2562 S   0  0  0  0  0  0  0  0  0  0  0  0
    6.8511   -2.5126    5.2165 N   0  0  0  0  0  0  0  0  0  0  0  0
    8.3861   -5.5929    3.9795 C   0  0  0  0  0  0  0  0  0  0  0  0
    9.1750   -5.0789    2.9340 C   0  0  0  0  0  0  0  0  0  0  0  0
    9.8805   -5.8478    1.9956 C   0  0  0  0  0  0  0  0  0  0  0  0
   10.4472   -5.0867    0.9803 C   0  0  0  0  0  0  0  0  0  0  0  0
   11.2094   -5.6375   -0.1448 C   0  0  0  0  0  0  0  0  0  0  0  0
   11.6329   -4.8740   -1.0565 O   0  0  0  0  0  0  0  0  0  0  0  0
   11.4687   -7.0133   -0.1816 O   0  0  0  0  0  0  0  0  0  0  0  0
   12.1217   -7.6792   -1.2586 C   0  0  0  0  0  0  0  0  0  0  0  0
   11.1558   -7.8891   -2.4173 C   0  0  0  0  0  0  0  0  0  0  0  0
   10.0626   -3.4567    1.2313 S   0  0  0  0  0  0  0  0  0  0  0  0
    9.1943   -3.7100    2.6586 C   0  0  0  0  0  0  0  0  0  0  0  0
    8.1211   -7.0430    4.0615 C   0  0  0  0  0  0  0  0  0  0  0  0
    6.9468   -7.5877    3.6713 C   0  0  0  0  0  0  0  0  0  0  0  0
    5.8079   -6.8539    3.0928 C   0  0  0  0  0  0  0  0  0  0  0  0
    5.6609   -5.6053    3.0409 O   0  0  0  0  0  0  0  0  0  0  0  0
    4.8878   -7.8065    2.5146 C   0  0  0  0  0  0  0  0  0  0  0  0
    3.7066   -7.5384    1.8191 C   0  0  0  0  0  0  0  0  0  0  0  0
    3.0000   -8.6145    1.2591 C   0  0  0  0  0  0  0  0  0  0  0  0
    1.7954   -8.3956    0.5671 C   0  0  0  0  0  0  0  0  0  0  0  0
    1.1117   -9.4724   -0.0098 C   0  0  0  0  0  0  0  0  0  0  0  0
   -0.0493   -9.2526   -0.6782 F   0  0  0  0  0  0  0  0  0  0  0  0
    1.6328  -10.7651    0.0804 C   0  0  0  0  0  0  0  0  0  0  0  0
    0.9801  -11.8001   -0.5030 F   0  0  0  0  0  0  0  0  0  0  0  0
    2.8307  -10.9977    0.7698 C   0  0  0  0  0  0  0  0  0  0  0  0
    3.5205   -9.9342    1.3713 C   0  0  0  0  0  0  0  0  0  0  0  0
    4.7201  -10.1672    2.0775 C   0  0  0  0  0  0  0  0  0  0  0  0
    5.3732   -9.0869    2.6898 C   0  0  0  0  0  0  0  0  0  0  0  0
    6.6242   -9.0431    3.5086 C   0  0  0  0  0  0  0  0  0  0  0  0
    7.2162  -10.0888    4.1458 C   0  0  0  0  0  0  0  0  0  0  0  0
    6.7311  -11.4395    4.0280 C   0  0  0  0  0  0  0  0  0  0  0  0
    6.3509  -12.5300    3.9443 N   0  0  0  0  0  0  0  0  0  0  0  0
    8.2962   -9.9185    5.0848 C   0  0  0  0  0  0  0  0  0  0  0  0
    9.1662   -9.7943    5.8383 N   0  0  0  0  0  0  0  0  0  0  0  0
   -7.9792    0.7481    1.6927 H   0  0  0  0  0  0  0  0  0  0  0  0
   -2.8343    4.3394    1.4296 H   0  0  0  0  0  0  0  0  0  0  0  0
   -5.6188    4.1428    5.7048 H   0  0  0  0  0  0  0  0  0  0  0  0
   -2.6321    5.9159    6.1100 H   0  0  0  0  0  0  0  0  0  0  0  0
   -4.3301    7.8558    6.2728 H   0  0  0  0  0  0  0  0  0  0  0  0
   -6.0117    7.7916    4.2265 H   0  0  0  0  0  0  0  0  0  0  0  0
   -4.6303    7.9173    2.0207 H   0  0  0  0  0  0  0  0  0  0  0  0
   -2.0527    8.0670    2.6713 H   0  0  0  0  0  0  0  0  0  0  0  0
   -1.8957    8.4116    5.3198 H   0  0  0  0  0  0  0  0  0  0  0  0
   -3.1529    9.5119    4.5862 H   0  0  0  0  0  0  0  0  0  0  0  0
   -1.3519    6.0464    4.1227 H   0  0  0  0  0  0  0  0  0  0  0  0
   -8.7118    5.6349   -1.7343 H   0  0  0  0  0  0  0  0  0  0  0  0
  -10.0119    6.1317   -3.7697 H   0  0  0  0  0  0  0  0  0  0  0  0
  -11.9881    4.2594   -5.4623 H   0  0  0  0  0  0  0  0  0  0  0  0
  -10.6874    5.3864   -6.0239 H   0  0  0  0  0  0  0  0  0  0  0  0
  -10.6156    3.6476   -6.4686 H   0  0  0  0  0  0  0  0  0  0  0  0
  -10.1322    1.9154   -4.7123 H   0  0  0  0  0  0  0  0  0  0  0  0
   -8.8736    1.4232   -2.6729 H   0  0  0  0  0  0  0  0  0  0  0  0
   -6.6498    4.9481    0.7562 H   0  0  0  0  0  0  0  0  0  0  0  0
   -7.4693    5.6759    2.9712 H   0  0  0  0  0  0  0  0  0  0  0  0
  -10.7135    5.4294    4.1368 H   0  0  0  0  0  0  0  0  0  0  0  0
   -9.9488    3.9660    4.8789 H   0  0  0  0  0  0  0  0  0  0  0  0
   -9.0288    5.5108    4.7822 H   0  0  0  0  0  0  0  0  0  0  0  0
  -10.9159    3.1108    2.5228 H   0  0  0  0  0  0  0  0  0  0  0  0
  -10.1202    2.4368    0.2916 H   0  0  0  0  0  0  0  0  0  0  0  0
   -2.2089   -1.3748   -1.3558 H   0  0  0  0  0  0  0  0  0  0  0  0
   -2.5757   -3.3644    0.0546 H   0  0  0  0  0  0  0  0  0  0  0  0
   -5.6250   -5.1249    0.2792 H   0  0  0  0  0  0  0  0  0  0  0  0
   -4.5395   -6.1371   -0.7562 H   0  0  0  0  0  0  0  0  0  0  0  0
   -3.8734   -5.2724    0.6790 H   0  0  0  0  0  0  0  0  0  0  0  0
   -6.0265   -4.4057   -2.3289 H   0  0  0  0  0  0  0  0  0  0  0  0
   -5.6275   -2.4336   -3.7531 H   0  0  0  0  0  0  0  0  0  0  0  0
   -4.7530    0.2891   -5.7903 H   0  0  0  0  0  0  0  0  0  0  0  0
   -4.0029   -0.3305   -8.0511 H   0  0  0  0  0  0  0  0  0  0  0  0
   -2.7865   -2.0995   -9.3945 H   0  0  0  0  0  0  0  0  0  0  0  0
   -1.2608   -1.1509   -9.1818 H   0  0  0  0  0  0  0  0  0  0  0  0
   -1.3295   -2.8923   -8.7079 H   0  0  0  0  0  0  0  0  0  0  0  0
   -0.7354   -2.5819   -6.3553 H   0  0  0  0  0  0  0  0  0  0  0  0
   -1.4888   -1.9776   -4.0972 H   0  0  0  0  0  0  0  0  0  0  0  0
   -2.6960    5.4275   -1.6586 H   0  0  0  0  0  0  0  0  0  0  0  0
   -3.7942    7.5950   -2.1175 H   0  0  0  0  0  0  0  0  0  0  0  0
   -4.2865    8.2810   -4.4333 H   0  0  0  0  0  0  0  0  0  0  0  0
   -4.5974    7.6389   -6.7728 H   0  0  0  0  0  0  0  0  0  0  0  0
   -4.0643    6.0348   -7.3616 H   0  0  0  0  0  0  0  0  0  0  0  0
   -1.6935    6.7887   -7.3910 H   0  0  0  0  0  0  0  0  0  0  0  0
   -2.7230    7.9084   -8.3542 H   0  0  0  0  0  0  0  0  0  0  0  0
   -2.1716    8.3951   -6.7068 H   0  0  0  0  0  0  0  0  0  0  0  0
   -2.6299    4.5692   -5.8837 H   0  0  0  0  0  0  0  0  0  0  0  0
   10.1127    1.7000    2.5585 H   0  0  0  0  0  0  0  0  0  0  0  0
   12.0203    2.3550    3.9776 H   0  0  0  0  0  0  0  0  0  0  0  0
   12.3516    1.3118    6.1896 H   0  0  0  0  0  0  0  0  0  0  0  0
   11.9104   -0.7001    7.5891 H   0  0  0  0  0  0  0  0  0  0  0  0
   10.4212   -1.6594    7.3497 H   0  0  0  0  0  0  0  0  0  0  0  0
   10.5601    1.1743    8.5726 H   0  0  0  0  0  0  0  0  0  0  0  0
    9.0465    0.2010    8.3298 H   0  0  0  0  0  0  0  0  0  0  0  0
   10.3253   -0.3743    9.4664 H   0  0  0  0  0  0  0  0  0  0  0  0
    8.8020   -1.0308    5.6243 H   0  0  0  0  0  0  0  0  0  0  0  0
    0.5140   -0.1024   -1.5727 H   0  0  0  0  0  0  0  0  0  0  0  0
    2.1236   -0.7070   -1.6004 H   0  0  0  0  0  0  0  0  0  0  0  0
    2.4001   -0.0060    0.8364 H   0  0  0  0  0  0  0  0  0  0  0  0
    0.8168    0.8803    0.7426 H   0  0  0  0  0  0  0  0  0  0  0  0
    0.8693   -0.9240    0.6301 H   0  0  0  0  0  0  0  0  0  0  0  0
    5.6944   -1.2086   -0.8769 H   0  0  0  0  0  0  0  0  0  0  0  0
    3.9489   -1.3089   -0.8200 H   0  0  0  0  0  0  0  0  0  0  0  0
    5.0361   -1.1281   -3.1511 H   0  0  0  0  0  0  0  0  0  0  0  0
    5.6851    0.4913   -2.6934 H   0  0  0  0  0  0  0  0  0  0  0  0
    3.9090    0.2356   -2.8874 H   0  0  0  0  0  0  0  0  0  0  0  0
    9.9477   -6.9292    2.0277 H   0  0  0  0  0  0  0  0  0  0  0  0
   13.0145   -7.1078   -1.5892 H   0  0  0  0  0  0  0  0  0  0  0  0
   12.4579   -8.6800   -0.9006 H   0  0  0  0  0  0  0  0  0  0  0  0
   11.6359   -8.5106   -3.1996 H   0  0  0  0  0  0  0  0  0  0  0  0
   10.8737   -6.9136   -2.8655 H   0  0  0  0  0  0  0  0  0  0  0  0
   10.2408   -8.4087   -2.0602 H   0  0  0  0  0  0  0  0  0  0  0  0
    8.9762   -7.6677    4.2547 H   0  0  0  0  0  0  0  0  0  0  0  0
    3.3494   -6.5183    1.7181 H   0  0  0  0  0  0  0  0  0  0  0  0
    1.3892   -7.3951    0.4664 H   0  0  0  0  0  0  0  0  0  0  0  0
    3.2173  -12.0067    0.8248 H   0  0  0  0  0  0  0  0  0  0  0  0
    5.1324  -11.1628    2.0987 H   0  0  0  0  0  0  0  0  0  0  0  0
  1  2  2  3
  2  3  1  0
  3  4  2  0
  3  5  1  0
  5  6  2  0
  6  7  1  0
  7  8  2  0
  8  9  1  0
  9 10  2  0
 10 11  1  0
 11 12  2  3
 12 13  1  0
 13 14  3  0
 12 15  1  0
 15 16  3  0
  8 17  1  0
 17 18  1  0
 18 19  1  0
 19 20  2  0
 20 21  1  0
 21 22  1  0
 21 23  1  0
  1 24  1  0
 24 25  2  0
 25 26  1  0
 26 27  1  0
 27 28  2  0
 28 29  1  0
 29 30  2  0
 30 31  1  0
 30 32  1  0
 32 33  2  0
 26 34  1  0
 34 35  2  0
 35 36  1  0
 36 37  2  0
 37 38  1  0
 37 39  1  0
 39 40  2  0
 25 41  1  0
 41 42  1  0
 42 43  1  0
 43 44  2  0
 44 45  1  0
 45 46  1  0
 46 47  2  0
 47 48  1  0
 48 49  2  0
 49 50  1  0
 49 51  1  0
 51 52  2  0
 45 53  1  0
 53 54  2  0
 54 55  1  0
 55 56  2  0
 56 57  1  0
 56 58  1  0
 58 59  2  0
 44 60  1  0
 60 61  1  0
 43 62  1  0
 62 63  2  0
 63 64  1  0
 64 65  2  0
 65 66  1  0
 66 67  2  0
 67 68  1  0
 68 69  1  0
 69 70  1  0
 68 71  2  0
 63 72  1  0
 72 73  1  0
 73 74  1  0
 74 75  1  0
 75 76  1  0
 76 77  1  0
 77 78  2  0
 78 79  1  0
 79 80  1  0
 77 81  1  0
 81 82  1  0
 82 83  1  0
 83 84  1  0
 84 85  1  0
 85 86  1  0
 86 87  2  0
 87 88  1  0
 88 89  2  0
 89 90  1  0
 90 91  1  0
 91 92  1  0
 90 93  2  0
 85 94  2  0
 94 95  1  0
 95 96  1  0
 96 97  1  0
 97 98  1  0
 98 99  1  0
 99100  1  0
100101  1  0
101102  1  0
102103  1  0
103104  1  0
101105  1  0
105106  1  0
 98107  1  0
107108  1  0
 94109  1  0
109110  1  0
110111  1  0
111112  2  0
112113  1  0
113114  1  0
111115  1  0
115116  2  0
116117  1  0
117118  2  0
118119  1  0
119120  2  0
119121  1  0
121122  1  0
122123  1  0
118124  1  0
124125  1  0
115126  1  0
126127  2  3
127128  1  0
128129  2  0
128130  1  0
130131  2  0
131132  1  0
132133  2  0
133134  1  0
134135  1  0
134136  2  0
136137  1  0
136138  1  0
138139  2  0
139140  1  0
140141  2  0
141142  1  0
142143  2  3
143144  1  0
144145  3  0
143146  1  0
146147  3  0
 11  2  1  0
 23 17  1  0
 61 24  1  0
104 62  1  0
125109  2  0
142127  1  0
 10  5  1  0
 22 18  1  0
 33 27  1  0
 40 34  1  0
 60 41  2  0
 71 64  1  0
103 72  2  0
114110  2  0
125116  1  0
141130  1  0
 23  7  1  0
 52 46  1  0
 59 53  1  0
102 74  2  0
139132  1  0
100 75  2  0
 80 76  2  0
 99 81  2  0
 97 82  2  0
 96 84  2  0
 93 86  1  0
  1148  1  0
  6149  1  0
  9150  1  0
 17151  1  0
 18152  1  0
 19153  1  0
 20154  1  0
 21155  1  0
 22156  1  0
 22157  1  0
 23158  1  0
 28159  1  0
 29160  1  0
 31161  1  0
 31162  1  0
 31163  1  0
 32164  1  0
 33165  1  0
 35166  1  0
 36167  1  0
 38168  1  0
 38169  1  0
 38170  1  0
 39171  1  0
 40172  1  0
 47173  1  0
 48174  1  0
 50175  1  0
 50176  1  0
 50177  1  0
 51178  1  0
 52179  1  0
 54180  1  0
 55181  1  0
 57182  1  0
 57183  1  0
 57184  1  0
 58185  1  0
 59186  1  0
 65187  1  0
 66188  1  0
 67189  1  0
 69190  1  0
 69191  1  0
 70192  1  0
 70193  1  0
 70194  1  0
 71195  1  0
 87196  1  0
 88197  1  0
 89198  1  0
 91199  1  0
 91200  1  0
 92201  1  0
 92202  1  0
 92203  1  0
 93204  1  0
105205  1  0
105206  1  0
106207  1  0
106208  1  0
106209  1  0
107210  1  0
107211  1  0
108212  1  0
108213  1  0
108214  1  0
117215  1  0
122216  1  0
122217  1  0
123218  1  0
123219  1  0
123220  1  0
126221  1  0
131222  1  0
133223  1  0
138224  1  0
140225  1  0
M  END

