
     RDKit          3D

244271  0  0  0  0  0  0  0  0999 V2000
    0.8370    0.0495   -6.5919 C   0  0  0  0  0  0  0  0  0  0  0  0
    1.8560   -0.7096   -6.1472 C   0  0  0  0  0  0  0  0  0  0  0  0
    1.8062   -1.6074   -4.9785 C   0  0  0  0  0  0  0  0  0  0  0  0
    0.8710   -1.6925   -4.1373 O   0  0  0  0  0  0  0  0  0  0  0  0
    2.9588   -2.4724   -5.0002 C   0  0  0  0  0  0  0  0  0  0  0  0
    3.2700   -3.4978   -4.0768 C   0  0  0  0  0  0  0  0  0  0  0  0
    4.4054   -4.2205   -4.4026 C   0  0  0  0  0  0  0  0  0  0  0  0
    5.1781   -3.9696   -5.5834 C   0  0  0  0  0  0  0  0  0  0  0  0
    4.8755   -2.9661   -6.4899 C   0  0  0  0  0  0  0  0  0  0  0  0
    3.7375   -2.1798   -6.1527 C   0  0  0  0  0  0  0  0  0  0  0  0
    3.1446   -1.0026   -6.8529 C   0  0  0  0  0  0  0  0  0  0  0  0
    3.7706   -0.2025   -7.7537 C   0  0  0  0  0  0  0  0  0  0  0  0
    3.2156    1.0609   -8.1794 C   0  0  0  0  0  0  0  0  0  0  0  0
    2.7843    2.0751   -8.5254 N   0  0  0  0  0  0  0  0  0  0  0  0
    5.0940   -0.4770   -8.2502 C   0  0  0  0  0  0  0  0  0  0  0  0
    6.1579   -0.6790   -8.6575 N   0  0  0  0  0  0  0  0  0  0  0  0
    6.1010   -5.1025   -5.2374 C   0  0  0  0  0  0  0  0  0  0  0  0
    5.9374   -6.4185   -6.0538 C   0  0  0  0  0  0  0  0  0  0  0  0
    6.6676   -7.4877   -5.2724 C   0  0  0  0  0  0  0  0  0  0  0  0
    5.9474   -7.7129   -4.1692 C   0  0  0  0  0  0  0  0  0  0  0  0
    4.7548   -6.7920   -4.2423 C   0  0  0  0  0  0  0  0  0  0  0  0
    4.5129   -6.8416   -5.7416 C   0  0  0  0  0  0  0  0  0  0  0  0
    5.3127   -5.3539   -4.0269 C   0  0  0  0  0  0  0  0  0  0  0  0
   -0.3749    0.2661   -5.7950 C   0  0  0  0  0  0  0  0  0  0  0  0
   -0.4091    0.8708   -4.5301 C   0  0  0  0  0  0  0  0  0  0  0  0
    0.5512    1.8447   -4.0985 N   0  0  0  0  0  0  0  0  0  0  0  0
    0.7776    2.9998   -4.9203 C   0  0  0  0  0  0  0  0  0  0  0  0
   -0.2950    3.8237   -5.2991 C   0  0  0  0  0  0  0  0  0  0  0  0
   -0.0703    4.9598   -6.0819 C   0  0  0  0  0  0  0  0  0  0  0  0
    1.2274    5.2755   -6.5107 C   0  0  0  0  0  0  0  0  0  0  0  0
    1.4693    6.4615   -7.3965 C   0  0  0  0  0  0  0  0  0  0  0  0
    2.2958    4.4426   -6.1477 C   0  0  0  0  0  0  0  0  0  0  0  0
    2.0749    3.3168   -5.3493 C   0  0  0  0  0  0  0  0  0  0  0  0
    1.0822    1.8329   -2.7692 C   0  0  0  0  0  0  0  0  0  0  0  0
    2.1559    0.9882   -2.4514 C   0  0  0  0  0  0  0  0  0  0  0  0
    2.7933    1.0937   -1.2124 C   0  0  0  0  0  0  0  0  0  0  0  0
    2.3624    2.0451   -0.2750 C   0  0  0  0  0  0  0  0  0  0  0  0
    3.1287    2.2248    0.9978 C   0  0  0  0  0  0  0  0  0  0  0  0
    1.2789    2.8788   -0.5846 C   0  0  0  0  0  0  0  0  0  0  0  0
    0.6478    2.7770   -1.8277 C   0  0  0  0  0  0  0  0  0  0  0  0
   -1.6543    0.6875   -3.9344 C   0  0  0  0  0  0  0  0  0  0  0  0
   -2.3411    1.1647   -2.5016 S   0  0  0  0  0  0  0  0  0  0  0  0
   -3.8957    0.5365   -2.8439 C   0  0  0  0  0  0  0  0  0  0  0  0
   -3.8740   -0.0007   -4.1579 C   0  0  0  0  0  0  0  0  0  0  0  0
   -5.0269   -0.1571   -5.0083 N   0  0  0  0  0  0  0  0  0  0  0  0
   -5.0525   -1.3107   -5.8842 C   0  0  0  0  0  0  0  0  0  0  0  0
   -4.7979   -2.5963   -5.3719 C   0  0  0  0  0  0  0  0  0  0  0  0
   -4.8369   -3.7198   -6.2019 C   0  0  0  0  0  0  0  0  0  0  0  0
   -5.0812   -3.5712   -7.5753 C   0  0  0  0  0  0  0  0  0  0  0  0
   -5.1656   -4.7686   -8.4700 C   0  0  0  0  0  0  0  0  0  0  0  0
   -5.2696   -2.2896   -8.1058 C   0  0  0  0  0  0  0  0  0  0  0  0
   -5.2429   -1.1669   -7.2721 C   0  0  0  0  0  0  0  0  0  0  0  0
   -5.8805    0.9938   -5.2829 C   0  0  0  0  0  0  0  0  0  0  0  0
   -7.1418    0.8250   -5.8867 C   0  0  0  0  0  0  0  0  0  0  0  0
   -7.9336    1.9232   -6.2295 C   0  0  0  0  0  0  0  0  0  0  0  0
   -7.4947    3.2254   -5.9568 C   0  0  0  0  0  0  0  0  0  0  0  0
   -8.3264    4.4134   -6.3304 C   0  0  0  0  0  0  0  0  0  0  0  0
   -6.2547    3.4121   -5.3283 C   0  0  0  0  0  0  0  0  0  0  0  0
   -5.4507    2.3143   -5.0119 C   0  0  0  0  0  0  0  0  0  0  0  0
   -2.5846    0.0613   -4.6993 C   0  0  0  0  0  0  0  0  0  0  0  0
   -1.9071   -0.3663   -6.1804 S   0  0  0  0  0  0  0  0  0  0  0  0
   -4.9161    0.4149   -1.7656 C   0  0  0  0  0  0  0  0  0  0  0  0
   -5.6494   -0.7608   -1.4425 C   0  0  0  0  0  0  0  0  0  0  0  0
   -6.3361   -1.6634   -2.3800 C   0  0  0  0  0  0  0  0  0  0  0  0
   -6.1603   -3.0524   -2.2862 C   0  0  0  0  0  0  0  0  0  0  0  0
   -7.0387   -3.9193   -2.9393 C   0  0  0  0  0  0  0  0  0  0  0  0
   -8.1159   -3.4117   -3.6692 C   0  0  0  0  0  0  0  0  0  0  0  0
   -8.3345   -2.0241   -3.7450 C   0  0  0  0  0  0  0  0  0  0  0  0
   -9.5655   -1.5146   -4.4729 C   0  0  0  0  0  0  0  0  0  0  0  0
  -10.1575   -0.2352   -3.8727 C   0  0  0  0  0  0  0  0  0  0  0  0
   -7.4070   -1.1563   -3.1361 C   0  0  0  0  0  0  0  0  0  0  0  0
   -5.8891   -0.8587   -0.0649 C   0  0  0  0  0  0  0  0  0  0  0  0
   -6.2314   -2.2054    0.9372 S   0  0  0  0  0  0  0  0  0  0  0  0
   -5.8017   -1.3307    2.3221 C   0  0  0  0  0  0  0  0  0  0  0  0
   -5.4198   -1.5787    3.6127 C   0  0  0  0  0  0  0  0  0  0  0  0
   -5.4949   -2.7357    4.3943 C   0  0  0  0  0  0  0  0  0  0  0  0
   -4.9562   -2.7056    5.7154 C   0  0  0  0  0  0  0  0  0  0  0  0
   -5.0293   -3.8579    6.4325 N   0  0  0  0  0  0  0  0  0  0  0  0
   -5.7991   -4.8307    5.3330 S   0  0  0  0  0  0  0  0  0  0  0  0
   -6.0528   -3.9028    3.9804 N   0  0  0  0  0  0  0  0  0  0  0  0
   -4.3623   -1.5294    6.1787 C   0  0  0  0  0  0  0  0  0  0  0  0
   -3.5641   -1.3285    7.2766 C   0  0  0  0  0  0  0  0  0  0  0  0
   -2.6146   -2.3930    8.2214 S   0  0  0  0  0  0  0  0  0  0  0  0
   -1.4135   -1.2072    8.4752 C   0  0  0  0  0  0  0  0  0  0  0  0
   -0.0589   -1.2869    8.8655 C   0  0  0  0  0  0  0  0  0  0  0  0
    0.5582   -2.4488    9.5656 C   0  0  0  0  0  0  0  0  0  0  0  0
   -0.1060   -3.0264   10.6602 C   0  0  0  0  0  0  0  0  0  0  0  0
    0.5158   -4.0157   11.4324 C   0  0  0  0  0  0  0  0  0  0  0  0
    1.8022   -4.4525   11.1067 C   0  0  0  0  0  0  0  0  0  0  0  0
    2.4785   -3.8961   10.0114 C   0  0  0  0  0  0  0  0  0  0  0  0
    3.8818   -4.3337    9.6616 C   0  0  0  0  0  0  0  0  0  0  0  0
    3.8700   -5.4686    8.6389 C   0  0  0  0  0  0  0  0  0  0  0  0
    1.8426   -2.9199    9.2360 C   0  0  0  0  0  0  0  0  0  0  0  0
    0.6236   -0.0890    8.5319 C   0  0  0  0  0  0  0  0  0  0  0  0
   -0.4576    0.9730    7.7751 S   0  0  0  0  0  0  0  0  0  0  0  0
   -1.7620   -0.0472    7.8312 C   0  0  0  0  0  0  0  0  0  0  0  0
   -2.9349   -0.1333    7.0826 C   0  0  0  0  0  0  0  0  0  0  0  0
   -3.2294    0.4165    5.8700 N   0  0  0  0  0  0  0  0  0  0  0  0
   -4.1940   -0.4042    5.3500 C   0  0  0  0  0  0  0  0  0  0  0  0
   -4.7967   -0.4021    4.0603 C   0  0  0  0  0  0  0  0  0  0  0  0
   -4.8503    0.5693    3.0798 N   0  0  0  0  0  0  0  0  0  0  0  0
   -5.4190   -0.0691    2.0357 C   0  0  0  0  0  0  0  0  0  0  0  0
   -5.4592    0.2042    0.6777 C   0  0  0  0  0  0  0  0  0  0  0  0
   -4.6768    1.2930   -0.3118 S   0  0  0  0  0  0  0  0  0  0  0  0
   -4.7454    2.0391    3.1513 C   0  0  0  0  0  0  0  0  0  0  0  0
   -5.4573    2.6062    4.3795 C   0  0  0  0  0  0  0  0  0  0  0  0
   -2.2334    1.1596    5.0756 C   0  0  0  0  0  0  0  0  0  0  0  0
   -2.1434    2.6282    5.5070 C   0  0  0  0  0  0  0  0  0  0  0  0
    2.0157    0.0383    8.1077 C   0  0  0  0  0  0  0  0  0  0  0  0
    2.8782    1.4714    8.2983 S   0  0  0  0  0  0  0  0  0  0  0  0
    3.7195    1.3741    6.8565 C   0  0  0  0  0  0  0  0  0  0  0  0
    4.3353    2.4794    6.1531 C   0  0  0  0  0  0  0  0  0  0  0  0
    4.4373    2.4150    4.7854 C   0  0  0  0  0  0  0  0  0  0  0  0
    4.2440    1.2101    4.0918 O   0  0  0  0  0  0  0  0  0  0  0  0
    3.7179    0.0030    4.6949 C   0  0  0  0  0  0  0  0  0  0  0  0
    2.4856   -0.4077    3.8771 C   0  0  0  0  0  0  0  0  0  0  0  0
    1.5842    0.5867    3.4389 C   0  0  0  0  0  0  0  0  0  0  0  0
    0.5406    0.2789    2.5577 C   0  0  0  0  0  0  0  0  0  0  0  0
    0.3168   -1.0445    2.1601 C   0  0  0  0  0  0  0  0  0  0  0  0
   -0.7667   -1.3591    1.1614 C   0  0  0  0  0  0  0  0  0  0  0  0
   -0.1747   -1.6646   -0.2106 C   0  0  0  0  0  0  0  0  0  0  0  0
    1.1410   -2.0633    2.6696 C   0  0  0  0  0  0  0  0  0  0  0  0
    2.2142   -1.7488    3.5190 C   0  0  0  0  0  0  0  0  0  0  0  0
    4.8388   -1.0350    4.5877 C   0  0  0  0  0  0  0  0  0  0  0  0
    5.3394   -1.7454    5.7030 C   0  0  0  0  0  0  0  0  0  0  0  0
    6.3996   -2.6401    5.5635 C   0  0  0  0  0  0  0  0  0  0  0  0
    6.9767   -2.8638    4.3074 C   0  0  0  0  0  0  0  0  0  0  0  0
    8.1237   -3.8227    4.1722 C   0  0  0  0  0  0  0  0  0  0  0  0
    7.6296   -5.2624    4.2492 C   0  0  0  0  0  0  0  0  0  0  0  0
    6.4797   -2.1807    3.1857 C   0  0  0  0  0  0  0  0  0  0  0  0
    5.4292   -1.2707    3.3288 C   0  0  0  0  0  0  0  0  0  0  0  0
    3.3074    0.2473    6.1612 C   0  0  0  0  0  0  0  0  0  0  0  0
    2.3975   -0.5299    6.8868 C   0  0  0  0  0  0  0  0  0  0  0  0
    4.6004    3.6525    4.1638 C   0  0  0  0  0  0  0  0  0  0  0  0
    4.5187    4.7109    5.0636 C   0  0  0  0  0  0  0  0  0  0  0  0
    4.3246    4.0892    6.6211 S   0  0  0  0  0  0  0  0  0  0  0  0
    4.0461    6.0501    4.6911 C   0  0  0  0  0  0  0  0  0  0  0  0
    2.7946    6.2620    4.2279 C   0  0  0  0  0  0  0  0  0  0  0  0
    1.8082    5.2128    3.9210 C   0  0  0  0  0  0  0  0  0  0  0  0
    1.7461    4.0653    4.4329 O   0  0  0  0  0  0  0  0  0  0  0  0
    0.8288    5.7619    3.0152 C   0  0  0  0  0  0  0  0  0  0  0  0
    1.0732    7.1181    2.8449 C   0  0  0  0  0  0  0  0  0  0  0  0
    0.3152    7.8472    1.9136 C   0  0  0  0  0  0  0  0  0  0  0  0
   -0.7119    7.1981    1.2097 C   0  0  0  0  0  0  0  0  0  0  0  0
   -1.4432    7.8883    0.2985 F   0  0  0  0  0  0  0  0  0  0  0  0
   -0.9677    5.8276    1.4152 C   0  0  0  0  0  0  0  0  0  0  0  0
   -1.9422    5.2042    0.7055 F   0  0  0  0  0  0  0  0  0  0  0  0
   -0.1947    5.0998    2.3315 C   0  0  0  0  0  0  0  0  0  0  0  0
   -0.4186    3.7743    2.5226 F   0  0  0  0  0  0  0  0  0  0  0  0
    2.2319    7.5322    3.6888 C   0  0  0  0  0  0  0  0  0  0  0  0
    2.5204    8.7898    4.1131 C   0  0  0  0  0  0  0  0  0  0  0  0
    1.7356    9.9328    3.7133 C   0  0  0  0  0  0  0  0  0  0  0  0
    1.1137   10.8624    3.4055 N   0  0  0  0  0  0  0  0  0  0  0  0
    3.5052    9.0497    5.1255 C   0  0  0  0  0  0  0  0  0  0  0  0
    4.3031    9.2649    5.9378 N   0  0  0  0  0  0  0  0  0  0  0  0
    0.8383    0.4500   -7.5901 H   0  0  0  0  0  0  0  0  0  0  0  0
    2.6726   -3.7136   -3.1989 H   0  0  0  0  0  0  0  0  0  0  0  0
    5.4673   -2.8405   -7.3810 H   0  0  0  0  0  0  0  0  0  0  0  0
    7.1478   -4.7796   -5.0522 H   0  0  0  0  0  0  0  0  0  0  0  0
    6.2023   -6.3563   -7.1299 H   0  0  0  0  0  0  0  0  0  0  0  0
    7.5486   -8.0436   -5.5809 H   0  0  0  0  0  0  0  0  0  0  0  0
    6.1398   -8.4834   -3.4259 H   0  0  0  0  0  0  0  0  0  0  0  0
    3.8950   -7.0750   -3.5992 H   0  0  0  0  0  0  0  0  0  0  0  0
    4.2599   -7.8631   -6.1198 H   0  0  0  0  0  0  0  0  0  0  0  0
    3.7390   -6.1313   -6.1020 H   0  0  0  0  0  0  0  0  0  0  0  0
    5.8580   -5.1829   -3.0732 H   0  0  0  0  0  0  0  0  0  0  0  0
   -1.3022    3.6009   -4.9618 H   0  0  0  0  0  0  0  0  0  0  0  0
   -0.9097    5.5959   -6.3467 H   0  0  0  0  0  0  0  0  0  0  0  0
    0.5973    7.1523   -7.3968 H   0  0  0  0  0  0  0  0  0  0  0  0
    2.3557    7.0322   -7.0437 H   0  0  0  0  0  0  0  0  0  0  0  0
    1.6490    6.1144   -8.4347 H   0  0  0  0  0  0  0  0  0  0  0  0
    3.3015    4.6632   -6.4892 H   0  0  0  0  0  0  0  0  0  0  0  0
    2.9073    2.6775   -5.0768 H   0  0  0  0  0  0  0  0  0  0  0  0
    2.5406    0.2936   -3.1853 H   0  0  0  0  0  0  0  0  0  0  0  0
    3.6446    0.4579   -0.9943 H   0  0  0  0  0  0  0  0  0  0  0  0
    4.1103    2.6928    0.7759 H   0  0  0  0  0  0  0  0  0  0  0  0
    3.3157    1.2379    1.4682 H   0  0  0  0  0  0  0  0  0  0  0  0
    2.5787    2.8720    1.7143 H   0  0  0  0  0  0  0  0  0  0  0  0
    0.9384    3.6269    0.1184 H   0  0  0  0  0  0  0  0  0  0  0  0
   -0.1620    3.4557   -2.0733 H   0  0  0  0  0  0  0  0  0  0  0  0
   -4.5535   -2.7251   -4.3308 H   0  0  0  0  0  0  0  0  0  0  0  0
   -4.6695   -4.6999   -5.7736 H   0  0  0  0  0  0  0  0  0  0  0  0
   -6.2225   -4.9225   -8.7838 H   0  0  0  0  0  0  0  0  0  0  0  0
   -4.8100   -5.6851   -7.9571 H   0  0  0  0  0  0  0  0  0  0  0  0
   -4.5423   -4.6103   -9.3758 H   0  0  0  0  0  0  0  0  0  0  0  0
   -5.4309   -2.1545   -9.1712 H   0  0  0  0  0  0  0  0  0  0  0  0
   -5.3572   -0.1849   -7.7155 H   0  0  0  0  0  0  0  0  0  0  0  0
   -7.4992   -0.1625   -6.1306 H   0  0  0  0  0  0  0  0  0  0  0  0
   -8.8832    1.7568   -6.7259 H   0  0  0  0  0  0  0  0  0  0  0  0
   -9.2657    4.1145   -6.8492 H   0  0  0  0  0  0  0  0  0  0  0  0
   -7.7514    5.0724   -7.0156 H   0  0  0  0  0  0  0  0  0  0  0  0
   -8.5973    4.9880   -5.4181 H   0  0  0  0  0  0  0  0  0  0  0  0
   -5.8984    4.4115   -5.1123 H   0  0  0  0  0  0  0  0  0  0  0  0
   -4.4778    2.5109   -4.5842 H   0  0  0  0  0  0  0  0  0  0  0  0
   -5.3580   -3.4656   -1.6852 H   0  0  0  0  0  0  0  0  0  0  0  0
   -6.9055   -4.9885   -2.8505 H   0  0  0  0  0  0  0  0  0  0  0  0
   -8.7976   -4.1001   -4.1533 H   0  0  0  0  0  0  0  0  0  0  0  0
   -9.3369   -1.3577   -5.5467 H   0  0  0  0  0  0  0  0  0  0  0  0
  -10.3598   -2.2891   -4.4212 H   0  0  0  0  0  0  0  0  0  0  0  0
   -9.5214    0.6424   -4.1087 H   0  0  0  0  0  0  0  0  0  0  0  0
  -11.1622   -0.0547   -4.3075 H   0  0  0  0  0  0  0  0  0  0  0  0
  -10.2653   -0.3366   -2.7720 H   0  0  0  0  0  0  0  0  0  0  0  0
   -7.5630   -0.0864   -3.1527 H   0  0  0  0  0  0  0  0  0  0  0  0
   -1.0944   -2.6784   10.9491 H   0  0  0  0  0  0  0  0  0  0  0  0
    0.0024   -4.4309   12.2898 H   0  0  0  0  0  0  0  0  0  0  0  0
    2.2753   -5.2084   11.7107 H   0  0  0  0  0  0  0  0  0  0  0  0
    4.4212   -4.6677   10.5729 H   0  0  0  0  0  0  0  0  0  0  0  0
    4.4535   -3.4777    9.2383 H   0  0  0  0  0  0  0  0  0  0  0  0
    3.4661   -5.1157    7.6681 H   0  0  0  0  0  0  0  0  0  0  0  0
    3.2361   -6.2991    9.0018 H   0  0  0  0  0  0  0  0  0  0  0  0
    4.8992   -5.8459    8.4923 H   0  0  0  0  0  0  0  0  0  0  0  0
    2.3699   -2.5421    8.3891 H   0  0  0  0  0  0  0  0  0  0  0  0
   -5.2438    2.4934    2.2648 H   0  0  0  0  0  0  0  0  0  0  0  0
   -3.7044    2.3862    3.0643 H   0  0  0  0  0  0  0  0  0  0  0  0
   -5.3339    3.7092    4.3982 H   0  0  0  0  0  0  0  0  0  0  0  0
   -6.5408    2.3692    4.3237 H   0  0  0  0  0  0  0  0  0  0  0  0
   -5.0427    2.1985    5.3184 H   0  0  0  0  0  0  0  0  0  0  0  0
   -2.4017    1.0477    3.9942 H   0  0  0  0  0  0  0  0  0  0  0  0
   -1.2361    0.6815    5.1945 H   0  0  0  0  0  0  0  0  0  0  0  0
   -2.5316    2.7627    6.5370 H   0  0  0  0  0  0  0  0  0  0  0  0
   -1.0826    2.9576    5.4824 H   0  0  0  0  0  0  0  0  0  0  0  0
   -2.7165    3.2851    4.8280 H   0  0  0  0  0  0  0  0  0  0  0  0
    1.7305    1.6124    3.7271 H   0  0  0  0  0  0  0  0  0  0  0  0
   -0.0645    1.0849    2.1582 H   0  0  0  0  0  0  0  0  0  0  0  0
   -1.4675   -0.4989    1.0503 H   0  0  0  0  0  0  0  0  0  0  0  0
   -1.3708   -2.2252    1.5126 H   0  0  0  0  0  0  0  0  0  0  0  0
    0.4658   -0.8245   -0.5686 H   0  0  0  0  0  0  0  0  0  0  0  0
   -0.9912   -1.8348   -0.9500 H   0  0  0  0  0  0  0  0  0  0  0  0
    0.4420   -2.5934   -0.1629 H   0  0  0  0  0  0  0  0  0  0  0  0
    0.9810   -3.0916    2.3691 H   0  0  0  0  0  0  0  0  0  0  0  0
    2.8465   -2.5550    3.8707 H   0  0  0  0  0  0  0  0  0  0  0  0
    4.9369   -1.6032    6.6937 H   0  0  0  0  0  0  0  0  0  0  0  0
    6.7686   -3.1585    6.4408 H   0  0  0  0  0  0  0  0  0  0  0  0
    8.6561   -3.6769    3.2070 H   0  0  0  0  0  0  0  0  0  0  0  0
    8.8617   -3.6383    4.9882 H   0  0  0  0  0  0  0  0  0  0  0  0
    7.1062   -5.4468    5.2135 H   0  0  0  0  0  0  0  0  0  0  0  0
    8.4932   -5.9526    4.1843 H   0  0  0  0  0  0  0  0  0  0  0  0
    6.9342   -5.4789    3.4124 H   0  0  0  0  0  0  0  0  0  0  0  0
    6.9025   -2.3521    2.2006 H   0  0  0  0  0  0  0  0  0  0  0  0
    5.0730   -0.7420    2.4535 H   0  0  0  0  0  0  0  0  0  0  0  0
    1.8862   -1.3719    6.4484 H   0  0  0  0  0  0  0  0  0  0  0  0
    4.6024    3.7670    3.0866 H   0  0  0  0  0  0  0  0  0  0  0  0
    4.7558    6.8562    4.7772 H   0  0  0  0  0  0  0  0  0  0  0  0
    0.5294    8.8799    1.6954 H   0  0  0  0  0  0  0  0  0  0  0  0
  1  2  2  3
  2  3  1  0
  3  4  2  0
  3  5  1  0
  5  6  2  0
  6  7  1  0
  7  8  2  0
  8  9  1  0
  9 10  2  0
 10 11  1  0
 11 12  2  3
 12 13  1  0
 13 14  3  0
 12 15  1  0
 15 16  3  0
  8 17  1  0
 17 18  1  0
 18 19  1  0
 19 20  2  0
 20 21  1  0
 21 22  1  0
 21 23  1  0
  1 24  1  0
 24 25  2  0
 25 26  1  0
 26 27  1  0
 27 28  2  0
 28 29  1  0
 29 30  2  0
 30 31  1  0
 30 32  1  0
 32 33  2  0
 26 34  1  0
 34 35  2  0
 35 36  1  0
 36 37  2  0
 37 38  1  0
 37 39  1  0
 39 40  2  0
 25 41  1  0
 41 42  1  0
 42 43  1  0
 43 44  2  0
 44 45  1  0
 45 46  1  0
 46 47  2  0
 47 48  1  0
 48 49  2  0
 49 50  1  0
 49 51  1  0
 51 52  2  0
 45 53  1  0
 53 54  2  0
 54 55  1  0
 55 56  2  0
 56 57  1  0
 56 58  1  0
 58 59  2  0
 44 60  1  0
 60 61  1  0
 43 62  1  0
 62 63  2  0
 63 64  1  0
 64 65  2  0
 65 66  1  0
 66 67  2  0
 67 68  1  0
 68 69  1  0
 69 70  1  0
 68 71  2  0
 63 72  1  0
 72 73  1  0
 73 74  1  0
 74 75  1  0
 75 76  1  0
 76 77  1  0
 77 78  2  0
 78 79  1  0
 79 80  1  0
 77 81  1  0
 81 82  1  0
 82 83  1  0
 83 84  1  0
 84 85  1  0
 85 86  1  0
 86 87  2  0
 87 88  1  0
 88 89  2  0
 89 90  1  0
 90 91  1  0
 91 92  1  0
 90 93  2  0
 85 94  2  0
 94 95  1  0
 95 96  1  0
 96 97  1  0
 97 98  1  0
 98 99  1  0
 99100  1  0
100101  1  0
101102  1  0
102103  1  0
103104  1  0
101105  1  0
105106  1  0
 98107  1  0
107108  1  0
 94109  1  0
109110  1  0
110111  1  0
111112  1  0
112113  2  0
113114  1  0
114115  1  0
115116  1  0
116117  2  0
117118  1  0
118119  2  0
119120  1  0
120121  1  0
119122  1  0
122123  2  0
115124  1  0
124125  2  0
125126  1  0
126127  2  0
127128  1  0
128129  1  0
127130  1  0
130131  2  0
115132  1  0
132133  1  0
113134  1  0
134135  2  0
135136  1  0
135137  1  0
137138  2  3
138139  1  0
139140  2  0
139141  1  0
141142  2  0
142143  1  0
143144  2  0
144145  1  0
144146  1  0
146147  1  0
146148  2  0
148149  1  0
142150  1  0
150151  2  3
151152  1  0
152153  3  0
151154  1  0
154155  3  0
 11  2  1  0
 23 17  1  0
 61 24  1  0
104 62  1  0
133109  2  0
150138  1  0
 10  5  1  0
 22 18  1  0
 33 27  1  0
 40 34  1  0
 60 41  2  0
 71 64  1  0
103 72  2  0
132111  2  0
148141  1  0
 23  7  1  0
 52 46  1  0
 59 53  1  0
102 74  2  0
136112  1  0
100 75  2  0
123116  1  0
131124  1  0
 80 76  2  0
 99 81  2  0
 97 82  2  0
 96 84  2  0
 93 86  1  0
  1156  1  0
  6157  1  0
  9158  1  0
 17159  1  0
 18160  1  0
 19161  1  0
 20162  1  0
 21163  1  0
 22164  1  0
 22165  1  0
 23166  1  0
 28167  1  0
 29168  1  0
 31169  1  0
 31170  1  0
 31171  1  0
 32172  1  0
 33173  1  0
 35174  1  0
 36175  1  0
 38176  1  0
 38177  1  0
 38178  1  0
 39179  1  0
 40180  1  0
 47181  1  0
 48182  1  0
 50183  1  0
 50184  1  0
 50185  1  0
 51186  1  0
 52187  1  0
 54188  1  0
 55189  1  0
 57190  1  0
 57191  1  0
 57192  1  0
 58193  1  0
 59194  1  0
 65195  1  0
 66196  1  0
 67197  1  0
 69198  1  0
 69199  1  0
 70200  1  0
 70201  1  0
 70202  1  0
 71203  1  0
 87204  1  0
 88205  1  0
 89206  1  0
 91207  1  0
 91208  1  0
 92209  1  0
 92210  1  0
 92211  1  0
 93212  1  0
105213  1  0
105214  1  0
106215  1  0
106216  1  0
106217  1  0
107218  1  0
107219  1  0
108220  1  0
108221  1  0
108222  1  0
117223  1  0
118224  1  0
120225  1  0
120226  1  0
121227  1  0
121228  1  0
121229  1  0
122230  1  0
123231  1  0
125232  1  0
126233  1  0
128234  1  0
128235  1  0
129236  1  0
129237  1  0
129238  1  0
130239  1  0
131240  1  0
133241  1  0
134242  1  0
137243  1  0
143244  1  0
M  END

