
     RDKit          3D

218242  0  0  0  0  0  0  0  0999 V2000
   -7.4545   -1.1469    0.0236 C   0  0  0  0  0  0  0  0  0  0  0  0
   -7.2045   -0.3296    1.0642 C   0  0  0  0  0  0  0  0  0  0  0  0
   -5.8626    0.0175    1.5707 C   0  0  0  0  0  0  0  0  0  0  0  0
   -4.7566   -0.2476    1.0254 O   0  0  0  0  0  0  0  0  0  0  0  0
   -6.0013    0.7068    2.8354 C   0  0  0  0  0  0  0  0  0  0  0  0
   -4.9622    1.0681    3.7267 C   0  0  0  0  0  0  0  0  0  0  0  0
   -5.4103    1.5466    4.9427 C   0  0  0  0  0  0  0  0  0  0  0  0
   -6.7994    1.6505    5.2794 C   0  0  0  0  0  0  0  0  0  0  0  0
   -7.8187    1.3172    4.4025 C   0  0  0  0  0  0  0  0  0  0  0  0
   -7.3805    0.8554    3.1277 C   0  0  0  0  0  0  0  0  0  0  0  0
   -8.1869    0.3184    1.9958 C   0  0  0  0  0  0  0  0  0  0  0  0
   -9.5015    0.5760    1.7786 C   0  0  0  0  0  0  0  0  0  0  0  0
  -10.2519   -0.0227    0.7094 C   0  0  0  0  0  0  0  0  0  0  0  0
  -10.8785   -0.5053   -0.1355 N   0  0  0  0  0  0  0  0  0  0  0  0
  -10.2173    1.5600    2.5478 C   0  0  0  0  0  0  0  0  0  0  0  0
  -10.7972    2.3678    3.1388 N   0  0  0  0  0  0  0  0  0  0  0  0
   -6.4464    2.1231    6.6602 C   0  0  0  0  0  0  0  0  0  0  0  0
   -6.6404    3.6369    6.9877 C   0  0  0  0  0  0  0  0  0  0  0  0
   -6.4680    4.4645    5.7353 C   0  0  0  0  0  0  0  0  0  0  0  0
   -5.1814    4.3796    5.3999 C   0  0  0  0  0  0  0  0  0  0  0  0
   -4.5186    3.5030    6.4385 C   0  0  0  0  0  0  0  0  0  0  0  0
   -5.3097    3.9341    7.6577 C   0  0  0  0  0  0  0  0  0  0  0  0
   -5.0245    2.0349    6.3076 C   0  0  0  0  0  0  0  0  0  0  0  0
   -6.3820   -1.8017   -0.7382 C   0  0  0  0  0  0  0  0  0  0  0  0
   -5.5643   -1.2127   -1.7381 C   0  0  0  0  0  0  0  0  0  0  0  0
   -5.7634    0.1039   -2.3170 N   0  0  0  0  0  0  0  0  0  0  0  0
   -6.9829    0.8413   -2.1311 C   0  0  0  0  0  0  0  0  0  0  0  0
   -8.1765    0.3970   -2.7238 C   0  0  0  0  0  0  0  0  0  0  0  0
   -9.3612    1.1172   -2.5349 C   0  0  0  0  0  0  0  0  0  0  0  0
   -9.3641    2.2895   -1.7579 C   0  0  0  0  0  0  0  0  0  0  0  0
  -10.6483    3.0204   -1.5025 C   0  0  0  0  0  0  0  0  0  0  0  0
   -8.1729    2.7259   -1.1646 C   0  0  0  0  0  0  0  0  0  0  0  0
   -6.9845    2.0089   -1.3606 C   0  0  0  0  0  0  0  0  0  0  0  0
   -4.7833    0.6819   -3.1887 C   0  0  0  0  0  0  0  0  0  0  0  0
   -3.6873    1.3686   -2.6500 C   0  0  0  0  0  0  0  0  0  0  0  0
   -2.6757    1.8427   -3.4909 C   0  0  0  0  0  0  0  0  0  0  0  0
   -2.7581    1.6478   -4.8783 C   0  0  0  0  0  0  0  0  0  0  0  0
   -1.6392    2.0865   -5.7789 C   0  0  0  0  0  0  0  0  0  0  0  0
   -3.8628    0.9662   -5.4168 C   0  0  0  0  0  0  0  0  0  0  0  0
   -4.8739    0.4893   -4.5755 C   0  0  0  0  0  0  0  0  0  0  0  0
   -4.4503   -2.0385   -1.9860 C   0  0  0  0  0  0  0  0  0  0  0  0
   -2.9591   -1.8234   -2.7376 S   0  0  0  0  0  0  0  0  0  0  0  0
   -2.2404   -3.2117   -2.0833 C   0  0  0  0  0  0  0  0  0  0  0  0
   -3.1821   -3.8579   -1.2647 C   0  0  0  0  0  0  0  0  0  0  0  0
   -2.8937   -4.9627   -0.3928 N   0  0  0  0  0  0  0  0  0  0  0  0
   -3.5481   -6.2360   -0.6125 C   0  0  0  0  0  0  0  0  0  0  0  0
   -3.9222   -6.6333   -1.9122 C   0  0  0  0  0  0  0  0  0  0  0  0
   -4.5511   -7.8641   -2.1277 C   0  0  0  0  0  0  0  0  0  0  0  0
   -4.8109   -8.7232   -1.0504 C   0  0  0  0  0  0  0  0  0  0  0  0
   -5.5317  -10.0175   -1.2736 C   0  0  0  0  0  0  0  0  0  0  0  0
   -4.4701   -8.3207    0.2479 C   0  0  0  0  0  0  0  0  0  0  0  0
   -3.8463   -7.0887    0.4671 C   0  0  0  0  0  0  0  0  0  0  0  0
   -2.0299   -4.7458    0.7423 C   0  0  0  0  0  0  0  0  0  0  0  0
   -0.9857   -5.6473    1.0231 C   0  0  0  0  0  0  0  0  0  0  0  0
   -0.0680   -5.3720    2.0410 C   0  0  0  0  0  0  0  0  0  0  0  0
   -0.1734   -4.1850    2.7860 C   0  0  0  0  0  0  0  0  0  0  0  0
    0.8285   -3.8673    3.8579 C   0  0  0  0  0  0  0  0  0  0  0  0
   -1.2400   -3.3081    2.5401 C   0  0  0  0  0  0  0  0  0  0  0  0
   -2.1611   -3.5834    1.5251 C   0  0  0  0  0  0  0  0  0  0  0  0
   -4.3979   -3.1847   -1.2523 C   0  0  0  0  0  0  0  0  0  0  0  0
   -5.7157   -3.2791   -0.2248 S   0  0  0  0  0  0  0  0  0  0  0  0
   -0.7930   -3.4399   -2.0848 C   0  0  0  0  0  0  0  0  0  0  0  0
   -0.0425   -4.0303   -3.1139 C   0  0  0  0  0  0  0  0  0  0  0  0
   -0.6256   -4.6588   -4.3078 C   0  0  0  0  0  0  0  0  0  0  0  0
   -1.1427   -5.9563   -4.2171 C   0  0  0  0  0  0  0  0  0  0  0  0
   -1.7233   -6.5592   -5.3313 C   0  0  0  0  0  0  0  0  0  0  0  0
   -1.7829   -5.8736   -6.5478 C   0  0  0  0  0  0  0  0  0  0  0  0
   -1.2678   -4.5717   -6.6534 C   0  0  0  0  0  0  0  0  0  0  0  0
   -1.3618   -3.8250   -7.9607 C   0  0  0  0  0  0  0  0  0  0  0  0
   -2.7764   -3.2958   -8.1799 C   0  0  0  0  0  0  0  0  0  0  0  0
   -0.6925   -3.9626   -5.5240 C   0  0  0  0  0  0  0  0  0  0  0  0
    1.3066   -4.1260   -2.7584 C   0  0  0  0  0  0  0  0  0  0  0  0
    2.7200   -4.6954   -3.5388 S   0  0  0  0  0  0  0  0  0  0  0  0
    3.6490   -4.3797   -2.1472 C   0  0  0  0  0  0  0  0  0  0  0  0
    4.9626   -4.2645   -1.7789 C   0  0  0  0  0  0  0  0  0  0  0  0
    6.1368   -4.2545   -2.5471 C   0  0  0  0  0  0  0  0  0  0  0  0
    7.3370   -3.7440   -1.9586 C   0  0  0  0  0  0  0  0  0  0  0  0
    8.4368   -3.6902   -2.7507 N   0  0  0  0  0  0  0  0  0  0  0  0
    7.7961   -4.2760   -4.1596 S   0  0  0  0  0  0  0  0  0  0  0  0
    6.1984   -4.6075   -3.8538 N   0  0  0  0  0  0  0  0  0  0  0  0
    7.3226   -3.3667   -0.6106 C   0  0  0  0  0  0  0  0  0  0  0  0
    8.2859   -2.8247    0.2111 C   0  0  0  0  0  0  0  0  0  0  0  0
    9.3893   -1.5702   -0.0790 S   0  0  0  0  0  0  0  0  0  0  0  0
    9.1519   -0.8989    1.4696 C   0  0  0  0  0  0  0  0  0  0  0  0
    9.3081    0.4264    1.9077 C   0  0  0  0  0  0  0  0  0  0  0  0
   10.0786    1.4013    1.1217 C   0  0  0  0  0  0  0  0  0  0  0  0
   11.4800    1.3603    1.1460 C   0  0  0  0  0  0  0  0  0  0  0  0
   12.2200    2.2834    0.4018 C   0  0  0  0  0  0  0  0  0  0  0  0
   11.5674    3.2449   -0.3758 C   0  0  0  0  0  0  0  0  0  0  0  0
   10.1638    3.2902   -0.4086 C   0  0  0  0  0  0  0  0  0  0  0  0
    9.4626    4.3051   -1.2699 C   0  0  0  0  0  0  0  0  0  0  0  0
    9.0740    3.6956   -2.6126 C   0  0  0  0  0  0  0  0  0  0  0  0
    9.4232    2.3536    0.3278 C   0  0  0  0  0  0  0  0  0  0  0  0
    8.4452    0.7238    2.9992 C   0  0  0  0  0  0  0  0  0  0  0  0
    7.5446   -0.6811    3.3434 S   0  0  0  0  0  0  0  0  0  0  0  0
    8.2299   -1.6311    2.1672 C   0  0  0  0  0  0  0  0  0  0  0  0
    7.7020   -2.6900    1.4473 C   0  0  0  0  0  0  0  0  0  0  0  0
    6.4151   -3.1121    1.4533 N   0  0  0  0  0  0  0  0  0  0  0  0
    6.1652   -3.4534    0.1619 C   0  0  0  0  0  0  0  0  0  0  0  0
    4.9383   -3.7662   -0.4660 C   0  0  0  0  0  0  0  0  0  0  0  0
    3.6639   -3.4100   -0.0964 N   0  0  0  0  0  0  0  0  0  0  0  0
    2.9161   -3.8428   -1.1421 C   0  0  0  0  0  0  0  0  0  0  0  0
    1.5936   -3.6504   -1.5068 C   0  0  0  0  0  0  0  0  0  0  0  0
    0.2236   -3.0120   -0.7890 S   0  0  0  0  0  0  0  0  0  0  0  0
    3.2551   -2.3044    0.7829 C   0  0  0  0  0  0  0  0  0  0  0  0
    3.3546   -0.9687    0.0489 C   0  0  0  0  0  0  0  0  0  0  0  0
    5.7299   -3.6356    2.6484 C   0  0  0  0  0  0  0  0  0  0  0  0
    6.5748   -4.7048    3.3424 C   0  0  0  0  0  0  0  0  0  0  0  0
    8.1043    2.0639    3.5762 C   0  0  0  0  0  0  0  0  0  0  0  0
    6.8873    2.2805    4.2566 C   0  0  0  0  0  0  0  0  0  0  0  0
    5.9365    1.3987    4.6173 N   0  0  0  0  0  0  0  0  0  0  0  0
    4.9822    2.1248    5.1912 N   0  0  0  0  0  0  0  0  0  0  0  0
    3.7407    1.5609    5.7056 C   0  0  0  0  0  0  0  0  0  0  0  0
    2.7592    1.3217    4.5668 C   0  0  0  0  0  0  0  0  0  0  0  0
    5.2559    3.4255    5.1953 N   0  0  0  0  0  0  0  0  0  0  0  0
    6.4629    3.5234    4.6151 C   0  0  0  0  0  0  0  0  0  0  0  0
    7.1851    4.6749    4.3263 C   0  0  0  0  0  0  0  0  0  0  0  0
    8.4634    4.5034    3.7553 C   0  0  0  0  0  0  0  0  0  0  0  0
    8.9273    3.2092    3.4091 C   0  0  0  0  0  0  0  0  0  0  0  0
    9.2400    5.5818    3.4939 F   0  0  0  0  0  0  0  0  0  0  0  0
    6.6021    6.0031    4.5588 C   0  0  0  0  0  0  0  0  0  0  0  0
    5.5349    6.4520    3.8589 C   0  0  0  0  0  0  0  0  0  0  0  0
    4.8833    5.7301    2.7559 C   0  0  0  0  0  0  0  0  0  0  0  0
    5.3617    4.7575    2.1092 O   0  0  0  0  0  0  0  0  0  0  0  0
    3.6005    6.3414    2.5013 C   0  0  0  0  0  0  0  0  0  0  0  0
    2.5899    5.8851    1.6568 C   0  0  0  0  0  0  0  0  0  0  0  0
    1.3570    6.5514    1.6520 C   0  0  0  0  0  0  0  0  0  0  0  0
    0.3462    6.0568    0.8126 O   0  0  0  0  0  0  0  0  0  0  0  0
   -0.9822    6.5651    0.7687 C   0  0  0  0  0  0  0  0  0  0  0  0
    1.1692    7.6700    2.5019 C   0  0  0  0  0  0  0  0  0  0  0  0
    2.1985    8.1021    3.3525 C   0  0  0  0  0  0  0  0  0  0  0  0
    3.4343    7.4366    3.3300 C   0  0  0  0  0  0  0  0  0  0  0  0
    4.6694    7.6415    4.1490 C   0  0  0  0  0  0  0  0  0  0  0  0
    4.9975    8.7519    4.8571 C   0  0  0  0  0  0  0  0  0  0  0  0
    6.2807    8.9309    5.4784 C   0  0  0  0  0  0  0  0  0  0  0  0
    7.3134    9.0938    5.9790 N   0  0  0  0  0  0  0  0  0  0  0  0
    4.1352    9.8980    4.9420 C   0  0  0  0  0  0  0  0  0  0  0  0
    3.4568   10.8332    5.0144 N   0  0  0  0  0  0  0  0  0  0  0  0
   -8.4545   -1.4621   -0.2145 H   0  0  0  0  0  0  0  0  0  0  0  0
   -3.9109    0.9353    3.5066 H   0  0  0  0  0  0  0  0  0  0  0  0
   -8.8480    1.3509    4.7208 H   0  0  0  0  0  0  0  0  0  0  0  0
   -6.7536    1.4239    7.4709 H   0  0  0  0  0  0  0  0  0  0  0  0
   -7.5439    3.8794    7.5873 H   0  0  0  0  0  0  0  0  0  0  0  0
   -7.2133    5.0915    5.2544 H   0  0  0  0  0  0  0  0  0  0  0  0
   -4.6964    4.9221    4.5951 H   0  0  0  0  0  0  0  0  0  0  0  0
   -3.4176    3.6169    6.5165 H   0  0  0  0  0  0  0  0  0  0  0  0
   -5.1183    3.3069    8.5627 H   0  0  0  0  0  0  0  0  0  0  0  0
   -5.1765    5.0122    7.9179 H   0  0  0  0  0  0  0  0  0  0  0  0
   -4.4593    1.2854    6.9019 H   0  0  0  0  0  0  0  0  0  0  0  0
   -8.1849   -0.5099   -3.3160 H   0  0  0  0  0  0  0  0  0  0  0  0
  -10.2790    0.7552   -2.9816 H   0  0  0  0  0  0  0  0  0  0  0  0
  -10.4563    4.0972   -1.2992 H   0  0  0  0  0  0  0  0  0  0  0  0
  -11.1561    2.5789   -0.6209 H   0  0  0  0  0  0  0  0  0  0  0  0
  -11.3210    2.9484   -2.3819 H   0  0  0  0  0  0  0  0  0  0  0  0
   -8.1574    3.6144   -0.5425 H   0  0  0  0  0  0  0  0  0  0  0  0
   -6.0725    2.3507   -0.8818 H   0  0  0  0  0  0  0  0  0  0  0  0
   -3.5983    1.4937   -1.5750 H   0  0  0  0  0  0  0  0  0  0  0  0
   -1.8123    2.3372   -3.0546 H   0  0  0  0  0  0  0  0  0  0  0  0
   -1.0170    1.2082   -6.0563 H   0  0  0  0  0  0  0  0  0  0  0  0
   -0.9968    2.8405   -5.2737 H   0  0  0  0  0  0  0  0  0  0  0  0
   -2.0475    2.5432   -6.7055 H   0  0  0  0  0  0  0  0  0  0  0  0
   -3.9276    0.7909   -6.4836 H   0  0  0  0  0  0  0  0  0  0  0  0
   -5.7099   -0.0546   -4.9994 H   0  0  0  0  0  0  0  0  0  0  0  0
   -3.7179   -5.9983   -2.7680 H   0  0  0  0  0  0  0  0  0  0  0  0
   -4.8318   -8.1454   -3.1360 H   0  0  0  0  0  0  0  0  0  0  0  0
   -5.3495  -10.3987   -2.2987 H   0  0  0  0  0  0  0  0  0  0  0  0
   -5.1801  -10.7885   -0.5572 H   0  0  0  0  0  0  0  0  0  0  0  0
   -6.6231   -9.8666   -1.1311 H   0  0  0  0  0  0  0  0  0  0  0  0
   -4.6899   -8.9589    1.0951 H   0  0  0  0  0  0  0  0  0  0  0  0
   -3.6090   -6.7980    1.4825 H   0  0  0  0  0  0  0  0  0  0  0  0
   -0.8553   -6.5331    0.4162 H   0  0  0  0  0  0  0  0  0  0  0  0
    0.7412   -6.0659    2.2252 H   0  0  0  0  0  0  0  0  0  0  0  0
    1.7692   -4.4409    3.7158 H   0  0  0  0  0  0  0  0  0  0  0  0
    1.0798   -2.7848    3.8381 H   0  0  0  0  0  0  0  0  0  0  0  0
    0.3964   -4.1187    4.8490 H   0  0  0  0  0  0  0  0  0  0  0  0
   -1.3409   -2.3901    3.1121 H   0  0  0  0  0  0  0  0  0  0  0  0
   -2.9579   -2.8743    1.3296 H   0  0  0  0  0  0  0  0  0  0  0  0
   -1.0997   -6.4962   -3.2815 H   0  0  0  0  0  0  0  0  0  0  0  0
   -2.1195   -7.5629   -5.2583 H   0  0  0  0  0  0  0  0  0  0  0  0
   -2.2454   -6.3533   -7.4025 H   0  0  0  0  0  0  0  0  0  0  0  0
   -0.6505   -2.9704   -7.9792 H   0  0  0  0  0  0  0  0  0  0  0  0
   -1.0872   -4.5025   -8.7991 H   0  0  0  0  0  0  0  0  0  0  0  0
   -3.5056   -4.1365   -8.2096 H   0  0  0  0  0  0  0  0  0  0  0  0
   -3.0604   -2.5985   -7.3600 H   0  0  0  0  0  0  0  0  0  0  0  0
   -2.8261   -2.7485   -9.1457 H   0  0  0  0  0  0  0  0  0  0  0  0
   -0.3045   -2.9530   -5.5862 H   0  0  0  0  0  0  0  0  0  0  0  0
   11.9965    0.6249    1.7437 H   0  0  0  0  0  0  0  0  0  0  0  0
   13.3046    2.2473    0.4240 H   0  0  0  0  0  0  0  0  0  0  0  0
   12.1614    3.9494   -0.9462 H   0  0  0  0  0  0  0  0  0  0  0  0
   10.1189    5.1830   -1.4467 H   0  0  0  0  0  0  0  0  0  0  0  0
    8.5510    4.6718   -0.7545 H   0  0  0  0  0  0  0  0  0  0  0  0
    9.9807    3.3641   -3.1647 H   0  0  0  0  0  0  0  0  0  0  0  0
    8.5405    4.4509   -3.2258 H   0  0  0  0  0  0  0  0  0  0  0  0
    8.4019    2.8209   -2.4677 H   0  0  0  0  0  0  0  0  0  0  0  0
    8.3412    2.3664    0.2859 H   0  0  0  0  0  0  0  0  0  0  0  0
    3.8768   -2.2327    1.6833 H   0  0  0  0  0  0  0  0  0  0  0  0
    2.2138   -2.4664    1.1311 H   0  0  0  0  0  0  0  0  0  0  0  0
    4.4126   -0.7581   -0.2134 H   0  0  0  0  0  0  0  0  0  0  0  0
    2.9813   -0.1596    0.7076 H   0  0  0  0  0  0  0  0  0  0  0  0
    2.7436   -0.9795   -0.8763 H   0  0  0  0  0  0  0  0  0  0  0  0
    5.5224   -2.8045    3.3597 H   0  0  0  0  0  0  0  0  0  0  0  0
    4.7722   -4.1157    2.3679 H   0  0  0  0  0  0  0  0  0  0  0  0
    6.0065   -5.1178    4.2018 H   0  0  0  0  0  0  0  0  0  0  0  0
    7.5214   -4.2736    3.7194 H   0  0  0  0  0  0  0  0  0  0  0  0
    6.8029   -5.5287    2.6316 H   0  0  0  0  0  0  0  0  0  0  0  0
    3.9529    0.5988    6.2203 H   0  0  0  0  0  0  0  0  0  0  0  0
    3.2932    2.2589    6.4427 H   0  0  0  0  0  0  0  0  0  0  0  0
    2.6211    2.2543    3.9797 H   0  0  0  0  0  0  0  0  0  0  0  0
    1.7762    1.0128    4.9809 H   0  0  0  0  0  0  0  0  0  0  0  0
    3.1423    0.5211    3.8972 H   0  0  0  0  0  0  0  0  0  0  0  0
    9.9182    3.1255    2.9929 H   0  0  0  0  0  0  0  0  0  0  0  0
    6.9979    6.5482    5.4002 H   0  0  0  0  0  0  0  0  0  0  0  0
    2.7427    5.0062    1.0453 H   0  0  0  0  0  0  0  0  0  0  0  0
   -0.9770    7.6271    0.4364 H   0  0  0  0  0  0  0  0  0  0  0  0
   -1.4595    6.4788    1.7708 H   0  0  0  0  0  0  0  0  0  0  0  0
   -1.5786    5.9709    0.0427 H   0  0  0  0  0  0  0  0  0  0  0  0
    0.2238    8.1909    2.5290 H   0  0  0  0  0  0  0  0  0  0  0  0
    1.9948    8.9091    4.0356 H   0  0  0  0  0  0  0  0  0  0  0  0
  1  2  2  3
  2  3  1  0
  3  4  2  0
  3  5  1  0
  5  6  2  0
  6  7  1  0
  7  8  2  0
  8  9  1  0
  9 10  2  0
 10 11  1  0
 11 12  2  3
 12 13  1  0
 13 14  3  0
 12 15  1  0
 15 16  3  0
  8 17  1  0
 17 18  1  0
 18 19  1  0
 19 20  2  0
 20 21  1  0
 21 22  1  0
 21 23  1  0
  1 24  1  0
 24 25  2  0
 25 26  1  0
 26 27  1  0
 27 28  2  0
 28 29  1  0
 29 30  2  0
 30 31  1  0
 30 32  1  0
 32 33  2  0
 26 34  1  0
 34 35  2  0
 35 36  1  0
 36 37  2  0
 37 38  1  0
 37 39  1  0
 39 40  2  0
 25 41  1  0
 41 42  1  0
 42 43  1  0
 43 44  2  0
 44 45  1  0
 45 46  1  0
 46 47  2  0
 47 48  1  0
 48 49  2  0
 49 50  1  0
 49 51  1  0
 51 52  2  0
 45 53  1  0
 53 54  2  0
 54 55  1  0
 55 56  2  0
 56 57  1  0
 56 58  1  0
 58 59  2  0
 44 60  1  0
 60 61  1  0
 43 62  1  0
 62 63  2  0
 63 64  1  0
 64 65  2  0
 65 66  1  0
 66 67  2  0
 67 68  1  0
 68 69  1  0
 69 70  1  0
 68 71  2  0
 63 72  1  0
 72 73  1  0
 73 74  1  0
 74 75  1  0
 75 76  1  0
 76 77  1  0
 77 78  2  0
 78 79  1  0
 79 80  1  0
 77 81  1  0
 81 82  1  0
 82 83  1  0
 83 84  1  0
 84 85  1  0
 85 86  1  0
 86 87  2  0
 87 88  1  0
 88 89  2  0
 89 90  1  0
 90 91  1  0
 91 92  1  0
 90 93  2  0
 85 94  2  0
 94 95  1  0
 95 96  1  0
 96 97  1  0
 97 98  1  0
 98 99  1  0
 99100  1  0
100101  1  0
101102  1  0
102103  1  0
103104  1  0
101105  1  0
105106  1  0
 98107  1  0
107108  1  0
 94109  1  0
109110  1  0
110111  2  0
111112  1  0
112113  1  0
113114  1  0
112115  1  0
115116  2  0
116117  1  0
117118  2  0
118119  1  0
118120  1  0
117121  1  0
121122  2  3
122123  1  0
123124  2  0
123125  1  0
125126  2  0
126127  1  0
127128  1  0
128129  1  0
127130  2  0
130131  1  0
131132  2  0
132133  1  0
133134  2  3
134135  1  0
135136  3  0
134137  1  0
137138  3  0
 11  2  1  0
 23 17  1  0
 61 24  1  0
104 62  1  0
119109  2  0
133122  1  0
 10  5  1  0
 22 18  1  0
 33 27  1  0
 40 34  1  0
 60 41  2  0
 71 64  1  0
103 72  2  0
116110  1  0
132125  1  0
 23  7  1  0
 52 46  1  0
 59 53  1  0
102 74  2  0
100 75  2  0
 80 76  2  0
 99 81  2  0
 97 82  2  0
 96 84  2  0
 93 86  1  0
  1139  1  0
  6140  1  0
  9141  1  0
 17142  1  0
 18143  1  0
 19144  1  0
 20145  1  0
 21146  1  0
 22147  1  0
 22148  1  0
 23149  1  0
 28150  1  0
 29151  1  0
 31152  1  0
 31153  1  0
 31154  1  0
 32155  1  0
 33156  1  0
 35157  1  0
 36158  1  0
 38159  1  0
 38160  1  0
 38161  1  0
 39162  1  0
 40163  1  0
 47164  1  0
 48165  1  0
 50166  1  0
 50167  1  0
 50168  1  0
 51169  1  0
 52170  1  0
 54171  1  0
 55172  1  0
 57173  1  0
 57174  1  0
 57175  1  0
 58176  1  0
 59177  1  0
 65178  1  0
 66179  1  0
 67180  1  0
 69181  1  0
 69182  1  0
 70183  1  0
 70184  1  0
 70185  1  0
 71186  1  0
 87187  1  0
 88188  1  0
 89189  1  0
 91190  1  0
 91191  1  0
 92192  1  0
 92193  1  0
 92194  1  0
 93195  1  0
105196  1  0
105197  1  0
106198  1  0
106199  1  0
106200  1  0
107201  1  0
107202  1  0
108203  1  0
108204  1  0
108205  1  0
113206  1  0
113207  1  0
114208  1  0
114209  1  0
114210  1  0
119211  1  0
121212  1  0
126213  1  0
129214  1  0
129215  1  0
129216  1  0
130217  1  0
131218  1  0
M  END

