
     RDKit          3D

240266  0  0  0  0  0  0  0  0999 V2000
    4.5693   -3.9844    6.7470 C   0  0  0  0  0  0  0  0  0  0  0  0
    4.9364   -5.2752    6.8675 C   0  0  0  0  0  0  0  0  0  0  0  0
    4.3957   -6.4011    6.0858 C   0  0  0  0  0  0  0  0  0  0  0  0
    3.3485   -6.3994    5.3856 O   0  0  0  0  0  0  0  0  0  0  0  0
    5.2908   -7.5234    6.2049 C   0  0  0  0  0  0  0  0  0  0  0  0
    5.1966   -8.7583    5.5265 C   0  0  0  0  0  0  0  0  0  0  0  0
    6.2747   -9.5980    5.7470 C   0  0  0  0  0  0  0  0  0  0  0  0
    7.3917   -9.2424    6.5692 C   0  0  0  0  0  0  0  0  0  0  0  0
    7.4850   -8.0294    7.2385 C   0  0  0  0  0  0  0  0  0  0  0  0
    6.3674   -7.1664    7.0575 C   0  0  0  0  0  0  0  0  0  0  0  0
    6.1247   -5.7997    7.6058 C   0  0  0  0  0  0  0  0  0  0  0  0
    6.6649   -5.2679    8.7303 C   0  0  0  0  0  0  0  0  0  0  0  0
    6.0932   -4.1110    9.3802 C   0  0  0  0  0  0  0  0  0  0  0  0
    5.6148   -3.2094    9.9186 N   0  0  0  0  0  0  0  0  0  0  0  0
    7.7182   -5.9202    9.4670 C   0  0  0  0  0  0  0  0  0  0  0  0
    8.5591   -6.4425   10.0656 N   0  0  0  0  0  0  0  0  0  0  0  0
    8.0598  -10.5464    6.2510 C   0  0  0  0  0  0  0  0  0  0  0  0
    8.0701  -11.6217    7.3742 C   0  0  0  0  0  0  0  0  0  0  0  0
    8.3974  -12.9325    6.6895 C   0  0  0  0  0  0  0  0  0  0  0  0
    7.3312  -13.2616    5.9566 C   0  0  0  0  0  0  0  0  0  0  0  0
    6.3200  -12.1637    6.1633 C   0  0  0  0  0  0  0  0  0  0  0  0
    6.5923  -11.8612    7.6284 C   0  0  0  0  0  0  0  0  0  0  0  0
    6.9007  -10.9177    5.4318 C   0  0  0  0  0  0  0  0  0  0  0  0
    3.4386   -3.5928    5.9069 C   0  0  0  0  0  0  0  0  0  0  0  0
    2.1012   -3.6285    6.3163 C   0  0  0  0  0  0  0  0  0  0  0  0
    1.6717   -3.4544    7.6748 N   0  0  0  0  0  0  0  0  0  0  0  0
    0.8149   -4.4451    8.2749 C   0  0  0  0  0  0  0  0  0  0  0  0
    1.0992   -5.8106    8.1177 C   0  0  0  0  0  0  0  0  0  0  0  0
    0.2589   -6.7787    8.6676 C   0  0  0  0  0  0  0  0  0  0  0  0
   -0.8714   -6.3977    9.4044 C   0  0  0  0  0  0  0  0  0  0  0  0
   -1.7963   -7.4347    9.9581 C   0  0  0  0  0  0  0  0  0  0  0  0
   -1.1670   -5.0307    9.5555 C   0  0  0  0  0  0  0  0  0  0  0  0
   -0.3254   -4.0634    8.9987 C   0  0  0  0  0  0  0  0  0  0  0  0
    1.9783   -2.2141    8.3509 C   0  0  0  0  0  0  0  0  0  0  0  0
    2.0125   -1.0008    7.6372 C   0  0  0  0  0  0  0  0  0  0  0  0
    2.3015    0.2026    8.2888 C   0  0  0  0  0  0  0  0  0  0  0  0
    2.5641    0.2156    9.6653 C   0  0  0  0  0  0  0  0  0  0  0  0
    2.8133    1.5203   10.3646 C   0  0  0  0  0  0  0  0  0  0  0  0
    2.5137   -0.9868   10.3862 C   0  0  0  0  0  0  0  0  0  0  0  0
    2.2344   -2.1963    9.7332 C   0  0  0  0  0  0  0  0  0  0  0  0
    1.2423   -3.6181    5.2221 C   0  0  0  0  0  0  0  0  0  0  0  0
   -0.4234   -3.5533    5.0299 S   0  0  0  0  0  0  0  0  0  0  0  0
   -0.3313   -3.4619    3.3277 C   0  0  0  0  0  0  0  0  0  0  0  0
    1.0099   -3.4249    2.9220 C   0  0  0  0  0  0  0  0  0  0  0  0
    1.4530   -2.9186    1.6544 N   0  0  0  0  0  0  0  0  0  0  0  0
    1.8176   -3.8442    0.6106 C   0  0  0  0  0  0  0  0  0  0  0  0
    1.6312   -3.4907   -0.7368 C   0  0  0  0  0  0  0  0  0  0  0  0
    2.1400   -4.2997   -1.7584 C   0  0  0  0  0  0  0  0  0  0  0  0
    2.8137   -5.4875   -1.4498 C   0  0  0  0  0  0  0  0  0  0  0  0
    3.4505   -6.2901   -2.5436 C   0  0  0  0  0  0  0  0  0  0  0  0
    2.9579   -5.8696   -0.1064 C   0  0  0  0  0  0  0  0  0  0  0  0
    2.4541   -5.0629    0.9181 C   0  0  0  0  0  0  0  0  0  0  0  0
    1.8596   -1.5299    1.5774 C   0  0  0  0  0  0  0  0  0  0  0  0
    1.1396   -0.5367    2.2640 C   0  0  0  0  0  0  0  0  0  0  0  0
    1.5716    0.7927    2.2568 C   0  0  0  0  0  0  0  0  0  0  0  0
    2.7352    1.1553    1.5668 C   0  0  0  0  0  0  0  0  0  0  0  0
    3.1811    2.5849    1.5314 C   0  0  0  0  0  0  0  0  0  0  0  0
    3.4522    0.1778    0.8665 C   0  0  0  0  0  0  0  0  0  0  0  0
    3.0293   -1.1564    0.8836 C   0  0  0  0  0  0  0  0  0  0  0  0
    1.8585   -3.5314    4.0176 C   0  0  0  0  0  0  0  0  0  0  0  0
    3.5228   -3.4907    4.2019 S   0  0  0  0  0  0  0  0  0  0  0  0
   -1.4894   -3.2327    2.4606 C   0  0  0  0  0  0  0  0  0  0  0  0
   -1.8545   -3.9905    1.3212 C   0  0  0  0  0  0  0  0  0  0  0  0
   -1.2452   -5.2814    0.9185 C   0  0  0  0  0  0  0  0  0  0  0  0
   -0.9404   -6.2547    1.8830 C   0  0  0  0  0  0  0  0  0  0  0  0
   -0.4085   -7.4894    1.4994 C   0  0  0  0  0  0  0  0  0  0  0  0
   -0.1858   -7.7718    0.1539 C   0  0  0  0  0  0  0  0  0  0  0  0
   -0.4795   -6.8127   -0.8275 C   0  0  0  0  0  0  0  0  0  0  0  0
   -0.2695   -7.1205   -2.2868 C   0  0  0  0  0  0  0  0  0  0  0  0
   -1.6010   -7.4090   -2.9818 C   0  0  0  0  0  0  0  0  0  0  0  0
   -1.0070   -5.5700   -0.4373 C   0  0  0  0  0  0  0  0  0  0  0  0
   -2.9194   -3.3753    0.6615 C   0  0  0  0  0  0  0  0  0  0  0  0
   -3.7997   -3.7060   -0.7714 S   0  0  0  0  0  0  0  0  0  0  0  0
   -4.6972   -2.2775   -0.5832 C   0  0  0  0  0  0  0  0  0  0  0  0
   -5.6582   -1.5340   -1.2110 C   0  0  0  0  0  0  0  0  0  0  0  0
   -6.4352   -1.7514   -2.3512 C   0  0  0  0  0  0  0  0  0  0  0  0
   -7.3523   -0.7318   -2.7571 C   0  0  0  0  0  0  0  0  0  0  0  0
   -8.0613   -0.9677   -3.8878 N   0  0  0  0  0  0  0  0  0  0  0  0
   -7.4791   -2.4683   -4.2783 S   0  0  0  0  0  0  0  0  0  0  0  0
   -6.3641   -2.8625   -3.1183 N   0  0  0  0  0  0  0  0  0  0  0  0
   -7.3937    0.4766   -2.0384 C   0  0  0  0  0  0  0  0  0  0  0  0
   -7.8009    1.7161   -2.4703 C   0  0  0  0  0  0  0  0  0  0  0  0
   -8.2146    2.2845   -4.0099 S   0  0  0  0  0  0  0  0  0  0  0  0
   -7.4564    3.7714   -3.7409 C   0  0  0  0  0  0  0  0  0  0  0  0
   -6.9818    4.7109   -4.6539 C   0  0  0  0  0  0  0  0  0  0  0  0
   -7.5739    4.8681   -5.9930 C   0  0  0  0  0  0  0  0  0  0  0  0
   -7.0913    4.1491   -7.0957 C   0  0  0  0  0  0  0  0  0  0  0  0
   -7.6922    4.2966   -8.3501 C   0  0  0  0  0  0  0  0  0  0  0  0
   -8.8262    5.1073   -8.4910 C   0  0  0  0  0  0  0  0  0  0  0  0
   -9.3636    5.7741   -7.3759 C   0  0  0  0  0  0  0  0  0  0  0  0
  -10.6165    6.5983   -7.5011 C   0  0  0  0  0  0  0  0  0  0  0  0
  -10.2942    8.0868   -7.5836 C   0  0  0  0  0  0  0  0  0  0  0  0
   -8.7145    5.6697   -6.1344 C   0  0  0  0  0  0  0  0  0  0  0  0
   -5.9569    5.5057   -4.1055 C   0  0  0  0  0  0  0  0  0  0  0  0
   -5.6907    4.9964   -2.5048 S   0  0  0  0  0  0  0  0  0  0  0  0
   -6.8702    3.8062   -2.4990 C   0  0  0  0  0  0  0  0  0  0  0  0
   -7.0730    2.6367   -1.7579 C   0  0  0  0  0  0  0  0  0  0  0  0
   -6.2918    2.0520   -0.8112 N   0  0  0  0  0  0  0  0  0  0  0  0
   -6.5379    0.7124   -0.9507 C   0  0  0  0  0  0  0  0  0  0  0  0
   -5.7734   -0.3636   -0.4456 C   0  0  0  0  0  0  0  0  0  0  0  0
   -5.0145   -0.4322    0.6884 N   0  0  0  0  0  0  0  0  0  0  0  0
   -4.3458   -1.5922    0.5286 C   0  0  0  0  0  0  0  0  0  0  0  0
   -3.3614   -2.2222    1.2523 C   0  0  0  0  0  0  0  0  0  0  0  0
   -2.4750   -1.8536    2.6159 S   0  0  0  0  0  0  0  0  0  0  0  0
   -5.2996    0.1927    1.9847 C   0  0  0  0  0  0  0  0  0  0  0  0
   -6.1263   -0.7403    2.8657 C   0  0  0  0  0  0  0  0  0  0  0  0
   -5.1162    2.6939   -0.1945 C   0  0  0  0  0  0  0  0  0  0  0  0
   -5.5446    3.7518    0.8209 C   0  0  0  0  0  0  0  0  0  0  0  0
   -4.9206    6.2319   -4.8641 C   0  0  0  0  0  0  0  0  0  0  0  0
   -3.9072    7.0069   -4.2875 C   0  0  0  0  0  0  0  0  0  0  0  0
   -2.7762    7.1467   -5.1182 C   0  0  0  0  0  0  0  0  0  0  0  0
   -1.5659    7.7968   -4.7937 C   0  0  0  0  0  0  0  0  0  0  0  0
   -1.3972    8.5197   -3.5248 C   0  0  0  0  0  0  0  0  0  0  0  0
   -1.4851    9.9133   -3.4941 C   0  0  0  0  0  0  0  0  0  0  0  0
   -1.4220   10.5965   -2.2797 C   0  0  0  0  0  0  0  0  0  0  0  0
   -1.2699    9.8851   -1.0871 C   0  0  0  0  0  0  0  0  0  0  0  0
   -1.1772    8.4910   -1.1139 C   0  0  0  0  0  0  0  0  0  0  0  0
   -1.0451    7.5622    0.4186 S   0  0  0  0  0  0  0  0  0  0  0  0
   -2.8491    7.3306    0.5407 C   0  0  0  0  0  0  0  0  0  0  0  0
   -3.2080    6.6448    1.8505 C   0  0  0  0  0  0  0  0  0  0  0  0
   -1.2318    7.8074   -2.3321 C   0  0  0  0  0  0  0  0  0  0  0  0
   -0.5146    7.6919   -5.7246 C   0  0  0  0  0  0  0  0  0  0  0  0
   -0.6289    6.9701   -6.9155 C   0  0  0  0  0  0  0  0  0  0  0  0
   -1.8388    6.3371   -7.2457 C   0  0  0  0  0  0  0  0  0  0  0  0
   -1.9954    5.4833   -8.4396 C   0  0  0  0  0  0  0  0  0  0  0  0
   -2.2675    4.1102   -8.2925 C   0  0  0  0  0  0  0  0  0  0  0  0
   -2.6201    3.3452   -9.4055 C   0  0  0  0  0  0  0  0  0  0  0  0
   -2.7007    3.9354  -10.6676 C   0  0  0  0  0  0  0  0  0  0  0  0
   -2.3778    5.2888  -10.8263 C   0  0  0  0  0  0  0  0  0  0  0  0
   -2.4618    6.0542  -12.4535 S   0  0  0  0  0  0  0  0  0  0  0  0
   -0.8417    5.4337  -13.0392 C   0  0  0  0  0  0  0  0  0  0  0  0
    0.3214    5.9693  -12.2084 C   0  0  0  0  0  0  0  0  0  0  0  0
   -2.0370    6.0633   -9.7116 C   0  0  0  0  0  0  0  0  0  0  0  0
   -2.8966    6.4699   -6.3317 C   0  0  0  0  0  0  0  0  0  0  0  0
   -4.4031    5.7487   -6.3961 S   0  0  0  0  0  0  0  0  0  0  0  0
    0.5684    6.9095   -7.6469 C   0  0  0  0  0  0  0  0  0  0  0  0
    1.6218    7.5853   -7.0185 C   0  0  0  0  0  0  0  0  0  0  0  0
    1.0633    8.2534   -5.5675 S   0  0  0  0  0  0  0  0  0  0  0  0
    3.0230    7.6107   -7.4840 C   0  0  0  0  0  0  0  0  0  0  0  0
    4.0872    8.2278   -6.8393 C   0  0  0  0  0  0  0  0  0  0  0  0
    5.3163    8.0120   -7.4763 C   0  0  0  0  0  0  0  0  0  0  0  0
    5.2374    7.2417   -8.6366 C   0  0  0  0  0  0  0  0  0  0  0  0
    6.4052    6.8004   -9.4546 C   0  0  0  0  0  0  0  0  0  0  0  0
    6.3116    6.4244  -10.7547 C   0  0  0  0  0  0  0  0  0  0  0  0
    5.0809    6.4824  -11.5059 C   0  0  0  0  0  0  0  0  0  0  0  0
    4.0898    6.5076  -12.0977 N   0  0  0  0  0  0  0  0  0  0  0  0
    7.4770    5.9921  -11.4991 C   0  0  0  0  0  0  0  0  0  0  0  0
    8.4051    5.6475  -12.1000 N   0  0  0  0  0  0  0  0  0  0  0  0
    7.6963    6.7846   -8.7953 C   0  0  0  0  0  0  0  0  0  0  0  0
    8.7288    6.7740   -8.2729 N   0  0  0  0  0  0  0  0  0  0  0  0
    3.6176    6.8082   -8.8363 S   0  0  0  0  0  0  0  0  0  0  0  0
    5.1382   -3.1902    7.2038 H   0  0  0  0  0  0  0  0  0  0  0  0
    4.3748   -9.0130    4.8722 H   0  0  0  0  0  0  0  0  0  0  0  0
    8.3598   -7.7755    7.8140 H   0  0  0  0  0  0  0  0  0  0  0  0
    9.0052  -10.4275    5.6827 H   0  0  0  0  0  0  0  0  0  0  0  0
    8.6913  -11.3929    8.2638 H   0  0  0  0  0  0  0  0  0  0  0  0
    9.2869  -13.5469    6.8291 H   0  0  0  0  0  0  0  0  0  0  0  0
    7.1976  -14.1804    5.3957 H   0  0  0  0  0  0  0  0  0  0  0  0
    5.2716  -12.4306    5.9104 H   0  0  0  0  0  0  0  0  0  0  0  0
    6.4037  -12.7285    8.3073 H   0  0  0  0  0  0  0  0  0  0  0  0
    6.0501  -10.9738    8.0251 H   0  0  0  0  0  0  0  0  0  0  0  0
    7.1204  -11.0511    4.3463 H   0  0  0  0  0  0  0  0  0  0  0  0
    1.9772   -6.1282    7.5768 H   0  0  0  0  0  0  0  0  0  0  0  0
    0.4908   -7.8276    8.5272 H   0  0  0  0  0  0  0  0  0  0  0  0
   -2.3715   -7.0425   10.8238 H   0  0  0  0  0  0  0  0  0  0  0  0
   -2.5058   -7.7486    9.1614 H   0  0  0  0  0  0  0  0  0  0  0  0
   -1.2239   -8.3244   10.2978 H   0  0  0  0  0  0  0  0  0  0  0  0
   -2.0511   -4.7127   10.1039 H   0  0  0  0  0  0  0  0  0  0  0  0
   -0.5750   -3.0182    9.1178 H   0  0  0  0  0  0  0  0  0  0  0  0
    1.7990   -0.9805    6.5741 H   0  0  0  0  0  0  0  0  0  0  0  0
    2.3204    1.1207    7.7131 H   0  0  0  0  0  0  0  0  0  0  0  0
    3.3874    2.2079    9.7053 H   0  0  0  0  0  0  0  0  0  0  0  0
    1.8409    1.9924   10.6207 H   0  0  0  0  0  0  0  0  0  0  0  0
    3.3986    1.3623   11.2945 H   0  0  0  0  0  0  0  0  0  0  0  0
    2.6945   -0.9940   11.4537 H   0  0  0  0  0  0  0  0  0  0  0  0
    2.2193   -3.1147   10.3033 H   0  0  0  0  0  0  0  0  0  0  0  0
    1.1289   -2.5689   -0.9935 H   0  0  0  0  0  0  0  0  0  0  0  0
    2.0254   -3.9909   -2.7882 H   0  0  0  0  0  0  0  0  0  0  0  0
    4.4072   -5.8096   -2.8407 H   0  0  0  0  0  0  0  0  0  0  0  0
    2.7828   -6.3394   -3.4298 H   0  0  0  0  0  0  0  0  0  0  0  0
    3.6642   -7.3293   -2.2121 H   0  0  0  0  0  0  0  0  0  0  0  0
    3.4872   -6.7798    0.1532 H   0  0  0  0  0  0  0  0  0  0  0  0
    2.6103   -5.3645    1.9472 H   0  0  0  0  0  0  0  0  0  0  0  0
    0.2491   -0.7837    2.8175 H   0  0  0  0  0  0  0  0  0  0  0  0
    0.9975    1.5401    2.7942 H   0  0  0  0  0  0  0  0  0  0  0  0
    2.8543    3.1258    2.4457 H   0  0  0  0  0  0  0  0  0  0  0  0
    4.2917    2.6483    1.4726 H   0  0  0  0  0  0  0  0  0  0  0  0
    2.7418    3.0831    0.6415 H   0  0  0  0  0  0  0  0  0  0  0  0
    4.3532    0.4374    0.3167 H   0  0  0  0  0  0  0  0  0  0  0  0
    3.6329   -1.8979    0.3788 H   0  0  0  0  0  0  0  0  0  0  0  0
   -1.1553   -6.0797    2.9320 H   0  0  0  0  0  0  0  0  0  0  0  0
   -0.1809   -8.2338    2.2517 H   0  0  0  0  0  0  0  0  0  0  0  0
    0.2076   -8.7404   -0.1239 H   0  0  0  0  0  0  0  0  0  0  0  0
    0.2212   -6.2572   -2.7896 H   0  0  0  0  0  0  0  0  0  0  0  0
    0.4007   -8.0015   -2.4090 H   0  0  0  0  0  0  0  0  0  0  0  0
   -1.4106   -7.7036   -4.0361 H   0  0  0  0  0  0  0  0  0  0  0  0
   -2.2348   -6.4967   -2.9908 H   0  0  0  0  0  0  0  0  0  0  0  0
   -2.1431   -8.2263   -2.4648 H   0  0  0  0  0  0  0  0  0  0  0  0
   -1.2188   -4.8293   -1.2005 H   0  0  0  0  0  0  0  0  0  0  0  0
   -6.2370    3.4951   -6.9871 H   0  0  0  0  0  0  0  0  0  0  0  0
   -7.2899    3.7732   -9.2076 H   0  0  0  0  0  0  0  0  0  0  0  0
   -9.2965    5.1969   -9.4651 H   0  0  0  0  0  0  0  0  0  0  0  0
  -11.1933    6.2933   -8.4013 H   0  0  0  0  0  0  0  0  0  0  0  0
  -11.2665    6.4133   -6.6172 H   0  0  0  0  0  0  0  0  0  0  0  0
   -9.7198    8.3043   -8.5081 H   0  0  0  0  0  0  0  0  0  0  0  0
   -9.7131    8.4145   -6.6966 H   0  0  0  0  0  0  0  0  0  0  0  0
  -11.2401    8.6640   -7.6095 H   0  0  0  0  0  0  0  0  0  0  0  0
   -9.1074    6.2028   -5.2757 H   0  0  0  0  0  0  0  0  0  0  0  0
   -5.8915    1.1124    1.8490 H   0  0  0  0  0  0  0  0  0  0  0  0
   -4.3494    0.4585    2.4938 H   0  0  0  0  0  0  0  0  0  0  0  0
   -5.5340   -1.6393    3.1347 H   0  0  0  0  0  0  0  0  0  0  0  0
   -6.4024   -0.2101    3.8049 H   0  0  0  0  0  0  0  0  0  0  0  0
   -7.0443   -1.0493    2.3325 H   0  0  0  0  0  0  0  0  0  0  0  0
   -4.4502    1.9642    0.2915 H   0  0  0  0  0  0  0  0  0  0  0  0
   -4.4762    3.1505   -0.9716 H   0  0  0  0  0  0  0  0  0  0  0  0
   -6.0728    4.5834    0.3173 H   0  0  0  0  0  0  0  0  0  0  0  0
   -6.2300    3.3202    1.5743 H   0  0  0  0  0  0  0  0  0  0  0  0
   -4.6475    4.1481    1.3351 H   0  0  0  0  0  0  0  0  0  0  0  0
   -3.9455    7.3674   -3.2678 H   0  0  0  0  0  0  0  0  0  0  0  0
   -1.6215   10.4731   -4.4126 H   0  0  0  0  0  0  0  0  0  0  0  0
   -1.5119   11.6739   -2.2554 H   0  0  0  0  0  0  0  0  0  0  0  0
   -1.2445   10.4138   -0.1420 H   0  0  0  0  0  0  0  0  0  0  0  0
   -3.2057    6.7124   -0.3119 H   0  0  0  0  0  0  0  0  0  0  0  0
   -3.3591    8.3198    0.5026 H   0  0  0  0  0  0  0  0  0  0  0  0
   -2.9197    7.2818    2.7130 H   0  0  0  0  0  0  0  0  0  0  0  0
   -2.6861    5.6698    1.9256 H   0  0  0  0  0  0  0  0  0  0  0  0
   -4.2997    6.4636    1.8739 H   0  0  0  0  0  0  0  0  0  0  0  0
   -1.2045    6.7218   -2.3445 H   0  0  0  0  0  0  0  0  0  0  0  0
   -2.2477    3.6389   -7.3163 H   0  0  0  0  0  0  0  0  0  0  0  0
   -2.8649    2.2969   -9.2851 H   0  0  0  0  0  0  0  0  0  0  0  0
   -2.9829    3.3316  -11.5210 H   0  0  0  0  0  0  0  0  0  0  0  0
   -0.7128    5.7643  -14.0920 H   0  0  0  0  0  0  0  0  0  0  0  0
   -0.8401    4.3224  -13.0270 H   0  0  0  0  0  0  0  0  0  0  0  0
    1.2756    5.7733  -12.7347 H   0  0  0  0  0  0  0  0  0  0  0  0
    0.3480    5.4616  -11.2241 H   0  0  0  0  0  0  0  0  0  0  0  0
    0.2162    7.0670  -12.0583 H   0  0  0  0  0  0  0  0  0  0  0  0
   -1.8327    7.1255   -9.8309 H   0  0  0  0  0  0  0  0  0  0  0  0
    0.6834    6.3690   -8.5756 H   0  0  0  0  0  0  0  0  0  0  0  0
    3.9915    8.7921   -5.9268 H   0  0  0  0  0  0  0  0  0  0  0  0
    6.2431    8.4071   -7.0897 H   0  0  0  0  0  0  0  0  0  0  0  0
  1  2  2  3
  2  3  1  0
  3  4  2  0
  3  5  1  0
  5  6  2  0
  6  7  1  0
  7  8  2  0
  8  9  1  0
  9 10  2  0
 10 11  1  0
 11 12  2  3
 12 13  1  0
 13 14  3  0
 12 15  1  0
 15 16  3  0
  8 17  1  0
 17 18  1  0
 18 19  1  0
 19 20  2  0
 20 21  1  0
 21 22  1  0
 21 23  1  0
  1 24  1  0
 24 25  2  0
 25 26  1  0
 26 27  1  0
 27 28  2  0
 28 29  1  0
 29 30  2  0
 30 31  1  0
 30 32  1  0
 32 33  2  0
 26 34  1  0
 34 35  2  0
 35 36  1  0
 36 37  2  0
 37 38  1  0
 37 39  1  0
 39 40  2  0
 25 41  1  0
 41 42  1  0
 42 43  1  0
 43 44  2  0
 44 45  1  0
 45 46  1  0
 46 47  2  0
 47 48  1  0
 48 49  2  0
 49 50  1  0
 49 51  1  0
 51 52  2  0
 45 53  1  0
 53 54  2  0
 54 55  1  0
 55 56  2  0
 56 57  1  0
 56 58  1  0
 58 59  2  0
 44 60  1  0
 60 61  1  0
 43 62  1  0
 62 63  2  0
 63 64  1  0
 64 65  2  0
 65 66  1  0
 66 67  2  0
 67 68  1  0
 68 69  1  0
 69 70  1  0
 68 71  2  0
 63 72  1  0
 72 73  1  0
 73 74  1  0
 74 75  1  0
 75 76  1  0
 76 77  1  0
 77 78  2  0
 78 79  1  0
 79 80  1  0
 77 81  1  0
 81 82  1  0
 82 83  1  0
 83 84  1  0
 84 85  1  0
 85 86  1  0
 86 87  2  0
 87 88  1  0
 88 89  2  0
 89 90  1  0
 90 91  1  0
 91 92  1  0
 90 93  2  0
 85 94  2  0
 94 95  1  0
 95 96  1  0
 96 97  1  0
 97 98  1  0
 98 99  1  0
 99100  1  0
100101  1  0
101102  1  0
102103  1  0
103104  1  0
101105  1  0
105106  1  0
 98107  1  0
107108  1  0
 94109  1  0
109110  2  0
110111  1  0
111112  2  0
112113  1  0
113114  2  0
114115  1  0
115116  2  0
116117  1  0
117118  1  0
118119  1  0
119120  1  0
117121  2  0
112122  1  0
122123  2  0
123124  1  0
124125  1  0
125126  2  0
126127  1  0
127128  2  0
128129  1  0
129130  1  0
130131  1  0
131132  1  0
129133  2  0
124134  2  0
134135  1  0
123136  1  0
136137  2  0
137138  1  0
137139  1  0
139140  2  0
140141  1  0
141142  2  0
142143  1  0
143144  2  3
144145  1  0
145146  3  0
144147  1  0
147148  3  0
143149  1  0
149150  3  0
142151  1  0
 11  2  1  0
 23 17  1  0
 61 24  1  0
104 62  1  0
135109  1  0
151139  1  0
 10  5  1  0
 22 18  1  0
 33 27  1  0
 40 34  1  0
 60 41  2  0
 71 64  1  0
103 72  2  0
134111  1  0
 23  7  1  0
 52 46  1  0
 59 53  1  0
102 74  2  0
121113  1  0
138122  1  0
100 75  2  0
133125  1  0
 80 76  2  0
 99 81  2  0
 97 82  2  0
 96 84  2  0
 93 86  1  0
  1152  1  0
  6153  1  0
  9154  1  0
 17155  1  0
 18156  1  0
 19157  1  0
 20158  1  0
 21159  1  0
 22160  1  0
 22161  1  0
 23162  1  0
 28163  1  0
 29164  1  0
 31165  1  0
 31166  1  0
 31167  1  0
 32168  1  0
 33169  1  0
 35170  1  0
 36171  1  0
 38172  1  0
 38173  1  0
 38174  1  0
 39175  1  0
 40176  1  0
 47177  1  0
 48178  1  0
 50179  1  0
 50180  1  0
 50181  1  0
 51182  1  0
 52183  1  0
 54184  1  0
 55185  1  0
 57186  1  0
 57187  1  0
 57188  1  0
 58189  1  0
 59190  1  0
 65191  1  0
 66192  1  0
 67193  1  0
 69194  1  0
 69195  1  0
 70196  1  0
 70197  1  0
 70198  1  0
 71199  1  0
 87200  1  0
 88201  1  0
 89202  1  0
 91203  1  0
 91204  1  0
 92205  1  0
 92206  1  0
 92207  1  0
 93208  1  0
105209  1  0
105210  1  0
106211  1  0
106212  1  0
106213  1  0
107214  1  0
107215  1  0
108216  1  0
108217  1  0
108218  1  0
110219  1  0
114220  1  0
115221  1  0
116222  1  0
119223  1  0
119224  1  0
120225  1  0
120226  1  0
120227  1  0
121228  1  0
126229  1  0
127230  1  0
128231  1  0
131232  1  0
131233  1  0
132234  1  0
132235  1  0
132236  1  0
133237  1  0
136238  1  0
140239  1  0
141240  1  0
M  END

