
     RDKit          3D

280308  0  0  0  0  0  0  0  0999 V2000
    1.6120   -5.1868   -4.0806 C   0  0  0  0  0  0  0  0  0  0  0  0
    0.3511   -5.4400   -4.4848 C   0  0  0  0  0  0  0  0  0  0  0  0
   -0.4855   -4.4872   -5.2233 C   0  0  0  0  0  0  0  0  0  0  0  0
   -0.0718   -3.4851   -5.8650 O   0  0  0  0  0  0  0  0  0  0  0  0
   -1.8659   -4.8906   -5.1165 C   0  0  0  0  0  0  0  0  0  0  0  0
   -2.9949   -4.2176   -5.6436 C   0  0  0  0  0  0  0  0  0  0  0  0
   -4.2005   -4.7881   -5.2910 C   0  0  0  0  0  0  0  0  0  0  0  0
   -4.2968   -5.9390   -4.4497 C   0  0  0  0  0  0  0  0  0  0  0  0
   -3.1997   -6.6142   -3.9485 C   0  0  0  0  0  0  0  0  0  0  0  0
   -1.9408   -6.0774   -4.3471 C   0  0  0  0  0  0  0  0  0  0  0  0
   -0.5542   -6.5417   -4.0156 C   0  0  0  0  0  0  0  0  0  0  0  0
   -0.1972   -7.7379   -3.4730 C   0  0  0  0  0  0  0  0  0  0  0  0
    1.1740   -8.1342   -3.2634 C   0  0  0  0  0  0  0  0  0  0  0  0
    2.2684   -8.4736   -3.0844 N   0  0  0  0  0  0  0  0  0  0  0  0
   -1.1602   -8.7492   -3.1141 C   0  0  0  0  0  0  0  0  0  0  0  0
   -1.9147   -9.5814   -2.8176 N   0  0  0  0  0  0  0  0  0  0  0  0
   -5.7954   -5.8945   -4.5289 C   0  0  0  0  0  0  0  0  0  0  0  0
   -6.5039   -6.9665   -5.4191 C   0  0  0  0  0  0  0  0  0  0  0  0
   -5.6013   -7.3689   -6.5596 C   0  0  0  0  0  0  0  0  0  0  0  0
   -5.5044   -6.3120   -7.3608 C   0  0  0  0  0  0  0  0  0  0  0  0
   -6.3433   -5.2213   -6.7401 C   0  0  0  0  0  0  0  0  0  0  0  0
   -7.4661   -6.0753   -6.1801 C   0  0  0  0  0  0  0  0  0  0  0  0
   -5.6957   -4.7277   -5.4109 C   0  0  0  0  0  0  0  0  0  0  0  0
    2.0734   -3.8021   -3.8922 C   0  0  0  0  0  0  0  0  0  0  0  0
    3.3341   -3.2378   -4.2045 C   0  0  0  0  0  0  0  0  0  0  0  0
    4.3103   -3.8210   -5.0906 N   0  0  0  0  0  0  0  0  0  0  0  0
    4.9234   -3.0173   -6.1239 C   0  0  0  0  0  0  0  0  0  0  0  0
    4.1610   -2.0960   -6.8681 C   0  0  0  0  0  0  0  0  0  0  0  0
    4.7697   -1.2925   -7.8380 C   0  0  0  0  0  0  0  0  0  0  0  0
    6.1475   -1.3938   -8.0760 C   0  0  0  0  0  0  0  0  0  0  0  0
    6.7912   -0.5291   -9.1241 C   0  0  0  0  0  0  0  0  0  0  0  0
    6.9038   -2.3447   -7.3700 C   0  0  0  0  0  0  0  0  0  0  0  0
    6.2942   -3.1524   -6.4077 C   0  0  0  0  0  0  0  0  0  0  0  0
    4.5321   -5.2426   -5.0783 C   0  0  0  0  0  0  0  0  0  0  0  0
    4.1741   -6.0225   -6.1898 C   0  0  0  0  0  0  0  0  0  0  0  0
    4.3210   -7.4130   -6.1503 C   0  0  0  0  0  0  0  0  0  0  0  0
    4.8448   -8.0369   -5.0088 C   0  0  0  0  0  0  0  0  0  0  0  0
    5.0134   -9.5275   -4.9836 C   0  0  0  0  0  0  0  0  0  0  0  0
    5.2419   -7.2533   -3.9134 C   0  0  0  0  0  0  0  0  0  0  0  0
    5.0648   -5.8644   -3.9368 C   0  0  0  0  0  0  0  0  0  0  0  0
    3.4263   -1.9400   -3.6715 C   0  0  0  0  0  0  0  0  0  0  0  0
    4.6120   -0.7334   -3.5837 S   0  0  0  0  0  0  0  0  0  0  0  0
    3.6323    0.3377   -2.6760 C   0  0  0  0  0  0  0  0  0  0  0  0
    2.3867   -0.2567   -2.4544 C   0  0  0  0  0  0  0  0  0  0  0  0
    1.3021    0.3238   -1.7098 N   0  0  0  0  0  0  0  0  0  0  0  0
    0.0378    0.5093   -2.3903 C   0  0  0  0  0  0  0  0  0  0  0  0
   -1.1824    0.3410   -1.7150 C   0  0  0  0  0  0  0  0  0  0  0  0
   -2.3927    0.4584   -2.4005 C   0  0  0  0  0  0  0  0  0  0  0  0
   -2.4071    0.7153   -3.7761 C   0  0  0  0  0  0  0  0  0  0  0  0
   -3.7018    0.8392   -4.5265 C   0  0  0  0  0  0  0  0  0  0  0  0
   -1.1969    0.8079   -4.4717 C   0  0  0  0  0  0  0  0  0  0  0  0
    0.0160    0.7454   -3.7810 C   0  0  0  0  0  0  0  0  0  0  0  0
    1.4208    0.3513   -0.2725 C   0  0  0  0  0  0  0  0  0  0  0  0
    2.0770   -0.6923    0.4033 C   0  0  0  0  0  0  0  0  0  0  0  0
    2.2814   -0.6291    1.7805 C   0  0  0  0  0  0  0  0  0  0  0  0
    1.8247    0.4807    2.5078 C   0  0  0  0  0  0  0  0  0  0  0  0
    2.1043    0.5695    3.9754 C   0  0  0  0  0  0  0  0  0  0  0  0
    1.1047    1.4893    1.8488 C   0  0  0  0  0  0  0  0  0  0  0  0
    0.9136    1.4303    0.4636 C   0  0  0  0  0  0  0  0  0  0  0  0
    2.3187   -1.5170   -3.0168 C   0  0  0  0  0  0  0  0  0  0  0  0
    1.1472   -2.6924   -2.9986 S   0  0  0  0  0  0  0  0  0  0  0  0
    4.0032    1.6576   -2.1650 C   0  0  0  0  0  0  0  0  0  0  0  0
    4.3427    1.8590   -0.8201 C   0  0  0  0  0  0  0  0  0  0  0  0
    4.0445    3.1553   -0.4042 C   0  0  0  0  0  0  0  0  0  0  0  0
    3.6542    3.7206    1.1393 S   0  0  0  0  0  0  0  0  0  0  0  0
    2.8043    5.0724    0.5694 C   0  0  0  0  0  0  0  0  0  0  0  0
    1.4768    5.4664    1.0083 C   0  0  0  0  0  0  0  0  0  0  0  0
    0.9354    5.5381    2.3017 C   0  0  0  0  0  0  0  0  0  0  0  0
   -0.4548    5.7954    2.4002 C   0  0  0  0  0  0  0  0  0  0  0  0
   -1.4089    5.9026    3.5953 C   0  0  0  0  0  0  0  0  0  0  0  0
   -2.1612    7.2486    3.4977 C   0  0  0  0  0  0  0  0  0  0  0  0
   -1.4839    8.4118    3.0796 C   0  0  0  0  0  0  0  0  0  0  0  0
   -2.1819    9.6097    2.8880 C   0  0  0  0  0  0  0  0  0  0  0  0
   -3.5557    9.6824    3.1501 C   0  0  0  0  0  0  0  0  0  0  0  0
   -4.3168   10.9559    2.8962 C   0  0  0  0  0  0  0  0  0  0  0  0
   -5.1815   10.8568    1.6386 C   0  0  0  0  0  0  0  0  0  0  0  0
   -4.2199    8.5484    3.6439 C   0  0  0  0  0  0  0  0  0  0  0  0
   -3.5285    7.3441    3.8203 C   0  0  0  0  0  0  0  0  0  0  0  0
   -0.8539    5.8131    5.0254 C   0  0  0  0  0  0  0  0  0  0  0  0
   -1.7229    5.5086    6.1005 C   0  0  0  0  0  0  0  0  0  0  0  0
   -1.2803    5.5713    7.4263 C   0  0  0  0  0  0  0  0  0  0  0  0
    0.0196    5.9924    7.7197 C   0  0  0  0  0  0  0  0  0  0  0  0
    0.4672    6.1237    9.1529 C   0  0  0  0  0  0  0  0  0  0  0  0
    0.1446    7.5138    9.6922 C   0  0  0  0  0  0  0  0  0  0  0  0
    0.8484    6.4197    6.6737 C   0  0  0  0  0  0  0  0  0  0  0  0
    0.4036    6.3658    5.3481 C   0  0  0  0  0  0  0  0  0  0  0  0
   -2.3361    4.7821    3.1408 C   0  0  0  0  0  0  0  0  0  0  0  0
   -2.3531    4.7215    1.7501 C   0  0  0  0  0  0  0  0  0  0  0  0
   -1.2400    5.5294    1.2790 C   0  0  0  0  0  0  0  0  0  0  0  0
   -0.7128    5.5607   -0.0113 C   0  0  0  0  0  0  0  0  0  0  0  0
    0.6866    5.6119   -0.1295 C   0  0  0  0  0  0  0  0  0  0  0  0
    1.5716    5.8216   -1.3518 C   0  0  0  0  0  0  0  0  0  0  0  0
    1.8870    7.3336   -1.4057 C   0  0  0  0  0  0  0  0  0  0  0  0
    0.8671    8.2907   -1.1834 C   0  0  0  0  0  0  0  0  0  0  0  0
    1.1825    9.6458   -1.0410 C   0  0  0  0  0  0  0  0  0  0  0  0
    2.5046   10.0862   -1.1992 C   0  0  0  0  0  0  0  0  0  0  0  0
    2.8669   11.5170   -0.9075 C   0  0  0  0  0  0  0  0  0  0  0  0
    3.4060   11.6615    0.5128 C   0  0  0  0  0  0  0  0  0  0  0  0
    3.5060    9.1574   -1.5241 C   0  0  0  0  0  0  0  0  0  0  0  0
    3.2016    7.7999   -1.6289 C   0  0  0  0  0  0  0  0  0  0  0  0
    1.0440    5.3298   -2.7053 C   0  0  0  0  0  0  0  0  0  0  0  0
    0.0398    4.3476   -2.8096 C   0  0  0  0  0  0  0  0  0  0  0  0
   -0.5337    4.0567   -4.0505 C   0  0  0  0  0  0  0  0  0  0  0  0
   -0.0332    4.6310   -5.2263 C   0  0  0  0  0  0  0  0  0  0  0  0
   -0.6134    4.2646   -6.5716 C   0  0  0  0  0  0  0  0  0  0  0  0
    0.2670    3.2432   -7.2797 C   0  0  0  0  0  0  0  0  0  0  0  0
    1.0571    5.4960   -5.1449 C   0  0  0  0  0  0  0  0  0  0  0  0
    1.5968    5.8418   -3.9026 C   0  0  0  0  0  0  0  0  0  0  0  0
    2.7834    5.0717   -0.8290 C   0  0  0  0  0  0  0  0  0  0  0  0
    3.4825    3.9714   -1.3560 C   0  0  0  0  0  0  0  0  0  0  0  0
    3.2892    3.0758   -2.7605 S   0  0  0  0  0  0  0  0  0  0  0  0
   -2.5185    3.1057    1.3163 S   0  0  0  0  0  0  0  0  0  0  0  0
   -2.5957    2.4689    2.8839 C   0  0  0  0  0  0  0  0  0  0  0  0
   -2.5046    3.5351    3.7679 C   0  0  0  0  0  0  0  0  0  0  0  0
   -2.3725    1.0445    3.2305 C   0  0  0  0  0  0  0  0  0  0  0  0
   -2.1082    0.4739    4.4967 C   0  0  0  0  0  0  0  0  0  0  0  0
   -2.1488    1.1579    5.7625 N   0  0  0  0  0  0  0  0  0  0  0  0
   -0.9042    1.4530    6.4331 C   0  0  0  0  0  0  0  0  0  0  0  0
    0.0292    2.3319    5.8549 C   0  0  0  0  0  0  0  0  0  0  0  0
    1.1669    2.7283    6.5621 C   0  0  0  0  0  0  0  0  0  0  0  0
    1.4153    2.2181    7.8474 C   0  0  0  0  0  0  0  0  0  0  0  0
    2.6034    2.6820    8.6315 C   0  0  0  0  0  0  0  0  0  0  0  0
    0.4966    1.3275    8.4208 C   0  0  0  0  0  0  0  0  0  0  0  0
   -0.6511    0.9448    7.7191 C   0  0  0  0  0  0  0  0  0  0  0  0
   -3.4082    1.3528    6.4615 C   0  0  0  0  0  0  0  0  0  0  0  0
   -4.5142    0.5162    6.2213 C   0  0  0  0  0  0  0  0  0  0  0  0
   -5.6955    0.6832    6.9524 C   0  0  0  0  0  0  0  0  0  0  0  0
   -5.7981    1.6987    7.9153 C   0  0  0  0  0  0  0  0  0  0  0  0
   -7.0458    1.8364    8.7331 C   0  0  0  0  0  0  0  0  0  0  0  0
   -4.7031    2.5374    8.1536 C   0  0  0  0  0  0  0  0  0  0  0  0
   -3.5230    2.3681    7.4295 C   0  0  0  0  0  0  0  0  0  0  0  0
   -1.8146   -0.8798    4.3935 C   0  0  0  0  0  0  0  0  0  0  0  0
   -1.4122   -2.0414    5.5155 S   0  0  0  0  0  0  0  0  0  0  0  0
   -1.2327   -3.2756    4.3561 C   0  0  0  0  0  0  0  0  0  0  0  0
   -1.5070   -2.7762    3.0588 C   0  0  0  0  0  0  0  0  0  0  0  0
   -1.4864   -3.5484    1.8263 N   0  0  0  0  0  0  0  0  0  0  0  0
   -2.2297   -3.1348    0.6669 C   0  0  0  0  0  0  0  0  0  0  0  0
   -1.6293   -3.1935   -0.5967 C   0  0  0  0  0  0  0  0  0  0  0  0
   -2.3675   -2.9023   -1.7436 C   0  0  0  0  0  0  0  0  0  0  0  0
   -3.7135   -2.5075   -1.6333 C   0  0  0  0  0  0  0  0  0  0  0  0
   -4.5278   -2.2035   -2.8478 C   0  0  0  0  0  0  0  0  0  0  0  0
   -4.3080   -2.4386   -0.3644 C   0  0  0  0  0  0  0  0  0  0  0  0
   -3.5791   -2.7743    0.7773 C   0  0  0  0  0  0  0  0  0  0  0  0
   -1.0485   -4.9186    1.8058 C   0  0  0  0  0  0  0  0  0  0  0  0
    0.2970   -5.2352    1.5863 C   0  0  0  0  0  0  0  0  0  0  0  0
    0.7156   -6.5717    1.6047 C   0  0  0  0  0  0  0  0  0  0  0  0
   -0.2188   -7.6017    1.8186 C   0  0  0  0  0  0  0  0  0  0  0  0
    0.2188   -9.0428    1.8754 C   0  0  0  0  0  0  0  0  0  0  0  0
   -1.5683   -7.2807    2.0263 C   0  0  0  0  0  0  0  0  0  0  0  0
   -1.9808   -5.9478    2.0091 C   0  0  0  0  0  0  0  0  0  0  0  0
   -1.8198   -1.4048    3.1456 C   0  0  0  0  0  0  0  0  0  0  0  0
   -2.1792   -0.1820    2.0547 S   0  0  0  0  0  0  0  0  0  0  0  0
   -0.6952   -4.5976    4.6959 C   0  0  0  0  0  0  0  0  0  0  0  0
    0.6348   -4.8182    4.8102 C   0  0  0  0  0  0  0  0  0  0  0  0
    1.6705   -3.8003    4.6011 C   0  0  0  0  0  0  0  0  0  0  0  0
    1.4951   -2.5567    4.5141 O   0  0  0  0  0  0  0  0  0  0  0  0
    2.9435   -4.4533    4.4424 C   0  0  0  0  0  0  0  0  0  0  0  0
    4.1645   -3.8678    4.1060 C   0  0  0  0  0  0  0  0  0  0  0  0
    5.2643   -4.7061    3.8789 C   0  0  0  0  0  0  0  0  0  0  0  0
    5.1180   -6.1038    3.9721 C   0  0  0  0  0  0  0  0  0  0  0  0
    6.4938   -7.1518    3.6745 Cl  0  0  0  0  0  0  0  0  0  0  0  0
    3.8741   -6.6663    4.3124 C   0  0  0  0  0  0  0  0  0  0  0  0
    2.7799   -5.8202    4.5714 C   0  0  0  0  0  0  0  0  0  0  0  0
    1.3524   -6.1274    4.8944 C   0  0  0  0  0  0  0  0  0  0  0  0
    0.8472   -7.3252    5.2943 C   0  0  0  0  0  0  0  0  0  0  0  0
    1.6551   -8.5065    5.4134 C   0  0  0  0  0  0  0  0  0  0  0  0
    2.2886   -9.4715    5.5143 N   0  0  0  0  0  0  0  0  0  0  0  0
   -0.5268   -7.4970    5.6852 C   0  0  0  0  0  0  0  0  0  0  0  0
   -1.6312   -7.6587    5.9897 N   0  0  0  0  0  0  0  0  0  0  0  0
    2.1941   -5.9230   -3.5573 H   0  0  0  0  0  0  0  0  0  0  0  0
   -2.9298   -3.3213   -6.2324 H   0  0  0  0  0  0  0  0  0  0  0  0
   -3.3268   -7.4556   -3.3039 H   0  0  0  0  0  0  0  0  0  0  0  0
   -6.2993   -5.6826   -3.5608 H   0  0  0  0  0  0  0  0  0  0  0  0
   -6.9559   -7.8147   -4.8656 H   0  0  0  0  0  0  0  0  0  0  0  0
   -5.1780   -8.3482   -6.7531 H   0  0  0  0  0  0  0  0  0  0  0  0
   -4.9850   -6.2858   -8.3111 H   0  0  0  0  0  0  0  0  0  0  0  0
   -6.6540   -4.4184   -7.4421 H   0  0  0  0  0  0  0  0  0  0  0  0
   -8.1720   -5.5168   -5.5227 H   0  0  0  0  0  0  0  0  0  0  0  0
   -8.0510   -6.6156   -6.9617 H   0  0  0  0  0  0  0  0  0  0  0  0
   -6.1509   -3.8037   -5.0065 H   0  0  0  0  0  0  0  0  0  0  0  0
    3.0945   -1.9992   -6.7006 H   0  0  0  0  0  0  0  0  0  0  0  0
    4.1665   -0.5868   -8.4009 H   0  0  0  0  0  0  0  0  0  0  0  0
    6.6303   -0.9792  -10.1253 H   0  0  0  0  0  0  0  0  0  0  0  0
    6.3422    0.4879   -9.1080 H   0  0  0  0  0  0  0  0  0  0  0  0
    7.8852   -0.4243   -8.9464 H   0  0  0  0  0  0  0  0  0  0  0  0
    7.9649   -2.4468   -7.5580 H   0  0  0  0  0  0  0  0  0  0  0  0
    6.8946   -3.8603   -5.8565 H   0  0  0  0  0  0  0  0  0  0  0  0
    3.7473   -5.5581   -7.0732 H   0  0  0  0  0  0  0  0  0  0  0  0
    4.0143   -8.0078   -7.0016 H   0  0  0  0  0  0  0  0  0  0  0  0
    5.9374   -9.8087   -5.5291 H   0  0  0  0  0  0  0  0  0  0  0  0
    4.1439  -10.0198   -5.4639 H   0  0  0  0  0  0  0  0  0  0  0  0
    5.0814   -9.9029   -3.9448 H   0  0  0  0  0  0  0  0  0  0  0  0
    5.6725   -7.7214   -3.0356 H   0  0  0  0  0  0  0  0  0  0  0  0
    5.3532   -5.2811   -3.0694 H   0  0  0  0  0  0  0  0  0  0  0  0
   -1.2075    0.0939   -0.6630 H   0  0  0  0  0  0  0  0  0  0  0  0
   -3.3199    0.3456   -1.8515 H   0  0  0  0  0  0  0  0  0  0  0  0
   -3.8887   -0.0866   -5.1033 H   0  0  0  0  0  0  0  0  0  0  0  0
   -3.6495    1.6984   -5.2302 H   0  0  0  0  0  0  0  0  0  0  0  0
   -4.5490    1.0187   -3.8320 H   0  0  0  0  0  0  0  0  0  0  0  0
   -1.1954    0.9658   -5.5404 H   0  0  0  0  0  0  0  0  0  0  0  0
    0.9378    0.8531   -4.3408 H   0  0  0  0  0  0  0  0  0  0  0  0
    2.4588   -1.5508   -0.1332 H   0  0  0  0  0  0  0  0  0  0  0  0
    2.8225   -1.4305    2.2737 H   0  0  0  0  0  0  0  0  0  0  0  0
    3.0543    0.0495    4.2251 H   0  0  0  0  0  0  0  0  0  0  0  0
    2.2140    1.6317    4.2712 H   0  0  0  0  0  0  0  0  0  0  0  0
    1.2784    0.1010    4.5484 H   0  0  0  0  0  0  0  0  0  0  0  0
    0.7206    2.3387    2.4030 H   0  0  0  0  0  0  0  0  0  0  0  0
    0.4010    2.2424   -0.0388 H   0  0  0  0  0  0  0  0  0  0  0  0
    4.5723    1.0542   -0.1265 H   0  0  0  0  0  0  0  0  0  0  0  0
    1.5537    5.3328    3.1540 H   0  0  0  0  0  0  0  0  0  0  0  0
   -0.4205    8.3949    2.8684 H   0  0  0  0  0  0  0  0  0  0  0  0
   -1.6457   10.4712    2.5084 H   0  0  0  0  0  0  0  0  0  0  0  0
   -3.6210   11.8136    2.7929 H   0  0  0  0  0  0  0  0  0  0  0  0
   -4.9620   11.1640    3.7727 H   0  0  0  0  0  0  0  0  0  0  0  0
   -5.9592   10.0779    1.7740 H   0  0  0  0  0  0  0  0  0  0  0  0
   -4.5661   10.6013    0.7509 H   0  0  0  0  0  0  0  0  0  0  0  0
   -5.6920   11.8253    1.4503 H   0  0  0  0  0  0  0  0  0  0  0  0
   -5.2770    8.5885    3.8696 H   0  0  0  0  0  0  0  0  0  0  0  0
   -4.0700    6.4856    4.2015 H   0  0  0  0  0  0  0  0  0  0  0  0
   -2.7671    5.2856    5.9350 H   0  0  0  0  0  0  0  0  0  0  0  0
   -1.9646    5.3349    8.2289 H   0  0  0  0  0  0  0  0  0  0  0  0
   -0.0513    5.3650    9.7798 H   0  0  0  0  0  0  0  0  0  0  0  0
    1.5563    5.9366    9.2320 H   0  0  0  0  0  0  0  0  0  0  0  0
    0.7147    8.2784    9.1223 H   0  0  0  0  0  0  0  0  0  0  0  0
    0.4230    7.5851   10.7622 H   0  0  0  0  0  0  0  0  0  0  0  0
   -0.9415    7.7251    9.5915 H   0  0  0  0  0  0  0  0  0  0  0  0
    1.8212    6.8458    6.8886 H   0  0  0  0  0  0  0  0  0  0  0  0
    1.0198    6.8476    4.6049 H   0  0  0  0  0  0  0  0  0  0  0  0
   -1.3655    5.4971   -0.8617 H   0  0  0  0  0  0  0  0  0  0  0  0
   -0.1644    7.9803   -1.0790 H   0  0  0  0  0  0  0  0  0  0  0  0
    0.3936   10.3546   -0.7884 H   0  0  0  0  0  0  0  0  0  0  0  0
    3.6210   11.8681   -1.6363 H   0  0  0  0  0  0  0  0  0  0  0  0
    1.9790   12.1733   -1.0241 H   0  0  0  0  0  0  0  0  0  0  0  0
    2.6404   11.3586    1.2545 H   0  0  0  0  0  0  0  0  0  0  0  0
    3.6827   12.7201    0.6983 H   0  0  0  0  0  0  0  0  0  0  0  0
    4.3128   11.0301    0.6471 H   0  0  0  0  0  0  0  0  0  0  0  0
    4.5238    9.4943   -1.6733 H   0  0  0  0  0  0  0  0  0  0  0  0
    4.0017    7.1095   -1.8834 H   0  0  0  0  0  0  0  0  0  0  0  0
   -0.3197    3.8139   -1.9434 H   0  0  0  0  0  0  0  0  0  0  0  0
   -1.3842    3.3904   -4.0903 H   0  0  0  0  0  0  0  0  0  0  0  0
   -0.6896    5.1735   -7.2048 H   0  0  0  0  0  0  0  0  0  0  0  0
   -1.6356    3.8493   -6.4554 H   0  0  0  0  0  0  0  0  0  0  0  0
   -0.1964    2.9501   -8.2445 H   0  0  0  0  0  0  0  0  0  0  0  0
    0.4072    2.3341   -6.6587 H   0  0  0  0  0  0  0  0  0  0  0  0
    1.2725    3.6767   -7.4929 H   0  0  0  0  0  0  0  0  0  0  0  0
    1.4847    5.9180   -6.0463 H   0  0  0  0  0  0  0  0  0  0  0  0
    2.4319    6.5261   -3.8806 H   0  0  0  0  0  0  0  0  0  0  0  0
   -2.3874    3.3963    4.8239 H   0  0  0  0  0  0  0  0  0  0  0  0
   -0.1273    2.7293    4.8620 H   0  0  0  0  0  0  0  0  0  0  0  0
    1.8515    3.4345    6.1173 H   0  0  0  0  0  0  0  0  0  0  0  0
    3.0278    1.8417    9.2219 H   0  0  0  0  0  0  0  0  0  0  0  0
    3.3925    3.0696    7.9635 H   0  0  0  0  0  0  0  0  0  0  0  0
    2.2987    3.4905    9.3265 H   0  0  0  0  0  0  0  0  0  0  0  0
    0.6605    0.9353    9.4209 H   0  0  0  0  0  0  0  0  0  0  0  0
   -1.3696    0.2839    8.1836 H   0  0  0  0  0  0  0  0  0  0  0  0
   -4.4585   -0.2772    5.4888 H   0  0  0  0  0  0  0  0  0  0  0  0
   -6.5295    0.0140    6.7777 H   0  0  0  0  0  0  0  0  0  0  0  0
   -7.0946    2.8353    9.2231 H   0  0  0  0  0  0  0  0  0  0  0  0
   -7.9400    1.7235    8.0828 H   0  0  0  0  0  0  0  0  0  0  0  0
   -7.0667    1.0511    9.5163 H   0  0  0  0  0  0  0  0  0  0  0  0
   -4.7612    3.3152    8.9001 H   0  0  0  0  0  0  0  0  0  0  0  0
   -2.6935    3.0330    7.6381 H   0  0  0  0  0  0  0  0  0  0  0  0
   -0.5867   -3.4916   -0.6928 H   0  0  0  0  0  0  0  0  0  0  0  0
   -1.8880   -2.9564   -2.7155 H   0  0  0  0  0  0  0  0  0  0  0  0
   -3.8901   -2.1213   -3.7517 H   0  0  0  0  0  0  0  0  0  0  0  0
   -5.2731   -3.0093   -2.9984 H   0  0  0  0  0  0  0  0  0  0  0  0
   -5.0708   -1.2489   -2.7116 H   0  0  0  0  0  0  0  0  0  0  0  0
   -5.3449   -2.1322   -0.2623 H   0  0  0  0  0  0  0  0  0  0  0  0
   -4.0598   -2.7550    1.7461 H   0  0  0  0  0  0  0  0  0  0  0  0
    1.0226   -4.4447    1.4461 H   0  0  0  0  0  0  0  0  0  0  0  0
    1.7693   -6.7981    1.4770 H   0  0  0  0  0  0  0  0  0  0  0  0
   -0.5215   -9.6866    1.3517 H   0  0  0  0  0  0  0  0  0  0  0  0
    0.2906   -9.3610    2.9329 H   0  0  0  0  0  0  0  0  0  0  0  0
    1.2032   -9.1828    1.3816 H   0  0  0  0  0  0  0  0  0  0  0  0
   -2.2979   -8.0623    2.2017 H   0  0  0  0  0  0  0  0  0  0  0  0
   -3.0273   -5.7122    2.1886 H   0  0  0  0  0  0  0  0  0  0  0  0
   -1.4115   -5.4047    4.7083 H   0  0  0  0  0  0  0  0  0  0  0  0
    4.2624   -2.7942    4.0017 H   0  0  0  0  0  0  0  0  0  0  0  0
    6.2230   -4.2714    3.6209 H   0  0  0  0  0  0  0  0  0  0  0  0
    3.7928   -7.7392    4.3303 H   0  0  0  0  0  0  0  0  0  0  0  0
  1  2  2  3
  2  3  1  0
  3  4  2  0
  3  5  1  0
  5  6  2  0
  6  7  1  0
  7  8  2  0
  8  9  1  0
  9 10  2  0
 10 11  1  0
 11 12  2  3
 12 13  1  0
 13 14  3  0
 12 15  1  0
 15 16  3  0
  8 17  1  0
 17 18  1  0
 18 19  1  0
 19 20  2  0
 20 21  1  0
 21 22  1  0
 21 23  1  0
  1 24  1  0
 24 25  2  0
 25 26  1  0
 26 27  1  0
 27 28  2  0
 28 29  1  0
 29 30  2  0
 30 31  1  0
 30 32  1  0
 32 33  2  0
 26 34  1  0
 34 35  2  0
 35 36  1  0
 36 37  2  0
 37 38  1  0
 37 39  1  0
 39 40  2  0
 25 41  1  0
 41 42  1  0
 42 43  1  0
 43 44  2  0
 44 45  1  0
 45 46  1  0
 46 47  2  0
 47 48  1  0
 48 49  2  0
 49 50  1  0
 49 51  1  0
 51 52  2  0
 45 53  1  0
 53 54  2  0
 54 55  1  0
 55 56  2  0
 56 57  1  0
 56 58  1  0
 58 59  2  0
 44 60  1  0
 60 61  1  0
 43 62  1  0
 62 63  2  0
 63 64  1  0
 64 65  1  0
 65 66  1  0
 66 67  1  0
 67 68  2  0
 68 69  1  0
 69 70  1  0
 70 71  1  0
 71 72  2  0
 72 73  1  0
 73 74  2  0
 74 75  1  0
 75 76  1  0
 74 77  1  0
 77 78  2  0
 70 79  1  0
 79 80  2  0
 80 81  1  0
 81 82  2  0
 82 83  1  0
 83 84  1  0
 82 85  1  0
 85 86  2  0
 70 87  1  0
 87 88  2  0
 88 89  1  0
 89 90  1  0
 90 91  2  0
 91 92  1  0
 92 93  1  0
 93 94  2  0
 94 95  1  0
 95 96  2  0
 96 97  1  0
 97 98  1  0
 96 99  1  0
 99100  2  0
 92101  1  0
101102  2  0
102103  1  0
103104  2  0
104105  1  0
105106  1  0
104107  1  0
107108  2  0
 92109  1  0
109110  1  0
110111  1  0
 88112  1  0
112113  1  0
113114  2  0
113115  1  0
115116  2  0
116117  1  0
117118  1  0
118119  2  0
119120  1  0
120121  2  0
121122  1  0
121123  1  0
123124  2  0
117125  1  0
125126  2  0
126127  1  0
127128  2  0
128129  1  0
128130  1  0
130131  2  0
116132  1  0
132133  1  0
133134  1  0
134135  2  0
135136  1  0
136137  1  0
137138  2  0
138139  1  0
139140  2  0
140141  1  0
140142  1  0
142143  2  0
136144  1  0
144145  2  0
145146  1  0
146147  2  0
147148  1  0
147149  1  0
149150  2  0
135151  1  0
151152  1  0
134153  1  0
153154  2  3
154155  1  0
155156  2  0
155157  1  0
157158  2  0
158159  1  0
159160  2  0
160161  1  0
160162  1  0
162163  2  0
163164  1  0
164165  2  3
165166  1  0
166167  3  0
165168  1  0
168169  3  0
 11  2  1  0
 23 17  1  0
 61 24  1  0
111 62  1  0
152115  1  0
164154  1  0
 10  5  1  0
 22 18  1  0
 33 27  1  0
 40 34  1  0
 60 41  2  0
110 64  2  0
124118  1  0
131125  1  0
151132  2  0
163157  1  0
 23  7  1  0
 52 46  1  0
 59 53  1  0
109 66  2  0
143137  1  0
150144  1  0
 91 67  1  0
100 93  1  0
108101  1  0
 89 69  2  0
 78 71  1  0
 86 79  1  0
114 87  1  0
  1170  1  0
  6171  1  0
  9172  1  0
 17173  1  0
 18174  1  0
 19175  1  0
 20176  1  0
 21177  1  0
 22178  1  0
 22179  1  0
 23180  1  0
 28181  1  0
 29182  1  0
 31183  1  0
 31184  1  0
 31185  1  0
 32186  1  0
 33187  1  0
 35188  1  0
 36189  1  0
 38190  1  0
 38191  1  0
 38192  1  0
 39193  1  0
 40194  1  0
 47195  1  0
 48196  1  0
 50197  1  0
 50198  1  0
 50199  1  0
 51200  1  0
 52201  1  0
 54202  1  0
 55203  1  0
 57204  1  0
 57205  1  0
 57206  1  0
 58207  1  0
 59208  1  0
 63209  1  0
 68210  1  0
 72211  1  0
 73212  1  0
 75213  1  0
 75214  1  0
 76215  1  0
 76216  1  0
 76217  1  0
 77218  1  0
 78219  1  0
 80220  1  0
 81221  1  0
 83222  1  0
 83223  1  0
 84224  1  0
 84225  1  0
 84226  1  0
 85227  1  0
 86228  1  0
 90229  1  0
 94230  1  0
 95231  1  0
 97232  1  0
 97233  1  0
 98234  1  0
 98235  1  0
 98236  1  0
 99237  1  0
100238  1  0
102239  1  0
103240  1  0
105241  1  0
105242  1  0
106243  1  0
106244  1  0
106245  1  0
107246  1  0
108247  1  0
114248  1  0
119249  1  0
120250  1  0
122251  1  0
122252  1  0
122253  1  0
123254  1  0
124255  1  0
126256  1  0
127257  1  0
129258  1  0
129259  1  0
129260  1  0
130261  1  0
131262  1  0
138263  1  0
139264  1  0
141265  1  0
141266  1  0
141267  1  0
142268  1  0
143269  1  0
145270  1  0
146271  1  0
148272  1  0
148273  1  0
148274  1  0
149275  1  0
150276  1  0
153277  1  0
158278  1  0
159279  1  0
162280  1  0
M  END

