
     RDKit          3D

291318  0  0  0  0  0  0  0  0999 V2000
    9.1308   -6.1017    3.3037 C   0  0  0  0  0  0  0  0  0  0  0  0
    9.7058   -7.0655    2.5590 C   0  0  0  0  0  0  0  0  0  0  0  0
   10.1354   -8.3400    3.1268 C   0  0  0  0  0  0  0  0  0  0  0  0
   10.2971   -8.5846    4.3529 O   0  0  0  0  0  0  0  0  0  0  0  0
   10.2506   -9.3062    2.0499 C   0  0  0  0  0  0  0  0  0  0  0  0
   10.6539  -10.6569    2.1521 C   0  0  0  0  0  0  0  0  0  0  0  0
   10.8113  -11.2928    0.9351 C   0  0  0  0  0  0  0  0  0  0  0  0
   10.5918  -10.6419   -0.3171 C   0  0  0  0  0  0  0  0  0  0  0  0
   10.1629   -9.3320   -0.4278 C   0  0  0  0  0  0  0  0  0  0  0  0
    9.9808   -8.6595    0.8133 C   0  0  0  0  0  0  0  0  0  0  0  0
    9.6887   -7.2212    1.0762 C   0  0  0  0  0  0  0  0  0  0  0  0
    9.8037   -6.2155    0.1793 C   0  0  0  0  0  0  0  0  0  0  0  0
   10.3514   -4.9394    0.5605 C   0  0  0  0  0  0  0  0  0  0  0  0
   10.8151   -3.9187    0.8497 N   0  0  0  0  0  0  0  0  0  0  0  0
    9.5817   -6.4003   -1.2305 C   0  0  0  0  0  0  0  0  0  0  0  0
    9.3951   -6.5308   -2.3653 N   0  0  0  0  0  0  0  0  0  0  0  0
   11.0112  -11.8803   -1.0559 C   0  0  0  0  0  0  0  0  0  0  0  0
    9.9111  -12.7266   -1.7648 C   0  0  0  0  0  0  0  0  0  0  0  0
    8.6018  -12.5723   -1.0262 C   0  0  0  0  0  0  0  0  0  0  0  0
    8.7578  -13.1737    0.1522 C   0  0  0  0  0  0  0  0  0  0  0  0
   10.1642  -13.7270    0.1725 C   0  0  0  0  0  0  0  0  0  0  0  0
   10.2958  -14.1165   -1.2883 C   0  0  0  0  0  0  0  0  0  0  0  0
   11.1964  -12.5592    0.2281 C   0  0  0  0  0  0  0  0  0  0  0  0
    8.0895   -5.2123    2.7718 C   0  0  0  0  0  0  0  0  0  0  0  0
    6.8486   -5.6079    2.2408 C   0  0  0  0  0  0  0  0  0  0  0  0
    6.2778   -6.9355    2.3643 N   0  0  0  0  0  0  0  0  0  0  0  0
    6.5471   -7.7666    3.5144 C   0  0  0  0  0  0  0  0  0  0  0  0
    6.5333   -7.2309    4.8140 C   0  0  0  0  0  0  0  0  0  0  0  0
    6.7923   -8.0490    5.9184 C   0  0  0  0  0  0  0  0  0  0  0  0
    7.0491   -9.4174    5.7437 C   0  0  0  0  0  0  0  0  0  0  0  0
    7.3241  -10.2829    6.9394 C   0  0  0  0  0  0  0  0  0  0  0  0
    7.0604   -9.9557    4.4499 C   0  0  0  0  0  0  0  0  0  0  0  0
    6.8130   -9.1380    3.3454 C   0  0  0  0  0  0  0  0  0  0  0  0
    5.3908   -7.4378    1.3524 C   0  0  0  0  0  0  0  0  0  0  0  0
    4.1171   -7.9179    1.7048 C   0  0  0  0  0  0  0  0  0  0  0  0
    3.2391   -8.3833    0.7224 C   0  0  0  0  0  0  0  0  0  0  0  0
    3.6351   -8.4114   -0.6231 C   0  0  0  0  0  0  0  0  0  0  0  0
    2.6805   -8.8931   -1.6713 C   0  0  0  0  0  0  0  0  0  0  0  0
    4.9146   -7.9429   -0.9753 C   0  0  0  0  0  0  0  0  0  0  0  0
    5.7832   -7.4551    0.0059 C   0  0  0  0  0  0  0  0  0  0  0  0
    6.1980   -4.5086    1.6640 C   0  0  0  0  0  0  0  0  0  0  0  0
    4.7559   -4.3065    0.8635 S   0  0  0  0  0  0  0  0  0  0  0  0
    4.9244   -2.6350    0.6071 C   0  0  0  0  0  0  0  0  0  0  0  0
    6.1327   -2.1956    1.2171 C   0  0  0  0  0  0  0  0  0  0  0  0
    6.6028   -0.8244    1.3017 N   0  0  0  0  0  0  0  0  0  0  0  0
    5.7064    0.3007    1.3045 C   0  0  0  0  0  0  0  0  0  0  0  0
    6.0211    1.4411    0.5336 C   0  0  0  0  0  0  0  0  0  0  0  0
    5.3508    2.6456    0.7374 C   0  0  0  0  0  0  0  0  0  0  0  0
    4.3508    2.7327    1.7134 C   0  0  0  0  0  0  0  0  0  0  0  0
    3.7524    4.0652    2.0457 C   0  0  0  0  0  0  0  0  0  0  0  0
    4.0048    1.5917    2.4553 C   0  0  0  0  0  0  0  0  0  0  0  0
    4.6769    0.3820    2.2505 C   0  0  0  0  0  0  0  0  0  0  0  0
    7.9611   -0.5363    1.6926 C   0  0  0  0  0  0  0  0  0  0  0  0
    9.0452   -0.9103    0.8796 C   0  0  0  0  0  0  0  0  0  0  0  0
   10.3560   -0.6466    1.2914 C   0  0  0  0  0  0  0  0  0  0  0  0
   10.6014   -0.0008    2.5138 C   0  0  0  0  0  0  0  0  0  0  0  0
   12.0081    0.2257    2.9805 C   0  0  0  0  0  0  0  0  0  0  0  0
    9.5208    0.3669    3.3275 C   0  0  0  0  0  0  0  0  0  0  0  0
    8.2144    0.1063    2.9178 C   0  0  0  0  0  0  0  0  0  0  0  0
    6.8139   -3.2994    1.7787 C   0  0  0  0  0  0  0  0  0  0  0  0
    8.2398   -3.5231    2.6409 S   0  0  0  0  0  0  0  0  0  0  0  0
    3.8174   -1.8725   -0.0116 C   0  0  0  0  0  0  0  0  0  0  0  0
    3.8308   -0.8800   -1.0328 C   0  0  0  0  0  0  0  0  0  0  0  0
    4.9424   -0.4322   -1.7447 O   0  0  0  0  0  0  0  0  0  0  0  0
    6.0923   -1.2263   -2.0157 C   0  0  0  0  0  0  0  0  0  0  0  0
    6.6775   -0.8327   -3.3597 C   0  0  0  0  0  0  0  0  0  0  0  0
    2.5269   -0.4823   -1.3764 C   0  0  0  0  0  0  0  0  0  0  0  0
    1.8994    0.4776   -2.3861 C   0  0  0  0  0  0  0  0  0  0  0  0
    1.8358    1.9288   -1.8748 C   0  0  0  0  0  0  0  0  0  0  0  0
    1.6558    2.1818   -0.4946 C   0  0  0  0  0  0  0  0  0  0  0  0
    1.1569    3.4100   -0.0524 C   0  0  0  0  0  0  0  0  0  0  0  0
    0.8095    4.4056   -0.9680 C   0  0  0  0  0  0  0  0  0  0  0  0
    0.1875    5.6977   -0.5001 C   0  0  0  0  0  0  0  0  0  0  0  0
    1.2392    6.7924   -0.3628 C   0  0  0  0  0  0  0  0  0  0  0  0
    1.0755    4.2092   -2.3288 C   0  0  0  0  0  0  0  0  0  0  0  0
    1.5534    2.9746   -2.7800 C   0  0  0  0  0  0  0  0  0  0  0  0
    2.5714    0.2941   -3.7467 C   0  0  0  0  0  0  0  0  0  0  0  0
    3.7181    1.0467   -4.0788 C   0  0  0  0  0  0  0  0  0  0  0  0
    4.4021    0.8204   -5.2775 C   0  0  0  0  0  0  0  0  0  0  0  0
    3.9894   -0.2003   -6.1429 C   0  0  0  0  0  0  0  0  0  0  0  0
    4.7564   -0.4717   -7.4096 C   0  0  0  0  0  0  0  0  0  0  0  0
    4.3129    0.4720   -8.5240 C   0  0  0  0  0  0  0  0  0  0  0  0
    2.8618   -0.9656   -5.8192 C   0  0  0  0  0  0  0  0  0  0  0  0
    2.1702   -0.7315   -4.6268 C   0  0  0  0  0  0  0  0  0  0  0  0
    0.4499   -0.0267   -2.3377 C   0  0  0  0  0  0  0  0  0  0  0  0
    0.2926   -0.9941   -1.3471 C   0  0  0  0  0  0  0  0  0  0  0  0
    1.5746   -1.2265   -0.7736 C   0  0  0  0  0  0  0  0  0  0  0  0
    2.2082   -2.3165    0.3041 S   0  0  0  0  0  0  0  0  0  0  0  0
   -0.9454   -1.4040   -0.8722 C   0  0  0  0  0  0  0  0  0  0  0  0
   -2.0795   -0.7683   -1.3964 C   0  0  0  0  0  0  0  0  0  0  0  0
   -3.4462   -0.7153   -0.7262 C   0  0  0  0  0  0  0  0  0  0  0  0
   -3.2848   -0.4461    0.7774 C   0  0  0  0  0  0  0  0  0  0  0  0
   -3.9549   -1.1981    1.7634 C   0  0  0  0  0  0  0  0  0  0  0  0
   -3.7841   -0.9105    3.1211 C   0  0  0  0  0  0  0  0  0  0  0  0
   -2.9966    0.1788    3.5255 C   0  0  0  0  0  0  0  0  0  0  0  0
   -2.8755    0.5331    4.9849 C   0  0  0  0  0  0  0  0  0  0  0  0
   -4.2125    1.0095    5.5436 C   0  0  0  0  0  0  0  0  0  0  0  0
   -2.3499    0.9483    2.5526 C   0  0  0  0  0  0  0  0  0  0  0  0
   -2.4814    0.6365    1.2010 C   0  0  0  0  0  0  0  0  0  0  0  0
   -4.2327   -1.9940   -1.0671 C   0  0  0  0  0  0  0  0  0  0  0  0
   -3.7172   -3.2523   -0.6907 C   0  0  0  0  0  0  0  0  0  0  0  0
   -4.4252   -4.4291   -0.9380 C   0  0  0  0  0  0  0  0  0  0  0  0
   -5.6662   -4.3910   -1.5762 C   0  0  0  0  0  0  0  0  0  0  0  0
   -6.4418   -5.6662   -1.7848 C   0  0  0  0  0  0  0  0  0  0  0  0
   -7.0387   -6.1593   -0.4675 C   0  0  0  0  0  0  0  0  0  0  0  0
   -6.1939   -3.1502   -1.9698 C   0  0  0  0  0  0  0  0  0  0  0  0
   -5.4876   -1.9651   -1.7195 C   0  0  0  0  0  0  0  0  0  0  0  0
   -4.0008    0.5285   -1.4090 C   0  0  0  0  0  0  0  0  0  0  0  0
   -4.8432    1.5190   -0.8794 C   0  0  0  0  0  0  0  0  0  0  0  0
   -5.6629    1.2523    0.2313 O   0  0  0  0  0  0  0  0  0  0  0  0
   -6.1576    2.2308    1.1407 C   0  0  0  0  0  0  0  0  0  0  0  0
   -6.7367    1.5578    2.3691 C   0  0  0  0  0  0  0  0  0  0  0  0
   -4.6698    2.7677   -1.5262 C   0  0  0  0  0  0  0  0  0  0  0  0
   -3.4159    2.6292   -2.6595 S   0  0  0  0  0  0  0  0  0  0  0  0
   -3.1679    0.9830   -2.4006 C   0  0  0  0  0  0  0  0  0  0  0  0
   -1.9412    0.2119   -2.3877 C   0  0  0  0  0  0  0  0  0  0  0  0
   -0.6872    0.5901   -2.8914 C   0  0  0  0  0  0  0  0  0  0  0  0
   -5.4118    4.0072   -1.2648 C   0  0  0  0  0  0  0  0  0  0  0  0
   -6.6744    4.2825   -1.8119 C   0  0  0  0  0  0  0  0  0  0  0  0
   -6.9627    4.0315   -3.1971 N   0  0  0  0  0  0  0  0  0  0  0  0
   -6.1659    4.7147   -4.1932 C   0  0  0  0  0  0  0  0  0  0  0  0
   -5.8531    6.0789   -4.0447 C   0  0  0  0  0  0  0  0  0  0  0  0
   -5.0175    6.7186   -4.9638 C   0  0  0  0  0  0  0  0  0  0  0  0
   -4.4808    6.0119   -6.0488 C   0  0  0  0  0  0  0  0  0  0  0  0
   -3.5625    6.7101   -7.0074 C   0  0  0  0  0  0  0  0  0  0  0  0
   -4.7930    4.6532   -6.2044 C   0  0  0  0  0  0  0  0  0  0  0  0
   -5.6243    4.0095   -5.2849 C   0  0  0  0  0  0  0  0  0  0  0  0
   -7.9298    3.0468   -3.6068 C   0  0  0  0  0  0  0  0  0  0  0  0
   -8.8429    3.3564   -4.6281 C   0  0  0  0  0  0  0  0  0  0  0  0
   -9.6714    2.3637   -5.1592 C   0  0  0  0  0  0  0  0  0  0  0  0
   -9.5879    1.0449   -4.6877 C   0  0  0  0  0  0  0  0  0  0  0  0
  -10.3855   -0.0427   -5.3444 C   0  0  0  0  0  0  0  0  0  0  0  0
   -8.6874    0.7339   -3.6568 C   0  0  0  0  0  0  0  0  0  0  0  0
   -7.8748    1.7348   -3.1115 C   0  0  0  0  0  0  0  0  0  0  0  0
   -7.2937    5.3075   -1.1042 C   0  0  0  0  0  0  0  0  0  0  0  0
   -8.8163    6.0101   -1.1406 S   0  0  0  0  0  0  0  0  0  0  0  0
   -8.4980    7.0604    0.1724 C   0  0  0  0  0  0  0  0  0  0  0  0
   -7.1780    6.8802    0.5947 C   0  0  0  0  0  0  0  0  0  0  0  0
   -6.5373    7.7055    1.5853 N   0  0  0  0  0  0  0  0  0  0  0  0
   -6.5588    9.1480    1.4028 C   0  0  0  0  0  0  0  0  0  0  0  0
   -6.5364   10.0256    2.5012 C   0  0  0  0  0  0  0  0  0  0  0  0
   -6.5965   11.4109    2.3104 C   0  0  0  0  0  0  0  0  0  0  0  0
   -6.7177   11.9424    1.0199 C   0  0  0  0  0  0  0  0  0  0  0  0
   -6.7363   13.4325    0.8172 C   0  0  0  0  0  0  0  0  0  0  0  0
   -6.7073   11.0777   -0.0809 C   0  0  0  0  0  0  0  0  0  0  0  0
   -6.6364    9.6972    0.1070 C   0  0  0  0  0  0  0  0  0  0  0  0
   -5.8798    7.0726    2.7044 C   0  0  0  0  0  0  0  0  0  0  0  0
   -6.4587    5.9507    3.3279 C   0  0  0  0  0  0  0  0  0  0  0  0
   -5.7983    5.3020    4.3733 C   0  0  0  0  0  0  0  0  0  0  0  0
   -4.5537    5.7674    4.8261 C   0  0  0  0  0  0  0  0  0  0  0  0
   -3.8068    5.0223    5.8913 C   0  0  0  0  0  0  0  0  0  0  0  0
   -3.9805    6.8870    4.2094 C   0  0  0  0  0  0  0  0  0  0  0  0
   -4.6356    7.5366    3.1588 C   0  0  0  0  0  0  0  0  0  0  0  0
   -6.5451    5.8651   -0.1157 C   0  0  0  0  0  0  0  0  0  0  0  0
   -5.0539    5.1069   -0.0125 S   0  0  0  0  0  0  0  0  0  0  0  0
   -9.5211    7.6226    1.0676 C   0  0  0  0  0  0  0  0  0  0  0  0
  -10.8112    7.6678    0.7215 C   0  0  0  0  0  0  0  0  0  0  0  0
  -11.2957    8.6621   -0.2395 C   0  0  0  0  0  0  0  0  0  0  0  0
  -10.6182    9.1729   -1.1670 O   0  0  0  0  0  0  0  0  0  0  0  0
  -12.6117    9.1128    0.2010 C   0  0  0  0  0  0  0  0  0  0  0  0
  -12.9844    8.4252    1.3421 C   0  0  0  0  0  0  0  0  0  0  0  0
  -14.2107    8.6986    1.9621 C   0  0  0  0  0  0  0  0  0  0  0  0
  -15.0425    9.6991    1.4250 C   0  0  0  0  0  0  0  0  0  0  0  0
  -16.2455    9.9496    1.9945 F   0  0  0  0  0  0  0  0  0  0  0  0
  -14.6333   10.4286    0.2958 C   0  0  0  0  0  0  0  0  0  0  0  0
  -15.4285   11.4149   -0.2024 F   0  0  0  0  0  0  0  0  0  0  0  0
  -13.4080   10.1377   -0.3279 C   0  0  0  0  0  0  0  0  0  0  0  0
  -13.0037   10.8404   -1.4172 F   0  0  0  0  0  0  0  0  0  0  0  0
  -11.9136    7.4627    1.7014 C   0  0  0  0  0  0  0  0  0  0  0  0
  -11.9430    6.4738    2.6352 C   0  0  0  0  0  0  0  0  0  0  0  0
  -10.9234    5.4505    2.6576 C   0  0  0  0  0  0  0  0  0  0  0  0
  -10.1057    4.6276    2.6594 N   0  0  0  0  0  0  0  0  0  0  0  0
  -13.0008    6.3201    3.6017 C   0  0  0  0  0  0  0  0  0  0  0  0
  -13.8317    6.1887    4.4004 N   0  0  0  0  0  0  0  0  0  0  0  0
    9.2308   -6.1348    4.3829 H   0  0  0  0  0  0  0  0  0  0  0  0
   10.8575  -11.1419    3.0946 H   0  0  0  0  0  0  0  0  0  0  0  0
   10.0266   -8.8881   -1.3941 H   0  0  0  0  0  0  0  0  0  0  0  0
   11.9527  -11.7654   -1.6344 H   0  0  0  0  0  0  0  0  0  0  0  0
    9.8488  -12.5983   -2.8677 H   0  0  0  0  0  0  0  0  0  0  0  0
    7.6867  -12.1287   -1.3990 H   0  0  0  0  0  0  0  0  0  0  0  0
    7.9880  -13.3053    0.8993 H   0  0  0  0  0  0  0  0  0  0  0  0
   10.3346  -14.5437    0.9044 H   0  0  0  0  0  0  0  0  0  0  0  0
    9.5766  -14.9069   -1.6025 H   0  0  0  0  0  0  0  0  0  0  0  0
   11.3311  -14.4209   -1.5716 H   0  0  0  0  0  0  0  0  0  0  0  0
   12.2455  -12.8737    0.4200 H   0  0  0  0  0  0  0  0  0  0  0  0
    6.3198   -6.1830    4.9707 H   0  0  0  0  0  0  0  0  0  0  0  0
    6.7888   -7.6207    6.9124 H   0  0  0  0  0  0  0  0  0  0  0  0
    6.4778  -10.2144    7.6571 H   0  0  0  0  0  0  0  0  0  0  0  0
    7.4526  -11.3492    6.6499 H   0  0  0  0  0  0  0  0  0  0  0  0
    8.2548   -9.9442    7.4427 H   0  0  0  0  0  0  0  0  0  0  0  0
    7.2747  -11.0063    4.2917 H   0  0  0  0  0  0  0  0  0  0  0  0
    6.8339   -9.5744    2.3562 H   0  0  0  0  0  0  0  0  0  0  0  0
    3.8010   -7.9071    2.7393 H   0  0  0  0  0  0  0  0  0  0  0  0
    2.2435   -8.7057    1.0076 H   0  0  0  0  0  0  0  0  0  0  0  0
    2.3404   -9.9223   -1.4277 H   0  0  0  0  0  0  0  0  0  0  0  0
    1.7960   -8.2182   -1.6995 H   0  0  0  0  0  0  0  0  0  0  0  0
    3.1516   -8.9080   -2.6780 H   0  0  0  0  0  0  0  0  0  0  0  0
    5.2327   -7.9371   -2.0098 H   0  0  0  0  0  0  0  0  0  0  0  0
    6.7553   -7.0774   -0.2844 H   0  0  0  0  0  0  0  0  0  0  0  0
    6.8436    1.4156   -0.1717 H   0  0  0  0  0  0  0  0  0  0  0  0
    5.6424    3.5185    0.1706 H   0  0  0  0  0  0  0  0  0  0  0  0
    3.6150    4.6665    1.1209 H   0  0  0  0  0  0  0  0  0  0  0  0
    4.4326    4.6124    2.7352 H   0  0  0  0  0  0  0  0  0  0  0  0
    2.7604    3.9472    2.5350 H   0  0  0  0  0  0  0  0  0  0  0  0
    3.2265    1.6490    3.2080 H   0  0  0  0  0  0  0  0  0  0  0  0
    4.4425   -0.4701    2.8777 H   0  0  0  0  0  0  0  0  0  0  0  0
    8.8744   -1.4155   -0.0630 H   0  0  0  0  0  0  0  0  0  0  0  0
   11.1833   -0.9641    0.6672 H   0  0  0  0  0  0  0  0  0  0  0  0
   12.0487    1.0533    3.7213 H   0  0  0  0  0  0  0  0  0  0  0  0
   12.3944   -0.7035    3.4508 H   0  0  0  0  0  0  0  0  0  0  0  0
   12.6647    0.5006    2.1257 H   0  0  0  0  0  0  0  0  0  0  0  0
    9.6855    0.8453    4.2815 H   0  0  0  0  0  0  0  0  0  0  0  0
    7.3901    0.3967    3.5549 H   0  0  0  0  0  0  0  0  0  0  0  0
    6.8517   -1.0458   -1.2339 H   0  0  0  0  0  0  0  0  0  0  0  0
    5.8276   -2.3067   -2.0553 H   0  0  0  0  0  0  0  0  0  0  0  0
    7.6699   -1.3137   -3.4878 H   0  0  0  0  0  0  0  0  0  0  0  0
    6.8010    0.2697   -3.4301 H   0  0  0  0  0  0  0  0  0  0  0  0
    6.0078   -1.1863   -4.1697 H   0  0  0  0  0  0  0  0  0  0  0  0
    1.8221    1.4112    0.2433 H   0  0  0  0  0  0  0  0  0  0  0  0
    0.9799    3.5523    1.0056 H   0  0  0  0  0  0  0  0  0  0  0  0
   -0.5940    6.0258   -1.2212 H   0  0  0  0  0  0  0  0  0  0  0  0
   -0.3036    5.5521    0.4872 H   0  0  0  0  0  0  0  0  0  0  0  0
    0.7367    7.7572   -0.1300 H   0  0  0  0  0  0  0  0  0  0  0  0
    1.8187    6.9125   -1.3034 H   0  0  0  0  0  0  0  0  0  0  0  0
    1.9349    6.5459    0.4682 H   0  0  0  0  0  0  0  0  0  0  0  0
    0.8488    4.9842   -3.0531 H   0  0  0  0  0  0  0  0  0  0  0  0
    1.6261    2.8230   -3.8500 H   0  0  0  0  0  0  0  0  0  0  0  0
    4.1027    1.7975   -3.4014 H   0  0  0  0  0  0  0  0  0  0  0  0
    5.2797    1.4147   -5.5087 H   0  0  0  0  0  0  0  0  0  0  0  0
    5.8454   -0.3362   -7.2268 H   0  0  0  0  0  0  0  0  0  0  0  0
    4.6048   -1.5239   -7.7338 H   0  0  0  0  0  0  0  0  0  0  0  0
    4.6366    1.5117   -8.2936 H   0  0  0  0  0  0  0  0  0  0  0  0
    3.2070    0.4459   -8.6391 H   0  0  0  0  0  0  0  0  0  0  0  0
    4.7774    0.1622   -9.4844 H   0  0  0  0  0  0  0  0  0  0  0  0
    2.5408   -1.7674   -6.4722 H   0  0  0  0  0  0  0  0  0  0  0  0
    1.3317   -1.3752   -4.3895 H   0  0  0  0  0  0  0  0  0  0  0  0
   -1.0017   -2.0411   -0.0009 H   0  0  0  0  0  0  0  0  0  0  0  0
   -4.6126   -2.0186    1.5035 H   0  0  0  0  0  0  0  0  0  0  0  0
   -4.2905   -1.5255    3.8551 H   0  0  0  0  0  0  0  0  0  0  0  0
   -2.1299    1.3405    5.1234 H   0  0  0  0  0  0  0  0  0  0  0  0
   -2.5293   -0.3571    5.5502 H   0  0  0  0  0  0  0  0  0  0  0  0
   -4.0719    1.3610    6.5847 H   0  0  0  0  0  0  0  0  0  0  0  0
   -4.6151    1.8481    4.9366 H   0  0  0  0  0  0  0  0  0  0  0  0
   -4.9490    0.1781    5.5497 H   0  0  0  0  0  0  0  0  0  0  0  0
   -1.7386    1.7983    2.8370 H   0  0  0  0  0  0  0  0  0  0  0  0
   -1.9634    1.2538    0.4767 H   0  0  0  0  0  0  0  0  0  0  0  0
   -2.7919   -3.3329   -0.1480 H   0  0  0  0  0  0  0  0  0  0  0  0
   -4.0050   -5.3744   -0.6148 H   0  0  0  0  0  0  0  0  0  0  0  0
   -7.2614   -5.5126   -2.5183 H   0  0  0  0  0  0  0  0  0  0  0  0
   -5.7660   -6.4458   -2.1956 H   0  0  0  0  0  0  0  0  0  0  0  0
   -6.2367   -6.3591    0.2769 H   0  0  0  0  0  0  0  0  0  0  0  0
   -7.7327   -5.3981   -0.0510 H   0  0  0  0  0  0  0  0  0  0  0  0
   -7.6020   -7.1016   -0.6392 H   0  0  0  0  0  0  0  0  0  0  0  0
   -7.1589   -3.1006   -2.4601 H   0  0  0  0  0  0  0  0  0  0  0  0
   -5.9411   -1.0308   -2.0340 H   0  0  0  0  0  0  0  0  0  0  0  0
   -5.3245    2.8759    1.4818 H   0  0  0  0  0  0  0  0  0  0  0  0
   -6.9565    2.8284    0.6553 H   0  0  0  0  0  0  0  0  0  0  0  0
   -7.0092    2.3289    3.1244 H   0  0  0  0  0  0  0  0  0  0  0  0
   -7.6461    0.9835    2.0972 H   0  0  0  0  0  0  0  0  0  0  0  0
   -5.9929    0.8698    2.8230 H   0  0  0  0  0  0  0  0  0  0  0  0
   -0.5998    1.4369   -3.5587 H   0  0  0  0  0  0  0  0  0  0  0  0
   -6.2581    6.6505   -3.2193 H   0  0  0  0  0  0  0  0  0  0  0  0
   -4.7911    7.7700   -4.8316 H   0  0  0  0  0  0  0  0  0  0  0  0
   -4.0455    7.6414   -7.3723 H   0  0  0  0  0  0  0  0  0  0  0  0
   -2.6126    6.9675   -6.4910 H   0  0  0  0  0  0  0  0  0  0  0  0
   -3.3294    6.0651   -7.8815 H   0  0  0  0  0  0  0  0  0  0  0  0
   -4.3827    4.0850   -7.0343 H   0  0  0  0  0  0  0  0  0  0  0  0
   -5.8233    2.9519   -5.4065 H   0  0  0  0  0  0  0  0  0  0  0  0
   -8.8976    4.3628   -5.0238 H   0  0  0  0  0  0  0  0  0  0  0  0
  -10.3510    2.6201   -5.9627 H   0  0  0  0  0  0  0  0  0  0  0  0
   -9.7570   -0.5435   -6.1122 H   0  0  0  0  0  0  0  0  0  0  0  0
  -10.7143   -0.8005   -4.5994 H   0  0  0  0  0  0  0  0  0  0  0  0
  -11.2898    0.3755   -5.8372 H   0  0  0  0  0  0  0  0  0  0  0  0
   -8.5864   -0.2858   -3.3004 H   0  0  0  0  0  0  0  0  0  0  0  0
   -7.1607    1.4709   -2.3450 H   0  0  0  0  0  0  0  0  0  0  0  0
   -6.4746    9.6464    3.5080 H   0  0  0  0  0  0  0  0  0  0  0  0
   -6.5652   12.0693    3.1728 H   0  0  0  0  0  0  0  0  0  0  0  0
   -7.4393   13.9021    1.5346 H   0  0  0  0  0  0  0  0  0  0  0  0
   -5.7180   13.8403    0.9788 H   0  0  0  0  0  0  0  0  0  0  0  0
   -7.0735   13.6913   -0.2127 H   0  0  0  0  0  0  0  0  0  0  0  0
   -6.7466   11.4683   -1.0928 H   0  0  0  0  0  0  0  0  0  0  0  0
   -6.6240    9.0586   -0.7703 H   0  0  0  0  0  0  0  0  0  0  0  0
   -7.4274    5.5798    3.0100 H   0  0  0  0  0  0  0  0  0  0  0  0
   -6.2553    4.4352    4.8396 H   0  0  0  0  0  0  0  0  0  0  0  0
   -3.1175    4.2933    5.4158 H   0  0  0  0  0  0  0  0  0  0  0  0
   -3.2206    5.7239    6.5202 H   0  0  0  0  0  0  0  0  0  0  0  0
   -4.5083    4.4714    6.5546 H   0  0  0  0  0  0  0  0  0  0  0  0
   -3.0119    7.2534    4.5363 H   0  0  0  0  0  0  0  0  0  0  0  0
   -4.1620    8.3880    2.6897 H   0  0  0  0  0  0  0  0  0  0  0  0
   -9.2766    7.5656    2.1213 H   0  0  0  0  0  0  0  0  0  0  0  0
  -14.5494    8.1641    2.8319 H   0  0  0  0  0  0  0  0  0  0  0  0
  1  2  2  3
  2  3  1  0
  3  4  2  0
  3  5  1  0
  5  6  2  0
  6  7  1  0
  7  8  2  0
  8  9  1  0
  9 10  2  0
 10 11  1  0
 11 12  2  3
 12 13  1  0
 13 14  3  0
 12 15  1  0
 15 16  3  0
  8 17  1  0
 17 18  1  0
 18 19  1  0
 19 20  2  0
 20 21  1  0
 21 22  1  0
 21 23  1  0
  1 24  1  0
 24 25  2  0
 25 26  1  0
 26 27  1  0
 27 28  2  0
 28 29  1  0
 29 30  2  0
 30 31  1  0
 30 32  1  0
 32 33  2  0
 26 34  1  0
 34 35  2  0
 35 36  1  0
 36 37  2  0
 37 38  1  0
 37 39  1  0
 39 40  2  0
 25 41  1  0
 41 42  1  0
 42 43  1  0
 43 44  2  0
 44 45  1  0
 45 46  1  0
 46 47  2  0
 47 48  1  0
 48 49  2  0
 49 50  1  0
 49 51  1  0
 51 52  2  0
 45 53  1  0
 53 54  2  0
 54 55  1  0
 55 56  2  0
 56 57  1  0
 56 58  1  0
 58 59  2  0
 44 60  1  0
 60 61  1  0
 43 62  1  0
 62 63  2  0
 63 64  1  0
 64 65  1  0
 65 66  1  0
 63 67  1  0
 67 68  1  0
 68 69  1  0
 69 70  2  0
 70 71  1  0
 71 72  2  0
 72 73  1  0
 73 74  1  0
 72 75  1  0
 75 76  2  0
 68 77  1  0
 77 78  2  0
 78 79  1  0
 79 80  2  0
 80 81  1  0
 81 82  1  0
 80 83  1  0
 83 84  2  0
 68 85  1  0
 85 86  2  0
 86 87  1  0
 87 88  1  0
 86 89  1  0
 89 90  2  0
 90 91  1  0
 91 92  1  0
 92 93  2  0
 93 94  1  0
 94 95  2  0
 95 96  1  0
 96 97  1  0
 95 98  1  0
 98 99  2  0
 91100  1  0
100101  2  0
101102  1  0
102103  2  0
103104  1  0
104105  1  0
103106  1  0
106107  2  0
 91108  1  0
108109  1  0
109110  1  0
110111  1  0
111112  1  0
109113  2  0
113114  1  0
114115  1  0
115116  1  0
116117  2  0
113118  1  0
118119  2  0
119120  1  0
120121  1  0
121122  2  0
122123  1  0
123124  2  0
124125  1  0
124126  1  0
126127  2  0
120128  1  0
128129  2  0
129130  1  0
130131  2  0
131132  1  0
131133  1  0
133134  2  0
119135  1  0
135136  1  0
136137  1  0
137138  2  0
138139  1  0
139140  1  0
140141  2  0
141142  1  0
142143  2  0
143144  1  0
143145  1  0
145146  2  0
139147  1  0
147148  2  0
148149  1  0
149150  2  0
150151  1  0
150152  1  0
152153  2  0
138154  1  0
154155  1  0
137156  1  0
156157  2  3
157158  1  0
158159  2  0
158160  1  0
160161  2  0
161162  1  0
162163  2  0
163164  1  0
163165  1  0
165166  1  0
165167  2  0
167168  1  0
161169  1  0
169170  2  3
170171  1  0
171172  3  0
170173  1  0
173174  3  0
 11  2  1  0
 23 17  1  0
 61 24  1  0
 88 62  1  0
116 90  1  0
155118  1  0
169157  1  0
 10  5  1  0
 22 18  1  0
 33 27  1  0
 40 34  1  0
 60 41  2  0
 87 67  2  0
 99 92  1  0
107100  1  0
115108  2  0
127121  1  0
134128  1  0
154135  2  0
167160  1  0
 23  7  1  0
 52 46  1  0
 59 53  1  0
 76 69  1  0
 84 77  1  0
117 85  1  0
146140  1  0
153147  1  0
  1175  1  0
  6176  1  0
  9177  1  0
 17178  1  0
 18179  1  0
 19180  1  0
 20181  1  0
 21182  1  0
 22183  1  0
 22184  1  0
 23185  1  0
 28186  1  0
 29187  1  0
 31188  1  0
 31189  1  0
 31190  1  0
 32191  1  0
 33192  1  0
 35193  1  0
 36194  1  0
 38195  1  0
 38196  1  0
 38197  1  0
 39198  1  0
 40199  1  0
 47200  1  0
 48201  1  0
 50202  1  0
 50203  1  0
 50204  1  0
 51205  1  0
 52206  1  0
 54207  1  0
 55208  1  0
 57209  1  0
 57210  1  0
 57211  1  0
 58212  1  0
 59213  1  0
 65214  1  0
 65215  1  0
 66216  1  0
 66217  1  0
 66218  1  0
 70219  1  0
 71220  1  0
 73221  1  0
 73222  1  0
 74223  1  0
 74224  1  0
 74225  1  0
 75226  1  0
 76227  1  0
 78228  1  0
 79229  1  0
 81230  1  0
 81231  1  0
 82232  1  0
 82233  1  0
 82234  1  0
 83235  1  0
 84236  1  0
 89237  1  0
 93238  1  0
 94239  1  0
 96240  1  0
 96241  1  0
 97242  1  0
 97243  1  0
 97244  1  0
 98245  1  0
 99246  1  0
101247  1  0
102248  1  0
104249  1  0
104250  1  0
105251  1  0
105252  1  0
105253  1  0
106254  1  0
107255  1  0
111256  1  0
111257  1  0
112258  1  0
112259  1  0
112260  1  0
117261  1  0
122262  1  0
123263  1  0
125264  1  0
125265  1  0
125266  1  0
126267  1  0
127268  1  0
129269  1  0
130270  1  0
132271  1  0
132272  1  0
132273  1  0
133274  1  0
134275  1  0
141276  1  0
142277  1  0
144278  1  0
144279  1  0
144280  1  0
145281  1  0
146282  1  0
148283  1  0
149284  1  0
151285  1  0
151286  1  0
151287  1  0
152288  1  0
153289  1  0
156290  1  0
162291  1  0
M  END

