
     RDKit          3D

272301  0  0  0  0  0  0  0  0999 V2000
    5.5706    5.7606   -1.7260 C   0  0  0  0  0  0  0  0  0  0  0  0
    5.6264    4.7390   -2.6010 C   0  0  0  0  0  0  0  0  0  0  0  0
    6.8160    4.3413   -3.3546 C   0  0  0  0  0  0  0  0  0  0  0  0
    7.9139    4.9619   -3.4027 O   0  0  0  0  0  0  0  0  0  0  0  0
    6.5136    3.1070   -4.0603 C   0  0  0  0  0  0  0  0  0  0  0  0
    7.3343    2.3920   -4.9659 C   0  0  0  0  0  0  0  0  0  0  0  0
    6.7042    1.3030   -5.5602 C   0  0  0  0  0  0  0  0  0  0  0  0
    5.3430    0.9456   -5.2809 C   0  0  0  0  0  0  0  0  0  0  0  0
    4.5348    1.6529   -4.3967 C   0  0  0  0  0  0  0  0  0  0  0  0
    5.1721    2.7520   -3.7745 C   0  0  0  0  0  0  0  0  0  0  0  0
    4.5535    3.7550   -2.8819 C   0  0  0  0  0  0  0  0  0  0  0  0
    3.2912    4.1154   -3.1005 C   0  0  0  0  0  0  0  0  0  0  0  0
    2.2433    3.2191   -2.6907 C   0  0  0  0  0  0  0  0  0  0  0  0
    1.4171    2.4848   -2.3451 N   0  0  0  0  0  0  0  0  0  0  0  0
    3.0239    5.0541   -4.1576 C   0  0  0  0  0  0  0  0  0  0  0  0
    2.8382    5.8055   -5.0100 N   0  0  0  0  0  0  0  0  0  0  0  0
    5.4214   -0.1961   -6.2526 C   0  0  0  0  0  0  0  0  0  0  0  0
    4.7229   -0.0017   -7.6326 C   0  0  0  0  0  0  0  0  0  0  0  0
    5.2661   -1.0872   -8.5227 C   0  0  0  0  0  0  0  0  0  0  0  0
    6.5379   -0.7727   -8.7787 C   0  0  0  0  0  0  0  0  0  0  0  0
    6.8169    0.5185   -8.0454 C   0  0  0  0  0  0  0  0  0  0  0  0
    5.4628    1.1833   -8.2328 C   0  0  0  0  0  0  0  0  0  0  0  0
    6.8218    0.1543   -6.5277 C   0  0  0  0  0  0  0  0  0  0  0  0
    4.3977    5.9702   -0.8496 C   0  0  0  0  0  0  0  0  0  0  0  0
    3.2962    6.8272   -1.0918 C   0  0  0  0  0  0  0  0  0  0  0  0
    3.2936    7.8979   -2.0687 N   0  0  0  0  0  0  0  0  0  0  0  0
    4.5409    8.5350   -2.4161 C   0  0  0  0  0  0  0  0  0  0  0  0
    5.4022    9.0057   -1.4105 C   0  0  0  0  0  0  0  0  0  0  0  0
    6.6721    9.4879   -1.7416 C   0  0  0  0  0  0  0  0  0  0  0  0
    7.0824    9.5345   -3.0819 C   0  0  0  0  0  0  0  0  0  0  0  0
    8.4456   10.0639   -3.4310 C   0  0  0  0  0  0  0  0  0  0  0  0
    6.1893    9.1420   -4.0940 C   0  0  0  0  0  0  0  0  0  0  0  0
    4.9297    8.6353   -3.7582 C   0  0  0  0  0  0  0  0  0  0  0  0
    2.0615    8.4574   -2.5675 C   0  0  0  0  0  0  0  0  0  0  0  0
    1.0180    7.6326   -3.0364 C   0  0  0  0  0  0  0  0  0  0  0  0
   -0.2087    8.1850   -3.4081 C   0  0  0  0  0  0  0  0  0  0  0  0
   -0.3981    9.5788   -3.3658 C   0  0  0  0  0  0  0  0  0  0  0  0
   -1.7565   10.1509   -3.6504 C   0  0  0  0  0  0  0  0  0  0  0  0
    0.6486   10.4012   -2.9361 C   0  0  0  0  0  0  0  0  0  0  0  0
    1.8677    9.8438   -2.5427 C   0  0  0  0  0  0  0  0  0  0  0  0
    2.2507    6.5320   -0.2053 C   0  0  0  0  0  0  0  0  0  0  0  0
    0.6522    7.0091   -0.0039 S   0  0  0  0  0  0  0  0  0  0  0  0
    0.2773    5.8999    1.2442 C   0  0  0  0  0  0  0  0  0  0  0  0
    1.4620    5.1788    1.5370 C   0  0  0  0  0  0  0  0  0  0  0  0
    1.7111    4.4067    2.7282 N   0  0  0  0  0  0  0  0  0  0  0  0
    1.1434    3.1015    2.9370 C   0  0  0  0  0  0  0  0  0  0  0  0
    0.8744    2.6621    4.2436 C   0  0  0  0  0  0  0  0  0  0  0  0
    0.2192    1.4479    4.4670 C   0  0  0  0  0  0  0  0  0  0  0  0
   -0.1670    0.6508    3.3875 C   0  0  0  0  0  0  0  0  0  0  0  0
   -0.8576   -0.6468    3.6445 C   0  0  0  0  0  0  0  0  0  0  0  0
    0.1328    1.0575    2.0737 C   0  0  0  0  0  0  0  0  0  0  0  0
    0.7909    2.2741    1.8475 C   0  0  0  0  0  0  0  0  0  0  0  0
    2.7419    4.8935    3.6141 C   0  0  0  0  0  0  0  0  0  0  0  0
    3.7854    4.0525    4.0402 C   0  0  0  0  0  0  0  0  0  0  0  0
    4.8130    4.5530    4.8408 C   0  0  0  0  0  0  0  0  0  0  0  0
    4.8288    5.9052    5.2108 C   0  0  0  0  0  0  0  0  0  0  0  0
    5.9256    6.4489    6.0777 C   0  0  0  0  0  0  0  0  0  0  0  0
    3.7904    6.7488    4.7898 C   0  0  0  0  0  0  0  0  0  0  0  0
    2.7631    6.2532    3.9835 C   0  0  0  0  0  0  0  0  0  0  0  0
    2.5061    5.5470    0.6917 C   0  0  0  0  0  0  0  0  0  0  0  0
    4.0403    4.9323    0.4468 S   0  0  0  0  0  0  0  0  0  0  0  0
   -1.1192    5.4483    1.4851 C   0  0  0  0  0  0  0  0  0  0  0  0
   -2.0547    5.3457    0.4455 C   0  0  0  0  0  0  0  0  0  0  0  0
   -2.9933    4.3245    0.6528 C   0  0  0  0  0  0  0  0  0  0  0  0
   -3.6870    3.3950   -0.3544 C   0  0  0  0  0  0  0  0  0  0  0  0
   -3.1142    3.3409   -1.7833 C   0  0  0  0  0  0  0  0  0  0  0  0
   -3.9577    2.9661   -2.8549 C   0  0  0  0  0  0  0  0  0  0  0  0
   -3.5142    3.0254   -4.1815 C   0  0  0  0  0  0  0  0  0  0  0  0
   -2.2098    3.4216   -4.4721 C   0  0  0  0  0  0  0  0  0  0  0  0
   -1.7304    3.4691   -5.9005 C   0  0  0  0  0  0  0  0  0  0  0  0
   -1.3719    2.0713   -6.3950 C   0  0  0  0  0  0  0  0  0  0  0  0
   -1.3343    3.7262   -3.4184 C   0  0  0  0  0  0  0  0  0  0  0  0
   -1.7720    3.6503   -2.0878 C   0  0  0  0  0  0  0  0  0  0  0  0
   -5.1453    3.8978   -0.3825 C   0  0  0  0  0  0  0  0  0  0  0  0
   -5.4011    5.1736   -0.9232 C   0  0  0  0  0  0  0  0  0  0  0  0
   -6.6605    5.7634   -0.8230 C   0  0  0  0  0  0  0  0  0  0  0  0
   -7.7202    5.0740   -0.2111 C   0  0  0  0  0  0  0  0  0  0  0  0
   -9.0512    5.7596   -0.0148 C   0  0  0  0  0  0  0  0  0  0  0  0
   -9.1278    6.3983    1.3684 C   0  0  0  0  0  0  0  0  0  0  0  0
   -7.4963    3.7864    0.2935 C   0  0  0  0  0  0  0  0  0  0  0  0
   -6.2257    3.2002    0.2067 C   0  0  0  0  0  0  0  0  0  0  0  0
   -3.5061    2.0901    0.4322 C   0  0  0  0  0  0  0  0  0  0  0  0
   -3.3158    2.3905    1.7503 C   0  0  0  0  0  0  0  0  0  0  0  0
   -2.9570    3.7741    1.9172 C   0  0  0  0  0  0  0  0  0  0  0  0
   -1.6212    4.3894    2.7142 S   0  0  0  0  0  0  0  0  0  0  0  0
   -3.7613    1.1365    2.7700 S   0  0  0  0  0  0  0  0  0  0  0  0
   -4.1041    0.0834    1.4693 C   0  0  0  0  0  0  0  0  0  0  0  0
   -4.4598   -1.2742    1.5468 C   0  0  0  0  0  0  0  0  0  0  0  0
   -4.9190   -1.8230    2.7496 O   0  0  0  0  0  0  0  0  0  0  0  0
   -6.2852   -1.7346    3.1474 C   0  0  0  0  0  0  0  0  0  0  0  0
   -6.7308   -0.2953    3.4064 C   0  0  0  0  0  0  0  0  0  0  0  0
   -4.3092   -2.0572    0.3717 C   0  0  0  0  0  0  0  0  0  0  0  0
   -3.8585   -1.4348   -0.8167 C   0  0  0  0  0  0  0  0  0  0  0  0
   -3.5494   -0.0711   -0.8899 C   0  0  0  0  0  0  0  0  0  0  0  0
   -3.8181    0.7253    0.2423 C   0  0  0  0  0  0  0  0  0  0  0  0
   -2.7374    0.3812   -1.9277 O   0  0  0  0  0  0  0  0  0  0  0  0
   -1.3253    0.5660   -1.7461 C   0  0  0  0  0  0  0  0  0  0  0  0
   -0.6181   -0.7358   -1.3749 C   0  0  0  0  0  0  0  0  0  0  0  0
   -3.3942   -2.5892   -1.9658 S   0  0  0  0  0  0  0  0  0  0  0  0
   -3.8437   -3.8690   -0.9962 C   0  0  0  0  0  0  0  0  0  0  0  0
   -3.4496   -5.2454   -0.9648 C   0  0  0  0  0  0  0  0  0  0  0  0
   -3.7669   -5.7426    0.2640 C   0  0  0  0  0  0  0  0  0  0  0  0
   -4.4052   -4.6886    1.1738 C   0  0  0  0  0  0  0  0  0  0  0  0
   -4.3156   -3.4724    0.2307 C   0  0  0  0  0  0  0  0  0  0  0  0
   -3.4827   -4.5931    2.4144 C   0  0  0  0  0  0  0  0  0  0  0  0
   -2.2793   -3.8577    2.3370 C   0  0  0  0  0  0  0  0  0  0  0  0
   -1.2797   -4.0062    3.3067 C   0  0  0  0  0  0  0  0  0  0  0  0
   -1.4542   -4.8738    4.3866 C   0  0  0  0  0  0  0  0  0  0  0  0
   -0.3439   -5.0755    5.3819 C   0  0  0  0  0  0  0  0  0  0  0  0
    0.6206   -6.1566    4.8978 C   0  0  0  0  0  0  0  0  0  0  0  0
   -2.6265   -5.6401    4.4582 C   0  0  0  0  0  0  0  0  0  0  0  0
   -3.6136   -5.5181    3.4787 C   0  0  0  0  0  0  0  0  0  0  0  0
   -5.8809   -5.0503    1.4008 C   0  0  0  0  0  0  0  0  0  0  0  0
   -6.6623   -5.5043    0.3102 C   0  0  0  0  0  0  0  0  0  0  0  0
   -8.0129   -5.8235    0.4619 C   0  0  0  0  0  0  0  0  0  0  0  0
   -8.6366   -5.6741    1.7022 C   0  0  0  0  0  0  0  0  0  0  0  0
  -10.1141   -5.9403    1.8436 C   0  0  0  0  0  0  0  0  0  0  0  0
  -10.9232   -4.7039    1.4555 C   0  0  0  0  0  0  0  0  0  0  0  0
   -7.8992   -5.1893    2.7899 C   0  0  0  0  0  0  0  0  0  0  0  0
   -6.5373   -4.8824    2.6420 C   0  0  0  0  0  0  0  0  0  0  0  0
   -3.0501   -6.8930    0.6091 C   0  0  0  0  0  0  0  0  0  0  0  0
   -2.0733   -7.2216   -0.3373 C   0  0  0  0  0  0  0  0  0  0  0  0
   -2.1163   -6.0547   -1.5777 S   0  0  0  0  0  0  0  0  0  0  0  0
   -0.9956   -8.2012   -0.0580 C   0  0  0  0  0  0  0  0  0  0  0  0
   -0.6655   -8.7319    1.5062 S   0  0  0  0  0  0  0  0  0  0  0  0
    0.6485   -9.6948    1.1510 C   0  0  0  0  0  0  0  0  0  0  0  0
    0.8631   -9.6503   -0.2282 C   0  0  0  0  0  0  0  0  0  0  0  0
    1.9038  -10.4163   -0.9495 C   0  0  0  0  0  0  0  0  0  0  0  0
    2.6945  -11.1692   -0.3230 O   0  0  0  0  0  0  0  0  0  0  0  0
    1.9962  -10.2670   -2.4214 C   0  0  0  0  0  0  0  0  0  0  0  0
    2.9312  -10.8895   -3.2587 C   0  0  0  0  0  0  0  0  0  0  0  0
    3.9772  -11.9060   -2.8833 C   0  0  0  0  0  0  0  0  0  0  0  0
    3.3493  -13.2789   -2.6654 C   0  0  0  0  0  0  0  0  0  0  0  0
    2.6361  -10.3980   -4.8407 S   0  0  0  0  0  0  0  0  0  0  0  0
    1.3213   -9.4068   -4.5056 C   0  0  0  0  0  0  0  0  0  0  0  0
    0.6282   -8.5591   -5.5358 C   0  0  0  0  0  0  0  0  0  0  0  0
    1.0809   -7.1065   -5.4488 C   0  0  0  0  0  0  0  0  0  0  0  0
    1.0883   -9.4384   -3.1210 C   0  0  0  0  0  0  0  0  0  0  0  0
   -0.0160   -8.7446   -2.4018 C   0  0  0  0  0  0  0  0  0  0  0  0
   -0.9404   -8.1964   -3.0479 O   0  0  0  0  0  0  0  0  0  0  0  0
   -0.0569   -8.8185   -0.9188 C   0  0  0  0  0  0  0  0  0  0  0  0
    1.3556  -10.5109    2.1548 C   0  0  0  0  0  0  0  0  0  0  0  0
    2.5804  -10.2082    2.6231 C   0  0  0  0  0  0  0  0  0  0  0  0
    3.3195   -8.9811    2.3300 C   0  0  0  0  0  0  0  0  0  0  0  0
    3.1264   -8.2062    1.3562 O   0  0  0  0  0  0  0  0  0  0  0  0
    4.3048   -8.7760    3.3652 C   0  0  0  0  0  0  0  0  0  0  0  0
    5.1213   -7.6376    3.5500 C   0  0  0  0  0  0  0  0  0  0  0  0
    5.8160   -7.6333    4.7494 C   0  0  0  0  0  0  0  0  0  0  0  0
    5.7067   -8.6805    5.7168 C   0  0  0  0  0  0  0  0  0  0  0  0
    4.9322   -9.8139    5.5327 C   0  0  0  0  0  0  0  0  0  0  0  0
    4.2293   -9.8511    4.2944 C   0  0  0  0  0  0  0  0  0  0  0  0
    3.2576  -10.8537    3.7812 C   0  0  0  0  0  0  0  0  0  0  0  0
    3.1868  -12.1642    4.1286 C   0  0  0  0  0  0  0  0  0  0  0  0
    2.4094  -13.1081    3.3712 C   0  0  0  0  0  0  0  0  0  0  0  0
    1.7871  -13.8758    2.7679 N   0  0  0  0  0  0  0  0  0  0  0  0
    3.9778  -12.7224    5.1953 C   0  0  0  0  0  0  0  0  0  0  0  0
    4.5875  -13.1735    6.0739 N   0  0  0  0  0  0  0  0  0  0  0  0
    6.5896   -7.9248    6.6647 C   0  0  0  0  0  0  0  0  0  0  0  0
    5.9117   -7.1969    7.8670 C   0  0  0  0  0  0  0  0  0  0  0  0
    4.5111   -6.7536    7.4884 C   0  0  0  0  0  0  0  0  0  0  0  0
    4.6565   -5.7774    6.5849 C   0  0  0  0  0  0  0  0  0  0  0  0
    6.1383   -5.6080    6.3699 C   0  0  0  0  0  0  0  0  0  0  0  0
    6.6197   -5.8535    7.7911 C   0  0  0  0  0  0  0  0  0  0  0  0
    6.7276   -6.8627    5.6594 C   0  0  0  0  0  0  0  0  0  0  0  0
    6.4463    6.3847   -1.5804 H   0  0  0  0  0  0  0  0  0  0  0  0
    8.3469    2.6870   -5.2032 H   0  0  0  0  0  0  0  0  0  0  0  0
    3.5014    1.3798   -4.2323 H   0  0  0  0  0  0  0  0  0  0  0  0
    5.2722   -1.1960   -5.7846 H   0  0  0  0  0  0  0  0  0  0  0  0
    3.6223    0.0805   -7.6186 H   0  0  0  0  0  0  0  0  0  0  0  0
    4.7174   -1.9053   -8.9701 H   0  0  0  0  0  0  0  0  0  0  0  0
    7.1956   -1.2712   -9.4842 H   0  0  0  0  0  0  0  0  0  0  0  0
    7.6977    1.0841   -8.4162 H   0  0  0  0  0  0  0  0  0  0  0  0
    5.3340    2.1327   -7.6631 H   0  0  0  0  0  0  0  0  0  0  0  0
    5.2207    1.3611   -9.3035 H   0  0  0  0  0  0  0  0  0  0  0  0
    7.5694   -0.6174   -6.2275 H   0  0  0  0  0  0  0  0  0  0  0  0
    5.1015    8.9629   -0.3694 H   0  0  0  0  0  0  0  0  0  0  0  0
    7.3402    9.8105   -0.9460 H   0  0  0  0  0  0  0  0  0  0  0  0
    9.1784    9.8200   -2.6364 H   0  0  0  0  0  0  0  0  0  0  0  0
    8.8118    9.6256   -4.3857 H   0  0  0  0  0  0  0  0  0  0  0  0
    8.3859   11.1656   -3.5421 H   0  0  0  0  0  0  0  0  0  0  0  0
    6.4745    9.2146   -5.1334 H   0  0  0  0  0  0  0  0  0  0  0  0
    4.2718    8.2859   -4.5462 H   0  0  0  0  0  0  0  0  0  0  0  0
    1.1295    6.5569   -3.0373 H   0  0  0  0  0  0  0  0  0  0  0  0
   -1.0201    7.5259   -3.6982 H   0  0  0  0  0  0  0  0  0  0  0  0
   -2.3821   10.0757   -2.7372 H   0  0  0  0  0  0  0  0  0  0  0  0
   -2.2498    9.5975   -4.4757 H   0  0  0  0  0  0  0  0  0  0  0  0
   -1.6858   11.2214   -3.9440 H   0  0  0  0  0  0  0  0  0  0  0  0
    0.5116   11.4776   -2.8833 H   0  0  0  0  0  0  0  0  0  0  0  0
    2.6441   10.4986   -2.1667 H   0  0  0  0  0  0  0  0  0  0  0  0
    1.1352    3.2820    5.0892 H   0  0  0  0  0  0  0  0  0  0  0  0
    0.0067    1.1372    5.4841 H   0  0  0  0  0  0  0  0  0  0  0  0
   -0.1339   -1.3621    4.0851 H   0  0  0  0  0  0  0  0  0  0  0  0
   -1.2791   -1.0767    2.7056 H   0  0  0  0  0  0  0  0  0  0  0  0
   -1.6926   -0.5024    4.3603 H   0  0  0  0  0  0  0  0  0  0  0  0
   -0.1528    0.4405    1.2328 H   0  0  0  0  0  0  0  0  0  0  0  0
    1.0009    2.5777    0.8312 H   0  0  0  0  0  0  0  0  0  0  0  0
    3.8072    3.0106    3.7370 H   0  0  0  0  0  0  0  0  0  0  0  0
    5.5986    3.8809    5.1651 H   0  0  0  0  0  0  0  0  0  0  0  0
    6.7757    5.7353    6.1425 H   0  0  0  0  0  0  0  0  0  0  0  0
    5.5331    6.6286    7.0977 H   0  0  0  0  0  0  0  0  0  0  0  0
    6.3060    7.4009    5.6546 H   0  0  0  0  0  0  0  0  0  0  0  0
    3.7789    7.7960    5.0801 H   0  0  0  0  0  0  0  0  0  0  0  0
    1.9828    6.9286    3.6457 H   0  0  0  0  0  0  0  0  0  0  0  0
   -1.9066    5.8207   -0.5150 H   0  0  0  0  0  0  0  0  0  0  0  0
   -4.9717    2.6470   -2.6780 H   0  0  0  0  0  0  0  0  0  0  0  0
   -4.1924    2.7480   -4.9822 H   0  0  0  0  0  0  0  0  0  0  0  0
   -2.5243    3.8891   -6.5540 H   0  0  0  0  0  0  0  0  0  0  0  0
   -0.8424    4.1305   -5.9887 H   0  0  0  0  0  0  0  0  0  0  0  0
   -1.0653    2.1198   -7.4609 H   0  0  0  0  0  0  0  0  0  0  0  0
   -2.2504    1.3905   -6.3211 H   0  0  0  0  0  0  0  0  0  0  0  0
   -0.5310    1.6505   -5.7997 H   0  0  0  0  0  0  0  0  0  0  0  0
   -0.3142    4.0090   -3.6374 H   0  0  0  0  0  0  0  0  0  0  0  0
   -1.0417    3.8211   -1.3132 H   0  0  0  0  0  0  0  0  0  0  0  0
   -4.5999    5.7370   -1.3909 H   0  0  0  0  0  0  0  0  0  0  0  0
   -6.8126    6.7674   -1.2083 H   0  0  0  0  0  0  0  0  0  0  0  0
   -9.8811    5.0300   -0.1326 H   0  0  0  0  0  0  0  0  0  0  0  0
   -9.1822    6.5532   -0.7812 H   0  0  0  0  0  0  0  0  0  0  0  0
   -9.1437    5.6185    2.1610 H   0  0  0  0  0  0  0  0  0  0  0  0
  -10.0557    7.0044    1.4541 H   0  0  0  0  0  0  0  0  0  0  0  0
   -8.2544    7.0671    1.5348 H   0  0  0  0  0  0  0  0  0  0  0  0
   -8.3010    3.2446    0.7793 H   0  0  0  0  0  0  0  0  0  0  0  0
   -6.0962    2.2116    0.6319 H   0  0  0  0  0  0  0  0  0  0  0  0
   -6.4093   -2.3000    4.0968 H   0  0  0  0  0  0  0  0  0  0  0  0
   -6.9401   -2.1782    2.3698 H   0  0  0  0  0  0  0  0  0  0  0  0
   -6.0858    0.1701    4.1796 H   0  0  0  0  0  0  0  0  0  0  0  0
   -7.7743   -0.2975    3.7712 H   0  0  0  0  0  0  0  0  0  0  0  0
   -6.6938    0.2915    2.4655 H   0  0  0  0  0  0  0  0  0  0  0  0
   -1.1418    1.2968   -0.9340 H   0  0  0  0  0  0  0  0  0  0  0  0
   -0.8931    0.9478   -2.6891 H   0  0  0  0  0  0  0  0  0  0  0  0
    0.4437   -0.5180   -1.1449 H   0  0  0  0  0  0  0  0  0  0  0  0
   -0.6567   -1.4618   -2.2133 H   0  0  0  0  0  0  0  0  0  0  0  0
   -1.0703   -1.1831   -0.4689 H   0  0  0  0  0  0  0  0  0  0  0  0
   -2.0585   -3.2341    1.4872 H   0  0  0  0  0  0  0  0  0  0  0  0
   -0.3386   -3.4808    3.1779 H   0  0  0  0  0  0  0  0  0  0  0  0
   -0.7665   -5.3724    6.3663 H   0  0  0  0  0  0  0  0  0  0  0  0
    0.2157   -4.1260    5.5358 H   0  0  0  0  0  0  0  0  0  0  0  0
    1.0707   -5.8656    3.9228 H   0  0  0  0  0  0  0  0  0  0  0  0
    0.0869   -7.1228    4.7843 H   0  0  0  0  0  0  0  0  0  0  0  0
    1.4395   -6.2868    5.6375 H   0  0  0  0  0  0  0  0  0  0  0  0
   -2.7409   -6.3780    5.2442 H   0  0  0  0  0  0  0  0  0  0  0  0
   -4.4430   -6.2087    3.5195 H   0  0  0  0  0  0  0  0  0  0  0  0
   -6.2315   -5.5994   -0.6787 H   0  0  0  0  0  0  0  0  0  0  0  0
   -8.5732   -6.1776   -0.3979 H   0  0  0  0  0  0  0  0  0  0  0  0
  -10.4116   -6.7888    1.1891 H   0  0  0  0  0  0  0  0  0  0  0  0
  -10.3606   -6.2220    2.8884 H   0  0  0  0  0  0  0  0  0  0  0  0
  -10.6824   -4.3909    0.4155 H   0  0  0  0  0  0  0  0  0  0  0  0
  -12.0090   -4.9338    1.5103 H   0  0  0  0  0  0  0  0  0  0  0  0
  -10.7007   -3.8654    2.1496 H   0  0  0  0  0  0  0  0  0  0  0  0
   -8.3712   -5.0326    3.7460 H   0  0  0  0  0  0  0  0  0  0  0  0
   -6.0102   -4.4943    3.4975 H   0  0  0  0  0  0  0  0  0  0  0  0
   -3.1298   -7.3815    1.5646 H   0  0  0  0  0  0  0  0  0  0  0  0
    4.5216  -11.5804   -1.9742 H   0  0  0  0  0  0  0  0  0  0  0  0
    4.7257  -11.9865   -3.6992 H   0  0  0  0  0  0  0  0  0  0  0  0
    2.9215  -13.6646   -3.6183 H   0  0  0  0  0  0  0  0  0  0  0  0
    4.1251  -13.9902   -2.3125 H   0  0  0  0  0  0  0  0  0  0  0  0
    2.5412  -13.2368   -1.9037 H   0  0  0  0  0  0  0  0  0  0  0  0
   -0.4718   -8.6297   -5.4114 H   0  0  0  0  0  0  0  0  0  0  0  0
    0.8578   -8.9442   -6.5491 H   0  0  0  0  0  0  0  0  0  0  0  0
    0.9101   -6.6943   -4.4295 H   0  0  0  0  0  0  0  0  0  0  0  0
    0.5073   -6.4996   -6.1776 H   0  0  0  0  0  0  0  0  0  0  0  0
    2.1626   -7.0272   -5.6939 H   0  0  0  0  0  0  0  0  0  0  0  0
    0.7702  -11.2864    2.6246 H   0  0  0  0  0  0  0  0  0  0  0  0
    5.1679   -6.8140    2.8531 H   0  0  0  0  0  0  0  0  0  0  0  0
    4.8397  -10.5534    6.3126 H   0  0  0  0  0  0  0  0  0  0  0  0
    7.5501   -8.4380    6.9071 H   0  0  0  0  0  0  0  0  0  0  0  0
    5.9861   -7.7209    8.8457 H   0  0  0  0  0  0  0  0  0  0  0  0
    3.5693   -7.0880    7.9085 H   0  0  0  0  0  0  0  0  0  0  0  0
    3.8521   -5.1998    6.1438 H   0  0  0  0  0  0  0  0  0  0  0  0
    6.4360   -4.6306    5.9294 H   0  0  0  0  0  0  0  0  0  0  0  0
    6.2310   -5.1017    8.5237 H   0  0  0  0  0  0  0  0  0  0  0  0
    7.7262   -5.9277    7.8790 H   0  0  0  0  0  0  0  0  0  0  0  0
    7.7641   -6.7441    5.2688 H   0  0  0  0  0  0  0  0  0  0  0  0
  1  2  2  3
  2  3  1  0
  3  4  2  0
  3  5  1  0
  5  6  2  0
  6  7  1  0
  7  8  2  0
  8  9  1  0
  9 10  2  0
 10 11  1  0
 11 12  2  3
 12 13  1  0
 13 14  3  0
 12 15  1  0
 15 16  3  0
  8 17  1  0
 17 18  1  0
 18 19  1  0
 19 20  2  0
 20 21  1  0
 21 22  1  0
 21 23  1  0
  1 24  1  0
 24 25  2  0
 25 26  1  0
 26 27  1  0
 27 28  2  0
 28 29  1  0
 29 30  2  0
 30 31  1  0
 30 32  1  0
 32 33  2  0
 26 34  1  0
 34 35  2  0
 35 36  1  0
 36 37  2  0
 37 38  1  0
 37 39  1  0
 39 40  2  0
 25 41  1  0
 41 42  1  0
 42 43  1  0
 43 44  2  0
 44 45  1  0
 45 46  1  0
 46 47  2  0
 47 48  1  0
 48 49  2  0
 49 50  1  0
 49 51  1  0
 51 52  2  0
 45 53  1  0
 53 54  2  0
 54 55  1  0
 55 56  2  0
 56 57  1  0
 56 58  1  0
 58 59  2  0
 44 60  1  0
 60 61  1  0
 43 62  1  0
 62 63  2  0
 63 64  1  0
 64 65  1  0
 65 66  1  0
 66 67  2  0
 67 68  1  0
 68 69  2  0
 69 70  1  0
 70 71  1  0
 69 72  1  0
 72 73  2  0
 65 74  1  0
 74 75  2  0
 75 76  1  0
 76 77  2  0
 77 78  1  0
 78 79  1  0
 77 80  1  0
 80 81  2  0
 65 82  1  0
 82 83  2  0
 83 84  1  0
 84 85  1  0
 83 86  1  0
 86 87  1  0
 87 88  2  0
 88 89  1  0
 89 90  1  0
 90 91  1  0
 88 92  1  0
 92 93  2  0
 93 94  1  0
 94 95  2  0
 94 96  1  0
 96 97  1  0
 97 98  1  0
 93 99  1  0
 99100  1  0
100101  1  0
101102  2  0
102103  1  0
103104  1  0
103105  1  0
105106  2  0
106107  1  0
107108  2  0
108109  1  0
109110  1  0
108111  1  0
111112  2  0
103113  1  0
113114  2  0
114115  1  0
115116  2  0
116117  1  0
117118  1  0
116119  1  0
119120  2  0
102121  1  0
121122  2  0
122123  1  0
122124  1  0
124125  1  0
125126  1  0
126127  2  0
127128  1  0
128129  2  0
128130  1  0
130131  2  0
131132  1  0
132133  1  0
131134  1  0
134135  1  0
135136  1  0
136137  1  0
135138  2  0
138139  1  0
139140  2  0
139141  1  0
126142  1  0
142143  2  3
143144  1  0
144145  2  0
144146  1  0
146147  2  0
147148  1  0
148149  2  0
149150  1  0
150151  2  0
151152  1  0
152153  2  3
153154  1  0
154155  3  0
153156  1  0
156157  3  0
149158  1  0
158159  1  0
159160  1  0
160161  2  0
161162  1  0
162163  1  0
162164  1  0
 11  2  1  0
 23 17  1  0
 61 24  1  0
 85 62  1  0
 95 87  1  0
104100  2  0
112105  1  0
120113  1  0
141124  2  0
152143  1  0
164158  1  0
 10  5  1  0
 22 18  1  0
 33 27  1  0
 40 34  1  0
 60 41  2  0
 84 64  2  0
104 92  1  0
141127  1  0
151146  1  0
163159  1  0
 23  7  1  0
 52 46  1  0
 59 53  1  0
 73 66  1  0
 81 74  1  0
 95 82  1  0
123101  1  0
138130  1  0
164148  1  0
  1165  1  0
  6166  1  0
  9167  1  0
 17168  1  0
 18169  1  0
 19170  1  0
 20171  1  0
 21172  1  0
 22173  1  0
 22174  1  0
 23175  1  0
 28176  1  0
 29177  1  0
 31178  1  0
 31179  1  0
 31180  1  0
 32181  1  0
 33182  1  0
 35183  1  0
 36184  1  0
 38185  1  0
 38186  1  0
 38187  1  0
 39188  1  0
 40189  1  0
 47190  1  0
 48191  1  0
 50192  1  0
 50193  1  0
 50194  1  0
 51195  1  0
 52196  1  0
 54197  1  0
 55198  1  0
 57199  1  0
 57200  1  0
 57201  1  0
 58202  1  0
 59203  1  0
 63204  1  0
 67205  1  0
 68206  1  0
 70207  1  0
 70208  1  0
 71209  1  0
 71210  1  0
 71211  1  0
 72212  1  0
 73213  1  0
 75214  1  0
 76215  1  0
 78216  1  0
 78217  1  0
 79218  1  0
 79219  1  0
 79220  1  0
 80221  1  0
 81222  1  0
 90223  1  0
 90224  1  0
 91225  1  0
 91226  1  0
 91227  1  0
 97228  1  0
 97229  1  0
 98230  1  0
 98231  1  0
 98232  1  0
106233  1  0
107234  1  0
109235  1  0
109236  1  0
110237  1  0
110238  1  0
110239  1  0
111240  1  0
112241  1  0
114242  1  0
115243  1  0
117244  1  0
117245  1  0
118246  1  0
118247  1  0
118248  1  0
119249  1  0
120250  1  0
121251  1  0
132252  1  0
132253  1  0
133254  1  0
133255  1  0
133256  1  0
136257  1  0
136258  1  0
137259  1  0
137260  1  0
137261  1  0
142262  1  0
147263  1  0
150264  1  0
158265  1  0
159266  1  0
160267  1  0
161268  1  0
162269  1  0
163270  1  0
163271  1  0
164272  1  0
M  END

