
     RDKit          3D

253283  0  0  0  0  0  0  0  0999 V2000
    6.3497    4.2684    4.1521 C   0  0  0  0  0  0  0  0  0  0  0  0
    5.6172    5.0245    4.9886 C   0  0  0  0  0  0  0  0  0  0  0  0
    5.2036    4.5607    6.3103 C   0  0  0  0  0  0  0  0  0  0  0  0
    5.7709    3.6592    6.9827 O   0  0  0  0  0  0  0  0  0  0  0  0
    3.9396    5.1963    6.6391 C   0  0  0  0  0  0  0  0  0  0  0  0
    3.0366    4.8287    7.6675 C   0  0  0  0  0  0  0  0  0  0  0  0
    1.8079    5.4603    7.5852 C   0  0  0  0  0  0  0  0  0  0  0  0
    1.4751    6.3912    6.5449 C   0  0  0  0  0  0  0  0  0  0  0  0
    2.3454    6.7439    5.5286 C   0  0  0  0  0  0  0  0  0  0  0  0
    3.6196    6.1270    5.6139 C   0  0  0  0  0  0  0  0  0  0  0  0
    4.7349    6.1674    4.6397 C   0  0  0  0  0  0  0  0  0  0  0  0
    5.0754    7.2210    3.8628 C   0  0  0  0  0  0  0  0  0  0  0  0
    6.3673    7.3030    3.2306 C   0  0  0  0  0  0  0  0  0  0  0  0
    7.4099    7.3612    2.7335 N   0  0  0  0  0  0  0  0  0  0  0  0
    4.2438    8.3920    3.7525 C   0  0  0  0  0  0  0  0  0  0  0  0
    3.5835    9.3378    3.6647 N   0  0  0  0  0  0  0  0  0  0  0  0
    0.0922    6.5370    7.0940 C   0  0  0  0  0  0  0  0  0  0  0  0
   -1.0754    5.8310    6.3437 C   0  0  0  0  0  0  0  0  0  0  0  0
   -0.5762    4.5738    5.6749 C   0  0  0  0  0  0  0  0  0  0  0  0
   -0.2837    3.7124    6.6480 C   0  0  0  0  0  0  0  0  0  0  0  0
   -0.5780    4.4219    7.9479 C   0  0  0  0  0  0  0  0  0  0  0  0
   -1.8029    5.2094    7.5202 C   0  0  0  0  0  0  0  0  0  0  0  0
    0.4301    5.5905    8.1646 C   0  0  0  0  0  0  0  0  0  0  0  0
    6.2046    4.3074    2.6819 C   0  0  0  0  0  0  0  0  0  0  0  0
    4.9838    4.3368    1.9658 C   0  0  0  0  0  0  0  0  0  0  0  0
    3.7099    4.0152    2.5671 N   0  0  0  0  0  0  0  0  0  0  0  0
    2.5162    4.7031    2.1161 C   0  0  0  0  0  0  0  0  0  0  0  0
    1.2660    4.0532    2.0902 C   0  0  0  0  0  0  0  0  0  0  0  0
    0.1255    4.7158    1.6208 C   0  0  0  0  0  0  0  0  0  0  0  0
    0.2183    6.0263    1.1423 C   0  0  0  0  0  0  0  0  0  0  0  0
   -0.9956    6.6975    0.5717 C   0  0  0  0  0  0  0  0  0  0  0  0
    1.4599    6.6782    1.1478 C   0  0  0  0  0  0  0  0  0  0  0  0
    2.5956    6.0230    1.6313 C   0  0  0  0  0  0  0  0  0  0  0  0
    3.6287    2.8536    3.4284 C   0  0  0  0  0  0  0  0  0  0  0  0
    2.8129    2.8655    4.5722 C   0  0  0  0  0  0  0  0  0  0  0  0
    2.8111    1.7813    5.4565 C   0  0  0  0  0  0  0  0  0  0  0  0
    3.6081    0.6552    5.1992 C   0  0  0  0  0  0  0  0  0  0  0  0
    3.6519   -0.4804    6.1810 C   0  0  0  0  0  0  0  0  0  0  0  0
    4.4113    0.6284    4.0512 C   0  0  0  0  0  0  0  0  0  0  0  0
    4.4134    1.7094    3.1680 C   0  0  0  0  0  0  0  0  0  0  0  0
    5.2080    4.1781    0.5972 C   0  0  0  0  0  0  0  0  0  0  0  0
    4.1846    3.7678   -0.6630 S   0  0  0  0  0  0  0  0  0  0  0  0
    5.4218    3.2341   -1.7050 C   0  0  0  0  0  0  0  0  0  0  0  0
    6.6459    3.2944   -1.0120 C   0  0  0  0  0  0  0  0  0  0  0  0
    7.7347    2.3981   -1.2799 N   0  0  0  0  0  0  0  0  0  0  0  0
    7.8436    1.1830   -0.4950 C   0  0  0  0  0  0  0  0  0  0  0  0
    6.6840    0.5098   -0.0538 C   0  0  0  0  0  0  0  0  0  0  0  0
    6.7742   -0.6062    0.7798 C   0  0  0  0  0  0  0  0  0  0  0  0
    8.0275   -1.0896    1.1749 C   0  0  0  0  0  0  0  0  0  0  0  0
    8.1173   -2.2578    2.1118 C   0  0  0  0  0  0  0  0  0  0  0  0
    9.1895   -0.4265    0.7507 C   0  0  0  0  0  0  0  0  0  0  0  0
    9.0987    0.7018   -0.0756 C   0  0  0  0  0  0  0  0  0  0  0  0
    8.7512    2.7977   -2.2223 C   0  0  0  0  0  0  0  0  0  0  0  0
    9.3871    1.8400   -3.0318 C   0  0  0  0  0  0  0  0  0  0  0  0
   10.3763    2.2269   -3.9428 C   0  0  0  0  0  0  0  0  0  0  0  0
   10.7182    3.5771   -4.0848 C   0  0  0  0  0  0  0  0  0  0  0  0
   11.7712    3.9843   -5.0702 C   0  0  0  0  0  0  0  0  0  0  0  0
   10.1027    4.5352   -3.2652 C   0  0  0  0  0  0  0  0  0  0  0  0
    9.1239    4.1506   -2.3451 C   0  0  0  0  0  0  0  0  0  0  0  0
    6.4913    3.8938    0.2439 C   0  0  0  0  0  0  0  0  0  0  0  0
    7.4646    3.9101    1.6134 S   0  0  0  0  0  0  0  0  0  0  0  0
    5.1408    2.3753   -2.8603 C   0  0  0  0  0  0  0  0  0  0  0  0
    5.3796    2.6831   -4.2164 C   0  0  0  0  0  0  0  0  0  0  0  0
    5.8869    3.9787   -4.6841 C   0  0  0  0  0  0  0  0  0  0  0  0
    7.1919    4.0909   -5.1812 C   0  0  0  0  0  0  0  0  0  0  0  0
    7.6499    5.3149   -5.6701 C   0  0  0  0  0  0  0  0  0  0  0  0
    6.7958    6.4242   -5.6967 C   0  0  0  0  0  0  0  0  0  0  0  0
    5.4746    6.3158   -5.2300 C   0  0  0  0  0  0  0  0  0  0  0  0
    4.5424    7.5012   -5.2737 C   0  0  0  0  0  0  0  0  0  0  0  0
    4.4817    8.1986   -3.9191 C   0  0  0  0  0  0  0  0  0  0  0  0
    5.0351    5.0931   -4.7038 C   0  0  0  0  0  0  0  0  0  0  0  0
    4.7238    1.7791   -5.0613 C   0  0  0  0  0  0  0  0  0  0  0  0
    4.2157    1.9170   -6.6884 S   0  0  0  0  0  0  0  0  0  0  0  0
    3.0615    0.6811   -6.5032 C   0  0  0  0  0  0  0  0  0  0  0  0
    1.7954    0.4880   -7.0103 C   0  0  0  0  0  0  0  0  0  0  0  0
    1.2461    0.6447   -8.2914 C   0  0  0  0  0  0  0  0  0  0  0  0
   -0.1319    0.2913   -8.5002 C   0  0  0  0  0  0  0  0  0  0  0  0
   -0.6204    0.4395   -9.7549 N   0  0  0  0  0  0  0  0  0  0  0  0
    0.7464    0.9923  -10.5174 S   0  0  0  0  0  0  0  0  0  0  0  0
    1.9425    1.0797   -9.3725 N   0  0  0  0  0  0  0  0  0  0  0  0
   -0.9084   -0.0609   -7.3838 C   0  0  0  0  0  0  0  0  0  0  0  0
   -2.2639   -0.1689   -7.2082 C   0  0  0  0  0  0  0  0  0  0  0  0
   -3.6947   -0.4777   -8.0748 S   0  0  0  0  0  0  0  0  0  0  0  0
   -4.6203   -0.4535   -6.6323 C   0  0  0  0  0  0  0  0  0  0  0  0
   -5.8969   -0.9284   -6.2901 C   0  0  0  0  0  0  0  0  0  0  0  0
   -6.7208   -1.7247   -7.2072 C   0  0  0  0  0  0  0  0  0  0  0  0
   -7.9429   -1.2261   -7.6802 C   0  0  0  0  0  0  0  0  0  0  0  0
   -8.7416   -2.0116   -8.5155 C   0  0  0  0  0  0  0  0  0  0  0  0
   -8.3349   -3.3025   -8.8603 C   0  0  0  0  0  0  0  0  0  0  0  0
   -7.1184   -3.8145   -8.3797 C   0  0  0  0  0  0  0  0  0  0  0  0
   -6.7231   -5.2378   -8.6771 C   0  0  0  0  0  0  0  0  0  0  0  0
   -7.3993   -6.1979   -7.7056 C   0  0  0  0  0  0  0  0  0  0  0  0
   -6.3165   -3.0221   -7.5479 C   0  0  0  0  0  0  0  0  0  0  0  0
   -6.0986   -0.9118   -4.8932 C   0  0  0  0  0  0  0  0  0  0  0  0
   -4.6720   -0.3780   -4.1368 S   0  0  0  0  0  0  0  0  0  0  0  0
   -3.8296   -0.1636   -5.5545 C   0  0  0  0  0  0  0  0  0  0  0  0
   -2.4879   -0.0898   -5.8770 C   0  0  0  0  0  0  0  0  0  0  0  0
   -1.3549   -0.0320   -5.1415 N   0  0  0  0  0  0  0  0  0  0  0  0
   -0.3684   -0.0770   -6.0891 C   0  0  0  0  0  0  0  0  0  0  0  0
    1.0291    0.0296   -5.9384 C   0  0  0  0  0  0  0  0  0  0  0  0
    1.8017   -0.2026   -4.8433 N   0  0  0  0  0  0  0  0  0  0  0  0
    3.0242    0.2451   -5.2049 C   0  0  0  0  0  0  0  0  0  0  0  0
    3.9885    0.8272   -4.4081 C   0  0  0  0  0  0  0  0  0  0  0  0
    4.0705    1.0626   -2.7564 S   0  0  0  0  0  0  0  0  0  0  0  0
    1.5102   -1.0877   -3.7137 C   0  0  0  0  0  0  0  0  0  0  0  0
    2.5644   -2.1880   -3.5626 C   0  0  0  0  0  0  0  0  0  0  0  0
   -1.2839    0.4668   -3.7605 C   0  0  0  0  0  0  0  0  0  0  0  0
   -1.6602   -0.6183   -2.7393 C   0  0  0  0  0  0  0  0  0  0  0  0
   -6.9572   -1.8390   -4.1523 C   0  0  0  0  0  0  0  0  0  0  0  0
   -6.4126   -3.0634   -3.7723 C   0  0  0  0  0  0  0  0  0  0  0  0
   -6.7531   -3.4567   -2.4694 C   0  0  0  0  0  0  0  0  0  0  0  0
   -6.0903   -4.4492   -1.7207 C   0  0  0  0  0  0  0  0  0  0  0  0
   -4.8110   -5.0396   -2.1880 C   0  0  0  0  0  0  0  0  0  0  0  0
   -3.7142   -4.2989   -2.6304 C   0  0  0  0  0  0  0  0  0  0  0  0
   -2.5654   -5.0669   -2.8456 C   0  0  0  0  0  0  0  0  0  0  0  0
   -2.7528   -6.4093   -2.5399 C   0  0  0  0  0  0  0  0  0  0  0  0
   -1.4768   -7.6666   -2.6155 S   0  0  0  0  0  0  0  0  0  0  0  0
   -0.9652   -7.4959   -0.8662 C   0  0  0  0  0  0  0  0  0  0  0  0
   -0.1549   -6.2258   -0.6259 C   0  0  0  0  0  0  0  0  0  0  0  0
   -4.3381   -6.6499   -2.0294 S   0  0  0  0  0  0  0  0  0  0  0  0
   -6.4974   -4.6049   -0.3870 C   0  0  0  0  0  0  0  0  0  0  0  0
   -7.4625   -3.7839    0.2174 C   0  0  0  0  0  0  0  0  0  0  0  0
   -8.0916   -2.7555   -0.5222 C   0  0  0  0  0  0  0  0  0  0  0  0
   -9.0436   -1.8200    0.1091 C   0  0  0  0  0  0  0  0  0  0  0  0
  -10.1727   -2.1786    0.8452 C   0  0  0  0  0  0  0  0  0  0  0  0
  -10.8879   -1.0797    1.3367 C   0  0  0  0  0  0  0  0  0  0  0  0
  -10.3142    0.1349    0.9972 C   0  0  0  0  0  0  0  0  0  0  0  0
  -10.9698    1.7494    1.4243 S   0  0  0  0  0  0  0  0  0  0  0  0
  -10.0487    1.8880    2.9981 C   0  0  0  0  0  0  0  0  0  0  0  0
   -8.7008    2.5609    2.7782 C   0  0  0  0  0  0  0  0  0  0  0  0
   -8.9321   -0.1374    0.0855 S   0  0  0  0  0  0  0  0  0  0  0  0
   -7.6943   -2.6132   -1.8688 C   0  0  0  0  0  0  0  0  0  0  0  0
   -7.9769   -1.3202   -2.9118 S   0  0  0  0  0  0  0  0  0  0  0  0
   -7.5264   -3.9545    1.6176 C   0  0  0  0  0  0  0  0  0  0  0  0
   -6.6332   -4.9114    2.1045 C   0  0  0  0  0  0  0  0  0  0  0  0
   -5.7385   -5.5005    0.8064 S   0  0  0  0  0  0  0  0  0  0  0  0
   -6.1866   -4.9880    3.5065 C   0  0  0  0  0  0  0  0  0  0  0  0
   -5.4232   -5.9913    3.9895 C   0  0  0  0  0  0  0  0  0  0  0  0
   -5.1877   -7.2707    3.3176 C   0  0  0  0  0  0  0  0  0  0  0  0
   -6.0370   -7.9148    2.6443 O   0  0  0  0  0  0  0  0  0  0  0  0
   -3.8428   -7.7105    3.6031 C   0  0  0  0  0  0  0  0  0  0  0  0
   -3.1337   -8.7591    2.9729 C   0  0  0  0  0  0  0  0  0  0  0  0
   -1.7967   -8.8056    3.3110 C   0  0  0  0  0  0  0  0  0  0  0  0
   -1.1745   -7.8715    4.2037 C   0  0  0  0  0  0  0  0  0  0  0  0
   -1.8670   -6.8483    4.8309 C   0  0  0  0  0  0  0  0  0  0  0  0
   -3.2557   -6.8038    4.5228 C   0  0  0  0  0  0  0  0  0  0  0  0
   -4.2788   -5.8008    4.9263 C   0  0  0  0  0  0  0  0  0  0  0  0
   -4.2503   -5.0071    6.0252 C   0  0  0  0  0  0  0  0  0  0  0  0
   -3.1255   -4.9796    6.9267 C   0  0  0  0  0  0  0  0  0  0  0  0
   -2.2289   -4.9528    7.6598 N   0  0  0  0  0  0  0  0  0  0  0  0
   -5.4002   -4.2405    6.4413 C   0  0  0  0  0  0  0  0  0  0  0  0
   -6.3198   -3.6250    6.7844 N   0  0  0  0  0  0  0  0  0  0  0  0
    0.1552   -8.5390    4.0019 C   0  0  0  0  0  0  0  0  0  0  0  0
    0.7059   -9.4298    5.1573 C   0  0  0  0  0  0  0  0  0  0  0  0
   -0.4411  -10.0345    5.9301 C   0  0  0  0  0  0  0  0  0  0  0  0
   -1.0296  -10.9100    5.1145 C   0  0  0  0  0  0  0  0  0  0  0  0
   -0.2613  -10.8709    3.8114 C   0  0  0  0  0  0  0  0  0  0  0  0
    1.1352  -10.6513    4.3631 C   0  0  0  0  0  0  0  0  0  0  0  0
   -0.4836   -9.5045    3.0987 C   0  0  0  0  0  0  0  0  0  0  0  0
    6.9326    3.4537    4.5665 H   0  0  0  0  0  0  0  0  0  0  0  0
    3.2553    4.0748    8.4126 H   0  0  0  0  0  0  0  0  0  0  0  0
    2.0297    7.3719    4.7125 H   0  0  0  0  0  0  0  0  0  0  0  0
   -0.1464    7.5616    7.4696 H   0  0  0  0  0  0  0  0  0  0  0  0
   -1.6867    6.4900    5.6922 H   0  0  0  0  0  0  0  0  0  0  0  0
   -0.5550    4.3594    4.6079 H   0  0  0  0  0  0  0  0  0  0  0  0
    0.0005    2.6770    6.5152 H   0  0  0  0  0  0  0  0  0  0  0  0
   -0.7171    3.7549    8.8250 H   0  0  0  0  0  0  0  0  0  0  0  0
   -2.6649    4.5654    7.2220 H   0  0  0  0  0  0  0  0  0  0  0  0
   -2.1496    5.9499    8.2826 H   0  0  0  0  0  0  0  0  0  0  0  0
    0.4124    6.0418    9.1789 H   0  0  0  0  0  0  0  0  0  0  0  0
    1.1640    3.0202    2.4015 H   0  0  0  0  0  0  0  0  0  0  0  0
   -0.8228    4.1909    1.6107 H   0  0  0  0  0  0  0  0  0  0  0  0
   -0.8063    7.7716    0.3678 H   0  0  0  0  0  0  0  0  0  0  0  0
   -1.2855    6.2011   -0.3807 H   0  0  0  0  0  0  0  0  0  0  0  0
   -1.8390    6.6197    1.2901 H   0  0  0  0  0  0  0  0  0  0  0  0
    1.5528    7.6806    0.7561 H   0  0  0  0  0  0  0  0  0  0  0  0
    3.5413    6.5437    1.6007 H   0  0  0  0  0  0  0  0  0  0  0  0
    2.2025    3.7308    4.7971 H   0  0  0  0  0  0  0  0  0  0  0  0
    2.2076    1.8275    6.3509 H   0  0  0  0  0  0  0  0  0  0  0  0
    4.4624   -0.2989    6.9169 H   0  0  0  0  0  0  0  0  0  0  0  0
    2.6849   -0.5717    6.7216 H   0  0  0  0  0  0  0  0  0  0  0  0
    3.8450   -1.4407    5.6584 H   0  0  0  0  0  0  0  0  0  0  0  0
    5.0447   -0.2273    3.8493 H   0  0  0  0  0  0  0  0  0  0  0  0
    5.0409    1.6517    2.2910 H   0  0  0  0  0  0  0  0  0  0  0  0
    5.6991    0.8594   -0.3304 H   0  0  0  0  0  0  0  0  0  0  0  0
    5.8661   -1.0851    1.1235 H   0  0  0  0  0  0  0  0  0  0  0  0
    9.0371   -2.8435    1.9109 H   0  0  0  0  0  0  0  0  0  0  0  0
    7.2440   -2.9317    1.9779 H   0  0  0  0  0  0  0  0  0  0  0  0
    8.1329   -1.8941    3.1606 H   0  0  0  0  0  0  0  0  0  0  0  0
   10.1614   -0.7777    1.0634 H   0  0  0  0  0  0  0  0  0  0  0  0
   10.0079    1.2096   -0.3595 H   0  0  0  0  0  0  0  0  0  0  0  0
    9.1215    0.7955   -2.9575 H   0  0  0  0  0  0  0  0  0  0  0  0
   10.8584    1.4737   -4.5493 H   0  0  0  0  0  0  0  0  0  0  0  0
   11.6871    5.0620   -5.3319 H   0  0  0  0  0  0  0  0  0  0  0  0
   12.7761    3.8000   -4.6369 H   0  0  0  0  0  0  0  0  0  0  0  0
   11.6678    3.3955   -6.0068 H   0  0  0  0  0  0  0  0  0  0  0  0
   10.3693    5.5818   -3.3477 H   0  0  0  0  0  0  0  0  0  0  0  0
    8.6627    4.9093   -1.7246 H   0  0  0  0  0  0  0  0  0  0  0  0
    7.8474    3.2315   -5.1913 H   0  0  0  0  0  0  0  0  0  0  0  0
    8.6670    5.4036   -6.0336 H   0  0  0  0  0  0  0  0  0  0  0  0
    7.1653    7.3663   -6.0872 H   0  0  0  0  0  0  0  0  0  0  0  0
    4.8779    8.2283   -6.0441 H   0  0  0  0  0  0  0  0  0  0  0  0
    3.5232    7.1647   -5.5591 H   0  0  0  0  0  0  0  0  0  0  0  0
    3.8642    9.1178   -3.9993 H   0  0  0  0  0  0  0  0  0  0  0  0
    5.5037    8.4875   -3.5867 H   0  0  0  0  0  0  0  0  0  0  0  0
    4.0249    7.5300   -3.1581 H   0  0  0  0  0  0  0  0  0  0  0  0
    4.0180    4.9973   -4.3386 H   0  0  0  0  0  0  0  0  0  0  0  0
   -8.2732   -0.2272   -7.4092 H   0  0  0  0  0  0  0  0  0  0  0  0
   -9.6845   -1.6260   -8.8861 H   0  0  0  0  0  0  0  0  0  0  0  0
   -8.9756   -3.9143   -9.4839 H   0  0  0  0  0  0  0  0  0  0  0  0
   -5.6221   -5.3548   -8.5981 H   0  0  0  0  0  0  0  0  0  0  0  0
   -7.0125   -5.4965   -9.7168 H   0  0  0  0  0  0  0  0  0  0  0  0
   -7.0669   -5.9943   -6.6646 H   0  0  0  0  0  0  0  0  0  0  0  0
   -8.5038   -6.0913   -7.7580 H   0  0  0  0  0  0  0  0  0  0  0  0
   -7.1344   -7.2439   -7.9665 H   0  0  0  0  0  0  0  0  0  0  0  0
   -5.3850   -3.4162   -7.1541 H   0  0  0  0  0  0  0  0  0  0  0  0
    1.4530   -0.5023   -2.7718 H   0  0  0  0  0  0  0  0  0  0  0  0
    0.5442   -1.6047   -3.8887 H   0  0  0  0  0  0  0  0  0  0  0  0
    2.8914   -2.5550   -4.5566 H   0  0  0  0  0  0  0  0  0  0  0  0
    3.4339   -1.8025   -3.0008 H   0  0  0  0  0  0  0  0  0  0  0  0
    2.1367   -3.0362   -2.9879 H   0  0  0  0  0  0  0  0  0  0  0  0
   -0.2813    0.8759   -3.5416 H   0  0  0  0  0  0  0  0  0  0  0  0
   -1.9814    1.3259   -3.6483 H   0  0  0  0  0  0  0  0  0  0  0  0
   -2.5612   -0.3150   -2.1698 H   0  0  0  0  0  0  0  0  0  0  0  0
   -0.8432   -0.7563   -2.0035 H   0  0  0  0  0  0  0  0  0  0  0  0
   -1.8591   -1.5920   -3.2309 H   0  0  0  0  0  0  0  0  0  0  0  0
   -5.6362   -3.5353   -4.3498 H   0  0  0  0  0  0  0  0  0  0  0  0
   -3.7229   -3.2251   -2.7574 H   0  0  0  0  0  0  0  0  0  0  0  0
   -1.6233   -4.6506   -3.1920 H   0  0  0  0  0  0  0  0  0  0  0  0
   -0.3382   -8.3723   -0.6147 H   0  0  0  0  0  0  0  0  0  0  0  0
   -1.8501   -7.5127   -0.1983 H   0  0  0  0  0  0  0  0  0  0  0  0
   -0.8138   -5.3352   -0.6653 H   0  0  0  0  0  0  0  0  0  0  0  0
    0.6459   -6.1237   -1.3872 H   0  0  0  0  0  0  0  0  0  0  0  0
    0.3032   -6.2732    0.3825 H   0  0  0  0  0  0  0  0  0  0  0  0
  -10.4771   -3.2071    1.0120 H   0  0  0  0  0  0  0  0  0  0  0  0
  -11.7987   -1.1756    1.9183 H   0  0  0  0  0  0  0  0  0  0  0  0
  -10.6473    2.5056    3.6988 H   0  0  0  0  0  0  0  0  0  0  0  0
   -9.9031    0.8919    3.4685 H   0  0  0  0  0  0  0  0  0  0  0  0
   -8.0727    1.9497    2.0984 H   0  0  0  0  0  0  0  0  0  0  0  0
   -8.1730    2.6672    3.7494 H   0  0  0  0  0  0  0  0  0  0  0  0
   -8.8442    3.5691    2.3375 H   0  0  0  0  0  0  0  0  0  0  0  0
   -8.1183   -3.3307    2.2784 H   0  0  0  0  0  0  0  0  0  0  0  0
   -6.2541   -4.0610    4.0553 H   0  0  0  0  0  0  0  0  0  0  0  0
   -3.5787   -9.4267    2.2442 H   0  0  0  0  0  0  0  0  0  0  0  0
   -1.3514   -6.1248    5.4373 H   0  0  0  0  0  0  0  0  0  0  0  0
    0.9127   -7.8944    3.4988 H   0  0  0  0  0  0  0  0  0  0  0  0
    1.4976   -8.9587    5.7787 H   0  0  0  0  0  0  0  0  0  0  0  0
   -0.7024   -9.8573    6.9714 H   0  0  0  0  0  0  0  0  0  0  0  0
   -1.8516  -11.5721    5.3702 H   0  0  0  0  0  0  0  0  0  0  0  0
   -0.3810  -11.7658    3.1715 H   0  0  0  0  0  0  0  0  0  0  0  0
    1.5003  -11.4901    5.0012 H   0  0  0  0  0  0  0  0  0  0  0  0
    1.8908  -10.4290    3.5732 H   0  0  0  0  0  0  0  0  0  0  0  0
   -0.1042   -9.4539    2.0567 H   0  0  0  0  0  0  0  0  0  0  0  0
  1  2  2  3
  2  3  1  0
  3  4  2  0
  3  5  1  0
  5  6  2  0
  6  7  1  0
  7  8  2  0
  8  9  1  0
  9 10  2  0
 10 11  1  0
 11 12  2  3
 12 13  1  0
 13 14  3  0
 12 15  1  0
 15 16  3  0
  8 17  1  0
 17 18  1  0
 18 19  1  0
 19 20  2  0
 20 21  1  0
 21 22  1  0
 21 23  1  0
  1 24  1  0
 24 25  2  0
 25 26  1  0
 26 27  1  0
 27 28  2  0
 28 29  1  0
 29 30  2  0
 30 31  1  0
 30 32  1  0
 32 33  2  0
 26 34  1  0
 34 35  2  0
 35 36  1  0
 36 37  2  0
 37 38  1  0
 37 39  1  0
 39 40  2  0
 25 41  1  0
 41 42  1  0
 42 43  1  0
 43 44  2  0
 44 45  1  0
 45 46  1  0
 46 47  2  0
 47 48  1  0
 48 49  2  0
 49 50  1  0
 49 51  1  0
 51 52  2  0
 45 53  1  0
 53 54  2  0
 54 55  1  0
 55 56  2  0
 56 57  1  0
 56 58  1  0
 58 59  2  0
 44 60  1  0
 60 61  1  0
 43 62  1  0
 62 63  2  0
 63 64  1  0
 64 65  2  0
 65 66  1  0
 66 67  2  0
 67 68  1  0
 68 69  1  0
 69 70  1  0
 68 71  2  0
 63 72  1  0
 72 73  1  0
 73 74  1  0
 74 75  1  0
 75 76  1  0
 76 77  1  0
 77 78  2  0
 78 79  1  0
 79 80  1  0
 77 81  1  0
 81 82  1  0
 82 83  1  0
 83 84  1  0
 84 85  1  0
 85 86  1  0
 86 87  2  0
 87 88  1  0
 88 89  2  0
 89 90  1  0
 90 91  1  0
 91 92  1  0
 90 93  2  0
 85 94  2  0
 94 95  1  0
 95 96  1  0
 96 97  1  0
 97 98  1  0
 98 99  1  0
 99100  1  0
100101  1  0
101102  1  0
102103  1  0
103104  1  0
101105  1  0
105106  1  0
 98107  1  0
107108  1  0
 94109  1  0
109110  2  0
110111  1  0
111112  2  0
112113  1  0
113114  2  0
114115  1  0
115116  2  0
116117  1  0
117118  1  0
118119  1  0
116120  1  0
112121  1  0
121122  2  0
122123  1  0
123124  1  0
124125  2  0
125126  1  0
126127  2  0
127128  1  0
128129  1  0
129130  1  0
127131  1  0
123132  2  0
132133  1  0
122134  1  0
134135  2  0
135136  1  0
135137  1  0
137138  2  3
138139  1  0
139140  2  0
139141  1  0
141142  2  0
142143  1  0
143144  2  0
144145  1  0
145146  2  0
146147  1  0
147148  2  3
148149  1  0
149150  3  0
148151  1  0
151152  3  0
144153  1  0
153154  1  0
154155  1  0
155156  2  0
156157  1  0
157158  1  0
157159  1  0
 11  2  1  0
 23 17  1  0
 61 24  1  0
104 62  1  0
133109  1  0
147138  1  0
159153  1  0
 10  5  1  0
 22 18  1  0
 33 27  1  0
 40 34  1  0
 60 41  2  0
 71 64  1  0
103 72  2  0
132111  1  0
146141  1  0
158154  1  0
 23  7  1  0
 52 46  1  0
 59 53  1  0
102 74  2  0
120113  1  0
136121  1  0
159143  1  0
100 75  2  0
131124  1  0
 80 76  2  0
 99 81  2  0
 97 82  2  0
 96 84  2  0
 93 86  1  0
  1160  1  0
  6161  1  0
  9162  1  0
 17163  1  0
 18164  1  0
 19165  1  0
 20166  1  0
 21167  1  0
 22168  1  0
 22169  1  0
 23170  1  0
 28171  1  0
 29172  1  0
 31173  1  0
 31174  1  0
 31175  1  0
 32176  1  0
 33177  1  0
 35178  1  0
 36179  1  0
 38180  1  0
 38181  1  0
 38182  1  0
 39183  1  0
 40184  1  0
 47185  1  0
 48186  1  0
 50187  1  0
 50188  1  0
 50189  1  0
 51190  1  0
 52191  1  0
 54192  1  0
 55193  1  0
 57194  1  0
 57195  1  0
 57196  1  0
 58197  1  0
 59198  1  0
 65199  1  0
 66200  1  0
 67201  1  0
 69202  1  0
 69203  1  0
 70204  1  0
 70205  1  0
 70206  1  0
 71207  1  0
 87208  1  0
 88209  1  0
 89210  1  0
 91211  1  0
 91212  1  0
 92213  1  0
 92214  1  0
 92215  1  0
 93216  1  0
105217  1  0
105218  1  0
106219  1  0
106220  1  0
106221  1  0
107222  1  0
107223  1  0
108224  1  0
108225  1  0
108226  1  0
110227  1  0
114228  1  0
115229  1  0
118230  1  0
118231  1  0
119232  1  0
119233  1  0
119234  1  0
125235  1  0
126236  1  0
129237  1  0
129238  1  0
130239  1  0
130240  1  0
130241  1  0
134242  1  0
137243  1  0
142244  1  0
145245  1  0
153246  1  0
154247  1  0
155248  1  0
156249  1  0
157250  1  0
158251  1  0
158252  1  0
159253  1  0
M  END

