
     RDKit          3D

281311  0  0  0  0  0  0  0  0999 V2000
   -2.2184   -8.2196   -7.0371 C   0  0  0  0  0  0  0  0  0  0  0  0
   -3.3674   -8.1231   -6.3401 C   0  0  0  0  0  0  0  0  0  0  0  0
   -3.4357   -8.0961   -4.8790 C   0  0  0  0  0  0  0  0  0  0  0  0
   -2.4691   -8.2742   -4.0980 O   0  0  0  0  0  0  0  0  0  0  0  0
   -4.8198   -7.9592   -4.4765 C   0  0  0  0  0  0  0  0  0  0  0  0
   -5.3215   -7.8486   -3.1497 C   0  0  0  0  0  0  0  0  0  0  0  0
   -6.6745   -7.6102   -3.0706 C   0  0  0  0  0  0  0  0  0  0  0  0
   -7.5102   -7.4986   -4.2304 C   0  0  0  0  0  0  0  0  0  0  0  0
   -7.0361   -7.6305   -5.5212 C   0  0  0  0  0  0  0  0  0  0  0  0
   -5.6383   -7.9142   -5.6323 C   0  0  0  0  0  0  0  0  0  0  0  0
   -4.7839   -8.0671   -6.8542 C   0  0  0  0  0  0  0  0  0  0  0  0
   -5.1989   -8.0410   -8.1503 C   0  0  0  0  0  0  0  0  0  0  0  0
   -4.2847   -8.0012   -9.2635 C   0  0  0  0  0  0  0  0  0  0  0  0
   -3.5751   -7.9726  -10.1732 N   0  0  0  0  0  0  0  0  0  0  0  0
   -6.5860   -8.0386   -8.5395 C   0  0  0  0  0  0  0  0  0  0  0  0
   -7.6968   -8.0248   -8.8640 N   0  0  0  0  0  0  0  0  0  0  0  0
   -8.7156   -7.3034   -3.3695 C   0  0  0  0  0  0  0  0  0  0  0  0
   -9.3128   -5.8739   -3.2658 C   0  0  0  0  0  0  0  0  0  0  0  0
   -8.2192   -4.8246   -3.3503 C   0  0  0  0  0  0  0  0  0  0  0  0
   -7.5000   -4.9361   -2.2300 C   0  0  0  0  0  0  0  0  0  0  0  0
   -8.1024   -6.0718   -1.4404 C   0  0  0  0  0  0  0  0  0  0  0  0
   -9.5680   -5.8256   -1.7636 C   0  0  0  0  0  0  0  0  0  0  0  0
   -7.8776   -7.4281   -2.1794 C   0  0  0  0  0  0  0  0  0  0  0  0
   -1.0529   -7.3649   -6.7222 C   0  0  0  0  0  0  0  0  0  0  0  0
   -1.0525   -5.9711   -6.9423 C   0  0  0  0  0  0  0  0  0  0  0  0
   -2.0405   -5.1028   -6.3444 N   0  0  0  0  0  0  0  0  0  0  0  0
   -2.7073   -4.0714   -7.0983 C   0  0  0  0  0  0  0  0  0  0  0  0
   -2.3491   -2.7232   -6.9000 C   0  0  0  0  0  0  0  0  0  0  0  0
   -3.2600   -1.6915   -7.1679 C   0  0  0  0  0  0  0  0  0  0  0  0
   -4.5563   -2.0116   -7.5809 C   0  0  0  0  0  0  0  0  0  0  0  0
   -5.6117   -0.9533   -7.6217 C   0  0  0  0  0  0  0  0  0  0  0  0
   -4.8692   -3.3461   -7.9109 C   0  0  0  0  0  0  0  0  0  0  0  0
   -3.9451   -4.3711   -7.6788 C   0  0  0  0  0  0  0  0  0  0  0  0
   -2.2555   -5.1417   -4.9084 C   0  0  0  0  0  0  0  0  0  0  0  0
   -3.5145   -4.8291   -4.3731 C   0  0  0  0  0  0  0  0  0  0  0  0
   -3.7654   -4.9909   -3.0081 C   0  0  0  0  0  0  0  0  0  0  0  0
   -2.7643   -5.4508   -2.1538 C   0  0  0  0  0  0  0  0  0  0  0  0
   -3.0981   -5.8116   -0.7317 C   0  0  0  0  0  0  0  0  0  0  0  0
   -1.4752   -5.6866   -2.6598 C   0  0  0  0  0  0  0  0  0  0  0  0
   -1.2130   -5.5104   -4.0248 C   0  0  0  0  0  0  0  0  0  0  0  0
    0.2530   -5.5195   -7.0803 C   0  0  0  0  0  0  0  0  0  0  0  0
    0.8224   -3.9833   -7.0141 S   0  0  0  0  0  0  0  0  0  0  0  0
    2.3529   -4.3424   -6.3782 C   0  0  0  0  0  0  0  0  0  0  0  0
    2.4482   -5.7522   -6.2979 C   0  0  0  0  0  0  0  0  0  0  0  0
    3.5459   -6.4596   -5.6911 N   0  0  0  0  0  0  0  0  0  0  0  0
    3.2675   -7.1531   -4.4651 C   0  0  0  0  0  0  0  0  0  0  0  0
    3.1299   -8.5541   -4.4485 C   0  0  0  0  0  0  0  0  0  0  0  0
    2.8007   -9.2189   -3.2715 C   0  0  0  0  0  0  0  0  0  0  0  0
    2.6179   -8.4990   -2.0763 C   0  0  0  0  0  0  0  0  0  0  0  0
    2.2739   -9.2326   -0.8143 C   0  0  0  0  0  0  0  0  0  0  0  0
    2.7309   -7.1000   -2.0950 C   0  0  0  0  0  0  0  0  0  0  0  0
    3.0354   -6.4328   -3.2801 C   0  0  0  0  0  0  0  0  0  0  0  0
    4.8442   -6.5433   -6.3498 C   0  0  0  0  0  0  0  0  0  0  0  0
    5.1433   -5.7335   -7.4717 C   0  0  0  0  0  0  0  0  0  0  0  0
    6.3765   -5.8336   -8.1234 C   0  0  0  0  0  0  0  0  0  0  0  0
    7.3322   -6.7542   -7.6742 C   0  0  0  0  0  0  0  0  0  0  0  0
    8.5924   -6.9714   -8.4562 C   0  0  0  0  0  0  0  0  0  0  0  0
    7.0558   -7.5518   -6.5524 C   0  0  0  0  0  0  0  0  0  0  0  0
    5.8382   -7.4229   -5.8772 C   0  0  0  0  0  0  0  0  0  0  0  0
    1.2432   -6.3792   -6.7275 C   0  0  0  0  0  0  0  0  0  0  0  0
    0.5558   -7.9098   -6.5261 S   0  0  0  0  0  0  0  0  0  0  0  0
    3.0362   -3.2708   -5.6217 C   0  0  0  0  0  0  0  0  0  0  0  0
    4.2302   -3.2416   -4.8622 C   0  0  0  0  0  0  0  0  0  0  0  0
    4.3150   -2.0388   -4.1026 C   0  0  0  0  0  0  0  0  0  0  0  0
    5.2418   -1.4435   -2.7847 S   0  0  0  0  0  0  0  0  0  0  0  0
    4.1872   -0.1220   -2.5002 C   0  0  0  0  0  0  0  0  0  0  0  0
    3.8129    0.7271   -1.3728 C   0  0  0  0  0  0  0  0  0  0  0  0
    4.5515    1.2651   -0.2957 C   0  0  0  0  0  0  0  0  0  0  0  0
    3.8225    2.0064    0.6721 C   0  0  0  0  0  0  0  0  0  0  0  0
    4.2919    2.7057    1.9723 C   0  0  0  0  0  0  0  0  0  0  0  0
    5.2688    3.8578    1.7603 C   0  0  0  0  0  0  0  0  0  0  0  0
    5.8532    4.4526    2.8813 C   0  0  0  0  0  0  0  0  0  0  0  0
    6.7960    5.4749    2.7531 C   0  0  0  0  0  0  0  0  0  0  0  0
    7.1844    5.9182    1.4848 C   0  0  0  0  0  0  0  0  0  0  0  0
    8.2006    7.0266    1.3637 C   0  0  0  0  0  0  0  0  0  0  0  0
    9.6114    6.5263    1.6704 C   0  0  0  0  0  0  0  0  0  0  0  0
    6.6302    5.3120    0.3479 C   0  0  0  0  0  0  0  0  0  0  0  0
    5.6662    4.3048    0.4811 C   0  0  0  0  0  0  0  0  0  0  0  0
    4.9123    1.5790    2.8246 C   0  0  0  0  0  0  0  0  0  0  0  0
    4.1162    0.7463    3.6317 C   0  0  0  0  0  0  0  0  0  0  0  0
    4.6204   -0.4551    4.1416 C   0  0  0  0  0  0  0  0  0  0  0  0
    5.9273   -0.8619    3.8487 C   0  0  0  0  0  0  0  0  0  0  0  0
    6.4494   -2.1895    4.3249 C   0  0  0  0  0  0  0  0  0  0  0  0
    7.1830   -2.0290    5.6474 C   0  0  0  0  0  0  0  0  0  0  0  0
    6.7541   -0.0044    3.1038 C   0  0  0  0  0  0  0  0  0  0  0  0
    6.2495    1.1849    2.5834 C   0  0  0  0  0  0  0  0  0  0  0  0
    2.9285    3.2067    2.5090 C   0  0  0  0  0  0  0  0  0  0  0  0
    1.9376    2.6159    1.7822 C   0  0  0  0  0  0  0  0  0  0  0  0
    2.4436    2.0226    0.6024 C   0  0  0  0  0  0  0  0  0  0  0  0
    1.7292    1.6535   -0.5254 C   0  0  0  0  0  0  0  0  0  0  0  0
    2.4481    1.0193   -1.5385 C   0  0  0  0  0  0  0  0  0  0  0  0
    1.8512    0.3942   -2.7811 C   0  0  0  0  0  0  0  0  0  0  0  0
    1.3710    1.4153   -3.8239 C   0  0  0  0  0  0  0  0  0  0  0  0
    1.9262    2.7099   -3.8902 C   0  0  0  0  0  0  0  0  0  0  0  0
    1.6551    3.5426   -4.9845 C   0  0  0  0  0  0  0  0  0  0  0  0
    0.8208    3.1086   -6.0319 C   0  0  0  0  0  0  0  0  0  0  0  0
    0.5688    3.9781   -7.2358 C   0  0  0  0  0  0  0  0  0  0  0  0
    1.0654    3.3076   -8.5190 C   0  0  0  0  0  0  0  0  0  0  0  0
    0.2281    1.8403   -5.9341 C   0  0  0  0  0  0  0  0  0  0  0  0
    0.5183    0.9994   -4.8656 C   0  0  0  0  0  0  0  0  0  0  0  0
    0.7720   -0.5909   -2.2868 C   0  0  0  0  0  0  0  0  0  0  0  0
    1.1461   -1.8048   -1.6656 C   0  0  0  0  0  0  0  0  0  0  0  0
    0.2470   -2.4929   -0.8461 C   0  0  0  0  0  0  0  0  0  0  0  0
   -1.0452   -1.9918   -0.6125 C   0  0  0  0  0  0  0  0  0  0  0  0
   -1.8610   -2.5641    0.5294 C   0  0  0  0  0  0  0  0  0  0  0  0
   -3.3721   -2.4196    0.3688 C   0  0  0  0  0  0  0  0  0  0  0  0
   -1.4535   -0.8402   -1.3011 C   0  0  0  0  0  0  0  0  0  0  0  0
   -0.5596   -0.1523   -2.1273 C   0  0  0  0  0  0  0  0  0  0  0  0
    3.0950   -0.2476   -3.3111 C   0  0  0  0  0  0  0  0  0  0  0  0
    3.2300   -1.2380   -4.2422 C   0  0  0  0  0  0  0  0  0  0  0  0
    2.1527   -1.8704   -5.2917 S   0  0  0  0  0  0  0  0  0  0  0  0
    0.4039    2.7969    2.3874 S   0  0  0  0  0  0  0  0  0  0  0  0
    1.0004    3.7294    3.6520 C   0  0  0  0  0  0  0  0  0  0  0  0
    0.3266    4.8355    4.2117 C   0  0  0  0  0  0  0  0  0  0  0  0
    1.1454    5.8862    4.3071 C   0  0  0  0  0  0  0  0  0  0  0  0
    2.5939    5.4992    3.9790 C   0  0  0  0  0  0  0  0  0  0  0  0
    2.3664    4.0221    3.5287 C   0  0  0  0  0  0  0  0  0  0  0  0
    3.0567    6.4735    2.8771 C   0  0  0  0  0  0  0  0  0  0  0  0
    3.3616    7.8133    3.2171 C   0  0  0  0  0  0  0  0  0  0  0  0
    3.7978    8.7233    2.2502 C   0  0  0  0  0  0  0  0  0  0  0  0
    3.8529    8.3557    0.9002 C   0  0  0  0  0  0  0  0  0  0  0  0
    4.3996    9.3212   -0.1200 C   0  0  0  0  0  0  0  0  0  0  0  0
    5.9172    9.1613   -0.2526 C   0  0  0  0  0  0  0  0  0  0  0  0
    3.4316    7.0718    0.5311 C   0  0  0  0  0  0  0  0  0  0  0  0
    2.9903    6.1606    1.5040 C   0  0  0  0  0  0  0  0  0  0  0  0
    3.4030    5.5468    5.2990 C   0  0  0  0  0  0  0  0  0  0  0  0
    2.8603    4.9939    6.4822 C   0  0  0  0  0  0  0  0  0  0  0  0
    3.4847    5.1859    7.7113 C   0  0  0  0  0  0  0  0  0  0  0  0
    4.6754    5.9008    7.8052 C   0  0  0  0  0  0  0  0  0  0  0  0
    5.2622    6.2564    9.1546 C   0  0  0  0  0  0  0  0  0  0  0  0
    4.5097    7.4337    9.7687 C   0  0  0  0  0  0  0  0  0  0  0  0
    5.2757    6.3845    6.6332 C   0  0  0  0  0  0  0  0  0  0  0  0
    4.6546    6.1893    5.3988 C   0  0  0  0  0  0  0  0  0  0  0  0
    0.4789    7.0724    4.6699 C   0  0  0  0  0  0  0  0  0  0  0  0
   -0.8895    6.8328    4.8429 C   0  0  0  0  0  0  0  0  0  0  0  0
   -1.2656    5.2184    4.5075 S   0  0  0  0  0  0  0  0  0  0  0  0
   -1.9186    7.7633    5.3248 C   0  0  0  0  0  0  0  0  0  0  0  0
   -2.6965    8.5587    4.4905 C   0  0  0  0  0  0  0  0  0  0  0  0
   -4.0071    8.7782    4.9705 C   0  0  0  0  0  0  0  0  0  0  0  0
   -5.1875    9.8284    4.0983 S   0  0  0  0  0  0  0  0  0  0  0  0
   -6.1593    8.5176    3.2573 C   0  0  0  0  0  0  0  0  0  0  0  0
   -5.3707    7.8066    2.1601 C   0  0  0  0  0  0  0  0  0  0  0  0
   -4.2670    8.1315    6.1849 C   0  0  0  0  0  0  0  0  0  0  0  0
   -2.8661    7.3475    6.6405 S   0  0  0  0  0  0  0  0  0  0  0  0
   -5.5763    7.6423    6.6564 C   0  0  0  0  0  0  0  0  0  0  0  0
   -5.8713    6.3393    6.4728 C   0  0  0  0  0  0  0  0  0  0  0  0
   -5.3058    5.4535    5.4577 C   0  0  0  0  0  0  0  0  0  0  0  0
   -4.6875    5.8149    4.4202 O   0  0  0  0  0  0  0  0  0  0  0  0
   -5.4793    4.0671    5.8689 C   0  0  0  0  0  0  0  0  0  0  0  0
   -4.7135    2.9857    5.4069 C   0  0  0  0  0  0  0  0  0  0  0  0
   -4.6332    1.9426    6.3092 C   0  0  0  0  0  0  0  0  0  0  0  0
   -5.2872    1.9407    7.5780 C   0  0  0  0  0  0  0  0  0  0  0  0
   -6.1131    2.9719    7.9983 C   0  0  0  0  0  0  0  0  0  0  0  0
   -6.2252    4.0571    7.0674 C   0  0  0  0  0  0  0  0  0  0  0  0
   -6.5817    5.4459    7.4264 C   0  0  0  0  0  0  0  0  0  0  0  0
   -7.4370    5.8252    8.3741 C   0  0  0  0  0  0  0  0  0  0  0  0
   -8.5544    4.9682    8.7143 C   0  0  0  0  0  0  0  0  0  0  0  0
   -9.4657    4.2790    8.9526 N   0  0  0  0  0  0  0  0  0  0  0  0
   -6.9255    6.6745    9.4409 C   0  0  0  0  0  0  0  0  0  0  0  0
   -6.4944    7.3063   10.3269 N   0  0  0  0  0  0  0  0  0  0  0  0
   -4.5283    0.7112    7.9804 C   0  0  0  0  0  0  0  0  0  0  0  0
   -5.2857   -0.6541    8.0187 C   0  0  0  0  0  0  0  0  0  0  0  0
   -6.3894   -0.6482    6.9933 C   0  0  0  0  0  0  0  0  0  0  0  0
   -5.7969   -0.6524    5.7996 C   0  0  0  0  0  0  0  0  0  0  0  0
   -4.3075   -0.6550    6.0514 C   0  0  0  0  0  0  0  0  0  0  0  0
   -4.2813   -1.5289    7.2970 C   0  0  0  0  0  0  0  0  0  0  0  0
   -3.8664    0.7057    6.6671 C   0  0  0  0  0  0  0  0  0  0  0  0
   -2.2154   -8.5964   -8.0403 H   0  0  0  0  0  0  0  0  0  0  0  0
   -4.6931   -7.9352   -2.2753 H   0  0  0  0  0  0  0  0  0  0  0  0
   -7.7078   -7.5202   -6.3483 H   0  0  0  0  0  0  0  0  0  0  0  0
   -9.4726   -8.1172   -3.4661 H   0  0  0  0  0  0  0  0  0  0  0  0
  -10.2026   -5.6781   -3.8983 H   0  0  0  0  0  0  0  0  0  0  0  0
   -8.1503   -4.0225   -4.0713 H   0  0  0  0  0  0  0  0  0  0  0  0
   -6.7826   -4.2071   -1.8764 H   0  0  0  0  0  0  0  0  0  0  0  0
   -7.8499   -6.0611   -0.3585 H   0  0  0  0  0  0  0  0  0  0  0  0
  -10.2493   -6.6358   -1.4015 H   0  0  0  0  0  0  0  0  0  0  0  0
   -9.9521   -4.8392   -1.4157 H   0  0  0  0  0  0  0  0  0  0  0  0
   -8.1234   -8.3268   -1.5606 H   0  0  0  0  0  0  0  0  0  0  0  0
   -1.4190   -2.4733   -6.4163 H   0  0  0  0  0  0  0  0  0  0  0  0
   -2.9863   -0.6673   -6.9477 H   0  0  0  0  0  0  0  0  0  0  0  0
   -6.1715   -0.9802   -6.6621 H   0  0  0  0  0  0  0  0  0  0  0  0
   -5.1771    0.0670   -7.7115 H   0  0  0  0  0  0  0  0  0  0  0  0
   -6.3135   -1.1172   -8.4672 H   0  0  0  0  0  0  0  0  0  0  0  0
   -5.8761   -3.6118   -8.1995 H   0  0  0  0  0  0  0  0  0  0  0  0
   -4.2443   -5.4023   -7.8014 H   0  0  0  0  0  0  0  0  0  0  0  0
   -4.3372   -4.5341   -5.0086 H   0  0  0  0  0  0  0  0  0  0  0  0
   -4.7606   -4.7992   -2.6420 H   0  0  0  0  0  0  0  0  0  0  0  0
   -3.4361   -6.8690   -0.6763 H   0  0  0  0  0  0  0  0  0  0  0  0
   -2.2166   -5.7056   -0.0728 H   0  0  0  0  0  0  0  0  0  0  0  0
   -3.9188   -5.1695   -0.3533 H   0  0  0  0  0  0  0  0  0  0  0  0
   -0.6810   -6.0251   -2.0038 H   0  0  0  0  0  0  0  0  0  0  0  0
   -0.2152   -5.7076   -4.3826 H   0  0  0  0  0  0  0  0  0  0  0  0
    3.2847   -9.1118   -5.3643 H   0  0  0  0  0  0  0  0  0  0  0  0
    2.7227  -10.3026   -3.2763 H   0  0  0  0  0  0  0  0  0  0  0  0
    1.2095   -9.5577   -0.8563 H   0  0  0  0  0  0  0  0  0  0  0  0
    2.4178   -8.5808    0.0735 H   0  0  0  0  0  0  0  0  0  0  0  0
    2.9260  -10.1252   -0.6984 H   0  0  0  0  0  0  0  0  0  0  0  0
    2.5823   -6.5317   -1.1822 H   0  0  0  0  0  0  0  0  0  0  0  0
    3.1076   -5.3489   -3.2765 H   0  0  0  0  0  0  0  0  0  0  0  0
    4.4089   -5.0518   -7.8824 H   0  0  0  0  0  0  0  0  0  0  0  0
    6.5649   -5.2271   -9.0072 H   0  0  0  0  0  0  0  0  0  0  0  0
    8.3880   -7.6048   -9.3490 H   0  0  0  0  0  0  0  0  0  0  0  0
    9.3742   -7.4528   -7.8369 H   0  0  0  0  0  0  0  0  0  0  0  0
    9.0053   -5.9958   -8.8059 H   0  0  0  0  0  0  0  0  0  0  0  0
    7.7872   -8.2852   -6.2235 H   0  0  0  0  0  0  0  0  0  0  0  0
    5.6674   -8.0792   -5.0362 H   0  0  0  0  0  0  0  0  0  0  0  0
    4.9425   -4.0422   -4.7888 H   0  0  0  0  0  0  0  0  0  0  0  0
    5.6185    1.1191   -0.2256 H   0  0  0  0  0  0  0  0  0  0  0  0
    5.5896    4.1081    3.8723 H   0  0  0  0  0  0  0  0  0  0  0  0
    7.2402    5.9090    3.6427 H   0  0  0  0  0  0  0  0  0  0  0  0
    8.2017    7.4642    0.3363 H   0  0  0  0  0  0  0  0  0  0  0  0
    7.9367    7.8383    2.0814 H   0  0  0  0  0  0  0  0  0  0  0  0
   10.2898    7.4015    1.7612 H   0  0  0  0  0  0  0  0  0  0  0  0
    9.9743    5.8839    0.8434 H   0  0  0  0  0  0  0  0  0  0  0  0
    9.6358    5.9735    2.6345 H   0  0  0  0  0  0  0  0  0  0  0  0
    6.9430    5.6228   -0.6493 H   0  0  0  0  0  0  0  0  0  0  0  0
    5.2655    3.8646   -0.4214 H   0  0  0  0  0  0  0  0  0  0  0  0
    3.0766    0.9759    3.8121 H   0  0  0  0  0  0  0  0  0  0  0  0
    3.9637   -1.0957    4.7189 H   0  0  0  0  0  0  0  0  0  0  0  0
    5.6133   -2.9170    4.4367 H   0  0  0  0  0  0  0  0  0  0  0  0
    7.1585   -2.5994    3.5687 H   0  0  0  0  0  0  0  0  0  0  0  0
    6.4728   -1.7134    6.4369 H   0  0  0  0  0  0  0  0  0  0  0  0
    7.6343   -2.9992    5.9401 H   0  0  0  0  0  0  0  0  0  0  0  0
    7.9887   -1.2775    5.5468 H   0  0  0  0  0  0  0  0  0  0  0  0
    7.7789   -0.2930    2.8786 H   0  0  0  0  0  0  0  0  0  0  0  0
    6.8971    1.7760    1.9387 H   0  0  0  0  0  0  0  0  0  0  0  0
    0.6635    1.8060   -0.5986 H   0  0  0  0  0  0  0  0  0  0  0  0
    2.6000    3.0759   -3.1276 H   0  0  0  0  0  0  0  0  0  0  0  0
    2.1194    4.5207   -5.0301 H   0  0  0  0  0  0  0  0  0  0  0  0
    1.0932    4.9511   -7.1173 H   0  0  0  0  0  0  0  0  0  0  0  0
   -0.5265    4.1759   -7.3128 H   0  0  0  0  0  0  0  0  0  0  0  0
    0.9843    4.0246   -9.3599 H   0  0  0  0  0  0  0  0  0  0  0  0
    0.4381    2.4186   -8.7647 H   0  0  0  0  0  0  0  0  0  0  0  0
    2.1286    2.9909   -8.4173 H   0  0  0  0  0  0  0  0  0  0  0  0
   -0.4505    1.4865   -6.7061 H   0  0  0  0  0  0  0  0  0  0  0  0
    0.0787    0.0096   -4.8497 H   0  0  0  0  0  0  0  0  0  0  0  0
    2.1640   -2.1601   -1.7213 H   0  0  0  0  0  0  0  0  0  0  0  0
    0.5896   -3.3685   -0.3116 H   0  0  0  0  0  0  0  0  0  0  0  0
   -1.6201   -3.6431    0.6424 H   0  0  0  0  0  0  0  0  0  0  0  0
   -1.5439   -2.0699    1.4627 H   0  0  0  0  0  0  0  0  0  0  0  0
   -3.6975   -2.7246   -0.6465 H   0  0  0  0  0  0  0  0  0  0  0  0
   -3.6790   -1.3659    0.5606 H   0  0  0  0  0  0  0  0  0  0  0  0
   -3.8813   -3.0512    1.1211 H   0  0  0  0  0  0  0  0  0  0  0  0
   -2.4350   -0.4152   -1.1452 H   0  0  0  0  0  0  0  0  0  0  0  0
   -0.8895    0.7936   -2.5435 H   0  0  0  0  0  0  0  0  0  0  0  0
    3.2980    8.1617    4.2348 H   0  0  0  0  0  0  0  0  0  0  0  0
    4.0895    9.7187    2.5657 H   0  0  0  0  0  0  0  0  0  0  0  0
    4.1681   10.3692    0.1748 H   0  0  0  0  0  0  0  0  0  0  0  0
    3.9294    9.1343   -1.1168 H   0  0  0  0  0  0  0  0  0  0  0  0
    6.3945    9.2017    0.7466 H   0  0  0  0  0  0  0  0  0  0  0  0
    6.3327    9.9684   -0.8971 H   0  0  0  0  0  0  0  0  0  0  0  0
    6.1579    8.1869   -0.7261 H   0  0  0  0  0  0  0  0  0  0  0  0
    3.4332    6.7812   -0.5062 H   0  0  0  0  0  0  0  0  0  0  0  0
    2.5944    5.2288    1.1471 H   0  0  0  0  0  0  0  0  0  0  0  0
    1.9113    4.4716    6.4662 H   0  0  0  0  0  0  0  0  0  0  0  0
    2.9940    4.8393    8.6170 H   0  0  0  0  0  0  0  0  0  0  0  0
    5.2007    5.3811    9.8270 H   0  0  0  0  0  0  0  0  0  0  0  0
    6.3384    6.5275    9.0456 H   0  0  0  0  0  0  0  0  0  0  0  0
    3.4556    7.1427    9.9939 H   0  0  0  0  0  0  0  0  0  0  0  0
    4.5083    8.3008    9.0662 H   0  0  0  0  0  0  0  0  0  0  0  0
    5.0085    7.7338   10.7266 H   0  0  0  0  0  0  0  0  0  0  0  0
    6.1938    6.9585    6.6812 H   0  0  0  0  0  0  0  0  0  0  0  0
    5.1426    6.6077    4.5281 H   0  0  0  0  0  0  0  0  0  0  0  0
    0.9571    8.0298    4.8321 H   0  0  0  0  0  0  0  0  0  0  0  0
   -2.3622    8.9098    3.5213 H   0  0  0  0  0  0  0  0  0  0  0  0
   -7.0668    8.9813    2.8182 H   0  0  0  0  0  0  0  0  0  0  0  0
   -6.5000    7.7851    4.0150 H   0  0  0  0  0  0  0  0  0  0  0  0
   -5.6721    6.7387    2.1157 H   0  0  0  0  0  0  0  0  0  0  0  0
   -5.5856    8.2831    1.1742 H   0  0  0  0  0  0  0  0  0  0  0  0
   -4.2828    7.8737    2.3226 H   0  0  0  0  0  0  0  0  0  0  0  0
   -6.0601    8.2166    7.4387 H   0  0  0  0  0  0  0  0  0  0  0  0
   -4.0956    3.0286    4.5164 H   0  0  0  0  0  0  0  0  0  0  0  0
   -6.4840    3.0305    9.0055 H   0  0  0  0  0  0  0  0  0  0  0  0
   -3.8177    0.8672    8.8300 H   0  0  0  0  0  0  0  0  0  0  0  0
   -5.5785   -1.0057    9.0313 H   0  0  0  0  0  0  0  0  0  0  0  0
   -7.4607   -0.7061    7.1810 H   0  0  0  0  0  0  0  0  0  0  0  0
   -6.3011   -0.6978    4.8417 H   0  0  0  0  0  0  0  0  0  0  0  0
   -3.6869   -1.0169    5.2020 H   0  0  0  0  0  0  0  0  0  0  0  0
   -3.2820   -1.5590    7.7883 H   0  0  0  0  0  0  0  0  0  0  0  0
   -4.6436   -2.5731    7.1194 H   0  0  0  0  0  0  0  0  0  0  0  0
   -2.7590    0.8442    6.7306 H   0  0  0  0  0  0  0  0  0  0  0  0
  1  2  2  3
  2  3  1  0
  3  4  2  0
  3  5  1  0
  5  6  2  0
  6  7  1  0
  7  8  2  0
  8  9  1  0
  9 10  2  0
 10 11  1  0
 11 12  2  3
 12 13  1  0
 13 14  3  0
 12 15  1  0
 15 16  3  0
  8 17  1  0
 17 18  1  0
 18 19  1  0
 19 20  2  0
 20 21  1  0
 21 22  1  0
 21 23  1  0
  1 24  1  0
 24 25  2  0
 25 26  1  0
 26 27  1  0
 27 28  2  0
 28 29  1  0
 29 30  2  0
 30 31  1  0
 30 32  1  0
 32 33  2  0
 26 34  1  0
 34 35  2  0
 35 36  1  0
 36 37  2  0
 37 38  1  0
 37 39  1  0
 39 40  2  0
 25 41  1  0
 41 42  1  0
 42 43  1  0
 43 44  2  0
 44 45  1  0
 45 46  1  0
 46 47  2  0
 47 48  1  0
 48 49  2  0
 49 50  1  0
 49 51  1  0
 51 52  2  0
 45 53  1  0
 53 54  2  0
 54 55  1  0
 55 56  2  0
 56 57  1  0
 56 58  1  0
 58 59  2  0
 44 60  1  0
 60 61  1  0
 43 62  1  0
 62 63  2  0
 63 64  1  0
 64 65  1  0
 65 66  1  0
 66 67  1  0
 67 68  2  0
 68 69  1  0
 69 70  1  0
 70 71  1  0
 71 72  2  0
 72 73  1  0
 73 74  2  0
 74 75  1  0
 75 76  1  0
 74 77  1  0
 77 78  2  0
 70 79  1  0
 79 80  2  0
 80 81  1  0
 81 82  2  0
 82 83  1  0
 83 84  1  0
 82 85  1  0
 85 86  2  0
 70 87  1  0
 87 88  2  0
 88 89  1  0
 89 90  1  0
 90 91  2  0
 91 92  1  0
 92 93  1  0
 93 94  2  0
 94 95  1  0
 95 96  2  0
 96 97  1  0
 97 98  1  0
 96 99  1  0
 99100  2  0
 92101  1  0
101102  2  0
102103  1  0
103104  2  0
104105  1  0
105106  1  0
104107  1  0
107108  2  0
 92109  1  0
109110  1  0
110111  1  0
 88112  1  0
112113  1  0
113114  1  0
114115  2  0
115116  1  0
116117  1  0
116118  1  0
118119  2  0
119120  1  0
120121  2  0
121122  1  0
122123  1  0
121124  1  0
124125  2  0
116126  1  0
126127  2  0
127128  1  0
128129  2  0
129130  1  0
130131  1  0
129132  1  0
132133  2  0
115134  1  0
134135  2  0
135136  1  0
135137  1  0
137138  2  0
138139  1  0
139140  1  0
140141  1  0
141142  1  0
139143  2  0
143144  1  0
143145  1  0
145146  2  3
146147  1  0
147148  2  0
147149  1  0
149150  2  0
150151  1  0
151152  2  0
152153  1  0
153154  2  0
154155  1  0
155156  2  3
156157  1  0
157158  3  0
156159  1  0
159160  3  0
152161  1  0
161162  1  0
162163  1  0
163164  2  0
164165  1  0
165166  1  0
165167  1  0
 11  2  1  0
 23 17  1  0
 61 24  1  0
111 62  1  0
117113  2  0
125118  1  0
133126  1  0
144137  1  0
155146  1  0
167161  1  0
 10  5  1  0
 22 18  1  0
 33 27  1  0
 40 34  1  0
 60 41  2  0
110 64  2  0
136114  1  0
154149  1  0
166162  1  0
 23  7  1  0
 52 46  1  0
 59 53  1  0
109 66  2  0
167151  1  0
 91 67  1  0
100 93  1  0
108101  1  0
 89 69  2  0
 78 71  1  0
 86 79  1  0
117 87  1  0
  1168  1  0
  6169  1  0
  9170  1  0
 17171  1  0
 18172  1  0
 19173  1  0
 20174  1  0
 21175  1  0
 22176  1  0
 22177  1  0
 23178  1  0
 28179  1  0
 29180  1  0
 31181  1  0
 31182  1  0
 31183  1  0
 32184  1  0
 33185  1  0
 35186  1  0
 36187  1  0
 38188  1  0
 38189  1  0
 38190  1  0
 39191  1  0
 40192  1  0
 47193  1  0
 48194  1  0
 50195  1  0
 50196  1  0
 50197  1  0
 51198  1  0
 52199  1  0
 54200  1  0
 55201  1  0
 57202  1  0
 57203  1  0
 57204  1  0
 58205  1  0
 59206  1  0
 63207  1  0
 68208  1  0
 72209  1  0
 73210  1  0
 75211  1  0
 75212  1  0
 76213  1  0
 76214  1  0
 76215  1  0
 77216  1  0
 78217  1  0
 80218  1  0
 81219  1  0
 83220  1  0
 83221  1  0
 84222  1  0
 84223  1  0
 84224  1  0
 85225  1  0
 86226  1  0
 90227  1  0
 94228  1  0
 95229  1  0
 97230  1  0
 97231  1  0
 98232  1  0
 98233  1  0
 98234  1  0
 99235  1  0
100236  1  0
102237  1  0
103238  1  0
105239  1  0
105240  1  0
106241  1  0
106242  1  0
106243  1  0
107244  1  0
108245  1  0
119246  1  0
120247  1  0
122248  1  0
122249  1  0
123250  1  0
123251  1  0
123252  1  0
124253  1  0
125254  1  0
127255  1  0
128256  1  0
130257  1  0
130258  1  0
131259  1  0
131260  1  0
131261  1  0
132262  1  0
133263  1  0
134264  1  0
138265  1  0
141266  1  0
141267  1  0
142268  1  0
142269  1  0
142270  1  0
145271  1  0
150272  1  0
153273  1  0
161274  1  0
162275  1  0
163276  1  0
164277  1  0
165278  1  0
166279  1  0
166280  1  0
167281  1  0
M  END

