
     RDKit          3D

240267  0  0  0  0  0  0  0  0999 V2000
   -2.7254   -7.5522   -2.9391 C   0  0  0  0  0  0  0  0  0  0  0  0
   -3.2264   -6.5622   -3.7077 C   0  0  0  0  0  0  0  0  0  0  0  0
   -3.9106   -6.9093   -4.9575 C   0  0  0  0  0  0  0  0  0  0  0  0
   -4.1705   -8.0787   -5.3533 O   0  0  0  0  0  0  0  0  0  0  0  0
   -4.2449   -5.7132   -5.6773 C   0  0  0  0  0  0  0  0  0  0  0  0
   -5.0395   -5.6417   -6.8451 C   0  0  0  0  0  0  0  0  0  0  0  0
   -5.3693   -4.3571   -7.2223 C   0  0  0  0  0  0  0  0  0  0  0  0
   -4.9287   -3.2014   -6.5101 C   0  0  0  0  0  0  0  0  0  0  0  0
   -4.1458   -3.2637   -5.3687 C   0  0  0  0  0  0  0  0  0  0  0  0
   -3.7912   -4.5843   -4.9537 C   0  0  0  0  0  0  0  0  0  0  0  0
   -3.1475   -5.0444   -3.6715 C   0  0  0  0  0  0  0  0  0  0  0  0
   -2.7175   -4.2099   -2.6870 C   0  0  0  0  0  0  0  0  0  0  0  0
   -2.5942   -4.5696   -1.3045 C   0  0  0  0  0  0  0  0  0  0  0  0
   -2.4984   -4.7951   -0.1751 N   0  0  0  0  0  0  0  0  0  0  0  0
   -2.4181   -2.8206   -2.9244 C   0  0  0  0  0  0  0  0  0  0  0  0
   -2.1597   -1.7043   -3.0951 N   0  0  0  0  0  0  0  0  0  0  0  0
   -5.6948   -2.3127   -7.4494 C   0  0  0  0  0  0  0  0  0  0  0  0
   -6.9916   -1.6727   -6.8751 C   0  0  0  0  0  0  0  0  0  0  0  0
   -7.7851   -1.1913   -8.0686 C   0  0  0  0  0  0  0  0  0  0  0  0
   -8.2398   -2.2883   -8.6882 C   0  0  0  0  0  0  0  0  0  0  0  0
   -7.7198   -3.4687   -7.9042 C   0  0  0  0  0  0  0  0  0  0  0  0
   -7.8334   -2.8819   -6.5019 C   0  0  0  0  0  0  0  0  0  0  0  0
   -6.1778   -3.5048   -8.1544 C   0  0  0  0  0  0  0  0  0  0  0  0
   -1.9629   -7.4468   -1.7081 C   0  0  0  0  0  0  0  0  0  0  0  0
   -0.5683   -7.3301   -1.5994 C   0  0  0  0  0  0  0  0  0  0  0  0
    0.3516   -7.2299   -2.7007 N   0  0  0  0  0  0  0  0  0  0  0  0
    1.4706   -8.1398   -2.7606 C   0  0  0  0  0  0  0  0  0  0  0  0
    2.7644   -7.6753   -3.0655 C   0  0  0  0  0  0  0  0  0  0  0  0
    3.8560   -8.5449   -3.0084 C   0  0  0  0  0  0  0  0  0  0  0  0
    3.6760   -9.8910   -2.6657 C   0  0  0  0  0  0  0  0  0  0  0  0
    4.8628  -10.7963   -2.5233 C   0  0  0  0  0  0  0  0  0  0  0  0
    2.3886  -10.3605   -2.3611 C   0  0  0  0  0  0  0  0  0  0  0  0
    1.2955   -9.4936   -2.4147 C   0  0  0  0  0  0  0  0  0  0  0  0
    0.3358   -6.0524   -3.5240 C   0  0  0  0  0  0  0  0  0  0  0  0
    0.2286   -6.1753   -4.9158 C   0  0  0  0  0  0  0  0  0  0  0  0
    0.2939   -5.0414   -5.7291 C   0  0  0  0  0  0  0  0  0  0  0  0
    0.4672   -3.7720   -5.1536 C   0  0  0  0  0  0  0  0  0  0  0  0
    0.6022   -2.5625   -6.0267 C   0  0  0  0  0  0  0  0  0  0  0  0
    0.6005   -3.6537   -3.7594 C   0  0  0  0  0  0  0  0  0  0  0  0
    0.5133   -4.7860   -2.9460 C   0  0  0  0  0  0  0  0  0  0  0  0
   -0.1715   -7.3796   -0.2747 C   0  0  0  0  0  0  0  0  0  0  0  0
    1.2268   -6.9369    0.5102 S   0  0  0  0  0  0  0  0  0  0  0  0
    0.4962   -6.7478    2.0473 C   0  0  0  0  0  0  0  0  0  0  0  0
   -0.8289   -7.2369    1.9493 C   0  0  0  0  0  0  0  0  0  0  0  0
   -1.4256   -7.9950    3.0145 N   0  0  0  0  0  0  0  0  0  0  0  0
   -1.0326   -9.3774    3.0641 C   0  0  0  0  0  0  0  0  0  0  0  0
    0.2041   -9.7387    3.6209 C   0  0  0  0  0  0  0  0  0  0  0  0
    0.6527  -11.0601    3.5409 C   0  0  0  0  0  0  0  0  0  0  0  0
   -0.1152  -12.0283    2.8651 C   0  0  0  0  0  0  0  0  0  0  0  0
    0.3690  -13.4433    2.7365 C   0  0  0  0  0  0  0  0  0  0  0  0
   -1.3562  -11.6676    2.3186 C   0  0  0  0  0  0  0  0  0  0  0  0
   -1.8117  -10.3512    2.4177 C   0  0  0  0  0  0  0  0  0  0  0  0
   -2.5951   -7.5307    3.7370 C   0  0  0  0  0  0  0  0  0  0  0  0
   -3.2349   -8.3626    4.6842 C   0  0  0  0  0  0  0  0  0  0  0  0
   -4.3954   -7.9431    5.3414 C   0  0  0  0  0  0  0  0  0  0  0  0
   -4.9170   -6.6661    5.1069 C   0  0  0  0  0  0  0  0  0  0  0  0
   -6.1913   -6.2292    5.7674 C   0  0  0  0  0  0  0  0  0  0  0  0
   -4.2658   -5.8129    4.1982 C   0  0  0  0  0  0  0  0  0  0  0  0
   -3.1222   -6.2404    3.5181 C   0  0  0  0  0  0  0  0  0  0  0  0
   -1.1622   -7.5301    0.6253 C   0  0  0  0  0  0  0  0  0  0  0  0
   -2.6285   -7.7555   -0.1611 S   0  0  0  0  0  0  0  0  0  0  0  0
    0.6781   -5.3937    2.5858 C   0  0  0  0  0  0  0  0  0  0  0  0
    1.5720   -5.0149    3.6115 C   0  0  0  0  0  0  0  0  0  0  0  0
    1.8497   -5.8386    4.8040 C   0  0  0  0  0  0  0  0  0  0  0  0
    3.1123   -5.8597    5.4169 C   0  0  0  0  0  0  0  0  0  0  0  0
    3.2867   -6.5001    6.6493 C   0  0  0  0  0  0  0  0  0  0  0  0
    2.1982   -7.0999    7.2882 C   0  0  0  0  0  0  0  0  0  0  0  0
    0.9341   -7.1068    6.6755 C   0  0  0  0  0  0  0  0  0  0  0  0
   -0.2581   -7.7196    7.3581 C   0  0  0  0  0  0  0  0  0  0  0  0
   -1.3246   -6.6840    7.6936 C   0  0  0  0  0  0  0  0  0  0  0  0
    0.7781   -6.4949    5.4234 C   0  0  0  0  0  0  0  0  0  0  0  0
    1.9769   -3.6754    3.4479 C   0  0  0  0  0  0  0  0  0  0  0  0
    3.1603   -2.6716    4.1641 S   0  0  0  0  0  0  0  0  0  0  0  0
    2.8666   -1.4326    3.0267 C   0  0  0  0  0  0  0  0  0  0  0  0
    3.5718   -0.3954    2.4749 C   0  0  0  0  0  0  0  0  0  0  0  0
    4.7965    0.2072    2.8108 C   0  0  0  0  0  0  0  0  0  0  0  0
    5.3831    1.1300    1.8846 C   0  0  0  0  0  0  0  0  0  0  0  0
    6.5515    1.7112    2.2583 N   0  0  0  0  0  0  0  0  0  0  0  0
    6.7623    0.9895    3.7373 S   0  0  0  0  0  0  0  0  0  0  0  0
    5.4688   -0.0268    3.9657 N   0  0  0  0  0  0  0  0  0  0  0  0
    4.7202    1.3931    0.6791 C   0  0  0  0  0  0  0  0  0  0  0  0
    4.9008    2.3689   -0.2699 C   0  0  0  0  0  0  0  0  0  0  0  0
    5.7835    3.8176   -0.3623 S   0  0  0  0  0  0  0  0  0  0  0  0
    4.6528    4.4971   -1.4451 C   0  0  0  0  0  0  0  0  0  0  0  0
    4.4167    5.8053   -1.8942 C   0  0  0  0  0  0  0  0  0  0  0  0
    5.4113    6.8951   -1.8237 C   0  0  0  0  0  0  0  0  0  0  0  0
    6.1044    7.1791   -0.6365 C   0  0  0  0  0  0  0  0  0  0  0  0
    7.0589    8.2028   -0.6124 C   0  0  0  0  0  0  0  0  0  0  0  0
    7.3222    8.9554   -1.7582 C   0  0  0  0  0  0  0  0  0  0  0  0
    6.6090    8.7058   -2.9429 C   0  0  0  0  0  0  0  0  0  0  0  0
    6.8730    9.5116   -4.1818 C   0  0  0  0  0  0  0  0  0  0  0  0
    7.9086    8.8259   -5.0673 C   0  0  0  0  0  0  0  0  0  0  0  0
    5.6811    7.6506   -2.9762 C   0  0  0  0  0  0  0  0  0  0  0  0
    3.1193    5.9264   -2.4525 C   0  0  0  0  0  0  0  0  0  0  0  0
    2.3656    4.4042   -2.4283 S   0  0  0  0  0  0  0  0  0  0  0  0
    3.6283    3.6203   -1.6789 C   0  0  0  0  0  0  0  0  0  0  0  0
    3.7548    2.4177   -1.0062 C   0  0  0  0  0  0  0  0  0  0  0  0
    2.8245    1.5178   -0.5930 N   0  0  0  0  0  0  0  0  0  0  0  0
    3.4744    0.8284    0.3894 C   0  0  0  0  0  0  0  0  0  0  0  0
    2.9485   -0.1448    1.2494 C   0  0  0  0  0  0  0  0  0  0  0  0
    2.0060   -1.0880    0.9600 N   0  0  0  0  0  0  0  0  0  0  0  0
    1.9221   -1.7909    2.1170 C   0  0  0  0  0  0  0  0  0  0  0  0
    1.4075   -3.0422    2.3765 C   0  0  0  0  0  0  0  0  0  0  0  0
    0.3770   -4.0575    1.5661 S   0  0  0  0  0  0  0  0  0  0  0  0
    1.8091   -1.6817   -0.3756 C   0  0  0  0  0  0  0  0  0  0  0  0
    2.9000   -2.7026   -0.6835 C   0  0  0  0  0  0  0  0  0  0  0  0
    1.3664    1.7185   -0.6865 C   0  0  0  0  0  0  0  0  0  0  0  0
    0.8819    2.7195    0.3641 C   0  0  0  0  0  0  0  0  0  0  0  0
    2.3076    7.1641   -2.5480 C   0  0  0  0  0  0  0  0  0  0  0  0
    0.9104    7.1486   -2.5364 C   0  0  0  0  0  0  0  0  0  0  0  0
    0.3362    8.3601   -2.1334 C   0  0  0  0  0  0  0  0  0  0  0  0
   -1.0211    8.5504   -1.8034 C   0  0  0  0  0  0  0  0  0  0  0  0
   -1.9880    7.4344   -1.8622 C   0  0  0  0  0  0  0  0  0  0  0  0
   -2.3563    6.8698   -3.0950 C   0  0  0  0  0  0  0  0  0  0  0  0
   -3.1817    5.7408   -3.1306 C   0  0  0  0  0  0  0  0  0  0  0  0
   -3.6453    5.1623   -1.9383 C   0  0  0  0  0  0  0  0  0  0  0  0
   -4.4672    3.9022   -1.9704 C   0  0  0  0  0  0  0  0  0  0  0  0
   -3.5753    2.6752   -1.8212 C   0  0  0  0  0  0  0  0  0  0  0  0
   -3.2675    5.7212   -0.7097 C   0  0  0  0  0  0  0  0  0  0  0  0
   -2.4458    6.8483   -0.6700 C   0  0  0  0  0  0  0  0  0  0  0  0
   -1.3611    9.7817   -1.2200 C   0  0  0  0  0  0  0  0  0  0  0  0
   -0.4200   10.7961   -0.9870 C   0  0  0  0  0  0  0  0  0  0  0  0
    0.9331   10.6113   -1.3424 C   0  0  0  0  0  0  0  0  0  0  0  0
    1.9594   11.6487   -1.0944 C   0  0  0  0  0  0  0  0  0  0  0  0
    1.9106   12.8567   -1.8040 C   0  0  0  0  0  0  0  0  0  0  0  0
    2.8876   13.8336   -1.5998 C   0  0  0  0  0  0  0  0  0  0  0  0
    3.9178   13.6231   -0.6675 C   0  0  0  0  0  0  0  0  0  0  0  0
    4.9565   14.6870   -0.4366 C   0  0  0  0  0  0  0  0  0  0  0  0
    6.1604   14.4775   -1.3486 C   0  0  0  0  0  0  0  0  0  0  0  0
    3.9798   12.4025    0.0257 C   0  0  0  0  0  0  0  0  0  0  0  0
    3.0020   11.4241   -0.1805 C   0  0  0  0  0  0  0  0  0  0  0  0
    1.2773    9.3633   -1.8952 C   0  0  0  0  0  0  0  0  0  0  0  0
    2.8130    8.7220   -2.1272 S   0  0  0  0  0  0  0  0  0  0  0  0
   -0.9485   11.8866   -0.2715 C   0  0  0  0  0  0  0  0  0  0  0  0
   -2.2968   11.7136    0.0441 C   0  0  0  0  0  0  0  0  0  0  0  0
   -2.8412   10.2343   -0.5504 S   0  0  0  0  0  0  0  0  0  0  0  0
   -3.0762   12.5768    0.9347 C   0  0  0  0  0  0  0  0  0  0  0  0
   -3.0314   12.4538    2.2685 C   0  0  0  0  0  0  0  0  0  0  0  0
   -3.8070   13.2375    3.2371 C   0  0  0  0  0  0  0  0  0  0  0  0
   -4.6407   14.1399    2.9646 O   0  0  0  0  0  0  0  0  0  0  0  0
   -3.4456   12.7899    4.5791 C   0  0  0  0  0  0  0  0  0  0  0  0
   -3.8771   13.2632    5.8180 C   0  0  0  0  0  0  0  0  0  0  0  0
   -3.3405   12.6798    6.9795 C   0  0  0  0  0  0  0  0  0  0  0  0
   -2.3878   11.6469    6.8819 C   0  0  0  0  0  0  0  0  0  0  0  0
   -1.9618   11.1877    5.6230 C   0  0  0  0  0  0  0  0  0  0  0  0
   -2.5069   11.7804    4.4844 C   0  0  0  0  0  0  0  0  0  0  0  0
   -2.2207   11.5228    3.0758 C   0  0  0  0  0  0  0  0  0  0  0  0
   -1.4152   10.6606    2.6388 O   0  0  0  0  0  0  0  0  0  0  0  0
   -2.9097   -8.5740   -3.2349 H   0  0  0  0  0  0  0  0  0  0  0  0
   -5.4225   -6.5119   -7.3518 H   0  0  0  0  0  0  0  0  0  0  0  0
   -3.9127   -2.3560   -4.8454 H   0  0  0  0  0  0  0  0  0  0  0  0
   -5.0519   -1.6396   -8.0565 H   0  0  0  0  0  0  0  0  0  0  0  0
   -6.8476   -0.9212   -6.0725 H   0  0  0  0  0  0  0  0  0  0  0  0
   -8.0553   -0.1689   -8.3106 H   0  0  0  0  0  0  0  0  0  0  0  0
   -8.9347   -2.3058   -9.5247 H   0  0  0  0  0  0  0  0  0  0  0  0
   -8.2618   -4.4215   -8.0748 H   0  0  0  0  0  0  0  0  0  0  0  0
   -7.3816   -3.5156   -5.7015 H   0  0  0  0  0  0  0  0  0  0  0  0
   -8.8850   -2.6177   -6.2148 H   0  0  0  0  0  0  0  0  0  0  0  0
   -5.8611   -3.5758   -9.2232 H   0  0  0  0  0  0  0  0  0  0  0  0
    2.9401   -6.6341   -3.2975 H   0  0  0  0  0  0  0  0  0  0  0  0
    4.8480   -8.1625   -3.2025 H   0  0  0  0  0  0  0  0  0  0  0  0
    5.6719  -10.4927   -3.2216 H   0  0  0  0  0  0  0  0  0  0  0  0
    4.5902  -11.8482   -2.7521 H   0  0  0  0  0  0  0  0  0  0  0  0
    5.2469  -10.7365   -1.4839 H   0  0  0  0  0  0  0  0  0  0  0  0
    2.2403  -11.3869   -2.0614 H   0  0  0  0  0  0  0  0  0  0  0  0
    0.3142   -9.8711   -2.1615 H   0  0  0  0  0  0  0  0  0  0  0  0
    0.1092   -7.1542   -5.3671 H   0  0  0  0  0  0  0  0  0  0  0  0
    0.2281   -5.1510   -6.8056 H   0  0  0  0  0  0  0  0  0  0  0  0
   -0.0396   -2.6634   -6.9277 H   0  0  0  0  0  0  0  0  0  0  0  0
    0.2781   -1.6531   -5.4807 H   0  0  0  0  0  0  0  0  0  0  0  0
    1.6623   -2.4422   -6.3352 H   0  0  0  0  0  0  0  0  0  0  0  0
    0.7745   -2.6880   -3.3032 H   0  0  0  0  0  0  0  0  0  0  0  0
    0.6127   -4.6850   -1.8745 H   0  0  0  0  0  0  0  0  0  0  0  0
    0.8255   -8.9882    4.0911 H   0  0  0  0  0  0  0  0  0  0  0  0
    1.6158  -11.3184    3.9637 H   0  0  0  0  0  0  0  0  0  0  0  0
    1.4325  -13.5381    3.0448 H   0  0  0  0  0  0  0  0  0  0  0  0
   -0.2502  -14.1111    3.3729 H   0  0  0  0  0  0  0  0  0  0  0  0
    0.2855  -13.7747    1.6777 H   0  0  0  0  0  0  0  0  0  0  0  0
   -1.9664  -12.4027    1.8104 H   0  0  0  0  0  0  0  0  0  0  0  0
   -2.7631  -10.0789    1.9758 H   0  0  0  0  0  0  0  0  0  0  0  0
   -2.8490   -9.3451    4.9159 H   0  0  0  0  0  0  0  0  0  0  0  0
   -4.8867   -8.6189    6.0309 H   0  0  0  0  0  0  0  0  0  0  0  0
   -7.0428   -6.4131    5.0788 H   0  0  0  0  0  0  0  0  0  0  0  0
   -6.1513   -5.1487    6.0191 H   0  0  0  0  0  0  0  0  0  0  0  0
   -6.3654   -6.7937    6.7084 H   0  0  0  0  0  0  0  0  0  0  0  0
   -4.6603   -4.8223    4.0066 H   0  0  0  0  0  0  0  0  0  0  0  0
   -2.6493   -5.5588    2.8198 H   0  0  0  0  0  0  0  0  0  0  0  0
    3.9653   -5.3857    4.9458 H   0  0  0  0  0  0  0  0  0  0  0  0
    4.2610   -6.5049    7.1209 H   0  0  0  0  0  0  0  0  0  0  0  0
    2.3455   -7.5561    8.2582 H   0  0  0  0  0  0  0  0  0  0  0  0
    0.0428   -8.2289    8.2980 H   0  0  0  0  0  0  0  0  0  0  0  0
   -0.6958   -8.4950    6.6963 H   0  0  0  0  0  0  0  0  0  0  0  0
   -2.2234   -7.1900    8.1068 H   0  0  0  0  0  0  0  0  0  0  0  0
   -1.6412   -6.1189    6.7886 H   0  0  0  0  0  0  0  0  0  0  0  0
   -0.9374   -5.9744    8.4597 H   0  0  0  0  0  0  0  0  0  0  0  0
   -0.2032   -6.4503    4.9769 H   0  0  0  0  0  0  0  0  0  0  0  0
    5.9044    6.6226    0.2693 H   0  0  0  0  0  0  0  0  0  0  0  0
    7.6044    8.4059    0.3008 H   0  0  0  0  0  0  0  0  0  0  0  0
    8.0687    9.7457   -1.7273 H   0  0  0  0  0  0  0  0  0  0  0  0
    7.2347   10.5294   -3.9086 H   0  0  0  0  0  0  0  0  0  0  0  0
    5.9268    9.6390   -4.7554 H   0  0  0  0  0  0  0  0  0  0  0  0
    8.0439    9.4117   -6.0022 H   0  0  0  0  0  0  0  0  0  0  0  0
    7.5682    7.8014   -5.3384 H   0  0  0  0  0  0  0  0  0  0  0  0
    8.8843    8.7617   -4.5370 H   0  0  0  0  0  0  0  0  0  0  0  0
    5.1522    7.4346   -3.8981 H   0  0  0  0  0  0  0  0  0  0  0  0
    1.8728   -0.9211   -1.1747 H   0  0  0  0  0  0  0  0  0  0  0  0
    0.8048   -2.1451   -0.4487 H   0  0  0  0  0  0  0  0  0  0  0  0
    2.8585   -3.5548    0.0246 H   0  0  0  0  0  0  0  0  0  0  0  0
    2.7769   -3.0939   -1.7167 H   0  0  0  0  0  0  0  0  0  0  0  0
    3.9009   -2.2190   -0.6003 H   0  0  0  0  0  0  0  0  0  0  0  0
    0.8000    0.7856   -0.5164 H   0  0  0  0  0  0  0  0  0  0  0  0
    1.0881    2.0703   -1.7038 H   0  0  0  0  0  0  0  0  0  0  0  0
    1.4242    3.6828    0.2715 H   0  0  0  0  0  0  0  0  0  0  0  0
    1.0409    2.3098    1.3847 H   0  0  0  0  0  0  0  0  0  0  0  0
   -0.2049    2.9062    0.2272 H   0  0  0  0  0  0  0  0  0  0  0  0
    0.3310    6.2491   -2.6809 H   0  0  0  0  0  0  0  0  0  0  0  0
   -1.9885    7.2918   -4.0236 H   0  0  0  0  0  0  0  0  0  0  0  0
   -3.4480    5.3106   -4.0892 H   0  0  0  0  0  0  0  0  0  0  0  0
   -5.0326    3.8300   -2.9243 H   0  0  0  0  0  0  0  0  0  0  0  0
   -5.2140    3.9150   -1.1475 H   0  0  0  0  0  0  0  0  0  0  0  0
   -4.1935    1.7560   -1.8722 H   0  0  0  0  0  0  0  0  0  0  0  0
   -3.0528    2.6990   -0.8415 H   0  0  0  0  0  0  0  0  0  0  0  0
   -2.8212    2.6457   -2.6356 H   0  0  0  0  0  0  0  0  0  0  0  0
   -3.5937    5.2712    0.2175 H   0  0  0  0  0  0  0  0  0  0  0  0
   -2.1378    7.2476    0.2876 H   0  0  0  0  0  0  0  0  0  0  0  0
    1.1191   13.0378   -2.5195 H   0  0  0  0  0  0  0  0  0  0  0  0
    2.8365   14.7571   -2.1596 H   0  0  0  0  0  0  0  0  0  0  0  0
    5.2908   14.6708    0.6240 H   0  0  0  0  0  0  0  0  0  0  0  0
    4.5217   15.6919   -0.6316 H   0  0  0  0  0  0  0  0  0  0  0  0
    5.8436   14.4639   -2.4147 H   0  0  0  0  0  0  0  0  0  0  0  0
    6.6651   13.5187   -1.1021 H   0  0  0  0  0  0  0  0  0  0  0  0
    6.8847   15.3085   -1.2021 H   0  0  0  0  0  0  0  0  0  0  0  0
    4.7813   12.2127    0.7263 H   0  0  0  0  0  0  0  0  0  0  0  0
    3.0566   10.4948    0.3733 H   0  0  0  0  0  0  0  0  0  0  0  0
   -0.3656   12.7366    0.0586 H   0  0  0  0  0  0  0  0  0  0  0  0
   -3.7440   13.3035    0.4859 H   0  0  0  0  0  0  0  0  0  0  0  0
   -4.6028   14.0609    5.8830 H   0  0  0  0  0  0  0  0  0  0  0  0
   -3.6581   13.0313    7.9528 H   0  0  0  0  0  0  0  0  0  0  0  0
   -1.9722   11.2131    7.7802 H   0  0  0  0  0  0  0  0  0  0  0  0
   -1.2328   10.3935    5.5417 H   0  0  0  0  0  0  0  0  0  0  0  0
  1  2  2  3
  2  3  1  0
  3  4  2  0
  3  5  1  0
  5  6  2  0
  6  7  1  0
  7  8  2  0
  8  9  1  0
  9 10  2  0
 10 11  1  0
 11 12  2  3
 12 13  1  0
 13 14  3  0
 12 15  1  0
 15 16  3  0
  8 17  1  0
 17 18  1  0
 18 19  1  0
 19 20  2  0
 20 21  1  0
 21 22  1  0
 21 23  1  0
  1 24  1  0
 24 25  2  0
 25 26  1  0
 26 27  1  0
 27 28  2  0
 28 29  1  0
 29 30  2  0
 30 31  1  0
 30 32  1  0
 32 33  2  0
 26 34  1  0
 34 35  2  0
 35 36  1  0
 36 37  2  0
 37 38  1  0
 37 39  1  0
 39 40  2  0
 25 41  1  0
 41 42  1  0
 42 43  1  0
 43 44  2  0
 44 45  1  0
 45 46  1  0
 46 47  2  0
 47 48  1  0
 48 49  2  0
 49 50  1  0
 49 51  1  0
 51 52  2  0
 45 53  1  0
 53 54  2  0
 54 55  1  0
 55 56  2  0
 56 57  1  0
 56 58  1  0
 58 59  2  0
 44 60  1  0
 60 61  1  0
 43 62  1  0
 62 63  2  0
 63 64  1  0
 64 65  2  0
 65 66  1  0
 66 67  2  0
 67 68  1  0
 68 69  1  0
 69 70  1  0
 68 71  2  0
 63 72  1  0
 72 73  1  0
 73 74  1  0
 74 75  1  0
 75 76  1  0
 76 77  1  0
 77 78  2  0
 78 79  1  0
 79 80  1  0
 77 81  1  0
 81 82  1  0
 82 83  1  0
 83 84  1  0
 84 85  1  0
 85 86  1  0
 86 87  2  0
 87 88  1  0
 88 89  2  0
 89 90  1  0
 90 91  1  0
 91 92  1  0
 90 93  2  0
 85 94  2  0
 94 95  1  0
 95 96  1  0
 96 97  1  0
 97 98  1  0
 98 99  1  0
 99100  1  0
100101  1  0
101102  1  0
102103  1  0
103104  1  0
101105  1  0
105106  1  0
 98107  1  0
107108  1  0
 94109  1  0
109110  2  0
110111  1  0
111112  2  0
112113  1  0
113114  2  0
114115  1  0
115116  2  0
116117  1  0
117118  1  0
116119  1  0
119120  2  0
112121  1  0
121122  2  0
122123  1  0
123124  1  0
124125  2  0
125126  1  0
126127  2  0
127128  1  0
128129  1  0
127130  1  0
130131  2  0
123132  2  0
132133  1  0
122134  1  0
134135  2  0
135136  1  0
135137  1  0
137138  2  3
138139  1  0
139140  2  0
139141  1  0
141142  2  0
142143  1  0
143144  2  0
144145  1  0
145146  2  0
146147  1  0
147148  2  0
 11  2  1  0
 23 17  1  0
 61 24  1  0
104 62  1  0
133109  1  0
147138  1  0
 10  5  1  0
 22 18  1  0
 33 27  1  0
 40 34  1  0
 60 41  2  0
 71 64  1  0
103 72  2  0
132111  1  0
146141  1  0
 23  7  1  0
 52 46  1  0
 59 53  1  0
102 74  2  0
120113  1  0
136121  1  0
100 75  2  0
131124  1  0
 80 76  2  0
 99 81  2  0
 97 82  2  0
 96 84  2  0
 93 86  1  0
  1149  1  0
  6150  1  0
  9151  1  0
 17152  1  0
 18153  1  0
 19154  1  0
 20155  1  0
 21156  1  0
 22157  1  0
 22158  1  0
 23159  1  0
 28160  1  0
 29161  1  0
 31162  1  0
 31163  1  0
 31164  1  0
 32165  1  0
 33166  1  0
 35167  1  0
 36168  1  0
 38169  1  0
 38170  1  0
 38171  1  0
 39172  1  0
 40173  1  0
 47174  1  0
 48175  1  0
 50176  1  0
 50177  1  0
 50178  1  0
 51179  1  0
 52180  1  0
 54181  1  0
 55182  1  0
 57183  1  0
 57184  1  0
 57185  1  0
 58186  1  0
 59187  1  0
 65188  1  0
 66189  1  0
 67190  1  0
 69191  1  0
 69192  1  0
 70193  1  0
 70194  1  0
 70195  1  0
 71196  1  0
 87197  1  0
 88198  1  0
 89199  1  0
 91200  1  0
 91201  1  0
 92202  1  0
 92203  1  0
 92204  1  0
 93205  1  0
105206  1  0
105207  1  0
106208  1  0
106209  1  0
106210  1  0
107211  1  0
107212  1  0
108213  1  0
108214  1  0
108215  1  0
110216  1  0
114217  1  0
115218  1  0
117219  1  0
117220  1  0
118221  1  0
118222  1  0
118223  1  0
119224  1  0
120225  1  0
125226  1  0
126227  1  0
128228  1  0
128229  1  0
129230  1  0
129231  1  0
129232  1  0
130233  1  0
131234  1  0
134235  1  0
137236  1  0
142237  1  0
143238  1  0
144239  1  0
145240  1  0
M  END

