
     RDKit          3D

182204  0  0  0  0  0  0  0  0999 V2000
   -0.6792   12.4444   -2.8345 C   0  0  0  0  0  0  0  0  0  0  0  0
   -1.5150   13.0284   -1.9482 C   0  0  0  0  0  0  0  0  0  0  0  0
   -2.2428   12.3423   -0.8708 C   0  0  0  0  0  0  0  0  0  0  0  0
   -2.4652   11.1057   -0.7887 O   0  0  0  0  0  0  0  0  0  0  0  0
   -2.6982   13.3284    0.0814 C   0  0  0  0  0  0  0  0  0  0  0  0
   -3.3465   13.0836    1.3151 C   0  0  0  0  0  0  0  0  0  0  0  0
   -3.5775   14.2292    2.0548 C   0  0  0  0  0  0  0  0  0  0  0  0
   -3.1552   15.5328    1.6335 C   0  0  0  0  0  0  0  0  0  0  0  0
   -2.5184   15.7737    0.4225 C   0  0  0  0  0  0  0  0  0  0  0  0
   -2.3332   14.6166   -0.3827 C   0  0  0  0  0  0  0  0  0  0  0  0
   -1.7308   14.4914   -1.7399 C   0  0  0  0  0  0  0  0  0  0  0  0
   -1.7074   15.4565   -2.6914 C   0  0  0  0  0  0  0  0  0  0  0  0
   -1.4005   15.1721   -4.0670 C   0  0  0  0  0  0  0  0  0  0  0  0
   -1.1721   14.9469   -5.1770 N   0  0  0  0  0  0  0  0  0  0  0  0
   -2.2092   16.7864   -2.4422 C   0  0  0  0  0  0  0  0  0  0  0  0
   -2.6235   17.8478   -2.2636 N   0  0  0  0  0  0  0  0  0  0  0  0
   -3.6806   16.1323    2.9067 C   0  0  0  0  0  0  0  0  0  0  0  0
   -2.6591   16.5155    4.0188 C   0  0  0  0  0  0  0  0  0  0  0  0
   -1.4647   15.5852    3.9789 C   0  0  0  0  0  0  0  0  0  0  0  0
   -1.8997   14.3880    4.3660 C   0  0  0  0  0  0  0  0  0  0  0  0
   -3.3754   14.5391    4.6484 C   0  0  0  0  0  0  0  0  0  0  0  0
   -3.3675   15.9400    5.2292 C   0  0  0  0  0  0  0  0  0  0  0  0
   -4.1437   14.8029    3.3198 C   0  0  0  0  0  0  0  0  0  0  0  0
   -0.3630   11.0053   -2.7901 C   0  0  0  0  0  0  0  0  0  0  0  0
    0.2266   10.4649   -1.6297 C   0  0  0  0  0  0  0  0  0  0  0  0
    0.3477    9.0796   -1.5328 C   0  0  0  0  0  0  0  0  0  0  0  0
    0.7291    8.3577   -0.4521 N   0  0  0  0  0  0  0  0  0  0  0  0
    1.2218    8.8675    0.8316 C   0  0  0  0  0  0  0  0  0  0  0  0
    2.7417    8.9819    0.7995 C   0  0  0  0  0  0  0  0  0  0  0  0
    0.5820    7.0626   -0.8213 C   0  0  0  0  0  0  0  0  0  0  0  0
    0.1142    6.9631   -2.1168 C   0  0  0  0  0  0  0  0  0  0  0  0
   -0.0402    8.2562   -2.5728 C   0  0  0  0  0  0  0  0  0  0  0  0
   -0.5636    8.7636   -3.7611 C   0  0  0  0  0  0  0  0  0  0  0  0
   -0.7207   10.1589   -3.8668 C   0  0  0  0  0  0  0  0  0  0  0  0
   -0.1912    5.7330   -2.6999 C   0  0  0  0  0  0  0  0  0  0  0  0
   -0.0209    4.5750   -1.9142 C   0  0  0  0  0  0  0  0  0  0  0  0
    0.4189    4.6728   -0.5726 C   0  0  0  0  0  0  0  0  0  0  0  0
    0.7591    5.9304   -0.0311 C   0  0  0  0  0  0  0  0  0  0  0  0
    0.4037    3.4959    0.3132 C   0  0  0  0  0  0  0  0  0  0  0  0
   -0.2263    3.4420    1.5756 C   0  0  0  0  0  0  0  0  0  0  0  0
   -1.1948    4.4508    2.0754 C   0  0  0  0  0  0  0  0  0  0  0  0
   -1.1519    4.9030    3.4049 C   0  0  0  0  0  0  0  0  0  0  0  0
   -2.0416    5.8895    3.8450 C   0  0  0  0  0  0  0  0  0  0  0  0
   -2.9574    6.4604    2.9564 C   0  0  0  0  0  0  0  0  0  0  0  0
   -2.9968    6.0378    1.6186 C   0  0  0  0  0  0  0  0  0  0  0  0
   -3.9470    6.6830    0.6441 C   0  0  0  0  0  0  0  0  0  0  0  0
   -5.3057    5.9932    0.6607 C   0  0  0  0  0  0  0  0  0  0  0  0
   -2.1408    5.0093    1.1955 C   0  0  0  0  0  0  0  0  0  0  0  0
    0.1348    2.2781    2.2567 C   0  0  0  0  0  0  0  0  0  0  0  0
   -0.3117    1.6168    3.7618 S   0  0  0  0  0  0  0  0  0  0  0  0
    0.6634    0.2588    3.4818 C   0  0  0  0  0  0  0  0  0  0  0  0
    0.8172   -0.9884    3.9951 C   0  0  0  0  0  0  0  0  0  0  0  0
    0.1951   -1.5731    5.1003 C   0  0  0  0  0  0  0  0  0  0  0  0
    0.3341   -2.9715    5.3028 C   0  0  0  0  0  0  0  0  0  0  0  0
   -0.2931   -3.5096    6.3773 N   0  0  0  0  0  0  0  0  0  0  0  0
   -0.9868   -2.1444    7.0001 S   0  0  0  0  0  0  0  0  0  0  0  0
   -0.5546   -0.8972    6.0010 N   0  0  0  0  0  0  0  0  0  0  0  0
    1.1096   -3.7015    4.4049 C   0  0  0  0  0  0  0  0  0  0  0  0
    1.3977   -5.0324    4.3710 C   0  0  0  0  0  0  0  0  0  0  0  0
    0.8961   -6.4761    5.1037 S   0  0  0  0  0  0  0  0  0  0  0  0
    1.7914   -7.3898    3.9694 C   0  0  0  0  0  0  0  0  0  0  0  0
    1.8257   -8.7505    3.6348 C   0  0  0  0  0  0  0  0  0  0  0  0
    1.1946   -9.8282    4.4275 C   0  0  0  0  0  0  0  0  0  0  0  0
   -0.1202   -9.6966    4.9065 C   0  0  0  0  0  0  0  0  0  0  0  0
   -0.6651  -10.6711    5.7448 C   0  0  0  0  0  0  0  0  0  0  0  0
    0.0964  -11.7819    6.1203 C   0  0  0  0  0  0  0  0  0  0  0  0
    1.4075  -11.9351    5.6427 C   0  0  0  0  0  0  0  0  0  0  0  0
    2.2504  -13.0989    6.0955 C   0  0  0  0  0  0  0  0  0  0  0  0
    3.3170  -12.6511    7.0939 C   0  0  0  0  0  0  0  0  0  0  0  0
    1.9423  -10.9654    4.7744 C   0  0  0  0  0  0  0  0  0  0  0  0
    2.5475   -8.9559    2.4397 C   0  0  0  0  0  0  0  0  0  0  0  0
    3.0911   -7.4575    1.8364 S   0  0  0  0  0  0  0  0  0  0  0  0
    2.4602   -6.5695    3.0946 C   0  0  0  0  0  0  0  0  0  0  0  0
    2.2185   -5.2259    3.3233 C   0  0  0  0  0  0  0  0  0  0  0  0
    2.5256   -4.0857    2.6562 N   0  0  0  0  0  0  0  0  0  0  0  0
    1.7782   -3.1193    3.3033 C   0  0  0  0  0  0  0  0  0  0  0  0
    1.5817   -1.7158    3.0566 C   0  0  0  0  0  0  0  0  0  0  0  0
    1.8318   -0.9227    1.9507 N   0  0  0  0  0  0  0  0  0  0  0  0
    1.2706    0.2731    2.2740 C   0  0  0  0  0  0  0  0  0  0  0  0
    0.9709    1.4325    1.5628 C   0  0  0  0  0  0  0  0  0  0  0  0
    1.3331    2.0899    0.0608 S   0  0  0  0  0  0  0  0  0  0  0  0
    2.2419   -1.2805    0.5910 C   0  0  0  0  0  0  0  0  0  0  0  0
    1.2062   -2.1833   -0.0771 C   0  0  0  0  0  0  0  0  0  0  0  0
    3.6714   -3.9815    1.7472 C   0  0  0  0  0  0  0  0  0  0  0  0
    4.7587   -3.0612    2.3065 C   0  0  0  0  0  0  0  0  0  0  0  0
    2.3005  -10.0336    1.4755 C   0  0  0  0  0  0  0  0  0  0  0  0
    1.1439   -9.9179    0.6787 C   0  0  0  0  0  0  0  0  0  0  0  0
    1.1696  -10.4469   -0.6149 C   0  0  0  0  0  0  0  0  0  0  0  0
    0.3762  -10.0691   -1.6499 N   0  0  0  0  0  0  0  0  0  0  0  0
   -0.7402   -9.1163   -1.6002 C   0  0  0  0  0  0  0  0  0  0  0  0
   -0.2222   -7.6799   -1.6421 C   0  0  0  0  0  0  0  0  0  0  0  0
    1.0148  -10.5071   -2.7648 C   0  0  0  0  0  0  0  0  0  0  0  0
    2.1534  -11.2178   -2.4351 C   0  0  0  0  0  0  0  0  0  0  0  0
    2.2625  -11.1673   -1.0612 C   0  0  0  0  0  0  0  0  0  0  0  0
    3.3604  -11.4229   -0.2362 C   0  0  0  0  0  0  0  0  0  0  0  0
    3.3778  -10.8409    1.0436 C   0  0  0  0  0  0  0  0  0  0  0  0
    3.0941  -11.5926   -3.3958 C   0  0  0  0  0  0  0  0  0  0  0  0
    2.8913  -11.1693   -4.7194 C   0  0  0  0  0  0  0  0  0  0  0  0
    1.7638  -10.3864   -5.0582 C   0  0  0  0  0  0  0  0  0  0  0  0
    0.7945  -10.0817   -4.0813 C   0  0  0  0  0  0  0  0  0  0  0  0
    1.7725   -9.6272   -6.3204 C   0  0  0  0  0  0  0  0  0  0  0  0
    1.1978  -10.0391   -7.4604 C   0  0  0  0  0  0  0  0  0  0  0  0
    0.6272  -11.3653   -7.7122 C   0  0  0  0  0  0  0  0  0  0  0  0
    0.3654  -12.2418   -6.8439 O   0  0  0  0  0  0  0  0  0  0  0  0
    0.4570  -11.5128   -9.1468 C   0  0  0  0  0  0  0  0  0  0  0  0
    0.0165  -12.6311   -9.8542 C   0  0  0  0  0  0  0  0  0  0  0  0
    0.0051  -12.5733  -11.2567 C   0  0  0  0  0  0  0  0  0  0  0  0
   -0.5906  -14.0778  -12.2750 Br  0  0  0  0  0  0  0  0  0  0  0  0
    0.4529  -11.4169  -11.9188 C   0  0  0  0  0  0  0  0  0  0  0  0
    0.8926  -10.3020  -11.1893 C   0  0  0  0  0  0  0  0  0  0  0  0
    0.8597  -10.3513   -9.7875 C   0  0  0  0  0  0  0  0  0  0  0  0
    1.2279   -9.3234   -8.7696 C   0  0  0  0  0  0  0  0  0  0  0  0
    1.2949   -7.9790   -8.9613 C   0  0  0  0  0  0  0  0  0  0  0  0
    1.2815   -7.0490   -7.8607 C   0  0  0  0  0  0  0  0  0  0  0  0
    1.2614   -6.2930   -6.9823 N   0  0  0  0  0  0  0  0  0  0  0  0
    1.1895   -7.3760  -10.2662 C   0  0  0  0  0  0  0  0  0  0  0  0
    1.1091   -6.8922  -11.3136 N   0  0  0  0  0  0  0  0  0  0  0  0
   -0.1458   13.0332   -3.5652 H   0  0  0  0  0  0  0  0  0  0  0  0
   -3.6199   12.0928    1.6619 H   0  0  0  0  0  0  0  0  0  0  0  0
   -2.1765   16.7575    0.1514 H   0  0  0  0  0  0  0  0  0  0  0  0
   -4.5054   16.8635    2.7506 H   0  0  0  0  0  0  0  0  0  0  0  0
   -2.4119   17.5955    4.0841 H   0  0  0  0  0  0  0  0  0  0  0  0
   -0.4337   15.8543    3.7854 H   0  0  0  0  0  0  0  0  0  0  0  0
   -1.2826   13.5121    4.5365 H   0  0  0  0  0  0  0  0  0  0  0  0
   -3.8158   13.7555    5.2977 H   0  0  0  0  0  0  0  0  0  0  0  0
   -2.7812   16.0253    6.1726 H   0  0  0  0  0  0  0  0  0  0  0  0
   -4.3861   16.3618    5.3921 H   0  0  0  0  0  0  0  0  0  0  0  0
   -5.2507   14.7209    3.3859 H   0  0  0  0  0  0  0  0  0  0  0  0
    0.5142   11.1139   -0.8122 H   0  0  0  0  0  0  0  0  0  0  0  0
    0.7815    9.8603    1.0509 H   0  0  0  0  0  0  0  0  0  0  0  0
    0.9144    8.1958    1.6611 H   0  0  0  0  0  0  0  0  0  0  0  0
    3.0623    9.5744   -0.0819 H   0  0  0  0  0  0  0  0  0  0  0  0
    3.1012    9.4868    1.7218 H   0  0  0  0  0  0  0  0  0  0  0  0
    3.1966    7.9726    0.7466 H   0  0  0  0  0  0  0  0  0  0  0  0
   -0.8757    8.1072   -4.5659 H   0  0  0  0  0  0  0  0  0  0  0  0
   -1.1597   10.5783   -4.7633 H   0  0  0  0  0  0  0  0  0  0  0  0
   -0.5707    5.6684   -3.7124 H   0  0  0  0  0  0  0  0  0  0  0  0
   -0.2944    3.6116   -2.3287 H   0  0  0  0  0  0  0  0  0  0  0  0
    1.0947    6.0139    0.9934 H   0  0  0  0  0  0  0  0  0  0  0  0
   -0.4220    4.5073    4.0978 H   0  0  0  0  0  0  0  0  0  0  0  0
   -2.0076    6.2268    4.8740 H   0  0  0  0  0  0  0  0  0  0  0  0
   -3.6277    7.2375    3.3051 H   0  0  0  0  0  0  0  0  0  0  0  0
   -4.0773    7.7612    0.8895 H   0  0  0  0  0  0  0  0  0  0  0  0
   -3.5273    6.6393   -0.3857 H   0  0  0  0  0  0  0  0  0  0  0  0
   -5.9873    6.5018   -0.0551 H   0  0  0  0  0  0  0  0  0  0  0  0
   -5.7501    6.0555    1.6750 H   0  0  0  0  0  0  0  0  0  0  0  0
   -5.2081    4.9276    0.3643 H   0  0  0  0  0  0  0  0  0  0  0  0
   -2.2093    4.6542    0.1735 H   0  0  0  0  0  0  0  0  0  0  0  0
   -0.7237   -8.8405    4.6277 H   0  0  0  0  0  0  0  0  0  0  0  0
   -1.6760  -10.5577    6.1176 H   0  0  0  0  0  0  0  0  0  0  0  0
   -0.3377  -12.5150    6.7845 H   0  0  0  0  0  0  0  0  0  0  0  0
    2.7403  -13.5768    5.2167 H   0  0  0  0  0  0  0  0  0  0  0  0
    1.6166  -13.8774    6.5820 H   0  0  0  0  0  0  0  0  0  0  0  0
    4.0797  -12.0321    6.5733 H   0  0  0  0  0  0  0  0  0  0  0  0
    2.8595  -12.0629    7.9167 H   0  0  0  0  0  0  0  0  0  0  0  0
    3.8221  -13.5417    7.5293 H   0  0  0  0  0  0  0  0  0  0  0  0
    2.9628  -11.0690    4.4217 H   0  0  0  0  0  0  0  0  0  0  0  0
    2.3496   -0.3773   -0.0361 H   0  0  0  0  0  0  0  0  0  0  0  0
    3.2599   -1.6808    0.5776 H   0  0  0  0  0  0  0  0  0  0  0  0
    0.2594   -1.6173   -0.2157 H   0  0  0  0  0  0  0  0  0  0  0  0
    0.9943   -3.0823    0.5381 H   0  0  0  0  0  0  0  0  0  0  0  0
    1.5767   -2.5070   -1.0689 H   0  0  0  0  0  0  0  0  0  0  0  0
    3.3507   -3.7493    0.7208 H   0  0  0  0  0  0  0  0  0  0  0  0
    4.1593   -4.9705    1.6268 H   0  0  0  0  0  0  0  0  0  0  0  0
    5.1958   -3.5134    3.2234 H   0  0  0  0  0  0  0  0  0  0  0  0
    4.3494   -2.0651    2.5679 H   0  0  0  0  0  0  0  0  0  0  0  0
    5.5627   -2.9328    1.5517 H   0  0  0  0  0  0  0  0  0  0  0  0
    0.3503   -9.2445    0.9822 H   0  0  0  0  0  0  0  0  0  0  0  0
   -1.3336   -9.2623   -0.6706 H   0  0  0  0  0  0  0  0  0  0  0  0
   -1.4342   -9.2878   -2.4530 H   0  0  0  0  0  0  0  0  0  0  0  0
   -1.0748   -6.9673   -1.6463 H   0  0  0  0  0  0  0  0  0  0  0  0
    0.3882   -7.5112   -2.5548 H   0  0  0  0  0  0  0  0  0  0  0  0
    0.4056   -7.4718   -0.7531 H   0  0  0  0  0  0  0  0  0  0  0  0
    4.2315  -11.9420   -0.6129 H   0  0  0  0  0  0  0  0  0  0  0  0
    4.2776  -10.9043    1.6390 H   0  0  0  0  0  0  0  0  0  0  0  0
    4.0060  -12.1029   -3.1144 H   0  0  0  0  0  0  0  0  0  0  0  0
    3.6551  -11.3716   -5.4578 H   0  0  0  0  0  0  0  0  0  0  0  0
   -0.0298   -9.4242   -4.3209 H   0  0  0  0  0  0  0  0  0  0  0  0
    2.3295   -8.7000   -6.2945 H   0  0  0  0  0  0  0  0  0  0  0  0
   -0.2988  -13.5245   -9.3338 H   0  0  0  0  0  0  0  0  0  0  0  0
    0.4698  -11.3854  -13.0021 H   0  0  0  0  0  0  0  0  0  0  0  0
    1.2725   -9.4508  -11.7270 H   0  0  0  0  0  0  0  0  0  0  0  0
  1  2  2  3
  2  3  1  0
  3  4  2  0
  3  5  1  0
  5  6  2  0
  6  7  1  0
  7  8  2  0
  8  9  1  0
  9 10  2  0
 10 11  1  0
 11 12  2  3
 12 13  1  0
 13 14  3  0
 12 15  1  0
 15 16  3  0
  8 17  1  0
 17 18  1  0
 18 19  1  0
 19 20  2  0
 20 21  1  0
 21 22  1  0
 21 23  1  0
  1 24  1  0
 24 25  2  0
 25 26  1  0
 26 27  1  0
 27 28  1  0
 28 29  1  0
 27 30  1  0
 30 31  2  0
 31 32  1  0
 32 33  1  0
 33 34  2  0
 31 35  1  0
 35 36  2  0
 36 37  1  0
 37 38  2  0
 37 39  1  0
 39 40  2  0
 40 41  1  0
 41 42  2  0
 42 43  1  0
 43 44  2  0
 44 45  1  0
 45 46  1  0
 46 47  1  0
 45 48  2  0
 40 49  1  0
 49 50  1  0
 50 51  1  0
 51 52  1  0
 52 53  1  0
 53 54  1  0
 54 55  2  0
 55 56  1  0
 56 57  1  0
 54 58  1  0
 58 59  1  0
 59 60  1  0
 60 61  1  0
 61 62  1  0
 62 63  1  0
 63 64  2  0
 64 65  1  0
 65 66  2  0
 66 67  1  0
 67 68  1  0
 68 69  1  0
 67 70  2  0
 62 71  2  0
 71 72  1  0
 72 73  1  0
 73 74  1  0
 74 75  1  0
 75 76  1  0
 76 77  1  0
 77 78  1  0
 78 79  1  0
 79 80  1  0
 80 81  1  0
 78 82  1  0
 82 83  1  0
 75 84  1  0
 84 85  1  0
 71 86  1  0
 86 87  2  0
 87 88  1  0
 88 89  1  0
 89 90  1  0
 90 91  1  0
 89 92  1  0
 92 93  2  0
 93 94  1  0
 94 95  1  0
 95 96  2  0
 93 97  1  0
 97 98  2  0
 98 99  1  0
 99100  2  0
 99101  1  0
101102  2  3
102103  1  0
103104  2  0
103105  1  0
105106  2  0
106107  1  0
107108  1  0
107109  2  0
109110  1  0
110111  2  0
111112  1  0
112113  2  3
113114  1  0
114115  3  0
113116  1  0
116117  3  0
 11  2  1  0
 23 17  1  0
 34 24  1  0
 81 39  1  0
 96 86  1  0
112102  1  0
 10  5  1  0
 22 18  1  0
 32 26  2  0
 48 41  1  0
 80 49  2  0
 94 88  2  0
111105  1  0
 23  7  1  0
 38 30  1  0
 79 51  2  0
100 92  1  0
 77 52  2  0
 57 53  2  0
 76 58  2  0
 74 59  2  0
 73 61  2  0
 70 63  1  0
  1118  1  0
  6119  1  0
  9120  1  0
 17121  1  0
 18122  1  0
 19123  1  0
 20124  1  0
 21125  1  0
 22126  1  0
 22127  1  0
 23128  1  0
 25129  1  0
 28130  1  0
 28131  1  0
 29132  1  0
 29133  1  0
 29134  1  0
 33135  1  0
 34136  1  0
 35137  1  0
 36138  1  0
 38139  1  0
 42140  1  0
 43141  1  0
 44142  1  0
 46143  1  0
 46144  1  0
 47145  1  0
 47146  1  0
 47147  1  0
 48148  1  0
 64149  1  0
 65150  1  0
 66151  1  0
 68152  1  0
 68153  1  0
 69154  1  0
 69155  1  0
 69156  1  0
 70157  1  0
 82158  1  0
 82159  1  0
 83160  1  0
 83161  1  0
 83162  1  0
 84163  1  0
 84164  1  0
 85165  1  0
 85166  1  0
 85167  1  0
 87168  1  0
 90169  1  0
 90170  1  0
 91171  1  0
 91172  1  0
 91173  1  0
 95174  1  0
 96175  1  0
 97176  1  0
 98177  1  0
100178  1  0
101179  1  0
106180  1  0
109181  1  0
110182  1  0
M  END

