
     RDKit          3D

226254  0  0  0  0  0  0  0  0999 V2000
    3.5610    3.6943   12.1165 C   0  0  0  0  0  0  0  0  0  0  0  0
    3.5072    4.9031   11.5305 C   0  0  0  0  0  0  0  0  0  0  0  0
    2.5477    5.2831   10.4852 C   0  0  0  0  0  0  0  0  0  0  0  0
    1.7542    4.5107    9.8815 O   0  0  0  0  0  0  0  0  0  0  0  0
    2.5696    6.7201   10.3373 C   0  0  0  0  0  0  0  0  0  0  0  0
    1.7473    7.4982    9.4907 C   0  0  0  0  0  0  0  0  0  0  0  0
    1.9776    8.8563    9.5861 C   0  0  0  0  0  0  0  0  0  0  0  0
    2.9525    9.4263   10.4652 C   0  0  0  0  0  0  0  0  0  0  0  0
    3.7397    8.6723   11.3204 C   0  0  0  0  0  0  0  0  0  0  0  0
    3.5344    7.2649   11.2262 C   0  0  0  0  0  0  0  0  0  0  0  0
    4.2153    6.1501   11.9522 C   0  0  0  0  0  0  0  0  0  0  0  0
    5.4024    6.2162   12.6138 C   0  0  0  0  0  0  0  0  0  0  0  0
    6.1079    7.4521   12.8367 C   0  0  0  0  0  0  0  0  0  0  0  0
    6.6973    8.4319   13.0258 N   0  0  0  0  0  0  0  0  0  0  0  0
    6.1098    5.0396   13.0498 C   0  0  0  0  0  0  0  0  0  0  0  0
    6.6854    4.1058   13.4140 N   0  0  0  0  0  0  0  0  0  0  0  0
    2.6232   10.8025    9.9692 C   0  0  0  0  0  0  0  0  0  0  0  0
    3.6279   11.4739    8.9814 C   0  0  0  0  0  0  0  0  0  0  0  0
    4.3137   10.4176    8.1423 C   0  0  0  0  0  0  0  0  0  0  0  0
    3.3840    9.9048    7.3369 C   0  0  0  0  0  0  0  0  0  0  0  0
    2.0917   10.6239    7.6606 C   0  0  0  0  0  0  0  0  0  0  0  0
    2.6527   12.0064    7.9504 C   0  0  0  0  0  0  0  0  0  0  0  0
    1.6072   10.2212    9.0854 C   0  0  0  0  0  0  0  0  0  0  0  0
    3.1293    2.4637   11.4371 C   0  0  0  0  0  0  0  0  0  0  0  0
    2.5648    1.3447   12.0360 C   0  0  0  0  0  0  0  0  0  0  0  0
    2.4918    0.2153   11.1886 C   0  0  0  0  0  0  0  0  0  0  0  0
    1.9292   -1.0880   11.6476 C   0  0  0  0  0  0  0  0  0  0  0  0
    0.8519   -1.0984   12.5554 C   0  0  0  0  0  0  0  0  0  0  0  0
    0.3284   -2.3062   13.0288 C   0  0  0  0  0  0  0  0  0  0  0  0
    0.8711   -3.5206   12.6049 C   0  0  0  0  0  0  0  0  0  0  0  0
    1.9401   -3.5273   11.7076 C   0  0  0  0  0  0  0  0  0  0  0  0
    2.4681   -2.3254   11.2296 C   0  0  0  0  0  0  0  0  0  0  0  0
    3.0428    0.4717    9.9211 C   0  0  0  0  0  0  0  0  0  0  0  0
    3.5955    2.0546    9.8817 S   0  0  0  0  0  0  0  0  0  0  0  0
    3.3650   -0.4691    8.8405 C   0  0  0  0  0  0  0  0  0  0  0  0
    4.6751   -0.6920    8.3806 C   0  0  0  0  0  0  0  0  0  0  0  0
    5.8934   -0.3199    9.1265 C   0  0  0  0  0  0  0  0  0  0  0  0
    6.9193    0.4181    8.5166 C   0  0  0  0  0  0  0  0  0  0  0  0
    8.0385    0.8043    9.2618 C   0  0  0  0  0  0  0  0  0  0  0  0
    8.1478    0.4493   10.6086 C   0  0  0  0  0  0  0  0  0  0  0  0
    7.1377   -0.3114   11.2227 C   0  0  0  0  0  0  0  0  0  0  0  0
    7.2278   -0.6967   12.6735 C   0  0  0  0  0  0  0  0  0  0  0  0
    6.3323    0.1972   13.5259 C   0  0  0  0  0  0  0  0  0  0  0  0
    6.0142   -0.6831   10.4746 C   0  0  0  0  0  0  0  0  0  0  0  0
    4.6684   -1.3546    7.1618 C   0  0  0  0  0  0  0  0  0  0  0  0
    5.9033   -1.8827    6.1089 S   0  0  0  0  0  0  0  0  0  0  0  0
    4.7416   -2.4683    5.0262 C   0  0  0  0  0  0  0  0  0  0  0  0
    4.6807   -3.2369    3.9042 C   0  0  0  0  0  0  0  0  0  0  0  0
    5.6809   -3.8321    3.1343 C   0  0  0  0  0  0  0  0  0  0  0  0
    5.2966   -4.6810    2.0551 C   0  0  0  0  0  0  0  0  0  0  0  0
    6.2950   -5.2242    1.3157 N   0  0  0  0  0  0  0  0  0  0  0  0
    7.6055   -4.5946    2.1100 S   0  0  0  0  0  0  0  0  0  0  0  0
    7.0102   -3.6533    3.3343 N   0  0  0  0  0  0  0  0  0  0  0  0
    3.9329   -4.8792    1.8052 C   0  0  0  0  0  0  0  0  0  0  0  0
    3.3132   -5.3708    0.6944 C   0  0  0  0  0  0  0  0  0  0  0  0
    3.8365   -5.6863   -0.8874 S   0  0  0  0  0  0  0  0  0  0  0  0
    2.2776   -5.3820   -1.4994 C   0  0  0  0  0  0  0  0  0  0  0  0
    1.7790   -5.2637   -2.7963 C   0  0  0  0  0  0  0  0  0  0  0  0
    2.6279   -5.4395   -3.9842 C   0  0  0  0  0  0  0  0  0  0  0  0
    3.5038   -4.4173   -4.3735 C   0  0  0  0  0  0  0  0  0  0  0  0
    4.3352   -4.5915   -5.4822 C   0  0  0  0  0  0  0  0  0  0  0  0
    4.2928   -5.7839   -6.2086 C   0  0  0  0  0  0  0  0  0  0  0  0
    3.4161   -6.8136   -5.8297 C   0  0  0  0  0  0  0  0  0  0  0  0
    3.4044   -8.1120   -6.5871 C   0  0  0  0  0  0  0  0  0  0  0  0
    4.5420   -9.0141   -6.1237 C   0  0  0  0  0  0  0  0  0  0  0  0
    2.5947   -6.6403   -4.7047 C   0  0  0  0  0  0  0  0  0  0  0  0
    0.4465   -4.7974   -2.7905 C   0  0  0  0  0  0  0  0  0  0  0  0
   -0.0305   -4.5103   -1.1785 S   0  0  0  0  0  0  0  0  0  0  0  0
    1.4176   -5.0020   -0.5029 C   0  0  0  0  0  0  0  0  0  0  0  0
    2.0091   -4.9793    0.7563 C   0  0  0  0  0  0  0  0  0  0  0  0
    1.7383   -4.2447    1.8701 N   0  0  0  0  0  0  0  0  0  0  0  0
    2.9299   -4.2434    2.5551 C   0  0  0  0  0  0  0  0  0  0  0  0
    3.3165   -3.4706    3.6804 C   0  0  0  0  0  0  0  0  0  0  0  0
    2.5553   -2.9481    4.6967 N   0  0  0  0  0  0  0  0  0  0  0  0
    3.4684   -2.3012    5.4610 C   0  0  0  0  0  0  0  0  0  0  0  0
    3.4194   -1.6746    6.6953 C   0  0  0  0  0  0  0  0  0  0  0  0
    2.2299   -1.1161    7.7410 S   0  0  0  0  0  0  0  0  0  0  0  0
    1.3070   -3.5005    5.2378 C   0  0  0  0  0  0  0  0  0  0  0  0
    1.5980   -4.6487    6.1967 C   0  0  0  0  0  0  0  0  0  0  0  0
    0.6917   -3.2156    1.9325 C   0  0  0  0  0  0  0  0  0  0  0  0
   -0.6898   -3.8315    2.1860 C   0  0  0  0  0  0  0  0  0  0  0  0
   -0.4045   -4.4688   -3.9530 C   0  0  0  0  0  0  0  0  0  0  0  0
   -1.7001   -3.9527   -3.8693 C   0  0  0  0  0  0  0  0  0  0  0  0
   -2.2438   -3.6055   -5.1190 C   0  0  0  0  0  0  0  0  0  0  0  0
   -3.5009   -3.0062   -5.3623 C   0  0  0  0  0  0  0  0  0  0  0  0
   -4.4866   -2.7379   -4.2913 C   0  0  0  0  0  0  0  0  0  0  0  0
   -5.8486   -3.0161   -4.3505 C   0  0  0  0  0  0  0  0  0  0  0  0
   -6.5635   -2.5536   -3.2366 C   0  0  0  0  0  0  0  0  0  0  0  0
   -5.7796   -1.9002   -2.2939 C   0  0  0  0  0  0  0  0  0  0  0  0
   -6.3202   -1.3097   -1.0433 C   0  0  0  0  0  0  0  0  0  0  0  0
   -5.6373   -0.6721   -0.0806 C   0  0  0  0  0  0  0  0  0  0  0  0
   -4.1916   -0.4401   -0.0815 C   0  0  0  0  0  0  0  0  0  0  0  0
   -3.2843   -1.1385    0.7009 C   0  0  0  0  0  0  0  0  0  0  0  0
   -1.9602   -0.7826    0.4461 C   0  0  0  0  0  0  0  0  0  0  0  0
   -1.8354    0.1815   -0.5396 C   0  0  0  0  0  0  0  0  0  0  0  0
   -0.2964    0.6531   -1.3217 S   0  0  0  0  0  0  0  0  0  0  0  0
   -0.3525   -0.7550   -2.4852 C   0  0  0  0  0  0  0  0  0  0  0  0
    0.9439   -0.8470   -3.2720 C   0  0  0  0  0  0  0  0  0  0  0  0
   -3.3617    0.6488   -1.0674 S   0  0  0  0  0  0  0  0  0  0  0  0
   -4.1899   -1.9212   -2.8574 S   0  0  0  0  0  0  0  0  0  0  0  0
   -3.7753   -2.6459   -6.6971 C   0  0  0  0  0  0  0  0  0  0  0  0
   -2.9004   -2.9143   -7.7541 C   0  0  0  0  0  0  0  0  0  0  0  0
   -1.6925   -3.6022   -7.5170 C   0  0  0  0  0  0  0  0  0  0  0  0
   -0.8196   -4.0507   -8.6104 C   0  0  0  0  0  0  0  0  0  0  0  0
   -0.5994   -5.3771   -8.9553 C   0  0  0  0  0  0  0  0  0  0  0  0
    0.1820   -5.5257  -10.1058 C   0  0  0  0  0  0  0  0  0  0  0  0
    0.5588   -4.3159  -10.6860 C   0  0  0  0  0  0  0  0  0  0  0  0
    1.4216   -4.2139  -11.8817 C   0  0  0  0  0  0  0  0  0  0  0  0
    1.5719   -3.1373  -12.6658 C   0  0  0  0  0  0  0  0  0  0  0  0
    0.7782   -1.9001  -12.5910 C   0  0  0  0  0  0  0  0  0  0  0  0
   -0.6097   -1.7930  -12.5183 C   0  0  0  0  0  0  0  0  0  0  0  0
   -1.0590   -0.4645  -12.5117 C   0  0  0  0  0  0  0  0  0  0  0  0
   -0.0253    0.4541  -12.6242 C   0  0  0  0  0  0  0  0  0  0  0  0
   -0.1966    2.2367  -12.6487 S   0  0  0  0  0  0  0  0  0  0  0  0
    0.1270    2.4138  -10.8620 C   0  0  0  0  0  0  0  0  0  0  0  0
    0.4166    3.8698  -10.5278 C   0  0  0  0  0  0  0  0  0  0  0  0
    1.4375   -0.3613  -12.7313 S   0  0  0  0  0  0  0  0  0  0  0  0
   -0.0257   -3.0624   -9.7170 S   0  0  0  0  0  0  0  0  0  0  0  0
   -1.3845   -3.9003   -6.1818 C   0  0  0  0  0  0  0  0  0  0  0  0
    0.0461   -4.5443   -5.5770 S   0  0  0  0  0  0  0  0  0  0  0  0
   -3.3449   -2.4080   -8.9897 C   0  0  0  0  0  0  0  0  0  0  0  0
   -4.5249   -1.6748   -8.8813 C   0  0  0  0  0  0  0  0  0  0  0  0
   -5.0783   -1.7590   -7.2863 S   0  0  0  0  0  0  0  0  0  0  0  0
   -5.1805   -0.9579   -9.9894 C   0  0  0  0  0  0  0  0  0  0  0  0
   -5.6533    0.3008   -9.8938 C   0  0  0  0  0  0  0  0  0  0  0  0
   -5.6161    1.1509   -8.6958 C   0  0  0  0  0  0  0  0  0  0  0  0
   -4.7467    1.1257   -7.7866 O   0  0  0  0  0  0  0  0  0  0  0  0
   -6.6534    2.1513   -8.8135 C   0  0  0  0  0  0  0  0  0  0  0  0
   -7.0953    3.0388   -7.8068 C   0  0  0  0  0  0  0  0  0  0  0  0
   -8.1842    3.8027   -8.1765 C   0  0  0  0  0  0  0  0  0  0  0  0
   -8.8062    3.7111   -9.4632 C   0  0  0  0  0  0  0  0  0  0  0  0
   -8.3835    2.8346  -10.4530 C   0  0  0  0  0  0  0  0  0  0  0  0
   -7.2500    2.0493  -10.0965 C   0  0  0  0  0  0  0  0  0  0  0  0
   -6.5440    0.9934  -10.8723 C   0  0  0  0  0  0  0  0  0  0  0  0
   -6.4945    0.8868  -12.2244 C   0  0  0  0  0  0  0  0  0  0  0  0
   -5.5168    0.0618  -12.8881 C   0  0  0  0  0  0  0  0  0  0  0  0
   -4.7281   -0.5887  -13.4284 N   0  0  0  0  0  0  0  0  0  0  0  0
   -7.2724    1.7276  -13.0966 C   0  0  0  0  0  0  0  0  0  0  0  0
   -7.8908    2.3967  -13.8117 N   0  0  0  0  0  0  0  0  0  0  0  0
   -9.8153    4.7511   -9.0657 C   0  0  0  0  0  0  0  0  0  0  0  0
  -11.2715    4.2832   -8.7548 C   0  0  0  0  0  0  0  0  0  0  0  0
  -11.2507    2.8697   -8.2246 C   0  0  0  0  0  0  0  0  0  0  0  0
  -10.6694    2.9181   -7.0259 C   0  0  0  0  0  0  0  0  0  0  0  0
  -10.3216    4.3685   -6.7753 C   0  0  0  0  0  0  0  0  0  0  0  0
  -11.5106    5.0220   -7.4488 C   0  0  0  0  0  0  0  0  0  0  0  0
   -9.1869    4.8263   -7.7417 C   0  0  0  0  0  0  0  0  0  0  0  0
    4.0238    3.5792   13.0844 H   0  0  0  0  0  0  0  0  0  0  0  0
    1.0093    7.0715    8.8284 H   0  0  0  0  0  0  0  0  0  0  0  0
    4.4233    9.1552   11.9972 H   0  0  0  0  0  0  0  0  0  0  0  0
    2.2104   11.4762   10.7524 H   0  0  0  0  0  0  0  0  0  0  0  0
    4.3014   12.2298    9.4407 H   0  0  0  0  0  0  0  0  0  0  0  0
    5.3660   10.1490    8.1455 H   0  0  0  0  0  0  0  0  0  0  0  0
    3.5451    9.1605    6.5621 H   0  0  0  0  0  0  0  0  0  0  0  0
    1.3171   10.5833    6.8666 H   0  0  0  0  0  0  0  0  0  0  0  0
    1.8987   12.7125    8.3734 H   0  0  0  0  0  0  0  0  0  0  0  0
    3.1554   12.4735    7.0691 H   0  0  0  0  0  0  0  0  0  0  0  0
    0.5642   10.5236    9.3324 H   0  0  0  0  0  0  0  0  0  0  0  0
    2.2598    1.3386   13.0766 H   0  0  0  0  0  0  0  0  0  0  0  0
    0.4058   -0.1717   12.8955 H   0  0  0  0  0  0  0  0  0  0  0  0
   -0.4973   -2.2966   13.7280 H   0  0  0  0  0  0  0  0  0  0  0  0
    0.4693   -4.4534   12.9759 H   0  0  0  0  0  0  0  0  0  0  0  0
    2.3674   -4.4706   11.3879 H   0  0  0  0  0  0  0  0  0  0  0  0
    3.3086   -2.3802   10.5571 H   0  0  0  0  0  0  0  0  0  0  0  0
    6.8385    0.7161    7.4803 H   0  0  0  0  0  0  0  0  0  0  0  0
    8.8198    1.3896    8.7934 H   0  0  0  0  0  0  0  0  0  0  0  0
    9.0157    0.7637   11.1731 H   0  0  0  0  0  0  0  0  0  0  0  0
    8.2766   -0.6225   13.0341 H   0  0  0  0  0  0  0  0  0  0  0  0
    6.9048   -1.7537   12.7948 H   0  0  0  0  0  0  0  0  0  0  0  0
    5.2731    0.1148   13.1943 H   0  0  0  0  0  0  0  0  0  0  0  0
    6.6614    1.2561   13.4451 H   0  0  0  0  0  0  0  0  0  0  0  0
    6.3938   -0.1184   14.5880 H   0  0  0  0  0  0  0  0  0  0  0  0
    5.2340   -1.2560   10.9549 H   0  0  0  0  0  0  0  0  0  0  0  0
    3.5455   -3.4889   -3.8174 H   0  0  0  0  0  0  0  0  0  0  0  0
    5.0131   -3.8009   -5.7787 H   0  0  0  0  0  0  0  0  0  0  0  0
    4.9502   -5.9094   -7.0589 H   0  0  0  0  0  0  0  0  0  0  0  0
    3.5097   -7.9131   -7.6760 H   0  0  0  0  0  0  0  0  0  0  0  0
    2.4349   -8.6347   -6.4380 H   0  0  0  0  0  0  0  0  0  0  0  0
    4.5050   -9.9732   -6.6819 H   0  0  0  0  0  0  0  0  0  0  0  0
    5.5218   -8.5271   -6.3161 H   0  0  0  0  0  0  0  0  0  0  0  0
    4.4466   -9.2292   -5.0381 H   0  0  0  0  0  0  0  0  0  0  0  0
    1.9338   -7.4367   -4.3875 H   0  0  0  0  0  0  0  0  0  0  0  0
    0.6701   -3.9014    4.4397 H   0  0  0  0  0  0  0  0  0  0  0  0
    0.7343   -2.7064    5.7603 H   0  0  0  0  0  0  0  0  0  0  0  0
    2.1657   -5.4460    5.6729 H   0  0  0  0  0  0  0  0  0  0  0  0
    2.1935   -4.2932    7.0630 H   0  0  0  0  0  0  0  0  0  0  0  0
    0.6459   -5.0734    6.5760 H   0  0  0  0  0  0  0  0  0  0  0  0
    0.9158   -2.4684    2.7187 H   0  0  0  0  0  0  0  0  0  0  0  0
    0.6874   -2.6408    0.9828 H   0  0  0  0  0  0  0  0  0  0  0  0
   -1.2250   -4.0108    1.2338 H   0  0  0  0  0  0  0  0  0  0  0  0
   -1.3084   -3.1316    2.7875 H   0  0  0  0  0  0  0  0  0  0  0  0
   -0.6089   -4.7983    2.7280 H   0  0  0  0  0  0  0  0  0  0  0  0
   -2.2141   -3.8154   -2.9306 H   0  0  0  0  0  0  0  0  0  0  0  0
   -6.3136   -3.5353   -5.1766 H   0  0  0  0  0  0  0  0  0  0  0  0
   -7.6332   -2.6926   -3.1284 H   0  0  0  0  0  0  0  0  0  0  0  0
   -7.3837   -1.4409   -0.8783 H   0  0  0  0  0  0  0  0  0  0  0  0
   -6.1757   -0.3717    0.8096 H   0  0  0  0  0  0  0  0  0  0  0  0
   -3.5683   -1.9114    1.4038 H   0  0  0  0  0  0  0  0  0  0  0  0
   -1.1194   -1.2429    0.9328 H   0  0  0  0  0  0  0  0  0  0  0  0
   -0.5017   -1.6984   -1.9250 H   0  0  0  0  0  0  0  0  0  0  0  0
   -1.2011   -0.6184   -3.1893 H   0  0  0  0  0  0  0  0  0  0  0  0
    1.7973   -1.0040   -2.5790 H   0  0  0  0  0  0  0  0  0  0  0  0
    0.8915   -1.7050   -3.9703 H   0  0  0  0  0  0  0  0  0  0  0  0
    1.1005    0.0819   -3.8633 H   0  0  0  0  0  0  0  0  0  0  0  0
   -1.0009   -6.2176   -8.3979 H   0  0  0  0  0  0  0  0  0  0  0  0
    0.4521   -6.4913  -10.5112 H   0  0  0  0  0  0  0  0  0  0  0  0
    2.0174   -5.0870  -12.1225 H   0  0  0  0  0  0  0  0  0  0  0  0
    2.3414   -3.1738  -13.4279 H   0  0  0  0  0  0  0  0  0  0  0  0
   -1.2819   -2.6409  -12.4685 H   0  0  0  0  0  0  0  0  0  0  0  0
   -2.1010   -0.1853  -12.4425 H   0  0  0  0  0  0  0  0  0  0  0  0
    1.0058    1.8008  -10.5659 H   0  0  0  0  0  0  0  0  0  0  0  0
   -0.7612    2.0699  -10.2913 H   0  0  0  0  0  0  0  0  0  0  0  0
    0.6211    3.9702   -9.4405 H   0  0  0  0  0  0  0  0  0  0  0  0
    1.3056    4.2237  -11.0936 H   0  0  0  0  0  0  0  0  0  0  0  0
   -0.4559    4.5063  -10.7905 H   0  0  0  0  0  0  0  0  0  0  0  0
   -2.8127   -2.5169   -9.9245 H   0  0  0  0  0  0  0  0  0  0  0  0
   -5.3078   -1.5139  -10.9074 H   0  0  0  0  0  0  0  0  0  0  0  0
   -6.6480    3.0916   -6.8240 H   0  0  0  0  0  0  0  0  0  0  0  0
   -8.9200    2.7450  -11.3829 H   0  0  0  0  0  0  0  0  0  0  0  0
   -9.7394    5.6999   -9.6431 H   0  0  0  0  0  0  0  0  0  0  0  0
  -12.0166    4.4770   -9.5556 H   0  0  0  0  0  0  0  0  0  0  0  0
  -11.6888    1.9887   -8.6838 H   0  0  0  0  0  0  0  0  0  0  0  0
  -10.5603    2.0850   -6.3393 H   0  0  0  0  0  0  0  0  0  0  0  0
  -10.1693    4.6353   -5.7073 H   0  0  0  0  0  0  0  0  0  0  0  0
  -11.4091    6.1306   -7.5385 H   0  0  0  0  0  0  0  0  0  0  0  0
  -12.4865    4.7704   -6.9696 H   0  0  0  0  0  0  0  0  0  0  0  0
   -8.7446    5.8214   -7.5077 H   0  0  0  0  0  0  0  0  0  0  0  0
  1  2  2  3
  2  3  1  0
  3  4  2  0
  3  5  1  0
  5  6  2  0
  6  7  1  0
  7  8  2  0
  8  9  1  0
  9 10  2  0
 10 11  1  0
 11 12  2  3
 12 13  1  0
 13 14  3  0
 12 15  1  0
 15 16  3  0
  8 17  1  0
 17 18  1  0
 18 19  1  0
 19 20  2  0
 20 21  1  0
 21 22  1  0
 21 23  1  0
  1 24  1  0
 24 25  2  0
 25 26  1  0
 26 27  1  0
 27 28  2  0
 28 29  1  0
 29 30  2  0
 30 31  1  0
 31 32  2  0
 26 33  2  0
 33 34  1  0
 33 35  1  0
 35 36  2  0
 36 37  1  0
 37 38  2  0
 38 39  1  0
 39 40  2  0
 40 41  1  0
 41 42  1  0
 42 43  1  0
 41 44  2  0
 36 45  1  0
 45 46  1  0
 46 47  1  0
 47 48  1  0
 48 49  1  0
 49 50  1  0
 50 51  2  0
 51 52  1  0
 52 53  1  0
 50 54  1  0
 54 55  1  0
 55 56  1  0
 56 57  1  0
 57 58  1  0
 58 59  1  0
 59 60  2  0
 60 61  1  0
 61 62  2  0
 62 63  1  0
 63 64  1  0
 64 65  1  0
 63 66  2  0
 58 67  2  0
 67 68  1  0
 68 69  1  0
 69 70  1  0
 70 71  1  0
 71 72  1  0
 72 73  1  0
 73 74  1  0
 74 75  1  0
 75 76  1  0
 76 77  1  0
 74 78  1  0
 78 79  1  0
 71 80  1  0
 80 81  1  0
 67 82  1  0
 82 83  2  0
 83 84  1  0
 84 85  2  0
 85 86  1  0
 86 87  2  0
 87 88  1  0
 88 89  2  0
 89 90  1  0
 90 91  2  3
 91 92  1  0
 92 93  2  0
 93 94  1  0
 94 95  2  0
 95 96  1  0
 96 97  1  0
 97 98  1  0
 95 99  1  0
 89100  1  0
 85101  1  0
101102  2  0
102103  1  0
103104  1  0
104105  2  0
105106  1  0
106107  2  0
107108  1  0
108109  2  3
109110  1  0
110111  2  0
111112  1  0
112113  2  0
113114  1  0
114115  1  0
115116  1  0
113117  1  0
107118  1  0
103119  2  0
119120  1  0
102121  1  0
121122  2  0
122123  1  0
122124  1  0
124125  2  3
125126  1  0
126127  2  0
126128  1  0
128129  2  0
129130  1  0
130131  2  0
131132  1  0
132133  2  0
133134  1  0
134135  2  3
135136  1  0
136137  3  0
135138  1  0
138139  3  0
131140  1  0
140141  1  0
141142  1  0
142143  2  0
143144  1  0
144145  1  0
144146  1  0
 11  2  1  0
 23 17  1  0
 34 24  1  0
 77 35  1  0
120 82  1  0
134125  1  0
146140  1  0
 10  5  1  0
 22 18  1  0
 32 27  1  0
 44 37  1  0
 76 45  2  0
119 84  1  0
133128  1  0
145141  1  0
 23  7  1  0
 75 47  2  0
100 86  1  0
123101  1  0
146130  1  0
 73 48  2  0
 99 92  1  0
118104  1  0
 53 49  2  0
 72 54  2  0
117110  1  0
 70 55  2  0
 69 57  2  0
 66 59  1  0
  1147  1  0
  6148  1  0
  9149  1  0
 17150  1  0
 18151  1  0
 19152  1  0
 20153  1  0
 21154  1  0
 22155  1  0
 22156  1  0
 23157  1  0
 25158  1  0
 28159  1  0
 29160  1  0
 30161  1  0
 31162  1  0
 32163  1  0
 38164  1  0
 39165  1  0
 40166  1  0
 42167  1  0
 42168  1  0
 43169  1  0
 43170  1  0
 43171  1  0
 44172  1  0
 60173  1  0
 61174  1  0
 62175  1  0
 64176  1  0
 64177  1  0
 65178  1  0
 65179  1  0
 65180  1  0
 66181  1  0
 78182  1  0
 78183  1  0
 79184  1  0
 79185  1  0
 79186  1  0
 80187  1  0
 80188  1  0
 81189  1  0
 81190  1  0
 81191  1  0
 83192  1  0
 87193  1  0
 88194  1  0
 90195  1  0
 91196  1  0
 93197  1  0
 94198  1  0
 97199  1  0
 97200  1  0
 98201  1  0
 98202  1  0
 98203  1  0
105204  1  0
106205  1  0
108206  1  0
109207  1  0
111208  1  0
112209  1  0
115210  1  0
115211  1  0
116212  1  0
116213  1  0
116214  1  0
121215  1  0
124216  1  0
129217  1  0
132218  1  0
140219  1  0
141220  1  0
142221  1  0
143222  1  0
144223  1  0
145224  1  0
145225  1  0
146226  1  0
M  END

