
     RDKit          3D

179202  0  0  0  0  0  0  0  0999 V2000
    8.6519    5.0171   -1.5405 C   0  0  0  0  0  0  0  0  0  0  0  0
    7.7485    4.9685   -2.5451 C   0  0  0  0  0  0  0  0  0  0  0  0
    6.9609    3.7815   -2.9215 C   0  0  0  0  0  0  0  0  0  0  0  0
    6.8143    2.7290   -2.2446 O   0  0  0  0  0  0  0  0  0  0  0  0
    6.3952    3.9909   -4.2320 C   0  0  0  0  0  0  0  0  0  0  0  0
    5.6853    3.0458   -5.0069 C   0  0  0  0  0  0  0  0  0  0  0  0
    5.3667    3.4887   -6.2752 C   0  0  0  0  0  0  0  0  0  0  0  0
    5.7279    4.7848   -6.7654 C   0  0  0  0  0  0  0  0  0  0  0  0
    6.4268    5.7149   -6.0078 C   0  0  0  0  0  0  0  0  0  0  0  0
    6.7406    5.2881   -4.6858 C   0  0  0  0  0  0  0  0  0  0  0  0
    7.5000    5.9943   -3.6100 C   0  0  0  0  0  0  0  0  0  0  0  0
    7.6894    7.3362   -3.5038 C   0  0  0  0  0  0  0  0  0  0  0  0
    7.1955    8.2652   -4.4847 C   0  0  0  0  0  0  0  0  0  0  0  0
    6.7972    9.0253   -5.2615 N   0  0  0  0  0  0  0  0  0  0  0  0
    8.2604    7.9444   -2.3280 C   0  0  0  0  0  0  0  0  0  0  0  0
    8.7147    8.4404   -1.3891 N   0  0  0  0  0  0  0  0  0  0  0  0
    5.0860    4.4792   -8.0868 C   0  0  0  0  0  0  0  0  0  0  0  0
    3.7111    5.1538   -8.3669 C   0  0  0  0  0  0  0  0  0  0  0  0
    3.1087    4.4011   -9.5301 C   0  0  0  0  0  0  0  0  0  0  0  0
    2.7769    3.1899   -9.0679 C   0  0  0  0  0  0  0  0  0  0  0  0
    3.1639    3.1668   -7.6093 C   0  0  0  0  0  0  0  0  0  0  0  0
    2.8290    4.6075   -7.2557 C   0  0  0  0  0  0  0  0  0  0  0  0
    4.7187    3.1516   -7.5819 C   0  0  0  0  0  0  0  0  0  0  0  0
    8.8396    3.8810   -0.6261 C   0  0  0  0  0  0  0  0  0  0  0  0
    7.9150    3.6210    0.3851 C   0  0  0  0  0  0  0  0  0  0  0  0
    6.8949    4.3909    0.7976 N   0  0  0  0  0  0  0  0  0  0  0  0
    6.1776    3.6073    1.5977 N   0  0  0  0  0  0  0  0  0  0  0  0
    4.9393    4.0335    2.2401 C   0  0  0  0  0  0  0  0  0  0  0  0
    3.7451    3.6909    1.3587 C   0  0  0  0  0  0  0  0  0  0  0  0
    6.6486    2.3658    1.6701 N   0  0  0  0  0  0  0  0  0  0  0  0
    7.7669    2.3778    0.9229 C   0  0  0  0  0  0  0  0  0  0  0  0
    8.5302    1.2874    0.4958 C   0  0  0  0  0  0  0  0  0  0  0  0
    9.5810    1.5542   -0.4110 C   0  0  0  0  0  0  0  0  0  0  0  0
    9.7376    2.8464   -0.9630 C   0  0  0  0  0  0  0  0  0  0  0  0
   10.3306    0.5354   -0.8994 F   0  0  0  0  0  0  0  0  0  0  0  0
    7.9352   -0.0520    0.5279 C   0  0  0  0  0  0  0  0  0  0  0  0
    8.1896   -1.1091    1.4229 C   0  0  0  0  0  0  0  0  0  0  0  0
    9.0822   -1.0342    2.5911 C   0  0  0  0  0  0  0  0  0  0  0  0
   10.0633   -2.0159    2.7964 C   0  0  0  0  0  0  0  0  0  0  0  0
   10.9165   -1.9343    3.8985 C   0  0  0  0  0  0  0  0  0  0  0  0
   10.7861   -0.8862    4.8138 C   0  0  0  0  0  0  0  0  0  0  0  0
    9.7844    0.0853    4.6374 C   0  0  0  0  0  0  0  0  0  0  0  0
    9.6232    1.2112    5.6231 C   0  0  0  0  0  0  0  0  0  0  0  0
   10.2715    2.4891    5.1000 C   0  0  0  0  0  0  0  0  0  0  0  0
    8.9473    0.0131    3.5152 C   0  0  0  0  0  0  0  0  0  0  0  0
    7.3709   -2.2068    1.1217 C   0  0  0  0  0  0  0  0  0  0  0  0
    6.9847   -3.6567    1.9378 S   0  0  0  0  0  0  0  0  0  0  0  0
    5.7433   -4.0106    0.8263 C   0  0  0  0  0  0  0  0  0  0  0  0
    4.5672   -4.7153    0.8580 C   0  0  0  0  0  0  0  0  0  0  0  0
    4.0333   -5.5665    1.8397 C   0  0  0  0  0  0  0  0  0  0  0  0
    2.6421   -5.8906    1.7912 C   0  0  0  0  0  0  0  0  0  0  0  0
    2.1526   -6.6687    2.7885 N   0  0  0  0  0  0  0  0  0  0  0  0
    3.5350   -6.8856    3.6746 S   0  0  0  0  0  0  0  0  0  0  0  0
    4.7360   -6.0555    2.8908 N   0  0  0  0  0  0  0  0  0  0  0  0
    1.8739   -5.3895    0.7351 C   0  0  0  0  0  0  0  0  0  0  0  0
    0.5371   -5.4649    0.4392 C   0  0  0  0  0  0  0  0  0  0  0  0
   -0.9182   -5.8305    1.2282 S   0  0  0  0  0  0  0  0  0  0  0  0
   -1.8156   -5.0216    0.0127 C   0  0  0  0  0  0  0  0  0  0  0  0
   -3.1193   -4.5163    0.0052 C   0  0  0  0  0  0  0  0  0  0  0  0
   -4.1136   -4.8766    1.0345 C   0  0  0  0  0  0  0  0  0  0  0  0
   -4.4120   -6.2268    1.2637 C   0  0  0  0  0  0  0  0  0  0  0  0
   -5.3293   -6.5881    2.2519 C   0  0  0  0  0  0  0  0  0  0  0  0
   -5.9391   -5.6064    3.0348 C   0  0  0  0  0  0  0  0  0  0  0  0
   -5.6417   -4.2508    2.8294 C   0  0  0  0  0  0  0  0  0  0  0  0
   -6.2584   -3.2014    3.7167 C   0  0  0  0  0  0  0  0  0  0  0  0
   -5.6069   -3.2043    5.0963 C   0  0  0  0  0  0  0  0  0  0  0  0
   -4.7228   -3.8894    1.8279 C   0  0  0  0  0  0  0  0  0  0  0  0
   -3.2696   -3.5210   -0.9896 C   0  0  0  0  0  0  0  0  0  0  0  0
   -1.7878   -3.2971   -1.8047 S   0  0  0  0  0  0  0  0  0  0  0  0
   -0.9883   -4.4835   -0.9413 C   0  0  0  0  0  0  0  0  0  0  0  0
    0.3446   -4.7470   -0.6948 C   0  0  0  0  0  0  0  0  0  0  0  0
    1.4822   -4.2095   -1.1864 N   0  0  0  0  0  0  0  0  0  0  0  0
    2.4180   -4.5595   -0.2542 C   0  0  0  0  0  0  0  0  0  0  0  0
    3.7563   -4.1312   -0.1299 C   0  0  0  0  0  0  0  0  0  0  0  0
    4.3316   -2.9929   -0.6318 N   0  0  0  0  0  0  0  0  0  0  0  0
    5.5783   -3.0153   -0.0894 C   0  0  0  0  0  0  0  0  0  0  0  0
    6.5127   -2.0045    0.0733 C   0  0  0  0  0  0  0  0  0  0  0  0
    6.7113   -0.4795   -0.5673 S   0  0  0  0  0  0  0  0  0  0  0  0
    3.6123   -1.7349   -0.9190 C   0  0  0  0  0  0  0  0  0  0  0  0
    3.2380   -1.0047    0.3717 C   0  0  0  0  0  0  0  0  0  0  0  0
    1.7134   -3.9028   -2.6064 C   0  0  0  0  0  0  0  0  0  0  0  0
    1.3889   -5.1055   -3.4924 C   0  0  0  0  0  0  0  0  0  0  0  0
   -4.4255   -2.6190   -1.1647 C   0  0  0  0  0  0  0  0  0  0  0  0
   -5.7416   -3.0842   -1.2337 C   0  0  0  0  0  0  0  0  0  0  0  0
   -6.1992   -4.3462   -1.2106 N   0  0  0  0  0  0  0  0  0  0  0  0
   -7.5243   -4.2269   -1.2733 N   0  0  0  0  0  0  0  0  0  0  0  0
   -8.4374   -5.3535   -1.1530 C   0  0  0  0  0  0  0  0  0  0  0  0
   -8.8184   -5.5567    0.3080 C   0  0  0  0  0  0  0  0  0  0  0  0
   -7.9347   -2.9616   -1.3123 N   0  0  0  0  0  0  0  0  0  0  0  0
   -6.8068   -2.2381   -1.3003 C   0  0  0  0  0  0  0  0  0  0  0  0
   -6.6642   -0.8497   -1.2673 C   0  0  0  0  0  0  0  0  0  0  0  0
   -5.3489   -0.3395   -1.2619 C   0  0  0  0  0  0  0  0  0  0  0  0
   -4.2407   -1.2168   -1.2137 C   0  0  0  0  0  0  0  0  0  0  0  0
   -5.1350    1.0010   -1.2501 F   0  0  0  0  0  0  0  0  0  0  0  0
   -7.8273    0.0547   -1.2052 C   0  0  0  0  0  0  0  0  0  0  0  0
   -8.6770    0.0963   -0.1597 C   0  0  0  0  0  0  0  0  0  0  0  0
   -8.4996   -0.6077    1.1170 C   0  0  0  0  0  0  0  0  0  0  0  0
   -7.7515   -1.5965    1.3301 O   0  0  0  0  0  0  0  0  0  0  0  0
   -9.2855    0.0571    2.1300 C   0  0  0  0  0  0  0  0  0  0  0  0
   -9.2860   -0.2136    3.5173 C   0  0  0  0  0  0  0  0  0  0  0  0
  -10.0195    0.6900    4.2618 C   0  0  0  0  0  0  0  0  0  0  0  0
  -10.7127    1.8015    3.6828 C   0  0  0  0  0  0  0  0  0  0  0  0
  -10.7241    2.0659    2.3230 C   0  0  0  0  0  0  0  0  0  0  0  0
   -9.9932    1.1316    1.5345 C   0  0  0  0  0  0  0  0  0  0  0  0
   -9.7454    1.1162    0.0651 C   0  0  0  0  0  0  0  0  0  0  0  0
  -10.4919    1.7198   -0.8929 C   0  0  0  0  0  0  0  0  0  0  0  0
  -10.3825    1.3544   -2.2821 C   0  0  0  0  0  0  0  0  0  0  0  0
  -10.3041    1.0490   -3.3941 N   0  0  0  0  0  0  0  0  0  0  0  0
  -11.6001    2.5800   -0.5774 C   0  0  0  0  0  0  0  0  0  0  0  0
  -12.5022    3.2696   -0.3411 N   0  0  0  0  0  0  0  0  0  0  0  0
  -11.1687    2.2458    5.0408 C   0  0  0  0  0  0  0  0  0  0  0  0
  -12.6546    1.9940    5.4288 C   0  0  0  0  0  0  0  0  0  0  0  0
  -13.1709    0.7552    4.7336 C   0  0  0  0  0  0  0  0  0  0  0  0
  -12.5254   -0.2794    5.2737 C   0  0  0  0  0  0  0  0  0  0  0  0
  -11.5945    0.2877    6.3196 C   0  0  0  0  0  0  0  0  0  0  0  0
  -12.4651    1.4244    6.8232 C   0  0  0  0  0  0  0  0  0  0  0  0
  -10.4602    1.1063    5.6342 C   0  0  0  0  0  0  0  0  0  0  0  0
    9.3430    5.8396   -1.4499 H   0  0  0  0  0  0  0  0  0  0  0  0
    5.4323    2.0546   -4.6521 H   0  0  0  0  0  0  0  0  0  0  0  0
    6.7209    6.6613   -6.4311 H   0  0  0  0  0  0  0  0  0  0  0  0
    5.8017    4.4675   -8.9401 H   0  0  0  0  0  0  0  0  0  0  0  0
    3.7272    6.2591   -8.4756 H   0  0  0  0  0  0  0  0  0  0  0  0
    2.8954    4.7828  -10.5225 H   0  0  0  0  0  0  0  0  0  0  0  0
    2.2483    2.4193   -9.6220 H   0  0  0  0  0  0  0  0  0  0  0  0
    2.6627    2.3877   -6.9987 H   0  0  0  0  0  0  0  0  0  0  0  0
    1.7445    4.8517   -7.3867 H   0  0  0  0  0  0  0  0  0  0  0  0
    3.1395    4.9106   -6.2329 H   0  0  0  0  0  0  0  0  0  0  0  0
    5.2040    2.3020   -8.1153 H   0  0  0  0  0  0  0  0  0  0  0  0
    4.9667    5.1309    2.4199 H   0  0  0  0  0  0  0  0  0  0  0  0
    4.8363    3.5215    3.2222 H   0  0  0  0  0  0  0  0  0  0  0  0
    3.8437    4.1924    0.3730 H   0  0  0  0  0  0  0  0  0  0  0  0
    3.6841    2.5913    1.2061 H   0  0  0  0  0  0  0  0  0  0  0  0
    2.8110    4.0381    1.8476 H   0  0  0  0  0  0  0  0  0  0  0  0
   10.4608    2.9966   -1.7556 H   0  0  0  0  0  0  0  0  0  0  0  0
   10.1787   -2.8312    2.0907 H   0  0  0  0  0  0  0  0  0  0  0  0
   11.6797   -2.6871    4.0475 H   0  0  0  0  0  0  0  0  0  0  0  0
   11.4571   -0.8353    5.6611 H   0  0  0  0  0  0  0  0  0  0  0  0
    8.5419    1.3976    5.7987 H   0  0  0  0  0  0  0  0  0  0  0  0
   10.0792    0.9429    6.6022 H   0  0  0  0  0  0  0  0  0  0  0  0
    9.7945    2.8048    4.1479 H   0  0  0  0  0  0  0  0  0  0  0  0
   11.3573    2.3286    4.9308 H   0  0  0  0  0  0  0  0  0  0  0  0
   10.1415    3.3018    5.8455 H   0  0  0  0  0  0  0  0  0  0  0  0
    8.1799    0.7621    3.3765 H   0  0  0  0  0  0  0  0  0  0  0  0
   -3.9458   -7.0016    0.6671 H   0  0  0  0  0  0  0  0  0  0  0  0
   -5.5622   -7.6330    2.4151 H   0  0  0  0  0  0  0  0  0  0  0  0
   -6.6429   -5.9028    3.8035 H   0  0  0  0  0  0  0  0  0  0  0  0
   -7.3475   -3.3952    3.8193 H   0  0  0  0  0  0  0  0  0  0  0  0
   -6.1361   -2.1904    3.2717 H   0  0  0  0  0  0  0  0  0  0  0  0
   -4.5098   -3.0356    5.0063 H   0  0  0  0  0  0  0  0  0  0  0  0
   -5.7840   -4.1785    5.6025 H   0  0  0  0  0  0  0  0  0  0  0  0
   -6.0499   -2.3974    5.7163 H   0  0  0  0  0  0  0  0  0  0  0  0
   -4.4700   -2.8472    1.6784 H   0  0  0  0  0  0  0  0  0  0  0  0
    2.6779   -1.9032   -1.4661 H   0  0  0  0  0  0  0  0  0  0  0  0
    4.2277   -1.0809   -1.5679 H   0  0  0  0  0  0  0  0  0  0  0  0
    2.6190   -1.6664    1.0135 H   0  0  0  0  0  0  0  0  0  0  0  0
    4.1435   -0.7013    0.9347 H   0  0  0  0  0  0  0  0  0  0  0  0
    2.6468   -0.0966    0.1309 H   0  0  0  0  0  0  0  0  0  0  0  0
    2.7807   -3.6532   -2.7871 H   0  0  0  0  0  0  0  0  0  0  0  0
    1.0810   -3.0389   -2.9096 H   0  0  0  0  0  0  0  0  0  0  0  0
    0.3042   -5.3364   -3.4545 H   0  0  0  0  0  0  0  0  0  0  0  0
    1.6637   -4.8755   -4.5408 H   0  0  0  0  0  0  0  0  0  0  0  0
    1.9658   -5.9945   -3.1571 H   0  0  0  0  0  0  0  0  0  0  0  0
   -7.9580   -6.2772   -1.5478 H   0  0  0  0  0  0  0  0  0  0  0  0
   -9.3544   -5.1543   -1.7499 H   0  0  0  0  0  0  0  0  0  0  0  0
   -9.2720   -4.6298    0.7164 H   0  0  0  0  0  0  0  0  0  0  0  0
   -7.9154   -5.8092    0.9043 H   0  0  0  0  0  0  0  0  0  0  0  0
   -9.5499   -6.3875    0.3932 H   0  0  0  0  0  0  0  0  0  0  0  0
   -3.2447   -0.7964   -1.1527 H   0  0  0  0  0  0  0  0  0  0  0  0
   -7.8865    0.8159   -1.9738 H   0  0  0  0  0  0  0  0  0  0  0  0
   -8.7325   -1.0304    3.9649 H   0  0  0  0  0  0  0  0  0  0  0  0
  -11.2205    2.9414    1.9354 H   0  0  0  0  0  0  0  0  0  0  0  0
  -10.7595    3.2305    5.3595 H   0  0  0  0  0  0  0  0  0  0  0  0
  -13.3181    2.8804    5.3590 H   0  0  0  0  0  0  0  0  0  0  0  0
  -13.9639    0.6910    3.9971 H   0  0  0  0  0  0  0  0  0  0  0  0
  -12.7034   -1.3277    5.0516 H   0  0  0  0  0  0  0  0  0  0  0  0
  -11.2573   -0.4345    7.0908 H   0  0  0  0  0  0  0  0  0  0  0  0
  -11.9374    2.1154    7.5228 H   0  0  0  0  0  0  0  0  0  0  0  0
  -13.4177    1.0801    7.2941 H   0  0  0  0  0  0  0  0  0  0  0  0
   -9.6204    1.3987    6.3048 H   0  0  0  0  0  0  0  0  0  0  0  0
  1  2  2  3
  2  3  1  0
  3  4  2  0
  3  5  1  0
  5  6  2  0
  6  7  1  0
  7  8  2  0
  8  9  1  0
  9 10  2  0
 10 11  1  0
 11 12  2  3
 12 13  1  0
 13 14  3  0
 12 15  1  0
 15 16  3  0
  8 17  1  0
 17 18  1  0
 18 19  1  0
 19 20  2  0
 20 21  1  0
 21 22  1  0
 21 23  1  0
  1 24  1  0
 24 25  1  0
 25 26  2  0
 26 27  1  0
 27 28  1  0
 28 29  1  0
 27 30  1  0
 30 31  2  0
 31 32  1  0
 32 33  2  0
 33 34  1  0
 33 35  1  0
 32 36  1  0
 36 37  2  0
 37 38  1  0
 38 39  2  0
 39 40  1  0
 40 41  2  0
 41 42  1  0
 42 43  1  0
 43 44  1  0
 42 45  2  0
 37 46  1  0
 46 47  1  0
 47 48  1  0
 48 49  1  0
 49 50  1  0
 50 51  1  0
 51 52  2  0
 52 53  1  0
 53 54  1  0
 51 55  1  0
 55 56  1  0
 56 57  1  0
 57 58  1  0
 58 59  1  0
 59 60  1  0
 60 61  2  0
 61 62  1  0
 62 63  2  0
 63 64  1  0
 64 65  1  0
 65 66  1  0
 64 67  2  0
 59 68  2  0
 68 69  1  0
 69 70  1  0
 70 71  1  0
 71 72  1  0
 72 73  1  0
 73 74  1  0
 74 75  1  0
 75 76  1  0
 76 77  1  0
 77 78  1  0
 75 79  1  0
 79 80  1  0
 72 81  1  0
 81 82  1  0
 68 83  1  0
 83 84  1  0
 84 85  2  0
 85 86  1  0
 86 87  1  0
 87 88  1  0
 86 89  1  0
 89 90  2  0
 90 91  1  0
 91 92  2  0
 92 93  1  0
 92 94  1  0
 91 95  1  0
 95 96  2  3
 96 97  1  0
 97 98  2  0
 97 99  1  0
 99100  2  0
100101  1  0
101102  2  0
102103  1  0
103104  2  0
104105  1  0
105106  2  3
106107  1  0
107108  3  0
106109  1  0
109110  3  0
102111  1  0
111112  1  0
112113  1  0
113114  2  0
114115  1  0
115116  1  0
115117  1  0
 11  2  1  0
 23 17  1  0
 34 24  2  0
 78 36  1  0
 93 83  2  0
105 96  1  0
117111  1  0
 10  5  1  0
 22 18  1  0
 31 25  1  0
 45 38  1  0
 77 46  2  0
 90 84  1  0
104 99  1  0
116112  1  0
 23  7  1  0
 76 48  2  0
117101  1  0
 74 49  2  0
 54 50  2  0
 73 55  2  0
 71 56  2  0
 70 58  2  0
 67 60  1  0
  1118  1  0
  6119  1  0
  9120  1  0
 17121  1  0
 18122  1  0
 19123  1  0
 20124  1  0
 21125  1  0
 22126  1  0
 22127  1  0
 23128  1  0
 28129  1  0
 28130  1  0
 29131  1  0
 29132  1  0
 29133  1  0
 34134  1  0
 39135  1  0
 40136  1  0
 41137  1  0
 43138  1  0
 43139  1  0
 44140  1  0
 44141  1  0
 44142  1  0
 45143  1  0
 61144  1  0
 62145  1  0
 63146  1  0
 65147  1  0
 65148  1  0
 66149  1  0
 66150  1  0
 66151  1  0
 67152  1  0
 79153  1  0
 79154  1  0
 80155  1  0
 80156  1  0
 80157  1  0
 81158  1  0
 81159  1  0
 82160  1  0
 82161  1  0
 82162  1  0
 87163  1  0
 87164  1  0
 88165  1  0
 88166  1  0
 88167  1  0
 93168  1  0
 95169  1  0
100170  1  0
103171  1  0
111172  1  0
112173  1  0
113174  1  0
114175  1  0
115176  1  0
116177  1  0
116178  1  0
117179  1  0
M  END

