
     RDKit          3D

157178  0  0  0  0  0  0  0  0999 V2000
    4.8175   -9.6580    0.1574 C   0  0  0  0  0  0  0  0  0  0  0  0
    3.8090   -9.5935   -0.7378 C   0  0  0  0  0  0  0  0  0  0  0  0
    3.5987   -8.4984   -1.6931 C   0  0  0  0  0  0  0  0  0  0  0  0
    4.4934   -7.7538   -2.1778 O   0  0  0  0  0  0  0  0  0  0  0  0
    2.2036   -8.4656   -2.0623 C   0  0  0  0  0  0  0  0  0  0  0  0
    1.5416   -7.4518   -2.7905 C   0  0  0  0  0  0  0  0  0  0  0  0
    0.1689   -7.6027   -2.8330 C   0  0  0  0  0  0  0  0  0  0  0  0
   -0.5229   -8.6860   -2.1985 C   0  0  0  0  0  0  0  0  0  0  0  0
    0.1225   -9.6871   -1.4896 C   0  0  0  0  0  0  0  0  0  0  0  0
    1.5423   -9.5647   -1.4536 C   0  0  0  0  0  0  0  0  0  0  0  0
    2.5465  -10.3959   -0.7276 C   0  0  0  0  0  0  0  0  0  0  0  0
    2.3947  -11.6840   -0.3270 C   0  0  0  0  0  0  0  0  0  0  0  0
    3.4941  -12.4714    0.1704 C   0  0  0  0  0  0  0  0  0  0  0  0
    4.3705  -13.1151    0.5667 N   0  0  0  0  0  0  0  0  0  0  0  0
    1.1638  -12.4083   -0.5182 C   0  0  0  0  0  0  0  0  0  0  0  0
    0.1872  -13.0082   -0.6750 N   0  0  0  0  0  0  0  0  0  0  0  0
   -1.8408   -8.1242   -2.6458 C   0  0  0  0  0  0  0  0  0  0  0  0
   -2.5774   -8.8352   -3.8207 C   0  0  0  0  0  0  0  0  0  0  0  0
   -1.5683   -9.4718   -4.7501 C   0  0  0  0  0  0  0  0  0  0  0  0
   -0.9169   -8.4726   -5.3502 C   0  0  0  0  0  0  0  0  0  0  0  0
   -1.5050   -7.1884   -4.8058 C   0  0  0  0  0  0  0  0  0  0  0  0
   -2.9513   -7.6273   -4.6623 C   0  0  0  0  0  0  0  0  0  0  0  0
   -1.1301   -7.0211   -3.3014 C   0  0  0  0  0  0  0  0  0  0  0  0
    5.7079   -8.5187    0.4467 C   0  0  0  0  0  0  0  0  0  0  0  0
    7.0267   -8.5870    0.8831 C   0  0  0  0  0  0  0  0  0  0  0  0
    7.5525   -7.3423    1.2834 C   0  0  0  0  0  0  0  0  0  0  0  0
    9.1592   -7.1841    1.9709 Cl  0  0  0  0  0  0  0  0  0  0  0  0
    6.6259   -6.3028    1.1987 C   0  0  0  0  0  0  0  0  0  0  0  0
    5.1794   -6.9400    0.6459 S   0  0  0  0  0  0  0  0  0  0  0  0
    6.7660   -4.8877    1.5831 C   0  0  0  0  0  0  0  0  0  0  0  0
    7.7810   -3.9719    1.2075 C   0  0  0  0  0  0  0  0  0  0  0  0
    8.9642   -4.2988    0.3810 C   0  0  0  0  0  0  0  0  0  0  0  0
   10.2289   -3.8155    0.7430 C   0  0  0  0  0  0  0  0  0  0  0  0
   11.3603   -4.1676    0.0009 C   0  0  0  0  0  0  0  0  0  0  0  0
   11.2368   -4.9984   -1.1166 C   0  0  0  0  0  0  0  0  0  0  0  0
    9.9758   -5.4625   -1.5114 C   0  0  0  0  0  0  0  0  0  0  0  0
    9.8443   -6.3995   -2.6850 C   0  0  0  0  0  0  0  0  0  0  0  0
    9.8877   -7.8541   -2.2222 C   0  0  0  0  0  0  0  0  0  0  0  0
    8.8401   -5.1013   -0.7658 C   0  0  0  0  0  0  0  0  0  0  0  0
    7.4094   -2.6570    1.5348 C   0  0  0  0  0  0  0  0  0  0  0  0
    7.9288   -1.1396    0.9418 S   0  0  0  0  0  0  0  0  0  0  0  0
    6.5158   -0.3764    1.5050 C   0  0  0  0  0  0  0  0  0  0  0  0
    5.7683    0.7084    1.1262 C   0  0  0  0  0  0  0  0  0  0  0  0
    6.1286    1.9337    0.5562 C   0  0  0  0  0  0  0  0  0  0  0  0
    5.1088    2.9043    0.3193 C   0  0  0  0  0  0  0  0  0  0  0  0
    5.4989    4.0866   -0.2239 N   0  0  0  0  0  0  0  0  0  0  0  0
    7.1325    3.8131   -0.3403 S   0  0  0  0  0  0  0  0  0  0  0  0
    7.4009    2.2823    0.2367 N   0  0  0  0  0  0  0  0  0  0  0  0
    3.7754    2.5534    0.5656 C   0  0  0  0  0  0  0  0  0  0  0  0
    2.6087    3.1752    0.2177 C   0  0  0  0  0  0  0  0  0  0  0  0
    2.0685    4.6301   -0.4835 S   0  0  0  0  0  0  0  0  0  0  0  0
    0.4777    4.0161   -0.5883 C   0  0  0  0  0  0  0  0  0  0  0  0
   -0.7381    4.5451   -1.0322 C   0  0  0  0  0  0  0  0  0  0  0  0
   -0.8864    5.9244   -1.5254 C   0  0  0  0  0  0  0  0  0  0  0  0
   -0.3775    6.2793   -2.7816 C   0  0  0  0  0  0  0  0  0  0  0  0
   -0.5141    7.5889   -3.2473 C   0  0  0  0  0  0  0  0  0  0  0  0
   -1.1643    8.5500   -2.4662 C   0  0  0  0  0  0  0  0  0  0  0  0
   -1.6770    8.2064   -1.2044 C   0  0  0  0  0  0  0  0  0  0  0  0
   -2.3682    9.2411   -0.3562 C   0  0  0  0  0  0  0  0  0  0  0  0
   -1.3795    9.9080    0.5969 C   0  0  0  0  0  0  0  0  0  0  0  0
   -1.5082    6.8965   -0.7281 C   0  0  0  0  0  0  0  0  0  0  0  0
   -1.7711    3.5844   -0.9441 C   0  0  0  0  0  0  0  0  0  0  0  0
   -1.1481    2.1381   -0.2976 S   0  0  0  0  0  0  0  0  0  0  0  0
    0.4108    2.7233   -0.1382 C   0  0  0  0  0  0  0  0  0  0  0  0
    1.6235    2.2561    0.3442 C   0  0  0  0  0  0  0  0  0  0  0  0
    2.0671    1.0453    0.7640 N   0  0  0  0  0  0  0  0  0  0  0  0
    3.4064    1.2680    1.0018 C   0  0  0  0  0  0  0  0  0  0  0  0
    4.4347    0.3792    1.4261 C   0  0  0  0  0  0  0  0  0  0  0  0
    4.3763   -0.8266    2.0818 N   0  0  0  0  0  0  0  0  0  0  0  0
    5.6576   -1.2591    2.0735 C   0  0  0  0  0  0  0  0  0  0  0  0
    6.1714   -2.5435    2.1167 C   0  0  0  0  0  0  0  0  0  0  0  0
    5.4529   -4.0387    2.2451 S   0  0  0  0  0  0  0  0  0  0  0  0
    3.3014   -1.4721    2.8459 C   0  0  0  0  0  0  0  0  0  0  0  0
    2.5974   -0.4986    3.7908 C   0  0  0  0  0  0  0  0  0  0  0  0
    1.3770   -0.2184    0.4633 C   0  0  0  0  0  0  0  0  0  0  0  0
    2.1464   -1.0574   -0.5573 C   0  0  0  0  0  0  0  0  0  0  0  0
   -3.1821    3.7319   -1.3445 C   0  0  0  0  0  0  0  0  0  0  0  0
   -3.9987    2.6943   -1.7874 C   0  0  0  0  0  0  0  0  0  0  0  0
   -5.3395    3.0656   -1.9395 C   0  0  0  0  0  0  0  0  0  0  0  0
   -6.5751    1.9386   -2.4630 Cl  0  0  0  0  0  0  0  0  0  0  0  0
   -5.5971    4.3799   -1.5634 C   0  0  0  0  0  0  0  0  0  0  0  0
   -4.1409    5.0993   -1.1228 S   0  0  0  0  0  0  0  0  0  0  0  0
   -6.9183    5.0329   -1.5747 C   0  0  0  0  0  0  0  0  0  0  0  0
   -7.3363    5.9263   -0.6612 C   0  0  0  0  0  0  0  0  0  0  0  0
   -8.3989    6.8908   -0.9340 C   0  0  0  0  0  0  0  0  0  0  0  0
   -9.2204    6.8354   -1.8918 O   0  0  0  0  0  0  0  0  0  0  0  0
   -8.3167    7.9591    0.0383 C   0  0  0  0  0  0  0  0  0  0  0  0
   -9.1118    9.1275    0.0989 C   0  0  0  0  0  0  0  0  0  0  0  0
   -8.7866    9.9720    1.1469 C   0  0  0  0  0  0  0  0  0  0  0  0
   -7.7248    9.6993    2.0667 C   0  0  0  0  0  0  0  0  0  0  0  0
   -6.9219    8.5743    1.9940 C   0  0  0  0  0  0  0  0  0  0  0  0
   -7.2652    7.6719    0.9494 C   0  0  0  0  0  0  0  0  0  0  0  0
   -6.7082    6.3248    0.6368 C   0  0  0  0  0  0  0  0  0  0  0  0
   -6.1348    5.4806    1.5378 C   0  0  0  0  0  0  0  0  0  0  0  0
   -5.6047    5.9248    2.7982 C   0  0  0  0  0  0  0  0  0  0  0  0
   -5.1706    6.2681    3.8169 N   0  0  0  0  0  0  0  0  0  0  0  0
   -6.1605    4.0511    1.3575 C   0  0  0  0  0  0  0  0  0  0  0  0
   -6.1831    2.8998    1.2254 N   0  0  0  0  0  0  0  0  0  0  0  0
   -8.0237   10.9634    2.8129 C   0  0  0  0  0  0  0  0  0  0  0  0
   -7.0367   12.1483    2.6060 C   0  0  0  0  0  0  0  0  0  0  0  0
   -7.7512   13.3730    3.1238 C   0  0  0  0  0  0  0  0  0  0  0  0
   -8.7380   13.6326    2.2580 C   0  0  0  0  0  0  0  0  0  0  0  0
   -8.6564   12.5732    1.1850 C   0  0  0  0  0  0  0  0  0  0  0  0
   -7.1428   12.4274    1.1171 C   0  0  0  0  0  0  0  0  0  0  0  0
   -9.1061   11.2476    1.8662 C   0  0  0  0  0  0  0  0  0  0  0  0
    4.8918  -10.4831    0.8477 H   0  0  0  0  0  0  0  0  0  0  0  0
    2.0506   -6.6039   -3.2310 H   0  0  0  0  0  0  0  0  0  0  0  0
   -0.4389  -10.4484   -0.9743 H   0  0  0  0  0  0  0  0  0  0  0  0
   -2.4958   -7.7987   -1.8084 H   0  0  0  0  0  0  0  0  0  0  0  0
   -3.4244   -9.4897   -3.5251 H   0  0  0  0  0  0  0  0  0  0  0  0
   -1.4486  -10.5293   -4.9659 H   0  0  0  0  0  0  0  0  0  0  0  0
   -0.1844   -8.5773   -6.1434 H   0  0  0  0  0  0  0  0  0  0  0  0
   -1.3380   -6.2918   -5.4384 H   0  0  0  0  0  0  0  0  0  0  0  0
   -3.4322   -7.8948   -5.6348 H   0  0  0  0  0  0  0  0  0  0  0  0
   -3.5903   -6.8860   -4.1228 H   0  0  0  0  0  0  0  0  0  0  0  0
   -1.3613   -6.0215   -2.8656 H   0  0  0  0  0  0  0  0  0  0  0  0
    7.5880   -9.5087    0.9353 H   0  0  0  0  0  0  0  0  0  0  0  0
   10.3484   -3.1946    1.6204 H   0  0  0  0  0  0  0  0  0  0  0  0
   12.3366   -3.8145    0.3012 H   0  0  0  0  0  0  0  0  0  0  0  0
   12.1246   -5.2809   -1.6708 H   0  0  0  0  0  0  0  0  0  0  0  0
    8.8866   -6.2119   -3.2158 H   0  0  0  0  0  0  0  0  0  0  0  0
   10.6659   -6.2215   -3.4124 H   0  0  0  0  0  0  0  0  0  0  0  0
   10.8671   -8.0739   -1.7432 H   0  0  0  0  0  0  0  0  0  0  0  0
    9.0695   -8.0520   -1.4959 H   0  0  0  0  0  0  0  0  0  0  0  0
    9.7595   -8.5277   -3.0970 H   0  0  0  0  0  0  0  0  0  0  0  0
    7.8656   -5.4585   -1.0726 H   0  0  0  0  0  0  0  0  0  0  0  0
    0.1189    5.5414   -3.3995 H   0  0  0  0  0  0  0  0  0  0  0  0
   -0.1190    7.8610   -4.2171 H   0  0  0  0  0  0  0  0  0  0  0  0
   -1.2678    9.5605   -2.8456 H   0  0  0  0  0  0  0  0  0  0  0  0
   -2.8371   10.0194   -0.9993 H   0  0  0  0  0  0  0  0  0  0  0  0
   -3.1869    8.7714    0.2322 H   0  0  0  0  0  0  0  0  0  0  0  0
   -0.5529   10.3768    0.0225 H   0  0  0  0  0  0  0  0  0  0  0  0
   -0.9617    9.1604    1.3010 H   0  0  0  0  0  0  0  0  0  0  0  0
   -1.8988   10.6944    1.1860 H   0  0  0  0  0  0  0  0  0  0  0  0
   -1.8750    6.6302    0.2543 H   0  0  0  0  0  0  0  0  0  0  0  0
    3.7339   -2.2566    3.5021 H   0  0  0  0  0  0  0  0  0  0  0  0
    2.6142   -2.0125    2.1743 H   0  0  0  0  0  0  0  0  0  0  0  0
    3.3311   -0.0782    4.5079 H   0  0  0  0  0  0  0  0  0  0  0  0
    2.1093    0.3304    3.2509 H   0  0  0  0  0  0  0  0  0  0  0  0
    1.8221   -1.0467    4.3604 H   0  0  0  0  0  0  0  0  0  0  0  0
    0.3888   -0.0202    0.0120 H   0  0  0  0  0  0  0  0  0  0  0  0
    1.1292   -0.7697    1.3816 H   0  0  0  0  0  0  0  0  0  0  0  0
    2.3540   -0.4452   -1.4593 H   0  0  0  0  0  0  0  0  0  0  0  0
    3.0993   -1.4334   -0.1413 H   0  0  0  0  0  0  0  0  0  0  0  0
    1.5342   -1.9283   -0.8612 H   0  0  0  0  0  0  0  0  0  0  0  0
   -3.6369    1.6930   -1.9828 H   0  0  0  0  0  0  0  0  0  0  0  0
   -7.5430    4.8438   -2.4410 H   0  0  0  0  0  0  0  0  0  0  0  0
   -9.9084    9.3385   -0.6027 H   0  0  0  0  0  0  0  0  0  0  0  0
   -6.1072    8.4322    2.6840 H   0  0  0  0  0  0  0  0  0  0  0  0
   -8.3566   10.7886    3.8584 H   0  0  0  0  0  0  0  0  0  0  0  0
   -6.0079   11.9981    3.0006 H   0  0  0  0  0  0  0  0  0  0  0  0
   -7.4792   13.9820    3.9786 H   0  0  0  0  0  0  0  0  0  0  0  0
   -9.4050   14.4886    2.2896 H   0  0  0  0  0  0  0  0  0  0  0  0
   -9.1659   12.8253    0.2326 H   0  0  0  0  0  0  0  0  0  0  0  0
   -6.7910   11.5918    0.4726 H   0  0  0  0  0  0  0  0  0  0  0  0
   -6.6242   13.3650    0.8053 H   0  0  0  0  0  0  0  0  0  0  0  0
  -10.1238   11.2582    2.3160 H   0  0  0  0  0  0  0  0  0  0  0  0
  1  2  2  3
  2  3  1  0
  3  4  2  0
  3  5  1  0
  5  6  2  0
  6  7  1  0
  7  8  2  0
  8  9  1  0
  9 10  2  0
 10 11  1  0
 11 12  2  3
 12 13  1  0
 13 14  3  0
 12 15  1  0
 15 16  3  0
  8 17  1  0
 17 18  1  0
 18 19  1  0
 19 20  2  0
 20 21  1  0
 21 22  1  0
 21 23  1  0
  1 24  1  0
 24 25  2  0
 25 26  1  0
 26 27  1  0
 26 28  2  0
 28 29  1  0
 28 30  1  0
 30 31  2  0
 31 32  1  0
 32 33  2  0
 33 34  1  0
 34 35  2  0
 35 36  1  0
 36 37  1  0
 37 38  1  0
 36 39  2  0
 31 40  1  0
 40 41  1  0
 41 42  1  0
 42 43  1  0
 43 44  1  0
 44 45  1  0
 45 46  2  0
 46 47  1  0
 47 48  1  0
 45 49  1  0
 49 50  1  0
 50 51  1  0
 51 52  1  0
 52 53  1  0
 53 54  1  0
 54 55  2  0
 55 56  1  0
 56 57  2  0
 57 58  1  0
 58 59  1  0
 59 60  1  0
 58 61  2  0
 53 62  2  0
 62 63  1  0
 63 64  1  0
 64 65  1  0
 65 66  1  0
 66 67  1  0
 67 68  1  0
 68 69  1  0
 69 70  1  0
 70 71  1  0
 71 72  1  0
 69 73  1  0
 73 74  1  0
 66 75  1  0
 75 76  1  0
 62 77  1  0
 77 78  2  0
 78 79  1  0
 79 80  1  0
 79 81  2  0
 81 82  1  0
 81 83  1  0
 83 84  2  3
 84 85  1  0
 85 86  2  0
 85 87  1  0
 87 88  2  0
 88 89  1  0
 89 90  2  0
 90 91  1  0
 91 92  2  0
 92 93  1  0
 93 94  2  3
 94 95  1  0
 95 96  3  0
 94 97  1  0
 97 98  3  0
 90 99  1  0
 99100  1  0
100101  1  0
101102  2  0
102103  1  0
103104  1  0
103105  1  0
 11  2  1  0
 23 17  1  0
 29 24  1  0
 72 30  1  0
 82 77  1  0
 93 84  1  0
105 99  1  0
 10  5  1  0
 22 18  1  0
 39 32  1  0
 71 40  2  0
 92 87  1  0
104100  1  0
 23  7  1  0
 70 42  2  0
105 89  1  0
 68 43  2  0
 48 44  2  0
 67 49  2  0
 65 50  2  0
 64 52  2  0
 61 54  1  0
  1106  1  0
  6107  1  0
  9108  1  0
 17109  1  0
 18110  1  0
 19111  1  0
 20112  1  0
 21113  1  0
 22114  1  0
 22115  1  0
 23116  1  0
 25117  1  0
 33118  1  0
 34119  1  0
 35120  1  0
 37121  1  0
 37122  1  0
 38123  1  0
 38124  1  0
 38125  1  0
 39126  1  0
 55127  1  0
 56128  1  0
 57129  1  0
 59130  1  0
 59131  1  0
 60132  1  0
 60133  1  0
 60134  1  0
 61135  1  0
 73136  1  0
 73137  1  0
 74138  1  0
 74139  1  0
 74140  1  0
 75141  1  0
 75142  1  0
 76143  1  0
 76144  1  0
 76145  1  0
 78146  1  0
 83147  1  0
 88148  1  0
 91149  1  0
 99150  1  0
100151  1  0
101152  1  0
102153  1  0
103154  1  0
104155  1  0
104156  1  0
105157  1  0
M  END

