
     RDKit          3D

184203  0  0  0  0  0  0  0  0999 V2000
    3.5626    2.9223    7.6685 C   0  0  0  0  0  0  0  0  0  0  0  0
    3.1324    1.7164    7.2396 C   0  0  0  0  0  0  0  0  0  0  0  0
    3.0369    1.3112    5.8268 C   0  0  0  0  0  0  0  0  0  0  0  0
    3.0667    2.0710    4.8232 O   0  0  0  0  0  0  0  0  0  0  0  0
    2.9010   -0.1231    5.7599 C   0  0  0  0  0  0  0  0  0  0  0  0
    2.9222   -0.9195    4.5906 C   0  0  0  0  0  0  0  0  0  0  0  0
    2.8606   -2.2765    4.8365 C   0  0  0  0  0  0  0  0  0  0  0  0
    2.7912   -2.8269    6.1545 C   0  0  0  0  0  0  0  0  0  0  0  0
    2.7791   -2.0519    7.3024 C   0  0  0  0  0  0  0  0  0  0  0  0
    2.8254   -0.6456    7.0739 C   0  0  0  0  0  0  0  0  0  0  0  0
    2.8668    0.4844    8.0503 C   0  0  0  0  0  0  0  0  0  0  0  0
    2.5352    0.4278    9.3672 C   0  0  0  0  0  0  0  0  0  0  0  0
    2.1587   -0.7991   10.0198 C   0  0  0  0  0  0  0  0  0  0  0  0
    1.8461   -1.7714   10.5653 N   0  0  0  0  0  0  0  0  0  0  0  0
    2.4058    1.6038   10.1858 C   0  0  0  0  0  0  0  0  0  0  0  0
    2.2992    2.5433   10.8530 N   0  0  0  0  0  0  0  0  0  0  0  0
    2.7967   -4.2158    5.5941 C   0  0  0  0  0  0  0  0  0  0  0  0
    4.1282   -5.0117    5.7301 C   0  0  0  0  0  0  0  0  0  0  0  0
    4.0184   -6.1751    4.7711 C   0  0  0  0  0  0  0  0  0  0  0  0
    4.0830   -5.6572    3.5377 C   0  0  0  0  0  0  0  0  0  0  0  0
    4.2388   -4.1655    3.7065 C   0  0  0  0  0  0  0  0  0  0  0  0
    5.1152   -4.1621    4.9476 C   0  0  0  0  0  0  0  0  0  0  0  0
    2.8687   -3.6510    4.2442 C   0  0  0  0  0  0  0  0  0  0  0  0
    3.8647    4.0097    6.7245 C   0  0  0  0  0  0  0  0  0  0  0  0
    5.0674    3.9614    5.9896 C   0  0  0  0  0  0  0  0  0  0  0  0
    5.1793    4.7605    4.8490 C   0  0  0  0  0  0  0  0  0  0  0  0
    6.0666    4.6060    3.8331 N   0  0  0  0  0  0  0  0  0  0  0  0
    7.1325    3.5983    3.7466 C   0  0  0  0  0  0  0  0  0  0  0  0
    6.5637    2.2623    3.2770 C   0  0  0  0  0  0  0  0  0  0  0  0
    5.5605    5.3362    2.8062 C   0  0  0  0  0  0  0  0  0  0  0  0
    4.4166    6.0060    3.1933 C   0  0  0  0  0  0  0  0  0  0  0  0
    4.1651    5.6284    4.4936 C   0  0  0  0  0  0  0  0  0  0  0  0
    2.9998    5.7569    5.2502 C   0  0  0  0  0  0  0  0  0  0  0  0
    2.8582    4.9378    6.3824 C   0  0  0  0  0  0  0  0  0  0  0  0
    3.5881    6.6434    2.2737 C   0  0  0  0  0  0  0  0  0  0  0  0
    3.9069    6.5326    0.9117 C   0  0  0  0  0  0  0  0  0  0  0  0
    5.0240    5.7718    0.4930 C   0  0  0  0  0  0  0  0  0  0  0  0
    5.8973    5.2216    1.4530 C   0  0  0  0  0  0  0  0  0  0  0  0
    5.0691    5.2456   -0.8845 C   0  0  0  0  0  0  0  0  0  0  0  0
    4.7143    5.9340   -2.0645 C   0  0  0  0  0  0  0  0  0  0  0  0
    4.6358    7.3972   -2.1826 C   0  0  0  0  0  0  0  0  0  0  0  0
    5.7947    8.1674   -1.9997 C   0  0  0  0  0  0  0  0  0  0  0  0
    5.7309    9.5576   -2.0928 C   0  0  0  0  0  0  0  0  0  0  0  0
    4.5120   10.1907   -2.3505 C   0  0  0  0  0  0  0  0  0  0  0  0
    3.3403    9.4321   -2.5107 C   0  0  0  0  0  0  0  0  0  0  0  0
    2.0203   10.1153   -2.7501 C   0  0  0  0  0  0  0  0  0  0  0  0
    1.7592   10.2961   -4.2410 C   0  0  0  0  0  0  0  0  0  0  0  0
    3.4130    8.0301   -2.4515 C   0  0  0  0  0  0  0  0  0  0  0  0
    4.4644    5.0384   -3.1128 C   0  0  0  0  0  0  0  0  0  0  0  0
    3.7955    5.2112   -4.6751 S   0  0  0  0  0  0  0  0  0  0  0  0
    3.7632    3.5223   -4.8857 C   0  0  0  0  0  0  0  0  0  0  0  0
    3.0383    2.6311   -5.6318 C   0  0  0  0  0  0  0  0  0  0  0  0
    2.0932    2.8447   -6.6459 C   0  0  0  0  0  0  0  0  0  0  0  0
    1.2474    1.7639   -7.0380 C   0  0  0  0  0  0  0  0  0  0  0  0
    0.3173    2.0208   -7.9891 N   0  0  0  0  0  0  0  0  0  0  0  0
    0.6410    3.6233   -8.2616 S   0  0  0  0  0  0  0  0  0  0  0  0
    1.8868    4.0381   -7.2528 N   0  0  0  0  0  0  0  0  0  0  0  0
    1.4299    0.5174   -6.4269 C   0  0  0  0  0  0  0  0  0  0  0  0
    0.7808   -0.6735   -6.5695 C   0  0  0  0  0  0  0  0  0  0  0  0
   -0.8085   -1.1012   -6.9732 S   0  0  0  0  0  0  0  0  0  0  0  0
   -0.7247   -2.5005   -6.0058 C   0  0  0  0  0  0  0  0  0  0  0  0
   -1.7537   -3.2602   -5.4317 C   0  0  0  0  0  0  0  0  0  0  0  0
   -3.1585   -3.1901   -5.9027 C   0  0  0  0  0  0  0  0  0  0  0  0
   -3.4336   -3.3299   -7.2747 C   0  0  0  0  0  0  0  0  0  0  0  0
   -4.7490   -3.2739   -7.7409 C   0  0  0  0  0  0  0  0  0  0  0  0
   -5.8039   -3.0851   -6.8459 C   0  0  0  0  0  0  0  0  0  0  0  0
   -5.5451   -2.9218   -5.4749 C   0  0  0  0  0  0  0  0  0  0  0  0
   -6.6792   -2.7517   -4.5036 C   0  0  0  0  0  0  0  0  0  0  0  0
   -7.2094   -4.1098   -4.0575 C   0  0  0  0  0  0  0  0  0  0  0  0
   -4.2223   -2.9688   -5.0117 C   0  0  0  0  0  0  0  0  0  0  0  0
   -1.2933   -3.9379   -4.2793 C   0  0  0  0  0  0  0  0  0  0  0  0
    0.3465   -3.5651   -4.0224 S   0  0  0  0  0  0  0  0  0  0  0  0
    0.4935   -2.5833   -5.3666 C   0  0  0  0  0  0  0  0  0  0  0  0
    1.3659   -1.5517   -5.7049 C   0  0  0  0  0  0  0  0  0  0  0  0
    2.4058   -1.0059   -5.0160 N   0  0  0  0  0  0  0  0  0  0  0  0
    2.3845    0.2998   -5.4275 C   0  0  0  0  0  0  0  0  0  0  0  0
    3.1464    1.3986   -4.9590 C   0  0  0  0  0  0  0  0  0  0  0  0
    3.8100    1.5511   -3.7667 N   0  0  0  0  0  0  0  0  0  0  0  0
    4.2031    2.8505   -3.7878 C   0  0  0  0  0  0  0  0  0  0  0  0
    4.6095    3.7154   -2.7828 C   0  0  0  0  0  0  0  0  0  0  0  0
    5.0394    3.5639   -1.1770 S   0  0  0  0  0  0  0  0  0  0  0  0
    3.6398    0.7718   -2.5349 C   0  0  0  0  0  0  0  0  0  0  0  0
    2.3441    1.1533   -1.8173 C   0  0  0  0  0  0  0  0  0  0  0  0
    3.6702   -1.7468   -4.8436 C   0  0  0  0  0  0  0  0  0  0  0  0
    3.5641   -2.8415   -3.7851 C   0  0  0  0  0  0  0  0  0  0  0  0
   -2.1408   -4.5888   -3.2569 C   0  0  0  0  0  0  0  0  0  0  0  0
   -2.1385   -4.1171   -1.9231 C   0  0  0  0  0  0  0  0  0  0  0  0
   -1.3226   -3.0420   -1.5436 O   0  0  0  0  0  0  0  0  0  0  0  0
   -1.6137   -1.6956   -1.9081 C   0  0  0  0  0  0  0  0  0  0  0  0
   -2.7088   -1.1315   -1.0089 C   0  0  0  0  0  0  0  0  0  0  0  0
   -2.9891   -4.7065   -0.9734 C   0  0  0  0  0  0  0  0  0  0  0  0
   -3.0087   -4.2483    0.3489 O   0  0  0  0  0  0  0  0  0  0  0  0
   -1.8887   -4.3125    1.2275 C   0  0  0  0  0  0  0  0  0  0  0  0
   -1.6605   -5.7481    1.6803 C   0  0  0  0  0  0  0  0  0  0  0  0
   -3.8821   -5.7244   -1.3646 C   0  0  0  0  0  0  0  0  0  0  0  0
   -3.8645   -6.2013   -2.6807 C   0  0  0  0  0  0  0  0  0  0  0  0
   -3.0020   -5.6361   -3.6221 C   0  0  0  0  0  0  0  0  0  0  0  0
   -4.7968   -6.3329   -0.3766 C   0  0  0  0  0  0  0  0  0  0  0  0
   -5.7427   -5.6464    0.3084 C   0  0  0  0  0  0  0  0  0  0  0  0
   -6.1820   -4.2807   -0.0646 C   0  0  0  0  0  0  0  0  0  0  0  0
   -5.7872   -3.7507   -1.1385 O   0  0  0  0  0  0  0  0  0  0  0  0
   -7.1077   -3.5648    0.7784 N   0  0  0  0  0  0  0  0  0  0  0  0
   -7.7344   -2.3350    0.2581 C   0  0  0  0  0  0  0  0  0  0  0  0
   -6.8184   -1.1318    0.4588 C   0  0  0  0  0  0  0  0  0  0  0  0
   -7.3915   -4.0578    2.1092 C   0  0  0  0  0  0  0  0  0  0  0  0
   -8.0986   -3.0597    3.2216 S   0  0  0  0  0  0  0  0  0  0  0  0
   -7.0453   -5.4199    2.4613 N   0  0  0  0  0  0  0  0  0  0  0  0
   -7.3647   -5.9830    3.7887 C   0  0  0  0  0  0  0  0  0  0  0  0
   -8.7988   -6.5042    3.8167 C   0  0  0  0  0  0  0  0  0  0  0  0
   -6.3865   -6.2552    1.4889 C   0  0  0  0  0  0  0  0  0  0  0  0
   -6.3012   -7.5019    1.6825 O   0  0  0  0  0  0  0  0  0  0  0  0
    3.7548    3.1119    8.7092 H   0  0  0  0  0  0  0  0  0  0  0  0
    3.0139   -0.5115    3.5937 H   0  0  0  0  0  0  0  0  0  0  0  0
    2.7807   -2.5194    8.2699 H   0  0  0  0  0  0  0  0  0  0  0  0
    1.8664   -4.7901    5.8061 H   0  0  0  0  0  0  0  0  0  0  0  0
    4.4319   -5.2828    6.7628 H   0  0  0  0  0  0  0  0  0  0  0  0
    4.0042   -7.2314    5.0156 H   0  0  0  0  0  0  0  0  0  0  0  0
    4.1301   -6.2243    2.6141 H   0  0  0  0  0  0  0  0  0  0  0  0
    4.6445   -3.6303    2.8229 H   0  0  0  0  0  0  0  0  0  0  0  0
    5.2916   -3.1543    5.3790 H   0  0  0  0  0  0  0  0  0  0  0  0
    6.1037   -4.6591    4.7920 H   0  0  0  0  0  0  0  0  0  0  0  0
    1.9856   -3.8638    3.6006 H   0  0  0  0  0  0  0  0  0  0  0  0
    5.8169    3.2194    6.2255 H   0  0  0  0  0  0  0  0  0  0  0  0
    7.9222    3.9386    3.0420 H   0  0  0  0  0  0  0  0  0  0  0  0
    7.6148    3.4697    4.7396 H   0  0  0  0  0  0  0  0  0  0  0  0
    7.3708    1.4987    3.2462 H   0  0  0  0  0  0  0  0  0  0  0  0
    6.1273    2.3655    2.2607 H   0  0  0  0  0  0  0  0  0  0  0  0
    5.7716    1.9127    3.9718 H   0  0  0  0  0  0  0  0  0  0  0  0
    2.1823    6.3819    4.9248 H   0  0  0  0  0  0  0  0  0  0  0  0
    1.9211    4.9418    6.9226 H   0  0  0  0  0  0  0  0  0  0  0  0
    2.6687    7.1219    2.5828 H   0  0  0  0  0  0  0  0  0  0  0  0
    3.2018    6.9134    0.1885 H   0  0  0  0  0  0  0  0  0  0  0  0
    6.7219    4.5926    1.1420 H   0  0  0  0  0  0  0  0  0  0  0  0
    6.7451    7.6878   -1.7988 H   0  0  0  0  0  0  0  0  0  0  0  0
    6.6293   10.1484   -1.9678 H   0  0  0  0  0  0  0  0  0  0  0  0
    4.4804   11.2717   -2.4130 H   0  0  0  0  0  0  0  0  0  0  0  0
    1.1980    9.5148   -2.3043 H   0  0  0  0  0  0  0  0  0  0  0  0
    2.0086   11.1093   -2.2498 H   0  0  0  0  0  0  0  0  0  0  0  0
    1.7529    9.3086   -4.7534 H   0  0  0  0  0  0  0  0  0  0  0  0
    0.7705   10.7806   -4.3853 H   0  0  0  0  0  0  0  0  0  0  0  0
    2.5417   10.9418   -4.6981 H   0  0  0  0  0  0  0  0  0  0  0  0
    2.5167    7.4382   -2.5840 H   0  0  0  0  0  0  0  0  0  0  0  0
   -2.6285   -3.4973   -7.9821 H   0  0  0  0  0  0  0  0  0  0  0  0
   -4.9503   -3.3841   -8.7983 H   0  0  0  0  0  0  0  0  0  0  0  0
   -6.8200   -3.0671   -7.2179 H   0  0  0  0  0  0  0  0  0  0  0  0
   -6.3392   -2.1788   -3.6104 H   0  0  0  0  0  0  0  0  0  0  0  0
   -7.5021   -2.1685   -4.9744 H   0  0  0  0  0  0  0  0  0  0  0  0
   -8.0190   -3.9634   -3.3100 H   0  0  0  0  0  0  0  0  0  0  0  0
   -7.6209   -4.6644   -4.9274 H   0  0  0  0  0  0  0  0  0  0  0  0
   -6.3977   -4.7101   -3.5966 H   0  0  0  0  0  0  0  0  0  0  0  0
   -4.0242   -2.8274   -3.9561 H   0  0  0  0  0  0  0  0  0  0  0  0
    3.6156   -0.3063   -2.7249 H   0  0  0  0  0  0  0  0  0  0  0  0
    4.5058    0.9426   -1.8633 H   0  0  0  0  0  0  0  0  0  0  0  0
    2.3531    0.7205   -0.7951 H   0  0  0  0  0  0  0  0  0  0  0  0
    2.2440    2.2563   -1.7340 H   0  0  0  0  0  0  0  0  0  0  0  0
    1.4727    0.7447   -2.3703 H   0  0  0  0  0  0  0  0  0  0  0  0
    3.9625   -2.2098   -5.8134 H   0  0  0  0  0  0  0  0  0  0  0  0
    4.4993   -1.0563   -4.5876 H   0  0  0  0  0  0  0  0  0  0  0  0
    3.1418   -3.7630   -4.2372 H   0  0  0  0  0  0  0  0  0  0  0  0
    4.5770   -3.0881   -3.3938 H   0  0  0  0  0  0  0  0  0  0  0  0
    2.9198   -2.5130   -2.9394 H   0  0  0  0  0  0  0  0  0  0  0  0
   -0.6898   -1.0865   -1.7837 H   0  0  0  0  0  0  0  0  0  0  0  0
   -1.9333   -1.6271   -2.9720 H   0  0  0  0  0  0  0  0  0  0  0  0
   -3.6297   -1.7492   -1.0936 H   0  0  0  0  0  0  0  0  0  0  0  0
   -2.9530   -0.0988   -1.3241 H   0  0  0  0  0  0  0  0  0  0  0  0
   -2.3678   -1.1232    0.0486 H   0  0  0  0  0  0  0  0  0  0  0  0
   -0.9724   -3.9143    0.7457 H   0  0  0  0  0  0  0  0  0  0  0  0
   -2.1044   -3.6852    2.1192 H   0  0  0  0  0  0  0  0  0  0  0  0
   -1.3020   -6.3657    0.8301 H   0  0  0  0  0  0  0  0  0  0  0  0
   -0.8958   -5.7668    2.4844 H   0  0  0  0  0  0  0  0  0  0  0  0
   -2.6073   -6.1747    2.0769 H   0  0  0  0  0  0  0  0  0  0  0  0
   -4.5339   -6.9988   -2.9829 H   0  0  0  0  0  0  0  0  0  0  0  0
   -3.0196   -5.9979   -4.6453 H   0  0  0  0  0  0  0  0  0  0  0  0
   -4.6052   -7.3708   -0.1355 H   0  0  0  0  0  0  0  0  0  0  0  0
   -7.9588   -2.4484   -0.8241 H   0  0  0  0  0  0  0  0  0  0  0  0
   -8.7099   -2.1460    0.7505 H   0  0  0  0  0  0  0  0  0  0  0  0
   -6.5431   -1.0320    1.5270 H   0  0  0  0  0  0  0  0  0  0  0  0
   -5.8948   -1.2440   -0.1459 H   0  0  0  0  0  0  0  0  0  0  0  0
   -7.3434   -0.2083    0.1333 H   0  0  0  0  0  0  0  0  0  0  0  0
   -6.6698   -6.8137    4.0391 H   0  0  0  0  0  0  0  0  0  0  0  0
   -7.2204   -5.2226    4.5855 H   0  0  0  0  0  0  0  0  0  0  0  0
   -8.9486   -7.2533    3.0147 H   0  0  0  0  0  0  0  0  0  0  0  0
   -9.5194   -5.6735    3.6682 H   0  0  0  0  0  0  0  0  0  0  0  0
   -9.0046   -6.9812    4.7957 H   0  0  0  0  0  0  0  0  0  0  0  0
  1  2  2  3
  2  3  1  0
  3  4  2  0
  3  5  1  0
  5  6  2  0
  6  7  1  0
  7  8  2  0
  8  9  1  0
  9 10  2  0
 10 11  1  0
 11 12  2  3
 12 13  1  0
 13 14  3  0
 12 15  1  0
 15 16  3  0
  8 17  1  0
 17 18  1  0
 18 19  1  0
 19 20  2  0
 20 21  1  0
 21 22  1  0
 21 23  1  0
  1 24  1  0
 24 25  2  0
 25 26  1  0
 26 27  1  0
 27 28  1  0
 28 29  1  0
 27 30  1  0
 30 31  2  0
 31 32  1  0
 32 33  1  0
 33 34  2  0
 31 35  1  0
 35 36  2  0
 36 37  1  0
 37 38  2  0
 37 39  1  0
 39 40  2  0
 40 41  1  0
 41 42  2  0
 42 43  1  0
 43 44  2  0
 44 45  1  0
 45 46  1  0
 46 47  1  0
 45 48  2  0
 40 49  1  0
 49 50  1  0
 50 51  1  0
 51 52  1  0
 52 53  1  0
 53 54  1  0
 54 55  2  0
 55 56  1  0
 56 57  1  0
 54 58  1  0
 58 59  1  0
 59 60  1  0
 60 61  1  0
 61 62  1  0
 62 63  1  0
 63 64  2  0
 64 65  1  0
 65 66  2  0
 66 67  1  0
 67 68  1  0
 68 69  1  0
 67 70  2  0
 62 71  2  0
 71 72  1  0
 72 73  1  0
 73 74  1  0
 74 75  1  0
 75 76  1  0
 76 77  1  0
 77 78  1  0
 78 79  1  0
 79 80  1  0
 80 81  1  0
 78 82  1  0
 82 83  1  0
 75 84  1  0
 84 85  1  0
 71 86  1  0
 86 87  2  0
 87 88  1  0
 88 89  1  0
 89 90  1  0
 87 91  1  0
 91 92  1  0
 92 93  1  0
 93 94  1  0
 91 95  2  0
 95 96  1  0
 96 97  2  0
 95 98  1  0
 98 99  2  3
 99100  1  0
100101  2  0
100102  1  0
102103  1  0
103104  1  0
102105  1  0
105106  2  0
105107  1  0
107108  1  0
108109  1  0
107110  1  0
110111  2  0
 11  2  1  0
 23 17  1  0
 34 24  1  0
 81 39  1  0
 97 86  1  0
110 99  1  0
 10  5  1  0
 22 18  1  0
 32 26  2  0
 48 41  1  0
 80 49  2  0
 23  7  1  0
 38 30  1  0
 79 51  2  0
 77 52  2  0
 57 53  2  0
 76 58  2  0
 74 59  2  0
 73 61  2  0
 70 63  1  0
  1112  1  0
  6113  1  0
  9114  1  0
 17115  1  0
 18116  1  0
 19117  1  0
 20118  1  0
 21119  1  0
 22120  1  0
 22121  1  0
 23122  1  0
 25123  1  0
 28124  1  0
 28125  1  0
 29126  1  0
 29127  1  0
 29128  1  0
 33129  1  0
 34130  1  0
 35131  1  0
 36132  1  0
 38133  1  0
 42134  1  0
 43135  1  0
 44136  1  0
 46137  1  0
 46138  1  0
 47139  1  0
 47140  1  0
 47141  1  0
 48142  1  0
 64143  1  0
 65144  1  0
 66145  1  0
 68146  1  0
 68147  1  0
 69148  1  0
 69149  1  0
 69150  1  0
 70151  1  0
 82152  1  0
 82153  1  0
 83154  1  0
 83155  1  0
 83156  1  0
 84157  1  0
 84158  1  0
 85159  1  0
 85160  1  0
 85161  1  0
 89162  1  0
 89163  1  0
 90164  1  0
 90165  1  0
 90166  1  0
 93167  1  0
 93168  1  0
 94169  1  0
 94170  1  0
 94171  1  0
 96172  1  0
 97173  1  0
 98174  1  0
103175  1  0
103176  1  0
104177  1  0
104178  1  0
104179  1  0
108180  1  0
108181  1  0
109182  1  0
109183  1  0
109184  1  0
M  END

