
     RDKit          3D

217244  0  0  0  0  0  0  0  0999 V2000
    8.4186   -1.3639    3.6901 C   0  0  0  0  0  0  0  0  0  0  0  0
    8.5279   -1.2510    5.0237 C   0  0  0  0  0  0  0  0  0  0  0  0
    9.6755   -0.6510    5.7150 C   0  0  0  0  0  0  0  0  0  0  0  0
   10.6389   -0.0466    5.1722 O   0  0  0  0  0  0  0  0  0  0  0  0
    9.5694   -0.9427    7.1269 C   0  0  0  0  0  0  0  0  0  0  0  0
   10.4663   -0.5404    8.1468 C   0  0  0  0  0  0  0  0  0  0  0  0
   10.0460   -0.8712    9.4222 C   0  0  0  0  0  0  0  0  0  0  0  0
    8.8126   -1.5450    9.6893 C   0  0  0  0  0  0  0  0  0  0  0  0
    7.9420   -1.9638    8.6959 C   0  0  0  0  0  0  0  0  0  0  0  0
    8.3654   -1.6585    7.3688 C   0  0  0  0  0  0  0  0  0  0  0  0
    7.6636   -1.8851    6.0642 C   0  0  0  0  0  0  0  0  0  0  0  0
    6.3932   -2.3319    5.8796 C   0  0  0  0  0  0  0  0  0  0  0  0
    5.6855   -2.1312    4.6359 C   0  0  0  0  0  0  0  0  0  0  0  0
    5.1038   -1.9393    3.6546 N   0  0  0  0  0  0  0  0  0  0  0  0
    5.6049   -2.9241    6.9293 C   0  0  0  0  0  0  0  0  0  0  0  0
    4.9542   -3.4025    7.7596 N   0  0  0  0  0  0  0  0  0  0  0  0
    9.0656   -1.4559   11.1638 C   0  0  0  0  0  0  0  0  0  0  0  0
    8.2673   -0.3710   11.9510 C   0  0  0  0  0  0  0  0  0  0  0  0
    8.9583   -0.2353   13.2846 C   0  0  0  0  0  0  0  0  0  0  0  0
   10.1407    0.3511   13.0447 C   0  0  0  0  0  0  0  0  0  0  0  0
   10.1989    0.6030   11.5546 C   0  0  0  0  0  0  0  0  0  0  0  0
    8.7336    0.9344   11.3205 C   0  0  0  0  0  0  0  0  0  0  0  0
   10.3510   -0.7959   10.8868 C   0  0  0  0  0  0  0  0  0  0  0  0
    8.8514   -0.3048    2.7580 C   0  0  0  0  0  0  0  0  0  0  0  0
    8.7108    1.0477    3.1364 C   0  0  0  0  0  0  0  0  0  0  0  0
    8.7844    2.0341    2.1530 C   0  0  0  0  0  0  0  0  0  0  0  0
    8.3882    3.3232    2.2781 N   0  0  0  0  0  0  0  0  0  0  0  0
    7.8566    3.9661    3.4842 C   0  0  0  0  0  0  0  0  0  0  0  0
    6.3687    3.6641    3.6449 C   0  0  0  0  0  0  0  0  0  0  0  0
    8.2965    3.7883    1.0059 C   0  0  0  0  0  0  0  0  0  0  0  0
    8.7076    2.8358    0.0949 C   0  0  0  0  0  0  0  0  0  0  0  0
    9.0122    1.7057    0.8315 C   0  0  0  0  0  0  0  0  0  0  0  0
    9.2024    0.3835    0.4264 C   0  0  0  0  0  0  0  0  0  0  0  0
    9.1133   -0.6274    1.4032 C   0  0  0  0  0  0  0  0  0  0  0  0
    8.5052    2.9964   -1.2756 C   0  0  0  0  0  0  0  0  0  0  0  0
    7.7837    4.1208   -1.7079 C   0  0  0  0  0  0  0  0  0  0  0  0
    7.2367    5.0399   -0.7719 C   0  0  0  0  0  0  0  0  0  0  0  0
    7.5764    4.9099    0.5951 C   0  0  0  0  0  0  0  0  0  0  0  0
    6.0156    5.8087   -1.1392 C   0  0  0  0  0  0  0  0  0  0  0  0
    5.4203    6.8645   -0.4021 C   0  0  0  0  0  0  0  0  0  0  0  0
    6.1335    7.7437    0.5517 C   0  0  0  0  0  0  0  0  0  0  0  0
    7.2727    8.4501    0.1359 C   0  0  0  0  0  0  0  0  0  0  0  0
    7.9427    9.2952    1.0234 C   0  0  0  0  0  0  0  0  0  0  0  0
    7.4948    9.4250    2.3424 C   0  0  0  0  0  0  0  0  0  0  0  0
    6.3755    8.6978    2.7852 C   0  0  0  0  0  0  0  0  0  0  0  0
    5.8885    8.8355    4.2052 C   0  0  0  0  0  0  0  0  0  0  0  0
    4.8218    9.9215    4.3067 C   0  0  0  0  0  0  0  0  0  0  0  0
    5.6921    7.8693    1.8805 C   0  0  0  0  0  0  0  0  0  0  0  0
    4.0401    6.9459   -0.6537 C   0  0  0  0  0  0  0  0  0  0  0  0
    2.7602    7.7017    0.1767 S   0  0  0  0  0  0  0  0  0  0  0  0
    1.6012    6.8487   -0.7290 C   0  0  0  0  0  0  0  0  0  0  0  0
    0.3229    6.4149   -0.5074 C   0  0  0  0  0  0  0  0  0  0  0  0
   -0.5413    6.6903    0.5613 C   0  0  0  0  0  0  0  0  0  0  0  0
   -1.6851    5.8677    0.7512 C   0  0  0  0  0  0  0  0  0  0  0  0
   -2.4863    6.1605    1.8073 N   0  0  0  0  0  0  0  0  0  0  0  0
   -1.6562    7.4465    2.4407 S   0  0  0  0  0  0  0  0  0  0  0  0
   -0.3365    7.6787    1.4674 N   0  0  0  0  0  0  0  0  0  0  0  0
   -1.9312    4.8402   -0.1568 C   0  0  0  0  0  0  0  0  0  0  0  0
   -2.9665    3.9543   -0.2527 C   0  0  0  0  0  0  0  0  0  0  0  0
   -4.3991    3.5241    0.5541 S   0  0  0  0  0  0  0  0  0  0  0  0
   -4.7706    2.3636   -0.6529 C   0  0  0  0  0  0  0  0  0  0  0  0
   -5.8293    1.4662   -0.8564 C   0  0  0  0  0  0  0  0  0  0  0  0
   -7.0109    1.3523    0.0290 C   0  0  0  0  0  0  0  0  0  0  0  0
   -8.3059    1.3366   -0.5249 C   0  0  0  0  0  0  0  0  0  0  0  0
   -9.4253    1.2894    0.3042 C   0  0  0  0  0  0  0  0  0  0  0  0
   -9.2728    1.2602    1.6931 C   0  0  0  0  0  0  0  0  0  0  0  0
   -7.9874    1.2573    2.2599 C   0  0  0  0  0  0  0  0  0  0  0  0
   -7.8219    1.2684    3.7578 C   0  0  0  0  0  0  0  0  0  0  0  0
   -7.7461    2.7000    4.2818 C   0  0  0  0  0  0  0  0  0  0  0  0
   -6.8597    1.3076    1.4227 C   0  0  0  0  0  0  0  0  0  0  0  0
   -5.6662    0.7741   -2.0722 C   0  0  0  0  0  0  0  0  0  0  0  0
   -4.2241    1.2615   -2.8353 S   0  0  0  0  0  0  0  0  0  0  0  0
   -3.8239    2.3692   -1.6443 C   0  0  0  0  0  0  0  0  0  0  0  0
   -2.7909    3.2647   -1.4030 C   0  0  0  0  0  0  0  0  0  0  0  0
   -1.6909    3.6548   -2.0952 N   0  0  0  0  0  0  0  0  0  0  0  0
   -1.1017    4.5889   -1.2662 C   0  0  0  0  0  0  0  0  0  0  0  0
    0.1180    5.3311   -1.3848 C   0  0  0  0  0  0  0  0  0  0  0  0
    1.2963    5.0253   -2.0334 N   0  0  0  0  0  0  0  0  0  0  0  0
    2.1638    5.9874   -1.6149 C   0  0  0  0  0  0  0  0  0  0  0  0
    3.5599    6.0446   -1.5715 C   0  0  0  0  0  0  0  0  0  0  0  0
    4.8117    5.0678   -2.0884 S   0  0  0  0  0  0  0  0  0  0  0  0
    1.7083    3.7657   -2.6700 C   0  0  0  0  0  0  0  0  0  0  0  0
    1.6590    2.5983   -1.6845 C   0  0  0  0  0  0  0  0  0  0  0  0
   -1.4904    3.3716   -3.5242 C   0  0  0  0  0  0  0  0  0  0  0  0
   -1.3077    4.6488   -4.3481 C   0  0  0  0  0  0  0  0  0  0  0  0
   -6.4694   -0.3521   -2.5657 C   0  0  0  0  0  0  0  0  0  0  0  0
   -6.7134   -1.7818   -1.7042 S   0  0  0  0  0  0  0  0  0  0  0  0
   -7.1766   -2.6887   -3.0399 C   0  0  0  0  0  0  0  0  0  0  0  0
   -7.1468   -4.1372   -3.1539 C   0  0  0  0  0  0  0  0  0  0  0  0
   -6.9407   -4.7020   -4.3962 C   0  0  0  0  0  0  0  0  0  0  0  0
   -6.9578   -3.9211   -5.5615 O   0  0  0  0  0  0  0  0  0  0  0  0
   -7.3354   -2.5219   -5.5792 C   0  0  0  0  0  0  0  0  0  0  0  0
   -8.8084   -2.4743   -6.0055 C   0  0  0  0  0  0  0  0  0  0  0  0
   -9.1857   -3.1212   -7.1980 C   0  0  0  0  0  0  0  0  0  0  0  0
  -10.5123   -3.1067   -7.6371 C   0  0  0  0  0  0  0  0  0  0  0  0
  -11.5001   -2.4522   -6.8857 C   0  0  0  0  0  0  0  0  0  0  0  0
  -12.9392   -2.4972   -7.3213 C   0  0  0  0  0  0  0  0  0  0  0  0
  -13.6157   -3.7750   -6.8266 C   0  0  0  0  0  0  0  0  0  0  0  0
  -11.1391   -1.8143   -5.6890 C   0  0  0  0  0  0  0  0  0  0  0  0
   -9.8100   -1.8154   -5.2554 C   0  0  0  0  0  0  0  0  0  0  0  0
   -6.4300   -1.7961   -6.5712 C   0  0  0  0  0  0  0  0  0  0  0  0
   -6.9036   -0.7531   -7.4025 C   0  0  0  0  0  0  0  0  0  0  0  0
   -6.0176    0.0026   -8.1692 C   0  0  0  0  0  0  0  0  0  0  0  0
   -4.6351   -0.2317   -8.0993 C   0  0  0  0  0  0  0  0  0  0  0  0
   -3.6774    0.6271   -8.8818 C   0  0  0  0  0  0  0  0  0  0  0  0
   -3.4046    0.0326  -10.2609 C   0  0  0  0  0  0  0  0  0  0  0  0
   -4.1588   -1.2820   -7.3027 C   0  0  0  0  0  0  0  0  0  0  0  0
   -5.0454   -2.0516   -6.5432 C   0  0  0  0  0  0  0  0  0  0  0  0
   -7.1200   -1.9073   -4.1837 C   0  0  0  0  0  0  0  0  0  0  0  0
   -6.7401   -0.5810   -3.9117 C   0  0  0  0  0  0  0  0  0  0  0  0
   -6.5839   -6.0511   -4.3549 C   0  0  0  0  0  0  0  0  0  0  0  0
   -6.4480   -6.5226   -3.0509 C   0  0  0  0  0  0  0  0  0  0  0  0
   -6.8369   -5.2782   -1.9634 S   0  0  0  0  0  0  0  0  0  0  0  0
   -5.8924   -7.8365   -2.6899 C   0  0  0  0  0  0  0  0  0  0  0  0
   -4.7155   -7.9984   -2.0474 C   0  0  0  0  0  0  0  0  0  0  0  0
   -3.7267   -6.9343   -1.8185 C   0  0  0  0  0  0  0  0  0  0  0  0
   -3.9199   -5.6907   -1.8946 O   0  0  0  0  0  0  0  0  0  0  0  0
   -2.4355   -7.5298   -1.5936 C   0  0  0  0  0  0  0  0  0  0  0  0
   -1.1993   -6.8423   -1.4971 C   0  0  0  0  0  0  0  0  0  0  0  0
   -0.1063   -7.6826   -1.4369 C   0  0  0  0  0  0  0  0  0  0  0  0
   -0.2101   -9.1087   -1.4360 C   0  0  0  0  0  0  0  0  0  0  0  0
   -1.4158   -9.7865   -1.5209 C   0  0  0  0  0  0  0  0  0  0  0  0
   -2.5617   -8.9443   -1.6251 C   0  0  0  0  0  0  0  0  0  0  0  0
   -4.0044   -9.2944   -1.8295 C   0  0  0  0  0  0  0  0  0  0  0  0
   -4.5693  -10.5329   -1.7731 C   0  0  0  0  0  0  0  0  0  0  0  0
   -5.9967  -10.7145   -1.6790 C   0  0  0  0  0  0  0  0  0  0  0  0
   -7.1385  -10.8796   -1.5899 N   0  0  0  0  0  0  0  0  0  0  0  0
   -3.7997  -11.7456   -1.6643 C   0  0  0  0  0  0  0  0  0  0  0  0
   -3.1929  -12.7310   -1.5989 N   0  0  0  0  0  0  0  0  0  0  0  0
    1.2847   -9.2358   -1.3617 C   0  0  0  0  0  0  0  0  0  0  0  0
    1.9283   -9.6301   -0.0002 C   0  0  0  0  0  0  0  0  0  0  0  0
    1.0811   -9.1187    1.1416 C   0  0  0  0  0  0  0  0  0  0  0  0
    1.1797   -7.7912    1.1279 C   0  0  0  0  0  0  0  0  0  0  0  0
    2.0900   -7.4404   -0.0264 C   0  0  0  0  0  0  0  0  0  0  0  0
    3.0510   -8.6110    0.0602 C   0  0  0  0  0  0  0  0  0  0  0  0
    1.3870   -7.7721   -1.3774 C   0  0  0  0  0  0  0  0  0  0  0  0
    7.8407   -2.1735    3.2707 H   0  0  0  0  0  0  0  0  0  0  0  0
   11.3704    0.0121    7.9467 H   0  0  0  0  0  0  0  0  0  0  0  0
    7.0276   -2.4672    8.9561 H   0  0  0  0  0  0  0  0  0  0  0  0
    9.1596   -2.4482   11.6601 H   0  0  0  0  0  0  0  0  0  0  0  0
    7.1660   -0.5184   11.9965 H   0  0  0  0  0  0  0  0  0  0  0  0
    8.5454   -0.4507   14.2636 H   0  0  0  0  0  0  0  0  0  0  0  0
   10.8518    0.6757   13.7991 H   0  0  0  0  0  0  0  0  0  0  0  0
   10.9310    1.3755   11.2303 H   0  0  0  0  0  0  0  0  0  0  0  0
    8.4566    1.0520   10.2477 H   0  0  0  0  0  0  0  0  0  0  0  0
    8.3947    1.8443   11.8748 H   0  0  0  0  0  0  0  0  0  0  0  0
   11.2418   -1.3886   11.1912 H   0  0  0  0  0  0  0  0  0  0  0  0
    8.4069    1.3068    4.1405 H   0  0  0  0  0  0  0  0  0  0  0  0
    8.4080    3.6090    4.3813 H   0  0  0  0  0  0  0  0  0  0  0  0
    8.0108    5.0690    3.4323 H   0  0  0  0  0  0  0  0  0  0  0  0
    5.7904    4.0848    2.7918 H   0  0  0  0  0  0  0  0  0  0  0  0
    5.9967    4.1241    4.5885 H   0  0  0  0  0  0  0  0  0  0  0  0
    6.1961    2.5653    3.6855 H   0  0  0  0  0  0  0  0  0  0  0  0
    9.3110    0.1281   -0.6219 H   0  0  0  0  0  0  0  0  0  0  0  0
    9.1686   -1.6640    1.0922 H   0  0  0  0  0  0  0  0  0  0  0  0
    8.7961    2.2273   -1.9791 H   0  0  0  0  0  0  0  0  0  0  0  0
    7.5343    4.2025   -2.7568 H   0  0  0  0  0  0  0  0  0  0  0  0
    7.1229    5.5350    1.3406 H   0  0  0  0  0  0  0  0  0  0  0  0
    7.6282    8.3635   -0.8821 H   0  0  0  0  0  0  0  0  0  0  0  0
    8.8099    9.8529    0.6931 H   0  0  0  0  0  0  0  0  0  0  0  0
    8.0154   10.0932    3.0177 H   0  0  0  0  0  0  0  0  0  0  0  0
    6.7353    9.0867    4.8808 H   0  0  0  0  0  0  0  0  0  0  0  0
    5.4658    7.8666    4.5524 H   0  0  0  0  0  0  0  0  0  0  0  0
    5.2368   10.9012    3.9868 H   0  0  0  0  0  0  0  0  0  0  0  0
    3.9495    9.6663    3.6666 H   0  0  0  0  0  0  0  0  0  0  0  0
    4.4807   10.0034    5.3589 H   0  0  0  0  0  0  0  0  0  0  0  0
    4.8343    7.3004    2.2209 H   0  0  0  0  0  0  0  0  0  0  0  0
   -8.4486    1.3811   -1.5944 H   0  0  0  0  0  0  0  0  0  0  0  0
  -10.4195    1.2893   -0.1276 H   0  0  0  0  0  0  0  0  0  0  0  0
  -10.1525    1.2359    2.3249 H   0  0  0  0  0  0  0  0  0  0  0  0
   -6.8938    0.7262    4.0424 H   0  0  0  0  0  0  0  0  0  0  0  0
   -8.6778    0.7445    4.2392 H   0  0  0  0  0  0  0  0  0  0  0  0
   -7.6872    2.6831    5.3914 H   0  0  0  0  0  0  0  0  0  0  0  0
   -6.8418    3.2077    3.8808 H   0  0  0  0  0  0  0  0  0  0  0  0
   -8.6525    3.2727    3.9841 H   0  0  0  0  0  0  0  0  0  0  0  0
   -5.8686    1.3095    1.8620 H   0  0  0  0  0  0  0  0  0  0  0  0
    2.7368    3.8452   -3.0677 H   0  0  0  0  0  0  0  0  0  0  0  0
    1.1386    3.5734   -3.5878 H   0  0  0  0  0  0  0  0  0  0  0  0
    2.2271    2.8538   -0.7645 H   0  0  0  0  0  0  0  0  0  0  0  0
    0.6133    2.3563   -1.4165 H   0  0  0  0  0  0  0  0  0  0  0  0
    2.1192    1.7040   -2.1509 H   0  0  0  0  0  0  0  0  0  0  0  0
   -0.6905    2.6225   -3.6622 H   0  0  0  0  0  0  0  0  0  0  0  0
   -2.3918    2.8857   -3.9433 H   0  0  0  0  0  0  0  0  0  0  0  0
   -2.1924    5.3101   -4.2262 H   0  0  0  0  0  0  0  0  0  0  0  0
   -1.2069    4.3732   -5.4202 H   0  0  0  0  0  0  0  0  0  0  0  0
   -0.3990    5.2024   -4.0532 H   0  0  0  0  0  0  0  0  0  0  0  0
   -8.4434   -3.6318   -7.8002 H   0  0  0  0  0  0  0  0  0  0  0  0
  -10.7717   -3.6091   -8.5626 H   0  0  0  0  0  0  0  0  0  0  0  0
  -13.4914   -1.6133   -6.9288 H   0  0  0  0  0  0  0  0  0  0  0  0
  -13.0011   -2.4575   -8.4317 H   0  0  0  0  0  0  0  0  0  0  0  0
  -13.0896   -4.6698   -7.2218 H   0  0  0  0  0  0  0  0  0  0  0  0
  -14.6687   -3.7984   -7.1792 H   0  0  0  0  0  0  0  0  0  0  0  0
  -13.6104   -3.8048   -5.7159 H   0  0  0  0  0  0  0  0  0  0  0  0
  -11.8967   -1.3253   -5.0881 H   0  0  0  0  0  0  0  0  0  0  0  0
   -9.5836   -1.2970   -4.3328 H   0  0  0  0  0  0  0  0  0  0  0  0
   -7.9552   -0.4903   -7.4339 H   0  0  0  0  0  0  0  0  0  0  0  0
   -6.4029    0.8037   -8.7925 H   0  0  0  0  0  0  0  0  0  0  0  0
   -2.7155    0.7262   -8.3278 H   0  0  0  0  0  0  0  0  0  0  0  0
   -4.0955    1.6531   -8.9981 H   0  0  0  0  0  0  0  0  0  0  0  0
   -2.7458    0.7190  -10.8330 H   0  0  0  0  0  0  0  0  0  0  0  0
   -4.3566   -0.0988  -10.8177 H   0  0  0  0  0  0  0  0  0  0  0  0
   -2.9003   -0.9534  -10.1630 H   0  0  0  0  0  0  0  0  0  0  0  0
   -3.0969   -1.4879   -7.2461 H   0  0  0  0  0  0  0  0  0  0  0  0
   -4.6454   -2.8201   -5.8959 H   0  0  0  0  0  0  0  0  0  0  0  0
   -6.5676    0.1642   -4.6773 H   0  0  0  0  0  0  0  0  0  0  0  0
   -6.3250   -6.6293   -5.2330 H   0  0  0  0  0  0  0  0  0  0  0  0
   -6.3920   -8.6844   -3.1239 H   0  0  0  0  0  0  0  0  0  0  0  0
   -1.1097   -5.7651   -1.5136 H   0  0  0  0  0  0  0  0  0  0  0  0
   -1.4295  -10.8619   -1.5558 H   0  0  0  0  0  0  0  0  0  0  0  0
    1.7454   -9.7213   -2.2561 H   0  0  0  0  0  0  0  0  0  0  0  0
    2.2368  -10.6950    0.0844 H   0  0  0  0  0  0  0  0  0  0  0  0
    0.5568   -9.7045    1.8878 H   0  0  0  0  0  0  0  0  0  0  0  0
    0.7570   -7.1059    1.8626 H   0  0  0  0  0  0  0  0  0  0  0  0
    2.5586   -6.4349    0.0303 H   0  0  0  0  0  0  0  0  0  0  0  0
    3.6270   -8.6424    1.0168 H   0  0  0  0  0  0  0  0  0  0  0  0
    3.7587   -8.6744   -0.8014 H   0  0  0  0  0  0  0  0  0  0  0  0
    1.8944   -7.3686   -2.2809 H   0  0  0  0  0  0  0  0  0  0  0  0
  1  2  2  3
  2  3  1  0
  3  4  2  0
  3  5  1  0
  5  6  2  0
  6  7  1  0
  7  8  2  0
  8  9  1  0
  9 10  2  0
 10 11  1  0
 11 12  2  3
 12 13  1  0
 13 14  3  0
 12 15  1  0
 15 16  3  0
  8 17  1  0
 17 18  1  0
 18 19  1  0
 19 20  2  0
 20 21  1  0
 21 22  1  0
 21 23  1  0
  1 24  1  0
 24 25  2  0
 25 26  1  0
 26 27  1  0
 27 28  1  0
 28 29  1  0
 27 30  1  0
 30 31  2  0
 31 32  1  0
 32 33  1  0
 33 34  2  0
 31 35  1  0
 35 36  2  0
 36 37  1  0
 37 38  2  0
 37 39  1  0
 39 40  2  0
 40 41  1  0
 41 42  2  0
 42 43  1  0
 43 44  2  0
 44 45  1  0
 45 46  1  0
 46 47  1  0
 45 48  2  0
 40 49  1  0
 49 50  1  0
 50 51  1  0
 51 52  1  0
 52 53  1  0
 53 54  1  0
 54 55  2  0
 55 56  1  0
 56 57  1  0
 54 58  1  0
 58 59  1  0
 59 60  1  0
 60 61  1  0
 61 62  1  0
 62 63  1  0
 63 64  2  0
 64 65  1  0
 65 66  2  0
 66 67  1  0
 67 68  1  0
 68 69  1  0
 67 70  2  0
 62 71  2  0
 71 72  1  0
 72 73  1  0
 73 74  1  0
 74 75  1  0
 75 76  1  0
 76 77  1  0
 77 78  1  0
 78 79  1  0
 79 80  1  0
 80 81  1  0
 78 82  1  0
 82 83  1  0
 75 84  1  0
 84 85  1  0
 71 86  1  0
 86 87  1  0
 87 88  1  0
 88 89  1  0
 89 90  2  0
 90 91  1  0
 91 92  1  0
 92 93  1  0
 93 94  2  0
 94 95  1  0
 95 96  2  0
 96 97  1  0
 97 98  1  0
 96 99  1  0
 99100  2  0
 92101  1  0
101102  2  0
102103  1  0
103104  2  0
104105  1  0
105106  1  0
104107  1  0
107108  2  0
 92109  1  0
109110  1  0
 90111  1  0
111112  2  0
112113  1  0
112114  1  0
114115  2  3
115116  1  0
116117  2  0
116118  1  0
118119  2  0
119120  1  0
120121  2  0
121122  1  0
122123  2  0
123124  1  0
124125  2  3
125126  1  0
126127  3  0
125128  1  0
128129  3  0
121130  1  0
130131  1  0
131132  1  0
132133  2  0
133134  1  0
134135  1  0
134136  1  0
 11  2  1  0
 23 17  1  0
 34 24  1  0
 81 39  1  0
110 86  2  0
124115  1  0
136130  1  0
 10  5  1  0
 22 18  1  0
 32 26  2  0
 48 41  1  0
 80 49  2  0
109 88  2  0
123118  1  0
135131  1  0
 23  7  1  0
 38 30  1  0
 79 51  2  0
113 89  1  0
136120  1  0
 77 52  2  0
100 93  1  0
108101  1  0
 57 53  2  0
 76 58  2  0
 74 59  2  0
 73 61  2  0
 70 63  1  0
  1137  1  0
  6138  1  0
  9139  1  0
 17140  1  0
 18141  1  0
 19142  1  0
 20143  1  0
 21144  1  0
 22145  1  0
 22146  1  0
 23147  1  0
 25148  1  0
 28149  1  0
 28150  1  0
 29151  1  0
 29152  1  0
 29153  1  0
 33154  1  0
 34155  1  0
 35156  1  0
 36157  1  0
 38158  1  0
 42159  1  0
 43160  1  0
 44161  1  0
 46162  1  0
 46163  1  0
 47164  1  0
 47165  1  0
 47166  1  0
 48167  1  0
 64168  1  0
 65169  1  0
 66170  1  0
 68171  1  0
 68172  1  0
 69173  1  0
 69174  1  0
 69175  1  0
 70176  1  0
 82177  1  0
 82178  1  0
 83179  1  0
 83180  1  0
 83181  1  0
 84182  1  0
 84183  1  0
 85184  1  0
 85185  1  0
 85186  1  0
 94187  1  0
 95188  1  0
 97189  1  0
 97190  1  0
 98191  1  0
 98192  1  0
 98193  1  0
 99194  1  0
100195  1  0
102196  1  0
103197  1  0
105198  1  0
105199  1  0
106200  1  0
106201  1  0
106202  1  0
107203  1  0
108204  1  0
110205  1  0
111206  1  0
114207  1  0
119208  1  0
122209  1  0
130210  1  0
131211  1  0
132212  1  0
133213  1  0
134214  1  0
135215  1  0
135216  1  0
136217  1  0
M  END

