
     RDKit          3D

188211  0  0  0  0  0  0  0  0999 V2000
    6.9218    1.2636   -4.8920 C   0  0  0  0  0  0  0  0  0  0  0  0
    6.7103    1.2062   -3.5593 C   0  0  0  0  0  0  0  0  0  0  0  0
    5.4138    1.4431   -2.9045 C   0  0  0  0  0  0  0  0  0  0  0  0
    4.3003    1.5954   -3.4761 O   0  0  0  0  0  0  0  0  0  0  0  0
    5.6176    1.5545   -1.4820 C   0  0  0  0  0  0  0  0  0  0  0  0
    4.6255    1.8156   -0.5065 C   0  0  0  0  0  0  0  0  0  0  0  0
    5.1127    1.8647    0.7813 C   0  0  0  0  0  0  0  0  0  0  0  0
    6.4978    1.6993    1.1041 C   0  0  0  0  0  0  0  0  0  0  0  0
    7.4807    1.4707    0.1487 C   0  0  0  0  0  0  0  0  0  0  0  0
    6.9948    1.3733   -1.1904 C   0  0  0  0  0  0  0  0  0  0  0  0
    7.7253    1.0699   -2.4616 C   0  0  0  0  0  0  0  0  0  0  0  0
    8.9808    0.5540   -2.5708 C   0  0  0  0  0  0  0  0  0  0  0  0
    9.5199    0.0867   -3.8219 C   0  0  0  0  0  0  0  0  0  0  0  0
    9.9658   -0.2961   -4.8201 N   0  0  0  0  0  0  0  0  0  0  0  0
    9.8277    0.3184   -1.4341 C   0  0  0  0  0  0  0  0  0  0  0  0
   10.5256    0.1131   -0.5294 N   0  0  0  0  0  0  0  0  0  0  0  0
    6.1922    1.8258    2.5689 C   0  0  0  0  0  0  0  0  0  0  0  0
    6.2042    0.5222    3.4257 C   0  0  0  0  0  0  0  0  0  0  0  0
    5.8097   -0.6621    2.5678 C   0  0  0  0  0  0  0  0  0  0  0  0
    4.5192   -0.4979    2.2680 C   0  0  0  0  0  0  0  0  0  0  0  0
    4.0803    0.7861    2.9301 C   0  0  0  0  0  0  0  0  0  0  0  0
    4.9102    0.6964    4.1967 C   0  0  0  0  0  0  0  0  0  0  0  0
    4.7738    2.0033    2.2371 C   0  0  0  0  0  0  0  0  0  0  0  0
    5.8091    1.3569   -5.8487 C   0  0  0  0  0  0  0  0  0  0  0  0
    4.9833    0.2343   -6.0686 C   0  0  0  0  0  0  0  0  0  0  0  0
    3.7756    0.4216   -6.7502 C   0  0  0  0  0  0  0  0  0  0  0  0
    2.7517   -0.4621   -6.8828 N   0  0  0  0  0  0  0  0  0  0  0  0
    2.7306   -1.8919   -6.5442 C   0  0  0  0  0  0  0  0  0  0  0  0
    2.9196   -2.7354   -7.8008 C   0  0  0  0  0  0  0  0  0  0  0  0
    1.7270    0.2622   -7.3975 C   0  0  0  0  0  0  0  0  0  0  0  0
    2.0960    1.5745   -7.6085 C   0  0  0  0  0  0  0  0  0  0  0  0
    3.4098    1.6743   -7.2029 C   0  0  0  0  0  0  0  0  0  0  0  0
    4.2374    2.7855   -7.0614 C   0  0  0  0  0  0  0  0  0  0  0  0
    5.4590    2.6157   -6.3892 C   0  0  0  0  0  0  0  0  0  0  0  0
    1.1777    2.5518   -7.9902 C   0  0  0  0  0  0  0  0  0  0  0  0
   -0.1682    2.1714   -8.1159 C   0  0  0  0  0  0  0  0  0  0  0  0
   -0.5698    0.8361   -7.8742 C   0  0  0  0  0  0  0  0  0  0  0  0
    0.3970   -0.1384   -7.5414 C   0  0  0  0  0  0  0  0  0  0  0  0
   -2.0019    0.5108   -7.7356 C   0  0  0  0  0  0  0  0  0  0  0  0
   -2.6336   -0.6851   -8.1399 C   0  0  0  0  0  0  0  0  0  0  0  0
   -1.9811   -1.7406   -8.9463 C   0  0  0  0  0  0  0  0  0  0  0  0
   -1.3432   -1.4170  -10.1545 C   0  0  0  0  0  0  0  0  0  0  0  0
   -0.6720   -2.4039  -10.8803 C   0  0  0  0  0  0  0  0  0  0  0  0
   -0.6352   -3.7209  -10.4132 C   0  0  0  0  0  0  0  0  0  0  0  0
   -1.2640   -4.0606   -9.2065 C   0  0  0  0  0  0  0  0  0  0  0  0
   -1.1975   -5.4637   -8.6673 C   0  0  0  0  0  0  0  0  0  0  0  0
   -0.0794   -5.5978   -7.6325 C   0  0  0  0  0  0  0  0  0  0  0  0
   -1.9179   -3.0612   -8.4672 C   0  0  0  0  0  0  0  0  0  0  0  0
   -3.8743   -0.8380   -7.5008 C   0  0  0  0  0  0  0  0  0  0  0  0
   -4.9031   -2.1721   -7.3181 S   0  0  0  0  0  0  0  0  0  0  0  0
   -5.7732   -1.4215   -6.0698 C   0  0  0  0  0  0  0  0  0  0  0  0
   -6.3136   -1.9277   -4.9176 C   0  0  0  0  0  0  0  0  0  0  0  0
   -6.4694   -3.2778   -4.5629 C   0  0  0  0  0  0  0  0  0  0  0  0
   -6.5415   -3.6279   -3.1845 C   0  0  0  0  0  0  0  0  0  0  0  0
   -6.6049   -4.9474   -2.8821 N   0  0  0  0  0  0  0  0  0  0  0  0
   -6.5561   -5.5843   -4.4099 S   0  0  0  0  0  0  0  0  0  0  0  0
   -6.4514   -4.3017   -5.4526 N   0  0  0  0  0  0  0  0  0  0  0  0
   -6.5304   -2.6052   -2.2366 C   0  0  0  0  0  0  0  0  0  0  0  0
   -6.4942   -2.6413   -0.8736 C   0  0  0  0  0  0  0  0  0  0  0  0
   -6.0833   -3.7465    0.3515 S   0  0  0  0  0  0  0  0  0  0  0  0
   -5.9190   -2.4659    1.4733 C   0  0  0  0  0  0  0  0  0  0  0  0
   -5.3670   -2.3889    2.7564 C   0  0  0  0  0  0  0  0  0  0  0  0
   -4.9821   -3.5684    3.5440 C   0  0  0  0  0  0  0  0  0  0  0  0
   -3.8790   -4.3467    3.1610 C   0  0  0  0  0  0  0  0  0  0  0  0
   -3.5331   -5.4824    3.8974 C   0  0  0  0  0  0  0  0  0  0  0  0
   -4.3020   -5.8663    4.9994 C   0  0  0  0  0  0  0  0  0  0  0  0
   -5.4152   -5.0994    5.3873 C   0  0  0  0  0  0  0  0  0  0  0  0
   -6.2870   -5.5588    6.5255 C   0  0  0  0  0  0  0  0  0  0  0  0
   -7.3008   -6.5964    6.0408 C   0  0  0  0  0  0  0  0  0  0  0  0
   -5.7463   -3.9445    4.6591 C   0  0  0  0  0  0  0  0  0  0  0  0
   -5.2077   -1.0436    3.1583 C   0  0  0  0  0  0  0  0  0  0  0  0
   -5.7277   -0.0045    1.9060 S   0  0  0  0  0  0  0  0  0  0  0  0
   -6.1758   -1.2543    0.8902 C   0  0  0  0  0  0  0  0  0  0  0  0
   -6.4851   -1.3618   -0.4493 C   0  0  0  0  0  0  0  0  0  0  0  0
   -6.5155   -0.4592   -1.4559 N   0  0  0  0  0  0  0  0  0  0  0  0
   -6.4613   -1.2432   -2.5847 C   0  0  0  0  0  0  0  0  0  0  0  0
   -6.2143   -0.9069   -3.9501 C   0  0  0  0  0  0  0  0  0  0  0  0
   -5.5072    0.1558   -4.4648 N   0  0  0  0  0  0  0  0  0  0  0  0
   -5.2657   -0.1914   -5.7608 C   0  0  0  0  0  0  0  0  0  0  0  0
   -4.1999    0.1487   -6.6042 C   0  0  0  0  0  0  0  0  0  0  0  0
   -2.9711    1.2865   -6.5765 S   0  0  0  0  0  0  0  0  0  0  0  0
   -4.7204    1.1547   -3.7322 C   0  0  0  0  0  0  0  0  0  0  0  0
   -3.5276    0.5121   -3.0247 C   0  0  0  0  0  0  0  0  0  0  0  0
   -7.0330    0.9049   -1.2584 C   0  0  0  0  0  0  0  0  0  0  0  0
   -8.0567    1.3043   -2.3209 C   0  0  0  0  0  0  0  0  0  0  0  0
   -4.4695   -0.5471    4.3347 C   0  0  0  0  0  0  0  0  0  0  0  0
   -3.2176   -1.1124    4.6840 C   0  0  0  0  0  0  0  0  0  0  0  0
   -2.4484   -0.4744    5.6623 C   0  0  0  0  0  0  0  0  0  0  0  0
   -1.1850   -0.7798    6.0578 N   0  0  0  0  0  0  0  0  0  0  0  0
   -0.4018   -1.9583    5.6654 C   0  0  0  0  0  0  0  0  0  0  0  0
   -0.8274   -3.1712    6.4895 C   0  0  0  0  0  0  0  0  0  0  0  0
   -0.8474    0.1994    6.9410 C   0  0  0  0  0  0  0  0  0  0  0  0
   -1.8844    1.0980    7.1008 C   0  0  0  0  0  0  0  0  0  0  0  0
   -2.9024    0.6691    6.2835 C   0  0  0  0  0  0  0  0  0  0  0  0
   -4.1385    1.2316    5.9909 C   0  0  0  0  0  0  0  0  0  0  0  0
   -4.9223    0.6151    5.0034 C   0  0  0  0  0  0  0  0  0  0  0  0
   -1.7822    2.2200    7.9155 C   0  0  0  0  0  0  0  0  0  0  0  0
   -0.5697    2.4326    8.5885 C   0  0  0  0  0  0  0  0  0  0  0  0
    0.5180    1.5491    8.4020 C   0  0  0  0  0  0  0  0  0  0  0  0
    0.3769    0.4033    7.5878 C   0  0  0  0  0  0  0  0  0  0  0  0
    1.8044    1.8537    9.0447 C   0  0  0  0  0  0  0  0  0  0  0  0
    2.8536    2.3657    8.3719 C   0  0  0  0  0  0  0  0  0  0  0  0
    2.8286    2.8049    6.9686 C   0  0  0  0  0  0  0  0  0  0  0  0
    1.9109    2.5928    6.1337 O   0  0  0  0  0  0  0  0  0  0  0  0
    4.0251    3.5726    6.7019 C   0  0  0  0  0  0  0  0  0  0  0  0
    4.3812    4.2205    5.5188 C   0  0  0  0  0  0  0  0  0  0  0  0
    5.5992    4.9159    5.4695 C   0  0  0  0  0  0  0  0  0  0  0  0
    6.0284    5.5213    4.2832 C   0  0  0  0  0  0  0  0  0  0  0  0
    7.2372    6.2164    4.2477 C   0  0  0  0  0  0  0  0  0  0  0  0
    8.0348    6.3047    5.3925 C   0  0  0  0  0  0  0  0  0  0  0  0
    7.6270    5.6996    6.5820 C   0  0  0  0  0  0  0  0  0  0  0  0
    6.4142    4.9933    6.6352 C   0  0  0  0  0  0  0  0  0  0  0  0
    6.0105    4.3585    7.8261 C   0  0  0  0  0  0  0  0  0  0  0  0
    4.8217    3.6060    7.8342 C   0  0  0  0  0  0  0  0  0  0  0  0
    4.1831    2.7928    8.9207 C   0  0  0  0  0  0  0  0  0  0  0  0
    4.7698    2.3704   10.0707 C   0  0  0  0  0  0  0  0  0  0  0  0
    4.1364    1.4447   10.9736 C   0  0  0  0  0  0  0  0  0  0  0  0
    3.6405    0.6990   11.7042 N   0  0  0  0  0  0  0  0  0  0  0  0
    6.1289    2.7013   10.4172 C   0  0  0  0  0  0  0  0  0  0  0  0
    7.2231    2.9520   10.7073 N   0  0  0  0  0  0  0  0  0  0  0  0
    7.9192    1.3100   -5.2999 H   0  0  0  0  0  0  0  0  0  0  0  0
    3.5764    1.9390   -0.7411 H   0  0  0  0  0  0  0  0  0  0  0  0
    8.5105    1.3803    0.4424 H   0  0  0  0  0  0  0  0  0  0  0  0
    6.6534    2.7152    3.0505 H   0  0  0  0  0  0  0  0  0  0  0  0
    7.1105    0.3672    4.0484 H   0  0  0  0  0  0  0  0  0  0  0  0
    6.4278   -1.5060    2.2902 H   0  0  0  0  0  0  0  0  0  0  0  0
    3.9076   -1.1892    1.6967 H   0  0  0  0  0  0  0  0  0  0  0  0
    2.9863    0.8870    3.0842 H   0  0  0  0  0  0  0  0  0  0  0  0
    4.6508   -0.1821    4.8362 H   0  0  0  0  0  0  0  0  0  0  0  0
    4.8891    1.6208    4.8127 H   0  0  0  0  0  0  0  0  0  0  0  0
    4.3678    2.9995    2.5140 H   0  0  0  0  0  0  0  0  0  0  0  0
    5.2386   -0.7206   -5.6303 H   0  0  0  0  0  0  0  0  0  0  0  0
    3.5250   -2.1398   -5.8146 H   0  0  0  0  0  0  0  0  0  0  0  0
    1.7679   -2.1534   -6.0616 H   0  0  0  0  0  0  0  0  0  0  0  0
    3.9012   -2.5078   -8.2695 H   0  0  0  0  0  0  0  0  0  0  0  0
    2.8868   -3.8133   -7.5363 H   0  0  0  0  0  0  0  0  0  0  0  0
    2.1090   -2.5234   -8.5333 H   0  0  0  0  0  0  0  0  0  0  0  0
    3.9221    3.7640   -7.4003 H   0  0  0  0  0  0  0  0  0  0  0  0
    6.0917    3.4760   -6.2089 H   0  0  0  0  0  0  0  0  0  0  0  0
    1.4783    3.5836   -8.1150 H   0  0  0  0  0  0  0  0  0  0  0  0
   -0.9064    2.9303   -8.3480 H   0  0  0  0  0  0  0  0  0  0  0  0
    0.1000   -1.1506   -7.2911 H   0  0  0  0  0  0  0  0  0  0  0  0
   -1.3507   -0.3984  -10.5197 H   0  0  0  0  0  0  0  0  0  0  0  0
   -0.1708   -2.1456  -11.8054 H   0  0  0  0  0  0  0  0  0  0  0  0
   -0.1085   -4.4747  -10.9872 H   0  0  0  0  0  0  0  0  0  0  0  0
   -2.1687   -5.7303   -8.1935 H   0  0  0  0  0  0  0  0  0  0  0  0
   -1.0219   -6.1886   -9.4914 H   0  0  0  0  0  0  0  0  0  0  0  0
    0.9021   -5.3669   -8.0983 H   0  0  0  0  0  0  0  0  0  0  0  0
   -0.0556   -6.6398   -7.2437 H   0  0  0  0  0  0  0  0  0  0  0  0
   -0.2536   -4.9030   -6.7802 H   0  0  0  0  0  0  0  0  0  0  0  0
   -2.3364   -3.3072   -7.4984 H   0  0  0  0  0  0  0  0  0  0  0  0
   -3.2838   -4.0671    2.3004 H   0  0  0  0  0  0  0  0  0  0  0  0
   -2.6795   -6.0744    3.6017 H   0  0  0  0  0  0  0  0  0  0  0  0
   -4.0458   -6.7753    5.5326 H   0  0  0  0  0  0  0  0  0  0  0  0
   -6.8317   -4.6987    6.9701 H   0  0  0  0  0  0  0  0  0  0  0  0
   -5.6618   -6.0076    7.3269 H   0  0  0  0  0  0  0  0  0  0  0  0
   -6.7767   -7.4693    5.5890 H   0  0  0  0  0  0  0  0  0  0  0  0
   -7.9799   -6.1481    5.2813 H   0  0  0  0  0  0  0  0  0  0  0  0
   -7.9162   -6.9574    6.8928 H   0  0  0  0  0  0  0  0  0  0  0  0
   -6.6108   -3.3547    4.9437 H   0  0  0  0  0  0  0  0  0  0  0  0
   -5.3396    1.7125   -3.0301 H   0  0  0  0  0  0  0  0  0  0  0  0
   -4.3608    1.9455   -4.4172 H   0  0  0  0  0  0  0  0  0  0  0  0
   -2.8757    1.3024   -2.5996 H   0  0  0  0  0  0  0  0  0  0  0  0
   -3.8688   -0.1450   -2.1981 H   0  0  0  0  0  0  0  0  0  0  0  0
   -2.9368   -0.0937   -3.7396 H   0  0  0  0  0  0  0  0  0  0  0  0
   -7.5728    0.9547   -0.2868 H   0  0  0  0  0  0  0  0  0  0  0  0
   -6.2112    1.6365   -1.1441 H   0  0  0  0  0  0  0  0  0  0  0  0
   -8.5136    2.2800   -2.0513 H   0  0  0  0  0  0  0  0  0  0  0  0
   -8.8607    0.5406   -2.3763 H   0  0  0  0  0  0  0  0  0  0  0  0
   -7.5985    1.4090   -3.3210 H   0  0  0  0  0  0  0  0  0  0  0  0
   -2.8202   -1.9612    4.1443 H   0  0  0  0  0  0  0  0  0  0  0  0
    0.6850   -1.7757    5.8064 H   0  0  0  0  0  0  0  0  0  0  0  0
   -0.5540   -2.1774    4.5875 H   0  0  0  0  0  0  0  0  0  0  0  0
   -0.6369   -2.9798    7.5683 H   0  0  0  0  0  0  0  0  0  0  0  0
   -1.9108   -3.3775    6.3440 H   0  0  0  0  0  0  0  0  0  0  0  0
   -0.2451   -4.0630    6.1700 H   0  0  0  0  0  0  0  0  0  0  0  0
   -4.4730    2.1433    6.4739 H   0  0  0  0  0  0  0  0  0  0  0  0
   -5.8666    1.0690    4.7321 H   0  0  0  0  0  0  0  0  0  0  0  0
   -2.6034    2.9152    8.0244 H   0  0  0  0  0  0  0  0  0  0  0  0
   -0.4614    3.2991    9.2312 H   0  0  0  0  0  0  0  0  0  0  0  0
    1.2063   -0.2797    7.4512 H   0  0  0  0  0  0  0  0  0  0  0  0
    1.8251    1.7570   10.1185 H   0  0  0  0  0  0  0  0  0  0  0  0
    3.7335    4.1626    4.6531 H   0  0  0  0  0  0  0  0  0  0  0  0
    5.4340    5.4504    3.3808 H   0  0  0  0  0  0  0  0  0  0  0  0
    7.5646    6.6818    3.3270 H   0  0  0  0  0  0  0  0  0  0  0  0
    8.9768    6.8415    5.3562 H   0  0  0  0  0  0  0  0  0  0  0  0
    8.2639    5.7671    7.4537 H   0  0  0  0  0  0  0  0  0  0  0  0
    6.6076    4.4771    8.7117 H   0  0  0  0  0  0  0  0  0  0  0  0
  1  2  2  3
  2  3  1  0
  3  4  2  0
  3  5  1  0
  5  6  2  0
  6  7  1  0
  7  8  2  0
  8  9  1  0
  9 10  2  0
 10 11  1  0
 11 12  2  3
 12 13  1  0
 13 14  3  0
 12 15  1  0
 15 16  3  0
  8 17  1  0
 17 18  1  0
 18 19  1  0
 19 20  2  0
 20 21  1  0
 21 22  1  0
 21 23  1  0
  1 24  1  0
 24 25  2  0
 25 26  1  0
 26 27  1  0
 27 28  1  0
 28 29  1  0
 27 30  1  0
 30 31  2  0
 31 32  1  0
 32 33  1  0
 33 34  2  0
 31 35  1  0
 35 36  2  0
 36 37  1  0
 37 38  2  0
 37 39  1  0
 39 40  2  0
 40 41  1  0
 41 42  2  0
 42 43  1  0
 43 44  2  0
 44 45  1  0
 45 46  1  0
 46 47  1  0
 45 48  2  0
 40 49  1  0
 49 50  1  0
 50 51  1  0
 51 52  1  0
 52 53  1  0
 53 54  1  0
 54 55  2  0
 55 56  1  0
 56 57  1  0
 54 58  1  0
 58 59  1  0
 59 60  1  0
 60 61  1  0
 61 62  1  0
 62 63  1  0
 63 64  2  0
 64 65  1  0
 65 66  2  0
 66 67  1  0
 67 68  1  0
 68 69  1  0
 67 70  2  0
 62 71  2  0
 71 72  1  0
 72 73  1  0
 73 74  1  0
 74 75  1  0
 75 76  1  0
 76 77  1  0
 77 78  1  0
 78 79  1  0
 79 80  1  0
 80 81  1  0
 78 82  1  0
 82 83  1  0
 75 84  1  0
 84 85  1  0
 71 86  1  0
 86 87  2  0
 87 88  1  0
 88 89  1  0
 89 90  1  0
 90 91  1  0
 89 92  1  0
 92 93  2  0
 93 94  1  0
 94 95  1  0
 95 96  2  0
 93 97  1  0
 97 98  2  0
 98 99  1  0
 99100  2  0
 99101  1  0
101102  2  3
102103  1  0
103104  2  0
103105  1  0
105106  2  0
106107  1  0
107108  2  0
108109  1  0
109110  2  0
110111  1  0
111112  2  0
112113  1  0
113114  2  0
114115  1  0
115116  2  3
116117  1  0
117118  3  0
116119  1  0
119120  3  0
 11  2  1  0
 23 17  1  0
 34 24  1  0
 81 39  1  0
 96 86  1  0
115102  1  0
 10  5  1  0
 22 18  1  0
 32 26  2  0
 48 41  1  0
 80 49  2  0
 94 88  2  0
114105  1  0
 23  7  1  0
 38 30  1  0
 79 51  2  0
100 92  1  0
112107  1  0
 77 52  2  0
 57 53  2  0
 76 58  2  0
 74 59  2  0
 73 61  2  0
 70 63  1  0
  1121  1  0
  6122  1  0
  9123  1  0
 17124  1  0
 18125  1  0
 19126  1  0
 20127  1  0
 21128  1  0
 22129  1  0
 22130  1  0
 23131  1  0
 25132  1  0
 28133  1  0
 28134  1  0
 29135  1  0
 29136  1  0
 29137  1  0
 33138  1  0
 34139  1  0
 35140  1  0
 36141  1  0
 38142  1  0
 42143  1  0
 43144  1  0
 44145  1  0
 46146  1  0
 46147  1  0
 47148  1  0
 47149  1  0
 47150  1  0
 48151  1  0
 64152  1  0
 65153  1  0
 66154  1  0
 68155  1  0
 68156  1  0
 69157  1  0
 69158  1  0
 69159  1  0
 70160  1  0
 82161  1  0
 82162  1  0
 83163  1  0
 83164  1  0
 83165  1  0
 84166  1  0
 84167  1  0
 85168  1  0
 85169  1  0
 85170  1  0
 87171  1  0
 90172  1  0
 90173  1  0
 91174  1  0
 91175  1  0
 91176  1  0
 95177  1  0
 96178  1  0
 97179  1  0
 98180  1  0
100181  1  0
101182  1  0
106183  1  0
108184  1  0
109185  1  0
110186  1  0
111187  1  0
113188  1  0
M  END

