
     RDKit          3D

179202  0  0  0  0  0  0  0  0999 V2000
   -8.1291   -1.2348   -4.1186 C   0  0  0  0  0  0  0  0  0  0  0  0
   -7.7607   -2.0967   -5.0942 C   0  0  0  0  0  0  0  0  0  0  0  0
   -6.8323   -1.7825   -6.1862 C   0  0  0  0  0  0  0  0  0  0  0  0
   -6.5164   -0.6273   -6.5856 O   0  0  0  0  0  0  0  0  0  0  0  0
   -6.3202   -3.0154   -6.7342 C   0  0  0  0  0  0  0  0  0  0  0  0
   -5.2812   -3.1538   -7.6822 C   0  0  0  0  0  0  0  0  0  0  0  0
   -4.8637   -4.4593   -7.8624 C   0  0  0  0  0  0  0  0  0  0  0  0
   -5.4146   -5.5651   -7.1389 C   0  0  0  0  0  0  0  0  0  0  0  0
   -6.4506   -5.4353   -6.2219 C   0  0  0  0  0  0  0  0  0  0  0  0
   -6.9255   -4.1016   -6.0583 C   0  0  0  0  0  0  0  0  0  0  0  0
   -7.9567   -3.5796   -5.1212 C   0  0  0  0  0  0  0  0  0  0  0  0
   -8.9887   -4.2816   -4.5861 C   0  0  0  0  0  0  0  0  0  0  0  0
  -10.0457   -3.6540   -3.8371 C   0  0  0  0  0  0  0  0  0  0  0  0
  -10.9005   -3.1633   -3.2249 N   0  0  0  0  0  0  0  0  0  0  0  0
   -9.1717   -5.6910   -4.8304 C   0  0  0  0  0  0  0  0  0  0  0  0
   -9.3334   -6.8189   -5.0286 N   0  0  0  0  0  0  0  0  0  0  0  0
   -4.4249   -6.4959   -7.7722 C   0  0  0  0  0  0  0  0  0  0  0  0
   -3.2241   -6.9421   -6.8878 C   0  0  0  0  0  0  0  0  0  0  0  0
   -2.2104   -7.5353   -7.8399 C   0  0  0  0  0  0  0  0  0  0  0  0
   -1.7166   -6.5154   -8.5468 C   0  0  0  0  0  0  0  0  0  0  0  0
   -2.4079   -5.2700   -8.0460 C   0  0  0  0  0  0  0  0  0  0  0  0
   -2.5135   -5.6343   -6.5755 C   0  0  0  0  0  0  0  0  0  0  0  0
   -3.8819   -5.3687   -8.5379 C   0  0  0  0  0  0  0  0  0  0  0  0
   -7.4878    0.0742   -3.9698 C   0  0  0  0  0  0  0  0  0  0  0  0
   -8.0064    1.3105   -4.3483 C   0  0  0  0  0  0  0  0  0  0  0  0
   -7.0855    2.3612   -4.1877 C   0  0  0  0  0  0  0  0  0  0  0  0
   -7.4587    4.0241   -4.6106 Cl  0  0  0  0  0  0  0  0  0  0  0  0
   -5.8585    1.9470   -3.6687 C   0  0  0  0  0  0  0  0  0  0  0  0
   -5.9180    0.2883   -3.4161 S   0  0  0  0  0  0  0  0  0  0  0  0
   -4.6246    2.7315   -3.5078 C   0  0  0  0  0  0  0  0  0  0  0  0
   -3.8691    3.3235   -4.5476 C   0  0  0  0  0  0  0  0  0  0  0  0
   -4.3020    3.5292   -5.9439 C   0  0  0  0  0  0  0  0  0  0  0  0
   -4.9109    2.5071   -6.6880 C   0  0  0  0  0  0  0  0  0  0  0  0
   -5.3138    2.7426   -8.0037 C   0  0  0  0  0  0  0  0  0  0  0  0
   -5.1039    3.9946   -8.5916 C   0  0  0  0  0  0  0  0  0  0  0  0
   -4.4805    5.0189   -7.8694 C   0  0  0  0  0  0  0  0  0  0  0  0
   -4.2184    6.3620   -8.5024 C   0  0  0  0  0  0  0  0  0  0  0  0
   -5.1291    7.4391   -7.9175 C   0  0  0  0  0  0  0  0  0  0  0  0
   -4.0792    4.7775   -6.5467 C   0  0  0  0  0  0  0  0  0  0  0  0
   -2.5866    3.6562   -4.1093 C   0  0  0  0  0  0  0  0  0  0  0  0
   -1.1189    3.8672   -4.9675 S   0  0  0  0  0  0  0  0  0  0  0  0
   -0.2204    3.6384   -3.5483 C   0  0  0  0  0  0  0  0  0  0  0  0
    1.0665    3.3869   -3.1577 C   0  0  0  0  0  0  0  0  0  0  0  0
    2.2827    3.3984   -3.8522 C   0  0  0  0  0  0  0  0  0  0  0  0
    3.4727    3.0298   -3.1548 C   0  0  0  0  0  0  0  0  0  0  0  0
    4.6209    3.0068   -3.8711 N   0  0  0  0  0  0  0  0  0  0  0  0
    4.0410    3.4854   -5.3493 S   0  0  0  0  0  0  0  0  0  0  0  0
    2.4106    3.7182   -5.1652 N   0  0  0  0  0  0  0  0  0  0  0  0
    3.3723    2.6311   -1.8147 C   0  0  0  0  0  0  0  0  0  0  0  0
    4.2887    2.0770   -0.9628 C   0  0  0  0  0  0  0  0  0  0  0  0
    5.9384    1.6429   -0.9079 S   0  0  0  0  0  0  0  0  0  0  0  0
    5.7174    0.8836    0.6105 C   0  0  0  0  0  0  0  0  0  0  0  0
    6.5591    0.2441    1.5262 C   0  0  0  0  0  0  0  0  0  0  0  0
    8.0134    0.0847    1.3527 C   0  0  0  0  0  0  0  0  0  0  0  0
    8.5436   -0.4784    0.1824 C   0  0  0  0  0  0  0  0  0  0  0  0
    9.9254   -0.6025    0.0264 C   0  0  0  0  0  0  0  0  0  0  0  0
   10.7901   -0.1441    1.0294 C   0  0  0  0  0  0  0  0  0  0  0  0
   10.2725    0.4265    2.2044 C   0  0  0  0  0  0  0  0  0  0  0  0
   11.1889    0.9926    3.2557 C   0  0  0  0  0  0  0  0  0  0  0  0
   11.4185    2.4825    3.0117 C   0  0  0  0  0  0  0  0  0  0  0  0
    8.8824    0.5373    2.3537 C   0  0  0  0  0  0  0  0  0  0  0  0
    5.8462   -0.1379    2.6809 C   0  0  0  0  0  0  0  0  0  0  0  0
    4.2084    0.2998    2.5247 S   0  0  0  0  0  0  0  0  0  0  0  0
    4.4103    0.9674    1.0111 C   0  0  0  0  0  0  0  0  0  0  0  0
    3.5998    1.6364    0.1172 C   0  0  0  0  0  0  0  0  0  0  0  0
    2.2598    1.8206    0.0228 N   0  0  0  0  0  0  0  0  0  0  0  0
    2.1368    2.5379   -1.1477 C   0  0  0  0  0  0  0  0  0  0  0  0
    0.9763    3.0074   -1.8075 C   0  0  0  0  0  0  0  0  0  0  0  0
   -0.3096    3.1120   -1.3516 N   0  0  0  0  0  0  0  0  0  0  0  0
   -1.0055    3.4209   -2.4690 C   0  0  0  0  0  0  0  0  0  0  0  0
   -2.3515    3.3975   -2.7806 C   0  0  0  0  0  0  0  0  0  0  0  0
   -3.6757    2.6426   -2.0909 S   0  0  0  0  0  0  0  0  0  0  0  0
   -0.7591    3.3870    0.0225 C   0  0  0  0  0  0  0  0  0  0  0  0
   -1.4748    4.7317    0.1423 C   0  0  0  0  0  0  0  0  0  0  0  0
    1.2798    0.9136    0.6485 C   0  0  0  0  0  0  0  0  0  0  0  0
    0.7018   -0.0703   -0.3643 C   0  0  0  0  0  0  0  0  0  0  0  0
    6.2784   -1.0342    3.7650 C   0  0  0  0  0  0  0  0  0  0  0  0
    6.5495   -2.3737    3.4321 C   0  0  0  0  0  0  0  0  0  0  0  0
    6.1815   -3.4084    4.3116 C   0  0  0  0  0  0  0  0  0  0  0  0
    5.5484   -3.1049    5.5287 C   0  0  0  0  0  0  0  0  0  0  0  0
    5.5228   -1.7644    5.9542 C   0  0  0  0  0  0  0  0  0  0  0  0
    4.8724   -1.1537    7.1278 C   0  0  0  0  0  0  0  0  0  0  0  0
    4.4277   -1.7807    8.2330 C   0  0  0  0  0  0  0  0  0  0  0  0
    3.6732   -1.1294    9.3201 C   0  0  0  0  0  0  0  0  0  0  0  0
    3.8444   -1.4891   10.6649 C   0  0  0  0  0  0  0  0  0  0  0  0
    2.9873   -0.8272   11.5295 C   0  0  0  0  0  0  0  0  0  0  0  0
    2.0030    0.1813   10.6209 S   0  0  0  0  0  0  0  0  0  0  0  0
    2.6467   -0.2116    9.1207 C   0  0  0  0  0  0  0  0  0  0  0  0
    4.9653    0.2886    6.8742 C   0  0  0  0  0  0  0  0  0  0  0  0
    4.6945    1.1980    7.7055 O   0  0  0  0  0  0  0  0  0  0  0  0
    5.5707    0.5490    5.6063 N   0  0  0  0  0  0  0  0  0  0  0  0
    6.2954    1.7862    5.3067 C   0  0  0  0  0  0  0  0  0  0  0  0
    7.6819    1.7659    5.9431 C   0  0  0  0  0  0  0  0  0  0  0  0
    5.8983   -0.7465    5.0867 C   0  0  0  0  0  0  0  0  0  0  0  0
    4.6297   -4.0981    6.1122 C   0  0  0  0  0  0  0  0  0  0  0  0
    3.3013   -4.0492    5.8697 C   0  0  0  0  0  0  0  0  0  0  0  0
    2.6859   -3.1986    4.8357 C   0  0  0  0  0  0  0  0  0  0  0  0
    3.2887   -2.5043    3.9840 O   0  0  0  0  0  0  0  0  0  0  0  0
    1.2666   -3.4089    4.8292 C   0  0  0  0  0  0  0  0  0  0  0  0
    0.3351   -2.7813    3.9739 C   0  0  0  0  0  0  0  0  0  0  0  0
   -0.9688   -3.1837    4.1660 C   0  0  0  0  0  0  0  0  0  0  0  0
   -1.3442   -4.1500    5.1525 C   0  0  0  0  0  0  0  0  0  0  0  0
   -0.4322   -4.7703    5.9984 C   0  0  0  0  0  0  0  0  0  0  0  0
    0.9271   -4.3849    5.8004 C   0  0  0  0  0  0  0  0  0  0  0  0
    2.1798   -4.8437    6.4889 C   0  0  0  0  0  0  0  0  0  0  0  0
    2.2707   -5.7828    7.4727 C   0  0  0  0  0  0  0  0  0  0  0  0
    3.4958   -6.0928    8.1604 C   0  0  0  0  0  0  0  0  0  0  0  0
    4.4801   -6.3623    8.7072 N   0  0  0  0  0  0  0  0  0  0  0  0
    1.1536   -6.5873    7.8846 C   0  0  0  0  0  0  0  0  0  0  0  0
    0.2657   -7.2620    8.2104 N   0  0  0  0  0  0  0  0  0  0  0  0
   -2.7827   -4.0267    4.7477 C   0  0  0  0  0  0  0  0  0  0  0  0
   -3.7449   -3.2389    5.6807 C   0  0  0  0  0  0  0  0  0  0  0  0
   -2.9871   -2.1521    6.4087 C   0  0  0  0  0  0  0  0  0  0  0  0
   -2.6314   -1.2512    5.4940 C   0  0  0  0  0  0  0  0  0  0  0  0
   -3.1618   -1.7525    4.1697 C   0  0  0  0  0  0  0  0  0  0  0  0
   -4.4605   -2.3776    4.6496 C   0  0  0  0  0  0  0  0  0  0  0  0
   -2.3949   -3.0358    3.7367 C   0  0  0  0  0  0  0  0  0  0  0  0
   -8.7142   -1.5710   -3.2782 H   0  0  0  0  0  0  0  0  0  0  0  0
   -4.8017   -2.3150   -8.1698 H   0  0  0  0  0  0  0  0  0  0  0  0
   -6.7971   -6.2823   -5.6561 H   0  0  0  0  0  0  0  0  0  0  0  0
   -4.8962   -7.2931   -8.3877 H   0  0  0  0  0  0  0  0  0  0  0  0
   -3.4756   -7.5790   -6.0117 H   0  0  0  0  0  0  0  0  0  0  0  0
   -1.8658   -8.5620   -7.8791 H   0  0  0  0  0  0  0  0  0  0  0  0
   -0.9040   -6.5745   -9.2636 H   0  0  0  0  0  0  0  0  0  0  0  0
   -1.8870   -4.3142   -8.2761 H   0  0  0  0  0  0  0  0  0  0  0  0
   -1.5205   -5.7757   -6.0843 H   0  0  0  0  0  0  0  0  0  0  0  0
   -3.1111   -4.9219   -5.9669 H   0  0  0  0  0  0  0  0  0  0  0  0
   -4.0236   -5.4420   -9.6386 H   0  0  0  0  0  0  0  0  0  0  0  0
   -8.9999    1.4409   -4.7548 H   0  0  0  0  0  0  0  0  0  0  0  0
   -5.0517    1.5256   -6.2604 H   0  0  0  0  0  0  0  0  0  0  0  0
   -5.8001    1.9560   -8.5690 H   0  0  0  0  0  0  0  0  0  0  0  0
   -5.4335    4.1667   -9.6095 H   0  0  0  0  0  0  0  0  0  0  0  0
   -4.3763    6.3174   -9.5990 H   0  0  0  0  0  0  0  0  0  0  0  0
   -3.1598    6.6496   -8.3286 H   0  0  0  0  0  0  0  0  0  0  0  0
   -4.9408    7.5561   -6.8302 H   0  0  0  0  0  0  0  0  0  0  0  0
   -4.9236    8.4097   -8.4129 H   0  0  0  0  0  0  0  0  0  0  0  0
   -6.1940    7.1729   -8.0827 H   0  0  0  0  0  0  0  0  0  0  0  0
   -3.5892    5.5669   -5.9847 H   0  0  0  0  0  0  0  0  0  0  0  0
    7.8856   -0.8340   -0.6007 H   0  0  0  0  0  0  0  0  0  0  0  0
   10.3308   -1.0414   -0.8756 H   0  0  0  0  0  0  0  0  0  0  0  0
   11.8601   -0.2285    0.8876 H   0  0  0  0  0  0  0  0  0  0  0  0
   12.1625    0.4625    3.2495 H   0  0  0  0  0  0  0  0  0  0  0  0
   10.7327    0.8560    4.2584 H   0  0  0  0  0  0  0  0  0  0  0  0
   11.9812    2.6353    2.0704 H   0  0  0  0  0  0  0  0  0  0  0  0
   10.4495    3.0239    2.9514 H   0  0  0  0  0  0  0  0  0  0  0  0
   12.0052    2.9088    3.8525 H   0  0  0  0  0  0  0  0  0  0  0  0
    8.4785    1.0160    3.2360 H   0  0  0  0  0  0  0  0  0  0  0  0
    0.1213    3.4749    0.6868 H   0  0  0  0  0  0  0  0  0  0  0  0
   -1.4353    2.5749    0.3689 H   0  0  0  0  0  0  0  0  0  0  0  0
   -0.8335    5.5442   -0.2587 H   0  0  0  0  0  0  0  0  0  0  0  0
   -2.4413    4.7289   -0.4042 H   0  0  0  0  0  0  0  0  0  0  0  0
   -1.6973    4.9393    1.2134 H   0  0  0  0  0  0  0  0  0  0  0  0
    1.7546    0.3149    1.4444 H   0  0  0  0  0  0  0  0  0  0  0  0
    0.4742    1.4497    1.1673 H   0  0  0  0  0  0  0  0  0  0  0  0
    0.0369    0.4507   -1.0909 H   0  0  0  0  0  0  0  0  0  0  0  0
    0.1002   -0.8428    0.1620 H   0  0  0  0  0  0  0  0  0  0  0  0
    1.5216   -0.5757   -0.9217 H   0  0  0  0  0  0  0  0  0  0  0  0
    6.8404   -2.6344    2.4236 H   0  0  0  0  0  0  0  0  0  0  0  0
    6.2206   -4.4300    3.9579 H   0  0  0  0  0  0  0  0  0  0  0  0
    4.6257   -2.8334    8.3637 H   0  0  0  0  0  0  0  0  0  0  0  0
    4.5856   -2.2052   11.0000 H   0  0  0  0  0  0  0  0  0  0  0  0
    2.9595   -0.9423   12.6088 H   0  0  0  0  0  0  0  0  0  0  0  0
    2.2971    0.1622    8.1685 H   0  0  0  0  0  0  0  0  0  0  0  0
    5.7265    2.6585    5.6951 H   0  0  0  0  0  0  0  0  0  0  0  0
    6.3905    1.9266    4.2117 H   0  0  0  0  0  0  0  0  0  0  0  0
    8.2576    0.8928    5.5842 H   0  0  0  0  0  0  0  0  0  0  0  0
    8.2320    2.6908    5.6733 H   0  0  0  0  0  0  0  0  0  0  0  0
    7.5960    1.7029    7.0448 H   0  0  0  0  0  0  0  0  0  0  0  0
    5.0759   -4.8246    6.7666 H   0  0  0  0  0  0  0  0  0  0  0  0
    0.6119   -2.0457    3.2227 H   0  0  0  0  0  0  0  0  0  0  0  0
   -0.7814   -5.4696    6.7337 H   0  0  0  0  0  0  0  0  0  0  0  0
   -3.2052   -4.9593    4.3131 H   0  0  0  0  0  0  0  0  0  0  0  0
   -4.3989   -3.8634    6.3199 H   0  0  0  0  0  0  0  0  0  0  0  0
   -2.8432   -2.0548    7.4798 H   0  0  0  0  0  0  0  0  0  0  0  0
   -2.1462   -0.3037    5.6982 H   0  0  0  0  0  0  0  0  0  0  0  0
   -3.2669   -0.9737    3.3834 H   0  0  0  0  0  0  0  0  0  0  0  0
   -5.1696   -1.6434    5.0986 H   0  0  0  0  0  0  0  0  0  0  0  0
   -4.9889   -2.9702    3.8664 H   0  0  0  0  0  0  0  0  0  0  0  0
   -2.5867   -3.3700    2.6924 H   0  0  0  0  0  0  0  0  0  0  0  0
  1  2  2  3
  2  3  1  0
  3  4  2  0
  3  5  1  0
  5  6  2  0
  6  7  1  0
  7  8  2  0
  8  9  1  0
  9 10  2  0
 10 11  1  0
 11 12  2  3
 12 13  1  0
 13 14  3  0
 12 15  1  0
 15 16  3  0
  8 17  1  0
 17 18  1  0
 18 19  1  0
 19 20  2  0
 20 21  1  0
 21 22  1  0
 21 23  1  0
  1 24  1  0
 24 25  2  0
 25 26  1  0
 26 27  1  0
 26 28  2  0
 28 29  1  0
 28 30  1  0
 30 31  2  0
 31 32  1  0
 32 33  2  0
 33 34  1  0
 34 35  2  0
 35 36  1  0
 36 37  1  0
 37 38  1  0
 36 39  2  0
 31 40  1  0
 40 41  1  0
 41 42  1  0
 42 43  1  0
 43 44  1  0
 44 45  1  0
 45 46  2  0
 46 47  1  0
 47 48  1  0
 45 49  1  0
 49 50  1  0
 50 51  1  0
 51 52  1  0
 52 53  1  0
 53 54  1  0
 54 55  2  0
 55 56  1  0
 56 57  2  0
 57 58  1  0
 58 59  1  0
 59 60  1  0
 58 61  2  0
 53 62  2  0
 62 63  1  0
 63 64  1  0
 64 65  1  0
 65 66  1  0
 66 67  1  0
 67 68  1  0
 68 69  1  0
 69 70  1  0
 70 71  1  0
 71 72  1  0
 69 73  1  0
 73 74  1  0
 66 75  1  0
 75 76  1  0
 62 77  1  0
 77 78  2  0
 78 79  1  0
 79 80  2  0
 80 81  1  0
 81 82  1  0
 82 83  2  3
 83 84  1  0
 84 85  1  0
 85 86  2  0
 86 87  1  0
 87 88  1  0
 82 89  1  0
 89 90  2  0
 89 91  1  0
 91 92  1  0
 92 93  1  0
 91 94  1  0
 80 95  1  0
 95 96  2  3
 96 97  1  0
 97 98  2  0
 97 99  1  0
 99100  2  0
100101  1  0
101102  2  0
102103  1  0
103104  2  0
104105  1  0
105106  2  3
106107  1  0
107108  3  0
106109  1  0
109110  3  0
102111  1  0
111112  1  0
112113  1  0
113114  2  0
114115  1  0
115116  1  0
115117  1  0
 11  2  1  0
 23 17  1  0
 29 24  1  0
 72 30  1  0
 94 77  1  0
105 96  1  0
117111  1  0
 10  5  1  0
 22 18  1  0
 39 32  1  0
 71 40  2  0
 94 81  2  0
104 99  1  0
116112  1  0
 23  7  1  0
 70 42  2  0
 88 84  2  0
117101  1  0
 68 43  2  0
 48 44  2  0
 67 49  2  0
 65 50  2  0
 64 52  2  0
 61 54  1  0
  1118  1  0
  6119  1  0
  9120  1  0
 17121  1  0
 18122  1  0
 19123  1  0
 20124  1  0
 21125  1  0
 22126  1  0
 22127  1  0
 23128  1  0
 25129  1  0
 33130  1  0
 34131  1  0
 35132  1  0
 37133  1  0
 37134  1  0
 38135  1  0
 38136  1  0
 38137  1  0
 39138  1  0
 55139  1  0
 56140  1  0
 57141  1  0
 59142  1  0
 59143  1  0
 60144  1  0
 60145  1  0
 60146  1  0
 61147  1  0
 73148  1  0
 73149  1  0
 74150  1  0
 74151  1  0
 74152  1  0
 75153  1  0
 75154  1  0
 76155  1  0
 76156  1  0
 76157  1  0
 78158  1  0
 79159  1  0
 83160  1  0
 85161  1  0
 86162  1  0
 88163  1  0
 92164  1  0
 92165  1  0
 93166  1  0
 93167  1  0
 93168  1  0
 95169  1  0
100170  1  0
103171  1  0
111172  1  0
112173  1  0
113174  1  0
114175  1  0
115176  1  0
116177  1  0
116178  1  0
117179  1  0
M  END

