
     RDKit          3D

173194  0  0  0  0  0  0  0  0999 V2000
    7.0361    2.9112   -1.2943 C   0  0  0  0  0  0  0  0  0  0  0  0
    6.3205    3.7028   -2.1319 C   0  0  0  0  0  0  0  0  0  0  0  0
    5.4430    3.2662   -3.1769 C   0  0  0  0  0  0  0  0  0  0  0  0
    5.4197    2.1886   -3.8370 O   0  0  0  0  0  0  0  0  0  0  0  0
    4.4778    4.3301   -3.4528 C   0  0  0  0  0  0  0  0  0  0  0  0
    3.4128    4.3949   -4.3475 C   0  0  0  0  0  0  0  0  0  0  0  0
    2.6086    5.5216   -4.4200 C   0  0  0  0  0  0  0  0  0  0  0  0
    2.8460    6.5965   -3.6172 C   0  0  0  0  0  0  0  0  0  0  0  0
    3.9285    6.5022   -2.7210 C   0  0  0  0  0  0  0  0  0  0  0  0
    4.7485    5.3944   -2.6169 C   0  0  0  0  0  0  0  0  0  0  0  0
    5.9068    5.0721   -1.7541 C   0  0  0  0  0  0  0  0  0  0  0  0
    6.5526    5.9218   -0.9323 C   0  0  0  0  0  0  0  0  0  0  0  0
    7.7895    5.5941   -0.3546 C   0  0  0  0  0  0  0  0  0  0  0  0
    8.8331    5.3127    0.1556 N   0  0  0  0  0  0  0  0  0  0  0  0
    5.7105    7.0128   -0.4251 C   0  0  0  0  0  0  0  0  0  0  0  0
    5.0226    7.9102   -0.0312 N   0  0  0  0  0  0  0  0  0  0  0  0
    1.7163    7.3639   -4.2088 C   0  0  0  0  0  0  0  0  0  0  0  0
    2.0872    8.3909   -5.2187 C   0  0  0  0  0  0  0  0  0  0  0  0
    0.8268    8.7042   -5.9645 C   0  0  0  0  0  0  0  0  0  0  0  0
    0.4890    7.6421   -6.6936 C   0  0  0  0  0  0  0  0  0  0  0  0
    1.5418    6.6002   -6.4533 C   0  0  0  0  0  0  0  0  0  0  0  0
    2.7625    7.5423   -6.2887 C   0  0  0  0  0  0  0  0  0  0  0  0
    1.4114    6.1185   -5.0489 C   0  0  0  0  0  0  0  0  0  0  0  0
    6.9634    1.4487   -1.3770 C   0  0  0  0  0  0  0  0  0  0  0  0
    5.6721    0.8951   -1.5085 C   0  0  0  0  0  0  0  0  0  0  0  0
    5.5441   -0.4379   -1.4235 C   0  0  0  0  0  0  0  0  0  0  0  0
    4.3024   -1.0551   -1.5606 O   0  0  0  0  0  0  0  0  0  0  0  0
    3.0613   -0.5764   -1.8014 C   0  0  0  0  0  0  0  0  0  0  0  0
    2.8621    0.1044   -3.1111 C   0  0  0  0  0  0  0  0  0  0  0  0
    6.6153   -1.3558   -1.2006 C   0  0  0  0  0  0  0  0  0  0  0  0
    7.8177   -0.8333   -1.0809 C   0  0  0  0  0  0  0  0  0  0  0  0
    7.9971    0.5890   -1.1732 C   0  0  0  0  0  0  0  0  0  0  0  0
    9.2543    1.0833   -1.0362 F   0  0  0  0  0  0  0  0  0  0  0  0
    6.0579   -2.7117   -1.0893 C   0  0  0  0  0  0  0  0  0  0  0  0
    5.9364   -3.7434   -1.9122 C   0  0  0  0  0  0  0  0  0  0  0  0
    7.0205   -4.1468   -2.8442 C   0  0  0  0  0  0  0  0  0  0  0  0
    8.3017   -4.2955   -2.2331 C   0  0  0  0  0  0  0  0  0  0  0  0
    9.3269   -4.8182   -2.8957 C   0  0  0  0  0  0  0  0  0  0  0  0
    9.2209   -5.2455   -4.1964 C   0  0  0  0  0  0  0  0  0  0  0  0
    7.9851   -5.0979   -4.7867 C   0  0  0  0  0  0  0  0  0  0  0  0
    7.7932   -5.6144   -6.1652 C   0  0  0  0  0  0  0  0  0  0  0  0
    8.3160   -4.5987   -7.1753 C   0  0  0  0  0  0  0  0  0  0  0  0
    6.8974   -4.5524   -4.1258 C   0  0  0  0  0  0  0  0  0  0  0  0
    4.8832   -4.6281   -1.6454 C   0  0  0  0  0  0  0  0  0  0  0  0
    3.9135   -5.7119   -2.6730 S   0  0  0  0  0  0  0  0  0  0  0  0
    2.5504   -5.8287   -1.6385 C   0  0  0  0  0  0  0  0  0  0  0  0
    1.1791   -6.2109   -1.5476 C   0  0  0  0  0  0  0  0  0  0  0  0
    0.3984   -6.5569   -2.6805 C   0  0  0  0  0  0  0  0  0  0  0  0
   -0.9445   -6.2937   -2.5515 C   0  0  0  0  0  0  0  0  0  0  0  0
   -1.6969   -6.6224   -3.6332 N   0  0  0  0  0  0  0  0  0  0  0  0
   -0.5965   -7.2490   -4.7257 S   0  0  0  0  0  0  0  0  0  0  0  0
    0.7933   -7.0895   -3.8109 N   0  0  0  0  0  0  0  0  0  0  0  0
   -1.4601   -5.7671   -1.3885 C   0  0  0  0  0  0  0  0  0  0  0  0
   -2.7183   -5.2546   -1.0294 C   0  0  0  0  0  0  0  0  0  0  0  0
   -4.2360   -4.6595   -1.6209 S   0  0  0  0  0  0  0  0  0  0  0  0
   -4.7586   -3.7643   -0.2170 C   0  0  0  0  0  0  0  0  0  0  0  0
   -5.7801   -2.9157    0.1931 C   0  0  0  0  0  0  0  0  0  0  0  0
   -6.7497   -2.2965   -0.7560 C   0  0  0  0  0  0  0  0  0  0  0  0
   -6.3616   -0.9876   -1.0908 C   0  0  0  0  0  0  0  0  0  0  0  0
   -7.0886   -0.2052   -1.9560 C   0  0  0  0  0  0  0  0  0  0  0  0
   -8.2212   -0.7245   -2.5027 C   0  0  0  0  0  0  0  0  0  0  0  0
   -8.6249   -2.0111   -2.1898 C   0  0  0  0  0  0  0  0  0  0  0  0
   -9.8495   -2.4991   -2.7966 C   0  0  0  0  0  0  0  0  0  0  0  0
   -9.6050   -3.1081   -4.1718 C   0  0  0  0  0  0  0  0  0  0  0  0
   -7.8492   -2.7756   -1.2988 C   0  0  0  0  0  0  0  0  0  0  0  0
   -5.7115   -2.4022    1.4089 C   0  0  0  0  0  0  0  0  0  0  0  0
   -4.1754   -3.1141    1.9925 S   0  0  0  0  0  0  0  0  0  0  0  0
   -3.7527   -4.0007    0.6065 C   0  0  0  0  0  0  0  0  0  0  0  0
   -2.6915   -4.7627    0.1878 C   0  0  0  0  0  0  0  0  0  0  0  0
   -1.3873   -4.9442    0.6627 N   0  0  0  0  0  0  0  0  0  0  0  0
   -0.6664   -5.5018   -0.2722 C   0  0  0  0  0  0  0  0  0  0  0  0
    0.7420   -5.7087   -0.3859 C   0  0  0  0  0  0  0  0  0  0  0  0
    1.7292   -5.0367    0.2560 N   0  0  0  0  0  0  0  0  0  0  0  0
    2.8550   -5.0950   -0.5563 C   0  0  0  0  0  0  0  0  0  0  0  0
    4.1181   -4.4772   -0.6550 C   0  0  0  0  0  0  0  0  0  0  0  0
    4.7891   -2.9981    0.0777 S   0  0  0  0  0  0  0  0  0  0  0  0
    1.7941   -4.3525    1.5135 C   0  0  0  0  0  0  0  0  0  0  0  0
    2.2051   -5.2648    2.6352 C   0  0  0  0  0  0  0  0  0  0  0  0
   -1.0923   -4.9185    2.1022 C   0  0  0  0  0  0  0  0  0  0  0  0
   -1.0823   -3.6219    2.8026 C   0  0  0  0  0  0  0  0  0  0  0  0
   -6.3073   -1.5152    2.3977 C   0  0  0  0  0  0  0  0  0  0  0  0
   -7.0585   -1.6802    3.5019 C   0  0  0  0  0  0  0  0  0  0  0  0
   -7.1887   -0.7341    4.4119 C   0  0  0  0  0  0  0  0  0  0  0  0
   -8.0236   -1.0083    5.6871 C   0  0  0  0  0  0  0  0  0  0  0  0
   -7.0134   -1.3199    6.8070 C   0  0  0  0  0  0  0  0  0  0  0  0
   -6.6021    0.4640    4.3313 C   0  0  0  0  0  0  0  0  0  0  0  0
   -5.6535    0.3110    2.6328 Se  0  0  0  0  0  2  0  0  0  0  0  0
   -6.4792    1.6335    5.1776 C   0  0  0  0  0  0  0  0  0  0  0  0
   -5.2579    2.1183    5.4455 C   0  0  0  0  0  0  0  0  0  0  0  0
   -4.0454    1.5143    4.9204 C   0  0  0  0  0  0  0  0  0  0  0  0
   -3.8816    0.4544    4.2981 O   0  0  0  0  0  0  0  0  0  0  0  0
   -2.9121    2.4016    5.2589 C   0  0  0  0  0  0  0  0  0  0  0  0
   -1.5626    2.2359    4.9628 C   0  0  0  0  0  0  0  0  0  0  0  0
   -0.6827    3.1845    5.3938 C   0  0  0  0  0  0  0  0  0  0  0  0
   -1.1096    4.2719    6.1117 C   0  0  0  0  0  0  0  0  0  0  0  0
   -2.4836    4.3958    6.3784 C   0  0  0  0  0  0  0  0  0  0  0  0
   -3.4016    3.4728    5.9546 C   0  0  0  0  0  0  0  0  0  0  0  0
   -4.8621    3.3461    6.1055 C   0  0  0  0  0  0  0  0  0  0  0  0
   -5.6493    4.0537    6.9963 C   0  0  0  0  0  0  0  0  0  0  0  0
   -6.8618    3.4814    7.2594 C   0  0  0  0  0  0  0  0  0  0  0  0
   -8.0591    2.9331    7.5022 N   0  0  0  0  0  0  0  0  0  0  0  0
   -5.2280    5.3010    7.5106 C   0  0  0  0  0  0  0  0  0  0  0  0
   -4.8793    6.3619    7.9622 N   0  0  0  0  0  0  0  0  0  0  0  0
    0.3037    4.7115    6.2415 C   0  0  0  0  0  0  0  0  0  0  0  0
    0.9776    4.2745    7.5547 C   0  0  0  0  0  0  0  0  0  0  0  0
    0.4166    2.9553    7.9132 C   0  0  0  0  0  0  0  0  0  0  0  0
    0.9326    2.0025    7.1266 C   0  0  0  0  0  0  0  0  0  0  0  0
    1.7078    2.7435    6.0928 C   0  0  0  0  0  0  0  0  0  0  0  0
    2.3396    3.8025    7.0019 C   0  0  0  0  0  0  0  0  0  0  0  0
    0.7662    3.5798    5.3190 C   0  0  0  0  0  0  0  0  0  0  0  0
    7.6710    3.2842   -0.5236 H   0  0  0  0  0  0  0  0  0  0  0  0
    3.2119    3.5343   -5.0050 H   0  0  0  0  0  0  0  0  0  0  0  0
    4.0756    7.3670   -2.1465 H   0  0  0  0  0  0  0  0  0  0  0  0
    0.9157    7.6229   -3.5092 H   0  0  0  0  0  0  0  0  0  0  0  0
    2.6312    9.2390   -4.8556 H   0  0  0  0  0  0  0  0  0  0  0  0
    0.2840    9.6318   -5.9710 H   0  0  0  0  0  0  0  0  0  0  0  0
   -0.3709    7.4931   -7.3167 H   0  0  0  0  0  0  0  0  0  0  0  0
    1.6383    5.8796   -7.2365 H   0  0  0  0  0  0  0  0  0  0  0  0
    3.6060    6.9851   -5.8893 H   0  0  0  0  0  0  0  0  0  0  0  0
    2.9573    8.0881   -7.2283 H   0  0  0  0  0  0  0  0  0  0  0  0
    0.4307    5.6766   -4.7907 H   0  0  0  0  0  0  0  0  0  0  0  0
    4.8303    1.5305   -1.6032 H   0  0  0  0  0  0  0  0  0  0  0  0
    2.3639   -1.4874   -1.8066 H   0  0  0  0  0  0  0  0  0  0  0  0
    2.6620    0.0153   -0.9269 H   0  0  0  0  0  0  0  0  0  0  0  0
    2.7555    1.1956   -2.9652 H   0  0  0  0  0  0  0  0  0  0  0  0
    1.8759   -0.2008   -3.5735 H   0  0  0  0  0  0  0  0  0  0  0  0
    3.6420   -0.1343   -3.8792 H   0  0  0  0  0  0  0  0  0  0  0  0
    8.6997   -1.4294   -0.9135 H   0  0  0  0  0  0  0  0  0  0  0  0
    8.3778   -3.9481   -1.1889 H   0  0  0  0  0  0  0  0  0  0  0  0
   10.3169   -4.9456   -2.4332 H   0  0  0  0  0  0  0  0  0  0  0  0
   10.0473   -5.6849   -4.7526 H   0  0  0  0  0  0  0  0  0  0  0  0
    8.3577   -6.5472   -6.3227 H   0  0  0  0  0  0  0  0  0  0  0  0
    6.7013   -5.7887   -6.3127 H   0  0  0  0  0  0  0  0  0  0  0  0
    8.6194   -5.1279   -8.1136 H   0  0  0  0  0  0  0  0  0  0  0  0
    7.6114   -3.7926   -7.4250 H   0  0  0  0  0  0  0  0  0  0  0  0
    9.1966   -4.0988   -6.6984 H   0  0  0  0  0  0  0  0  0  0  0  0
    5.9224   -4.4396   -4.6223 H   0  0  0  0  0  0  0  0  0  0  0  0
   -5.4692   -0.5268   -0.6837 H   0  0  0  0  0  0  0  0  0  0  0  0
   -6.7873    0.8091   -2.2154 H   0  0  0  0  0  0  0  0  0  0  0  0
   -8.7820   -0.0910   -3.1788 H   0  0  0  0  0  0  0  0  0  0  0  0
  -10.6084   -1.6897   -2.9722 H   0  0  0  0  0  0  0  0  0  0  0  0
  -10.2802   -3.3062   -2.1878 H   0  0  0  0  0  0  0  0  0  0  0  0
   -9.3027   -2.3105   -4.9043 H   0  0  0  0  0  0  0  0  0  0  0  0
   -8.9427   -3.9666   -4.1331 H   0  0  0  0  0  0  0  0  0  0  0  0
  -10.6087   -3.4337   -4.5180 H   0  0  0  0  0  0  0  0  0  0  0  0
   -8.2000   -3.7838   -1.0749 H   0  0  0  0  0  0  0  0  0  0  0  0
    2.7600   -3.6544    1.5094 H   0  0  0  0  0  0  0  0  0  0  0  0
    1.0988   -3.5602    1.6523 H   0  0  0  0  0  0  0  0  0  0  0  0
    3.3347   -5.3269    2.7302 H   0  0  0  0  0  0  0  0  0  0  0  0
    1.8997   -4.7404    3.5849 H   0  0  0  0  0  0  0  0  0  0  0  0
    1.8762   -6.2981    2.5660 H   0  0  0  0  0  0  0  0  0  0  0  0
   -2.0603   -5.4369    2.5466 H   0  0  0  0  0  0  0  0  0  0  0  0
   -0.3855   -5.6886    2.3920 H   0  0  0  0  0  0  0  0  0  0  0  0
   -0.1593   -3.6014    3.4826 H   0  0  0  0  0  0  0  0  0  0  0  0
   -1.0595   -2.7288    2.1893 H   0  0  0  0  0  0  0  0  0  0  0  0
   -1.8895   -3.5333    3.6185 H   0  0  0  0  0  0  0  0  0  0  0  0
   -7.5625   -2.7143    3.5693 H   0  0  0  0  0  0  0  0  0  0  0  0
   -8.6073   -0.1192    5.9481 H   0  0  0  0  0  0  0  0  0  0  0  0
   -8.6601   -1.8617    5.5915 H   0  0  0  0  0  0  0  0  0  0  0  0
   -6.6909   -0.4328    7.3460 H   0  0  0  0  0  0  0  0  0  0  0  0
   -6.1380   -1.8793    6.4465 H   0  0  0  0  0  0  0  0  0  0  0  0
   -7.5279   -2.0490    7.5005 H   0  0  0  0  0  0  0  0  0  0  0  0
   -7.4063    2.0598    5.4906 H   0  0  0  0  0  0  0  0  0  0  0  0
   -1.2542    1.3456    4.4065 H   0  0  0  0  0  0  0  0  0  0  0  0
   -2.8302    5.2465    6.9169 H   0  0  0  0  0  0  0  0  0  0  0  0
    0.5161    5.6982    5.8855 H   0  0  0  0  0  0  0  0  0  0  0  0
    1.0383    5.0147    8.3202 H   0  0  0  0  0  0  0  0  0  0  0  0
   -0.2954    2.8014    8.7066 H   0  0  0  0  0  0  0  0  0  0  0  0
    0.8060    0.9504    7.2372 H   0  0  0  0  0  0  0  0  0  0  0  0
    2.4276    2.1797    5.5298 H   0  0  0  0  0  0  0  0  0  0  0  0
    2.8781    4.5787    6.4630 H   0  0  0  0  0  0  0  0  0  0  0  0
    2.9159    3.2830    7.8070 H   0  0  0  0  0  0  0  0  0  0  0  0
    1.0866    3.9105    4.3251 H   0  0  0  0  0  0  0  0  0  0  0  0
  1  2  2  3
  2  3  1  0
  3  4  2  0
  3  5  1  0
  5  6  2  0
  6  7  1  0
  7  8  2  0
  8  9  1  0
  9 10  2  0
 10 11  1  0
 11 12  2  3
 12 13  1  0
 13 14  3  0
 12 15  1  0
 15 16  3  0
  8 17  1  0
 17 18  1  0
 18 19  1  0
 19 20  2  0
 20 21  1  0
 21 22  1  0
 21 23  1  0
  1 24  1  0
 24 25  2  0
 25 26  1  0
 26 27  1  0
 27 28  1  0
 28 29  1  0
 26 30  2  0
 30 31  1  0
 31 32  2  0
 32 33  1  0
 30 34  1  0
 34 35  2  0
 35 36  1  0
 36 37  2  0
 37 38  1  0
 38 39  2  0
 39 40  1  0
 40 41  1  0
 41 42  1  0
 40 43  2  0
 35 44  1  0
 44 45  1  0
 45 46  1  0
 46 47  1  0
 47 48  1  0
 48 49  1  0
 49 50  2  0
 50 51  1  0
 51 52  1  0
 49 53  1  0
 53 54  1  0
 54 55  1  0
 55 56  1  0
 56 57  1  0
 57 58  1  0
 58 59  2  0
 59 60  1  0
 60 61  2  0
 61 62  1  0
 62 63  1  0
 63 64  1  0
 62 65  2  0
 57 66  2  0
 66 67  1  0
 67 68  1  0
 68 69  1  0
 69 70  1  0
 70 71  1  0
 71 72  1  0
 72 73  1  0
 73 74  1  0
 74 75  1  0
 75 76  1  0
 73 77  1  0
 77 78  1  0
 70 79  1  0
 79 80  1  0
 66 81  1  0
 81 82  2  0
 82 83  1  0
 83 84  1  0
 84 85  1  0
 83 86  2  0
 86 87  1  0
 86 88  1  0
 88 89  2  3
 89 90  1  0
 90 91  2  0
 90 92  1  0
 92 93  2  0
 93 94  1  0
 94 95  2  0
 95 96  1  0
 96 97  2  0
 97 98  1  0
 98 99  2  3
 99100  1  0
100101  3  0
 99102  1  0
102103  3  0
 95104  1  0
104105  1  0
105106  1  0
106107  2  0
107108  1  0
108109  1  0
108110  1  0
 11  2  1  0
 23 17  1  0
 32 24  1  0
 76 34  1  0
 87 81  1  0
 98 89  1  0
110104  1  0
 10  5  1  0
 22 18  1  0
 43 36  1  0
 75 44  2  0
 97 92  1  0
109105  1  0
 23  7  1  0
 74 46  2  0
110 94  1  0
 72 47  2  0
 52 48  2  0
 71 53  2  0
 69 54  2  0
 68 56  2  0
 65 58  1  0
  1111  1  0
  6112  1  0
  9113  1  0
 17114  1  0
 18115  1  0
 19116  1  0
 20117  1  0
 21118  1  0
 22119  1  0
 22120  1  0
 23121  1  0
 25122  1  0
 28123  1  0
 28124  1  0
 29125  1  0
 29126  1  0
 29127  1  0
 31128  1  0
 37129  1  0
 38130  1  0
 39131  1  0
 41132  1  0
 41133  1  0
 42134  1  0
 42135  1  0
 42136  1  0
 43137  1  0
 59138  1  0
 60139  1  0
 61140  1  0
 63141  1  0
 63142  1  0
 64143  1  0
 64144  1  0
 64145  1  0
 65146  1  0
 77147  1  0
 77148  1  0
 78149  1  0
 78150  1  0
 78151  1  0
 79152  1  0
 79153  1  0
 80154  1  0
 80155  1  0
 80156  1  0
 82157  1  0
 84158  1  0
 84159  1  0
 85160  1  0
 85161  1  0
 85162  1  0
 88163  1  0
 93164  1  0
 96165  1  0
104166  1  0
105167  1  0
106168  1  0
107169  1  0
108170  1  0
109171  1  0
109172  1  0
110173  1  0
M  END

