
     RDKit          3D

275308  0  0  0  0  0  0  0  0999 V2000
    9.4217   -1.6138    3.0115 C   0  0  0  0  0  0  0  0  0  0  0  0
    9.5666   -1.9499    1.7112 C   0  0  0  0  0  0  0  0  0  0  0  0
    9.6149   -1.0319    0.5586 C   0  0  0  0  0  0  0  0  0  0  0  0
   10.2357    0.0670    0.5032 O   0  0  0  0  0  0  0  0  0  0  0  0
    9.0183   -1.6810   -0.5902 C   0  0  0  0  0  0  0  0  0  0  0  0
    8.7645   -1.1141   -1.8595 C   0  0  0  0  0  0  0  0  0  0  0  0
    8.0503   -1.9380   -2.7061 C   0  0  0  0  0  0  0  0  0  0  0  0
    7.5778   -3.2387   -2.3214 C   0  0  0  0  0  0  0  0  0  0  0  0
    7.8488   -3.8085   -1.0845 C   0  0  0  0  0  0  0  0  0  0  0  0
    8.6429   -2.9983   -0.2267 C   0  0  0  0  0  0  0  0  0  0  0  0
    9.1526   -3.2742    1.1467 C   0  0  0  0  0  0  0  0  0  0  0  0
    9.4096   -4.4973    1.6714 C   0  0  0  0  0  0  0  0  0  0  0  0
   10.1144   -4.6449    2.9192 C   0  0  0  0  0  0  0  0  0  0  0  0
   10.6634   -4.7182    3.9354 N   0  0  0  0  0  0  0  0  0  0  0  0
    9.0681   -5.7120    0.9869 C   0  0  0  0  0  0  0  0  0  0  0  0
    8.7574   -6.6907    0.4442 N   0  0  0  0  0  0  0  0  0  0  0  0
    6.8685   -3.3835   -3.6317 C   0  0  0  0  0  0  0  0  0  0  0  0
    5.3216   -3.1786   -3.6534 C   0  0  0  0  0  0  0  0  0  0  0  0
    4.9095   -2.1823   -2.5932 C   0  0  0  0  0  0  0  0  0  0  0  0
    5.3781   -0.9991   -2.9815 C   0  0  0  0  0  0  0  0  0  0  0  0
    6.1022   -1.2294   -4.2873 C   0  0  0  0  0  0  0  0  0  0  0  0
    5.1988   -2.2930   -4.8791 C   0  0  0  0  0  0  0  0  0  0  0  0
    7.3865   -2.0729   -4.0396 C   0  0  0  0  0  0  0  0  0  0  0  0
    8.9376   -0.2996    3.4812 C   0  0  0  0  0  0  0  0  0  0  0  0
    9.3663    0.9830    3.1205 C   0  0  0  0  0  0  0  0  0  0  0  0
    8.4550    1.9895    3.4964 C   0  0  0  0  0  0  0  0  0  0  0  0
    8.5051    3.3541    3.1158 C   0  0  0  0  0  0  0  0  0  0  0  0
    9.7869    3.9828    2.7220 C   0  0  0  0  0  0  0  0  0  0  0  0
   10.0122    5.0931    1.9004 C   0  0  0  0  0  0  0  0  0  0  0  0
   11.3376    5.5692    1.9517 C   0  0  0  0  0  0  0  0  0  0  0  0
   12.1558    4.8819    2.8456 C   0  0  0  0  0  0  0  0  0  0  0  0
   13.5699    5.2269    3.1480 C   0  0  0  0  0  0  0  0  0  0  0  0
   14.2903    4.7867    4.1973 C   0  0  0  0  0  0  0  0  0  0  0  0
   13.7749    3.8889    5.2402 C   0  0  0  0  0  0  0  0  0  0  0  0
   13.9025    2.5073    5.2215 C   0  0  0  0  0  0  0  0  0  0  0  0
   13.0989    1.8689    6.1744 C   0  0  0  0  0  0  0  0  0  0  0  0
   12.3545    2.7504    6.9436 C   0  0  0  0  0  0  0  0  0  0  0  0
   10.9839    2.3000    8.0058 S   0  0  0  0  0  0  0  0  0  0  0  0
   11.9222    2.5180    9.5501 C   0  0  0  0  0  0  0  0  0  0  0  0
   11.0456    2.1349   10.7353 C   0  0  0  0  0  0  0  0  0  0  0  0
   12.6781    4.3245    6.4471 S   0  0  0  0  0  0  0  0  0  0  0  0
   11.2269    3.6516    3.5119 S   0  0  0  0  0  0  0  0  0  0  0  0
    7.3169    4.0949    3.3115 C   0  0  0  0  0  0  0  0  0  0  0  0
    6.2283    3.5783    4.0238 C   0  0  0  0  0  0  0  0  0  0  0  0
    6.2666    2.2836    4.5654 C   0  0  0  0  0  0  0  0  0  0  0  0
    5.1924    1.7815    5.4489 C   0  0  0  0  0  0  0  0  0  0  0  0
    4.8483    2.3517    6.6671 C   0  0  0  0  0  0  0  0  0  0  0  0
    3.7139    1.7756    7.2458 C   0  0  0  0  0  0  0  0  0  0  0  0
    3.1860    0.7347    6.4990 C   0  0  0  0  0  0  0  0  0  0  0  0
    1.8888    0.1009    6.7754 C   0  0  0  0  0  0  0  0  0  0  0  0
    1.6694   -1.2136    6.8945 C   0  0  0  0  0  0  0  0  0  0  0  0
    2.6930   -2.2792    6.9525 C   0  0  0  0  0  0  0  0  0  0  0  0
    2.3882   -3.6386    6.9432 C   0  0  0  0  0  0  0  0  0  0  0  0
    3.4953   -4.4657    7.1622 C   0  0  0  0  0  0  0  0  0  0  0  0
    4.6757   -3.7570    7.3443 C   0  0  0  0  0  0  0  0  0  0  0  0
    6.2922   -4.4710    7.6596 S   0  0  0  0  0  0  0  0  0  0  0  0
    6.6392   -4.8867    5.9118 C   0  0  0  0  0  0  0  0  0  0  0  0
    6.7842   -3.6366    5.0548 C   0  0  0  0  0  0  0  0  0  0  0  0
    4.3465   -2.1124    7.2597 S   0  0  0  0  0  0  0  0  0  0  0  0
    4.0901    0.5567    5.0820 S   0  0  0  0  0  0  0  0  0  0  0  0
    7.3599    1.4884    4.2071 C   0  0  0  0  0  0  0  0  0  0  0  0
    7.5033   -0.1720    4.3582 S   0  0  0  0  0  0  0  0  0  0  0  0
    5.0760    4.3672    3.9320 C   0  0  0  0  0  0  0  0  0  0  0  0
    5.2209    5.4771    3.1095 C   0  0  0  0  0  0  0  0  0  0  0  0
    6.8139    5.5094    2.5439 S   0  0  0  0  0  0  0  0  0  0  0  0
    4.0859    5.9554    2.3129 C   0  0  0  0  0  0  0  0  0  0  0  0
    3.4418    7.2107    2.3642 C   0  0  0  0  0  0  0  0  0  0  0  0
    3.8997    8.3752    3.1530 C   0  0  0  0  0  0  0  0  0  0  0  0
    4.3568    8.2243    4.4745 C   0  0  0  0  0  0  0  0  0  0  0  0
    4.8126    9.3289    5.1951 C   0  0  0  0  0  0  0  0  0  0  0  0
    4.8046   10.5997    4.6169 C   0  0  0  0  0  0  0  0  0  0  0  0
    4.3509   10.7705    3.3021 C   0  0  0  0  0  0  0  0  0  0  0  0
    4.3031   12.1423    2.6832 C   0  0  0  0  0  0  0  0  0  0  0  0
    2.9395   12.7873    2.9113 C   0  0  0  0  0  0  0  0  0  0  0  0
    3.8893    9.6581    2.5798 C   0  0  0  0  0  0  0  0  0  0  0  0
    2.2807    7.2019    1.5729 C   0  0  0  0  0  0  0  0  0  0  0  0
    0.9513    8.2655    1.3969 S   0  0  0  0  0  0  0  0  0  0  0  0
    0.1099    7.1359    0.4487 C   0  0  0  0  0  0  0  0  0  0  0  0
   -1.1962    6.8768    0.1323 C   0  0  0  0  0  0  0  0  0  0  0  0
   -2.3682    7.6117    0.3609 C   0  0  0  0  0  0  0  0  0  0  0  0
   -3.6358    6.9744    0.1626 C   0  0  0  0  0  0  0  0  0  0  0  0
   -4.7434    7.7181    0.4030 N   0  0  0  0  0  0  0  0  0  0  0  0
   -4.0247    9.1372    0.8661 S   0  0  0  0  0  0  0  0  0  0  0  0
   -2.3869    8.8971    0.7931 N   0  0  0  0  0  0  0  0  0  0  0  0
   -3.6607    5.6436   -0.2656 C   0  0  0  0  0  0  0  0  0  0  0  0
   -4.6826    4.7907   -0.5897 C   0  0  0  0  0  0  0  0  0  0  0  0
   -6.3853    4.7066   -0.6087 S   0  0  0  0  0  0  0  0  0  0  0  0
   -6.3401    3.1183   -1.2601 C   0  0  0  0  0  0  0  0  0  0  0  0
   -7.3036    2.1237   -1.5094 C   0  0  0  0  0  0  0  0  0  0  0  0
   -8.7675    2.3093   -1.3794 C   0  0  0  0  0  0  0  0  0  0  0  0
   -9.5711    1.3246   -0.7782 C   0  0  0  0  0  0  0  0  0  0  0  0
  -10.9530    1.5025   -0.6770 C   0  0  0  0  0  0  0  0  0  0  0  0
  -11.5509    2.6581   -1.1788 C   0  0  0  0  0  0  0  0  0  0  0  0
  -10.7691    3.6460   -1.7973 C   0  0  0  0  0  0  0  0  0  0  0  0
  -11.4148    4.8909   -2.3426 C   0  0  0  0  0  0  0  0  0  0  0  0
  -11.3889    6.0081   -1.3055 C   0  0  0  0  0  0  0  0  0  0  0  0
   -9.3769    3.4734   -1.8806 C   0  0  0  0  0  0  0  0  0  0  0  0
   -6.6647    0.9151   -1.8691 C   0  0  0  0  0  0  0  0  0  0  0  0
   -4.9819    1.1184   -1.8992 S   0  0  0  0  0  0  0  0  0  0  0  0
   -5.0401    2.7174   -1.4522 C   0  0  0  0  0  0  0  0  0  0  0  0
   -4.1077    3.6604   -1.0677 C   0  0  0  0  0  0  0  0  0  0  0  0
   -2.7524    3.7079   -1.1090 N   0  0  0  0  0  0  0  0  0  0  0  0
   -2.4818    4.9220   -0.5296 C   0  0  0  0  0  0  0  0  0  0  0  0
   -1.2319    5.5236   -0.2428 C   0  0  0  0  0  0  0  0  0  0  0  0
   -0.0168    4.9265   -0.0287 N   0  0  0  0  0  0  0  0  0  0  0  0
    0.7866    5.9599    0.3281 C   0  0  0  0  0  0  0  0  0  0  0  0
    2.0212    6.0041    0.9582 C   0  0  0  0  0  0  0  0  0  0  0  0
    3.2074    4.8907    1.3213 S   0  0  0  0  0  0  0  0  0  0  0  0
    0.2131    3.5318    0.3859 C   0  0  0  0  0  0  0  0  0  0  0  0
    0.0695    3.3630    1.8986 C   0  0  0  0  0  0  0  0  0  0  0  0
   -1.9476    3.0614   -2.1627 C   0  0  0  0  0  0  0  0  0  0  0  0
   -1.7484    1.5585   -1.9156 C   0  0  0  0  0  0  0  0  0  0  0  0
   -7.2536   -0.3814   -2.1979 C   0  0  0  0  0  0  0  0  0  0  0  0
   -6.7876   -1.5371   -1.5728 C   0  0  0  0  0  0  0  0  0  0  0  0
   -6.7633   -2.6591   -2.4095 C   0  0  0  0  0  0  0  0  0  0  0  0
   -6.1653   -3.9052   -2.1193 C   0  0  0  0  0  0  0  0  0  0  0  0
   -5.8051   -4.2905   -0.7458 C   0  0  0  0  0  0  0  0  0  0  0  0
   -4.8897   -3.6404    0.0768 C   0  0  0  0  0  0  0  0  0  0  0  0
   -5.0389   -3.9572    1.4352 C   0  0  0  0  0  0  0  0  0  0  0  0
   -6.0800   -4.8505    1.6813 C   0  0  0  0  0  0  0  0  0  0  0  0
   -6.6643   -5.2100    2.9800 C   0  0  0  0  0  0  0  0  0  0  0  0
   -6.5831   -4.4041    4.0441 C   0  0  0  0  0  0  0  0  0  0  0  0
   -7.3974   -4.6104    5.2507 C   0  0  0  0  0  0  0  0  0  0  0  0
   -8.0214   -5.7897    5.6631 C   0  0  0  0  0  0  0  0  0  0  0  0
   -8.8126   -5.6239    6.8044 C   0  0  0  0  0  0  0  0  0  0  0  0
   -8.8103   -4.3199    7.2844 C   0  0  0  0  0  0  0  0  0  0  0  0
   -9.7214   -3.7299    8.7091 S   0  0  0  0  0  0  0  0  0  0  0  0
  -11.2634   -3.3778    7.7870 C   0  0  0  0  0  0  0  0  0  0  0  0
  -11.2160   -1.9904    7.1568 C   0  0  0  0  0  0  0  0  0  0  0  0
   -7.8149   -3.3785    6.3162 S   0  0  0  0  0  0  0  0  0  0  0  0
   -6.7931   -5.2503    0.2137 S   0  0  0  0  0  0  0  0  0  0  0  0
   -6.0183   -4.8030   -3.1894 C   0  0  0  0  0  0  0  0  0  0  0  0
   -6.5205   -4.5269   -4.4624 C   0  0  0  0  0  0  0  0  0  0  0  0
   -7.2227   -3.3367   -4.7188 C   0  0  0  0  0  0  0  0  0  0  0  0
   -7.8824   -3.1153   -6.0149 C   0  0  0  0  0  0  0  0  0  0  0  0
   -7.5561   -2.1674   -6.9767 C   0  0  0  0  0  0  0  0  0  0  0  0
   -8.2774   -2.3331   -8.1734 C   0  0  0  0  0  0  0  0  0  0  0  0
   -9.1403   -3.4256   -8.1524 C   0  0  0  0  0  0  0  0  0  0  0  0
  -10.0842   -3.7995   -9.2234 C   0  0  0  0  0  0  0  0  0  0  0  0
  -10.5159   -5.0501   -9.4378 C   0  0  0  0  0  0  0  0  0  0  0  0
   -9.9076   -6.2372   -8.8183 C   0  0  0  0  0  0  0  0  0  0  0  0
   -8.6161   -6.7043   -9.0548 C   0  0  0  0  0  0  0  0  0  0  0  0
   -8.3033   -7.8555   -8.3226 C   0  0  0  0  0  0  0  0  0  0  0  0
   -9.3420   -8.2761   -7.4976 C   0  0  0  0  0  0  0  0  0  0  0  0
   -9.3101   -9.7244   -6.4366 S   0  0  0  0  0  0  0  0  0  0  0  0
   -8.3408   -8.9419   -5.0950 C   0  0  0  0  0  0  0  0  0  0  0  0
   -6.9494   -9.5584   -5.0363 C   0  0  0  0  0  0  0  0  0  0  0  0
  -10.6562   -7.2441   -7.6888 S   0  0  0  0  0  0  0  0  0  0  0  0
   -9.0383   -4.1515   -6.6404 S   0  0  0  0  0  0  0  0  0  0  0  0
   -7.2764   -2.3956   -3.6819 C   0  0  0  0  0  0  0  0  0  0  0  0
   -7.7147   -0.7727   -3.7746 S   0  0  0  0  0  0  0  0  0  0  0  0
   -6.0797   -5.4268   -5.4362 C   0  0  0  0  0  0  0  0  0  0  0  0
   -5.1936   -6.3812   -4.9447 C   0  0  0  0  0  0  0  0  0  0  0  0
   -5.0121   -6.1525   -3.2758 S   0  0  0  0  0  0  0  0  0  0  0  0
   -4.2292   -7.0347   -5.8409 C   0  0  0  0  0  0  0  0  0  0  0  0
   -3.1931   -6.3247   -6.3299 C   0  0  0  0  0  0  0  0  0  0  0  0
   -2.6981   -5.0797   -5.7328 C   0  0  0  0  0  0  0  0  0  0  0  0
   -2.5385   -4.8639   -4.5047 O   0  0  0  0  0  0  0  0  0  0  0  0
   -2.4149   -4.1303   -6.7846 C   0  0  0  0  0  0  0  0  0  0  0  0
   -2.1757   -2.7495   -6.6243 C   0  0  0  0  0  0  0  0  0  0  0  0
   -2.2062   -2.0394   -7.8033 C   0  0  0  0  0  0  0  0  0  0  0  0
   -2.4618   -2.6429   -9.0757 C   0  0  0  0  0  0  0  0  0  0  0  0
   -2.6791   -4.0056   -9.2385 C   0  0  0  0  0  0  0  0  0  0  0  0
   -2.6223   -4.7611   -8.0354 C   0  0  0  0  0  0  0  0  0  0  0  0
   -2.9313   -6.1968   -7.7935 C   0  0  0  0  0  0  0  0  0  0  0  0
   -2.8258   -7.2158   -8.6742 C   0  0  0  0  0  0  0  0  0  0  0  0
   -2.8925   -8.5902   -8.2316 C   0  0  0  0  0  0  0  0  0  0  0  0
   -2.9719   -9.6756   -7.8428 N   0  0  0  0  0  0  0  0  0  0  0  0
   -2.5812   -7.0043  -10.0798 C   0  0  0  0  0  0  0  0  0  0  0  0
   -2.4247   -6.8399  -11.2195 N   0  0  0  0  0  0  0  0  0  0  0  0
   -2.4285   -1.2967   -9.7371 C   0  0  0  0  0  0  0  0  0  0  0  0
   -3.8054   -0.6842  -10.1320 C   0  0  0  0  0  0  0  0  0  0  0  0
   -3.5450    0.7801  -10.3941 C   0  0  0  0  0  0  0  0  0  0  0  0
   -3.2906    1.3398   -9.2068 C   0  0  0  0  0  0  0  0  0  0  0  0
   -3.3844    0.2314   -8.1863 C   0  0  0  0  0  0  0  0  0  0  0  0
   -4.5273   -0.5587   -8.8034 C   0  0  0  0  0  0  0  0  0  0  0  0
   -2.1503   -0.6830   -8.4357 C   0  0  0  0  0  0  0  0  0  0  0  0
    9.2376   -2.4050    3.7192 H   0  0  0  0  0  0  0  0  0  0  0  0
    9.0685   -0.1126   -2.1355 H   0  0  0  0  0  0  0  0  0  0  0  0
    7.4400   -4.7673   -0.8048 H   0  0  0  0  0  0  0  0  0  0  0  0
    7.2427   -4.2196   -4.2667 H   0  0  0  0  0  0  0  0  0  0  0  0
    4.7212   -4.1135   -3.6758 H   0  0  0  0  0  0  0  0  0  0  0  0
    4.2690   -2.3543   -1.7351 H   0  0  0  0  0  0  0  0  0  0  0  0
    5.1984   -0.0480   -2.4877 H   0  0  0  0  0  0  0  0  0  0  0  0
    6.2470   -0.3223   -4.9131 H   0  0  0  0  0  0  0  0  0  0  0  0
    4.1531   -1.9360   -5.0688 H   0  0  0  0  0  0  0  0  0  0  0  0
    5.6073   -2.7570   -5.8096 H   0  0  0  0  0  0  0  0  0  0  0  0
    8.0979   -2.1149   -4.8917 H   0  0  0  0  0  0  0  0  0  0  0  0
   10.2689    1.1805    2.5677 H   0  0  0  0  0  0  0  0  0  0  0  0
    9.2662    5.5461    1.2703 H   0  0  0  0  0  0  0  0  0  0  0  0
   11.6712    6.4394    1.3922 H   0  0  0  0  0  0  0  0  0  0  0  0
   14.0651    5.9008    2.4591 H   0  0  0  0  0  0  0  0  0  0  0  0
   15.3210    5.0996    4.2798 H   0  0  0  0  0  0  0  0  0  0  0  0
   14.4865    1.9701    4.4849 H   0  0  0  0  0  0  0  0  0  0  0  0
   12.9961    0.7967    6.2332 H   0  0  0  0  0  0  0  0  0  0  0  0
   12.2366    3.5803    9.6469 H   0  0  0  0  0  0  0  0  0  0  0  0
   12.8276    1.8696    9.5382 H   0  0  0  0  0  0  0  0  0  0  0  0
   10.1462    2.7862   10.7732 H   0  0  0  0  0  0  0  0  0  0  0  0
   10.7293    1.0711   10.6459 H   0  0  0  0  0  0  0  0  0  0  0  0
   11.6175    2.2628   11.6831 H   0  0  0  0  0  0  0  0  0  0  0  0
    5.3797    3.1832    7.1100 H   0  0  0  0  0  0  0  0  0  0  0  0
    3.2823    2.1227    8.1748 H   0  0  0  0  0  0  0  0  0  0  0  0
    1.0400    0.7609    6.9003 H   0  0  0  0  0  0  0  0  0  0  0  0
    0.6437   -1.5345    7.0383 H   0  0  0  0  0  0  0  0  0  0  0  0
    1.3825   -4.0220    6.8057 H   0  0  0  0  0  0  0  0  0  0  0  0
    3.4342   -5.5470    7.1874 H   0  0  0  0  0  0  0  0  0  0  0  0
    7.5885   -5.4679    5.8780 H   0  0  0  0  0  0  0  0  0  0  0  0
    5.8240   -5.5285    5.5124 H   0  0  0  0  0  0  0  0  0  0  0  0
    7.4830   -2.9260    5.5383 H   0  0  0  0  0  0  0  0  0  0  0  0
    7.1740   -3.9119    4.0563 H   0  0  0  0  0  0  0  0  0  0  0  0
    5.8000   -3.1468    4.9142 H   0  0  0  0  0  0  0  0  0  0  0  0
    4.1076    4.0362    4.2957 H   0  0  0  0  0  0  0  0  0  0  0  0
    4.3416    7.2537    4.9551 H   0  0  0  0  0  0  0  0  0  0  0  0
    5.1623    9.2040    6.2102 H   0  0  0  0  0  0  0  0  0  0  0  0
    5.1537   11.4489    5.1893 H   0  0  0  0  0  0  0  0  0  0  0  0
    5.0914   12.7905    3.1232 H   0  0  0  0  0  0  0  0  0  0  0  0
    4.4982   12.0766    1.5881 H   0  0  0  0  0  0  0  0  0  0  0  0
    2.1347   12.1667    2.4556 H   0  0  0  0  0  0  0  0  0  0  0  0
    2.9195   13.7930    2.4405 H   0  0  0  0  0  0  0  0  0  0  0  0
    2.7430   12.8978    3.9999 H   0  0  0  0  0  0  0  0  0  0  0  0
    3.5346    9.7922    1.5630 H   0  0  0  0  0  0  0  0  0  0  0  0
   -9.1285    0.4216   -0.3761 H   0  0  0  0  0  0  0  0  0  0  0  0
  -11.5621    0.7389   -0.2092 H   0  0  0  0  0  0  0  0  0  0  0  0
  -12.6239    2.7798   -1.0943 H   0  0  0  0  0  0  0  0  0  0  0  0
  -10.8804    5.2279   -3.2588 H   0  0  0  0  0  0  0  0  0  0  0  0
  -12.4708    4.6832   -2.6290 H   0  0  0  0  0  0  0  0  0  0  0  0
  -10.3410    6.2436   -1.0165 H   0  0  0  0  0  0  0  0  0  0  0  0
  -11.9604    5.7064   -0.4000 H   0  0  0  0  0  0  0  0  0  0  0  0
  -11.8541    6.9213   -1.7313 H   0  0  0  0  0  0  0  0  0  0  0  0
   -8.7759    4.2357   -2.3627 H   0  0  0  0  0  0  0  0  0  0  0  0
    1.2161    3.1879    0.0486 H   0  0  0  0  0  0  0  0  0  0  0  0
   -0.5262    2.8677   -0.0654 H   0  0  0  0  0  0  0  0  0  0  0  0
   -0.6792    4.0774    2.3099 H   0  0  0  0  0  0  0  0  0  0  0  0
   -0.2590    2.3237    2.1384 H   0  0  0  0  0  0  0  0  0  0  0  0
    1.0422    3.5270    2.4105 H   0  0  0  0  0  0  0  0  0  0  0  0
   -2.4436    3.2086   -3.1454 H   0  0  0  0  0  0  0  0  0  0  0  0
   -0.9570    3.5524   -2.2490 H   0  0  0  0  0  0  0  0  0  0  0  0
   -0.6672    1.3077   -1.9615 H   0  0  0  0  0  0  0  0  0  0  0  0
   -2.1397    1.2536   -0.9256 H   0  0  0  0  0  0  0  0  0  0  0  0
   -2.2562    0.9688   -2.7084 H   0  0  0  0  0  0  0  0  0  0  0  0
   -6.3161   -1.5030   -0.6026 H   0  0  0  0  0  0  0  0  0  0  0  0
   -4.1823   -2.9028   -0.2825 H   0  0  0  0  0  0  0  0  0  0  0  0
   -4.4392   -3.5010    2.2103 H   0  0  0  0  0  0  0  0  0  0  0  0
   -7.3158   -6.0735    3.0049 H   0  0  0  0  0  0  0  0  0  0  0  0
   -6.0228   -3.4792    3.9756 H   0  0  0  0  0  0  0  0  0  0  0  0
   -7.9202   -6.7384    5.1533 H   0  0  0  0  0  0  0  0  0  0  0  0
   -9.3760   -6.4270    7.2577 H   0  0  0  0  0  0  0  0  0  0  0  0
  -12.1106   -3.4128    8.5056 H   0  0  0  0  0  0  0  0  0  0  0  0
  -11.4461   -4.1493    7.0046 H   0  0  0  0  0  0  0  0  0  0  0  0
  -10.4422   -1.9509    6.3608 H   0  0  0  0  0  0  0  0  0  0  0  0
  -12.2033   -1.7556    6.7037 H   0  0  0  0  0  0  0  0  0  0  0  0
  -10.9875   -1.2260    7.9305 H   0  0  0  0  0  0  0  0  0  0  0  0
   -6.8021   -1.4035   -6.8347 H   0  0  0  0  0  0  0  0  0  0  0  0
   -8.1489   -1.6864   -9.0317 H   0  0  0  0  0  0  0  0  0  0  0  0
  -10.4959   -3.0021   -9.8278 H   0  0  0  0  0  0  0  0  0  0  0  0
  -11.3182   -5.2108  -10.1426 H   0  0  0  0  0  0  0  0  0  0  0  0
   -7.9273   -6.2269   -9.7401 H   0  0  0  0  0  0  0  0  0  0  0  0
   -7.3458   -8.3574   -8.3845 H   0  0  0  0  0  0  0  0  0  0  0  0
   -8.2633   -7.8410   -5.2240 H   0  0  0  0  0  0  0  0  0  0  0  0
   -8.8559   -9.1366   -4.1292 H   0  0  0  0  0  0  0  0  0  0  0  0
   -6.3361   -9.0274   -4.2810 H   0  0  0  0  0  0  0  0  0  0  0  0
   -7.0231  -10.6248   -4.7409 H   0  0  0  0  0  0  0  0  0  0  0  0
   -6.4500   -9.4892   -6.0233 H   0  0  0  0  0  0  0  0  0  0  0  0
   -6.2620   -5.2942   -6.4961 H   0  0  0  0  0  0  0  0  0  0  0  0
   -4.6543   -7.8177   -6.4500 H   0  0  0  0  0  0  0  0  0  0  0  0
   -2.0691   -2.2716   -5.6596 H   0  0  0  0  0  0  0  0  0  0  0  0
   -2.9500   -4.4143  -10.1967 H   0  0  0  0  0  0  0  0  0  0  0  0
   -1.6183   -1.1824  -10.4883 H   0  0  0  0  0  0  0  0  0  0  0  0
   -4.3566   -1.2125  -10.9367 H   0  0  0  0  0  0  0  0  0  0  0  0
   -3.6189    1.3020  -11.3455 H   0  0  0  0  0  0  0  0  0  0  0  0
   -3.1212    2.3958   -9.0251 H   0  0  0  0  0  0  0  0  0  0  0  0
   -3.5401    0.5651   -7.1382 H   0  0  0  0  0  0  0  0  0  0  0  0
   -4.7298   -1.5320   -8.3050 H   0  0  0  0  0  0  0  0  0  0  0  0
   -5.4808    0.0187   -8.8693 H   0  0  0  0  0  0  0  0  0  0  0  0
   -1.1578   -0.1893   -8.3474 H   0  0  0  0  0  0  0  0  0  0  0  0
  1  2  2  3
  2  3  1  0
  3  4  2  0
  3  5  1  0
  5  6  2  0
  6  7  1  0
  7  8  2  0
  8  9  1  0
  9 10  2  0
 10 11  1  0
 11 12  2  3
 12 13  1  0
 13 14  3  0
 12 15  1  0
 15 16  3  0
  8 17  1  0
 17 18  1  0
 18 19  1  0
 19 20  2  0
 20 21  1  0
 21 22  1  0
 21 23  1  0
  1 24  1  0
 24 25  2  0
 25 26  1  0
 26 27  2  0
 27 28  1  0
 28 29  2  0
 29 30  1  0
 30 31  2  0
 31 32  1  0
 32 33  2  3
 33 34  1  0
 34 35  2  0
 35 36  1  0
 36 37  2  0
 37 38  1  0
 38 39  1  0
 39 40  1  0
 37 41  1  0
 31 42  1  0
 27 43  1  0
 43 44  2  0
 44 45  1  0
 45 46  1  0
 46 47  2  0
 47 48  1  0
 48 49  2  0
 49 50  1  0
 50 51  2  3
 51 52  1  0
 52 53  2  0
 53 54  1  0
 54 55  2  0
 55 56  1  0
 56 57  1  0
 57 58  1  0
 55 59  1  0
 49 60  1  0
 45 61  2  0
 61 62  1  0
 44 63  1  0
 63 64  2  0
 64 65  1  0
 64 66  1  0
 66 67  2  0
 67 68  1  0
 68 69  2  0
 69 70  1  0
 70 71  2  0
 71 72  1  0
 72 73  1  0
 73 74  1  0
 72 75  2  0
 67 76  1  0
 76 77  1  0
 77 78  1  0
 78 79  1  0
 79 80  1  0
 80 81  1  0
 81 82  2  0
 82 83  1  0
 83 84  1  0
 81 85  1  0
 85 86  1  0
 86 87  1  0
 87 88  1  0
 88 89  1  0
 89 90  1  0
 90 91  2  0
 91 92  1  0
 92 93  2  0
 93 94  1  0
 94 95  1  0
 95 96  1  0
 94 97  2  0
 89 98  2  0
 98 99  1  0
 99100  1  0
100101  1  0
101102  1  0
102103  1  0
103104  1  0
104105  1  0
105106  1  0
106107  1  0
107108  1  0
105109  1  0
109110  1  0
102111  1  0
111112  1  0
 98113  1  0
113114  2  0
114115  1  0
115116  2  0
116117  1  0
117118  2  0
118119  1  0
119120  2  0
120121  1  0
121122  2  3
122123  1  0
123124  2  0
124125  1  0
125126  2  0
126127  1  0
127128  1  0
128129  1  0
126130  1  0
120131  1  0
116132  1  0
132133  2  0
133134  1  0
134135  1  0
135136  2  0
136137  1  0
137138  2  0
138139  1  0
139140  2  3
140141  1  0
141142  2  0
142143  1  0
143144  2  0
144145  1  0
145146  1  0
146147  1  0
144148  1  0
138149  1  0
134150  2  0
150151  1  0
133152  1  0
152153  2  0
153154  1  0
153155  1  0
155156  2  3
156157  1  0
157158  2  0
157159  1  0
159160  2  0
160161  1  0
161162  2  0
162163  1  0
163164  2  0
164165  1  0
165166  2  3
166167  1  0
167168  3  0
166169  1  0
169170  3  0
162171  1  0
171172  1  0
172173  1  0
173174  2  0
174175  1  0
175176  1  0
175177  1  0
 11  2  1  0
 23 17  1  0
 62 24  1  0
108 66  1  0
151113  1  0
165156  1  0
177171  1  0
 10  5  1  0
 22 18  1  0
 61 26  1  0
 75 68  1  0
107 76  2  0
150115  1  0
164159  1  0
176172  1  0
 23  7  1  0
 42 28  1  0
 65 43  1  0
106 78  2  0
131117  1  0
154132  1  0
177161  1  0
 41 34  1  0
 60 46  1  0
104 79  2  0
130123  1  0
149135  1  0
 59 52  1  0
 84 80  2  0
103 85  2  0
148141  1  0
101 86  2  0
100 88  2  0
 97 90  1  0
  1178  1  0
  6179  1  0
  9180  1  0
 17181  1  0
 18182  1  0
 19183  1  0
 20184  1  0
 21185  1  0
 22186  1  0
 22187  1  0
 23188  1  0
 25189  1  0
 29190  1  0
 30191  1  0
 32192  1  0
 33193  1  0
 35194  1  0
 36195  1  0
 39196  1  0
 39197  1  0
 40198  1  0
 40199  1  0
 40200  1  0
 47201  1  0
 48202  1  0
 50203  1  0
 51204  1  0
 53205  1  0
 54206  1  0
 57207  1  0
 57208  1  0
 58209  1  0
 58210  1  0
 58211  1  0
 63212  1  0
 69213  1  0
 70214  1  0
 71215  1  0
 73216  1  0
 73217  1  0
 74218  1  0
 74219  1  0
 74220  1  0
 75221  1  0
 91222  1  0
 92223  1  0
 93224  1  0
 95225  1  0
 95226  1  0
 96227  1  0
 96228  1  0
 96229  1  0
 97230  1  0
109231  1  0
109232  1  0
110233  1  0
110234  1  0
110235  1  0
111236  1  0
111237  1  0
112238  1  0
112239  1  0
112240  1  0
114241  1  0
118242  1  0
119243  1  0
121244  1  0
122245  1  0
124246  1  0
125247  1  0
128248  1  0
128249  1  0
129250  1  0
129251  1  0
129252  1  0
136253  1  0
137254  1  0
139255  1  0
140256  1  0
142257  1  0
143258  1  0
146259  1  0
146260  1  0
147261  1  0
147262  1  0
147263  1  0
152264  1  0
155265  1  0
160266  1  0
163267  1  0
171268  1  0
172269  1  0
173270  1  0
174271  1  0
175272  1  0
176273  1  0
176274  1  0
177275  1  0
M  END

