
     RDKit          3D

170191  0  0  0  0  0  0  0  0999 V2000
   -0.5163    7.1905    6.4501 C   0  0  0  0  0  0  0  0  0  0  0  0
    0.3138    7.0071    5.3356 C   0  0  0  0  0  0  0  0  0  0  0  0
    0.2920    5.9887    4.3902 C   0  0  0  0  0  0  0  0  0  0  0  0
   -0.5775    5.0939    4.1556 O   0  0  0  0  0  0  0  0  0  0  0  0
    1.5381    6.0869    3.5836 C   0  0  0  0  0  0  0  0  0  0  0  0
    2.0883    5.1294    2.7648 C   0  0  0  0  0  0  0  0  0  0  0  0
    3.4247    5.2132    2.4019 C   0  0  0  0  0  0  0  0  0  0  0  0
    4.1691    6.2630    2.8790 C   0  0  0  0  0  0  0  0  0  0  0  0
    3.5758    7.2667    3.6758 C   0  0  0  0  0  0  0  0  0  0  0  0
    2.2263    7.0949    4.0139 C   0  0  0  0  0  0  0  0  0  0  0  0
    1.4827    7.8281    5.2320 C   0  0  0  0  0  0  0  0  0  0  0  0
    2.3389    8.5241    5.8924 C   0  0  0  0  0  0  0  0  0  0  0  0
    2.5713    8.7925    7.2031 C   0  0  0  0  0  0  0  0  0  0  0  0
    2.7744    9.0211    8.4073 N   0  0  0  0  0  0  0  0  0  0  0  0
    2.6866    9.7261    4.9647 C   0  0  0  0  0  0  0  0  0  0  0  0
    2.9738   10.6676    4.2540 N   0  0  0  0  0  0  0  0  0  0  0  0
    5.3990    5.5977    2.5240 C   0  0  0  0  0  0  0  0  0  0  0  0
    6.2947    6.1778    1.5424 C   0  0  0  0  0  0  0  0  0  0  0  0
    6.9904    5.0069    0.9159 C   0  0  0  0  0  0  0  0  0  0  0  0
    6.1714    4.5523   -0.0386 C   0  0  0  0  0  0  0  0  0  0  0  0
    4.8075    5.1207    0.3084 C   0  0  0  0  0  0  0  0  0  0  0  0
    5.2881    6.5557    0.4720 C   0  0  0  0  0  0  0  0  0  0  0  0
    4.5436    4.6310    1.6709 C   0  0  0  0  0  0  0  0  0  0  0  0
   -1.4633    6.1255    6.5078 C   0  0  0  0  0  0  0  0  0  0  0  0
   -2.7462    5.8334    6.6473 C   0  0  0  0  0  0  0  0  0  0  0  0
   -3.2727    4.6828    6.7773 C   0  0  0  0  0  0  0  0  0  0  0  0
   -4.8970    4.6229    6.6625 C   0  0  0  0  0  0  0  0  0  0  0  0
   -5.2105    4.6542    5.1982 C   0  0  0  0  0  0  0  0  0  0  0  0
   -2.6709    3.5102    6.7531 C   0  0  0  0  0  0  0  0  0  0  0  0
   -0.8139    4.2759    6.5427 Se  0  0  0  0  0  2  0  0  0  0  0  0
   -2.6705    2.1175    6.4164 C   0  0  0  0  0  0  0  0  0  0  0  0
   -2.9846    0.8891    6.8406 C   0  0  0  0  0  0  0  0  0  0  0  0
   -3.2618    0.9148    8.3460 C   0  0  0  0  0  0  0  0  0  0  0  0
   -2.2973    0.9925    9.2619 C   0  0  0  0  0  0  0  0  0  0  0  0
   -2.6179    1.3445   10.5821 C   0  0  0  0  0  0  0  0  0  0  0  0
   -3.8876    1.6089   10.9210 C   0  0  0  0  0  0  0  0  0  0  0  0
   -4.8890    1.5040    9.9313 C   0  0  0  0  0  0  0  0  0  0  0  0
   -6.2587    1.8417   10.3745 C   0  0  0  0  0  0  0  0  0  0  0  0
   -7.2657    2.0742    9.2592 C   0  0  0  0  0  0  0  0  0  0  0  0
   -4.5795    1.1501    8.6445 C   0  0  0  0  0  0  0  0  0  0  0  0
   -2.9733   -0.2181    5.9879 C   0  0  0  0  0  0  0  0  0  0  0  0
   -3.4900   -1.8421    5.9220 S   0  0  0  0  0  0  0  0  0  0  0  0
   -3.2348   -2.1918    4.2716 C   0  0  0  0  0  0  0  0  0  0  0  0
   -3.3742   -3.0294    3.1609 C   0  0  0  0  0  0  0  0  0  0  0  0
   -3.8384   -4.3066    3.0100 C   0  0  0  0  0  0  0  0  0  0  0  0
   -3.8589   -4.9128    1.7712 C   0  0  0  0  0  0  0  0  0  0  0  0
   -4.3644   -6.1876    1.7577 N   0  0  0  0  0  0  0  0  0  0  0  0
   -4.7686   -6.5007    3.3143 S   0  0  0  0  0  0  0  0  0  0  0  0
   -4.3251   -5.0945    4.0168 N   0  0  0  0  0  0  0  0  0  0  0  0
   -3.4467   -4.2065    0.6444 C   0  0  0  0  0  0  0  0  0  0  0  0
   -3.3736   -4.4728   -0.7418 C   0  0  0  0  0  0  0  0  0  0  0  0
   -3.5274   -5.6480   -1.9886 S   0  0  0  0  0  0  0  0  0  0  0  0
   -2.9878   -4.6765   -3.3577 C   0  0  0  0  0  0  0  0  0  0  0  0
   -2.6733   -4.8426   -4.6525 C   0  0  0  0  0  0  0  0  0  0  0  0
   -2.6789   -6.0933   -5.4447 C   0  0  0  0  0  0  0  0  0  0  0  0
   -3.5673   -6.5106   -6.3291 C   0  0  0  0  0  0  0  0  0  0  0  0
   -3.3215   -7.7060   -7.0354 C   0  0  0  0  0  0  0  0  0  0  0  0
   -2.1468   -8.3966   -6.7791 C   0  0  0  0  0  0  0  0  0  0  0  0
   -1.2192   -7.9632   -5.8438 C   0  0  0  0  0  0  0  0  0  0  0  0
    0.0858   -8.6765   -5.5540 C   0  0  0  0  0  0  0  0  0  0  0  0
    1.1871   -8.1000   -6.3754 C   0  0  0  0  0  0  0  0  0  0  0  0
   -1.4736   -6.8213   -5.1740 C   0  0  0  0  0  0  0  0  0  0  0  0
   -2.1004   -3.7988   -5.3162 C   0  0  0  0  0  0  0  0  0  0  0  0
   -2.0488   -2.5897   -4.0386 S   0  0  0  0  0  0  0  0  0  0  0  0
   -2.7367   -3.5362   -2.7685 C   0  0  0  0  0  0  0  0  0  0  0  0
   -2.9384   -3.4015   -1.4012 C   0  0  0  0  0  0  0  0  0  0  0  0
   -2.7262   -2.4016   -0.4310 N   0  0  0  0  0  0  0  0  0  0  0  0
   -2.9966   -2.8774    0.7857 C   0  0  0  0  0  0  0  0  0  0  0  0
   -2.9376   -2.3208    2.0528 C   0  0  0  0  0  0  0  0  0  0  0  0
   -2.5419   -1.1487    2.4592 N   0  0  0  0  0  0  0  0  0  0  0  0
   -2.7375   -0.9537    3.8313 C   0  0  0  0  0  0  0  0  0  0  0  0
   -2.6286    0.0133    4.7266 C   0  0  0  0  0  0  0  0  0  0  0  0
   -2.2998    1.6992    4.7211 S   0  0  0  0  0  0  0  0  0  0  0  0
   -1.4896   -0.2863    1.8184 C   0  0  0  0  0  0  0  0  0  0  0  0
   -0.1484   -0.4168    2.6826 C   0  0  0  0  0  0  0  0  0  0  0  0
   -2.5730   -1.0274   -0.8965 C   0  0  0  0  0  0  0  0  0  0  0  0
   -4.0428   -0.6261   -1.3121 C   0  0  0  0  0  0  0  0  0  0  0  0
   -1.3952   -3.5177   -6.5906 C   0  0  0  0  0  0  0  0  0  0  0  0
   -0.1673   -3.9500   -6.9429 C   0  0  0  0  0  0  0  0  0  0  0  0
    0.4826   -3.2722   -7.9357 C   0  0  0  0  0  0  0  0  0  0  0  0
    2.2066   -3.5696   -8.4043 S   0  0  0  0  0  0  0  0  0  0  0  0
    3.0702   -4.6012   -7.1445 C   0  0  0  0  0  0  0  0  0  0  0  0
    3.1150   -3.8495   -5.8273 C   0  0  0  0  0  0  0  0  0  0  0  0
   -0.1926   -2.2119   -8.4949 C   0  0  0  0  0  0  0  0  0  0  0  0
   -1.6326   -2.2216   -7.6357 S   0  0  0  0  0  0  0  0  0  0  0  0
    0.3513   -1.1489   -9.4322 C   0  0  0  0  0  0  0  0  0  0  0  0
    1.2735   -0.3870   -8.7490 C   0  0  0  0  0  0  0  0  0  0  0  0
    1.5834   -0.6098   -7.3657 C   0  0  0  0  0  0  0  0  0  0  0  0
    1.0119   -1.3103   -6.4740 O   0  0  0  0  0  0  0  0  0  0  0  0
    2.7997    0.1833   -7.0229 C   0  0  0  0  0  0  0  0  0  0  0  0
    3.5935    0.0311   -5.8630 C   0  0  0  0  0  0  0  0  0  0  0  0
    4.8723    0.5746   -5.9128 C   0  0  0  0  0  0  0  0  0  0  0  0
    5.2822    1.2130   -7.0056 C   0  0  0  0  0  0  0  0  0  0  0  0
    4.4596    1.3784   -8.1248 C   0  0  0  0  0  0  0  0  0  0  0  0
    3.1709    0.8251   -8.1279 C   0  0  0  0  0  0  0  0  0  0  0  0
    2.2656    0.5596   -9.2853 C   0  0  0  0  0  0  0  0  0  0  0  0
    2.4214    0.9678  -10.4458 C   0  0  0  0  0  0  0  0  0  0  0  0
    3.5080    2.0349  -10.7202 C   0  0  0  0  0  0  0  0  0  0  0  0
    4.3297    2.8237  -10.9335 N   0  0  0  0  0  0  0  0  0  0  0  0
    1.8839    0.7874  -11.7089 C   0  0  0  0  0  0  0  0  0  0  0  0
    1.3780    0.6281  -12.8658 N   0  0  0  0  0  0  0  0  0  0  0  0
    6.6952    1.2712   -6.4430 C   0  0  0  0  0  0  0  0  0  0  0  0
    7.4514    0.0280   -7.0179 C   0  0  0  0  0  0  0  0  0  0  0  0
    8.6579   -0.1553   -6.2411 C   0  0  0  0  0  0  0  0  0  0  0  0
    8.2680   -0.4991   -4.9931 C   0  0  0  0  0  0  0  0  0  0  0  0
    6.8247   -0.6410   -4.9954 C   0  0  0  0  0  0  0  0  0  0  0  0
    6.5883   -1.1204   -6.4391 C   0  0  0  0  0  0  0  0  0  0  0  0
    6.1408    0.7461   -5.1719 C   0  0  0  0  0  0  0  0  0  0  0  0
   -0.3765    8.0429    7.0562 H   0  0  0  0  0  0  0  0  0  0  0  0
    1.4568    4.3459    2.3947 H   0  0  0  0  0  0  0  0  0  0  0  0
    4.1458    8.1125    3.9587 H   0  0  0  0  0  0  0  0  0  0  0  0
    5.8678    5.0344    3.3955 H   0  0  0  0  0  0  0  0  0  0  0  0
    6.9691    6.9697    1.8431 H   0  0  0  0  0  0  0  0  0  0  0  0
    7.9368    4.6165    1.2323 H   0  0  0  0  0  0  0  0  0  0  0  0
    6.3972    3.9168   -0.8626 H   0  0  0  0  0  0  0  0  0  0  0  0
    4.0567    5.0193   -0.4715 H   0  0  0  0  0  0  0  0  0  0  0  0
    4.4922    7.2602    0.8443 H   0  0  0  0  0  0  0  0  0  0  0  0
    5.8225    6.8984   -0.4324 H   0  0  0  0  0  0  0  0  0  0  0  0
    4.7901    3.5879    1.9015 H   0  0  0  0  0  0  0  0  0  0  0  0
   -3.3705    6.8153    6.6296 H   0  0  0  0  0  0  0  0  0  0  0  0
   -5.2781    5.5015    7.1770 H   0  0  0  0  0  0  0  0  0  0  0  0
   -5.2184    3.7527    7.2015 H   0  0  0  0  0  0  0  0  0  0  0  0
   -5.2401    5.6571    4.7815 H   0  0  0  0  0  0  0  0  0  0  0  0
   -4.4319    4.0422    4.6226 H   0  0  0  0  0  0  0  0  0  0  0  0
   -6.1992    4.1033    5.1396 H   0  0  0  0  0  0  0  0  0  0  0  0
   -1.2671    0.8000    9.0103 H   0  0  0  0  0  0  0  0  0  0  0  0
   -1.8128    1.4152   11.3457 H   0  0  0  0  0  0  0  0  0  0  0  0
   -4.2012    1.8971   11.9488 H   0  0  0  0  0  0  0  0  0  0  0  0
   -6.1339    2.9313   10.8177 H   0  0  0  0  0  0  0  0  0  0  0  0
   -6.6691    1.2282   11.1754 H   0  0  0  0  0  0  0  0  0  0  0  0
   -6.7977    2.2383    8.3033 H   0  0  0  0  0  0  0  0  0  0  0  0
   -7.8799    1.0986    9.2664 H   0  0  0  0  0  0  0  0  0  0  0  0
   -7.9706    2.8493    9.5383 H   0  0  0  0  0  0  0  0  0  0  0  0
   -5.3576    1.1155    7.8582 H   0  0  0  0  0  0  0  0  0  0  0  0
   -4.4615   -5.9314   -6.5132 H   0  0  0  0  0  0  0  0  0  0  0  0
   -4.0218   -8.0832   -7.7893 H   0  0  0  0  0  0  0  0  0  0  0  0
   -1.9046   -9.3091   -7.3281 H   0  0  0  0  0  0  0  0  0  0  0  0
    0.2942   -8.6296   -4.4542 H   0  0  0  0  0  0  0  0  0  0  0  0
   -0.0785   -9.7120   -5.8342 H   0  0  0  0  0  0  0  0  0  0  0  0
    0.8926   -7.0509   -6.7522 H   0  0  0  0  0  0  0  0  0  0  0  0
    1.3106   -8.6308   -7.3721 H   0  0  0  0  0  0  0  0  0  0  0  0
    2.1911   -8.0431   -5.9043 H   0  0  0  0  0  0  0  0  0  0  0  0
   -0.7990   -6.3988   -4.4500 H   0  0  0  0  0  0  0  0  0  0  0  0
   -1.7129    0.7467    1.9240 H   0  0  0  0  0  0  0  0  0  0  0  0
   -1.0873   -0.7393    0.9192 H   0  0  0  0  0  0  0  0  0  0  0  0
    0.2802   -1.4213    2.5762 H   0  0  0  0  0  0  0  0  0  0  0  0
    0.5217    0.4271    2.4309 H   0  0  0  0  0  0  0  0  0  0  0  0
   -0.4675   -0.3520    3.7169 H   0  0  0  0  0  0  0  0  0  0  0  0
   -2.0253   -1.0234   -1.8709 H   0  0  0  0  0  0  0  0  0  0  0  0
   -2.3234   -0.2383   -0.3084 H   0  0  0  0  0  0  0  0  0  0  0  0
   -3.9307    0.1278   -2.0818 H   0  0  0  0  0  0  0  0  0  0  0  0
   -4.5727   -0.2751   -0.4319 H   0  0  0  0  0  0  0  0  0  0  0  0
   -4.5693   -1.5174   -1.7080 H   0  0  0  0  0  0  0  0  0  0  0  0
    0.2917   -4.8255   -6.4230 H   0  0  0  0  0  0  0  0  0  0  0  0
    2.5786   -5.5523   -7.0841 H   0  0  0  0  0  0  0  0  0  0  0  0
    4.0998   -4.7262   -7.5576 H   0  0  0  0  0  0  0  0  0  0  0  0
    2.1846   -3.9984   -5.2666 H   0  0  0  0  0  0  0  0  0  0  0  0
    4.0314   -4.1781   -5.2428 H   0  0  0  0  0  0  0  0  0  0  0  0
    3.1698   -2.7325   -6.0833 H   0  0  0  0  0  0  0  0  0  0  0  0
    0.0207   -1.0686  -10.3959 H   0  0  0  0  0  0  0  0  0  0  0  0
    3.1554   -0.4960   -5.0189 H   0  0  0  0  0  0  0  0  0  0  0  0
    4.8905    1.9216   -8.8940 H   0  0  0  0  0  0  0  0  0  0  0  0
    7.1917    2.2054   -6.5212 H   0  0  0  0  0  0  0  0  0  0  0  0
    7.5224    0.0426   -8.0837 H   0  0  0  0  0  0  0  0  0  0  0  0
    9.7089   -0.0630   -6.5615 H   0  0  0  0  0  0  0  0  0  0  0  0
    8.9474   -0.6568   -4.1681 H   0  0  0  0  0  0  0  0  0  0  0  0
    6.3492   -1.2738   -4.2864 H   0  0  0  0  0  0  0  0  0  0  0  0
    7.0895   -2.0838   -6.6558 H   0  0  0  0  0  0  0  0  0  0  0  0
    5.5741   -1.1026   -6.7375 H   0  0  0  0  0  0  0  0  0  0  0  0
    6.1139    1.3601   -4.2647 H   0  0  0  0  0  0  0  0  0  0  0  0
  1  2  2  3
  2  3  1  0
  3  4  2  0
  3  5  1  0
  5  6  2  0
  6  7  1  0
  7  8  2  0
  8  9  1  0
  9 10  2  0
 10 11  1  0
 11 12  2  3
 12 13  1  0
 13 14  3  0
 12 15  1  0
 15 16  3  0
  8 17  1  0
 17 18  1  0
 18 19  1  0
 19 20  2  0
 20 21  1  0
 21 22  1  0
 21 23  1  0
  1 24  1  0
 24 25  2  0
 25 26  1  0
 26 27  1  0
 27 28  1  0
 26 29  2  0
 29 30  1  0
 29 31  1  0
 31 32  2  0
 32 33  1  0
 33 34  2  0
 34 35  1  0
 35 36  2  0
 36 37  1  0
 37 38  1  0
 38 39  1  0
 37 40  2  0
 32 41  1  0
 41 42  1  0
 42 43  1  0
 43 44  1  0
 44 45  1  0
 45 46  1  0
 46 47  2  0
 47 48  1  0
 48 49  1  0
 46 50  1  0
 50 51  1  0
 51 52  1  0
 52 53  1  0
 53 54  1  0
 54 55  1  0
 55 56  2  0
 56 57  1  0
 57 58  2  0
 58 59  1  0
 59 60  1  0
 60 61  1  0
 59 62  2  0
 54 63  2  0
 63 64  1  0
 64 65  1  0
 65 66  1  0
 66 67  1  0
 67 68  1  0
 68 69  1  0
 69 70  1  0
 70 71  1  0
 71 72  1  0
 72 73  1  0
 70 74  1  0
 74 75  1  0
 67 76  1  0
 76 77  1  0
 63 78  1  0
 78 79  2  0
 79 80  1  0
 80 81  1  0
 81 82  1  0
 82 83  1  0
 80 84  2  0
 84 85  1  0
 84 86  1  0
 86 87  2  3
 87 88  1  0
 88 89  2  0
 88 90  1  0
 90 91  2  0
 91 92  1  0
 92 93  2  0
 93 94  1  0
 94 95  2  0
 95 96  1  0
 96 97  2  3
 97 98  1  0
 98 99  3  0
 97100  1  0
100101  3  0
 93102  1  0
102103  1  0
103104  1  0
104105  2  0
105106  1  0
106107  1  0
106108  1  0
 11  2  1  0
 23 17  1  0
 30 24  1  0
 73 31  1  0
 85 78  1  0
 96 87  1  0
108102  1  0
 10  5  1  0
 22 18  1  0
 40 33  1  0
 72 41  2  0
 95 90  1  0
107103  1  0
 23  7  1  0
 71 43  2  0
108 92  1  0
 69 44  2  0
 49 45  2  0
 68 50  2  0
 66 51  2  0
 65 53  2  0
 62 55  1  0
  1109  1  0
  6110  1  0
  9111  1  0
 17112  1  0
 18113  1  0
 19114  1  0
 20115  1  0
 21116  1  0
 22117  1  0
 22118  1  0
 23119  1  0
 25120  1  0
 27121  1  0
 27122  1  0
 28123  1  0
 28124  1  0
 28125  1  0
 34126  1  0
 35127  1  0
 36128  1  0
 38129  1  0
 38130  1  0
 39131  1  0
 39132  1  0
 39133  1  0
 40134  1  0
 56135  1  0
 57136  1  0
 58137  1  0
 60138  1  0
 60139  1  0
 61140  1  0
 61141  1  0
 61142  1  0
 62143  1  0
 74144  1  0
 74145  1  0
 75146  1  0
 75147  1  0
 75148  1  0
 76149  1  0
 76150  1  0
 77151  1  0
 77152  1  0
 77153  1  0
 79154  1  0
 82155  1  0
 82156  1  0
 83157  1  0
 83158  1  0
 83159  1  0
 86160  1  0
 91161  1  0
 94162  1  0
102163  1  0
103164  1  0
104165  1  0
105166  1  0
106167  1  0
107168  1  0
107169  1  0
108170  1  0
M  END

