
     RDKit          3D

229256  0  0  0  0  0  0  0  0999 V2000
    7.8217   -1.5437   -2.7037 C   0  0  0  0  0  0  0  0  0  0  0  0
    7.9923   -2.7487   -2.1440 C   0  0  0  0  0  0  0  0  0  0  0  0
    8.6971   -3.0027   -0.8787 C   0  0  0  0  0  0  0  0  0  0  0  0
    9.4523   -2.2026   -0.2666 O   0  0  0  0  0  0  0  0  0  0  0  0
    8.4290   -4.3588   -0.4637 C   0  0  0  0  0  0  0  0  0  0  0  0
    8.8228   -4.9703    0.7484 C   0  0  0  0  0  0  0  0  0  0  0  0
    8.3145   -6.2419    0.9205 C   0  0  0  0  0  0  0  0  0  0  0  0
    7.4538   -6.8796   -0.0344 C   0  0  0  0  0  0  0  0  0  0  0  0
    7.0655   -6.2833   -1.2221 C   0  0  0  0  0  0  0  0  0  0  0  0
    7.6115   -4.9848   -1.4414 C   0  0  0  0  0  0  0  0  0  0  0  0
    7.4110   -4.0561   -2.5857 C   0  0  0  0  0  0  0  0  0  0  0  0
    6.9721   -4.3922   -3.8356 C   0  0  0  0  0  0  0  0  0  0  0  0
    6.9066   -3.4584   -4.9285 C   0  0  0  0  0  0  0  0  0  0  0  0
    6.8340   -2.7220   -5.8157 N   0  0  0  0  0  0  0  0  0  0  0  0
    6.6365   -5.7441   -4.1962 C   0  0  0  0  0  0  0  0  0  0  0  0
    6.3707   -6.8303   -4.4948 N   0  0  0  0  0  0  0  0  0  0  0  0
    7.3484   -8.0863    0.8464 C   0  0  0  0  0  0  0  0  0  0  0  0
    6.0191   -8.3011    1.6310 C   0  0  0  0  0  0  0  0  0  0  0  0
    5.3853   -6.9702    1.9576 C   0  0  0  0  0  0  0  0  0  0  0  0
    6.1880   -6.3774    2.8420 C   0  0  0  0  0  0  0  0  0  0  0  0
    7.3361   -7.3250    3.0977 C   0  0  0  0  0  0  0  0  0  0  0  0
    6.5827   -8.6418    3.0012 C   0  0  0  0  0  0  0  0  0  0  0  0
    8.2267   -7.4362    1.8245 C   0  0  0  0  0  0  0  0  0  0  0  0
    8.2540   -0.2914   -2.0689 C   0  0  0  0  0  0  0  0  0  0  0  0
    8.8251    0.7948   -2.7383 C   0  0  0  0  0  0  0  0  0  0  0  0
    9.4816    0.6861   -4.0674 C   0  0  0  0  0  0  0  0  0  0  0  0
    9.7383    1.7314   -4.9582 C   0  0  0  0  0  0  0  0  0  0  0  0
   10.3356    1.3147   -6.1576 C   0  0  0  0  0  0  0  0  0  0  0  0
   10.5689   -0.0572   -6.2088 C   0  0  0  0  0  0  0  0  0  0  0  0
   11.0895   -0.8249   -7.3841 C   0  0  0  0  0  0  0  0  0  0  0  0
    9.9565   -1.1271   -8.3597 C   0  0  0  0  0  0  0  0  0  0  0  0
   10.0235   -0.7422   -4.7786 S   0  0  0  0  0  0  0  0  0  0  0  0
    8.6269    2.0181   -2.0657 C   0  0  0  0  0  0  0  0  0  0  0  0
    7.9149    1.9066   -0.8691 C   0  0  0  0  0  0  0  0  0  0  0  0
    7.4911    0.2924   -0.6975 S   0  0  0  0  0  0  0  0  0  0  0  0
    7.0309    2.9618   -0.3661 C   0  0  0  0  0  0  0  0  0  0  0  0
    6.9972    3.5429    0.9226 C   0  0  0  0  0  0  0  0  0  0  0  0
    8.0215    3.3750    1.9714 C   0  0  0  0  0  0  0  0  0  0  0  0
    8.4436    2.0973    2.3787 C   0  0  0  0  0  0  0  0  0  0  0  0
    9.4138    1.9595    3.3763 C   0  0  0  0  0  0  0  0  0  0  0  0
    9.9611    3.0907    3.9844 C   0  0  0  0  0  0  0  0  0  0  0  0
    9.5455    4.3729    3.5945 C   0  0  0  0  0  0  0  0  0  0  0  0
   10.1177    5.5898    4.2737 C   0  0  0  0  0  0  0  0  0  0  0  0
    9.3828    5.8629    5.5823 C   0  0  0  0  0  0  0  0  0  0  0  0
    8.5767    4.5091    2.5878 C   0  0  0  0  0  0  0  0  0  0  0  0
    5.8588    4.3450    1.0723 C   0  0  0  0  0  0  0  0  0  0  0  0
    5.1239    5.1509    2.3962 S   0  0  0  0  0  0  0  0  0  0  0  0
    3.7570    5.5493    1.4532 C   0  0  0  0  0  0  0  0  0  0  0  0
    2.4393    5.8944    1.6492 C   0  0  0  0  0  0  0  0  0  0  0  0
    1.6975    6.1848    2.8070 C   0  0  0  0  0  0  0  0  0  0  0  0
    0.2658    6.2452    2.7163 C   0  0  0  0  0  0  0  0  0  0  0  0
   -0.4094    6.5033    3.8621 N   0  0  0  0  0  0  0  0  0  0  0  0
    0.8640    6.6281    4.9190 S   0  0  0  0  0  0  0  0  0  0  0  0
    2.2420    6.3775    4.0345 N   0  0  0  0  0  0  0  0  0  0  0  0
   -0.3387    6.0763    1.4591 C   0  0  0  0  0  0  0  0  0  0  0  0
   -1.6478    6.0648    1.0466 C   0  0  0  0  0  0  0  0  0  0  0  0
   -3.0941    5.5451    1.7514 S   0  0  0  0  0  0  0  0  0  0  0  0
   -3.7114    5.0003    0.2552 C   0  0  0  0  0  0  0  0  0  0  0  0
   -4.6407    3.9815    0.0110 C   0  0  0  0  0  0  0  0  0  0  0  0
   -5.8156    3.8033    0.8883 C   0  0  0  0  0  0  0  0  0  0  0  0
   -6.6423    4.9248    1.0984 C   0  0  0  0  0  0  0  0  0  0  0  0
   -7.7389    4.8455    1.9566 C   0  0  0  0  0  0  0  0  0  0  0  0
   -8.0276    3.6510    2.6138 C   0  0  0  0  0  0  0  0  0  0  0  0
   -7.2158    2.5219    2.4180 C   0  0  0  0  0  0  0  0  0  0  0  0
   -7.5500    1.2433    3.1370 C   0  0  0  0  0  0  0  0  0  0  0  0
   -8.9034    0.6974    2.6733 C   0  0  0  0  0  0  0  0  0  0  0  0
   -6.0931    2.6032    1.5675 C   0  0  0  0  0  0  0  0  0  0  0  0
   -4.3571    3.2871   -1.1923 C   0  0  0  0  0  0  0  0  0  0  0  0
   -3.0093    4.0331   -1.9189 S   0  0  0  0  0  0  0  0  0  0  0  0
   -2.7848    5.1957   -0.7415 C   0  0  0  0  0  0  0  0  0  0  0  0
   -1.6263    5.8095   -0.2972 C   0  0  0  0  0  0  0  0  0  0  0  0
   -0.3763    5.7014   -0.7895 N   0  0  0  0  0  0  0  0  0  0  0  0
    0.4144    5.8055    0.3155 C   0  0  0  0  0  0  0  0  0  0  0  0
    1.8040    5.6098    0.4285 C   0  0  0  0  0  0  0  0  0  0  0  0
    2.6453    4.9515   -0.4310 N   0  0  0  0  0  0  0  0  0  0  0  0
    3.8429    5.0287    0.1979 C   0  0  0  0  0  0  0  0  0  0  0  0
    5.0302    4.3550   -0.0118 C   0  0  0  0  0  0  0  0  0  0  0  0
    5.6456    3.4135   -1.2411 S   0  0  0  0  0  0  0  0  0  0  0  0
    2.2690    3.8113   -1.2803 C   0  0  0  0  0  0  0  0  0  0  0  0
    2.1857    2.5144   -0.4636 C   0  0  0  0  0  0  0  0  0  0  0  0
   -0.0167    6.0661   -2.1672 C   0  0  0  0  0  0  0  0  0  0  0  0
   -0.4349    7.4990   -2.4766 C   0  0  0  0  0  0  0  0  0  0  0  0
   -4.6867    1.8659   -1.4546 C   0  0  0  0  0  0  0  0  0  0  0  0
   -3.7165    0.8393   -1.4796 C   0  0  0  0  0  0  0  0  0  0  0  0
   -2.3171    1.0184   -1.7509 N   0  0  0  0  0  0  0  0  0  0  0  0
   -1.8914    1.2554   -3.1179 C   0  0  0  0  0  0  0  0  0  0  0  0
   -0.6551    1.8782   -3.3836 C   0  0  0  0  0  0  0  0  0  0  0  0
   -0.2256    2.0820   -4.6949 C   0  0  0  0  0  0  0  0  0  0  0  0
   -1.0185    1.6692   -5.7743 C   0  0  0  0  0  0  0  0  0  0  0  0
   -0.5311    1.8264   -7.1834 C   0  0  0  0  0  0  0  0  0  0  0  0
   -2.2558    1.0605   -5.5227 C   0  0  0  0  0  0  0  0  0  0  0  0
   -2.6885    0.8593   -4.2107 C   0  0  0  0  0  0  0  0  0  0  0  0
   -1.3631    0.6303   -0.7405 C   0  0  0  0  0  0  0  0  0  0  0  0
   -0.3062   -0.2490   -1.0467 C   0  0  0  0  0  0  0  0  0  0  0  0
    0.6186   -0.6187   -0.0681 C   0  0  0  0  0  0  0  0  0  0  0  0
    0.5115   -0.1165    1.2364 C   0  0  0  0  0  0  0  0  0  0  0  0
    1.5273   -0.4992    2.2743 C   0  0  0  0  0  0  0  0  0  0  0  0
   -0.5713    0.7161    1.5653 C   0  0  0  0  0  0  0  0  0  0  0  0
   -1.5012    1.0923    0.5832 C   0  0  0  0  0  0  0  0  0  0  0  0
   -4.2796   -0.4101   -1.3097 C   0  0  0  0  0  0  0  0  0  0  0  0
   -3.6206   -1.9049   -0.9480 S   0  0  0  0  0  0  0  0  0  0  0  0
   -5.1309   -2.6203   -0.6493 C   0  0  0  0  0  0  0  0  0  0  0  0
   -6.1591   -1.6799   -0.8705 C   0  0  0  0  0  0  0  0  0  0  0  0
   -7.5314   -2.0525   -1.0807 N   0  0  0  0  0  0  0  0  0  0  0  0
   -8.3075   -2.6307   -0.0043 C   0  0  0  0  0  0  0  0  0  0  0  0
   -9.2750   -3.6286   -0.2542 C   0  0  0  0  0  0  0  0  0  0  0  0
   -9.9582   -4.2364    0.8074 C   0  0  0  0  0  0  0  0  0  0  0  0
   -9.6542   -3.8994    2.1318 C   0  0  0  0  0  0  0  0  0  0  0  0
  -10.3699   -4.5798    3.2645 C   0  0  0  0  0  0  0  0  0  0  0  0
   -8.7051   -2.8987    2.3862 C   0  0  0  0  0  0  0  0  0  0  0  0
   -8.0558   -2.2619    1.3217 C   0  0  0  0  0  0  0  0  0  0  0  0
   -7.9530   -2.1812   -2.4536 C   0  0  0  0  0  0  0  0  0  0  0  0
   -7.2163   -2.9869   -3.3368 C   0  0  0  0  0  0  0  0  0  0  0  0
   -7.5953   -3.0998   -4.6767 C   0  0  0  0  0  0  0  0  0  0  0  0
   -8.7163   -2.4127   -5.1542 C   0  0  0  0  0  0  0  0  0  0  0  0
   -9.0866   -2.5050   -6.6068 C   0  0  0  0  0  0  0  0  0  0  0  0
   -9.4503   -1.5987   -4.2746 C   0  0  0  0  0  0  0  0  0  0  0  0
   -9.0720   -1.4829   -2.9281 C   0  0  0  0  0  0  0  0  0  0  0  0
   -5.6303   -0.4380   -1.2197 C   0  0  0  0  0  0  0  0  0  0  0  0
   -6.2296    1.1310   -1.2929 S   0  0  0  0  0  0  0  0  0  0  0  0
   -5.2704   -3.8094    0.1988 C   0  0  0  0  0  0  0  0  0  0  0  0
   -5.2259   -3.7184    1.5436 C   0  0  0  0  0  0  0  0  0  0  0  0
   -4.9459   -2.4866    2.3105 C   0  0  0  0  0  0  0  0  0  0  0  0
   -4.7379   -1.3355    1.8478 O   0  0  0  0  0  0  0  0  0  0  0  0
   -4.7950   -2.8248    3.7039 C   0  0  0  0  0  0  0  0  0  0  0  0
   -4.4947   -1.9395    4.7583 C   0  0  0  0  0  0  0  0  0  0  0  0
   -4.2360   -2.5749    5.9516 C   0  0  0  0  0  0  0  0  0  0  0  0
   -4.2552   -4.0002    6.1096 C   0  0  0  0  0  0  0  0  0  0  0  0
   -4.5876   -4.8711    5.0780 C   0  0  0  0  0  0  0  0  0  0  0  0
   -4.9082   -4.2304    3.8487 C   0  0  0  0  0  0  0  0  0  0  0  0
   -5.3274   -4.8246    2.5469 C   0  0  0  0  0  0  0  0  0  0  0  0
   -5.9369   -6.0281    2.3763 C   0  0  0  0  0  0  0  0  0  0  0  0
   -6.1496   -6.9433    3.4635 C   0  0  0  0  0  0  0  0  0  0  0  0
   -6.3240   -7.6888    4.3339 N   0  0  0  0  0  0  0  0  0  0  0  0
   -6.5718   -6.4015    1.1376 C   0  0  0  0  0  0  0  0  0  0  0  0
   -7.0845   -6.7141    0.1461 N   0  0  0  0  0  0  0  0  0  0  0  0
   -3.8087   -3.8616    7.5341 C   0  0  0  0  0  0  0  0  0  0  0  0
   -2.3137   -4.1696    7.8767 C   0  0  0  0  0  0  0  0  0  0  0  0
   -1.4265   -3.8369    6.7002 C   0  0  0  0  0  0  0  0  0  0  0  0
   -1.4478   -2.5062    6.5707 C   0  0  0  0  0  0  0  0  0  0  0  0
   -2.3502   -1.9818    7.6612 C   0  0  0  0  0  0  0  0  0  0  0  0
   -2.0015   -2.9736    8.7547 C   0  0  0  0  0  0  0  0  0  0  0  0
   -3.8247   -2.4012    7.3812 C   0  0  0  0  0  0  0  0  0  0  0  0
    7.2524   -1.4197   -3.6061 H   0  0  0  0  0  0  0  0  0  0  0  0
    9.4334   -4.4731    1.4937 H   0  0  0  0  0  0  0  0  0  0  0  0
    6.3723   -6.7767   -1.8818 H   0  0  0  0  0  0  0  0  0  0  0  0
    7.7849   -9.0096    0.4017 H   0  0  0  0  0  0  0  0  0  0  0  0
    5.3313   -9.0571    1.2008 H   0  0  0  0  0  0  0  0  0  0  0  0
    4.4248   -6.5984    1.6150 H   0  0  0  0  0  0  0  0  0  0  0  0
    5.9952   -5.4308    3.3328 H   0  0  0  0  0  0  0  0  0  0  0  0
    7.8792   -7.1505    4.0493 H   0  0  0  0  0  0  0  0  0  0  0  0
    5.7993   -8.7602    3.7864 H   0  0  0  0  0  0  0  0  0  0  0  0
    7.2524   -9.5365    3.0020 H   0  0  0  0  0  0  0  0  0  0  0  0
    9.1961   -7.9657    1.9764 H   0  0  0  0  0  0  0  0  0  0  0  0
    9.4917    2.7696   -4.7652 H   0  0  0  0  0  0  0  0  0  0  0  0
   10.5734    1.9888   -6.9676 H   0  0  0  0  0  0  0  0  0  0  0  0
   11.8834   -0.2457   -7.8942 H   0  0  0  0  0  0  0  0  0  0  0  0
   11.5333   -1.7840   -7.0411 H   0  0  0  0  0  0  0  0  0  0  0  0
    9.5410   -0.1770   -8.7582 H   0  0  0  0  0  0  0  0  0  0  0  0
   10.3331   -1.7365   -9.2132 H   0  0  0  0  0  0  0  0  0  0  0  0
    9.1498   -1.6978   -7.8498 H   0  0  0  0  0  0  0  0  0  0  0  0
    8.9044    2.9757   -2.4872 H   0  0  0  0  0  0  0  0  0  0  0  0
    8.0110    1.2107    1.9422 H   0  0  0  0  0  0  0  0  0  0  0  0
    9.7265    0.9725    3.6907 H   0  0  0  0  0  0  0  0  0  0  0  0
   10.6976    2.9706    4.7711 H   0  0  0  0  0  0  0  0  0  0  0  0
   10.0343    6.4785    3.6055 H   0  0  0  0  0  0  0  0  0  0  0  0
   11.1987    5.4346    4.4863 H   0  0  0  0  0  0  0  0  0  0  0  0
    9.7533    6.8090    6.0281 H   0  0  0  0  0  0  0  0  0  0  0  0
    8.2930    5.9568    5.4087 H   0  0  0  0  0  0  0  0  0  0  0  0
    9.5637    5.0322    6.2996 H   0  0  0  0  0  0  0  0  0  0  0  0
    8.2501    5.4984    2.2911 H   0  0  0  0  0  0  0  0  0  0  0  0
   -6.4280    5.8669    0.6012 H   0  0  0  0  0  0  0  0  0  0  0  0
   -8.3622    5.7150    2.1147 H   0  0  0  0  0  0  0  0  0  0  0  0
   -8.8851    3.6147    3.2760 H   0  0  0  0  0  0  0  0  0  0  0  0
   -7.5975    1.4339    4.2312 H   0  0  0  0  0  0  0  0  0  0  0  0
   -6.7704    0.4705    2.9679 H   0  0  0  0  0  0  0  0  0  0  0  0
   -8.8849    0.5072    1.5750 H   0  0  0  0  0  0  0  0  0  0  0  0
   -9.1281   -0.2490    3.2077 H   0  0  0  0  0  0  0  0  0  0  0  0
   -9.7186    1.4139    2.8988 H   0  0  0  0  0  0  0  0  0  0  0  0
   -5.4329    1.7526    1.4530 H   0  0  0  0  0  0  0  0  0  0  0  0
    1.2787    3.9490   -1.7401 H   0  0  0  0  0  0  0  0  0  0  0  0
    2.9980    3.6858   -2.1044 H   0  0  0  0  0  0  0  0  0  0  0  0
    3.1725    2.2543   -0.0244 H   0  0  0  0  0  0  0  0  0  0  0  0
    1.4417    2.6294    0.3539 H   0  0  0  0  0  0  0  0  0  0  0  0
    1.8791    1.6853   -1.1333 H   0  0  0  0  0  0  0  0  0  0  0  0
   -0.5036    5.3771   -2.8855 H   0  0  0  0  0  0  0  0  0  0  0  0
    1.0767    6.0212   -2.3182 H   0  0  0  0  0  0  0  0  0  0  0  0
    0.0106    8.1954   -1.7350 H   0  0  0  0  0  0  0  0  0  0  0  0
   -0.0728    7.7819   -3.4878 H   0  0  0  0  0  0  0  0  0  0  0  0
   -1.5402    7.5945   -2.4550 H   0  0  0  0  0  0  0  0  0  0  0  0
   -0.0268    2.2005   -2.5676 H   0  0  0  0  0  0  0  0  0  0  0  0
    0.7386    2.5479   -4.8716 H   0  0  0  0  0  0  0  0  0  0  0  0
    0.1920    2.6683   -7.2550 H   0  0  0  0  0  0  0  0  0  0  0  0
   -0.0271    0.8901   -7.5025 H   0  0  0  0  0  0  0  0  0  0  0  0
   -1.3751    2.0353   -7.8747 H   0  0  0  0  0  0  0  0  0  0  0  0
   -2.8766    0.7289   -6.3491 H   0  0  0  0  0  0  0  0  0  0  0  0
   -3.6469    0.3792   -4.0553 H   0  0  0  0  0  0  0  0  0  0  0  0
   -0.1981   -0.6474   -2.0485 H   0  0  0  0  0  0  0  0  0  0  0  0
    1.4328   -1.2802   -0.3338 H   0  0  0  0  0  0  0  0  0  0  0  0
    1.1973   -1.4141    2.8071 H   0  0  0  0  0  0  0  0  0  0  0  0
    1.6573    0.3246    3.0045 H   0  0  0  0  0  0  0  0  0  0  0  0
    2.5156   -0.6914    1.8012 H   0  0  0  0  0  0  0  0  0  0  0  0
   -0.6852    1.0836    2.5754 H   0  0  0  0  0  0  0  0  0  0  0  0
   -2.3243    1.7410    0.8551 H   0  0  0  0  0  0  0  0  0  0  0  0
   -9.5087   -3.9361   -1.2664 H   0  0  0  0  0  0  0  0  0  0  0  0
  -10.6973   -5.0044    0.5980 H   0  0  0  0  0  0  0  0  0  0  0  0
  -10.2530   -5.6816    3.1775 H   0  0  0  0  0  0  0  0  0  0  0  0
  -11.4486   -4.3215    3.2352 H   0  0  0  0  0  0  0  0  0  0  0  0
   -9.9647   -4.2669    4.2516 H   0  0  0  0  0  0  0  0  0  0  0  0
   -8.4614   -2.6140    3.4051 H   0  0  0  0  0  0  0  0  0  0  0  0
   -7.3524   -1.4786    1.5440 H   0  0  0  0  0  0  0  0  0  0  0  0
   -6.3504   -3.5357   -2.9901 H   0  0  0  0  0  0  0  0  0  0  0  0
   -7.0058   -3.7196   -5.3458 H   0  0  0  0  0  0  0  0  0  0  0  0
   -8.9936   -3.5548   -6.9622 H   0  0  0  0  0  0  0  0  0  0  0  0
   -8.3980   -1.8652   -7.2022 H   0  0  0  0  0  0  0  0  0  0  0  0
  -10.1332   -2.1711   -6.7809 H   0  0  0  0  0  0  0  0  0  0  0  0
  -10.3051   -1.0392   -4.6307 H   0  0  0  0  0  0  0  0  0  0  0  0
   -9.6400   -0.8404   -2.2644 H   0  0  0  0  0  0  0  0  0  0  0  0
   -5.3350   -4.7554   -0.3068 H   0  0  0  0  0  0  0  0  0  0  0  0
   -4.4265   -0.8659    4.6323 H   0  0  0  0  0  0  0  0  0  0  0  0
   -4.5361   -5.9424    5.2182 H   0  0  0  0  0  0  0  0  0  0  0  0
   -4.5457   -4.2457    8.2739 H   0  0  0  0  0  0  0  0  0  0  0  0
   -2.1336   -5.1638    8.3335 H   0  0  0  0  0  0  0  0  0  0  0  0
   -0.8219   -4.5233    6.1111 H   0  0  0  0  0  0  0  0  0  0  0  0
   -0.8557   -1.9260    5.8704 H   0  0  0  0  0  0  0  0  0  0  0  0
   -2.1987   -0.9141    7.9144 H   0  0  0  0  0  0  0  0  0  0  0  0
   -0.9351   -2.9259    9.0723 H   0  0  0  0  0  0  0  0  0  0  0  0
   -2.6605   -2.8990    9.6550 H   0  0  0  0  0  0  0  0  0  0  0  0
   -4.5871   -1.8943    8.0145 H   0  0  0  0  0  0  0  0  0  0  0  0
  1  2  2  3
  2  3  1  0
  3  4  2  0
  3  5  1  0
  5  6  2  0
  6  7  1  0
  7  8  2  0
  8  9  1  0
  9 10  2  0
 10 11  1  0
 11 12  2  3
 12 13  1  0
 13 14  3  0
 12 15  1  0
 15 16  3  0
  8 17  1  0
 17 18  1  0
 18 19  1  0
 19 20  2  0
 20 21  1  0
 21 22  1  0
 21 23  1  0
  1 24  1  0
 24 25  2  0
 25 26  1  0
 26 27  2  0
 27 28  1  0
 28 29  2  0
 29 30  1  0
 30 31  1  0
 29 32  1  0
 25 33  1  0
 33 34  2  0
 34 35  1  0
 34 36  1  0
 36 37  2  0
 37 38  1  0
 38 39  2  0
 39 40  1  0
 40 41  2  0
 41 42  1  0
 42 43  1  0
 43 44  1  0
 42 45  2  0
 37 46  1  0
 46 47  1  0
 47 48  1  0
 48 49  1  0
 49 50  1  0
 50 51  1  0
 51 52  2  0
 52 53  1  0
 53 54  1  0
 51 55  1  0
 55 56  1  0
 56 57  1  0
 57 58  1  0
 58 59  1  0
 59 60  1  0
 60 61  2  0
 61 62  1  0
 62 63  2  0
 63 64  1  0
 64 65  1  0
 65 66  1  0
 64 67  2  0
 59 68  2  0
 68 69  1  0
 69 70  1  0
 70 71  1  0
 71 72  1  0
 72 73  1  0
 73 74  1  0
 74 75  1  0
 75 76  1  0
 76 77  1  0
 77 78  1  0
 75 79  1  0
 79 80  1  0
 72 81  1  0
 81 82  1  0
 68 83  1  0
 83 84  2  0
 84 85  1  0
 85 86  1  0
 86 87  2  0
 87 88  1  0
 88 89  2  0
 89 90  1  0
 89 91  1  0
 91 92  2  0
 85 93  1  0
 93 94  2  0
 94 95  1  0
 95 96  2  0
 96 97  1  0
 96 98  1  0
 98 99  2  0
 84100  1  0
100101  1  0
101102  1  0
102103  2  0
103104  1  0
104105  1  0
105106  2  0
106107  1  0
107108  2  0
108109  1  0
108110  1  0
110111  2  0
104112  1  0
112113  2  0
113114  1  0
114115  2  0
115116  1  0
115117  1  0
117118  2  0
103119  1  0
119120  1  0
102121  1  0
121122  2  3
122123  1  0
123124  2  0
123125  1  0
125126  2  0
126127  1  0
127128  2  0
128129  1  0
129130  2  0
130131  1  0
131132  2  3
132133  1  0
133134  3  0
132135  1  0
135136  3  0
128137  1  0
137138  1  0
138139  1  0
139140  2  0
140141  1  0
141142  1  0
141143  1  0
 11  2  1  0
 23 17  1  0
 35 24  1  0
 78 36  1  0
120 83  1  0
131122  1  0
143137  1  0
 10  5  1  0
 22 18  1  0
 32 26  1  0
 45 38  1  0
 77 46  2  0
 92 86  1  0
 99 93  1  0
119100  2  0
130125  1  0
142138  1  0
 23  7  1  0
 76 48  2  0
111105  1  0
118112  1  0
143127  1  0
 74 49  2  0
 54 50  2  0
 73 55  2  0
 71 56  2  0
 70 58  2  0
 67 60  1  0
  1144  1  0
  6145  1  0
  9146  1  0
 17147  1  0
 18148  1  0
 19149  1  0
 20150  1  0
 21151  1  0
 22152  1  0
 22153  1  0
 23154  1  0
 27155  1  0
 28156  1  0
 30157  1  0
 30158  1  0
 31159  1  0
 31160  1  0
 31161  1  0
 33162  1  0
 39163  1  0
 40164  1  0
 41165  1  0
 43166  1  0
 43167  1  0
 44168  1  0
 44169  1  0
 44170  1  0
 45171  1  0
 61172  1  0
 62173  1  0
 63174  1  0
 65175  1  0
 65176  1  0
 66177  1  0
 66178  1  0
 66179  1  0
 67180  1  0
 79181  1  0
 79182  1  0
 80183  1  0
 80184  1  0
 80185  1  0
 81186  1  0
 81187  1  0
 82188  1  0
 82189  1  0
 82190  1  0
 87191  1  0
 88192  1  0
 90193  1  0
 90194  1  0
 90195  1  0
 91196  1  0
 92197  1  0
 94198  1  0
 95199  1  0
 97200  1  0
 97201  1  0
 97202  1  0
 98203  1  0
 99204  1  0
106205  1  0
107206  1  0
109207  1  0
109208  1  0
109209  1  0
110210  1  0
111211  1  0
113212  1  0
114213  1  0
116214  1  0
116215  1  0
116216  1  0
117217  1  0
118218  1  0
121219  1  0
126220  1  0
129221  1  0
137222  1  0
138223  1  0
139224  1  0
140225  1  0
141226  1  0
142227  1  0
142228  1  0
143229  1  0
M  END

