
     RDKit          3D

204229  0  0  0  0  0  0  0  0999 V2000
    1.3374   -2.6317    8.8716 C   0  0  0  0  0  0  0  0  0  0  0  0
    2.0215   -3.4103    8.1036 C   0  0  0  0  0  0  0  0  0  0  0  0
    2.7827   -4.5652    8.6394 C   0  0  0  0  0  0  0  0  0  0  0  0
    3.0198   -4.8439    9.8635 O   0  0  0  0  0  0  0  0  0  0  0  0
    3.2415   -5.3586    7.5290 C   0  0  0  0  0  0  0  0  0  0  0  0
    4.0127   -6.5023    7.5110 C   0  0  0  0  0  0  0  0  0  0  0  0
    4.3813   -7.1120    6.3261 C   0  0  0  0  0  0  0  0  0  0  0  0
    3.9616   -6.5557    5.1445 C   0  0  0  0  0  0  0  0  0  0  0  0
    3.1689   -5.3757    5.1527 C   0  0  0  0  0  0  0  0  0  0  0  0
    2.8339   -4.8002    6.3531 C   0  0  0  0  0  0  0  0  0  0  0  0
    2.0439   -3.5075    6.6848 C   0  0  0  0  0  0  0  0  0  0  0  0
    2.0717   -2.6360    5.7495 C   0  0  0  0  0  0  0  0  0  0  0  0
    2.0504   -2.8050    4.3728 C   0  0  0  0  0  0  0  0  0  0  0  0
    2.0457   -2.9667    3.1683 N   0  0  0  0  0  0  0  0  0  0  0  0
    2.7674   -1.2839    6.0521 C   0  0  0  0  0  0  0  0  0  0  0  0
    3.2622   -0.2982    6.2768 N   0  0  0  0  0  0  0  0  0  0  0  0
    4.6071   -7.5839    4.3295 C   0  0  0  0  0  0  0  0  0  0  0  0
    5.8851   -7.1421    3.6207 C   0  0  0  0  0  0  0  0  0  0  0  0
    6.6122   -8.3514    3.2647 C   0  0  0  0  0  0  0  0  0  0  0  0
    7.0869   -8.8621    4.4114 C   0  0  0  0  0  0  0  0  0  0  0  0
    6.5977   -8.0627    5.5423 C   0  0  0  0  0  0  0  0  0  0  0  0
    6.6614   -6.6829    4.8781 C   0  0  0  0  0  0  0  0  0  0  0  0
    5.0971   -8.1955    5.6531 C   0  0  0  0  0  0  0  0  0  0  0  0
    0.5372   -1.5047    8.5712 C   0  0  0  0  0  0  0  0  0  0  0  0
   -0.0196   -0.5293    9.2949 C   0  0  0  0  0  0  0  0  0  0  0  0
   -0.8308    0.4004    8.7752 C   0  0  0  0  0  0  0  0  0  0  0  0
   -1.5675    1.3918    9.7138 C   0  0  0  0  0  0  0  0  0  0  0  0
   -2.9480    0.7593    9.9685 C   0  0  0  0  0  0  0  0  0  0  0  0
   -1.1395    0.4308    7.4595 C   0  0  0  0  0  0  0  0  0  0  0  0
   -0.2145   -1.0467    6.8163 Se  0  0  0  0  0  2  0  0  0  0  0  0
   -1.8845    1.3565    6.6198 C   0  0  0  0  0  0  0  0  0  0  0  0
   -3.1437    1.6135    6.2599 C   0  0  0  0  0  0  0  0  0  0  0  0
   -4.2208    0.6914    6.7336 C   0  0  0  0  0  0  0  0  0  0  0  0
   -5.3196    1.0892    7.4108 C   0  0  0  0  0  0  0  0  0  0  0  0
   -6.2912    0.1577    7.8305 C   0  0  0  0  0  0  0  0  0  0  0  0
   -6.0782   -1.1936    7.5239 C   0  0  0  0  0  0  0  0  0  0  0  0
   -4.9742   -1.5783    6.8450 C   0  0  0  0  0  0  0  0  0  0  0  0
   -4.7718   -3.0489    6.5431 C   0  0  0  0  0  0  0  0  0  0  0  0
   -5.3391   -3.3536    5.1809 C   0  0  0  0  0  0  0  0  0  0  0  0
   -4.0383   -0.6601    6.4419 C   0  0  0  0  0  0  0  0  0  0  0  0
   -3.3453    2.6053    5.3170 C   0  0  0  0  0  0  0  0  0  0  0  0
   -4.6613    3.3467    4.4229 S   0  0  0  0  0  0  0  0  0  0  0  0
   -3.7522    4.4081    3.4415 C   0  0  0  0  0  0  0  0  0  0  0  0
   -3.7992    5.2691    2.3171 C   0  0  0  0  0  0  0  0  0  0  0  0
   -4.8538    5.6633    1.5143 C   0  0  0  0  0  0  0  0  0  0  0  0
   -4.5904    6.3183    0.3675 C   0  0  0  0  0  0  0  0  0  0  0  0
   -5.6343    6.6650   -0.3865 N   0  0  0  0  0  0  0  0  0  0  0  0
   -6.9723    6.0910    0.4797 S   0  0  0  0  0  0  0  0  0  0  0  0
   -6.1466    5.4295    1.7790 N   0  0  0  0  0  0  0  0  0  0  0  0
   -3.2652    6.5531    0.0710 C   0  0  0  0  0  0  0  0  0  0  0  0
   -2.6788    6.8782   -1.1825 C   0  0  0  0  0  0  0  0  0  0  0  0
   -3.0415    7.1793   -2.8467 S   0  0  0  0  0  0  0  0  0  0  0  0
   -1.4060    7.0506   -3.4425 C   0  0  0  0  0  0  0  0  0  0  0  0
   -0.8281    6.8417   -4.7057 C   0  0  0  0  0  0  0  0  0  0  0  0
   -1.4257    7.3464   -5.9449 C   0  0  0  0  0  0  0  0  0  0  0  0
   -2.5047    6.8629   -6.5966 C   0  0  0  0  0  0  0  0  0  0  0  0
   -2.9848    7.4733   -7.7683 C   0  0  0  0  0  0  0  0  0  0  0  0
   -2.3626    8.6043   -8.3136 C   0  0  0  0  0  0  0  0  0  0  0  0
   -1.2720    9.0859   -7.6454 C   0  0  0  0  0  0  0  0  0  0  0  0
   -0.5521   10.3182   -8.1136 C   0  0  0  0  0  0  0  0  0  0  0  0
   -1.0646   11.5393   -7.4127 C   0  0  0  0  0  0  0  0  0  0  0  0
   -0.8242    8.4886   -6.5225 C   0  0  0  0  0  0  0  0  0  0  0  0
    0.4170    6.3660   -4.7287 C   0  0  0  0  0  0  0  0  0  0  0  0
    0.8090    6.2699   -3.0275 S   0  0  0  0  0  0  0  0  0  0  0  0
   -0.7229    6.8119   -2.3772 C   0  0  0  0  0  0  0  0  0  0  0  0
   -1.3860    6.7154   -1.1447 C   0  0  0  0  0  0  0  0  0  0  0  0
   -1.0698    6.3094    0.1597 N   0  0  0  0  0  0  0  0  0  0  0  0
   -2.1833    6.2016    0.8544 C   0  0  0  0  0  0  0  0  0  0  0  0
   -2.4540    5.5086    2.0742 C   0  0  0  0  0  0  0  0  0  0  0  0
   -1.6606    4.8950    2.9560 N   0  0  0  0  0  0  0  0  0  0  0  0
   -2.4826    4.1764    3.8321 C   0  0  0  0  0  0  0  0  0  0  0  0
   -2.3083    3.2443    4.8038 C   0  0  0  0  0  0  0  0  0  0  0  0
   -0.9960    2.4646    5.6734 S   0  0  0  0  0  0  0  0  0  0  0  0
   -0.2373    4.8576    3.1316 C   0  0  0  0  0  0  0  0  0  0  0  0
    0.4455    3.6609    2.5085 C   0  0  0  0  0  0  0  0  0  0  0  0
    0.3145    6.2269    0.5192 C   0  0  0  0  0  0  0  0  0  0  0  0
    0.7275    7.7098    0.8679 C   0  0  0  0  0  0  0  0  0  0  0  0
    1.0370    5.3138   -5.6644 C   0  0  0  0  0  0  0  0  0  0  0  0
    0.0240    4.1915   -6.5241 S   0  0  0  0  0  0  0  0  0  0  0  0
    1.0835    2.8758   -6.5559 C   0  0  0  0  0  0  0  0  0  0  0  0
    0.9677    1.5006   -7.0776 C   0  0  0  0  0  0  0  0  0  0  0  0
    1.9958    0.6170   -7.0063 C   0  0  0  0  0  0  0  0  0  0  0  0
    3.1480    1.1950   -6.4354 O   0  0  0  0  0  0  0  0  0  0  0  0
    3.1353    2.1837   -5.5092 C   0  0  0  0  0  0  0  0  0  0  0  0
    4.2852    2.5151   -4.7321 C   0  0  0  0  0  0  0  0  0  0  0  0
    5.5552    2.0008   -5.0376 C   0  0  0  0  0  0  0  0  0  0  0  0
    6.6547    2.2190   -4.1639 C   0  0  0  0  0  0  0  0  0  0  0  0
    6.4842    2.9333   -2.9991 C   0  0  0  0  0  0  0  0  0  0  0  0
    7.5921    3.1220   -1.9983 C   0  0  0  0  0  0  0  0  0  0  0  0
    7.3543    1.9885   -0.9518 C   0  0  0  0  0  0  0  0  0  0  0  0
    5.2230    3.4185   -2.7339 C   0  0  0  0  0  0  0  0  0  0  0  0
    4.1445    3.2332   -3.5609 C   0  0  0  0  0  0  0  0  0  0  0  0
    2.3015    1.4951   -4.3333 C   0  0  0  0  0  0  0  0  0  0  0  0
    2.6203    0.2214   -3.9893 C   0  0  0  0  0  0  0  0  0  0  0  0
    1.8718   -0.3811   -2.9587 C   0  0  0  0  0  0  0  0  0  0  0  0
    0.8844    0.3093   -2.3577 C   0  0  0  0  0  0  0  0  0  0  0  0
   -0.0279   -0.3360   -1.3476 C   0  0  0  0  0  0  0  0  0  0  0  0
   -1.3721   -0.5966   -2.0705 C   0  0  0  0  0  0  0  0  0  0  0  0
    0.5583    1.6099   -2.6994 C   0  0  0  0  0  0  0  0  0  0  0  0
    1.3174    2.1878   -3.7284 C   0  0  0  0  0  0  0  0  0  0  0  0
    2.2169    3.3358   -5.9190 C   0  0  0  0  0  0  0  0  0  0  0  0
    2.1804    4.6225   -5.4666 C   0  0  0  0  0  0  0  0  0  0  0  0
    1.7326   -0.6542   -7.4391 C   0  0  0  0  0  0  0  0  0  0  0  0
    0.4725   -0.9407   -7.8721 C   0  0  0  0  0  0  0  0  0  0  0  0
   -0.3413    0.5778   -7.7061 S   0  0  0  0  0  0  0  0  0  0  0  0
   -0.1849   -2.2744   -8.1200 C   0  0  0  0  0  0  0  0  0  0  0  0
   -0.0575   -3.1868   -7.1229 C   0  0  0  0  0  0  0  0  0  0  0  0
    0.6437   -2.9727   -5.8969 C   0  0  0  0  0  0  0  0  0  0  0  0
    1.2213   -1.9759   -5.4586 O   0  0  0  0  0  0  0  0  0  0  0  0
    0.5978   -4.2089   -5.0898 C   0  0  0  0  0  0  0  0  0  0  0  0
    1.0090   -4.4513   -3.8048 C   0  0  0  0  0  0  0  0  0  0  0  0
    0.7403   -5.6207   -3.1797 C   0  0  0  0  0  0  0  0  0  0  0  0
    0.0371   -6.5654   -3.8313 C   0  0  0  0  0  0  0  0  0  0  0  0
   -0.4003   -6.3402   -5.1510 C   0  0  0  0  0  0  0  0  0  0  0  0
   -0.1130   -5.1441   -5.8078 C   0  0  0  0  0  0  0  0  0  0  0  0
   -0.5748   -4.5530   -7.1329 C   0  0  0  0  0  0  0  0  0  0  0  0
   -1.5925   -5.0681   -7.7850 C   0  0  0  0  0  0  0  0  0  0  0  0
   -1.8083   -6.5388   -7.6179 C   0  0  0  0  0  0  0  0  0  0  0  0
   -1.9597   -7.6684   -7.5019 N   0  0  0  0  0  0  0  0  0  0  0  0
   -2.6566   -4.4386   -8.3007 C   0  0  0  0  0  0  0  0  0  0  0  0
   -3.6895   -3.8126   -8.8133 N   0  0  0  0  0  0  0  0  0  0  0  0
   -0.0215   -7.4116   -2.5979 C   0  0  0  0  0  0  0  0  0  0  0  0
   -1.3488   -7.1653   -1.9098 C   0  0  0  0  0  0  0  0  0  0  0  0
   -1.2532   -7.6323   -0.4972 C   0  0  0  0  0  0  0  0  0  0  0  0
   -0.3843   -6.8634    0.1139 C   0  0  0  0  0  0  0  0  0  0  0  0
    0.0325   -5.8098   -0.8065 C   0  0  0  0  0  0  0  0  0  0  0  0
   -1.2622   -5.6551   -1.6263 C   0  0  0  0  0  0  0  0  0  0  0  0
    0.8830   -6.4222   -1.9107 C   0  0  0  0  0  0  0  0  0  0  0  0
    1.3683   -2.8602    9.9880 H   0  0  0  0  0  0  0  0  0  0  0  0
    4.3332   -6.9305    8.4751 H   0  0  0  0  0  0  0  0  0  0  0  0
    2.8589   -5.0028    4.2050 H   0  0  0  0  0  0  0  0  0  0  0  0
    4.0092   -8.2388    3.7128 H   0  0  0  0  0  0  0  0  0  0  0  0
    5.7520   -6.3594    2.8764 H   0  0  0  0  0  0  0  0  0  0  0  0
    6.7439   -8.8268    2.3205 H   0  0  0  0  0  0  0  0  0  0  0  0
    7.7673   -9.7229    4.4843 H   0  0  0  0  0  0  0  0  0  0  0  0
    7.1980   -8.1182    6.4505 H   0  0  0  0  0  0  0  0  0  0  0  0
    6.1408   -5.9583    5.4923 H   0  0  0  0  0  0  0  0  0  0  0  0
    7.7145   -6.4073    4.6209 H   0  0  0  0  0  0  0  0  0  0  0  0
    4.7391   -9.2394    5.7764 H   0  0  0  0  0  0  0  0  0  0  0  0
    0.2326   -0.5283   10.4046 H   0  0  0  0  0  0  0  0  0  0  0  0
   -1.0145    1.5200   10.6556 H   0  0  0  0  0  0  0  0  0  0  0  0
   -1.6948    2.3286    9.2009 H   0  0  0  0  0  0  0  0  0  0  0  0
   -3.7513    1.5039    9.9916 H   0  0  0  0  0  0  0  0  0  0  0  0
   -3.0636   -0.0543    9.2250 H   0  0  0  0  0  0  0  0  0  0  0  0
   -2.8793    0.2194   10.9433 H   0  0  0  0  0  0  0  0  0  0  0  0
   -5.5067    2.1197    7.6340 H   0  0  0  0  0  0  0  0  0  0  0  0
   -7.1570    0.4319    8.3675 H   0  0  0  0  0  0  0  0  0  0  0  0
   -6.8304   -1.9262    7.8616 H   0  0  0  0  0  0  0  0  0  0  0  0
   -5.4118   -3.6639    7.2591 H   0  0  0  0  0  0  0  0  0  0  0  0
   -3.7152   -3.2731    6.5537 H   0  0  0  0  0  0  0  0  0  0  0  0
   -4.7564   -4.2477    4.7643 H   0  0  0  0  0  0  0  0  0  0  0  0
   -6.3919   -3.6468    5.1693 H   0  0  0  0  0  0  0  0  0  0  0  0
   -5.1104   -2.5211    4.4412 H   0  0  0  0  0  0  0  0  0  0  0  0
   -3.1450   -0.9194    5.8972 H   0  0  0  0  0  0  0  0  0  0  0  0
   -2.9718    5.9803   -6.1551 H   0  0  0  0  0  0  0  0  0  0  0  0
   -3.8281    7.0747   -8.2500 H   0  0  0  0  0  0  0  0  0  0  0  0
   -2.7737    9.0424   -9.1922 H   0  0  0  0  0  0  0  0  0  0  0  0
   -0.7196   10.4445   -9.2241 H   0  0  0  0  0  0  0  0  0  0  0  0
    0.5506   10.2690   -7.9939 H   0  0  0  0  0  0  0  0  0  0  0  0
   -0.3065   11.8599   -6.6421 H   0  0  0  0  0  0  0  0  0  0  0  0
   -1.3748   12.3752   -8.0465 H   0  0  0  0  0  0  0  0  0  0  0  0
   -1.9519   11.2002   -6.8090 H   0  0  0  0  0  0  0  0  0  0  0  0
    0.0483    8.8597   -5.9673 H   0  0  0  0  0  0  0  0  0  0  0  0
   -0.0464    4.6439    4.2684 H   0  0  0  0  0  0  0  0  0  0  0  0
    0.2752    5.8291    3.1025 H   0  0  0  0  0  0  0  0  0  0  0  0
    1.5690    3.7511    2.4606 H   0  0  0  0  0  0  0  0  0  0  0  0
    0.2812    2.7136    3.0455 H   0  0  0  0  0  0  0  0  0  0  0  0
    0.0017    3.5181    1.5068 H   0  0  0  0  0  0  0  0  0  0  0  0
    0.7549    5.6454    1.1859 H   0  0  0  0  0  0  0  0  0  0  0  0
    0.9860    6.0961   -0.4362 H   0  0  0  0  0  0  0  0  0  0  0  0
   -0.0349    8.1932    1.4781 H   0  0  0  0  0  0  0  0  0  0  0  0
    0.8514    8.2792   -0.0985 H   0  0  0  0  0  0  0  0  0  0  0  0
    1.6669    7.6215    1.4056 H   0  0  0  0  0  0  0  0  0  0  0  0
    5.7567    1.4515   -5.9412 H   0  0  0  0  0  0  0  0  0  0  0  0
    7.6296    1.8322   -4.3592 H   0  0  0  0  0  0  0  0  0  0  0  0
    8.6017    3.1121   -2.4007 H   0  0  0  0  0  0  0  0  0  0  0  0
    7.3969    4.0929   -1.4393 H   0  0  0  0  0  0  0  0  0  0  0  0
    6.3046    1.8811   -0.7050 H   0  0  0  0  0  0  0  0  0  0  0  0
    7.6992    1.0211   -1.3247 H   0  0  0  0  0  0  0  0  0  0  0  0
    7.8796    2.2200   -0.0001 H   0  0  0  0  0  0  0  0  0  0  0  0
    5.0705    3.9591   -1.8274 H   0  0  0  0  0  0  0  0  0  0  0  0
    3.2011    3.6636   -3.2257 H   0  0  0  0  0  0  0  0  0  0  0  0
    3.3950   -0.3287   -4.4447 H   0  0  0  0  0  0  0  0  0  0  0  0
    2.1188   -1.3990   -2.6831 H   0  0  0  0  0  0  0  0  0  0  0  0
    0.3962   -1.3472   -1.1657 H   0  0  0  0  0  0  0  0  0  0  0  0
   -0.1917    0.2999   -0.5262 H   0  0  0  0  0  0  0  0  0  0  0  0
   -1.5606   -1.6744   -2.0033 H   0  0  0  0  0  0  0  0  0  0  0  0
   -2.1974   -0.0130   -1.6664 H   0  0  0  0  0  0  0  0  0  0  0  0
   -1.2216   -0.4027   -3.1758 H   0  0  0  0  0  0  0  0  0  0  0  0
   -0.2141    2.1740   -2.2342 H   0  0  0  0  0  0  0  0  0  0  0  0
    1.0585    3.1708   -3.9630 H   0  0  0  0  0  0  0  0  0  0  0  0
    3.0665    5.0712   -4.9823 H   0  0  0  0  0  0  0  0  0  0  0  0
    2.5514   -1.4218   -7.4670 H   0  0  0  0  0  0  0  0  0  0  0  0
   -0.7034   -2.5035   -8.9810 H   0  0  0  0  0  0  0  0  0  0  0  0
    1.5981   -3.6669   -3.2735 H   0  0  0  0  0  0  0  0  0  0  0  0
   -0.9290   -7.1697   -5.5837 H   0  0  0  0  0  0  0  0  0  0  0  0
    0.3382   -8.4078   -2.6982 H   0  0  0  0  0  0  0  0  0  0  0  0
   -2.2285   -7.4294   -2.4431 H   0  0  0  0  0  0  0  0  0  0  0  0
   -1.7985   -8.4147    0.0390 H   0  0  0  0  0  0  0  0  0  0  0  0
   -0.0063   -6.9771    1.1189 H   0  0  0  0  0  0  0  0  0  0  0  0
    0.3706   -4.8736   -0.4179 H   0  0  0  0  0  0  0  0  0  0  0  0
   -1.0812   -5.0925   -2.5619 H   0  0  0  0  0  0  0  0  0  0  0  0
   -2.1035   -5.3147   -1.0426 H   0  0  0  0  0  0  0  0  0  0  0  0
    1.8685   -6.7373   -1.6313 H   0  0  0  0  0  0  0  0  0  0  0  0
  1  2  2  3
  2  3  1  0
  3  4  2  0
  3  5  1  0
  5  6  2  0
  6  7  1  0
  7  8  2  0
  8  9  1  0
  9 10  2  0
 10 11  1  0
 11 12  2  3
 12 13  1  0
 13 14  3  0
 12 15  1  0
 15 16  3  0
  8 17  1  0
 17 18  1  0
 18 19  1  0
 19 20  2  0
 20 21  1  0
 21 22  1  0
 21 23  1  0
  1 24  1  0
 24 25  2  0
 25 26  1  0
 26 27  1  0
 27 28  1  0
 26 29  2  0
 29 30  1  0
 29 31  1  0
 31 32  2  0
 32 33  1  0
 33 34  2  0
 34 35  1  0
 35 36  2  0
 36 37  1  0
 37 38  1  0
 38 39  1  0
 37 40  2  0
 32 41  1  0
 41 42  1  0
 42 43  1  0
 43 44  1  0
 44 45  1  0
 45 46  1  0
 46 47  2  0
 47 48  1  0
 48 49  1  0
 46 50  1  0
 50 51  1  0
 51 52  1  0
 52 53  1  0
 53 54  1  0
 54 55  1  0
 55 56  2  0
 56 57  1  0
 57 58  2  0
 58 59  1  0
 59 60  1  0
 60 61  1  0
 59 62  2  0
 54 63  2  0
 63 64  1  0
 64 65  1  0
 65 66  1  0
 66 67  1  0
 67 68  1  0
 68 69  1  0
 69 70  1  0
 70 71  1  0
 71 72  1  0
 72 73  1  0
 70 74  1  0
 74 75  1  0
 67 76  1  0
 76 77  1  0
 63 78  1  0
 78 79  1  0
 79 80  1  0
 80 81  1  0
 81 82  2  0
 82 83  1  0
 83 84  1  0
 84 85  1  0
 85 86  2  0
 86 87  1  0
 87 88  2  0
 88 89  1  0
 89 90  1  0
 88 91  1  0
 91 92  2  0
 84 93  1  0
 93 94  2  0
 94 95  1  0
 95 96  2  0
 96 97  1  0
 97 98  1  0
 96 99  1  0
 99100  2  0
 84101  1  0
101102  1  0
 82103  1  0
103104  2  0
104105  1  0
104106  1  0
106107  2  3
107108  1  0
108109  2  0
108110  1  0
110111  2  0
111112  1  0
112113  2  0
113114  1  0
114115  2  0
115116  1  0
116117  2  3
117118  1  0
118119  3  0
117120  1  0
120121  3  0
113122  1  0
122123  1  0
123124  1  0
124125  2  0
125126  1  0
126127  1  0
126128  1  0
 11  2  1  0
 23 17  1  0
 30 24  1  0
 73 31  1  0
102 78  2  0
116107  1  0
128122  1  0
 10  5  1  0
 22 18  1  0
 40 33  1  0
 72 41  2  0
101 80  2  0
115110  1  0
127123  1  0
 23  7  1  0
 71 43  2  0
105 81  1  0
128112  1  0
 69 44  2  0
 92 85  1  0
100 93  1  0
 49 45  2  0
 68 50  2  0
 66 51  2  0
 65 53  2  0
 62 55  1  0
  1129  1  0
  6130  1  0
  9131  1  0
 17132  1  0
 18133  1  0
 19134  1  0
 20135  1  0
 21136  1  0
 22137  1  0
 22138  1  0
 23139  1  0
 25140  1  0
 27141  1  0
 27142  1  0
 28143  1  0
 28144  1  0
 28145  1  0
 34146  1  0
 35147  1  0
 36148  1  0
 38149  1  0
 38150  1  0
 39151  1  0
 39152  1  0
 39153  1  0
 40154  1  0
 56155  1  0
 57156  1  0
 58157  1  0
 60158  1  0
 60159  1  0
 61160  1  0
 61161  1  0
 61162  1  0
 62163  1  0
 74164  1  0
 74165  1  0
 75166  1  0
 75167  1  0
 75168  1  0
 76169  1  0
 76170  1  0
 77171  1  0
 77172  1  0
 77173  1  0
 86174  1  0
 87175  1  0
 89176  1  0
 89177  1  0
 90178  1  0
 90179  1  0
 90180  1  0
 91181  1  0
 92182  1  0
 94183  1  0
 95184  1  0
 97185  1  0
 97186  1  0
 98187  1  0
 98188  1  0
 98189  1  0
 99190  1  0
100191  1  0
102192  1  0
103193  1  0
106194  1  0
111195  1  0
114196  1  0
122197  1  0
123198  1  0
124199  1  0
125200  1  0
126201  1  0
127202  1  0
127203  1  0
128204  1  0
M  END

