
     RDKit          3D

175197  0  0  0  0  0  0  0  0999 V2000
   -8.7154   -0.6355   -4.5057 C   0  0  0  0  0  0  0  0  0  0  0  0
   -9.2955    0.4020   -4.0751 C   0  0  0  0  0  0  0  0  0  0  0  0
   -9.3597    1.7204   -3.6796 C   0  0  0  0  0  0  0  0  0  0  0  0
   -8.2473    2.4726   -3.7263 O   0  0  0  0  0  0  0  0  0  0  0  0
  -10.5982    2.2539   -3.2280 C   0  0  0  0  0  0  0  0  0  0  0  0
  -10.9297    3.5081   -2.7422 C   0  0  0  0  0  0  0  0  0  0  0  0
  -12.1953    3.7590   -2.3203 C   0  0  0  0  0  0  0  0  0  0  0  0
  -13.1574    2.8001   -2.3815 C   0  0  0  0  0  0  0  0  0  0  0  0
  -12.7891    1.5359   -2.8711 C   0  0  0  0  0  0  0  0  0  0  0  0
  -11.5262    1.2445   -3.2914 C   0  0  0  0  0  0  0  0  0  0  0  0
  -10.8887   -0.0382   -3.7850 C   0  0  0  0  0  0  0  0  0  0  0  0
  -11.1437   -1.1478   -3.2536 C   0  0  0  0  0  0  0  0  0  0  0  0
  -10.2407   -2.1566   -2.8212 C   0  0  0  0  0  0  0  0  0  0  0  0
   -9.4559   -3.0516   -2.4455 N   0  0  0  0  0  0  0  0  0  0  0  0
  -12.5599   -1.5003   -3.0597 C   0  0  0  0  0  0  0  0  0  0  0  0
  -13.7026   -1.7959   -2.9087 N   0  0  0  0  0  0  0  0  0  0  0  0
  -14.1411    3.8124   -1.9150 C   0  0  0  0  0  0  0  0  0  0  0  0
  -14.7794    4.5847   -3.0676 C   0  0  0  0  0  0  0  0  0  0  0  0
  -13.7198    4.8328   -4.0508 C   0  0  0  0  0  0  0  0  0  0  0  0
  -12.9535    5.8620   -3.6897 C   0  0  0  0  0  0  0  0  0  0  0  0
  -13.2910    6.0608   -2.2522 C   0  0  0  0  0  0  0  0  0  0  0  0
  -14.8290    5.9849   -2.3952 C   0  0  0  0  0  0  0  0  0  0  0  0
  -13.0217    4.7766   -1.5780 C   0  0  0  0  0  0  0  0  0  0  0  0
   -7.3018   -0.6791   -4.8570 C   0  0  0  0  0  0  0  0  0  0  0  0
   -6.2257   -1.3664   -4.5699 C   0  0  0  0  0  0  0  0  0  0  0  0
   -4.9943   -1.0620   -4.9795 C   0  0  0  0  0  0  0  0  0  0  0  0
   -3.8023   -1.9982   -4.7001 C   0  0  0  0  0  0  0  0  0  0  0  0
   -3.6515   -2.8636   -5.9618 C   0  0  0  0  0  0  0  0  0  0  0  0
   -4.7580    0.0340   -5.7490 C   0  0  0  0  0  0  0  0  0  0  0  0
   -6.5194    0.7442   -5.9562 Se  0  0  0  0  0  2  0  0  0  0  0  0
   -3.4681    0.6270   -6.0164 C   0  0  0  0  0  0  0  0  0  0  0  0
   -2.4938    0.7017   -6.8792 C   0  0  0  0  0  0  0  0  0  0  0  0
   -2.6393    0.0805   -8.2251 C   0  0  0  0  0  0  0  0  0  0  0  0
   -2.0630   -1.1697   -8.4547 C   0  0  0  0  0  0  0  0  0  0  0  0
   -2.2114   -1.8090   -9.6650 C   0  0  0  0  0  0  0  0  0  0  0  0
   -2.9189   -1.2619  -10.6924 C   0  0  0  0  0  0  0  0  0  0  0  0
   -3.4964   -0.0207  -10.4828 C   0  0  0  0  0  0  0  0  0  0  0  0
   -4.2879    0.6144  -11.5588 C   0  0  0  0  0  0  0  0  0  0  0  0
   -5.7650    0.2869  -11.4254 C   0  0  0  0  0  0  0  0  0  0  0  0
   -3.3488    0.6398   -9.2415 C   0  0  0  0  0  0  0  0  0  0  0  0
   -1.3099    1.3353   -6.5018 C   0  0  0  0  0  0  0  0  0  0  0  0
    0.3201    1.5821   -7.0884 S   0  0  0  0  0  0  0  0  0  0  0  0
    1.0027    2.3087   -5.7061 C   0  0  0  0  0  0  0  0  0  0  0  0
    2.2099    2.7007   -5.0827 C   0  0  0  0  0  0  0  0  0  0  0  0
    3.5030    2.5611   -5.5485 C   0  0  0  0  0  0  0  0  0  0  0  0
    4.5133    2.6936   -4.6350 C   0  0  0  0  0  0  0  0  0  0  0  0
    5.7547    2.5560   -5.1019 N   0  0  0  0  0  0  0  0  0  0  0  0
    5.5562    2.2549   -6.7391 S   0  0  0  0  0  0  0  0  0  0  0  0
    3.8851    2.3098   -6.8081 N   0  0  0  0  0  0  0  0  0  0  0  0
    4.1708    2.9604   -3.3067 C   0  0  0  0  0  0  0  0  0  0  0  0
    4.9404    2.8415   -2.1289 C   0  0  0  0  0  0  0  0  0  0  0  0
    6.4822    2.3503   -1.5267 S   0  0  0  0  0  0  0  0  0  0  0  0
    6.0384    2.2485    0.1665 C   0  0  0  0  0  0  0  0  0  0  0  0
    6.5883    1.7295    1.2990 C   0  0  0  0  0  0  0  0  0  0  0  0
    8.0022    1.3612    1.4981 C   0  0  0  0  0  0  0  0  0  0  0  0
    8.5432    0.1538    1.0243 C   0  0  0  0  0  0  0  0  0  0  0  0
    9.8807   -0.1211    1.2629 C   0  0  0  0  0  0  0  0  0  0  0  0
   10.7208    0.7374    1.9522 C   0  0  0  0  0  0  0  0  0  0  0  0
   10.1846    1.9389    2.4292 C   0  0  0  0  0  0  0  0  0  0  0  0
   11.0852    2.8719    3.1713 C   0  0  0  0  0  0  0  0  0  0  0  0
   11.0768    2.5809    4.6514 C   0  0  0  0  0  0  0  0  0  0  0  0
    8.8692    2.1815    2.1744 C   0  0  0  0  0  0  0  0  0  0  0  0
    5.7326    1.6029    2.3768 C   0  0  0  0  0  0  0  0  0  0  0  0
    4.2863    2.2194    1.7922 S   0  0  0  0  0  0  0  0  0  0  0  0
    4.7731    2.6086    0.1441 C   0  0  0  0  0  0  0  0  0  0  0  0
    4.1773    2.9274   -1.0475 C   0  0  0  0  0  0  0  0  0  0  0  0
    2.8751    3.1375   -1.5245 N   0  0  0  0  0  0  0  0  0  0  0  0
    2.8886    3.1274   -2.8646 C   0  0  0  0  0  0  0  0  0  0  0  0
    1.8174    2.9880   -3.7907 C   0  0  0  0  0  0  0  0  0  0  0  0
    0.5175    2.8169   -3.6260 N   0  0  0  0  0  0  0  0  0  0  0  0
   -0.0010    2.3628   -4.8490 C   0  0  0  0  0  0  0  0  0  0  0  0
   -1.2210    1.8366   -5.2979 C   0  0  0  0  0  0  0  0  0  0  0  0
   -2.7683    1.4644   -4.6268 S   0  0  0  0  0  0  0  0  0  0  0  0
   -0.3732    3.0087   -2.5076 C   0  0  0  0  0  0  0  0  0  0  0  0
   -0.6584    1.7764   -1.6822 C   0  0  0  0  0  0  0  0  0  0  0  0
    1.8573    3.5455   -0.6187 C   0  0  0  0  0  0  0  0  0  0  0  0
    1.9078    5.1259   -0.6262 C   0  0  0  0  0  0  0  0  0  0  0  0
    5.8939    0.6856    3.5502 C   0  0  0  0  0  0  0  0  0  0  0  0
    6.9649    0.5711    4.8079 S   0  0  0  0  0  0  0  0  0  0  0  0
    6.5909   -0.9731    5.4463 C   0  0  0  0  0  0  0  0  0  0  0  0
    5.5554   -1.3646    4.6048 C   0  0  0  0  0  0  0  0  0  0  0  0
    4.5259   -2.7614    4.4769 S   0  0  0  0  0  0  0  0  0  0  0  0
    3.5790   -2.2766    3.1508 C   0  0  0  0  0  0  0  0  0  0  0  0
    2.4201   -2.9373    2.5277 C   0  0  0  0  0  0  0  0  0  0  0  0
    1.8698   -2.5583    1.5011 O   0  0  0  0  0  0  0  0  0  0  0  0
    1.9281   -4.0706    3.1763 O   0  0  0  0  0  0  0  0  0  0  0  0
    0.7745   -4.7115    2.5909 C   0  0  0  0  0  0  0  0  0  0  0  0
    0.3264   -5.8331    3.4784 C   0  0  0  0  0  0  0  0  0  0  0  0
    4.1221   -1.0704    2.8890 C   0  0  0  0  0  0  0  0  0  0  0  0
    5.1407   -0.5664    3.6083 C   0  0  0  0  0  0  0  0  0  0  0  0
    3.3198   -0.2778    1.4290 Cl  0  0  0  0  0  0  0  0  0  0  0  0
    7.3037   -1.7753    6.4046 C   0  0  0  0  0  0  0  0  0  0  0  0
    7.1364   -2.6239    7.3553 C   0  0  0  0  0  0  0  0  0  0  0  0
    8.3346   -3.2107    8.0309 C   0  0  0  0  0  0  0  0  0  0  0  0
    9.5201   -2.8247    7.9932 O   0  0  0  0  0  0  0  0  0  0  0  0
    7.8991   -4.3690    8.7922 C   0  0  0  0  0  0  0  0  0  0  0  0
    8.6588   -5.3231    9.4652 C   0  0  0  0  0  0  0  0  0  0  0  0
    8.0732   -6.4529    9.9923 C   0  0  0  0  0  0  0  0  0  0  0  0
    6.7331   -6.5984    9.8313 C   0  0  0  0  0  0  0  0  0  0  0  0
    5.9215   -5.6526    9.1713 C   0  0  0  0  0  0  0  0  0  0  0  0
    6.5396   -4.5333    8.6514 C   0  0  0  0  0  0  0  0  0  0  0  0
    6.0139   -3.4501    7.7763 C   0  0  0  0  0  0  0  0  0  0  0  0
    4.7634   -3.0837    7.7418 C   0  0  0  0  0  0  0  0  0  0  0  0
    3.6814   -3.8835    8.1086 C   0  0  0  0  0  0  0  0  0  0  0  0
    2.7293   -4.5698    8.4457 N   0  0  0  0  0  0  0  0  0  0  0  0
    4.4521   -1.6477    7.5647 C   0  0  0  0  0  0  0  0  0  0  0  0
    4.2044   -0.5406    7.4273 N   0  0  0  0  0  0  0  0  0  0  0  0
    6.7748   -7.9469   10.4239 C   0  0  0  0  0  0  0  0  0  0  0  0
    6.2357   -8.2287   11.7513 C   0  0  0  0  0  0  0  0  0  0  0  0
    7.0526   -9.3835   12.2919 C   0  0  0  0  0  0  0  0  0  0  0  0
    8.1913   -8.9327   12.7949 C   0  0  0  0  0  0  0  0  0  0  0  0
    8.2987   -7.5346   12.2547 C   0  0  0  0  0  0  0  0  0  0  0  0
    6.8702   -7.0962   12.5603 C   0  0  0  0  0  0  0  0  0  0  0  0
    8.2655   -7.6846   10.7661 C   0  0  0  0  0  0  0  0  0  0  0  0
   -9.2017   -1.6266   -4.7244 H   0  0  0  0  0  0  0  0  0  0  0  0
  -10.1396    4.2673   -2.7174 H   0  0  0  0  0  0  0  0  0  0  0  0
  -13.5492    0.7931   -2.9238 H   0  0  0  0  0  0  0  0  0  0  0  0
  -14.7866    3.4744   -1.1306 H   0  0  0  0  0  0  0  0  0  0  0  0
  -15.7105    4.2037   -3.4005 H   0  0  0  0  0  0  0  0  0  0  0  0
  -13.5847    4.2431   -4.9657 H   0  0  0  0  0  0  0  0  0  0  0  0
  -12.2344    6.4473   -4.2250 H   0  0  0  0  0  0  0  0  0  0  0  0
  -12.9557    6.9844   -1.7967 H   0  0  0  0  0  0  0  0  0  0  0  0
  -15.3389    5.9704   -1.4464 H   0  0  0  0  0  0  0  0  0  0  0  0
  -15.2026    6.7252   -3.1425 H   0  0  0  0  0  0  0  0  0  0  0  0
  -12.7506    4.8242   -0.4975 H   0  0  0  0  0  0  0  0  0  0  0  0
   -6.3754   -2.2960   -3.8947 H   0  0  0  0  0  0  0  0  0  0  0  0
   -2.8831   -1.4494   -4.6303 H   0  0  0  0  0  0  0  0  0  0  0  0
   -3.9701   -2.6146   -3.8285 H   0  0  0  0  0  0  0  0  0  0  0  0
   -4.1867   -2.3311   -6.7816 H   0  0  0  0  0  0  0  0  0  0  0  0
   -2.6177   -3.0796   -6.2049 H   0  0  0  0  0  0  0  0  0  0  0  0
   -4.2331   -3.7848   -5.7108 H   0  0  0  0  0  0  0  0  0  0  0  0
   -1.4979   -1.5815   -7.6146 H   0  0  0  0  0  0  0  0  0  0  0  0
   -1.7477   -2.7706   -9.8062 H   0  0  0  0  0  0  0  0  0  0  0  0
   -2.9831   -1.7984  -11.6086 H   0  0  0  0  0  0  0  0  0  0  0  0
   -4.1654    1.6875  -11.5420 H   0  0  0  0  0  0  0  0  0  0  0  0
   -3.9514    0.2193  -12.5471 H   0  0  0  0  0  0  0  0  0  0  0  0
   -5.9007   -0.7988  -11.2238 H   0  0  0  0  0  0  0  0  0  0  0  0
   -6.1889    0.8454  -10.5444 H   0  0  0  0  0  0  0  0  0  0  0  0
   -6.3487    0.5919  -12.3119 H   0  0  0  0  0  0  0  0  0  0  0  0
   -3.7912    1.6138   -9.0673 H   0  0  0  0  0  0  0  0  0  0  0  0
    7.8880   -0.5209    0.4716 H   0  0  0  0  0  0  0  0  0  0  0  0
   10.2669   -1.0709    0.8644 H   0  0  0  0  0  0  0  0  0  0  0  0
   11.7807    0.5250    2.1415 H   0  0  0  0  0  0  0  0  0  0  0  0
   10.7819    3.9402    3.0286 H   0  0  0  0  0  0  0  0  0  0  0  0
   12.1088    2.7312    2.7761 H   0  0  0  0  0  0  0  0  0  0  0  0
   10.1562    2.0060    4.9620 H   0  0  0  0  0  0  0  0  0  0  0  0
   11.1573    3.5340    5.2028 H   0  0  0  0  0  0  0  0  0  0  0  0
   11.9816    1.9827    4.8861 H   0  0  0  0  0  0  0  0  0  0  0  0
    8.4293    3.1255    2.5487 H   0  0  0  0  0  0  0  0  0  0  0  0
   -1.4532    3.1824   -2.9388 H   0  0  0  0  0  0  0  0  0  0  0  0
   -0.3401    3.9843   -1.9926 H   0  0  0  0  0  0  0  0  0  0  0  0
    0.2242    1.2519   -1.2992 H   0  0  0  0  0  0  0  0  0  0  0  0
   -1.2036    0.9741   -2.2551 H   0  0  0  0  0  0  0  0  0  0  0  0
   -1.4053    2.0856   -0.9203 H   0  0  0  0  0  0  0  0  0  0  0  0
    2.3186    3.4143    0.4744 H   0  0  0  0  0  0  0  0  0  0  0  0
    0.9089    3.2615   -0.5283 H   0  0  0  0  0  0  0  0  0  0  0  0
    2.9033    5.4357   -0.2407 H   0  0  0  0  0  0  0  0  0  0  0  0
    1.8444    5.3491   -1.6969 H   0  0  0  0  0  0  0  0  0  0  0  0
    1.0827    5.5112   -0.0632 H   0  0  0  0  0  0  0  0  0  0  0  0
   -0.0358   -3.9722    2.4032 H   0  0  0  0  0  0  0  0  0  0  0  0
    1.0411   -5.1518    1.5847 H   0  0  0  0  0  0  0  0  0  0  0  0
   -0.2397   -5.4369    4.3811 H   0  0  0  0  0  0  0  0  0  0  0  0
   -0.4792   -6.4335    2.9548 H   0  0  0  0  0  0  0  0  0  0  0  0
    1.1055   -6.5105    3.8325 H   0  0  0  0  0  0  0  0  0  0  0  0
    8.4504   -1.5777    6.2244 H   0  0  0  0  0  0  0  0  0  0  0  0
    9.7208   -5.1536    9.5709 H   0  0  0  0  0  0  0  0  0  0  0  0
    4.8729   -5.8221    9.0822 H   0  0  0  0  0  0  0  0  0  0  0  0
    6.6771   -8.7375    9.6358 H   0  0  0  0  0  0  0  0  0  0  0  0
    5.1824   -8.3786   11.9213 H   0  0  0  0  0  0  0  0  0  0  0  0
    6.7427  -10.4144   12.2493 H   0  0  0  0  0  0  0  0  0  0  0  0
    8.9114   -9.3798   13.4356 H   0  0  0  0  0  0  0  0  0  0  0  0
    9.0849   -6.9350   12.6634 H   0  0  0  0  0  0  0  0  0  0  0  0
    6.6331   -7.2391   13.6404 H   0  0  0  0  0  0  0  0  0  0  0  0
    6.6071   -6.1165   12.1990 H   0  0  0  0  0  0  0  0  0  0  0  0
    8.9349   -8.3921   10.3107 H   0  0  0  0  0  0  0  0  0  0  0  0
  1  2  2  3
  2  3  1  0
  3  4  2  0
  3  5  1  0
  5  6  2  0
  6  7  1  0
  7  8  2  0
  8  9  1  0
  9 10  2  0
 10 11  1  0
 11 12  2  3
 12 13  1  0
 13 14  3  0
 12 15  1  0
 15 16  3  0
  8 17  1  0
 17 18  1  0
 18 19  1  0
 19 20  2  0
 20 21  1  0
 21 22  1  0
 21 23  1  0
  1 24  1  0
 24 25  2  0
 25 26  1  0
 26 27  1  0
 27 28  1  0
 26 29  2  0
 29 30  1  0
 29 31  1  0
 31 32  2  0
 32 33  1  0
 33 34  2  0
 34 35  1  0
 35 36  2  0
 36 37  1  0
 37 38  1  0
 38 39  1  0
 37 40  2  0
 32 41  1  0
 41 42  1  0
 42 43  1  0
 43 44  1  0
 44 45  1  0
 45 46  1  0
 46 47  2  0
 47 48  1  0
 48 49  1  0
 46 50  1  0
 50 51  1  0
 51 52  1  0
 52 53  1  0
 53 54  1  0
 54 55  1  0
 55 56  2  0
 56 57  1  0
 57 58  2  0
 58 59  1  0
 59 60  1  0
 60 61  1  0
 59 62  2  0
 54 63  2  0
 63 64  1  0
 64 65  1  0
 65 66  1  0
 66 67  1  0
 67 68  1  0
 68 69  1  0
 69 70  1  0
 70 71  1  0
 71 72  1  0
 72 73  1  0
 70 74  1  0
 74 75  1  0
 67 76  1  0
 76 77  1  0
 63 78  1  0
 78 79  1  0
 79 80  1  0
 80 81  2  0
 81 82  1  0
 82 83  1  0
 83 84  1  0
 84 85  2  0
 84 86  1  0
 86 87  1  0
 87 88  1  0
 83 89  2  0
 89 90  1  0
 89 91  1  0
 80 92  1  0
 92 93  2  3
 93 94  1  0
 94 95  2  0
 94 96  1  0
 96 97  2  0
 97 98  1  0
 98 99  2  0
 99100  1  0
100101  2  0
101102  1  0
102103  2  3
103104  1  0
104105  3  0
103106  1  0
106107  3  0
 99108  1  0
108109  1  0
109110  1  0
110111  2  0
111112  1  0
112113  1  0
112114  1  0
 11  2  1  0
 23 17  1  0
 30 24  1  0
 73 31  1  0
 90 78  2  0
102 93  1  0
114108  1  0
 10  5  1  0
 22 18  1  0
 40 33  1  0
 72 41  2  0
 90 81  1  0
101 96  1  0
113109  1  0
 23  7  1  0
 71 43  2  0
114 98  1  0
 69 44  2  0
 49 45  2  0
 68 50  2  0
 66 51  2  0
 65 53  2  0
 62 55  1  0
  1115  1  0
  6116  1  0
  9117  1  0
 17118  1  0
 18119  1  0
 19120  1  0
 20121  1  0
 21122  1  0
 22123  1  0
 22124  1  0
 23125  1  0
 25126  1  0
 27127  1  0
 27128  1  0
 28129  1  0
 28130  1  0
 28131  1  0
 34132  1  0
 35133  1  0
 36134  1  0
 38135  1  0
 38136  1  0
 39137  1  0
 39138  1  0
 39139  1  0
 40140  1  0
 56141  1  0
 57142  1  0
 58143  1  0
 60144  1  0
 60145  1  0
 61146  1  0
 61147  1  0
 61148  1  0
 62149  1  0
 74150  1  0
 74151  1  0
 75152  1  0
 75153  1  0
 75154  1  0
 76155  1  0
 76156  1  0
 77157  1  0
 77158  1  0
 77159  1  0
 87160  1  0
 87161  1  0
 88162  1  0
 88163  1  0
 88164  1  0
 92165  1  0
 97166  1  0
100167  1  0
108168  1  0
109169  1  0
110170  1  0
111171  1  0
112172  1  0
113173  1  0
113174  1  0
114175  1  0
M  END

