
     RDKit          3D

222249  0  0  0  0  0  0  0  0999 V2000
    7.1355    5.6669    8.3571 C   0  0  0  0  0  0  0  0  0  0  0  0
    5.9211    5.6799    9.0260 C   0  0  0  0  0  0  0  0  0  0  0  0
    4.9266    5.6491    9.8269 C   0  0  0  0  0  0  0  0  0  0  0  0
    5.2400    6.3756   11.0253 O   0  0  0  0  0  0  0  0  0  0  0  0
    3.6970    5.0804    9.7437 C   0  0  0  0  0  0  0  0  0  0  0  0
    2.5849    5.0357   10.6212 C   0  0  0  0  0  0  0  0  0  0  0  0
    1.4970    4.3397   10.1724 C   0  0  0  0  0  0  0  0  0  0  0  0
    1.4934    3.7397    8.9812 C   0  0  0  0  0  0  0  0  0  0  0  0
    2.6338    3.8126    8.1294 C   0  0  0  0  0  0  0  0  0  0  0  0
    3.7203    4.4999    8.5544 C   0  0  0  0  0  0  0  0  0  0  0  0
    5.1972    4.7814    7.8555 C   0  0  0  0  0  0  0  0  0  0  0  0
    5.0657    4.0431    6.9006 C   0  0  0  0  0  0  0  0  0  0  0  0
    4.2896    3.3452    5.9633 C   0  0  0  0  0  0  0  0  0  0  0  0
    3.6998    2.8302    5.2404 N   0  0  0  0  0  0  0  0  0  0  0  0
    6.4526    3.1984    6.8684 C   0  0  0  0  0  0  0  0  0  0  0  0
    7.4868    2.5818    6.8367 N   0  0  0  0  0  0  0  0  0  0  0  0
    0.1676    3.1007    9.0815 C   0  0  0  0  0  0  0  0  0  0  0  0
    0.2461    1.6732    9.6175 C   0  0  0  0  0  0  0  0  0  0  0  0
    1.4180    1.6592   10.5272 C   0  0  0  0  0  0  0  0  0  0  0  0
    1.0126    2.1114   11.7097 C   0  0  0  0  0  0  0  0  0  0  0  0
   -0.2216    2.9270   11.4249 C   0  0  0  0  0  0  0  0  0  0  0  0
   -0.9237    1.8059   10.6114 C   0  0  0  0  0  0  0  0  0  0  0  0
    0.0845    3.9159   10.3868 C   0  0  0  0  0  0  0  0  0  0  0  0
    7.2144    5.9369    6.9853 C   0  0  0  0  0  0  0  0  0  0  0  0
    7.9118    5.6988    5.9105 C   0  0  0  0  0  0  0  0  0  0  0  0
    7.7354    6.1865    4.6883 C   0  0  0  0  0  0  0  0  0  0  0  0
    8.6447    5.7955    3.5022 C   0  0  0  0  0  0  0  0  0  0  0  0
    7.9399    4.8480    2.5932 C   0  0  0  0  0  0  0  0  0  0  0  0
    6.7308    7.0369    4.4306 C   0  0  0  0  0  0  0  0  0  0  0  0
    5.9021    7.1981    6.1600 Se  0  0  0  0  0  2  0  0  0  0  0  0
    6.0385    7.6715    3.3212 C   0  0  0  0  0  0  0  0  0  0  0  0
    6.2409    8.4795    2.2645 C   0  0  0  0  0  0  0  0  0  0  0  0
    7.5936    9.0875    2.1181 C   0  0  0  0  0  0  0  0  0  0  0  0
    8.1213   10.0125    2.9417 C   0  0  0  0  0  0  0  0  0  0  0  0
    9.3952   10.4715    2.7914 C   0  0  0  0  0  0  0  0  0  0  0  0
   10.2069    9.9904    1.7422 C   0  0  0  0  0  0  0  0  0  0  0  0
    9.6886    9.0363    0.8685 C   0  0  0  0  0  0  0  0  0  0  0  0
   10.5307    8.4891   -0.2431 C   0  0  0  0  0  0  0  0  0  0  0  0
   11.3043    7.2646    0.1492 C   0  0  0  0  0  0  0  0  0  0  0  0
    8.3950    8.6132    1.0847 C   0  0  0  0  0  0  0  0  0  0  0  0
    5.1918    8.6814    1.4044 C   0  0  0  0  0  0  0  0  0  0  0  0
    4.9084    9.4243   -0.1559 S   0  0  0  0  0  0  0  0  0  0  0  0
    3.2728    8.8903   -0.3955 C   0  0  0  0  0  0  0  0  0  0  0  0
    2.2192    8.7723   -1.2948 C   0  0  0  0  0  0  0  0  0  0  0  0
    2.0709    9.1456   -2.6299 C   0  0  0  0  0  0  0  0  0  0  0  0
    1.0126    8.6804   -3.3611 C   0  0  0  0  0  0  0  0  0  0  0  0
    0.9310    9.1277   -4.6216 N   0  0  0  0  0  0  0  0  0  0  0  0
    2.2502   10.1442   -4.7971 S   0  0  0  0  0  0  0  0  0  0  0  0
    2.8975    9.9906   -3.2629 N   0  0  0  0  0  0  0  0  0  0  0  0
    0.1280    7.8456   -2.7237 C   0  0  0  0  0  0  0  0  0  0  0  0
   -0.8669    7.0229   -3.2785 C   0  0  0  0  0  0  0  0  0  0  0  0
   -1.5444    6.4219   -4.7337 S   0  0  0  0  0  0  0  0  0  0  0  0
   -2.4611    5.0656   -4.0782 C   0  0  0  0  0  0  0  0  0  0  0  0
   -3.1315    3.9278   -4.4805 C   0  0  0  0  0  0  0  0  0  0  0  0
   -3.5430    3.5592   -5.8579 C   0  0  0  0  0  0  0  0  0  0  0  0
   -2.6706    3.0578   -6.7663 C   0  0  0  0  0  0  0  0  0  0  0  0
   -3.1626    2.6543   -7.9943 C   0  0  0  0  0  0  0  0  0  0  0  0
   -4.5126    2.7359   -8.3360 C   0  0  0  0  0  0  0  0  0  0  0  0
   -5.3597    3.2346   -7.4151 C   0  0  0  0  0  0  0  0  0  0  0  0
   -6.8395    3.2698   -7.6773 C   0  0  0  0  0  0  0  0  0  0  0  0
   -7.5061    2.1415   -6.8906 C   0  0  0  0  0  0  0  0  0  0  0  0
   -4.9198    3.6697   -6.1480 C   0  0  0  0  0  0  0  0  0  0  0  0
   -3.4478    3.0364   -3.4936 C   0  0  0  0  0  0  0  0  0  0  0  0
   -2.8918    3.7411   -2.0931 S   0  0  0  0  0  0  0  0  0  0  0  0
   -2.1901    5.1956   -2.7928 C   0  0  0  0  0  0  0  0  0  0  0  0
   -1.3576    6.2079   -2.3452 C   0  0  0  0  0  0  0  0  0  0  0  0
   -0.6885    6.4871   -1.1440 N   0  0  0  0  0  0  0  0  0  0  0  0
    0.1881    7.4519   -1.4014 C   0  0  0  0  0  0  0  0  0  0  0  0
    1.2840    7.9473   -0.6641 C   0  0  0  0  0  0  0  0  0  0  0  0
    1.7414    7.6138    0.5316 N   0  0  0  0  0  0  0  0  0  0  0  0
    3.0176    8.1957    0.7175 C   0  0  0  0  0  0  0  0  0  0  0  0
    4.0505    8.1245    1.6033 C   0  0  0  0  0  0  0  0  0  0  0  0
    4.3426    7.2425    3.0426 S   0  0  0  0  0  0  0  0  0  0  0  0
    1.0812    6.9616    1.6280 C   0  0  0  0  0  0  0  0  0  0  0  0
    0.3325    7.9635    2.5143 C   0  0  0  0  0  0  0  0  0  0  0  0
   -1.0326    5.7805    0.0486 C   0  0  0  0  0  0  0  0  0  0  0  0
   -0.3090    4.4450    0.1456 C   0  0  0  0  0  0  0  0  0  0  0  0
   -3.7297    1.5475   -3.5916 C   0  0  0  0  0  0  0  0  0  0  0  0
   -2.7116    0.7693   -2.9831 C   0  0  0  0  0  0  0  0  0  0  0  0
   -2.9396   -0.4790   -3.1758 C   0  0  0  0  0  0  0  0  0  0  0  0
   -2.3373   -1.6140   -2.2858 C   0  0  0  0  0  0  0  0  0  0  0  0
   -1.4105   -1.4640   -1.2486 C   0  0  0  0  0  0  0  0  0  0  0  0
   -0.9324   -0.4647   -0.4620 C   0  0  0  0  0  0  0  0  0  0  0  0
   -0.0993   -0.7925    0.5550 C   0  0  0  0  0  0  0  0  0  0  0  0
    0.2340   -2.0531    0.7625 C   0  0  0  0  0  0  0  0  0  0  0  0
    1.1100   -2.7458    1.7173 C   0  0  0  0  0  0  0  0  0  0  0  0
    1.0364   -4.0915    1.7118 C   0  0  0  0  0  0  0  0  0  0  0  0
    1.9033   -4.8447    2.6319 C   0  0  0  0  0  0  0  0  0  0  0  0
    2.0653   -6.2186    2.6495 C   0  0  0  0  0  0  0  0  0  0  0  0
    2.9224   -6.6912    3.5648 C   0  0  0  0  0  0  0  0  0  0  0  0
    3.5525   -5.8227    4.3957 C   0  0  0  0  0  0  0  0  0  0  0  0
    4.7516   -6.1433    5.6910 S   0  0  0  0  0  0  0  0  0  0  0  0
    5.1860   -7.8781    5.6873 C   0  0  0  0  0  0  0  0  0  0  0  0
    3.9981   -8.7623    5.9999 C   0  0  0  0  0  0  0  0  0  0  0  0
    2.9291   -4.3184    3.8702 S   0  0  0  0  0  0  0  0  0  0  0  0
   -0.6330   -2.8677   -0.4961 S   0  0  0  0  0  0  0  0  0  0  0  0
   -2.9589   -2.8731   -2.5269 C   0  0  0  0  0  0  0  0  0  0  0  0
   -3.9718   -3.2857   -3.3616 C   0  0  0  0  0  0  0  0  0  0  0  0
   -4.5181   -2.1167   -4.2152 C   0  0  0  0  0  0  0  0  0  0  0  0
   -5.2442   -2.3539   -5.3725 C   0  0  0  0  0  0  0  0  0  0  0  0
   -5.7961   -1.5439   -6.3332 C   0  0  0  0  0  0  0  0  0  0  0  0
   -6.2263   -2.0887   -7.4748 C   0  0  0  0  0  0  0  0  0  0  0  0
   -6.0944   -3.4468   -7.6432 C   0  0  0  0  0  0  0  0  0  0  0  0
   -6.2018   -4.2581   -8.8462 C   0  0  0  0  0  0  0  0  0  0  0  0
   -6.3182   -5.3226   -9.3844 C   0  0  0  0  0  0  0  0  0  0  0  0
   -6.4540   -6.6865   -8.8370 C   0  0  0  0  0  0  0  0  0  0  0  0
   -6.2467   -7.9048   -9.5092 C   0  0  0  0  0  0  0  0  0  0  0  0
   -6.6390   -9.0033   -8.9353 C   0  0  0  0  0  0  0  0  0  0  0  0
   -7.2288   -8.9274   -7.6955 C   0  0  0  0  0  0  0  0  0  0  0  0
   -7.9784  -10.3028   -6.7883 S   0  0  0  0  0  0  0  0  0  0  0  0
   -8.1149   -9.8781   -5.0620 C   0  0  0  0  0  0  0  0  0  0  0  0
   -8.9621   -8.7070   -4.7189 C   0  0  0  0  0  0  0  0  0  0  0  0
   -7.2019   -7.2453   -7.3805 S   0  0  0  0  0  0  0  0  0  0  0  0
   -5.3890   -3.9125   -6.1774 S   0  0  0  0  0  0  0  0  0  0  0  0
   -3.6954   -1.2730   -3.6710 C   0  0  0  0  0  0  0  0  0  0  0  0
   -4.7146    0.4876   -4.2378 S   0  0  0  0  0  0  0  0  0  0  0  0
   -4.4004   -4.5082   -3.3448 C   0  0  0  0  0  0  0  0  0  0  0  0
   -3.7605   -5.3749   -2.4191 C   0  0  0  0  0  0  0  0  0  0  0  0
   -2.6239   -4.3584   -1.6771 S   0  0  0  0  0  0  0  0  0  0  0  0
   -4.0250   -6.7715   -2.3001 C   0  0  0  0  0  0  0  0  0  0  0  0
   -3.4410   -7.6565   -1.5822 C   0  0  0  0  0  0  0  0  0  0  0  0
   -2.3660   -7.6355   -0.6017 C   0  0  0  0  0  0  0  0  0  0  0  0
   -1.8335   -6.6196   -0.1131 O   0  0  0  0  0  0  0  0  0  0  0  0
   -1.9636   -9.0085   -0.2388 C   0  0  0  0  0  0  0  0  0  0  0  0
   -1.0350   -9.5116    0.6529 C   0  0  0  0  0  0  0  0  0  0  0  0
   -0.8790  -10.8789    0.8298 C   0  0  0  0  0  0  0  0  0  0  0  0
   -1.6702  -11.7313    0.0869 C   0  0  0  0  0  0  0  0  0  0  0  0
   -2.5943  -11.2464   -0.8009 C   0  0  0  0  0  0  0  0  0  0  0  0
   -2.7244   -9.8663   -0.9405 C   0  0  0  0  0  0  0  0  0  0  0  0
   -3.6652   -9.1348   -1.8148 C   0  0  0  0  0  0  0  0  0  0  0  0
   -4.2838   -9.6672   -2.8280 C   0  0  0  0  0  0  0  0  0  0  0  0
   -4.8176   -8.5927   -3.8822 C   0  0  0  0  0  0  0  0  0  0  0  0
   -5.1600   -7.9121   -4.5751 N   0  0  0  0  0  0  0  0  0  0  0  0
   -4.5350  -10.9608   -3.2153 C   0  0  0  0  0  0  0  0  0  0  0  0
   -4.7327  -12.0324   -3.5180 N   0  0  0  0  0  0  0  0  0  0  0  0
   -1.0341  -12.9384    0.6889 C   0  0  0  0  0  0  0  0  0  0  0  0
   -0.0179  -13.5839   -0.2195 C   0  0  0  0  0  0  0  0  0  0  0  0
    0.7772  -14.5151    0.6043 C   0  0  0  0  0  0  0  0  0  0  0  0
    1.3854  -13.7810    1.5377 C   0  0  0  0  0  0  0  0  0  0  0  0
    1.1828  -12.3397    1.2060 C   0  0  0  0  0  0  0  0  0  0  0  0
    1.0273  -12.4575   -0.3270 C   0  0  0  0  0  0  0  0  0  0  0  0
   -0.2183  -11.9886    1.5481 C   0  0  0  0  0  0  0  0  0  0  0  0
    7.9660    5.4276    9.0023 H   0  0  0  0  0  0  0  0  0  0  0  0
    2.6341    5.5336   11.5755 H   0  0  0  0  0  0  0  0  0  0  0  0
    2.5257    3.3152    7.2062 H   0  0  0  0  0  0  0  0  0  0  0  0
   -0.5611    3.3170    8.3223 H   0  0  0  0  0  0  0  0  0  0  0  0
    0.1659    0.8871    8.9131 H   0  0  0  0  0  0  0  0  0  0  0  0
    2.4123    1.3465   10.2353 H   0  0  0  0  0  0  0  0  0  0  0  0
    1.4427    1.9245   12.6591 H   0  0  0  0  0  0  0  0  0  0  0  0
   -0.7742    3.2395   12.2878 H   0  0  0  0  0  0  0  0  0  0  0  0
   -1.8364    2.1659   10.1473 H   0  0  0  0  0  0  0  0  0  0  0  0
   -1.0257    0.9089   11.2393 H   0  0  0  0  0  0  0  0  0  0  0  0
   -0.6551    4.7503   10.2845 H   0  0  0  0  0  0  0  0  0  0  0  0
    8.7754    4.9357    6.0876 H   0  0  0  0  0  0  0  0  0  0  0  0
    8.9930    6.6677    2.9614 H   0  0  0  0  0  0  0  0  0  0  0  0
    9.5709    5.2977    3.8766 H   0  0  0  0  0  0  0  0  0  0  0  0
    7.0317    4.4184    3.0347 H   0  0  0  0  0  0  0  0  0  0  0  0
    7.5967    5.3448    1.6420 H   0  0  0  0  0  0  0  0  0  0  0  0
    8.6368    4.0358    2.2302 H   0  0  0  0  0  0  0  0  0  0  0  0
    7.5075   10.3975    3.7430 H   0  0  0  0  0  0  0  0  0  0  0  0
    9.8654   11.2096    3.4234 H   0  0  0  0  0  0  0  0  0  0  0  0
   11.2121   10.3168    1.5903 H   0  0  0  0  0  0  0  0  0  0  0  0
   11.3044    9.2505   -0.5474 H   0  0  0  0  0  0  0  0  0  0  0  0
    9.8978    8.3004   -1.1084 H   0  0  0  0  0  0  0  0  0  0  0  0
   11.0382    6.8788    1.1434 H   0  0  0  0  0  0  0  0  0  0  0  0
   12.4118    7.4139    0.1205 H   0  0  0  0  0  0  0  0  0  0  0  0
   11.0882    6.4228   -0.5724 H   0  0  0  0  0  0  0  0  0  0  0  0
    8.0058    7.8696    0.3820 H   0  0  0  0  0  0  0  0  0  0  0  0
   -1.6210    2.9740   -6.5109 H   0  0  0  0  0  0  0  0  0  0  0  0
   -2.4936    2.2463   -8.7517 H   0  0  0  0  0  0  0  0  0  0  0  0
   -4.8100    2.4068   -9.3141 H   0  0  0  0  0  0  0  0  0  0  0  0
   -7.0530    3.0307   -8.7573 H   0  0  0  0  0  0  0  0  0  0  0  0
   -7.2466    4.2526   -7.4578 H   0  0  0  0  0  0  0  0  0  0  0  0
   -8.5352    2.4489   -6.5960 H   0  0  0  0  0  0  0  0  0  0  0  0
   -6.9573    2.0500   -5.9186 H   0  0  0  0  0  0  0  0  0  0  0  0
   -7.5432    1.1932   -7.4277 H   0  0  0  0  0  0  0  0  0  0  0  0
   -5.6018    4.0425   -5.4470 H   0  0  0  0  0  0  0  0  0  0  0  0
    0.7849    5.9674    1.6716 H   0  0  0  0  0  0  0  0  0  0  0  0
    1.9940    6.7766    2.3970 H   0  0  0  0  0  0  0  0  0  0  0  0
    0.7487    7.9877    3.5509 H   0  0  0  0  0  0  0  0  0  0  0  0
    0.4525    8.9846    2.1105 H   0  0  0  0  0  0  0  0  0  0  0  0
   -0.7264    7.6825    2.6756 H   0  0  0  0  0  0  0  0  0  0  0  0
   -1.2508    6.3306    0.9463 H   0  0  0  0  0  0  0  0  0  0  0  0
   -2.1293    5.3750   -0.0761 H   0  0  0  0  0  0  0  0  0  0  0  0
   -0.5161    3.7519   -0.6820 H   0  0  0  0  0  0  0  0  0  0  0  0
   -0.5473    3.9135    1.0821 H   0  0  0  0  0  0  0  0  0  0  0  0
    0.8160    4.5987    0.0099 H   0  0  0  0  0  0  0  0  0  0  0  0
   -1.8296    1.2493   -2.5052 H   0  0  0  0  0  0  0  0  0  0  0  0
   -1.2456    0.5786   -0.6444 H   0  0  0  0  0  0  0  0  0  0  0  0
    0.2961    0.0264    1.2323 H   0  0  0  0  0  0  0  0  0  0  0  0
    1.7502   -2.2624    2.3673 H   0  0  0  0  0  0  0  0  0  0  0  0
    0.3716   -4.6425    1.0790 H   0  0  0  0  0  0  0  0  0  0  0  0
    1.5106   -6.8638    1.9404 H   0  0  0  0  0  0  0  0  0  0  0  0
    3.1361   -7.7874    3.6551 H   0  0  0  0  0  0  0  0  0  0  0  0
    5.9500   -8.0941    6.4838 H   0  0  0  0  0  0  0  0  0  0  0  0
    5.6174   -8.2115    4.7394 H   0  0  0  0  0  0  0  0  0  0  0  0
    3.7502   -9.4255    5.1266 H   0  0  0  0  0  0  0  0  0  0  0  0
    4.2026   -9.4733    6.8274 H   0  0  0  0  0  0  0  0  0  0  0  0
    3.1044   -8.1713    6.2505 H   0  0  0  0  0  0  0  0  0  0  0  0
   -5.8744   -0.4537   -6.1421 H   0  0  0  0  0  0  0  0  0  0  0  0
   -6.6920   -1.4648   -8.2824 H   0  0  0  0  0  0  0  0  0  0  0  0
   -6.1500   -3.4213   -9.7746 H   0  0  0  0  0  0  0  0  0  0  0  0
   -6.3181   -5.3668  -10.5243 H   0  0  0  0  0  0  0  0  0  0  0  0
   -5.7151   -7.8619  -10.5037 H   0  0  0  0  0  0  0  0  0  0  0  0
   -6.5161  -10.0286   -9.3879 H   0  0  0  0  0  0  0  0  0  0  0  0
   -8.6182  -10.7702   -4.5511 H   0  0  0  0  0  0  0  0  0  0  0  0
   -7.1133   -9.8576   -4.5721 H   0  0  0  0  0  0  0  0  0  0  0  0
   -9.8308   -8.6353   -5.3616 H   0  0  0  0  0  0  0  0  0  0  0  0
   -9.3346   -8.8577   -3.6672 H   0  0  0  0  0  0  0  0  0  0  0  0
   -8.3502   -7.7747   -4.6432 H   0  0  0  0  0  0  0  0  0  0  0  0
   -5.2132   -4.9590   -3.9621 H   0  0  0  0  0  0  0  0  0  0  0  0
   -5.0081   -7.0709   -2.7188 H   0  0  0  0  0  0  0  0  0  0  0  0
   -0.4309   -8.7950    1.2112 H   0  0  0  0  0  0  0  0  0  0  0  0
   -3.1846  -11.9479   -1.3526 H   0  0  0  0  0  0  0  0  0  0  0  0
   -1.7185  -13.5799    1.2341 H   0  0  0  0  0  0  0  0  0  0  0  0
   -0.3880  -13.9239   -1.1587 H   0  0  0  0  0  0  0  0  0  0  0  0
    0.8515  -15.5791    0.4638 H   0  0  0  0  0  0  0  0  0  0  0  0
    1.9315  -14.1377    2.4010 H   0  0  0  0  0  0  0  0  0  0  0  0
    1.9757  -11.6920    1.5120 H   0  0  0  0  0  0  0  0  0  0  0  0
    0.6212  -11.5400   -0.7334 H   0  0  0  0  0  0  0  0  0  0  0  0
    1.9676  -12.8037   -0.7711 H   0  0  0  0  0  0  0  0  0  0  0  0
   -0.4439  -12.0297    2.6400 H   0  0  0  0  0  0  0  0  0  0  0  0
  1  2  2  3
  2  3  1  0
  3  4  2  0
  3  5  1  0
  5  6  2  0
  6  7  1  0
  7  8  2  0
  8  9  1  0
  9 10  2  0
 10 11  1  0
 11 12  2  3
 12 13  1  0
 13 14  3  0
 12 15  1  0
 15 16  3  0
  8 17  1  0
 17 18  1  0
 18 19  1  0
 19 20  2  0
 20 21  1  0
 21 22  1  0
 21 23  1  0
  1 24  1  0
 24 25  2  0
 25 26  1  0
 26 27  1  0
 27 28  1  0
 26 29  2  0
 29 30  1  0
 29 31  1  0
 31 32  2  0
 32 33  1  0
 33 34  2  0
 34 35  1  0
 35 36  2  0
 36 37  1  0
 37 38  1  0
 38 39  1  0
 37 40  2  0
 32 41  1  0
 41 42  1  0
 42 43  1  0
 43 44  1  0
 44 45  1  0
 45 46  1  0
 46 47  2  0
 47 48  1  0
 48 49  1  0
 46 50  1  0
 50 51  1  0
 51 52  1  0
 52 53  1  0
 53 54  1  0
 54 55  1  0
 55 56  2  0
 56 57  1  0
 57 58  2  0
 58 59  1  0
 59 60  1  0
 60 61  1  0
 59 62  2  0
 54 63  2  0
 63 64  1  0
 64 65  1  0
 65 66  1  0
 66 67  1  0
 67 68  1  0
 68 69  1  0
 69 70  1  0
 70 71  1  0
 71 72  1  0
 72 73  1  0
 70 74  1  0
 74 75  1  0
 67 76  1  0
 76 77  1  0
 63 78  1  0
 78 79  2  0
 79 80  1  0
 80 81  2  0
 81 82  1  0
 82 83  2  0
 83 84  1  0
 84 85  2  0
 85 86  1  0
 86 87  2  3
 87 88  1  0
 88 89  2  0
 89 90  1  0
 90 91  2  0
 91 92  1  0
 92 93  1  0
 93 94  1  0
 91 95  1  0
 85 96  1  0
 81 97  1  0
 97 98  2  0
 98 99  1  0
 99100  1  0
100101  2  0
101102  1  0
102103  2  0
103104  1  0
104105  2  3
105106  1  0
106107  2  0
107108  1  0
108109  2  0
109110  1  0
110111  1  0
111112  1  0
109113  1  0
103114  1  0
 99115  2  0
115116  1  0
 98117  1  0
117118  2  0
118119  1  0
118120  1  0
120121  2  3
121122  1  0
122123  2  0
122124  1  0
124125  2  0
125126  1  0
126127  2  0
127128  1  0
128129  2  0
129130  1  0
130131  2  3
131132  1  0
132133  3  0
131134  1  0
134135  3  0
127136  1  0
136137  1  0
137138  1  0
138139  2  0
139140  1  0
140141  1  0
140142  1  0
 11  2  1  0
 23 17  1  0
 30 24  1  0
 73 31  1  0
116 78  1  0
130121  1  0
142136  1  0
 10  5  1  0
 22 18  1  0
 40 33  1  0
 72 41  2  0
115 80  1  0
129124  1  0
141137  1  0
 23  7  1  0
 71 43  2  0
 96 82  1  0
119 97  1  0
142126  1  0
 69 44  2  0
 95 88  1  0
114100  1  0
 49 45  2  0
 68 50  2  0
113106  1  0
 66 51  2  0
 65 53  2  0
 62 55  1  0
  1143  1  0
  6144  1  0
  9145  1  0
 17146  1  0
 18147  1  0
 19148  1  0
 20149  1  0
 21150  1  0
 22151  1  0
 22152  1  0
 23153  1  0
 25154  1  0
 27155  1  0
 27156  1  0
 28157  1  0
 28158  1  0
 28159  1  0
 34160  1  0
 35161  1  0
 36162  1  0
 38163  1  0
 38164  1  0
 39165  1  0
 39166  1  0
 39167  1  0
 40168  1  0
 56169  1  0
 57170  1  0
 58171  1  0
 60172  1  0
 60173  1  0
 61174  1  0
 61175  1  0
 61176  1  0
 62177  1  0
 74178  1  0
 74179  1  0
 75180  1  0
 75181  1  0
 75182  1  0
 76183  1  0
 76184  1  0
 77185  1  0
 77186  1  0
 77187  1  0
 79188  1  0
 83189  1  0
 84190  1  0
 86191  1  0
 87192  1  0
 89193  1  0
 90194  1  0
 93195  1  0
 93196  1  0
 94197  1  0
 94198  1  0
 94199  1  0
101200  1  0
102201  1  0
104202  1  0
105203  1  0
107204  1  0
108205  1  0
111206  1  0
111207  1  0
112208  1  0
112209  1  0
112210  1  0
117211  1  0
120212  1  0
125213  1  0
128214  1  0
136215  1  0
137216  1  0
138217  1  0
139218  1  0
140219  1  0
141220  1  0
141221  1  0
142222  1  0
M  END

