
     RDKit          3D

180201  0  0  0  0  0  0  0  0999 V2000
   -0.1786    3.1930   -8.2616 C   0  0  0  0  0  0  0  0  0  0  0  0
    0.1673    3.2268   -9.5122 C   0  0  0  0  0  0  0  0  0  0  0  0
    0.3383    2.1036  -10.4136 C   0  0  0  0  0  0  0  0  0  0  0  0
    0.0504    0.8897  -10.2230 O   0  0  0  0  0  0  0  0  0  0  0  0
    0.9279    2.6039  -11.6661 C   0  0  0  0  0  0  0  0  0  0  0  0
    1.1975    1.9038  -12.8289 C   0  0  0  0  0  0  0  0  0  0  0  0
    1.6858    2.5336  -13.9360 C   0  0  0  0  0  0  0  0  0  0  0  0
    1.9087    3.9213  -13.8449 C   0  0  0  0  0  0  0  0  0  0  0  0
    1.6222    4.5783  -12.6673 C   0  0  0  0  0  0  0  0  0  0  0  0
    1.1199    3.9503  -11.5437 C   0  0  0  0  0  0  0  0  0  0  0  0
    0.6560    4.4222  -10.2266 C   0  0  0  0  0  0  0  0  0  0  0  0
    0.4107    5.6752   -9.9109 C   0  0  0  0  0  0  0  0  0  0  0  0
   -0.3848    6.1453   -8.8760 C   0  0  0  0  0  0  0  0  0  0  0  0
   -1.1081    6.5958   -7.9208 N   0  0  0  0  0  0  0  0  0  0  0  0
    1.2518    6.7398  -10.4957 C   0  0  0  0  0  0  0  0  0  0  0  0
    1.9476    7.6333  -10.9991 N   0  0  0  0  0  0  0  0  0  0  0  0
    2.4096    3.9714  -15.2504 C   0  0  0  0  0  0  0  0  0  0  0  0
    3.8950    4.0047  -15.3266 C   0  0  0  0  0  0  0  0  0  0  0  0
    4.3041    3.6087  -16.7115 C   0  0  0  0  0  0  0  0  0  0  0  0
    3.8962    2.3685  -16.8925 C   0  0  0  0  0  0  0  0  0  0  0  0
    3.4068    1.8484  -15.5868 C   0  0  0  0  0  0  0  0  0  0  0  0
    4.2497    2.6968  -14.6249 C   0  0  0  0  0  0  0  0  0  0  0  0
    2.0635    2.5006  -15.3571 C   0  0  0  0  0  0  0  0  0  0  0  0
   -0.4893    2.0735   -7.3937 C   0  0  0  0  0  0  0  0  0  0  0  0
   -0.0119    0.8494   -7.2276 C   0  0  0  0  0  0  0  0  0  0  0  0
   -0.4719    0.0219   -6.2437 C   0  0  0  0  0  0  0  0  0  0  0  0
    0.2496   -1.3442   -6.0598 C   0  0  0  0  0  0  0  0  0  0  0  0
    1.7271   -1.0932   -5.9970 C   0  0  0  0  0  0  0  0  0  0  0  0
   -1.4322    0.4153   -5.3870 C   0  0  0  0  0  0  0  0  0  0  0  0
   -1.7906    2.1690   -5.9982 Se  0  0  0  0  0  2  0  0  0  0  0  0
   -2.1669   -0.1903   -4.2877 C   0  0  0  0  0  0  0  0  0  0  0  0
   -3.5259   -0.0978   -3.9664 C   0  0  0  0  0  0  0  0  0  0  0  0
   -4.2686    1.0180   -4.5977 C   0  0  0  0  0  0  0  0  0  0  0  0
   -4.9655    1.0212   -5.7696 C   0  0  0  0  0  0  0  0  0  0  0  0
   -5.5246    2.1808   -6.2679 C   0  0  0  0  0  0  0  0  0  0  0  0
   -5.3646    3.4132   -5.5540 C   0  0  0  0  0  0  0  0  0  0  0  0
   -4.6643    3.4324   -4.3637 C   0  0  0  0  0  0  0  0  0  0  0  0
   -4.5255    4.7121   -3.5817 C   0  0  0  0  0  0  0  0  0  0  0  0
   -3.2280    5.4195   -3.7863 C   0  0  0  0  0  0  0  0  0  0  0  0
   -4.1557    2.2733   -3.9412 C   0  0  0  0  0  0  0  0  0  0  0  0
   -3.9177   -0.9074   -2.9193 C   0  0  0  0  0  0  0  0  0  0  0  0
   -5.4096   -1.2676   -2.0458 S   0  0  0  0  0  0  0  0  0  0  0  0
   -4.7574   -2.3678   -0.9027 C   0  0  0  0  0  0  0  0  0  0  0  0
   -4.9815   -3.0682    0.2950 C   0  0  0  0  0  0  0  0  0  0  0  0
   -6.0916   -3.2183    1.1098 C   0  0  0  0  0  0  0  0  0  0  0  0
   -5.9946   -3.8073    2.3400 C   0  0  0  0  0  0  0  0  0  0  0  0
   -7.0680   -3.9523    3.0401 N   0  0  0  0  0  0  0  0  0  0  0  0
   -8.2815   -3.3018    2.0685 S   0  0  0  0  0  0  0  0  0  0  0  0
   -7.3287   -2.8483    0.7539 N   0  0  0  0  0  0  0  0  0  0  0  0
   -4.7026   -4.2081    2.7282 C   0  0  0  0  0  0  0  0  0  0  0  0
   -4.2486   -4.3501    4.0459 C   0  0  0  0  0  0  0  0  0  0  0  0
   -4.7007   -4.3842    5.7130 S   0  0  0  0  0  0  0  0  0  0  0  0
   -3.0674   -4.2822    6.3983 C   0  0  0  0  0  0  0  0  0  0  0  0
   -2.4651   -3.9389    7.6582 C   0  0  0  0  0  0  0  0  0  0  0  0
   -3.1907   -4.2097    8.9138 C   0  0  0  0  0  0  0  0  0  0  0  0
   -2.4770   -4.9649    9.8939 C   0  0  0  0  0  0  0  0  0  0  0  0
   -3.0733   -5.3446   11.0237 C   0  0  0  0  0  0  0  0  0  0  0  0
   -4.4214   -4.9963   11.2444 C   0  0  0  0  0  0  0  0  0  0  0  0
   -5.1155   -4.2910   10.3346 C   0  0  0  0  0  0  0  0  0  0  0  0
   -6.5444   -4.0268   10.6115 C   0  0  0  0  0  0  0  0  0  0  0  0
   -7.2961   -5.2372   10.0748 C   0  0  0  0  0  0  0  0  0  0  0  0
   -4.5172   -3.8760    9.1486 C   0  0  0  0  0  0  0  0  0  0  0  0
   -1.1990   -3.5894    7.6156 C   0  0  0  0  0  0  0  0  0  0  0  0
   -0.8119   -3.7611    5.9361 S   0  0  0  0  0  0  0  0  0  0  0  0
   -2.3700   -4.2520    5.3284 C   0  0  0  0  0  0  0  0  0  0  0  0
   -2.9218   -4.2901    4.0412 C   0  0  0  0  0  0  0  0  0  0  0  0
   -2.4466   -4.1517    2.7352 N   0  0  0  0  0  0  0  0  0  0  0  0
   -3.5683   -4.0965    1.9735 C   0  0  0  0  0  0  0  0  0  0  0  0
   -3.7219   -3.5278    0.6641 C   0  0  0  0  0  0  0  0  0  0  0  0
   -2.8575   -3.1711   -0.2384 N   0  0  0  0  0  0  0  0  0  0  0  0
   -3.4556   -2.4324   -1.2300 C   0  0  0  0  0  0  0  0  0  0  0  0
   -3.0736   -1.6599   -2.2885 C   0  0  0  0  0  0  0  0  0  0  0  0
   -1.5969   -1.2845   -3.1605 S   0  0  0  0  0  0  0  0  0  0  0  0
   -1.5413   -3.8048   -0.4614 C   0  0  0  0  0  0  0  0  0  0  0  0
   -1.6754   -4.7006   -1.7594 C   0  0  0  0  0  0  0  0  0  0  0  0
   -1.0528   -3.9599    2.4796 C   0  0  0  0  0  0  0  0  0  0  0  0
   -0.2890   -5.2514    2.3716 C   0  0  0  0  0  0  0  0  0  0  0  0
   -0.1348   -2.8380    8.3792 C   0  0  0  0  0  0  0  0  0  0  0  0
    0.6768   -3.2190    9.2799 C   0  0  0  0  0  0  0  0  0  0  0  0
    1.8995   -2.4833    9.5406 C   0  0  0  0  0  0  0  0  0  0  0  0
    2.6626   -2.8710   10.4350 O   0  0  0  0  0  0  0  0  0  0  0  0
    3.4213   -3.3533   11.4011 C   0  0  0  0  0  0  0  0  0  0  0  0
    2.6697   -3.5190   12.7427 C   0  0  0  0  0  0  0  0  0  0  0  0
    2.1254   -1.3331    8.7381 C   0  0  0  0  0  0  0  0  0  0  0  0
    1.2477   -0.8927    7.7765 C   0  0  0  0  0  0  0  0  0  0  0  0
    0.1378   -1.6195    7.5838 C   0  0  0  0  0  0  0  0  0  0  0  0
   -0.7972   -1.3094    6.6542 O   0  0  0  0  0  0  0  0  0  0  0  0
   -0.9884   -0.3594    5.7123 C   0  0  0  0  0  0  0  0  0  0  0  0
   -2.2668   -0.5373    4.9012 C   0  0  0  0  0  0  0  0  0  0  0  0
    3.5456   -0.9231    8.4522 C   0  0  0  0  0  0  0  0  0  0  0  0
    4.0084    0.2718    8.2204 C   0  0  0  0  0  0  0  0  0  0  0  0
    3.4465    1.6042    8.1555 C   0  0  0  0  0  0  0  0  0  0  0  0
    2.3608    1.9168    8.6929 O   0  0  0  0  0  0  0  0  0  0  0  0
    4.3209    2.5307    7.3776 C   0  0  0  0  0  0  0  0  0  0  0  0
    4.1150    3.8590    7.0788 C   0  0  0  0  0  0  0  0  0  0  0  0
    5.1035    4.4787    6.2985 C   0  0  0  0  0  0  0  0  0  0  0  0
    6.1990    3.7908    5.8762 C   0  0  0  0  0  0  0  0  0  0  0  0
    6.4010    2.4578    6.1879 C   0  0  0  0  0  0  0  0  0  0  0  0
    5.3995    1.8328    6.9705 C   0  0  0  0  0  0  0  0  0  0  0  0
    5.3096    0.4022    7.4484 C   0  0  0  0  0  0  0  0  0  0  0  0
    6.2827   -0.3613    7.1919 C   0  0  0  0  0  0  0  0  0  0  0  0
    7.2021   -0.8628    6.8587 C   0  0  0  0  0  0  0  0  0  0  0  0
    8.5141   -1.5502    6.3755 N   0  0  0  0  0  0  0  0  0  0  0  0
    6.1200   -1.2431    8.7858 C   0  0  0  0  0  0  0  0  0  0  0  0
    5.9997   -1.8282    9.8193 N   0  0  0  0  0  0  0  0  0  0  0  0
    6.7141    4.8929    5.0316 C   0  0  0  0  0  0  0  0  0  0  0  0
    7.9816    5.4556    5.4174 C   0  0  0  0  0  0  0  0  0  0  0  0
    8.2146    5.2131    6.8690 C   0  0  0  0  0  0  0  0  0  0  0  0
    7.1806    5.7948    7.5224 C   0  0  0  0  0  0  0  0  0  0  0  0
    6.4436    6.6276    6.5696 C   0  0  0  0  0  0  0  0  0  0  0  0
    7.5917    6.9255    5.5486 C   0  0  0  0  0  0  0  0  0  0  0  0
    5.5900    5.7079    5.7158 C   0  0  0  0  0  0  0  0  0  0  0  0
   -0.2189    4.1534   -7.7536 H   0  0  0  0  0  0  0  0  0  0  0  0
    1.0602    0.8055  -12.8469 H   0  0  0  0  0  0  0  0  0  0  0  0
    1.7872    5.6552  -12.6603 H   0  0  0  0  0  0  0  0  0  0  0  0
    1.8763    4.6666  -15.9229 H   0  0  0  0  0  0  0  0  0  0  0  0
    4.4171    4.8924  -14.9781 H   0  0  0  0  0  0  0  0  0  0  0  0
    4.8027    4.2782  -17.3556 H   0  0  0  0  0  0  0  0  0  0  0  0
    3.8345    1.8094  -17.8000 H   0  0  0  0  0  0  0  0  0  0  0  0
    3.5006    0.8114  -15.4542 H   0  0  0  0  0  0  0  0  0  0  0  0
    3.7885    2.6449  -13.6178 H   0  0  0  0  0  0  0  0  0  0  0  0
    5.3311    2.4704  -14.6529 H   0  0  0  0  0  0  0  0  0  0  0  0
    1.2664    2.2836  -16.0502 H   0  0  0  0  0  0  0  0  0  0  0  0
    0.8181    0.5011   -7.9119 H   0  0  0  0  0  0  0  0  0  0  0  0
   -0.0409   -1.9615   -6.8805 H   0  0  0  0  0  0  0  0  0  0  0  0
    0.0023   -1.7325   -5.0141 H   0  0  0  0  0  0  0  0  0  0  0  0
    1.8807   -0.0101   -5.6471 H   0  0  0  0  0  0  0  0  0  0  0  0
    2.1933   -1.7156   -5.2292 H   0  0  0  0  0  0  0  0  0  0  0  0
    2.1905   -1.1890   -7.0066 H   0  0  0  0  0  0  0  0  0  0  0  0
   -5.1303    0.1419   -6.3249 H   0  0  0  0  0  0  0  0  0  0  0  0
   -6.0897    2.2391   -7.2006 H   0  0  0  0  0  0  0  0  0  0  0  0
   -5.7994    4.3372   -5.9247 H   0  0  0  0  0  0  0  0  0  0  0  0
   -5.3402    5.4690   -3.8063 H   0  0  0  0  0  0  0  0  0  0  0  0
   -4.6639    4.4455   -2.4794 H   0  0  0  0  0  0  0  0  0  0  0  0
   -2.5733    5.0199   -4.5547 H   0  0  0  0  0  0  0  0  0  0  0  0
   -2.6590    5.3794   -2.8176 H   0  0  0  0  0  0  0  0  0  0  0  0
   -3.4457    6.5237   -3.9155 H   0  0  0  0  0  0  0  0  0  0  0  0
   -3.6201    2.2512   -3.0032 H   0  0  0  0  0  0  0  0  0  0  0  0
   -1.4374   -5.1923    9.6325 H   0  0  0  0  0  0  0  0  0  0  0  0
   -2.5459   -5.9295   11.7425 H   0  0  0  0  0  0  0  0  0  0  0  0
   -4.8380   -5.3383   12.1655 H   0  0  0  0  0  0  0  0  0  0  0  0
   -6.8690   -3.1495   10.0182 H   0  0  0  0  0  0  0  0  0  0  0  0
   -6.7888   -3.8995   11.7170 H   0  0  0  0  0  0  0  0  0  0  0  0
   -7.6351   -5.0604    9.0765 H   0  0  0  0  0  0  0  0  0  0  0  0
   -8.1822   -5.4925   10.7427 H   0  0  0  0  0  0  0  0  0  0  0  0
   -6.6301   -6.1002   10.0571 H   0  0  0  0  0  0  0  0  0  0  0  0
   -5.0732   -3.3146    8.4040 H   0  0  0  0  0  0  0  0  0  0  0  0
   -1.4444   -4.6316    0.2275 H   0  0  0  0  0  0  0  0  0  0  0  0
   -0.7224   -3.1513   -0.5847 H   0  0  0  0  0  0  0  0  0  0  0  0
   -1.8887   -4.0971   -2.6261 H   0  0  0  0  0  0  0  0  0  0  0  0
   -2.4487   -5.4841   -1.5697 H   0  0  0  0  0  0  0  0  0  0  0  0
   -0.7212   -5.2457   -1.8096 H   0  0  0  0  0  0  0  0  0  0  0  0
   -0.5098   -3.4568    3.4093 H   0  0  0  0  0  0  0  0  0  0  0  0
   -0.7630   -3.1789    1.7827 H   0  0  0  0  0  0  0  0  0  0  0  0
   -0.9172   -6.1041    2.1423 H   0  0  0  0  0  0  0  0  0  0  0  0
    0.2634   -5.4974    3.2859 H   0  0  0  0  0  0  0  0  0  0  0  0
    0.4549   -5.1210    1.5532 H   0  0  0  0  0  0  0  0  0  0  0  0
    0.4827   -4.0952    9.9106 H   0  0  0  0  0  0  0  0  0  0  0  0
    3.7916   -4.3987   11.2138 H   0  0  0  0  0  0  0  0  0  0  0  0
    4.3480   -2.7394   11.6205 H   0  0  0  0  0  0  0  0  0  0  0  0
    3.4500   -3.5595   13.5095 H   0  0  0  0  0  0  0  0  0  0  0  0
    2.1068   -2.5653   12.9369 H   0  0  0  0  0  0  0  0  0  0  0  0
    2.0156   -4.3835   12.6778 H   0  0  0  0  0  0  0  0  0  0  0  0
    1.4297   -0.0279    7.1419 H   0  0  0  0  0  0  0  0  0  0  0  0
   -0.1375   -0.3607    4.9423 H   0  0  0  0  0  0  0  0  0  0  0  0
   -0.9625    0.6948    6.1293 H   0  0  0  0  0  0  0  0  0  0  0  0
   -2.7434    0.4798    4.8860 H   0  0  0  0  0  0  0  0  0  0  0  0
   -2.9450   -1.2621    5.3385 H   0  0  0  0  0  0  0  0  0  0  0  0
   -2.0554   -0.7567    3.8331 H   0  0  0  0  0  0  0  0  0  0  0  0
    4.1546   -1.7837    8.3910 H   0  0  0  0  0  0  0  0  0  0  0  0
    3.2300    4.3944    7.3644 H   0  0  0  0  0  0  0  0  0  0  0  0
    7.2450    1.9245    5.8415 H   0  0  0  0  0  0  0  0  0  0  0  0
    6.5310    4.7566    3.9404 H   0  0  0  0  0  0  0  0  0  0  0  0
    8.8773    5.2950    4.7785 H   0  0  0  0  0  0  0  0  0  0  0  0
    9.0538    4.6669    7.2594 H   0  0  0  0  0  0  0  0  0  0  0  0
    7.0269    5.5899    8.5547 H   0  0  0  0  0  0  0  0  0  0  0  0
    5.9954    7.4851    6.9444 H   0  0  0  0  0  0  0  0  0  0  0  0
    7.1859    7.2848    4.6138 H   0  0  0  0  0  0  0  0  0  0  0  0
    8.4021    7.4909    6.0390 H   0  0  0  0  0  0  0  0  0  0  0  0
    4.9739    6.2155    4.9562 H   0  0  0  0  0  0  0  0  0  0  0  0
  1  2  2  3
  2  3  1  0
  3  4  2  0
  3  5  1  0
  5  6  2  0
  6  7  1  0
  7  8  2  0
  8  9  1  0
  9 10  2  0
 10 11  1  0
 11 12  2  3
 12 13  1  0
 13 14  3  0
 12 15  1  0
 15 16  3  0
  8 17  1  0
 17 18  1  0
 18 19  1  0
 19 20  2  0
 20 21  1  0
 21 22  1  0
 21 23  1  0
  1 24  1  0
 24 25  2  0
 25 26  1  0
 26 27  1  0
 27 28  1  0
 26 29  2  0
 29 30  1  0
 29 31  1  0
 31 32  2  0
 32 33  1  0
 33 34  2  0
 34 35  1  0
 35 36  2  0
 36 37  1  0
 37 38  1  0
 38 39  1  0
 37 40  2  0
 32 41  1  0
 41 42  1  0
 42 43  1  0
 43 44  1  0
 44 45  1  0
 45 46  1  0
 46 47  2  0
 47 48  1  0
 48 49  1  0
 46 50  1  0
 50 51  1  0
 51 52  1  0
 52 53  1  0
 53 54  1  0
 54 55  1  0
 55 56  2  0
 56 57  1  0
 57 58  2  0
 58 59  1  0
 59 60  1  0
 60 61  1  0
 59 62  2  0
 54 63  2  0
 63 64  1  0
 64 65  1  0
 65 66  1  0
 66 67  1  0
 67 68  1  0
 68 69  1  0
 69 70  1  0
 70 71  1  0
 71 72  1  0
 72 73  1  0
 70 74  1  0
 74 75  1  0
 67 76  1  0
 76 77  1  0
 63 78  1  0
 78 79  2  0
 79 80  1  0
 80 81  1  0
 81 82  1  0
 82 83  1  0
 80 84  2  0
 84 85  1  0
 85 86  2  0
 86 87  1  0
 87 88  1  0
 88 89  1  0
 84 90  1  0
 90 91  2  3
 91 92  1  0
 92 93  2  0
 92 94  1  0
 94 95  2  0
 95 96  1  0
 96 97  2  0
 97 98  1  0
 98 99  2  0
 99100  1  0
100101  2  3
101102  1  0
102103  3  0
101104  1  0
104105  3  0
 97106  1  0
106107  1  0
107108  1  0
108109  2  0
109110  1  0
110111  1  0
110112  1  0
 11  2  1  0
 23 17  1  0
 30 24  1  0
 73 31  1  0
 86 78  1  0
100 91  1  0
112106  1  0
 10  5  1  0
 22 18  1  0
 40 33  1  0
 72 41  2  0
 99 94  1  0
111107  1  0
 23  7  1  0
 71 43  2  0
112 96  1  0
 69 44  2  0
 49 45  2  0
 68 50  2  0
 66 51  2  0
 65 53  2  0
 62 55  1  0
  1113  1  0
  6114  1  0
  9115  1  0
 17116  1  0
 18117  1  0
 19118  1  0
 20119  1  0
 21120  1  0
 22121  1  0
 22122  1  0
 23123  1  0
 25124  1  0
 27125  1  0
 27126  1  0
 28127  1  0
 28128  1  0
 28129  1  0
 34130  1  0
 35131  1  0
 36132  1  0
 38133  1  0
 38134  1  0
 39135  1  0
 39136  1  0
 39137  1  0
 40138  1  0
 56139  1  0
 57140  1  0
 58141  1  0
 60142  1  0
 60143  1  0
 61144  1  0
 61145  1  0
 61146  1  0
 62147  1  0
 74148  1  0
 74149  1  0
 75150  1  0
 75151  1  0
 75152  1  0
 76153  1  0
 76154  1  0
 77155  1  0
 77156  1  0
 77157  1  0
 79158  1  0
 82159  1  0
 82160  1  0
 83161  1  0
 83162  1  0
 83163  1  0
 85164  1  0
 88165  1  0
 88166  1  0
 89167  1  0
 89168  1  0
 89169  1  0
 90170  1  0
 95171  1  0
 98172  1  0
106173  1  0
107174  1  0
108175  1  0
109176  1  0
110177  1  0
111178  1  0
111179  1  0
112180  1  0
M  END

