
     RDKit          3D

169190  0  0  0  0  0  0  0  0999 V2000
    5.1370   -7.1136    0.8921 C   0  0  0  0  0  0  0  0  0  0  0  0
    5.1478   -5.7356    0.9404 C   0  0  0  0  0  0  0  0  0  0  0  0
    3.9559   -4.8852    0.8710 C   0  0  0  0  0  0  0  0  0  0  0  0
    2.8629   -5.2520    0.3617 O   0  0  0  0  0  0  0  0  0  0  0  0
    4.2009   -3.5911    1.4354 C   0  0  0  0  0  0  0  0  0  0  0  0
    3.3532   -2.5154    1.6333 C   0  0  0  0  0  0  0  0  0  0  0  0
    3.7567   -1.3713    2.2551 C   0  0  0  0  0  0  0  0  0  0  0  0
    5.0667   -1.2528    2.7133 C   0  0  0  0  0  0  0  0  0  0  0  0
    5.8940   -2.3665    2.4947 C   0  0  0  0  0  0  0  0  0  0  0  0
    5.5076   -3.5191    1.8842 C   0  0  0  0  0  0  0  0  0  0  0  0
    6.1274   -4.8683    1.5843 C   0  0  0  0  0  0  0  0  0  0  0  0
    7.3576   -5.2021    2.0256 C   0  0  0  0  0  0  0  0  0  0  0  0
    8.1556   -4.2135    2.6403 C   0  0  0  0  0  0  0  0  0  0  0  0
    8.8574   -3.3629    3.1542 N   0  0  0  0  0  0  0  0  0  0  0  0
    7.8547   -6.5222    2.1286 C   0  0  0  0  0  0  0  0  0  0  0  0
    8.2904   -7.6629    2.2102 N   0  0  0  0  0  0  0  0  0  0  0  0
    4.7554    0.0861    3.1977 C   0  0  0  0  0  0  0  0  0  0  0  0
    5.2493    1.2031    2.3422 C   0  0  0  0  0  0  0  0  0  0  0  0
    4.5490    2.4295    2.8441 C   0  0  0  0  0  0  0  0  0  0  0  0
    3.2587    2.3225    2.5614 C   0  0  0  0  0  0  0  0  0  0  0  0
    3.0847    1.0347    1.7793 C   0  0  0  0  0  0  0  0  0  0  0  0
    4.4433    1.0101    1.0742 C   0  0  0  0  0  0  0  0  0  0  0  0
    3.3118   -0.0564    2.7735 C   0  0  0  0  0  0  0  0  0  0  0  0
    3.7620   -7.6009    0.8298 C   0  0  0  0  0  0  0  0  0  0  0  0
    3.0188   -7.6424    1.9761 C   0  0  0  0  0  0  0  0  0  0  0  0
    1.6882   -7.7362    1.9852 C   0  0  0  0  0  0  0  0  0  0  0  0
    0.9246   -7.5266    3.3062 C   0  0  0  0  0  0  0  0  0  0  0  0
    1.6176   -6.3232    4.0197 C   0  0  0  0  0  0  0  0  0  0  0  0
    1.0059   -7.8065    0.8194 C   0  0  0  0  0  0  0  0  0  0  0  0
    2.3448   -7.7612   -0.4748 Se  0  0  0  0  0  2  0  0  0  0  0  0
   -0.4275   -7.4693    0.5604 C   0  0  0  0  0  0  0  0  0  0  0  0
   -1.5910   -7.6210    1.2163 C   0  0  0  0  0  0  0  0  0  0  0  0
   -1.7292   -8.7249    2.2211 C   0  0  0  0  0  0  0  0  0  0  0  0
   -1.2188   -9.9625    2.0032 C   0  0  0  0  0  0  0  0  0  0  0  0
   -1.3658  -10.9650    2.9060 C   0  0  0  0  0  0  0  0  0  0  0  0
   -2.0398  -10.7848    4.0909 C   0  0  0  0  0  0  0  0  0  0  0  0
   -2.5712   -9.5131    4.3285 C   0  0  0  0  0  0  0  0  0  0  0  0
   -3.3165   -9.3545    5.5620 C   0  0  0  0  0  0  0  0  0  0  0  0
   -2.4409   -8.9360    6.7222 C   0  0  0  0  0  0  0  0  0  0  0  0
   -2.4104   -8.4921    3.3877 C   0  0  0  0  0  0  0  0  0  0  0  0
   -2.5991   -6.7579    0.8595 C   0  0  0  0  0  0  0  0  0  0  0  0
   -4.0958   -6.2189    1.5899 S   0  0  0  0  0  0  0  0  0  0  0  0
   -4.3807   -4.8278    0.5921 C   0  0  0  0  0  0  0  0  0  0  0  0
   -5.1221   -3.6719    0.4184 C   0  0  0  0  0  0  0  0  0  0  0  0
   -6.1896   -3.1474    1.1471 C   0  0  0  0  0  0  0  0  0  0  0  0
   -6.6211   -1.8910    0.8548 C   0  0  0  0  0  0  0  0  0  0  0  0
   -7.6577   -1.4450    1.5833 N   0  0  0  0  0  0  0  0  0  0  0  0
   -8.0172   -2.6989    2.6164 S   0  0  0  0  0  0  0  0  0  0  0  0
   -6.8486   -3.7804    2.1185 N   0  0  0  0  0  0  0  0  0  0  0  0
   -5.9782   -1.1824   -0.1577 C   0  0  0  0  0  0  0  0  0  0  0  0
   -6.1085    0.1578   -0.5360 C   0  0  0  0  0  0  0  0  0  0  0  0
   -6.8409    1.6734   -0.2587 S   0  0  0  0  0  0  0  0  0  0  0  0
   -5.8717    2.6294   -1.3796 C   0  0  0  0  0  0  0  0  0  0  0  0
   -5.7033    3.9695   -1.7943 C   0  0  0  0  0  0  0  0  0  0  0  0
   -6.4425    5.0689   -1.0775 C   0  0  0  0  0  0  0  0  0  0  0  0
   -7.1631    6.0199   -1.7581 C   0  0  0  0  0  0  0  0  0  0  0  0
   -7.7452    7.0675   -1.0183 C   0  0  0  0  0  0  0  0  0  0  0  0
   -7.5765    7.0990    0.3833 C   0  0  0  0  0  0  0  0  0  0  0  0
   -6.8517    6.1394    1.0424 C   0  0  0  0  0  0  0  0  0  0  0  0
   -6.6366    6.1569    2.5027 C   0  0  0  0  0  0  0  0  0  0  0  0
   -5.3766    6.8550    2.9362 C   0  0  0  0  0  0  0  0  0  0  0  0
   -6.2953    5.1335    0.2983 C   0  0  0  0  0  0  0  0  0  0  0  0
   -4.7573    4.2305   -2.6842 C   0  0  0  0  0  0  0  0  0  0  0  0
   -4.1048    2.6769   -2.9518 S   0  0  0  0  0  0  0  0  0  0  0  0
   -5.0858    1.7288   -1.8793 C   0  0  0  0  0  0  0  0  0  0  0  0
   -5.1801    0.4024   -1.4525 C   0  0  0  0  0  0  0  0  0  0  0  0
   -4.4217   -0.7577   -1.6844 N   0  0  0  0  0  0  0  0  0  0  0  0
   -4.9362   -1.6927   -0.8871 C   0  0  0  0  0  0  0  0  0  0  0  0
   -4.4795   -2.9630   -0.6093 C   0  0  0  0  0  0  0  0  0  0  0  0
   -3.4348   -3.6758   -1.0329 N   0  0  0  0  0  0  0  0  0  0  0  0
   -3.3445   -4.8441   -0.2621 C   0  0  0  0  0  0  0  0  0  0  0  0
   -2.4375   -5.8759   -0.0735 C   0  0  0  0  0  0  0  0  0  0  0  0
   -0.8055   -6.1698   -0.5494 S   0  0  0  0  0  0  0  0  0  0  0  0
   -2.5893   -3.5493   -2.1764 C   0  0  0  0  0  0  0  0  0  0  0  0
   -1.2300   -3.0424   -2.0337 C   0  0  0  0  0  0  0  0  0  0  0  0
   -3.3069   -0.6895   -2.5960 C   0  0  0  0  0  0  0  0  0  0  0  0
   -2.1052   -0.0713   -1.8605 C   0  0  0  0  0  0  0  0  0  0  0  0
   -4.1951    5.4102   -3.3201 C   0  0  0  0  0  0  0  0  0  0  0  0
   -3.9243    6.6760   -3.0062 C   0  0  0  0  0  0  0  0  0  0  0  0
   -3.1320    7.4413   -3.7132 C   0  0  0  0  0  0  0  0  0  0  0  0
   -2.8442    8.9034   -3.3580 C   0  0  0  0  0  0  0  0  0  0  0  0
   -1.4894    9.0240   -2.7454 C   0  0  0  0  0  0  0  0  0  0  0  0
   -2.5079    6.9944   -4.8518 C   0  0  0  0  0  0  0  0  0  0  0  0
   -3.1786    5.2223   -4.9205 Se  0  0  0  0  0  2  0  0  0  0  0  0
   -1.4326    7.5872   -5.6451 C   0  0  0  0  0  0  0  0  0  0  0  0
   -0.1992    7.2363   -5.2268 C   0  0  0  0  0  0  0  0  0  0  0  0
    0.0617    6.3263   -4.1070 C   0  0  0  0  0  0  0  0  0  0  0  0
   -0.7958    5.6122   -3.5300 O   0  0  0  0  0  0  0  0  0  0  0  0
    1.4834    6.3799   -3.7667 C   0  0  0  0  0  0  0  0  0  0  0  0
    2.1676    5.7028   -2.7923 C   0  0  0  0  0  0  0  0  0  0  0  0
    3.5190    5.8877   -2.6155 C   0  0  0  0  0  0  0  0  0  0  0  0
    4.1542    6.7806   -3.4464 C   0  0  0  0  0  0  0  0  0  0  0  0
    3.4450    7.4627   -4.4455 C   0  0  0  0  0  0  0  0  0  0  0  0
    2.1101    7.2693   -4.6154 C   0  0  0  0  0  0  0  0  0  0  0  0
    1.0850    7.8402   -5.5669 C   0  0  0  0  0  0  0  0  0  0  0  0
    1.3829    8.5430   -6.5726 C   0  0  0  0  0  0  0  0  0  0  0  0
    0.4356    8.9011   -7.6956 C   0  0  0  0  0  0  0  0  0  0  0  0
   -0.2193    9.1547   -8.4937 N   0  0  0  0  0  0  0  0  0  0  0  0
    2.6222    9.3428   -6.7204 C   0  0  0  0  0  0  0  0  0  0  0  0
    3.5578    9.9344   -6.8347 N   0  0  0  0  0  0  0  0  0  0  0  0
    5.4424    6.5646   -2.6746 C   0  0  0  0  0  0  0  0  0  0  0  0
    5.7037    7.6321   -1.6210 C   0  0  0  0  0  0  0  0  0  0  0  0
    6.7056    7.0545   -0.7047 C   0  0  0  0  0  0  0  0  0  0  0  0
    6.1553    6.0925   -0.0092 C   0  0  0  0  0  0  0  0  0  0  0  0
    4.7588    5.9694   -0.4338 C   0  0  0  0  0  0  0  0  0  0  0  0
    4.4328    7.4428   -0.7425 C   0  0  0  0  0  0  0  0  0  0  0  0
    4.7582    5.4737   -1.8897 C   0  0  0  0  0  0  0  0  0  0  0  0
    6.0025   -7.6395    0.8850 H   0  0  0  0  0  0  0  0  0  0  0  0
    2.3373   -2.6132    1.2610 H   0  0  0  0  0  0  0  0  0  0  0  0
    6.8743   -2.2178    2.8494 H   0  0  0  0  0  0  0  0  0  0  0  0
    4.9113    0.2323    4.3079 H   0  0  0  0  0  0  0  0  0  0  0  0
    6.3205    1.2986    2.1685 H   0  0  0  0  0  0  0  0  0  0  0  0
    5.0111    3.2440    3.3701 H   0  0  0  0  0  0  0  0  0  0  0  0
    2.5107    3.0452    2.8557 H   0  0  0  0  0  0  0  0  0  0  0  0
    2.2646    1.0049    1.1187 H   0  0  0  0  0  0  0  0  0  0  0  0
    4.5800    1.8983    0.3975 H   0  0  0  0  0  0  0  0  0  0  0  0
    4.6283    0.0589    0.5498 H   0  0  0  0  0  0  0  0  0  0  0  0
    2.5579   -0.1207    3.5880 H   0  0  0  0  0  0  0  0  0  0  0  0
    3.5865   -7.6065    2.9485 H   0  0  0  0  0  0  0  0  0  0  0  0
    0.9352   -8.3658    3.9239 H   0  0  0  0  0  0  0  0  0  0  0  0
   -0.0362   -7.0441    3.0227 H   0  0  0  0  0  0  0  0  0  0  0  0
    0.8481   -5.7314    4.5238 H   0  0  0  0  0  0  0  0  0  0  0  0
    2.4350   -6.6814    4.6769 H   0  0  0  0  0  0  0  0  0  0  0  0
    2.1119   -5.6944    3.2527 H   0  0  0  0  0  0  0  0  0  0  0  0
   -0.6956  -10.1250    1.0632 H   0  0  0  0  0  0  0  0  0  0  0  0
   -0.9467  -11.9757    2.7385 H   0  0  0  0  0  0  0  0  0  0  0  0
   -2.1423  -11.5826    4.8037 H   0  0  0  0  0  0  0  0  0  0  0  0
   -4.1687   -8.6400    5.4933 H   0  0  0  0  0  0  0  0  0  0  0  0
   -3.7876  -10.3487    5.8082 H   0  0  0  0  0  0  0  0  0  0  0  0
   -1.8756   -9.8610    7.0554 H   0  0  0  0  0  0  0  0  0  0  0  0
   -1.7148   -8.1908    6.3876 H   0  0  0  0  0  0  0  0  0  0  0  0
   -3.0620   -8.6083    7.5904 H   0  0  0  0  0  0  0  0  0  0  0  0
   -2.8194   -7.5154    3.5625 H   0  0  0  0  0  0  0  0  0  0  0  0
   -7.3142    6.0196   -2.8369 H   0  0  0  0  0  0  0  0  0  0  0  0
   -8.3168    7.8285   -1.4873 H   0  0  0  0  0  0  0  0  0  0  0  0
   -8.0360    7.9272    0.9217 H   0  0  0  0  0  0  0  0  0  0  0  0
   -7.4712    6.7086    3.0323 H   0  0  0  0  0  0  0  0  0  0  0  0
   -6.6575    5.1421    2.9749 H   0  0  0  0  0  0  0  0  0  0  0  0
   -5.3492    7.9235    2.5246 H   0  0  0  0  0  0  0  0  0  0  0  0
   -5.4055    7.0126    4.0305 H   0  0  0  0  0  0  0  0  0  0  0  0
   -4.4407    6.3443    2.6567 H   0  0  0  0  0  0  0  0  0  0  0  0
   -5.7253    4.3689    0.8009 H   0  0  0  0  0  0  0  0  0  0  0  0
   -3.1706   -3.2896   -3.0927 H   0  0  0  0  0  0  0  0  0  0  0  0
   -2.3845   -4.6615   -2.5809 H   0  0  0  0  0  0  0  0  0  0  0  0
   -0.4217   -3.8571   -2.2013 H   0  0  0  0  0  0  0  0  0  0  0  0
   -0.9262   -2.5713   -1.1047 H   0  0  0  0  0  0  0  0  0  0  0  0
   -0.9148   -2.3406   -2.8791 H   0  0  0  0  0  0  0  0  0  0  0  0
   -3.5307    0.1814   -3.3403 H   0  0  0  0  0  0  0  0  0  0  0  0
   -3.1159   -1.4261   -3.3349 H   0  0  0  0  0  0  0  0  0  0  0  0
   -1.9616   -0.5034   -0.8528 H   0  0  0  0  0  0  0  0  0  0  0  0
   -1.2124   -0.0631   -2.5113 H   0  0  0  0  0  0  0  0  0  0  0  0
   -2.2755    1.0198   -1.6334 H   0  0  0  0  0  0  0  0  0  0  0  0
   -4.4413    7.0659   -2.0607 H   0  0  0  0  0  0  0  0  0  0  0  0
   -2.8483    9.5437   -4.2607 H   0  0  0  0  0  0  0  0  0  0  0  0
   -3.5649    9.2804   -2.6378 H   0  0  0  0  0  0  0  0  0  0  0  0
   -0.6987    9.4026   -3.4486 H   0  0  0  0  0  0  0  0  0  0  0  0
   -1.5132    9.8239   -1.9393 H   0  0  0  0  0  0  0  0  0  0  0  0
   -1.2081    8.1087   -2.2081 H   0  0  0  0  0  0  0  0  0  0  0  0
   -1.6088    8.2137   -6.4341 H   0  0  0  0  0  0  0  0  0  0  0  0
    1.6399    4.9997   -2.1424 H   0  0  0  0  0  0  0  0  0  0  0  0
    4.0060    8.1305   -5.0566 H   0  0  0  0  0  0  0  0  0  0  0  0
    6.2875    6.2269   -3.2691 H   0  0  0  0  0  0  0  0  0  0  0  0
    5.8456    8.6230   -1.9658 H   0  0  0  0  0  0  0  0  0  0  0  0
    7.7503    7.4082   -0.6553 H   0  0  0  0  0  0  0  0  0  0  0  0
    6.5995    5.4587    0.7442 H   0  0  0  0  0  0  0  0  0  0  0  0
    4.0241    5.5284    0.2212 H   0  0  0  0  0  0  0  0  0  0  0  0
    4.4262    8.0717    0.1219 H   0  0  0  0  0  0  0  0  0  0  0  0
    3.5084    7.5203   -1.3663 H   0  0  0  0  0  0  0  0  0  0  0  0
    5.0724    4.4618   -2.0170 H   0  0  0  0  0  0  0  0  0  0  0  0
  1  2  2  3
  2  3  1  0
  3  4  2  0
  3  5  1  0
  5  6  2  0
  6  7  1  0
  7  8  2  0
  8  9  1  0
  9 10  2  0
 10 11  1  0
 11 12  2  3
 12 13  1  0
 13 14  3  0
 12 15  1  0
 15 16  3  0
  8 17  1  0
 17 18  1  0
 18 19  1  0
 19 20  2  0
 20 21  1  0
 21 22  1  0
 21 23  1  0
  1 24  1  0
 24 25  2  0
 25 26  1  0
 26 27  1  0
 27 28  1  0
 26 29  2  0
 29 30  1  0
 29 31  1  0
 31 32  2  0
 32 33  1  0
 33 34  2  0
 34 35  1  0
 35 36  2  0
 36 37  1  0
 37 38  1  0
 38 39  1  0
 37 40  2  0
 32 41  1  0
 41 42  1  0
 42 43  1  0
 43 44  1  0
 44 45  1  0
 45 46  1  0
 46 47  2  0
 47 48  1  0
 48 49  1  0
 46 50  1  0
 50 51  1  0
 51 52  1  0
 52 53  1  0
 53 54  1  0
 54 55  1  0
 55 56  2  0
 56 57  1  0
 57 58  2  0
 58 59  1  0
 59 60  1  0
 60 61  1  0
 59 62  2  0
 54 63  2  0
 63 64  1  0
 64 65  1  0
 65 66  1  0
 66 67  1  0
 67 68  1  0
 68 69  1  0
 69 70  1  0
 70 71  1  0
 71 72  1  0
 72 73  1  0
 70 74  1  0
 74 75  1  0
 67 76  1  0
 76 77  1  0
 63 78  1  0
 78 79  2  0
 79 80  1  0
 80 81  1  0
 81 82  1  0
 80 83  2  0
 83 84  1  0
 83 85  1  0
 85 86  2  3
 86 87  1  0
 87 88  2  0
 87 89  1  0
 89 90  2  0
 90 91  1  0
 91 92  2  0
 92 93  1  0
 93 94  2  0
 94 95  1  0
 95 96  2  3
 96 97  1  0
 97 98  3  0
 96 99  1  0
 99100  3  0
 92101  1  0
101102  1  0
102103  1  0
103104  2  0
104105  1  0
105106  1  0
105107  1  0
 11  2  1  0
 23 17  1  0
 30 24  1  0
 73 31  1  0
 84 78  1  0
 95 86  1  0
107101  1  0
 10  5  1  0
 22 18  1  0
 40 33  1  0
 72 41  2  0
 94 89  1  0
106102  1  0
 23  7  1  0
 71 43  2  0
107 91  1  0
 69 44  2  0
 49 45  2  0
 68 50  2  0
 66 51  2  0
 65 53  2  0
 62 55  1  0
  1108  1  0
  6109  1  0
  9110  1  0
 17111  1  0
 18112  1  0
 19113  1  0
 20114  1  0
 21115  1  0
 22116  1  0
 22117  1  0
 23118  1  0
 25119  1  0
 27120  1  0
 27121  1  0
 28122  1  0
 28123  1  0
 28124  1  0
 34125  1  0
 35126  1  0
 36127  1  0
 38128  1  0
 38129  1  0
 39130  1  0
 39131  1  0
 39132  1  0
 40133  1  0
 56134  1  0
 57135  1  0
 58136  1  0
 60137  1  0
 60138  1  0
 61139  1  0
 61140  1  0
 61141  1  0
 62142  1  0
 74143  1  0
 74144  1  0
 75145  1  0
 75146  1  0
 75147  1  0
 76148  1  0
 76149  1  0
 77150  1  0
 77151  1  0
 77152  1  0
 79153  1  0
 81154  1  0
 81155  1  0
 82156  1  0
 82157  1  0
 82158  1  0
 85159  1  0
 90160  1  0
 93161  1  0
101162  1  0
102163  1  0
103164  1  0
104165  1  0
105166  1  0
106167  1  0
106168  1  0
107169  1  0
M  END

