
     RDKit          3D

231260  0  0  0  0  0  0  0  0999 V2000
    8.4352   -1.8529   -2.1872 C   0  0  0  0  0  0  0  0  0  0  0  0
    8.5726   -0.9346   -1.2109 C   0  0  0  0  0  0  0  0  0  0  0  0
    7.9223    0.3848   -1.1612 C   0  0  0  0  0  0  0  0  0  0  0  0
    6.8197    0.6905   -1.6820 O   0  0  0  0  0  0  0  0  0  0  0  0
    8.6877    1.2396   -0.2842 C   0  0  0  0  0  0  0  0  0  0  0  0
    8.5557    2.6377   -0.1284 C   0  0  0  0  0  0  0  0  0  0  0  0
    9.5302    3.1997    0.6756 C   0  0  0  0  0  0  0  0  0  0  0  0
   10.5776    2.4391    1.2920 C   0  0  0  0  0  0  0  0  0  0  0  0
   10.7123    1.0679    1.1385 C   0  0  0  0  0  0  0  0  0  0  0  0
    9.7053    0.4683    0.3315 C   0  0  0  0  0  0  0  0  0  0  0  0
    9.5731   -0.9476   -0.1028 C   0  0  0  0  0  0  0  0  0  0  0  0
   10.0372   -2.0376    0.5628 C   0  0  0  0  0  0  0  0  0  0  0  0
    9.6634   -3.3790    0.1925 C   0  0  0  0  0  0  0  0  0  0  0  0
    9.3640   -4.4598   -0.0948 N   0  0  0  0  0  0  0  0  0  0  0  0
   10.7415   -1.9226    1.8103 C   0  0  0  0  0  0  0  0  0  0  0  0
   11.2963   -1.8386    2.8206 N   0  0  0  0  0  0  0  0  0  0  0  0
   11.1492    3.6880    1.8973 C   0  0  0  0  0  0  0  0  0  0  0  0
   10.9235    3.9351    3.4194 C   0  0  0  0  0  0  0  0  0  0  0  0
    9.6201    3.3134    3.8588 C   0  0  0  0  0  0  0  0  0  0  0  0
    8.6470    4.0214    3.2824 C   0  0  0  0  0  0  0  0  0  0  0  0
    9.3215    5.0988    2.4693 C   0  0  0  0  0  0  0  0  0  0  0  0
   10.4960    5.3903    3.3861 C   0  0  0  0  0  0  0  0  0  0  0  0
   10.0775    4.4664    1.2629 C   0  0  0  0  0  0  0  0  0  0  0  0
    7.5595   -1.6813   -3.3593 C   0  0  0  0  0  0  0  0  0  0  0  0
    6.6464   -2.6308   -3.8010 C   0  0  0  0  0  0  0  0  0  0  0  0
    5.8920   -2.1925   -4.9041 C   0  0  0  0  0  0  0  0  0  0  0  0
    4.8098   -2.8771   -5.5018 C   0  0  0  0  0  0  0  0  0  0  0  0
    4.4326   -4.2525   -5.0982 C   0  0  0  0  0  0  0  0  0  0  0  0
    5.3160   -5.3160   -4.9156 C   0  0  0  0  0  0  0  0  0  0  0  0
    4.6954   -6.4826   -4.4613 C   0  0  0  0  0  0  0  0  0  0  0  0
    5.5796   -7.9573   -4.1147 Cl  0  0  0  0  0  0  0  0  0  0  0  0
    3.3248   -6.3465   -4.2926 C   0  0  0  0  0  0  0  0  0  0  0  0
    2.1981   -7.6241   -3.7348 S   0  0  0  0  0  0  0  0  0  0  0  0
    2.1870   -7.0354   -2.0126 C   0  0  0  0  0  0  0  0  0  0  0  0
    1.3474   -7.9699   -1.1541 C   0  0  0  0  0  0  0  0  0  0  0  0
    2.8782   -4.7800   -4.7041 S   0  0  0  0  0  0  0  0  0  0  0  0
    4.0719   -2.1588   -6.4679 C   0  0  0  0  0  0  0  0  0  0  0  0
    4.3860   -0.8452   -6.8407 C   0  0  0  0  0  0  0  0  0  0  0  0
    5.5126   -0.1941   -6.2950 C   0  0  0  0  0  0  0  0  0  0  0  0
    5.8871    1.1816   -6.6708 C   0  0  0  0  0  0  0  0  0  0  0  0
    7.3668    1.6256   -7.3374 S   0  0  0  0  0  0  0  0  0  0  0  0
    6.9995    3.2582   -7.4937 C   0  0  0  0  0  0  0  0  0  0  0  0
    8.0775    4.4742   -8.2507 S   0  0  0  0  0  0  0  0  0  0  0  0
    8.8179    5.0413   -6.6803 C   0  0  0  0  0  0  0  0  0  0  0  0
    9.9397    4.1114   -6.2341 C   0  0  0  0  0  0  0  0  0  0  0  0
    5.7057    3.4755   -7.0357 C   0  0  0  0  0  0  0  0  0  0  0  0
    5.0821    2.3127   -6.5644 C   0  0  0  0  0  0  0  0  0  0  0  0
    4.9050    5.0372   -7.0591 Cl  0  0  0  0  0  0  0  0  0  0  0  0
    6.2415   -0.9018   -5.3253 C   0  0  0  0  0  0  0  0  0  0  0  0
    7.4952   -0.3265   -4.3641 S   0  0  0  0  0  0  0  0  0  0  0  0
    3.4522   -0.2840   -7.7306 C   0  0  0  0  0  0  0  0  0  0  0  0
    2.4191   -1.1557   -8.0633 C   0  0  0  0  0  0  0  0  0  0  0  0
    2.6630   -2.6177   -7.2622 S   0  0  0  0  0  0  0  0  0  0  0  0
    1.1234   -0.7422   -8.6216 C   0  0  0  0  0  0  0  0  0  0  0  0
    0.2332   -1.5738   -9.3288 C   0  0  0  0  0  0  0  0  0  0  0  0
    0.6056   -2.8897   -9.8842 C   0  0  0  0  0  0  0  0  0  0  0  0
   -0.0928   -4.0512   -9.5171 C   0  0  0  0  0  0  0  0  0  0  0  0
    0.2973   -5.2942  -10.0183 C   0  0  0  0  0  0  0  0  0  0  0  0
    1.3744   -5.3895  -10.9003 C   0  0  0  0  0  0  0  0  0  0  0  0
    2.0791   -4.2375  -11.2810 C   0  0  0  0  0  0  0  0  0  0  0  0
    3.2766   -4.3504  -12.1862 C   0  0  0  0  0  0  0  0  0  0  0  0
    4.5327   -4.6639  -11.3796 C   0  0  0  0  0  0  0  0  0  0  0  0
    1.6962   -2.9905  -10.7634 C   0  0  0  0  0  0  0  0  0  0  0  0
   -1.0640   -1.0484   -9.3183 C   0  0  0  0  0  0  0  0  0  0  0  0
   -2.5819   -1.7922   -9.5146 S   0  0  0  0  0  0  0  0  0  0  0  0
   -3.3806   -0.5233   -8.7235 C   0  0  0  0  0  0  0  0  0  0  0  0
   -4.4073   -0.5393   -7.8122 C   0  0  0  0  0  0  0  0  0  0  0  0
   -5.5410   -1.3532   -7.7112 C   0  0  0  0  0  0  0  0  0  0  0  0
   -6.3978   -1.1992   -6.5808 C   0  0  0  0  0  0  0  0  0  0  0  0
   -7.4738   -2.0212   -6.5136 N   0  0  0  0  0  0  0  0  0  0  0  0
   -7.2705   -2.8698   -7.9198 S   0  0  0  0  0  0  0  0  0  0  0  0
   -5.8905   -2.2889   -8.6272 N   0  0  0  0  0  0  0  0  0  0  0  0
   -6.0344   -0.2948   -5.5731 C   0  0  0  0  0  0  0  0  0  0  0  0
   -6.4505   -0.2395   -4.2684 C   0  0  0  0  0  0  0  0  0  0  0  0
   -7.4789   -1.1608   -3.2755 S   0  0  0  0  0  0  0  0  0  0  0  0
   -6.5902   -0.7299   -1.8850 C   0  0  0  0  0  0  0  0  0  0  0  0
   -6.6489   -1.1248   -0.5477 C   0  0  0  0  0  0  0  0  0  0  0  0
   -7.8372   -1.7562    0.0465 C   0  0  0  0  0  0  0  0  0  0  0  0
   -8.2072   -3.0605   -0.3074 C   0  0  0  0  0  0  0  0  0  0  0  0
   -9.3596   -3.6293    0.2366 C   0  0  0  0  0  0  0  0  0  0  0  0
  -10.1707   -2.8924    1.1059 C   0  0  0  0  0  0  0  0  0  0  0  0
   -9.8279   -1.5710    1.4420 C   0  0  0  0  0  0  0  0  0  0  0  0
  -10.7045   -0.7624    2.3633 C   0  0  0  0  0  0  0  0  0  0  0  0
  -10.2533   -0.8912    3.8144 C   0  0  0  0  0  0  0  0  0  0  0  0
   -8.6486   -1.0141    0.9218 C   0  0  0  0  0  0  0  0  0  0  0  0
   -5.5120   -0.6773    0.1618 C   0  0  0  0  0  0  0  0  0  0  0  0
   -4.5124    0.2176   -0.8927 S   0  0  0  0  0  0  0  0  0  0  0  0
   -5.5138    0.0457   -2.2149 C   0  0  0  0  0  0  0  0  0  0  0  0
   -5.4483    0.3533   -3.5680 C   0  0  0  0  0  0  0  0  0  0  0  0
   -4.4230    0.7626   -4.3555 N   0  0  0  0  0  0  0  0  0  0  0  0
   -4.8223    0.4183   -5.6228 C   0  0  0  0  0  0  0  0  0  0  0  0
   -4.0645    0.3866   -6.8221 C   0  0  0  0  0  0  0  0  0  0  0  0
   -2.9195    1.0504   -7.1593 N   0  0  0  0  0  0  0  0  0  0  0  0
   -2.5031    0.4351   -8.2915 C   0  0  0  0  0  0  0  0  0  0  0  0
   -1.1941    0.1434   -8.6490 C   0  0  0  0  0  0  0  0  0  0  0  0
    0.2754    0.5886   -7.9876 S   0  0  0  0  0  0  0  0  0  0  0  0
   -2.5941    2.4621   -6.8974 C   0  0  0  0  0  0  0  0  0  0  0  0
   -3.7513    3.3834   -7.2792 C   0  0  0  0  0  0  0  0  0  0  0  0
   -3.0661    1.0300   -3.8624 C   0  0  0  0  0  0  0  0  0  0  0  0
   -2.9821    2.4334   -3.2642 C   0  0  0  0  0  0  0  0  0  0  0  0
   -5.1406   -0.9505    1.5659 C   0  0  0  0  0  0  0  0  0  0  0  0
   -4.0267   -0.4045    2.1967 C   0  0  0  0  0  0  0  0  0  0  0  0
   -3.9197   -0.7595    3.5522 C   0  0  0  0  0  0  0  0  0  0  0  0
   -2.9400   -0.2880    4.4437 C   0  0  0  0  0  0  0  0  0  0  0  0
   -1.7769    0.4968    3.9773 C   0  0  0  0  0  0  0  0  0  0  0  0
   -0.9138    0.1158    2.9513 C   0  0  0  0  0  0  0  0  0  0  0  0
    0.0774    1.0666    2.6827 C   0  0  0  0  0  0  0  0  0  0  0  0
    1.2444    0.8731    1.3860 Cl  0  0  0  0  0  0  0  0  0  0  0  0
    0.0038    2.1851    3.5038 C   0  0  0  0  0  0  0  0  0  0  0  0
    1.0729    3.6226    3.4518 S   0  0  0  0  0  0  0  0  0  0  0  0
    2.1707    3.0592    4.8025 C   0  0  0  0  0  0  0  0  0  0  0  0
    3.2277    2.0915    4.2883 C   0  0  0  0  0  0  0  0  0  0  0  0
   -1.3084    2.0127    4.5397 S   0  0  0  0  0  0  0  0  0  0  0  0
   -3.1330   -0.5830    5.8007 C   0  0  0  0  0  0  0  0  0  0  0  0
   -4.1880   -1.3869    6.2601 C   0  0  0  0  0  0  0  0  0  0  0  0
   -5.0936   -1.9765    5.3464 C   0  0  0  0  0  0  0  0  0  0  0  0
   -6.0893   -2.9869    5.7832 C   0  0  0  0  0  0  0  0  0  0  0  0
   -5.7641   -4.2663    6.8421 S   0  0  0  0  0  0  0  0  0  0  0  0
   -7.2795   -4.9813    6.7277 C   0  0  0  0  0  0  0  0  0  0  0  0
   -7.7893   -6.4643    7.5981 S   0  0  0  0  0  0  0  0  0  0  0  0
   -7.1969   -7.6240    6.3143 C   0  0  0  0  0  0  0  0  0  0  0  0
   -5.7976   -8.1186    6.6570 C   0  0  0  0  0  0  0  0  0  0  0  0
   -8.0615   -4.2343    5.8590 C   0  0  0  0  0  0  0  0  0  0  0  0
   -7.4000   -3.1227    5.3282 C   0  0  0  0  0  0  0  0  0  0  0  0
   -9.7138   -4.6464    5.4295 Cl  0  0  0  0  0  0  0  0  0  0  0  0
   -4.9552   -1.5892    3.9936 C   0  0  0  0  0  0  0  0  0  0  0  0
   -5.9635   -1.9187    2.6796 S   0  0  0  0  0  0  0  0  0  0  0  0
   -4.2784   -1.4126    7.6642 C   0  0  0  0  0  0  0  0  0  0  0  0
   -3.2946   -0.6426    8.2812 C   0  0  0  0  0  0  0  0  0  0  0  0
   -2.2955    0.0481    7.1130 S   0  0  0  0  0  0  0  0  0  0  0  0
   -3.3015   -0.2193    9.6860 C   0  0  0  0  0  0  0  0  0  0  0  0
   -3.6761    1.0285   10.0509 C   0  0  0  0  0  0  0  0  0  0  0  0
   -4.3409    1.9899    9.1527 C   0  0  0  0  0  0  0  0  0  0  0  0
   -4.7780    1.7521    7.9947 O   0  0  0  0  0  0  0  0  0  0  0  0
   -4.4842    3.2493    9.8328 C   0  0  0  0  0  0  0  0  0  0  0  0
   -5.0172    4.4403    9.2858 C   0  0  0  0  0  0  0  0  0  0  0  0
   -4.9831    5.5125   10.1510 C   0  0  0  0  0  0  0  0  0  0  0  0
   -4.4621    5.4272   11.4820 C   0  0  0  0  0  0  0  0  0  0  0  0
   -3.9366    4.2657   12.0221 C   0  0  0  0  0  0  0  0  0  0  0  0
   -3.9706    3.1344   11.1512 C   0  0  0  0  0  0  0  0  0  0  0  0
   -3.4848    1.7300   11.3689 C   0  0  0  0  0  0  0  0  0  0  0  0
   -2.9596    1.2180   12.5220 C   0  0  0  0  0  0  0  0  0  0  0  0
   -2.4766   -0.1292   12.6454 C   0  0  0  0  0  0  0  0  0  0  0  0
   -2.0767   -1.2080   12.7672 N   0  0  0  0  0  0  0  0  0  0  0  0
   -2.8566    1.9777   13.7403 C   0  0  0  0  0  0  0  0  0  0  0  0
   -2.7602    2.5673   14.7340 N   0  0  0  0  0  0  0  0  0  0  0  0
   -4.7818    6.8747   11.7171 C   0  0  0  0  0  0  0  0  0  0  0  0
   -6.0260    7.1739   12.6034 C   0  0  0  0  0  0  0  0  0  0  0  0
   -6.3544    8.6268   12.3731 C   0  0  0  0  0  0  0  0  0  0  0  0
   -6.8309    8.7159   11.1253 C   0  0  0  0  0  0  0  0  0  0  0  0
   -6.8084    7.3180   10.5558 C   0  0  0  0  0  0  0  0  0  0  0  0
   -7.1698    6.5513   11.8164 C   0  0  0  0  0  0  0  0  0  0  0  0
   -5.3065    6.9632   10.3500 C   0  0  0  0  0  0  0  0  0  0  0  0
    9.0087   -2.7656   -2.1592 H   0  0  0  0  0  0  0  0  0  0  0  0
    7.7925    3.2278   -0.6215 H   0  0  0  0  0  0  0  0  0  0  0  0
   11.5510    0.5377    1.5636 H   0  0  0  0  0  0  0  0  0  0  0  0
   12.1669    3.9470    1.5261 H   0  0  0  0  0  0  0  0  0  0  0  0
   11.7969    3.7082    4.0697 H   0  0  0  0  0  0  0  0  0  0  0  0
    9.4791    2.5059    4.5704 H   0  0  0  0  0  0  0  0  0  0  0  0
    7.5816    3.8872    3.4435 H   0  0  0  0  0  0  0  0  0  0  0  0
    8.6809    5.9703    2.2181 H   0  0  0  0  0  0  0  0  0  0  0  0
   10.1899    5.7885    4.3839 H   0  0  0  0  0  0  0  0  0  0  0  0
   11.2555    6.0690    2.9305 H   0  0  0  0  0  0  0  0  0  0  0  0
   10.4472    5.1930    0.5045 H   0  0  0  0  0  0  0  0  0  0  0  0
    6.4906   -3.5667   -3.2816 H   0  0  0  0  0  0  0  0  0  0  0  0
    6.3822   -5.2491   -5.0983 H   0  0  0  0  0  0  0  0  0  0  0  0
    1.7397   -6.0199   -1.9821 H   0  0  0  0  0  0  0  0  0  0  0  0
    3.2250   -6.9948   -1.6151 H   0  0  0  0  0  0  0  0  0  0  0  0
    1.8186   -8.9741   -1.1180 H   0  0  0  0  0  0  0  0  0  0  0  0
    1.2790   -7.5678   -0.1213 H   0  0  0  0  0  0  0  0  0  0  0  0
    0.3198   -8.0622   -1.5707 H   0  0  0  0  0  0  0  0  0  0  0  0
    8.0466    5.1130   -5.8838 H   0  0  0  0  0  0  0  0  0  0  0  0
    9.2400    6.0545   -6.8417 H   0  0  0  0  0  0  0  0  0  0  0  0
   10.4302    4.5307   -5.3295 H   0  0  0  0  0  0  0  0  0  0  0  0
   10.7006    4.0170   -7.0370 H   0  0  0  0  0  0  0  0  0  0  0  0
    9.5417    3.1063   -5.9847 H   0  0  0  0  0  0  0  0  0  0  0  0
    4.0747    2.2961   -6.1696 H   0  0  0  0  0  0  0  0  0  0  0  0
    3.4840    0.7391   -8.0812 H   0  0  0  0  0  0  0  0  0  0  0  0
   -0.9173   -4.0005   -8.8183 H   0  0  0  0  0  0  0  0  0  0  0  0
   -0.2371   -6.1870   -9.7194 H   0  0  0  0  0  0  0  0  0  0  0  0
    1.6652   -6.3631  -11.2806 H   0  0  0  0  0  0  0  0  0  0  0  0
    3.4316   -3.4024  -12.7469 H   0  0  0  0  0  0  0  0  0  0  0  0
    3.1112   -5.1567  -12.9361 H   0  0  0  0  0  0  0  0  0  0  0  0
    4.7568   -3.8339  -10.6733 H   0  0  0  0  0  0  0  0  0  0  0  0
    5.3977   -4.7944  -12.0665 H   0  0  0  0  0  0  0  0  0  0  0  0
    4.3994   -5.6055  -10.8009 H   0  0  0  0  0  0  0  0  0  0  0  0
    2.2543   -2.1009  -11.0378 H   0  0  0  0  0  0  0  0  0  0  0  0
   -7.5946   -3.6343   -0.9943 H   0  0  0  0  0  0  0  0  0  0  0  0
   -9.6346   -4.6431   -0.0254 H   0  0  0  0  0  0  0  0  0  0  0  0
  -11.0656   -3.3470    1.5144 H   0  0  0  0  0  0  0  0  0  0  0  0
  -11.7616   -1.0976    2.2781 H   0  0  0  0  0  0  0  0  0  0  0  0
  -10.6771    0.3107    2.0697 H   0  0  0  0  0  0  0  0  0  0  0  0
   -9.2053   -0.5393    3.9222 H   0  0  0  0  0  0  0  0  0  0  0  0
  -10.3310   -1.9477    4.1459 H   0  0  0  0  0  0  0  0  0  0  0  0
  -10.9049   -0.2668    4.4623 H   0  0  0  0  0  0  0  0  0  0  0  0
   -8.3658   -0.0001    1.1902 H   0  0  0  0  0  0  0  0  0  0  0  0
   -1.7041    2.7656   -7.4934 H   0  0  0  0  0  0  0  0  0  0  0  0
   -2.3130    2.6354   -5.8502 H   0  0  0  0  0  0  0  0  0  0  0  0
   -4.6488    3.1571   -6.6675 H   0  0  0  0  0  0  0  0  0  0  0  0
   -3.9950    3.2599   -8.3572 H   0  0  0  0  0  0  0  0  0  0  0  0
   -3.4625    4.4400   -7.1000 H   0  0  0  0  0  0  0  0  0  0  0  0
   -2.3112    0.8730   -4.6529 H   0  0  0  0  0  0  0  0  0  0  0  0
   -2.7952    0.2846   -3.0868 H   0  0  0  0  0  0  0  0  0  0  0  0
   -1.9246    2.6876   -3.0466 H   0  0  0  0  0  0  0  0  0  0  0  0
   -3.4063    3.1868   -3.9597 H   0  0  0  0  0  0  0  0  0  0  0  0
   -3.5615    2.4884   -2.3178 H   0  0  0  0  0  0  0  0  0  0  0  0
   -3.3407    0.2692    1.7014 H   0  0  0  0  0  0  0  0  0  0  0  0
   -1.0061   -0.8176    2.4081 H   0  0  0  0  0  0  0  0  0  0  0  0
    2.6799    3.9500    5.2243 H   0  0  0  0  0  0  0  0  0  0  0  0
    1.5869    2.5820    5.6193 H   0  0  0  0  0  0  0  0  0  0  0  0
    2.7568    1.1558    3.9272 H   0  0  0  0  0  0  0  0  0  0  0  0
    3.9293    1.8342    5.1091 H   0  0  0  0  0  0  0  0  0  0  0  0
    3.8039    2.5576    3.4620 H   0  0  0  0  0  0  0  0  0  0  0  0
   -7.8868   -8.4909    6.2824 H   0  0  0  0  0  0  0  0  0  0  0  0
   -7.1922   -7.1538    5.3074 H   0  0  0  0  0  0  0  0  0  0  0  0
   -5.8056   -8.6282    7.6443 H   0  0  0  0  0  0  0  0  0  0  0  0
   -5.0873   -7.2666    6.6920 H   0  0  0  0  0  0  0  0  0  0  0  0
   -5.4539   -8.8395    5.8838 H   0  0  0  0  0  0  0  0  0  0  0  0
   -7.8682   -2.4419    4.6321 H   0  0  0  0  0  0  0  0  0  0  0  0
   -5.0847   -1.8747    8.2178 H   0  0  0  0  0  0  0  0  0  0  0  0
   -2.9143   -0.9346   10.3795 H   0  0  0  0  0  0  0  0  0  0  0  0
   -5.4146    4.5091    8.2800 H   0  0  0  0  0  0  0  0  0  0  0  0
   -3.5357    4.2781   13.0198 H   0  0  0  0  0  0  0  0  0  0  0  0
   -3.8844    7.5035   11.9128 H   0  0  0  0  0  0  0  0  0  0  0  0
   -5.9442    6.8693   13.6685 H   0  0  0  0  0  0  0  0  0  0  0  0
   -6.3101    9.4389   13.0927 H   0  0  0  0  0  0  0  0  0  0  0  0
   -7.2415    9.6086   10.6629 H   0  0  0  0  0  0  0  0  0  0  0  0
   -7.4674    7.1535    9.6772 H   0  0  0  0  0  0  0  0  0  0  0  0
   -7.1069    5.4452   11.7093 H   0  0  0  0  0  0  0  0  0  0  0  0
   -8.1776    6.8149   12.2213 H   0  0  0  0  0  0  0  0  0  0  0  0
   -4.7356    7.6413    9.6791 H   0  0  0  0  0  0  0  0  0  0  0  0
  1  2  2  3
  2  3  1  0
  3  4  2  0
  3  5  1  0
  5  6  2  0
  6  7  1  0
  7  8  2  0
  8  9  1  0
  9 10  2  0
 10 11  1  0
 11 12  2  3
 12 13  1  0
 13 14  3  0
 12 15  1  0
 15 16  3  0
  8 17  1  0
 17 18  1  0
 18 19  1  0
 19 20  2  0
 20 21  1  0
 21 22  1  0
 21 23  1  0
  1 24  1  0
 24 25  2  0
 25 26  1  0
 26 27  2  0
 27 28  1  0
 28 29  2  0
 29 30  1  0
 30 31  1  0
 30 32  2  0
 32 33  1  0
 33 34  1  0
 34 35  1  0
 32 36  1  0
 27 37  1  0
 37 38  2  0
 38 39  1  0
 39 40  1  0
 40 41  1  0
 41 42  1  0
 42 43  1  0
 43 44  1  0
 44 45  1  0
 42 46  2  0
 46 47  1  0
 46 48  1  0
 39 49  2  0
 49 50  1  0
 38 51  1  0
 51 52  2  0
 52 53  1  0
 52 54  1  0
 54 55  2  0
 55 56  1  0
 56 57  2  0
 57 58  1  0
 58 59  2  0
 59 60  1  0
 60 61  1  0
 61 62  1  0
 60 63  2  0
 55 64  1  0
 64 65  1  0
 65 66  1  0
 66 67  1  0
 67 68  1  0
 68 69  1  0
 69 70  2  0
 70 71  1  0
 71 72  1  0
 69 73  1  0
 73 74  1  0
 74 75  1  0
 75 76  1  0
 76 77  1  0
 77 78  1  0
 78 79  2  0
 79 80  1  0
 80 81  2  0
 81 82  1  0
 82 83  1  0
 83 84  1  0
 82 85  2  0
 77 86  2  0
 86 87  1  0
 87 88  1  0
 88 89  1  0
 89 90  1  0
 90 91  1  0
 91 92  1  0
 92 93  1  0
 93 94  1  0
 94 95  1  0
 95 96  1  0
 93 97  1  0
 97 98  1  0
 90 99  1  0
 99100  1  0
 86101  1  0
101102  2  0
102103  1  0
103104  2  0
104105  1  0
105106  2  0
106107  1  0
107108  1  0
107109  2  0
109110  1  0
110111  1  0
111112  1  0
109113  1  0
104114  1  0
114115  2  0
115116  1  0
116117  1  0
117118  1  0
118119  1  0
119120  1  0
120121  1  0
121122  1  0
119123  2  0
123124  1  0
123125  1  0
116126  2  0
126127  1  0
115128  1  0
128129  2  0
129130  1  0
129131  1  0
131132  2  3
132133  1  0
133134  2  0
133135  1  0
135136  2  0
136137  1  0
137138  2  0
138139  1  0
139140  2  0
140141  1  0
141142  2  3
142143  1  0
143144  3  0
142145  1  0
145146  3  0
138147  1  0
147148  1  0
148149  1  0
149150  2  0
150151  1  0
151152  1  0
151153  1  0
 11  2  1  0
 23 17  1  0
 50 24  1  0
 96 54  1  0
127101  1  0
141132  1  0
153147  1  0
 10  5  1  0
 22 18  1  0
 49 26  1  0
 63 56  1  0
 95 64  2  0
126103  1  0
140135  1  0
152148  1  0
 23  7  1  0
 36 28  1  0
 53 37  1  0
 94 66  2  0
113105  1  0
130114  1  0
153137  1  0
 47 40  2  0
 92 67  2  0
124117  2  0
 72 68  2  0
 91 73  2  0
 89 74  2  0
 88 76  2  0
 85 78  1  0
  1154  1  0
  6155  1  0
  9156  1  0
 17157  1  0
 18158  1  0
 19159  1  0
 20160  1  0
 21161  1  0
 22162  1  0
 22163  1  0
 23164  1  0
 25165  1  0
 29166  1  0
 34167  1  0
 34168  1  0
 35169  1  0
 35170  1  0
 35171  1  0
 44172  1  0
 44173  1  0
 45174  1  0
 45175  1  0
 45176  1  0
 47177  1  0
 51178  1  0
 57179  1  0
 58180  1  0
 59181  1  0
 61182  1  0
 61183  1  0
 62184  1  0
 62185  1  0
 62186  1  0
 63187  1  0
 79188  1  0
 80189  1  0
 81190  1  0
 83191  1  0
 83192  1  0
 84193  1  0
 84194  1  0
 84195  1  0
 85196  1  0
 97197  1  0
 97198  1  0
 98199  1  0
 98200  1  0
 98201  1  0
 99202  1  0
 99203  1  0
100204  1  0
100205  1  0
100206  1  0
102207  1  0
106208  1  0
111209  1  0
111210  1  0
112211  1  0
112212  1  0
112213  1  0
121214  1  0
121215  1  0
122216  1  0
122217  1  0
122218  1  0
124219  1  0
128220  1  0
131221  1  0
136222  1  0
139223  1  0
147224  1  0
148225  1  0
149226  1  0
150227  1  0
151228  1  0
152229  1  0
152230  1  0
153231  1  0
M  END

