
     RDKit          3D

219245  0  0  0  0  0  0  0  0999 V2000
   11.5525   -3.6739    5.1706 C   0  0  0  0  0  0  0  0  0  0  0  0
   12.5923   -4.5032    5.3947 C   0  0  0  0  0  0  0  0  0  0  0  0
   12.8227   -5.7730    4.6871 C   0  0  0  0  0  0  0  0  0  0  0  0
   12.1567   -6.2237    3.7223 O   0  0  0  0  0  0  0  0  0  0  0  0
   13.7995   -6.5431    5.4191 C   0  0  0  0  0  0  0  0  0  0  0  0
   14.2280   -7.8577    5.1202 C   0  0  0  0  0  0  0  0  0  0  0  0
   15.0892   -8.3949    6.0550 C   0  0  0  0  0  0  0  0  0  0  0  0
   15.5142   -7.6815    7.2194 C   0  0  0  0  0  0  0  0  0  0  0  0
   15.1098   -6.3894    7.5164 C   0  0  0  0  0  0  0  0  0  0  0  0
   14.2064   -5.8199    6.5717 C   0  0  0  0  0  0  0  0  0  0  0  0
   13.5091   -4.4978    6.5851 C   0  0  0  0  0  0  0  0  0  0  0  0
   13.7034   -3.4801    7.4735 C   0  0  0  0  0  0  0  0  0  0  0  0
   14.5123   -3.6010    8.6594 C   0  0  0  0  0  0  0  0  0  0  0  0
   15.1498   -3.6640    9.6274 N   0  0  0  0  0  0  0  0  0  0  0  0
   13.1085   -2.1782    7.3088 C   0  0  0  0  0  0  0  0  0  0  0  0
   12.6079   -1.1421    7.2083 N   0  0  0  0  0  0  0  0  0  0  0  0
   16.2894   -8.8737    7.6898 C   0  0  0  0  0  0  0  0  0  0  0  0
   15.6905   -9.7067    8.8613 C   0  0  0  0  0  0  0  0  0  0  0  0
   14.1800   -9.6382    8.8298 C   0  0  0  0  0  0  0  0  0  0  0  0
   13.7916  -10.3062    7.7418 C   0  0  0  0  0  0  0  0  0  0  0  0
   15.0512  -10.8067    7.0732 C   0  0  0  0  0  0  0  0  0  0  0  0
   15.8793  -11.1054    8.3083 C   0  0  0  0  0  0  0  0  0  0  0  0
   15.8585   -9.6072    6.4923 C   0  0  0  0  0  0  0  0  0  0  0  0
   10.6574   -3.7235    4.0019 C   0  0  0  0  0  0  0  0  0  0  0  0
   11.0073   -3.8503    2.6595 C   0  0  0  0  0  0  0  0  0  0  0  0
    9.9090   -3.7631    1.7852 C   0  0  0  0  0  0  0  0  0  0  0  0
   10.0431   -3.8656    0.3140 C   0  0  0  0  0  0  0  0  0  0  0  0
    9.7589   -2.7496   -0.5159 C   0  0  0  0  0  0  0  0  0  0  0  0
    9.8371   -2.8836   -1.9106 C   0  0  0  0  0  0  0  0  0  0  0  0
   10.2394   -4.0862   -2.4937 C   0  0  0  0  0  0  0  0  0  0  0  0
   10.3546   -4.1967   -3.9836 C   0  0  0  0  0  0  0  0  0  0  0  0
   10.6108   -5.1591   -1.6765 C   0  0  0  0  0  0  0  0  0  0  0  0
   10.4967   -5.0733   -0.2800 C   0  0  0  0  0  0  0  0  0  0  0  0
   10.9014   -6.2682    0.5455 C   0  0  0  0  0  0  0  0  0  0  0  0
    9.3587   -1.4066    0.0399 C   0  0  0  0  0  0  0  0  0  0  0  0
    8.7055   -3.5259    2.4550 C   0  0  0  0  0  0  0  0  0  0  0  0
    9.0095   -3.4306    4.1004 S   0  0  0  0  0  0  0  0  0  0  0  0
    7.3537   -3.4163    1.8952 C   0  0  0  0  0  0  0  0  0  0  0  0
    6.5893   -4.4939    1.4087 C   0  0  0  0  0  0  0  0  0  0  0  0
    7.1126   -5.8233    1.0708 C   0  0  0  0  0  0  0  0  0  0  0  0
    7.3453   -6.7718    2.0754 C   0  0  0  0  0  0  0  0  0  0  0  0
    7.7873   -8.0551    1.7368 C   0  0  0  0  0  0  0  0  0  0  0  0
    8.0172   -8.3889    0.3981 C   0  0  0  0  0  0  0  0  0  0  0  0
    7.8085   -7.4382   -0.6147 C   0  0  0  0  0  0  0  0  0  0  0  0
    8.0767   -7.7959   -2.0529 C   0  0  0  0  0  0  0  0  0  0  0  0
    6.8091   -8.2797   -2.7533 C   0  0  0  0  0  0  0  0  0  0  0  0
    7.3344   -6.1606   -0.2724 C   0  0  0  0  0  0  0  0  0  0  0  0
    5.2373   -4.1595    1.3565 C   0  0  0  0  0  0  0  0  0  0  0  0
    3.8139   -5.0549    1.0462 S   0  0  0  0  0  0  0  0  0  0  0  0
    2.8628   -3.6951    1.4213 C   0  0  0  0  0  0  0  0  0  0  0  0
    1.5726   -3.2784    1.2731 C   0  0  0  0  0  0  0  0  0  0  0  0
    0.4448   -3.9476    0.7901 C   0  0  0  0  0  0  0  0  0  0  0  0
   -0.7368   -3.1965    0.5385 C   0  0  0  0  0  0  0  0  0  0  0  0
   -1.8072   -3.8712    0.0519 N   0  0  0  0  0  0  0  0  0  0  0  0
   -1.1574   -5.3934   -0.0327 S   0  0  0  0  0  0  0  0  0  0  0  0
    0.4019   -5.2754    0.5152 N   0  0  0  0  0  0  0  0  0  0  0  0
   -0.7248   -1.8247    0.8114 C   0  0  0  0  0  0  0  0  0  0  0  0
   -1.6997   -0.8817    0.7133 C   0  0  0  0  0  0  0  0  0  0  0  0
   -3.3027   -0.7478    0.1848 S   0  0  0  0  0  0  0  0  0  0  0  0
   -3.2870    0.9175    0.5639 C   0  0  0  0  0  0  0  0  0  0  0  0
   -4.1814    1.9418    0.2935 C   0  0  0  0  0  0  0  0  0  0  0  0
   -5.5771    1.7066   -0.1070 C   0  0  0  0  0  0  0  0  0  0  0  0
   -5.9852    1.8194   -1.4439 C   0  0  0  0  0  0  0  0  0  0  0  0
   -7.3202    1.5865   -1.7900 C   0  0  0  0  0  0  0  0  0  0  0  0
   -8.2474    1.2114   -0.8089 C   0  0  0  0  0  0  0  0  0  0  0  0
   -7.8409    1.0762    0.5315 C   0  0  0  0  0  0  0  0  0  0  0  0
   -8.8069    0.5836    1.5741 C   0  0  0  0  0  0  0  0  0  0  0  0
   -8.7200   -0.9344    1.7141 C   0  0  0  0  0  0  0  0  0  0  0  0
   -6.5024    1.3291    0.8720 C   0  0  0  0  0  0  0  0  0  0  0  0
   -3.6277    3.1986    0.6041 C   0  0  0  0  0  0  0  0  0  0  0  0
   -2.0467    3.0041    1.2228 S   0  0  0  0  0  0  0  0  0  0  0  0
   -2.0912    1.3244    1.0985 C   0  0  0  0  0  0  0  0  0  0  0  0
   -1.1870    0.2781    1.1908 C   0  0  0  0  0  0  0  0  0  0  0  0
    0.0732    0.1495    1.6746 N   0  0  0  0  0  0  0  0  0  0  0  0
    0.3903   -1.1543    1.3414 C   0  0  0  0  0  0  0  0  0  0  0  0
    1.5943   -1.8917    1.5064 C   0  0  0  0  0  0  0  0  0  0  0  0
    2.8819   -1.4513    1.6951 N   0  0  0  0  0  0  0  0  0  0  0  0
    3.6003   -2.6007    1.7224 C   0  0  0  0  0  0  0  0  0  0  0  0
    4.9559   -2.8688    1.7030 C   0  0  0  0  0  0  0  0  0  0  0  0
    6.3425   -2.0705    2.1984 S   0  0  0  0  0  0  0  0  0  0  0  0
    3.4421   -0.1619    1.2715 C   0  0  0  0  0  0  0  0  0  0  0  0
    4.0365   -0.2403   -0.1374 C   0  0  0  0  0  0  0  0  0  0  0  0
    0.5566    0.9422    2.8268 C   0  0  0  0  0  0  0  0  0  0  0  0
    0.7535    0.0800    4.0738 C   0  0  0  0  0  0  0  0  0  0  0  0
   -4.2409    4.4741    0.2280 C   0  0  0  0  0  0  0  0  0  0  0  0
   -4.6323    4.7626   -1.0750 C   0  0  0  0  0  0  0  0  0  0  0  0
   -5.5882    5.7837   -1.1537 C   0  0  0  0  0  0  0  0  0  0  0  0
   -6.2823    6.1616   -2.3168 C   0  0  0  0  0  0  0  0  0  0  0  0
   -6.0335    5.5054   -3.6187 C   0  0  0  0  0  0  0  0  0  0  0  0
   -4.8162    5.6950   -4.2874 C   0  0  0  0  0  0  0  0  0  0  0  0
   -4.5793    5.0598   -5.5095 C   0  0  0  0  0  0  0  0  0  0  0  0
   -5.5521    4.2187   -6.0652 C   0  0  0  0  0  0  0  0  0  0  0  0
   -5.2464    3.3956   -7.6298 S   0  0  0  0  0  0  0  0  0  0  0  0
   -4.6101    1.8501   -6.8875 C   0  0  0  0  0  0  0  0  0  0  0  0
   -3.1351    1.9853   -6.5306 C   0  0  0  0  0  0  0  0  0  0  0  0
   -6.7704    4.0326   -5.4033 C   0  0  0  0  0  0  0  0  0  0  0  0
   -7.0120    4.6683   -4.1825 C   0  0  0  0  0  0  0  0  0  0  0  0
   -7.3233    7.0884   -2.1586 C   0  0  0  0  0  0  0  0  0  0  0  0
   -7.6758    7.6307   -0.9142 C   0  0  0  0  0  0  0  0  0  0  0  0
   -6.9598    7.2759    0.2506 C   0  0  0  0  0  0  0  0  0  0  0  0
   -7.2751    7.8754    1.5656 C   0  0  0  0  0  0  0  0  0  0  0  0
   -7.5925    7.0667    2.6679 C   0  0  0  0  0  0  0  0  0  0  0  0
   -7.8546    7.6459    3.9141 C   0  0  0  0  0  0  0  0  0  0  0  0
   -7.8121    9.0364    4.0657 C   0  0  0  0  0  0  0  0  0  0  0  0
   -8.1099    9.7806    5.6749 S   0  0  0  0  0  0  0  0  0  0  0  0
   -6.3431    9.8888    6.1340 C   0  0  0  0  0  0  0  0  0  0  0  0
   -5.8098    8.5411    6.6039 C   0  0  0  0  0  0  0  0  0  0  0  0
   -7.5414    9.8483    2.9605 C   0  0  0  0  0  0  0  0  0  0  0  0
   -7.2661    9.2710    1.7188 C   0  0  0  0  0  0  0  0  0  0  0  0
   -5.9277    6.3247    0.0917 C   0  0  0  0  0  0  0  0  0  0  0  0
   -5.0491    5.5114    1.2866 S   0  0  0  0  0  0  0  0  0  0  0  0
   -8.8464    8.4090   -0.9742 C   0  0  0  0  0  0  0  0  0  0  0  0
   -9.3756    8.4856   -2.2626 C   0  0  0  0  0  0  0  0  0  0  0  0
   -8.4168    7.6026   -3.3280 S   0  0  0  0  0  0  0  0  0  0  0  0
  -10.7186    8.9572   -2.6105 C   0  0  0  0  0  0  0  0  0  0  0  0
  -11.7452    8.0979   -2.7543 C   0  0  0  0  0  0  0  0  0  0  0  0
  -11.6738    6.6522   -2.5038 C   0  0  0  0  0  0  0  0  0  0  0  0
  -10.8731    6.0676   -1.7291 O   0  0  0  0  0  0  0  0  0  0  0  0
  -12.6762    5.9942   -3.3063 C   0  0  0  0  0  0  0  0  0  0  0  0
  -12.8059    4.6028   -3.5190 C   0  0  0  0  0  0  0  0  0  0  0  0
  -13.7232    4.2730   -4.4961 C   0  0  0  0  0  0  0  0  0  0  0  0
  -14.4702    5.2470   -5.2333 C   0  0  0  0  0  0  0  0  0  0  0  0
  -14.3543    6.6123   -5.0213 C   0  0  0  0  0  0  0  0  0  0  0  0
  -13.4266    6.9729   -4.0047 C   0  0  0  0  0  0  0  0  0  0  0  0
  -12.9713    8.3280   -3.5736 C   0  0  0  0  0  0  0  0  0  0  0  0
  -13.6384    9.4982   -3.7197 C   0  0  0  0  0  0  0  0  0  0  0  0
  -14.8585    9.6082   -4.4742 C   0  0  0  0  0  0  0  0  0  0  0  0
  -15.8401    9.7098   -5.0770 N   0  0  0  0  0  0  0  0  0  0  0  0
  -13.2504   10.6902   -3.0054 C   0  0  0  0  0  0  0  0  0  0  0  0
  -12.9533   11.6493   -2.4283 N   0  0  0  0  0  0  0  0  0  0  0  0
  -15.0894    4.1601   -6.0643 C   0  0  0  0  0  0  0  0  0  0  0  0
  -14.5470    3.9981   -7.5158 C   0  0  0  0  0  0  0  0  0  0  0  0
  -15.0087    2.6361   -7.9846 C   0  0  0  0  0  0  0  0  0  0  0  0
  -14.3030    1.7350   -7.2926 C   0  0  0  0  0  0  0  0  0  0  0  0
  -13.3963    2.5155   -6.3728 C   0  0  0  0  0  0  0  0  0  0  0  0
  -13.0761    3.6801   -7.2993 C   0  0  0  0  0  0  0  0  0  0  0  0
  -14.3252    3.1658   -5.3042 C   0  0  0  0  0  0  0  0  0  0  0  0
   11.2488   -2.9772    5.9302 H   0  0  0  0  0  0  0  0  0  0  0  0
   13.8727   -8.4184    4.2685 H   0  0  0  0  0  0  0  0  0  0  0  0
   15.4465   -5.9197    8.4215 H   0  0  0  0  0  0  0  0  0  0  0  0
   17.3892   -8.7110    7.7411 H   0  0  0  0  0  0  0  0  0  0  0  0
   16.1474   -9.5228    9.8563 H   0  0  0  0  0  0  0  0  0  0  0  0
   13.5230   -9.1973    9.5678 H   0  0  0  0  0  0  0  0  0  0  0  0
   12.7653  -10.4991    7.4437 H   0  0  0  0  0  0  0  0  0  0  0  0
   14.9061  -11.6627    6.3788 H   0  0  0  0  0  0  0  0  0  0  0  0
   15.4399  -11.9015    8.9545 H   0  0  0  0  0  0  0  0  0  0  0  0
   16.9421  -11.3575    8.0831 H   0  0  0  0  0  0  0  0  0  0  0  0
   16.6981   -9.8831    5.8146 H   0  0  0  0  0  0  0  0  0  0  0  0
   12.0274   -3.9809    2.3190 H   0  0  0  0  0  0  0  0  0  0  0  0
    9.5945   -2.0418   -2.5476 H   0  0  0  0  0  0  0  0  0  0  0  0
   11.3311   -3.7841   -4.3133 H   0  0  0  0  0  0  0  0  0  0  0  0
    9.5365   -3.6314   -4.4767 H   0  0  0  0  0  0  0  0  0  0  0  0
   10.2831   -5.2557   -4.3120 H   0  0  0  0  0  0  0  0  0  0  0  0
   10.9668   -6.0751   -2.1321 H   0  0  0  0  0  0  0  0  0  0  0  0
   11.9541   -6.1528    0.8739 H   0  0  0  0  0  0  0  0  0  0  0  0
   10.8200   -7.2073   -0.0424 H   0  0  0  0  0  0  0  0  0  0  0  0
   10.2454   -6.3809    1.4310 H   0  0  0  0  0  0  0  0  0  0  0  0
    9.7317   -1.2548    1.0730 H   0  0  0  0  0  0  0  0  0  0  0  0
    8.2540   -1.3123    0.0221 H   0  0  0  0  0  0  0  0  0  0  0  0
    9.7869   -0.5897   -0.5794 H   0  0  0  0  0  0  0  0  0  0  0  0
    7.1693   -6.5211    3.1140 H   0  0  0  0  0  0  0  0  0  0  0  0
    7.9598   -8.7896    2.5142 H   0  0  0  0  0  0  0  0  0  0  0  0
    8.3619   -9.3879    0.1509 H   0  0  0  0  0  0  0  0  0  0  0  0
    8.8548   -8.5901   -2.1179 H   0  0  0  0  0  0  0  0  0  0  0  0
    8.4744   -6.9096   -2.5959 H   0  0  0  0  0  0  0  0  0  0  0  0
    6.3366   -9.1041   -2.1766 H   0  0  0  0  0  0  0  0  0  0  0  0
    6.0880   -7.4404   -2.8618 H   0  0  0  0  0  0  0  0  0  0  0  0
    7.0657   -8.6623   -3.7650 H   0  0  0  0  0  0  0  0  0  0  0  0
    7.1519   -5.4297   -1.0532 H   0  0  0  0  0  0  0  0  0  0  0  0
   -5.2734    2.0749   -2.2196 H   0  0  0  0  0  0  0  0  0  0  0  0
   -7.6373    1.6820   -2.8228 H   0  0  0  0  0  0  0  0  0  0  0  0
   -9.2713    1.0098   -1.0964 H   0  0  0  0  0  0  0  0  0  0  0  0
   -8.5761    1.0532    2.5558 H   0  0  0  0  0  0  0  0  0  0  0  0
   -9.8477    0.8678    1.3044 H   0  0  0  0  0  0  0  0  0  0  0  0
   -9.4196   -1.2797    2.5041 H   0  0  0  0  0  0  0  0  0  0  0  0
   -7.6892   -1.2394    1.9937 H   0  0  0  0  0  0  0  0  0  0  0  0
   -8.9952   -1.4233    0.7558 H   0  0  0  0  0  0  0  0  0  0  0  0
   -6.1849    1.2164    1.9008 H   0  0  0  0  0  0  0  0  0  0  0  0
    4.2162    0.1646    1.9972 H   0  0  0  0  0  0  0  0  0  0  0  0
    2.6618    0.6007    1.1994 H   0  0  0  0  0  0  0  0  0  0  0  0
    4.4065    0.7632   -0.4308 H   0  0  0  0  0  0  0  0  0  0  0  0
    3.2526   -0.5526   -0.8584 H   0  0  0  0  0  0  0  0  0  0  0  0
    4.8843   -0.9520   -0.1898 H   0  0  0  0  0  0  0  0  0  0  0  0
   -0.1975    1.7162    3.0916 H   0  0  0  0  0  0  0  0  0  0  0  0
    1.4695    1.5163    2.5985 H   0  0  0  0  0  0  0  0  0  0  0  0
    1.6297   -0.5872    3.9520 H   0  0  0  0  0  0  0  0  0  0  0  0
    0.9432    0.7309    4.9528 H   0  0  0  0  0  0  0  0  0  0  0  0
   -0.1538   -0.5283    4.2618 H   0  0  0  0  0  0  0  0  0  0  0  0
   -4.2990    4.1885   -1.9265 H   0  0  0  0  0  0  0  0  0  0  0  0
   -4.0494    6.3314   -3.8608 H   0  0  0  0  0  0  0  0  0  0  0  0
   -3.6392    5.2136   -6.0207 H   0  0  0  0  0  0  0  0  0  0  0  0
   -4.7256    1.0333   -7.6322 H   0  0  0  0  0  0  0  0  0  0  0  0
   -5.1974    1.5767   -5.9839 H   0  0  0  0  0  0  0  0  0  0  0  0
   -2.9980    2.7411   -5.7330 H   0  0  0  0  0  0  0  0  0  0  0  0
   -2.5503    2.2826   -7.4266 H   0  0  0  0  0  0  0  0  0  0  0  0
   -2.7502    1.0138   -6.1582 H   0  0  0  0  0  0  0  0  0  0  0  0
   -7.5282    3.3860   -5.8278 H   0  0  0  0  0  0  0  0  0  0  0  0
   -7.9525    4.5012   -3.6703 H   0  0  0  0  0  0  0  0  0  0  0  0
   -7.6425    5.9890    2.5703 H   0  0  0  0  0  0  0  0  0  0  0  0
   -8.0839    7.0150    4.7632 H   0  0  0  0  0  0  0  0  0  0  0  0
   -6.2461   10.6205    6.9638 H   0  0  0  0  0  0  0  0  0  0  0  0
   -5.7388   10.2616    5.2794 H   0  0  0  0  0  0  0  0  0  0  0  0
   -5.7661    7.8217    5.7622 H   0  0  0  0  0  0  0  0  0  0  0  0
   -4.7826    8.6712    7.0024 H   0  0  0  0  0  0  0  0  0  0  0  0
   -6.4556    8.1305    7.4077 H   0  0  0  0  0  0  0  0  0  0  0  0
   -7.5348   10.9230    3.0636 H   0  0  0  0  0  0  0  0  0  0  0  0
   -7.0400    9.9111    0.8780 H   0  0  0  0  0  0  0  0  0  0  0  0
   -9.3472    8.8245   -0.1060 H   0  0  0  0  0  0  0  0  0  0  0  0
  -10.7913    9.9665   -2.9880 H   0  0  0  0  0  0  0  0  0  0  0  0
  -12.2058    3.8621   -3.0069 H   0  0  0  0  0  0  0  0  0  0  0  0
  -14.8817    7.3120   -5.6466 H   0  0  0  0  0  0  0  0  0  0  0  0
  -16.1939    4.0783   -5.9458 H   0  0  0  0  0  0  0  0  0  0  0  0
  -14.7663    4.8362   -8.2091 H   0  0  0  0  0  0  0  0  0  0  0  0
  -15.6948    2.4147   -8.7955 H   0  0  0  0  0  0  0  0  0  0  0  0
  -14.3261    0.6599   -7.4432 H   0  0  0  0  0  0  0  0  0  0  0  0
  -12.5244    1.9544   -5.9794 H   0  0  0  0  0  0  0  0  0  0  0  0
  -12.4943    4.4965   -6.8174 H   0  0  0  0  0  0  0  0  0  0  0  0
  -12.5450    3.3768   -8.2348 H   0  0  0  0  0  0  0  0  0  0  0  0
  -14.9461    2.4594   -4.7099 H   0  0  0  0  0  0  0  0  0  0  0  0
  1  2  2  3
  2  3  1  0
  3  4  2  0
  3  5  1  0
  5  6  2  0
  6  7  1  0
  7  8  2  0
  8  9  1  0
  9 10  2  0
 10 11  1  0
 11 12  2  3
 12 13  1  0
 13 14  3  0
 12 15  1  0
 15 16  3  0
  8 17  1  0
 17 18  1  0
 18 19  1  0
 19 20  2  0
 20 21  1  0
 21 22  1  0
 21 23  1  0
  1 24  1  0
 24 25  2  0
 25 26  1  0
 26 27  1  0
 27 28  2  0
 28 29  1  0
 29 30  2  0
 30 31  1  0
 30 32  1  0
 32 33  2  0
 33 34  1  0
 28 35  1  0
 26 36  2  0
 36 37  1  0
 36 38  1  0
 38 39  2  0
 39 40  1  0
 40 41  2  0
 41 42  1  0
 42 43  2  0
 43 44  1  0
 44 45  1  0
 45 46  1  0
 44 47  2  0
 39 48  1  0
 48 49  1  0
 49 50  1  0
 50 51  1  0
 51 52  1  0
 52 53  1  0
 53 54  2  0
 54 55  1  0
 55 56  1  0
 53 57  1  0
 57 58  1  0
 58 59  1  0
 59 60  1  0
 60 61  1  0
 61 62  1  0
 62 63  2  0
 63 64  1  0
 64 65  2  0
 65 66  1  0
 66 67  1  0
 67 68  1  0
 66 69  2  0
 61 70  2  0
 70 71  1  0
 71 72  1  0
 72 73  1  0
 73 74  1  0
 74 75  1  0
 75 76  1  0
 76 77  1  0
 77 78  1  0
 78 79  1  0
 79 80  1  0
 77 81  1  0
 81 82  1  0
 74 83  1  0
 83 84  1  0
 70 85  1  0
 85 86  2  0
 86 87  1  0
 87 88  2  0
 88 89  1  0
 89 90  2  0
 90 91  1  0
 91 92  2  0
 92 93  1  0
 93 94  1  0
 94 95  1  0
 92 96  1  0
 96 97  2  0
 88 98  1  0
 98 99  2  0
 99100  1  0
100101  1  0
101102  2  0
102103  1  0
103104  2  0
104105  1  0
105106  1  0
106107  1  0
104108  1  0
108109  2  0
100110  2  0
110111  1  0
 99112  1  0
112113  2  0
113114  1  0
113115  1  0
115116  2  3
116117  1  0
117118  2  0
117119  1  0
119120  2  0
120121  1  0
121122  2  0
122123  1  0
123124  2  0
124125  1  0
125126  2  3
126127  1  0
127128  3  0
126129  1  0
129130  3  0
122131  1  0
131132  1  0
132133  1  0
133134  2  0
134135  1  0
135136  1  0
135137  1  0
 11  2  1  0
 23 17  1  0
 37 24  1  0
 80 38  1  0
111 85  1  0
125116  1  0
137131  1  0
 10  5  1  0
 22 18  1  0
 33 27  1  0
 47 40  1  0
 79 48  2  0
110 87  1  0
124119  1  0
136132  1  0
 23  7  1  0
 78 50  2  0
 97 89  1  0
114 98  1  0
137121  1  0
 76 51  2  0
109101  1  0
 56 52  2  0
 75 57  2  0
 73 58  2  0
 72 60  2  0
 69 62  1  0
  1138  1  0
  6139  1  0
  9140  1  0
 17141  1  0
 18142  1  0
 19143  1  0
 20144  1  0
 21145  1  0
 22146  1  0
 22147  1  0
 23148  1  0
 25149  1  0
 29150  1  0
 31151  1  0
 31152  1  0
 31153  1  0
 32154  1  0
 34155  1  0
 34156  1  0
 34157  1  0
 35158  1  0
 35159  1  0
 35160  1  0
 41161  1  0
 42162  1  0
 43163  1  0
 45164  1  0
 45165  1  0
 46166  1  0
 46167  1  0
 46168  1  0
 47169  1  0
 63170  1  0
 64171  1  0
 65172  1  0
 67173  1  0
 67174  1  0
 68175  1  0
 68176  1  0
 68177  1  0
 69178  1  0
 81179  1  0
 81180  1  0
 82181  1  0
 82182  1  0
 82183  1  0
 83184  1  0
 83185  1  0
 84186  1  0
 84187  1  0
 84188  1  0
 86189  1  0
 90190  1  0
 91191  1  0
 94192  1  0
 94193  1  0
 95194  1  0
 95195  1  0
 95196  1  0
 96197  1  0
 97198  1  0
102199  1  0
103200  1  0
106201  1  0
106202  1  0
107203  1  0
107204  1  0
107205  1  0
108206  1  0
109207  1  0
112208  1  0
115209  1  0
120210  1  0
123211  1  0
131212  1  0
132213  1  0
133214  1  0
134215  1  0
135216  1  0
136217  1  0
136218  1  0
137219  1  0
M  END

