
     RDKit          3D

212237  0  0  0  0  0  0  0  0999 V2000
    0.1285    9.0939    0.9228 C   0  0  0  0  0  0  0  0  0  0  0  0
    0.5698    8.9586   -0.3444 C   0  0  0  0  0  0  0  0  0  0  0  0
    1.2305    7.7537   -0.8738 C   0  0  0  0  0  0  0  0  0  0  0  0
    1.4982    6.7008   -0.2351 O   0  0  0  0  0  0  0  0  0  0  0  0
    1.4576    7.9194   -2.2855 C   0  0  0  0  0  0  0  0  0  0  0  0
    2.1238    7.0098   -3.1390 C   0  0  0  0  0  0  0  0  0  0  0  0
    2.2744    7.4650   -4.4313 C   0  0  0  0  0  0  0  0  0  0  0  0
    1.8135    8.7471   -4.8652 C   0  0  0  0  0  0  0  0  0  0  0  0
    1.1621    9.6435   -4.0322 C   0  0  0  0  0  0  0  0  0  0  0  0
    0.9618    9.1821   -2.6973 C   0  0  0  0  0  0  0  0  0  0  0  0
    0.3567    9.8803   -1.5177 C   0  0  0  0  0  0  0  0  0  0  0  0
   -0.2653   11.0910   -1.5270 C   0  0  0  0  0  0  0  0  0  0  0  0
   -0.6728   11.7840   -0.3345 C   0  0  0  0  0  0  0  0  0  0  0  0
   -1.0098   12.3550    0.6158 N   0  0  0  0  0  0  0  0  0  0  0  0
   -0.6075   11.7773   -2.7470 C   0  0  0  0  0  0  0  0  0  0  0  0
   -0.8955   12.3392   -3.7175 N   0  0  0  0  0  0  0  0  0  0  0  0
    2.3905    8.5105   -6.2299 C   0  0  0  0  0  0  0  0  0  0  0  0
    3.7097    9.2547   -6.6030 C   0  0  0  0  0  0  0  0  0  0  0  0
    4.5386    9.4869   -5.3607 C   0  0  0  0  0  0  0  0  0  0  0  0
    4.9604    8.2891   -4.9533 C   0  0  0  0  0  0  0  0  0  0  0  0
    4.4044    7.2795   -5.9336 C   0  0  0  0  0  0  0  0  0  0  0  0
    4.4992    8.1039   -7.2029 C   0  0  0  0  0  0  0  0  0  0  0  0
    2.8549    7.1937   -5.7847 C   0  0  0  0  0  0  0  0  0  0  0  0
    0.4043    8.1074    1.9778 C   0  0  0  0  0  0  0  0  0  0  0  0
    1.6672    7.7151    2.4147 C   0  0  0  0  0  0  0  0  0  0  0  0
    1.6244    6.6238    3.2992 C   0  0  0  0  0  0  0  0  0  0  0  0
    2.7296    5.9365    3.8575 C   0  0  0  0  0  0  0  0  0  0  0  0
    4.1292    6.3283    3.5917 C   0  0  0  0  0  0  0  0  0  0  0  0
    4.7051    6.5279    2.3405 C   0  0  0  0  0  0  0  0  0  0  0  0
    6.0556    6.8853    2.4081 C   0  0  0  0  0  0  0  0  0  0  0  0
    7.0242    7.2046    0.9829 Cl  0  0  0  0  0  0  0  0  0  0  0  0
    6.5393    6.9640    3.7085 C   0  0  0  0  0  0  0  0  0  0  0  0
    8.2085    7.3874    4.2038 S   0  0  0  0  0  0  0  0  0  0  0  0
    7.8343    9.1667    4.3444 C   0  0  0  0  0  0  0  0  0  0  0  0
    9.0377    9.9095    4.9026 C   0  0  0  0  0  0  0  0  0  0  0  0
    5.2995    6.5837    4.7755 S   0  0  0  0  0  0  0  0  0  0  0  0
    2.4364    4.8221    4.6668 C   0  0  0  0  0  0  0  0  0  0  0  0
    1.1262    4.4252    4.9420 C   0  0  0  0  0  0  0  0  0  0  0  0
    0.0285    5.1328    4.4228 C   0  0  0  0  0  0  0  0  0  0  0  0
   -1.3487    4.6981    4.6890 C   0  0  0  0  0  0  0  0  0  0  0  0
   -2.1092    4.7963    6.1891 S   0  0  0  0  0  0  0  0  0  0  0  0
   -3.4274    3.8400    5.7747 C   0  0  0  0  0  0  0  0  0  0  0  0
   -4.7871    3.4438    6.8768 S   0  0  0  0  0  0  0  0  0  0  0  0
   -3.8788    2.1625    7.8163 C   0  0  0  0  0  0  0  0  0  0  0  0
   -3.8889    0.8278    7.0856 C   0  0  0  0  0  0  0  0  0  0  0  0
   -3.2874    3.4303    4.4512 C   0  0  0  0  0  0  0  0  0  0  0  0
   -2.1161    3.9020    3.8461 C   0  0  0  0  0  0  0  0  0  0  0  0
   -4.4353    2.3967    3.6194 Cl  0  0  0  0  0  0  0  0  0  0  0  0
    0.3134    6.2204    3.5860 C   0  0  0  0  0  0  0  0  0  0  0  0
   -0.7767    7.1723    2.7313 S   0  0  0  0  0  0  0  0  0  0  0  0
    1.0462    3.2244    5.6571 C   0  0  0  0  0  0  0  0  0  0  0  0
    2.2871    2.6499    5.9150 C   0  0  0  0  0  0  0  0  0  0  0  0
    3.4936    3.6650    5.2988 S   0  0  0  0  0  0  0  0  0  0  0  0
    2.4483    1.3003    6.4907 C   0  0  0  0  0  0  0  0  0  0  0  0
    3.4602    0.3540    6.2071 C   0  0  0  0  0  0  0  0  0  0  0  0
    4.4951    0.5466    5.1780 C   0  0  0  0  0  0  0  0  0  0  0  0
    4.1182    0.7528    3.8403 C   0  0  0  0  0  0  0  0  0  0  0  0
    5.0924    0.9758    2.8636 C   0  0  0  0  0  0  0  0  0  0  0  0
    6.4445    0.9870    3.2106 C   0  0  0  0  0  0  0  0  0  0  0  0
    6.8335    0.7828    4.5446 C   0  0  0  0  0  0  0  0  0  0  0  0
    8.2929    0.7750    4.9077 C   0  0  0  0  0  0  0  0  0  0  0  0
    8.8656   -0.6348    4.7898 C   0  0  0  0  0  0  0  0  0  0  0  0
    5.8539    0.5449    5.5243 C   0  0  0  0  0  0  0  0  0  0  0  0
    3.1308   -0.9110    6.7226 C   0  0  0  0  0  0  0  0  0  0  0  0
    3.6279   -2.4787    6.2706 S   0  0  0  0  0  0  0  0  0  0  0  0
    2.2391   -3.2087    6.9284 C   0  0  0  0  0  0  0  0  0  0  0  0
    1.4611   -4.2454    6.4616 C   0  0  0  0  0  0  0  0  0  0  0  0
    1.7743   -5.5023    5.9396 C   0  0  0  0  0  0  0  0  0  0  0  0
    0.7069   -6.3576    5.5158 C   0  0  0  0  0  0  0  0  0  0  0  0
    1.0586   -7.5685    5.0179 N   0  0  0  0  0  0  0  0  0  0  0  0
    2.7034   -7.4773    5.1825 S   0  0  0  0  0  0  0  0  0  0  0  0
    3.0336   -5.9896    5.8322 N   0  0  0  0  0  0  0  0  0  0  0  0
   -0.6117   -5.8618    5.5261 C   0  0  0  0  0  0  0  0  0  0  0  0
   -1.6846   -6.2469    4.7604 C   0  0  0  0  0  0  0  0  0  0  0  0
   -1.8826   -7.4058    3.5384 S   0  0  0  0  0  0  0  0  0  0  0  0
   -2.9833   -6.4252    2.6976 C   0  0  0  0  0  0  0  0  0  0  0  0
   -3.3079   -6.4399    1.3418 C   0  0  0  0  0  0  0  0  0  0  0  0
   -3.4719   -7.6801    0.5604 C   0  0  0  0  0  0  0  0  0  0  0  0
   -4.6323   -8.4404    0.7516 C   0  0  0  0  0  0  0  0  0  0  0  0
   -4.8889   -9.5510   -0.0548 C   0  0  0  0  0  0  0  0  0  0  0  0
   -3.9977   -9.8977   -1.0734 C   0  0  0  0  0  0  0  0  0  0  0  0
   -2.8234   -9.1543   -1.2655 C   0  0  0  0  0  0  0  0  0  0  0  0
   -1.9134   -9.4725   -2.4222 C   0  0  0  0  0  0  0  0  0  0  0  0
   -2.4181   -8.8121   -3.7041 C   0  0  0  0  0  0  0  0  0  0  0  0
   -2.5548   -8.0544   -0.4337 C   0  0  0  0  0  0  0  0  0  0  0  0
   -3.6335   -5.1588    0.8636 C   0  0  0  0  0  0  0  0  0  0  0  0
   -3.5276   -4.0583    2.1530 S   0  0  0  0  0  0  0  0  0  0  0  0
   -3.1148   -5.2019    3.3163 C   0  0  0  0  0  0  0  0  0  0  0  0
   -2.4266   -5.1204    4.5304 C   0  0  0  0  0  0  0  0  0  0  0  0
   -1.9634   -4.0514    5.2268 N   0  0  0  0  0  0  0  0  0  0  0  0
   -0.8787   -4.5396    5.9102 C   0  0  0  0  0  0  0  0  0  0  0  0
    0.1423   -3.8074    6.5594 C   0  0  0  0  0  0  0  0  0  0  0  0
    0.0755   -2.6070    7.1949 N   0  0  0  0  0  0  0  0  0  0  0  0
    1.3694   -2.2516    7.3878 C   0  0  0  0  0  0  0  0  0  0  0  0
    1.9041   -0.9738    7.3371 C   0  0  0  0  0  0  0  0  0  0  0  0
    1.1708    0.5204    7.2929 S   0  0  0  0  0  0  0  0  0  0  0  0
   -1.0824   -2.0368    7.9006 C   0  0  0  0  0  0  0  0  0  0  0  0
   -0.8839   -2.0981    9.4140 C   0  0  0  0  0  0  0  0  0  0  0  0
   -2.2741   -2.6483    4.9002 C   0  0  0  0  0  0  0  0  0  0  0  0
   -3.7220   -2.3126    5.2587 C   0  0  0  0  0  0  0  0  0  0  0  0
   -3.3669   -4.7469   -0.5188 C   0  0  0  0  0  0  0  0  0  0  0  0
   -4.2779   -4.2956   -1.4739 C   0  0  0  0  0  0  0  0  0  0  0  0
   -3.6724   -4.0842   -2.7305 C   0  0  0  0  0  0  0  0  0  0  0  0
   -4.3116   -3.6677   -3.9132 C   0  0  0  0  0  0  0  0  0  0  0  0
   -5.7407   -3.3423   -3.9453 C   0  0  0  0  0  0  0  0  0  0  0  0
   -6.7497   -4.1890   -4.3855 C   0  0  0  0  0  0  0  0  0  0  0  0
   -8.0071   -3.5773   -4.3894 C   0  0  0  0  0  0  0  0  0  0  0  0
   -9.4542   -4.4034   -4.9369 Cl  0  0  0  0  0  0  0  0  0  0  0  0
   -7.9775   -2.2585   -3.9514 C   0  0  0  0  0  0  0  0  0  0  0  0
   -9.3582   -1.1138   -3.9471 S   0  0  0  0  0  0  0  0  0  0  0  0
   -9.9232   -1.5319   -2.2613 C   0  0  0  0  0  0  0  0  0  0  0  0
   -9.1155   -0.7814   -1.2108 C   0  0  0  0  0  0  0  0  0  0  0  0
   -6.3918   -1.8389   -3.5834 S   0  0  0  0  0  0  0  0  0  0  0  0
   -3.5237   -3.5896   -5.0771 C   0  0  0  0  0  0  0  0  0  0  0  0
   -2.1649   -3.9239   -5.0882 C   0  0  0  0  0  0  0  0  0  0  0  0
   -1.5168   -4.3342   -3.9055 C   0  0  0  0  0  0  0  0  0  0  0  0
   -0.1311   -4.8428   -3.8944 C   0  0  0  0  0  0  0  0  0  0  0  0
    1.2430   -4.0328   -4.4510 S   0  0  0  0  0  0  0  0  0  0  0  0
    2.3127   -5.2967   -4.1579 C   0  0  0  0  0  0  0  0  0  0  0  0
    4.0748   -5.2590   -4.4814 S   0  0  0  0  0  0  0  0  0  0  0  0
    4.4977   -4.6026   -2.8326 C   0  0  0  0  0  0  0  0  0  0  0  0
    5.9403   -4.9533   -2.4911 C   0  0  0  0  0  0  0  0  0  0  0  0
    1.6122   -6.3655   -3.6080 C   0  0  0  0  0  0  0  0  0  0  0  0
    0.2488   -6.1099   -3.4630 C   0  0  0  0  0  0  0  0  0  0  0  0
    2.3383   -7.9023   -3.1820 Cl  0  0  0  0  0  0  0  0  0  0  0  0
   -2.3054   -4.3836   -2.7441 C   0  0  0  0  0  0  0  0  0  0  0  0
   -1.8319   -4.8413   -1.2063 S   0  0  0  0  0  0  0  0  0  0  0  0
   -1.5931   -3.8533   -6.3659 C   0  0  0  0  0  0  0  0  0  0  0  0
   -2.4903   -3.4391   -7.3463 C   0  0  0  0  0  0  0  0  0  0  0  0
   -4.0078   -3.1813   -6.6428 S   0  0  0  0  0  0  0  0  0  0  0  0
   -2.1575   -3.2927   -8.7723 C   0  0  0  0  0  0  0  0  0  0  0  0
   -3.0038   -2.8593   -9.7850 C   0  0  0  0  0  0  0  0  0  0  0  0
   -2.3912   -2.8392  -11.0478 C   0  0  0  0  0  0  0  0  0  0  0  0
   -1.0652   -3.2766  -11.0378 C   0  0  0  0  0  0  0  0  0  0  0  0
   -0.1478   -3.2977  -12.2093 C   0  0  0  0  0  0  0  0  0  0  0  0
    0.8646   -4.1899  -12.3453 C   0  0  0  0  0  0  0  0  0  0  0  0
    1.7802   -4.1206  -13.4611 C   0  0  0  0  0  0  0  0  0  0  0  0
    2.5189   -4.0664  -14.3521 N   0  0  0  0  0  0  0  0  0  0  0  0
    1.0501   -5.2953  -11.4387 C   0  0  0  0  0  0  0  0  0  0  0  0
    1.1975   -6.1926  -10.7180 N   0  0  0  0  0  0  0  0  0  0  0  0
   -0.3706   -2.3029  -13.2358 C   0  0  0  0  0  0  0  0  0  0  0  0
   -0.5443   -1.5115  -14.0640 N   0  0  0  0  0  0  0  0  0  0  0  0
   -0.6578   -3.6393   -9.4457 S   0  0  0  0  0  0  0  0  0  0  0  0
   -0.5321    9.8879    1.2105 H   0  0  0  0  0  0  0  0  0  0  0  0
    2.5274    6.0629   -2.8001 H   0  0  0  0  0  0  0  0  0  0  0  0
    0.8966   10.6182   -4.4003 H   0  0  0  0  0  0  0  0  0  0  0  0
    1.6289    8.4681   -7.0412 H   0  0  0  0  0  0  0  0  0  0  0  0
    3.5827   10.1398   -7.2610 H   0  0  0  0  0  0  0  0  0  0  0  0
    4.7986   10.4389   -4.9119 H   0  0  0  0  0  0  0  0  0  0  0  0
    5.6235    8.0967   -4.1157 H   0  0  0  0  0  0  0  0  0  0  0  0
    4.9353    6.3053   -5.9574 H   0  0  0  0  0  0  0  0  0  0  0  0
    5.5466    8.3758   -7.4790 H   0  0  0  0  0  0  0  0  0  0  0  0
    3.9971    7.6239   -8.0762 H   0  0  0  0  0  0  0  0  0  0  0  0
    2.3755    6.3448   -6.3236 H   0  0  0  0  0  0  0  0  0  0  0  0
    2.5764    8.1845    2.0584 H   0  0  0  0  0  0  0  0  0  0  0  0
    4.1688    6.4073    1.4061 H   0  0  0  0  0  0  0  0  0  0  0  0
    6.9677    9.3198    5.0219 H   0  0  0  0  0  0  0  0  0  0  0  0
    7.5828    9.5721    3.3412 H   0  0  0  0  0  0  0  0  0  0  0  0
    9.2908    9.5257    5.9142 H   0  0  0  0  0  0  0  0  0  0  0  0
    8.8047   10.9930    4.9824 H   0  0  0  0  0  0  0  0  0  0  0  0
    9.9119    9.7775    4.2294 H   0  0  0  0  0  0  0  0  0  0  0  0
   -4.3791    2.0359    8.7992 H   0  0  0  0  0  0  0  0  0  0  0  0
   -2.8321    2.4823    8.0142 H   0  0  0  0  0  0  0  0  0  0  0  0
   -3.4141    0.0537    7.7232 H   0  0  0  0  0  0  0  0  0  0  0  0
   -3.3207    0.9065    6.1359 H   0  0  0  0  0  0  0  0  0  0  0  0
   -4.9321    0.5132    6.8683 H   0  0  0  0  0  0  0  0  0  0  0  0
   -1.8204    3.6400    2.8381 H   0  0  0  0  0  0  0  0  0  0  0  0
    0.1095    2.7418    5.9038 H   0  0  0  0  0  0  0  0  0  0  0  0
    3.0711    0.7645    3.5577 H   0  0  0  0  0  0  0  0  0  0  0  0
    4.7964    1.1537    1.8342 H   0  0  0  0  0  0  0  0  0  0  0  0
    7.1866    1.1596    2.4402 H   0  0  0  0  0  0  0  0  0  0  0  0
    8.4297    1.1464    5.9468 H   0  0  0  0  0  0  0  0  0  0  0  0
    8.8591    1.4591    4.2362 H   0  0  0  0  0  0  0  0  0  0  0  0
    9.9435   -0.6217    5.0480 H   0  0  0  0  0  0  0  0  0  0  0  0
    8.7499   -1.0108    3.7506 H   0  0  0  0  0  0  0  0  0  0  0  0
    8.3372   -1.3181    5.4870 H   0  0  0  0  0  0  0  0  0  0  0  0
    6.1484    0.3836    6.5553 H   0  0  0  0  0  0  0  0  0  0  0  0
   -5.3550   -8.1645    1.5130 H   0  0  0  0  0  0  0  0  0  0  0  0
   -5.7918  -10.1306    0.0925 H   0  0  0  0  0  0  0  0  0  0  0  0
   -4.2274  -10.7363   -1.7187 H   0  0  0  0  0  0  0  0  0  0  0  0
   -1.8643  -10.5724   -2.5754 H   0  0  0  0  0  0  0  0  0  0  0  0
   -0.8790   -9.1234   -2.2072 H   0  0  0  0  0  0  0  0  0  0  0  0
   -3.3749   -9.2776   -4.0251 H   0  0  0  0  0  0  0  0  0  0  0  0
   -2.5847   -7.7244   -3.5457 H   0  0  0  0  0  0  0  0  0  0  0  0
   -1.6692   -8.9421   -4.5111 H   0  0  0  0  0  0  0  0  0  0  0  0
   -1.6437   -7.4892   -0.5702 H   0  0  0  0  0  0  0  0  0  0  0  0
   -1.9976   -2.6206    7.6674 H   0  0  0  0  0  0  0  0  0  0  0  0
   -1.2380   -0.9870    7.5827 H   0  0  0  0  0  0  0  0  0  0  0  0
   -1.7955   -1.7160    9.9210 H   0  0  0  0  0  0  0  0  0  0  0  0
   -0.7066   -3.1440    9.7339 H   0  0  0  0  0  0  0  0  0  0  0  0
   -0.0209   -1.4697    9.7172 H   0  0  0  0  0  0  0  0  0  0  0  0
   -2.0995   -2.4663    3.8190 H   0  0  0  0  0  0  0  0  0  0  0  0
   -1.5928   -1.9418    5.3993 H   0  0  0  0  0  0  0  0  0  0  0  0
   -4.4233   -2.9805    4.7212 H   0  0  0  0  0  0  0  0  0  0  0  0
   -3.8905   -2.4271    6.3478 H   0  0  0  0  0  0  0  0  0  0  0  0
   -3.9415   -1.2639    4.9683 H   0  0  0  0  0  0  0  0  0  0  0  0
   -5.3317   -4.1589   -1.2727 H   0  0  0  0  0  0  0  0  0  0  0  0
   -6.5759   -5.2078   -4.7106 H   0  0  0  0  0  0  0  0  0  0  0  0
  -10.9873   -1.2312   -2.1703 H   0  0  0  0  0  0  0  0  0  0  0  0
   -9.8578   -2.6278   -2.0887 H   0  0  0  0  0  0  0  0  0  0  0  0
   -9.5449   -0.9749   -0.2054 H   0  0  0  0  0  0  0  0  0  0  0  0
   -9.1544    0.3123   -1.4102 H   0  0  0  0  0  0  0  0  0  0  0  0
   -8.0612   -1.1227   -1.2189 H   0  0  0  0  0  0  0  0  0  0  0  0
    4.3708   -3.5006   -2.8403 H   0  0  0  0  0  0  0  0  0  0  0  0
    3.8341   -5.0414   -2.0561 H   0  0  0  0  0  0  0  0  0  0  0  0
    6.2127   -4.5068   -1.5127 H   0  0  0  0  0  0  0  0  0  0  0  0
    6.0480   -6.0589   -2.4190 H   0  0  0  0  0  0  0  0  0  0  0  0
    6.6309   -4.5664   -3.2709 H   0  0  0  0  0  0  0  0  0  0  0  0
   -0.4447   -6.8371   -3.0664 H   0  0  0  0  0  0  0  0  0  0  0  0
   -0.5652   -4.1091   -6.5834 H   0  0  0  0  0  0  0  0  0  0  0  0
   -4.0326   -2.5600   -9.6252 H   0  0  0  0  0  0  0  0  0  0  0  0
   -2.9076   -2.5141  -11.9406 H   0  0  0  0  0  0  0  0  0  0  0  0
  1  2  2  3
  2  3  1  0
  3  4  2  0
  3  5  1  0
  5  6  2  0
  6  7  1  0
  7  8  2  0
  8  9  1  0
  9 10  2  0
 10 11  1  0
 11 12  2  3
 12 13  1  0
 13 14  3  0
 12 15  1  0
 15 16  3  0
  8 17  1  0
 17 18  1  0
 18 19  1  0
 19 20  2  0
 20 21  1  0
 21 22  1  0
 21 23  1  0
  1 24  1  0
 24 25  2  0
 25 26  1  0
 26 27  2  0
 27 28  1  0
 28 29  2  0
 29 30  1  0
 30 31  1  0
 30 32  2  0
 32 33  1  0
 33 34  1  0
 34 35  1  0
 32 36  1  0
 27 37  1  0
 37 38  2  0
 38 39  1  0
 39 40  1  0
 40 41  1  0
 41 42  1  0
 42 43  1  0
 43 44  1  0
 44 45  1  0
 42 46  2  0
 46 47  1  0
 46 48  1  0
 39 49  2  0
 49 50  1  0
 38 51  1  0
 51 52  2  0
 52 53  1  0
 52 54  1  0
 54 55  2  0
 55 56  1  0
 56 57  2  0
 57 58  1  0
 58 59  2  0
 59 60  1  0
 60 61  1  0
 61 62  1  0
 60 63  2  0
 55 64  1  0
 64 65  1  0
 65 66  1  0
 66 67  1  0
 67 68  1  0
 68 69  1  0
 69 70  2  0
 70 71  1  0
 71 72  1  0
 69 73  1  0
 73 74  1  0
 74 75  1  0
 75 76  1  0
 76 77  1  0
 77 78  1  0
 78 79  2  0
 79 80  1  0
 80 81  2  0
 81 82  1  0
 82 83  1  0
 83 84  1  0
 82 85  2  0
 77 86  2  0
 86 87  1  0
 87 88  1  0
 88 89  1  0
 89 90  1  0
 90 91  1  0
 91 92  1  0
 92 93  1  0
 93 94  1  0
 94 95  1  0
 95 96  1  0
 93 97  1  0
 97 98  1  0
 90 99  1  0
 99100  1  0
 86101  1  0
101102  2  0
102103  1  0
103104  2  0
104105  1  0
105106  2  0
106107  1  0
107108  1  0
107109  2  0
109110  1  0
110111  1  0
111112  1  0
109113  1  0
104114  1  0
114115  2  0
115116  1  0
116117  1  0
117118  1  0
118119  1  0
119120  1  0
120121  1  0
121122  1  0
119123  2  0
123124  1  0
123125  1  0
116126  2  0
126127  1  0
115128  1  0
128129  2  0
129130  1  0
129131  1  0
131132  2  0
132133  1  0
133134  2  0
134135  1  0
135136  2  3
136137  1  0
137138  3  0
136139  1  0
139140  3  0
135141  1  0
141142  3  0
134143  1  0
 11  2  1  0
 23 17  1  0
 50 24  1  0
 96 54  1  0
127101  1  0
143131  1  0
 10  5  1  0
 22 18  1  0
 49 26  1  0
 63 56  1  0
 95 64  2  0
126103  1  0
 23  7  1  0
 36 28  1  0
 53 37  1  0
 94 66  2  0
113105  1  0
130114  1  0
 47 40  2  0
 92 67  2  0
124117  2  0
 72 68  2  0
 91 73  2  0
 89 74  2  0
 88 76  2  0
 85 78  1  0
  1144  1  0
  6145  1  0
  9146  1  0
 17147  1  0
 18148  1  0
 19149  1  0
 20150  1  0
 21151  1  0
 22152  1  0
 22153  1  0
 23154  1  0
 25155  1  0
 29156  1  0
 34157  1  0
 34158  1  0
 35159  1  0
 35160  1  0
 35161  1  0
 44162  1  0
 44163  1  0
 45164  1  0
 45165  1  0
 45166  1  0
 47167  1  0
 51168  1  0
 57169  1  0
 58170  1  0
 59171  1  0
 61172  1  0
 61173  1  0
 62174  1  0
 62175  1  0
 62176  1  0
 63177  1  0
 79178  1  0
 80179  1  0
 81180  1  0
 83181  1  0
 83182  1  0
 84183  1  0
 84184  1  0
 84185  1  0
 85186  1  0
 97187  1  0
 97188  1  0
 98189  1  0
 98190  1  0
 98191  1  0
 99192  1  0
 99193  1  0
100194  1  0
100195  1  0
100196  1  0
102197  1  0
106198  1  0
111199  1  0
111200  1  0
112201  1  0
112202  1  0
112203  1  0
121204  1  0
121205  1  0
122206  1  0
122207  1  0
122208  1  0
124209  1  0
128210  1  0
132211  1  0
133212  1  0
M  END

