
     RDKit          3D

256284  0  0  0  0  0  0  0  0999 V2000
   -3.8015    4.0194   11.0431 C   0  0  0  0  0  0  0  0  0  0  0  0
   -4.8402    3.2328   10.6939 C   0  0  0  0  0  0  0  0  0  0  0  0
   -4.8804    2.3695    9.5059 C   0  0  0  0  0  0  0  0  0  0  0  0
   -4.1951    2.5049    8.4574 O   0  0  0  0  0  0  0  0  0  0  0  0
   -5.8585    1.3269    9.7197 C   0  0  0  0  0  0  0  0  0  0  0  0
   -6.0931    0.2009    8.8991 C   0  0  0  0  0  0  0  0  0  0  0  0
   -6.9884   -0.7059    9.4344 C   0  0  0  0  0  0  0  0  0  0  0  0
   -7.6210   -0.5166   10.7050 C   0  0  0  0  0  0  0  0  0  0  0  0
   -7.3970    0.5835   11.5135 C   0  0  0  0  0  0  0  0  0  0  0  0
   -6.4873    1.5369   10.9764 C   0  0  0  0  0  0  0  0  0  0  0  0
   -5.9730    2.8068   11.5710 C   0  0  0  0  0  0  0  0  0  0  0  0
   -6.5281    3.5115   12.5920 C   0  0  0  0  0  0  0  0  0  0  0  0
   -6.0825    4.8310   12.9401 C   0  0  0  0  0  0  0  0  0  0  0  0
   -5.7397    5.8990   13.2360 N   0  0  0  0  0  0  0  0  0  0  0  0
   -7.6898    3.0575   13.3112 C   0  0  0  0  0  0  0  0  0  0  0  0
   -8.6273    2.7159   13.8967 N   0  0  0  0  0  0  0  0  0  0  0  0
   -8.3411   -1.8236   10.5584 C   0  0  0  0  0  0  0  0  0  0  0  0
   -9.8527   -1.7444   10.2025 C   0  0  0  0  0  0  0  0  0  0  0  0
  -10.2377   -3.1290    9.7474 C   0  0  0  0  0  0  0  0  0  0  0  0
   -9.6457   -3.3175    8.5620 C   0  0  0  0  0  0  0  0  0  0  0  0
   -8.8832   -2.0504    8.2574 C   0  0  0  0  0  0  0  0  0  0  0  0
   -9.8543   -1.0458    8.8510 C   0  0  0  0  0  0  0  0  0  0  0  0
   -7.6911   -2.0204    9.2574 C   0  0  0  0  0  0  0  0  0  0  0  0
   -2.5578    4.0405   10.2727 C   0  0  0  0  0  0  0  0  0  0  0  0
   -1.7019    2.9593   10.1713 C   0  0  0  0  0  0  0  0  0  0  0  0
   -0.8480    3.0150    9.0592 C   0  0  0  0  0  0  0  0  0  0  0  0
    0.2604    1.6447    8.7404 S   0  0  0  0  0  0  0  0  0  0  0  0
   -1.0127    0.6441    7.8868 C   0  0  0  0  0  0  0  0  0  0  0  0
   -0.4863   -0.7649    7.6242 C   0  0  0  0  0  0  0  0  0  0  0  0
   -0.9997    4.1767    8.2848 C   0  0  0  0  0  0  0  0  0  0  0  0
   -2.2465    5.0729    8.9925 S   0  0  0  0  0  0  0  0  0  0  0  0
   -0.4443    4.5224    6.9511 C   0  0  0  0  0  0  0  0  0  0  0  0
   -0.4113    3.6176    5.8522 C   0  0  0  0  0  0  0  0  0  0  0  0
    0.9151    2.9043    5.6309 C   0  0  0  0  0  0  0  0  0  0  0  0
    0.8457    1.7124    4.6706 C   0  0  0  0  0  0  0  0  0  0  0  0
   -0.8926    4.2885    4.7159 C   0  0  0  0  0  0  0  0  0  0  0  0
   -1.7312    3.7948    3.3406 S   0  0  0  0  0  0  0  0  0  0  0  0
   -2.0640    5.3939    2.8287 C   0  0  0  0  0  0  0  0  0  0  0  0
   -1.9694    5.8831    1.4766 C   0  0  0  0  0  0  0  0  0  0  0  0
   -0.9592    6.8066    1.4524 C   0  0  0  0  0  0  0  0  0  0  0  0
   -0.6365    7.3247    2.8448 C   0  0  0  0  0  0  0  0  0  0  0  0
   -1.4169    6.2930    3.6713 C   0  0  0  0  0  0  0  0  0  0  0  0
   -0.8926    5.6359    4.7800 C   0  0  0  0  0  0  0  0  0  0  0  0
   -0.6771    6.1100    6.3622 S   0  0  0  0  0  0  0  0  0  0  0  0
    0.8613    7.2538    3.1846 C   0  0  0  0  0  0  0  0  0  0  0  0
    1.5216    8.2900    3.8710 C   0  0  0  0  0  0  0  0  0  0  0  0
    2.8598    8.1558    4.2515 C   0  0  0  0  0  0  0  0  0  0  0  0
    3.5598    6.9709    3.9818 C   0  0  0  0  0  0  0  0  0  0  0  0
    4.9930    6.8184    4.4227 C   0  0  0  0  0  0  0  0  0  0  0  0
    5.0744    6.4525    5.8994 C   0  0  0  0  0  0  0  0  0  0  0  0
    2.8999    5.9119    3.3535 C   0  0  0  0  0  0  0  0  0  0  0  0
    1.5666    6.0464    2.9671 C   0  0  0  0  0  0  0  0  0  0  0  0
   -1.2525    8.7248    2.9144 C   0  0  0  0  0  0  0  0  0  0  0  0
   -0.7710    9.7261    2.0430 C   0  0  0  0  0  0  0  0  0  0  0  0
   -1.4825   10.9107    1.8471 C   0  0  0  0  0  0  0  0  0  0  0  0
   -2.6772   11.1439    2.5449 C   0  0  0  0  0  0  0  0  0  0  0  0
   -3.5339   12.3362    2.2197 C   0  0  0  0  0  0  0  0  0  0  0  0
   -4.4807   12.0120    1.0630 C   0  0  0  0  0  0  0  0  0  0  0  0
   -3.1330   10.1857    3.4641 C   0  0  0  0  0  0  0  0  0  0  0  0
   -2.4259    8.9966    3.6534 C   0  0  0  0  0  0  0  0  0  0  0  0
   -0.2649    6.7638    0.2364 C   0  0  0  0  0  0  0  0  0  0  0  0
    1.4062    6.8630   -0.0423 S   0  0  0  0  0  0  0  0  0  0  0  0
    1.3401    5.9022   -1.4282 C   0  0  0  0  0  0  0  0  0  0  0  0
    2.2218    4.8457   -1.8734 C   0  0  0  0  0  0  0  0  0  0  0  0
    1.4554    3.9388   -2.5893 C   0  0  0  0  0  0  0  0  0  0  0  0
    0.0156    4.3833   -2.7422 C   0  0  0  0  0  0  0  0  0  0  0  0
   -0.1493    4.9758   -4.1495 C   0  0  0  0  0  0  0  0  0  0  0  0
    0.3015    4.2614   -5.2751 C   0  0  0  0  0  0  0  0  0  0  0  0
    0.1770    4.7975   -6.5610 C   0  0  0  0  0  0  0  0  0  0  0  0
   -0.4156    6.0530   -6.7491 C   0  0  0  0  0  0  0  0  0  0  0  0
   -0.5642    6.6309   -8.1321 C   0  0  0  0  0  0  0  0  0  0  0  0
   -1.9872    6.4345   -8.6504 C   0  0  0  0  0  0  0  0  0  0  0  0
   -0.9085    6.7533   -5.6421 C   0  0  0  0  0  0  0  0  0  0  0  0
   -0.7962    6.2154   -4.3602 C   0  0  0  0  0  0  0  0  0  0  0  0
   -1.0080    3.2831   -2.4161 C   0  0  0  0  0  0  0  0  0  0  0  0
   -0.8954    2.5217   -1.2313 C   0  0  0  0  0  0  0  0  0  0  0  0
   -1.8889    1.6082   -0.8685 C   0  0  0  0  0  0  0  0  0  0  0  0
   -2.9860    1.3784   -1.7116 C   0  0  0  0  0  0  0  0  0  0  0  0
   -4.0878    0.4300   -1.3173 C   0  0  0  0  0  0  0  0  0  0  0  0
   -5.1756    1.1560   -0.5343 C   0  0  0  0  0  0  0  0  0  0  0  0
   -3.0910    2.0985   -2.9060 C   0  0  0  0  0  0  0  0  0  0  0  0
   -2.1255    3.0483   -3.2475 C   0  0  0  0  0  0  0  0  0  0  0  0
    0.0482    5.5079   -1.7096 C   0  0  0  0  0  0  0  0  0  0  0  0
   -0.8381    5.9205   -0.7059 C   0  0  0  0  0  0  0  0  0  0  0  0
   -2.1191    5.0730    0.0038 S   0  0  0  0  0  0  0  0  0  0  0  0
    2.0079    2.6612   -2.5538 C   0  0  0  0  0  0  0  0  0  0  0  0
    3.0935    2.5321   -1.7413 C   0  0  0  0  0  0  0  0  0  0  0  0
    3.4584    4.0284   -1.0280 S   0  0  0  0  0  0  0  0  0  0  0  0
    3.5218    1.2115   -1.5260 C   0  0  0  0  0  0  0  0  0  0  0  0
    4.5853    0.8353   -0.5332 C   0  0  0  0  0  0  0  0  0  0  0  0
    5.9763    1.0997   -1.0900 C   0  0  0  0  0  0  0  0  0  0  0  0
    2.7229    0.3073   -2.2623 C   0  0  0  0  0  0  0  0  0  0  0  0
    1.5023    1.1598   -3.0846 S   0  0  0  0  0  0  0  0  0  0  0  0
    2.9419   -1.1398   -2.4822 C   0  0  0  0  0  0  0  0  0  0  0  0
    1.9691   -2.0074   -3.0113 C   0  0  0  0  0  0  0  0  0  0  0  0
    0.5865   -1.9976   -2.5948 N   0  0  0  0  0  0  0  0  0  0  0  0
    0.2613   -1.9537   -1.1742 C   0  0  0  0  0  0  0  0  0  0  0  0
   -1.0366   -1.6082   -0.7626 C   0  0  0  0  0  0  0  0  0  0  0  0
   -1.3869   -1.6222    0.5907 C   0  0  0  0  0  0  0  0  0  0  0  0
   -0.4345   -1.9402    1.5679 C   0  0  0  0  0  0  0  0  0  0  0  0
   -0.8131   -1.9399    3.0229 C   0  0  0  0  0  0  0  0  0  0  0  0
    0.8489   -2.3204    1.1684 C   0  0  0  0  0  0  0  0  0  0  0  0
    1.1946   -2.3333   -0.1853 C   0  0  0  0  0  0  0  0  0  0  0  0
   -0.4093   -2.4415   -3.5441 C   0  0  0  0  0  0  0  0  0  0  0  0
   -1.2063   -3.5677   -3.2645 C   0  0  0  0  0  0  0  0  0  0  0  0
   -2.0821   -4.0689   -4.2282 C   0  0  0  0  0  0  0  0  0  0  0  0
   -2.1890   -3.4448   -5.4778 C   0  0  0  0  0  0  0  0  0  0  0  0
   -3.0664   -4.0403   -6.5409 C   0  0  0  0  0  0  0  0  0  0  0  0
   -1.3981   -2.3214   -5.7601 C   0  0  0  0  0  0  0  0  0  0  0  0
   -0.5129   -1.8211   -4.7966 C   0  0  0  0  0  0  0  0  0  0  0  0
    2.5651   -3.1511   -3.5289 C   0  0  0  0  0  0  0  0  0  0  0  0
    1.9571   -4.5489   -4.2009 S   0  0  0  0  0  0  0  0  0  0  0  0
    3.4475   -5.3637   -4.1562 C   0  0  0  0  0  0  0  0  0  0  0  0
    4.4092   -4.5625   -3.5150 C   0  0  0  0  0  0  0  0  0  0  0  0
    5.4181   -5.1229   -2.6669 N   0  0  0  0  0  0  0  0  0  0  0  0
    6.5801   -5.7316   -3.2337 C   0  0  0  0  0  0  0  0  0  0  0  0
    6.6960   -7.1242   -3.2455 C   0  0  0  0  0  0  0  0  0  0  0  0
    7.8570   -7.7283   -3.7393 C   0  0  0  0  0  0  0  0  0  0  0  0
    8.9075   -6.9368   -4.2257 C   0  0  0  0  0  0  0  0  0  0  0  0
   10.1875   -7.5786   -4.6754 C   0  0  0  0  0  0  0  0  0  0  0  0
    8.8024   -5.5386   -4.1775 C   0  0  0  0  0  0  0  0  0  0  0  0
    7.6340   -4.9363   -3.7023 C   0  0  0  0  0  0  0  0  0  0  0  0
    5.2247   -5.0872   -1.2332 C   0  0  0  0  0  0  0  0  0  0  0  0
    3.9317   -5.1886   -0.6858 C   0  0  0  0  0  0  0  0  0  0  0  0
    3.7213   -5.0099    0.6824 C   0  0  0  0  0  0  0  0  0  0  0  0
    4.8000   -4.7406    1.5326 C   0  0  0  0  0  0  0  0  0  0  0  0
    4.5525   -4.4546    2.9835 C   0  0  0  0  0  0  0  0  0  0  0  0
    6.0938   -4.6619    0.9995 C   0  0  0  0  0  0  0  0  0  0  0  0
    6.3075   -4.8360   -0.3733 C   0  0  0  0  0  0  0  0  0  0  0  0
    3.8852   -3.2985   -3.2724 C   0  0  0  0  0  0  0  0  0  0  0  0
    4.4607   -1.9202   -2.5089 S   0  0  0  0  0  0  0  0  0  0  0  0
    3.5991   -6.7472   -4.6333 C   0  0  0  0  0  0  0  0  0  0  0  0
    3.1570   -7.0845   -5.8562 C   0  0  0  0  0  0  0  0  0  0  0  0
    2.3936   -8.3055   -6.1034 C   0  0  0  0  0  0  0  0  0  0  0  0
    2.4918   -9.3795   -5.4499 O   0  0  0  0  0  0  0  0  0  0  0  0
    1.4060   -8.0226   -7.1407 C   0  0  0  0  0  0  0  0  0  0  0  0
    0.3396   -8.8511   -7.5572 C   0  0  0  0  0  0  0  0  0  0  0  0
   -0.5157   -8.2491   -8.4585 C   0  0  0  0  0  0  0  0  0  0  0  0
   -0.3512   -6.8973   -8.9099 C   0  0  0  0  0  0  0  0  0  0  0  0
    0.6894   -6.0789   -8.5108 C   0  0  0  0  0  0  0  0  0  0  0  0
    1.5960   -6.6938   -7.6065 C   0  0  0  0  0  0  0  0  0  0  0  0
    2.7878   -6.1251   -6.9409 C   0  0  0  0  0  0  0  0  0  0  0  0
    3.5594   -5.1035   -7.3758 C   0  0  0  0  0  0  0  0  0  0  0  0
    3.1782   -4.2352   -8.4590 C   0  0  0  0  0  0  0  0  0  0  0  0
    2.8939   -3.5116   -9.3209 N   0  0  0  0  0  0  0  0  0  0  0  0
    4.8826   -4.8857   -6.8427 C   0  0  0  0  0  0  0  0  0  0  0  0
    5.9466   -4.7042   -6.4275 N   0  0  0  0  0  0  0  0  0  0  0  0
   -1.5742   -7.0143   -9.7681 C   0  0  0  0  0  0  0  0  0  0  0  0
   -1.3727   -7.1404  -11.3071 C   0  0  0  0  0  0  0  0  0  0  0  0
   -0.0549   -7.8190  -11.6000 C   0  0  0  0  0  0  0  0  0  0  0  0
   -0.1811   -9.0797  -11.1893 C   0  0  0  0  0  0  0  0  0  0  0  0
   -1.5829   -9.2235  -10.6427 C   0  0  0  0  0  0  0  0  0  0  0  0
   -2.3110   -8.2970  -11.6002 C   0  0  0  0  0  0  0  0  0  0  0  0
   -1.7312   -8.4023   -9.3253 C   0  0  0  0  0  0  0  0  0  0  0  0
   -3.7658    4.4990   12.0049 H   0  0  0  0  0  0  0  0  0  0  0  0
   -5.5975    0.0448    7.9461 H   0  0  0  0  0  0  0  0  0  0  0  0
   -7.8506    0.6515   12.4858 H   0  0  0  0  0  0  0  0  0  0  0  0
   -8.0626   -2.5752   11.3322 H   0  0  0  0  0  0  0  0  0  0  0  0
  -10.5108   -1.2976   10.9779 H   0  0  0  0  0  0  0  0  0  0  0  0
  -10.9253   -3.8174   10.2326 H   0  0  0  0  0  0  0  0  0  0  0  0
   -9.7736   -4.1814    7.9153 H   0  0  0  0  0  0  0  0  0  0  0  0
   -8.6207   -1.9003    7.1884 H   0  0  0  0  0  0  0  0  0  0  0  0
  -10.8526   -1.0464    8.3503 H   0  0  0  0  0  0  0  0  0  0  0  0
   -9.4688   -0.0016    8.8757 H   0  0  0  0  0  0  0  0  0  0  0  0
   -7.0007   -2.8887    9.2106 H   0  0  0  0  0  0  0  0  0  0  0  0
   -1.7564    2.1070   10.8339 H   0  0  0  0  0  0  0  0  0  0  0  0
   -1.9415    0.5870    8.4988 H   0  0  0  0  0  0  0  0  0  0  0  0
   -1.2627    1.1341    6.9240 H   0  0  0  0  0  0  0  0  0  0  0  0
   -1.0221   -1.2113    6.7567 H   0  0  0  0  0  0  0  0  0  0  0  0
    0.5986   -0.7507    7.4016 H   0  0  0  0  0  0  0  0  0  0  0  0
   -0.6539   -1.4021    8.5172 H   0  0  0  0  0  0  0  0  0  0  0  0
    1.6454    3.6327    5.2220 H   0  0  0  0  0  0  0  0  0  0  0  0
    1.3604    2.5671    6.5814 H   0  0  0  0  0  0  0  0  0  0  0  0
    0.3888    1.9956    3.7059 H   0  0  0  0  0  0  0  0  0  0  0  0
    1.8727    1.3315    4.4932 H   0  0  0  0  0  0  0  0  0  0  0  0
    0.2410    0.8812    5.0943 H   0  0  0  0  0  0  0  0  0  0  0  0
    1.0029    9.2033    4.1343 H   0  0  0  0  0  0  0  0  0  0  0  0
    3.3477    8.9689    4.7675 H   0  0  0  0  0  0  0  0  0  0  0  0
    5.4956    6.0239    3.8340 H   0  0  0  0  0  0  0  0  0  0  0  0
    5.5475    7.7619    4.2459 H   0  0  0  0  0  0  0  0  0  0  0  0
    4.5700    5.4762    6.0807 H   0  0  0  0  0  0  0  0  0  0  0  0
    6.1442    6.3633    6.1979 H   0  0  0  0  0  0  0  0  0  0  0  0
    4.5983    7.2350    6.5274 H   0  0  0  0  0  0  0  0  0  0  0  0
    3.4062    4.9735    3.1597 H   0  0  0  0  0  0  0  0  0  0  0  0
    1.0761    5.1965    2.5032 H   0  0  0  0  0  0  0  0  0  0  0  0
    0.1134    9.5465    1.4489 H   0  0  0  0  0  0  0  0  0  0  0  0
   -1.1211   11.6348    1.1303 H   0  0  0  0  0  0  0  0  0  0  0  0
   -2.9013   13.2071    1.9423 H   0  0  0  0  0  0  0  0  0  0  0  0
   -4.1306   12.6271    3.1096 H   0  0  0  0  0  0  0  0  0  0  0  0
   -3.9038   11.7950    0.1363 H   0  0  0  0  0  0  0  0  0  0  0  0
   -5.1058   11.1290    1.3189 H   0  0  0  0  0  0  0  0  0  0  0  0
   -5.1503   12.8732    0.8710 H   0  0  0  0  0  0  0  0  0  0  0  0
   -4.0635   10.3371    3.9960 H   0  0  0  0  0  0  0  0  0  0  0  0
   -2.8473    8.2688    4.3286 H   0  0  0  0  0  0  0  0  0  0  0  0
    0.7625    3.2875   -5.1636 H   0  0  0  0  0  0  0  0  0  0  0  0
    0.5426    4.2262   -7.4090 H   0  0  0  0  0  0  0  0  0  0  0  0
    0.1492    6.1465   -8.8358 H   0  0  0  0  0  0  0  0  0  0  0  0
   -0.3265    7.7154   -8.1162 H   0  0  0  0  0  0  0  0  0  0  0  0
   -2.0641    6.8407   -9.6838 H   0  0  0  0  0  0  0  0  0  0  0  0
   -2.2481    5.3535   -8.6686 H   0  0  0  0  0  0  0  0  0  0  0  0
   -2.7120    6.9756   -8.0045 H   0  0  0  0  0  0  0  0  0  0  0  0
   -1.3885    7.7145   -5.7746 H   0  0  0  0  0  0  0  0  0  0  0  0
   -1.2027    6.7862   -3.5364 H   0  0  0  0  0  0  0  0  0  0  0  0
   -0.0647    2.6869   -0.5526 H   0  0  0  0  0  0  0  0  0  0  0  0
   -1.8099    1.0940    0.0793 H   0  0  0  0  0  0  0  0  0  0  0  0
   -3.6980   -0.3940   -0.6946 H   0  0  0  0  0  0  0  0  0  0  0  0
   -4.5350   -0.0354   -2.2226 H   0  0  0  0  0  0  0  0  0  0  0  0
   -5.5783    2.0034   -1.1269 H   0  0  0  0  0  0  0  0  0  0  0  0
   -4.7698    1.5363    0.4258 H   0  0  0  0  0  0  0  0  0  0  0  0
   -6.0074    0.4525   -0.3171 H   0  0  0  0  0  0  0  0  0  0  0  0
   -3.9369    1.9442   -3.5649 H   0  0  0  0  0  0  0  0  0  0  0  0
   -2.2804    3.6065   -4.1606 H   0  0  0  0  0  0  0  0  0  0  0  0
    4.4934   -0.2351   -0.2539 H   0  0  0  0  0  0  0  0  0  0  0  0
    4.4466    1.4220    0.3999 H   0  0  0  0  0  0  0  0  0  0  0  0
    6.1291    2.1905   -1.2345 H   0  0  0  0  0  0  0  0  0  0  0  0
    6.1231    0.5831   -2.0592 H   0  0  0  0  0  0  0  0  0  0  0  0
    6.7381    0.7312   -0.3713 H   0  0  0  0  0  0  0  0  0  0  0  0
   -1.7842   -1.3502   -1.5003 H   0  0  0  0  0  0  0  0  0  0  0  0
   -2.3965   -1.3727    0.8913 H   0  0  0  0  0  0  0  0  0  0  0  0
   -1.5328   -1.1170    3.2337 H   0  0  0  0  0  0  0  0  0  0  0  0
    0.0795   -1.7865    3.6625 H   0  0  0  0  0  0  0  0  0  0  0  0
   -1.2869   -2.9116    3.2831 H   0  0  0  0  0  0  0  0  0  0  0  0
    1.5839   -2.6165    1.9052 H   0  0  0  0  0  0  0  0  0  0  0  0
    2.1859   -2.6720   -0.4508 H   0  0  0  0  0  0  0  0  0  0  0  0
   -1.1099   -4.0828   -2.3204 H   0  0  0  0  0  0  0  0  0  0  0  0
   -2.6558   -4.9556   -4.0068 H   0  0  0  0  0  0  0  0  0  0  0  0
   -3.4733   -3.2493   -7.2020 H   0  0  0  0  0  0  0  0  0  0  0  0
   -3.9261   -4.5750   -6.0835 H   0  0  0  0  0  0  0  0  0  0  0  0
   -2.4823   -4.7632   -7.1470 H   0  0  0  0  0  0  0  0  0  0  0  0
   -1.4503   -1.8445   -6.7320 H   0  0  0  0  0  0  0  0  0  0  0  0
    0.1119   -0.9686   -5.0395 H   0  0  0  0  0  0  0  0  0  0  0  0
    5.8977   -7.7467   -2.8581 H   0  0  0  0  0  0  0  0  0  0  0  0
    7.9340   -8.8106   -3.7389 H   0  0  0  0  0  0  0  0  0  0  0  0
   10.6765   -6.9581   -5.4532 H   0  0  0  0  0  0  0  0  0  0  0  0
   10.8753   -7.6846   -3.8110 H   0  0  0  0  0  0  0  0  0  0  0  0
    9.9905   -8.5807   -5.1076 H   0  0  0  0  0  0  0  0  0  0  0  0
    9.6251   -4.9148   -4.4949 H   0  0  0  0  0  0  0  0  0  0  0  0
    7.5689   -3.8624   -3.6408 H   0  0  0  0  0  0  0  0  0  0  0  0
    3.0752   -5.3834   -1.3200 H   0  0  0  0  0  0  0  0  0  0  0  0
    2.7116   -5.0545    1.0730 H   0  0  0  0  0  0  0  0  0  0  0  0
    4.2338   -3.3943    3.1005 H   0  0  0  0  0  0  0  0  0  0  0  0
    3.7505   -5.1196    3.3743 H   0  0  0  0  0  0  0  0  0  0  0  0
    5.4723   -4.6239    3.5879 H   0  0  0  0  0  0  0  0  0  0  0  0
    6.9371   -4.4310    1.6354 H   0  0  0  0  0  0  0  0  0  0  0  0
    7.3069   -4.7298   -0.7712 H   0  0  0  0  0  0  0  0  0  0  0  0
    3.7311   -7.5100   -3.8809 H   0  0  0  0  0  0  0  0  0  0  0  0
    0.1890   -9.8544   -7.1848 H   0  0  0  0  0  0  0  0  0  0  0  0
    0.7540   -5.0604   -8.8465 H   0  0  0  0  0  0  0  0  0  0  0  0
   -2.4117   -6.3480   -9.4542 H   0  0  0  0  0  0  0  0  0  0  0  0
   -1.5587   -6.2106  -11.8887 H   0  0  0  0  0  0  0  0  0  0  0  0
    0.8094   -7.3930  -12.0982 H   0  0  0  0  0  0  0  0  0  0  0  0
    0.5700   -9.8541  -11.2972 H   0  0  0  0  0  0  0  0  0  0  0  0
   -1.9651  -10.2653  -10.6003 H   0  0  0  0  0  0  0  0  0  0  0  0
   -2.2714   -8.6382  -12.6637 H   0  0  0  0  0  0  0  0  0  0  0  0
   -3.3715   -8.0968  -11.3093 H   0  0  0  0  0  0  0  0  0  0  0  0
   -2.6703   -8.5840   -8.7601 H   0  0  0  0  0  0  0  0  0  0  0  0
  1  2  2  3
  2  3  1  0
  3  4  2  0
  3  5  1  0
  5  6  2  0
  6  7  1  0
  7  8  2  0
  8  9  1  0
  9 10  2  0
 10 11  1  0
 11 12  2  3
 12 13  1  0
 13 14  3  0
 12 15  1  0
 15 16  3  0
  8 17  1  0
 17 18  1  0
 18 19  1  0
 19 20  2  0
 20 21  1  0
 21 22  1  0
 21 23  1  0
  1 24  1  0
 24 25  2  0
 25 26  1  0
 26 27  1  0
 27 28  1  0
 28 29  1  0
 26 30  2  0
 30 31  1  0
 30 32  1  0
 32 33  2  0
 33 34  1  0
 34 35  1  0
 33 36  1  0
 36 37  1  0
 37 38  1  0
 38 39  1  0
 39 40  2  0
 40 41  1  0
 41 42  1  0
 42 43  1  0
 43 44  1  0
 41 45  1  0
 45 46  2  0
 46 47  1  0
 47 48  2  0
 48 49  1  0
 49 50  1  0
 48 51  1  0
 51 52  2  0
 41 53  1  0
 53 54  2  0
 54 55  1  0
 55 56  2  0
 56 57  1  0
 57 58  1  0
 56 59  1  0
 59 60  2  0
 40 61  1  0
 61 62  1  0
 62 63  1  0
 63 64  1  0
 64 65  2  0
 65 66  1  0
 66 67  1  0
 67 68  2  0
 68 69  1  0
 69 70  2  0
 70 71  1  0
 71 72  1  0
 70 73  1  0
 73 74  2  0
 66 75  1  0
 75 76  2  0
 76 77  1  0
 77 78  2  0
 78 79  1  0
 79 80  1  0
 78 81  1  0
 81 82  2  0
 66 83  1  0
 83 84  1  0
 84 85  1  0
 65 86  1  0
 86 87  2  0
 87 88  1  0
 87 89  1  0
 89 90  1  0
 90 91  1  0
 89 92  2  0
 92 93  1  0
 92 94  1  0
 94 95  2  0
 95 96  1  0
 96 97  1  0
 97 98  2  0
 98 99  1  0
 99100  2  0
100101  1  0
100102  1  0
102103  2  0
 96104  1  0
104105  2  0
105106  1  0
106107  2  0
107108  1  0
107109  1  0
109110  2  0
 95111  1  0
111112  1  0
112113  1  0
113114  2  0
114115  1  0
115116  1  0
116117  2  0
117118  1  0
118119  2  0
119120  1  0
119121  1  0
121122  2  0
115123  1  0
123124  2  0
124125  1  0
125126  2  0
126127  1  0
126128  1  0
128129  2  0
114130  1  0
130131  1  0
113132  1  0
132133  2  3
133134  1  0
134135  2  0
134136  1  0
136137  2  0
137138  1  0
138139  2  0
139140  1  0
140141  2  0
141142  1  0
142143  2  3
143144  1  0
144145  3  0
143146  1  0
146147  3  0
139148  1  0
148149  1  0
149150  1  0
150151  2  0
151152  1  0
152153  1  0
152154  1  0
 11  2  1  0
 23 17  1  0
 31 24  1  0
 44 32  1  0
 52 45  1  0
 60 53  1  0
 84 61  2  0
 93 86  1  0
131 94  1  0
142133  1  0
154148  1  0
 10  5  1  0
 22 18  1  0
 43 36  2  0
 83 63  2  0
103 97  1  0
110104  1  0
130111  2  0
141136  1  0
153149  1  0
 23  7  1  0
 42 38  2  0
 88 64  1  0
122116  1  0
129123  1  0
154138  1  0
 85 39  1  0
 74 67  1  0
 82 75  1  0
  1155  1  0
  6156  1  0
  9157  1  0
 17158  1  0
 18159  1  0
 19160  1  0
 20161  1  0
 21162  1  0
 22163  1  0
 22164  1  0
 23165  1  0
 25166  1  0
 28167  1  0
 28168  1  0
 29169  1  0
 29170  1  0
 29171  1  0
 34172  1  0
 34173  1  0
 35174  1  0
 35175  1  0
 35176  1  0
 46177  1  0
 47178  1  0
 49179  1  0
 49180  1  0
 50181  1  0
 50182  1  0
 50183  1  0
 51184  1  0
 52185  1  0
 54186  1  0
 55187  1  0
 57188  1  0
 57189  1  0
 58190  1  0
 58191  1  0
 58192  1  0
 59193  1  0
 60194  1  0
 68195  1  0
 69196  1  0
 71197  1  0
 71198  1  0
 72199  1  0
 72200  1  0
 72201  1  0
 73202  1  0
 74203  1  0
 76204  1  0
 77205  1  0
 79206  1  0
 79207  1  0
 80208  1  0
 80209  1  0
 80210  1  0
 81211  1  0
 82212  1  0
 90213  1  0
 90214  1  0
 91215  1  0
 91216  1  0
 91217  1  0
 98218  1  0
 99219  1  0
101220  1  0
101221  1  0
101222  1  0
102223  1  0
103224  1  0
105225  1  0
106226  1  0
108227  1  0
108228  1  0
108229  1  0
109230  1  0
110231  1  0
117232  1  0
118233  1  0
120234  1  0
120235  1  0
120236  1  0
121237  1  0
122238  1  0
124239  1  0
125240  1  0
127241  1  0
127242  1  0
127243  1  0
128244  1  0
129245  1  0
132246  1  0
137247  1  0
140248  1  0
148249  1  0
149250  1  0
150251  1  0
151252  1  0
152253  1  0
153254  1  0
153255  1  0
154256  1  0
M  END

