
     RDKit          3D

205229  0  0  0  0  0  0  0  0999 V2000
   -5.6957   -8.9242    0.0467 C   0  0  0  0  0  0  0  0  0  0  0  0
   -5.7811   -8.6970   -1.2786 C   0  0  0  0  0  0  0  0  0  0  0  0
   -7.0215   -8.9498   -2.0217 C   0  0  0  0  0  0  0  0  0  0  0  0
   -7.8871   -9.8240   -1.7389 O   0  0  0  0  0  0  0  0  0  0  0  0
   -7.1665   -7.9202   -3.0398 C   0  0  0  0  0  0  0  0  0  0  0  0
   -8.3427   -7.5775   -3.7525 C   0  0  0  0  0  0  0  0  0  0  0  0
   -8.2573   -6.3750   -4.4352 C   0  0  0  0  0  0  0  0  0  0  0  0
   -7.0842   -5.5513   -4.4258 C   0  0  0  0  0  0  0  0  0  0  0  0
   -5.9263   -5.8823   -3.7420 C   0  0  0  0  0  0  0  0  0  0  0  0
   -5.9957   -7.1163   -3.0384 C   0  0  0  0  0  0  0  0  0  0  0  0
   -5.0323   -7.6768   -2.0614 C   0  0  0  0  0  0  0  0  0  0  0  0
   -3.6904   -7.5067   -2.0556 C   0  0  0  0  0  0  0  0  0  0  0  0
   -3.0246   -6.6459   -2.9959 C   0  0  0  0  0  0  0  0  0  0  0  0
   -2.4813   -5.9568   -3.7508 N   0  0  0  0  0  0  0  0  0  0  0  0
   -2.8444   -8.3029   -1.1982 C   0  0  0  0  0  0  0  0  0  0  0  0
   -2.1616   -8.9434   -0.5144 N   0  0  0  0  0  0  0  0  0  0  0  0
   -7.7806   -4.5118   -5.2485 C   0  0  0  0  0  0  0  0  0  0  0  0
   -7.4076   -4.3960   -6.7574 C   0  0  0  0  0  0  0  0  0  0  0  0
   -7.0033   -5.7500   -7.2994 C   0  0  0  0  0  0  0  0  0  0  0  0
   -8.1070   -6.5011   -7.3108 C   0  0  0  0  0  0  0  0  0  0  0  0
   -9.2210   -5.6350   -6.7660 C   0  0  0  0  0  0  0  0  0  0  0  0
   -8.7989   -4.2991   -7.3581 C   0  0  0  0  0  0  0  0  0  0  0  0
   -8.9879   -5.3446   -5.2548 C   0  0  0  0  0  0  0  0  0  0  0  0
   -5.0779   -7.9684    0.9906 C   0  0  0  0  0  0  0  0  0  0  0  0
   -4.7973   -8.2144    2.3355 C   0  0  0  0  0  0  0  0  0  0  0  0
   -4.4602   -7.0566    3.0585 C   0  0  0  0  0  0  0  0  0  0  0  0
   -4.0799   -7.0951    4.8134 S   0  0  0  0  0  0  0  0  0  0  0  0
   -2.3027   -7.4783    4.6168 C   0  0  0  0  0  0  0  0  0  0  0  0
   -1.5412   -6.3205    3.9856 C   0  0  0  0  0  0  0  0  0  0  0  0
   -4.4983   -5.8919    2.2867 C   0  0  0  0  0  0  0  0  0  0  0  0
   -4.9480   -6.3131    0.7352 S   0  0  0  0  0  0  0  0  0  0  0  0
   -4.3565   -4.4901    2.7058 C   0  0  0  0  0  0  0  0  0  0  0  0
   -5.1121   -3.8263    3.6971 C   0  0  0  0  0  0  0  0  0  0  0  0
   -6.1010   -4.4559    4.5899 C   0  0  0  0  0  0  0  0  0  0  0  0
   -7.1129   -5.2785    4.0716 C   0  0  0  0  0  0  0  0  0  0  0  0
   -8.0496   -5.8640    4.9299 C   0  0  0  0  0  0  0  0  0  0  0  0
   -7.9852   -5.6299    6.3063 C   0  0  0  0  0  0  0  0  0  0  0  0
   -6.9800   -4.8041    6.8344 C   0  0  0  0  0  0  0  0  0  0  0  0
   -6.9472   -4.5079    8.3106 C   0  0  0  0  0  0  0  0  0  0  0  0
   -7.8779   -3.3473    8.6423 C   0  0  0  0  0  0  0  0  0  0  0  0
   -6.0470   -4.2102    5.9707 C   0  0  0  0  0  0  0  0  0  0  0  0
   -4.9489   -2.4429    3.5970 C   0  0  0  0  0  0  0  0  0  0  0  0
   -5.7255   -1.1102    4.3410 S   0  0  0  0  0  0  0  0  0  0  0  0
   -4.9894   -0.0390    3.2490 C   0  0  0  0  0  0  0  0  0  0  0  0
   -4.8407    1.3013    3.0394 C   0  0  0  0  0  0  0  0  0  0  0  0
   -5.2010    2.3994    3.8301 C   0  0  0  0  0  0  0  0  0  0  0  0
   -4.6650    3.6817    3.5032 C   0  0  0  0  0  0  0  0  0  0  0  0
   -4.9737    4.7077    4.3367 N   0  0  0  0  0  0  0  0  0  0  0  0
   -5.8914    3.8993    5.4478 S   0  0  0  0  0  0  0  0  0  0  0  0
   -5.9426    2.3159    4.9559 N   0  0  0  0  0  0  0  0  0  0  0  0
   -3.8655    3.8098    2.3612 C   0  0  0  0  0  0  0  0  0  0  0  0
   -3.1168    4.8648    1.8915 C   0  0  0  0  0  0  0  0  0  0  0  0
   -2.2146    6.0172    2.7449 S   0  0  0  0  0  0  0  0  0  0  0  0
   -0.8869    5.8929    1.6912 C   0  0  0  0  0  0  0  0  0  0  0  0
    0.4833    6.1222    1.9241 C   0  0  0  0  0  0  0  0  0  0  0  0
    1.0356    7.0553    2.9346 C   0  0  0  0  0  0  0  0  0  0  0  0
    2.0762    7.9236    2.5706 C   0  0  0  0  0  0  0  0  0  0  0  0
    2.6023    8.8238    3.4972 C   0  0  0  0  0  0  0  0  0  0  0  0
    2.0955    8.8697    4.7998 C   0  0  0  0  0  0  0  0  0  0  0  0
    1.0817    7.9797    5.1907 C   0  0  0  0  0  0  0  0  0  0  0  0
    0.5116    8.0438    6.5836 C   0  0  0  0  0  0  0  0  0  0  0  0
   -0.7793    8.8622    6.6039 C   0  0  0  0  0  0  0  0  0  0  0  0
    0.5632    7.0666    4.2588 C   0  0  0  0  0  0  0  0  0  0  0  0
    1.2836    5.2982    1.1001 C   0  0  0  0  0  0  0  0  0  0  0  0
    0.2670    4.3408    0.1309 S   0  0  0  0  0  0  0  0  0  0  0  0
   -1.1600    4.9736    0.7047 C   0  0  0  0  0  0  0  0  0  0  0  0
   -2.4152    4.3848    0.8160 C   0  0  0  0  0  0  0  0  0  0  0  0
   -2.7205    3.0962    0.5374 N   0  0  0  0  0  0  0  0  0  0  0  0
   -3.5528    2.7151    1.5475 C   0  0  0  0  0  0  0  0  0  0  0  0
   -3.9614    1.4173    1.9486 C   0  0  0  0  0  0  0  0  0  0  0  0
   -3.4898    0.1808    1.5675 N   0  0  0  0  0  0  0  0  0  0  0  0
   -4.1813   -0.6685    2.3645 C   0  0  0  0  0  0  0  0  0  0  0  0
   -4.1400   -2.0338    2.5720 C   0  0  0  0  0  0  0  0  0  0  0  0
   -3.5543   -3.3511    1.7307 S   0  0  0  0  0  0  0  0  0  0  0  0
   -2.1944   -0.1689    0.9613 C   0  0  0  0  0  0  0  0  0  0  0  0
   -2.3688   -0.8970   -0.3790 C   0  0  0  0  0  0  0  0  0  0  0  0
   -2.5667    2.4666   -0.7806 C   0  0  0  0  0  0  0  0  0  0  0  0
   -3.0302    3.3837   -1.9101 C   0  0  0  0  0  0  0  0  0  0  0  0
    2.6653    4.8446    1.3924 C   0  0  0  0  0  0  0  0  0  0  0  0
    3.0186    4.5318    2.7164 C   0  0  0  0  0  0  0  0  0  0  0  0
    4.0991    3.6879    2.9877 C   0  0  0  0  0  0  0  0  0  0  0  0
    4.8350    3.1098    1.9431 C   0  0  0  0  0  0  0  0  0  0  0  0
    4.5010    3.4405    0.6147 C   0  0  0  0  0  0  0  0  0  0  0  0
    5.0974    2.8134   -0.4348 N   0  0  0  0  0  0  0  0  0  0  0  0
    4.8258    3.1304   -1.7247 C   0  0  0  0  0  0  0  0  0  0  0  0
    5.5252    2.3923   -2.7980 C   0  0  0  0  0  0  0  0  0  0  0  0
    6.2401    3.0664   -3.7997 C   0  0  0  0  0  0  0  0  0  0  0  0
    6.8572    2.3521   -4.8266 C   0  0  0  0  0  0  0  0  0  0  0  0
    6.7735    0.9567   -4.8585 C   0  0  0  0  0  0  0  0  0  0  0  0
    6.0893    0.2620   -3.8434 C   0  0  0  0  0  0  0  0  0  0  0  0
    5.9780   -1.1361   -3.8196 O   0  0  0  0  0  0  0  0  0  0  0  0
    6.3578   -2.0202   -4.8778 C   0  0  0  0  0  0  0  0  0  0  0  0
    5.3750   -1.9324   -6.0421 C   0  0  0  0  0  0  0  0  0  0  0  0
    5.4901    0.9879   -2.8067 C   0  0  0  0  0  0  0  0  0  0  0  0
    3.8729    4.1390   -1.9848 C   0  0  0  0  0  0  0  0  0  0  0  0
    3.2050    4.7001   -0.9473 N   0  0  0  0  0  0  0  0  0  0  0  0
    3.4696    4.3613    0.3453 C   0  0  0  0  0  0  0  0  0  0  0  0
    3.5570    4.5807   -3.3537 C   0  0  0  0  0  0  0  0  0  0  0  0
    2.7883    3.7720   -4.1988 C   0  0  0  0  0  0  0  0  0  0  0  0
    2.5686    4.1590   -5.5235 C   0  0  0  0  0  0  0  0  0  0  0  0
    3.1585    5.3264   -6.0200 C   0  0  0  0  0  0  0  0  0  0  0  0
    3.9577    6.1255   -5.1952 C   0  0  0  0  0  0  0  0  0  0  0  0
    4.5971    7.2384   -5.7673 O   0  0  0  0  0  0  0  0  0  0  0  0
    5.6256    8.0186   -5.1515 C   0  0  0  0  0  0  0  0  0  0  0  0
    6.9171    7.2155   -4.9946 C   0  0  0  0  0  0  0  0  0  0  0  0
    4.1138    5.7728   -3.8401 C   0  0  0  0  0  0  0  0  0  0  0  0
    5.7237    1.9698    2.2715 C   0  0  0  0  0  0  0  0  0  0  0  0
    6.9208    1.7239    1.7041 C   0  0  0  0  0  0  0  0  0  0  0  0
    7.6337    2.6105    0.7754 C   0  0  0  0  0  0  0  0  0  0  0  0
    7.5800    3.8704    0.7625 O   0  0  0  0  0  0  0  0  0  0  0  0
    8.3868    1.7922   -0.1552 C   0  0  0  0  0  0  0  0  0  0  0  0
    8.9944    2.2007   -1.3639 C   0  0  0  0  0  0  0  0  0  0  0  0
    9.4199    1.1510   -2.1613 C   0  0  0  0  0  0  0  0  0  0  0  0
    9.2339   -0.2242   -1.8000 C   0  0  0  0  0  0  0  0  0  0  0  0
    8.6527   -0.6307   -0.6144 C   0  0  0  0  0  0  0  0  0  0  0  0
    8.2494    0.4326    0.2347 C   0  0  0  0  0  0  0  0  0  0  0  0
    7.4962    0.3649    1.5105 C   0  0  0  0  0  0  0  0  0  0  0  0
    7.5101   -0.6490    2.4100 C   0  0  0  0  0  0  0  0  0  0  0  0
    6.9024   -0.5276    3.7072 C   0  0  0  0  0  0  0  0  0  0  0  0
    6.4114   -0.4361    4.7528 N   0  0  0  0  0  0  0  0  0  0  0  0
    8.2548   -1.8614    2.1835 C   0  0  0  0  0  0  0  0  0  0  0  0
    8.8492   -2.8403    2.0093 N   0  0  0  0  0  0  0  0  0  0  0  0
    9.8397   -0.6612   -3.0981 C   0  0  0  0  0  0  0  0  0  0  0  0
   11.2796   -1.2457   -3.0256 C   0  0  0  0  0  0  0  0  0  0  0  0
   11.8035   -1.2307   -4.4408 C   0  0  0  0  0  0  0  0  0  0  0  0
   12.0039    0.0544   -4.7576 C   0  0  0  0  0  0  0  0  0  0  0  0
   11.6033    0.8610   -3.5455 C   0  0  0  0  0  0  0  0  0  0  0  0
   12.0864   -0.0910   -2.4639 C   0  0  0  0  0  0  0  0  0  0  0  0
   10.0549    0.7441   -3.4524 C   0  0  0  0  0  0  0  0  0  0  0  0
   -6.3568   -9.6605    0.4833 H   0  0  0  0  0  0  0  0  0  0  0  0
   -9.2512   -8.1564   -3.6974 H   0  0  0  0  0  0  0  0  0  0  0  0
   -5.0937   -5.1973   -3.6834 H   0  0  0  0  0  0  0  0  0  0  0  0
   -7.9145   -3.5421   -4.7216 H   0  0  0  0  0  0  0  0  0  0  0  0
   -6.7142   -3.5620   -7.0045 H   0  0  0  0  0  0  0  0  0  0  0  0
   -6.0318   -6.0386   -7.6888 H   0  0  0  0  0  0  0  0  0  0  0  0
   -8.1862   -7.5057   -7.7129 H   0  0  0  0  0  0  0  0  0  0  0  0
  -10.2470   -5.9703   -7.0297 H   0  0  0  0  0  0  0  0  0  0  0  0
   -8.8030   -4.2830   -8.4736 H   0  0  0  0  0  0  0  0  0  0  0  0
   -9.3881   -3.4383   -6.9725 H   0  0  0  0  0  0  0  0  0  0  0  0
   -9.8501   -4.8774   -4.7268 H   0  0  0  0  0  0  0  0  0  0  0  0
   -4.8680   -9.1961    2.7866 H   0  0  0  0  0  0  0  0  0  0  0  0
   -1.8786   -7.6665    5.6257 H   0  0  0  0  0  0  0  0  0  0  0  0
   -2.1722   -8.3990    4.0143 H   0  0  0  0  0  0  0  0  0  0  0  0
   -1.7589   -6.2578    2.9008 H   0  0  0  0  0  0  0  0  0  0  0  0
   -1.8116   -5.3627    4.4726 H   0  0  0  0  0  0  0  0  0  0  0  0
   -0.4488   -6.4830    4.1047 H   0  0  0  0  0  0  0  0  0  0  0  0
   -7.1903   -5.4502    3.0066 H   0  0  0  0  0  0  0  0  0  0  0  0
   -8.8352   -6.4908    4.5220 H   0  0  0  0  0  0  0  0  0  0  0  0
   -8.7217   -6.0899    6.9580 H   0  0  0  0  0  0  0  0  0  0  0  0
   -7.2539   -5.4102    8.8783 H   0  0  0  0  0  0  0  0  0  0  0  0
   -5.9149   -4.2521    8.6269 H   0  0  0  0  0  0  0  0  0  0  0  0
   -7.5543   -2.4309    8.1027 H   0  0  0  0  0  0  0  0  0  0  0  0
   -7.8530   -3.1526    9.7347 H   0  0  0  0  0  0  0  0  0  0  0  0
   -8.9228   -3.5899    8.3525 H   0  0  0  0  0  0  0  0  0  0  0  0
   -5.2778   -3.5600    6.3692 H   0  0  0  0  0  0  0  0  0  0  0  0
    2.4688    7.9198    1.5597 H   0  0  0  0  0  0  0  0  0  0  0  0
    3.3960    9.4994    3.2061 H   0  0  0  0  0  0  0  0  0  0  0  0
    2.5082    9.5795    5.5024 H   0  0  0  0  0  0  0  0  0  0  0  0
    1.2476    8.5034    7.2780 H   0  0  0  0  0  0  0  0  0  0  0  0
    0.3027    7.0155    6.9533 H   0  0  0  0  0  0  0  0  0  0  0  0
   -0.5897    9.8850    6.2108 H   0  0  0  0  0  0  0  0  0  0  0  0
   -1.1490    8.9464    7.6482 H   0  0  0  0  0  0  0  0  0  0  0  0
   -1.5585    8.3650    5.9846 H   0  0  0  0  0  0  0  0  0  0  0  0
   -0.1954    6.3639    4.5748 H   0  0  0  0  0  0  0  0  0  0  0  0
   -1.5498    0.7246    0.8543 H   0  0  0  0  0  0  0  0  0  0  0  0
   -1.6326   -0.8275    1.6579 H   0  0  0  0  0  0  0  0  0  0  0  0
   -1.7505   -0.4075   -1.1611 H   0  0  0  0  0  0  0  0  0  0  0  0
   -3.4286   -0.9032   -0.7064 H   0  0  0  0  0  0  0  0  0  0  0  0
   -2.0194   -1.9484   -0.2966 H   0  0  0  0  0  0  0  0  0  0  0  0
   -3.1997    1.5625   -0.8360 H   0  0  0  0  0  0  0  0  0  0  0  0
   -1.5037    2.1902   -0.9452 H   0  0  0  0  0  0  0  0  0  0  0  0
   -4.0773    3.7098   -1.7310 H   0  0  0  0  0  0  0  0  0  0  0  0
   -2.9897    2.8318   -2.8718 H   0  0  0  0  0  0  0  0  0  0  0  0
   -2.3735    4.2739   -1.9811 H   0  0  0  0  0  0  0  0  0  0  0  0
    2.3942    4.8323    3.5418 H   0  0  0  0  0  0  0  0  0  0  0  0
    4.3032    3.4086    4.0169 H   0  0  0  0  0  0  0  0  0  0  0  0
    6.3328    4.1412   -3.7794 H   0  0  0  0  0  0  0  0  0  0  0  0
    7.4042    2.8781   -5.6007 H   0  0  0  0  0  0  0  0  0  0  0  0
    7.2667    0.4294   -5.6624 H   0  0  0  0  0  0  0  0  0  0  0  0
    7.3917   -1.8069   -5.2202 H   0  0  0  0  0  0  0  0  0  0  0  0
    6.3430   -3.0565   -4.4804 H   0  0  0  0  0  0  0  0  0  0  0  0
    4.3514   -2.1747   -5.6836 H   0  0  0  0  0  0  0  0  0  0  0  0
    5.3734   -0.9180   -6.4834 H   0  0  0  0  0  0  0  0  0  0  0  0
    5.6652   -2.6656   -6.8249 H   0  0  0  0  0  0  0  0  0  0  0  0
    4.9724    0.4570   -2.0160 H   0  0  0  0  0  0  0  0  0  0  0  0
    2.3587    2.8452   -3.8348 H   0  0  0  0  0  0  0  0  0  0  0  0
    1.9735    3.5330   -6.1761 H   0  0  0  0  0  0  0  0  0  0  0  0
    3.0110    5.6000   -7.0582 H   0  0  0  0  0  0  0  0  0  0  0  0
    5.8424    8.8872   -5.8104 H   0  0  0  0  0  0  0  0  0  0  0  0
    5.2905    8.4202   -4.1732 H   0  0  0  0  0  0  0  0  0  0  0  0
    6.8578    6.5338   -4.1246 H   0  0  0  0  0  0  0  0  0  0  0  0
    7.1163    6.6169   -5.9071 H   0  0  0  0  0  0  0  0  0  0  0  0
    7.7691    7.9049   -4.8251 H   0  0  0  0  0  0  0  0  0  0  0  0
    4.7044    6.3850   -3.1709 H   0  0  0  0  0  0  0  0  0  0  0  0
    5.2611    1.2073    2.8824 H   0  0  0  0  0  0  0  0  0  0  0  0
    9.0620    3.2355   -1.6755 H   0  0  0  0  0  0  0  0  0  0  0  0
    8.4735   -1.6752   -0.4049 H   0  0  0  0  0  0  0  0  0  0  0  0
    9.1318   -1.2041   -3.7587 H   0  0  0  0  0  0  0  0  0  0  0  0
   11.3768   -2.2175   -2.4932 H   0  0  0  0  0  0  0  0  0  0  0  0
   12.0450   -2.0837   -5.0619 H   0  0  0  0  0  0  0  0  0  0  0  0
   12.4394    0.4258   -5.6786 H   0  0  0  0  0  0  0  0  0  0  0  0
   12.0112    1.8928   -3.5014 H   0  0  0  0  0  0  0  0  0  0  0  0
   13.1885   -0.2693   -2.4870 H   0  0  0  0  0  0  0  0  0  0  0  0
   11.7952    0.2028   -1.4302 H   0  0  0  0  0  0  0  0  0  0  0  0
    9.5024    1.0830   -4.3558 H   0  0  0  0  0  0  0  0  0  0  0  0
  1  2  2  3
  2  3  1  0
  3  4  2  0
  3  5  1  0
  5  6  2  0
  6  7  1  0
  7  8  2  0
  8  9  1  0
  9 10  2  0
 10 11  1  0
 11 12  2  3
 12 13  1  0
 13 14  3  0
 12 15  1  0
 15 16  3  0
  8 17  1  0
 17 18  1  0
 18 19  1  0
 19 20  2  0
 20 21  1  0
 21 22  1  0
 21 23  1  0
  1 24  1  0
 24 25  2  0
 25 26  1  0
 26 27  1  0
 27 28  1  0
 28 29  1  0
 26 30  2  0
 30 31  1  0
 30 32  1  0
 32 33  2  0
 33 34  1  0
 34 35  2  0
 35 36  1  0
 36 37  2  0
 37 38  1  0
 38 39  1  0
 39 40  1  0
 38 41  2  0
 33 42  1  0
 42 43  1  0
 43 44  1  0
 44 45  1  0
 45 46  1  0
 46 47  1  0
 47 48  2  0
 48 49  1  0
 49 50  1  0
 47 51  1  0
 51 52  1  0
 52 53  1  0
 53 54  1  0
 54 55  1  0
 55 56  1  0
 56 57  2  0
 57 58  1  0
 58 59  2  0
 59 60  1  0
 60 61  1  0
 61 62  1  0
 60 63  2  0
 55 64  2  0
 64 65  1  0
 65 66  1  0
 66 67  1  0
 67 68  1  0
 68 69  1  0
 69 70  1  0
 70 71  1  0
 71 72  1  0
 72 73  1  0
 73 74  1  0
 71 75  1  0
 75 76  1  0
 68 77  1  0
 77 78  1  0
 64 79  1  0
 79 80  2  0
 80 81  1  0
 81 82  2  0
 82 83  1  0
 83 84  2  0
 84 85  1  0
 85 86  1  0
 86 87  2  0
 87 88  1  0
 88 89  2  0
 89 90  1  0
 90 91  1  0
 91 92  1  0
 92 93  1  0
 90 94  2  0
 85 95  2  0
 95 96  1  0
 96 97  2  0
 95 98  1  0
 98 99  2  0
 99100  1  0
100101  2  0
101102  1  0
102103  1  0
103104  1  0
104105  1  0
102106  2  0
 82107  1  0
107108  2  3
108109  1  0
109110  2  0
109111  1  0
111112  2  0
112113  1  0
113114  2  0
114115  1  0
115116  2  0
116117  1  0
117118  2  3
118119  1  0
119120  3  0
118121  1  0
121122  3  0
114123  1  0
123124  1  0
124125  1  0
125126  2  0
126127  1  0
127128  1  0
127129  1  0
 11  2  1  0
 23 17  1  0
 31 24  1  0
 74 32  1  0
 97 79  1  0
106 98  1  0
117108  1  0
129123  1  0
 10  5  1  0
 22 18  1  0
 41 34  1  0
 73 42  2  0
 97 83  1  0
116111  1  0
128124  1  0
 23  7  1  0
 72 44  2  0
 94 86  1  0
129113  1  0
 70 45  2  0
 50 46  2  0
 69 51  2  0
 67 52  2  0
 66 54  2  0
 63 56  1  0
  1130  1  0
  6131  1  0
  9132  1  0
 17133  1  0
 18134  1  0
 19135  1  0
 20136  1  0
 21137  1  0
 22138  1  0
 22139  1  0
 23140  1  0
 25141  1  0
 28142  1  0
 28143  1  0
 29144  1  0
 29145  1  0
 29146  1  0
 35147  1  0
 36148  1  0
 37149  1  0
 39150  1  0
 39151  1  0
 40152  1  0
 40153  1  0
 40154  1  0
 41155  1  0
 57156  1  0
 58157  1  0
 59158  1  0
 61159  1  0
 61160  1  0
 62161  1  0
 62162  1  0
 62163  1  0
 63164  1  0
 75165  1  0
 75166  1  0
 76167  1  0
 76168  1  0
 76169  1  0
 77170  1  0
 77171  1  0
 78172  1  0
 78173  1  0
 78174  1  0
 80175  1  0
 81176  1  0
 87177  1  0
 88178  1  0
 89179  1  0
 92180  1  0
 92181  1  0
 93182  1  0
 93183  1  0
 93184  1  0
 94185  1  0
 99186  1  0
100187  1  0
101188  1  0
104189  1  0
104190  1  0
105191  1  0
105192  1  0
105193  1  0
106194  1  0
107195  1  0
112196  1  0
115197  1  0
123198  1  0
124199  1  0
125200  1  0
126201  1  0
127202  1  0
128203  1  0
128204  1  0
129205  1  0
M  END

