
     RDKit          3D

144160  0  0  0  0  0  0  0  0999 V2000
   -6.0844   -4.8724   -3.3612 C   0  0  0  0  0  0  0  0  0  0  0  0
   -5.5790   -5.4391   -2.2456 C   0  0  0  0  0  0  0  0  0  0  0  0
   -6.0884   -5.3209   -0.8700 C   0  0  0  0  0  0  0  0  0  0  0  0
   -7.0231   -4.5835   -0.4732 O   0  0  0  0  0  0  0  0  0  0  0  0
   -5.4934   -6.3689   -0.0611 C   0  0  0  0  0  0  0  0  0  0  0  0
   -5.7988   -6.6907    1.2835 C   0  0  0  0  0  0  0  0  0  0  0  0
   -5.1613   -7.8291    1.7500 C   0  0  0  0  0  0  0  0  0  0  0  0
   -4.2868   -8.6205    0.9395 C   0  0  0  0  0  0  0  0  0  0  0  0
   -3.9984   -8.3226   -0.3814 C   0  0  0  0  0  0  0  0  0  0  0  0
   -4.6152   -7.1340   -0.8675 C   0  0  0  0  0  0  0  0  0  0  0  0
   -4.5491   -6.5264   -2.2222 C   0  0  0  0  0  0  0  0  0  0  0  0
   -3.5117   -6.6644   -3.0955 C   0  0  0  0  0  0  0  0  0  0  0  0
   -3.3623   -5.8357   -4.2643 C   0  0  0  0  0  0  0  0  0  0  0  0
   -3.2307   -5.1773   -5.2082 N   0  0  0  0  0  0  0  0  0  0  0  0
   -2.3759   -7.5055   -2.8113 C   0  0  0  0  0  0  0  0  0  0  0  0
   -1.4556   -8.1633   -2.5766 N   0  0  0  0  0  0  0  0  0  0  0  0
   -4.0722   -9.5770    2.0735 C   0  0  0  0  0  0  0  0  0  0  0  0
   -2.7169   -9.5127    2.8414 C   0  0  0  0  0  0  0  0  0  0  0  0
   -2.1766   -8.0991    2.8341 C   0  0  0  0  0  0  0  0  0  0  0  0
   -3.0004   -7.3734    3.5888 C   0  0  0  0  0  0  0  0  0  0  0  0
   -4.0718   -8.3151    4.0874 C   0  0  0  0  0  0  0  0  0  0  0  0
   -3.2297   -9.5631    4.2689 C   0  0  0  0  0  0  0  0  0  0  0  0
   -4.9767   -8.7707    2.9004 C   0  0  0  0  0  0  0  0  0  0  0  0
   -6.3698   -3.4277   -3.5241 C   0  0  0  0  0  0  0  0  0  0  0  0
   -6.9529   -2.5124   -2.6491 C   0  0  0  0  0  0  0  0  0  0  0  0
   -6.6872   -1.1690   -2.9754 C   0  0  0  0  0  0  0  0  0  0  0  0
   -7.0716    0.1589   -1.8291 S   0  0  0  0  0  0  0  0  0  0  0  0
   -5.4861    0.0682   -0.9228 C   0  0  0  0  0  0  0  0  0  0  0  0
   -5.6225   -0.8339    0.2962 C   0  0  0  0  0  0  0  0  0  0  0  0
   -5.9435   -1.0012   -4.1480 C   0  0  0  0  0  0  0  0  0  0  0  0
   -5.6079   -2.5433   -4.7265 S   0  0  0  0  0  0  0  0  0  0  0  0
   -5.0229    0.1176   -4.4034 C   0  0  0  0  0  0  0  0  0  0  0  0
   -5.3119    1.5052   -4.4201 C   0  0  0  0  0  0  0  0  0  0  0  0
   -6.6714    2.0849   -4.4836 C   0  0  0  0  0  0  0  0  0  0  0  0
   -7.0331    3.1548   -3.6488 C   0  0  0  0  0  0  0  0  0  0  0  0
   -8.3234    3.6921   -3.7049 C   0  0  0  0  0  0  0  0  0  0  0  0
   -9.2650    3.1689   -4.5926 C   0  0  0  0  0  0  0  0  0  0  0  0
   -8.9190    2.1033   -5.4394 C   0  0  0  0  0  0  0  0  0  0  0  0
   -9.9427    1.5243   -6.3822 C   0  0  0  0  0  0  0  0  0  0  0  0
  -10.6985    0.3781   -5.7219 C   0  0  0  0  0  0  0  0  0  0  0  0
   -7.6252    1.5593   -5.3749 C   0  0  0  0  0  0  0  0  0  0  0  0
   -4.1234    2.2514   -4.3213 C   0  0  0  0  0  0  0  0  0  0  0  0
   -3.7402    3.9144   -4.1201 S   0  0  0  0  0  0  0  0  0  0  0  0
   -2.0983    3.5411   -3.8595 C   0  0  0  0  0  0  0  0  0  0  0  0
   -0.9048    4.1228   -3.5091 C   0  0  0  0  0  0  0  0  0  0  0  0
   -0.4820    5.4526   -3.3828 C   0  0  0  0  0  0  0  0  0  0  0  0
    0.8784    5.7077   -3.0052 C   0  0  0  0  0  0  0  0  0  0  0  0
    1.2475    7.0065   -2.8892 N   0  0  0  0  0  0  0  0  0  0  0  0
   -0.1779    7.7454   -3.3083 S   0  0  0  0  0  0  0  0  0  0  0  0
   -1.2674    6.5338   -3.6196 N   0  0  0  0  0  0  0  0  0  0  0  0
    1.7210    4.6194   -2.7172 C   0  0  0  0  0  0  0  0  0  0  0  0
    2.9108    4.5506   -2.0376 C   0  0  0  0  0  0  0  0  0  0  0  0
    3.8939    5.6317   -1.1675 S   0  0  0  0  0  0  0  0  0  0  0  0
    4.5521    4.3553   -0.2434 C   0  0  0  0  0  0  0  0  0  0  0  0
    5.3822    4.3138    0.8826 C   0  0  0  0  0  0  0  0  0  0  0  0
    6.0894    5.4957    1.3883 C   0  0  0  0  0  0  0  0  0  0  0  0
    5.3843    6.5289    2.0172 C   0  0  0  0  0  0  0  0  0  0  0  0
    6.0605    7.6635    2.4716 C   0  0  0  0  0  0  0  0  0  0  0  0
    7.4433    7.7746    2.2994 C   0  0  0  0  0  0  0  0  0  0  0  0
    8.1629    6.7441    1.6736 C   0  0  0  0  0  0  0  0  0  0  0  0
    9.6511    6.8588    1.4828 C   0  0  0  0  0  0  0  0  0  0  0  0
    9.9861    7.3236    0.0704 C   0  0  0  0  0  0  0  0  0  0  0  0
    7.4745    5.6152    1.1971 C   0  0  0  0  0  0  0  0  0  0  0  0
    5.3872    3.0212    1.4645 C   0  0  0  0  0  0  0  0  0  0  0  0
    4.3963    1.9906    0.5337 S   0  0  0  0  0  0  0  0  0  0  0  0
    3.9667    3.1619   -0.5752 C   0  0  0  0  0  0  0  0  0  0  0  0
    3.0449    3.2646   -1.6081 C   0  0  0  0  0  0  0  0  0  0  0  0
    2.0125    2.4679   -1.9824 N   0  0  0  0  0  0  0  0  0  0  0  0
    1.2507    3.2979   -2.7642 C   0  0  0  0  0  0  0  0  0  0  0  0
   -0.0277    3.0518   -3.2992 C   0  0  0  0  0  0  0  0  0  0  0  0
   -0.5959    1.8617   -3.6450 N   0  0  0  0  0  0  0  0  0  0  0  0
   -1.8658    2.2133   -3.9375 C   0  0  0  0  0  0  0  0  0  0  0  0
   -2.9916    1.4867   -4.2296 C   0  0  0  0  0  0  0  0  0  0  0  0
   -3.3473   -0.1317   -4.2675 S   0  0  0  0  0  0  0  0  0  0  0  0
    0.0894    0.6707   -4.1682 C   0  0  0  0  0  0  0  0  0  0  0  0
    0.0637    0.6433   -5.6999 C   0  0  0  0  0  0  0  0  0  0  0  0
    1.5128    1.3513   -1.1605 C   0  0  0  0  0  0  0  0  0  0  0  0
    0.7348    1.8684    0.0493 C   0  0  0  0  0  0  0  0  0  0  0  0
    5.9066    2.6123    2.7883 C   0  0  0  0  0  0  0  0  0  0  0  0
    6.8258    3.2634    3.6067 C   0  0  0  0  0  0  0  0  0  0  0  0
    7.0171    2.6334    4.8467 C   0  0  0  0  0  0  0  0  0  0  0  0
    8.1526    3.2964    6.0738 S   0  0  0  0  0  0  0  0  0  0  0  0
    9.6496    2.5300    5.3582 C   0  0  0  0  0  0  0  0  0  0  0  0
    9.7101    1.0336    5.6574 C   0  0  0  0  0  0  0  0  0  0  0  0
    6.2236    1.4995    5.0419 C   0  0  0  0  0  0  0  0  0  0  0  0
    5.3339    1.2728    3.6330 S   0  0  0  0  0  0  0  0  0  0  0  0
    6.1648    0.6996    6.2946 C   0  0  0  0  0  0  0  0  0  0  0  0
    5.2432   -0.2333    6.6070 C   0  0  0  0  0  0  0  0  0  0  0  0
    5.3062   -0.8771    7.8926 C   0  0  0  0  0  0  0  0  0  0  0  0
    5.3568   -1.3979    8.9252 N   0  0  0  0  0  0  0  0  0  0  0  0
    4.1487   -0.5987    5.7434 C   0  0  0  0  0  0  0  0  0  0  0  0
    3.2640   -0.8945    5.0563 N   0  0  0  0  0  0  0  0  0  0  0  0
   -5.8603   -5.3579   -4.2997 H   0  0  0  0  0  0  0  0  0  0  0  0
   -6.4875   -6.1191    1.8877 H   0  0  0  0  0  0  0  0  0  0  0  0
   -3.3917   -8.9830   -0.9774 H   0  0  0  0  0  0  0  0  0  0  0  0
   -4.4528  -10.6041    1.8719 H   0  0  0  0  0  0  0  0  0  0  0  0
   -1.9823  -10.3018    2.5753 H   0  0  0  0  0  0  0  0  0  0  0  0
   -1.2463   -7.7563    2.3952 H   0  0  0  0  0  0  0  0  0  0  0  0
   -2.8537   -6.3369    3.8686 H   0  0  0  0  0  0  0  0  0  0  0  0
   -4.6169   -7.9741    4.9946 H   0  0  0  0  0  0  0  0  0  0  0  0
   -3.8253  -10.4819    4.4938 H   0  0  0  0  0  0  0  0  0  0  0  0
   -2.4235   -9.4484    5.0349 H   0  0  0  0  0  0  0  0  0  0  0  0
   -5.9047   -9.3106    3.1969 H   0  0  0  0  0  0  0  0  0  0  0  0
   -7.5116   -2.7658   -1.7696 H   0  0  0  0  0  0  0  0  0  0  0  0
   -5.2118    1.0885   -0.5898 H   0  0  0  0  0  0  0  0  0  0  0  0
   -4.6667   -0.3082   -1.5689 H   0  0  0  0  0  0  0  0  0  0  0  0
   -6.4259   -0.4540    0.9631 H   0  0  0  0  0  0  0  0  0  0  0  0
   -4.6657   -0.8424    0.8611 H   0  0  0  0  0  0  0  0  0  0  0  0
   -5.8581   -1.8718   -0.0154 H   0  0  0  0  0  0  0  0  0  0  0  0
   -6.3322    3.5567   -2.9296 H   0  0  0  0  0  0  0  0  0  0  0  0
   -8.5985    4.5054   -3.0447 H   0  0  0  0  0  0  0  0  0  0  0  0
  -10.2629    3.5903   -4.6170 H   0  0  0  0  0  0  0  0  0  0  0  0
   -9.4452    1.1503   -7.3034 H   0  0  0  0  0  0  0  0  0  0  0  0
  -10.6677    2.3075   -6.6910 H   0  0  0  0  0  0  0  0  0  0  0  0
   -9.9985   -0.4427   -5.4565 H   0  0  0  0  0  0  0  0  0  0  0  0
  -11.2169    0.7287   -4.8048 H   0  0  0  0  0  0  0  0  0  0  0  0
  -11.4582   -0.0224   -6.4284 H   0  0  0  0  0  0  0  0  0  0  0  0
   -7.3605    0.7316   -6.0214 H   0  0  0  0  0  0  0  0  0  0  0  0
    4.3135    6.4539    2.1564 H   0  0  0  0  0  0  0  0  0  0  0  0
    5.5113    8.4577    2.9608 H   0  0  0  0  0  0  0  0  0  0  0  0
    7.9519    8.6624    2.6565 H   0  0  0  0  0  0  0  0  0  0  0  0
   10.1290    5.8730    1.6679 H   0  0  0  0  0  0  0  0  0  0  0  0
   10.0817    7.5776    2.2139 H   0  0  0  0  0  0  0  0  0  0  0  0
    9.6221    6.5859   -0.6773 H   0  0  0  0  0  0  0  0  0  0  0  0
   11.0868    7.4198   -0.0406 H   0  0  0  0  0  0  0  0  0  0  0  0
    9.5154    8.3094   -0.1336 H   0  0  0  0  0  0  0  0  0  0  0  0
    8.0199    4.8217    0.6977 H   0  0  0  0  0  0  0  0  0  0  0  0
   -0.3964   -0.2443   -3.7650 H   0  0  0  0  0  0  0  0  0  0  0  0
    1.1592    0.6619   -3.8725 H   0  0  0  0  0  0  0  0  0  0  0  0
    0.6648    1.4805   -6.1024 H   0  0  0  0  0  0  0  0  0  0  0  0
   -0.9725    0.7068   -6.0852 H   0  0  0  0  0  0  0  0  0  0  0  0
    0.5056   -0.3114   -6.0512 H   0  0  0  0  0  0  0  0  0  0  0  0
    0.8388    0.6884   -1.7280 H   0  0  0  0  0  0  0  0  0  0  0  0
    2.3577    0.7174   -0.8280 H   0  0  0  0  0  0  0  0  0  0  0  0
    0.4830    1.0202    0.7221 H   0  0  0  0  0  0  0  0  0  0  0  0
   -0.2091    2.3444   -0.2841 H   0  0  0  0  0  0  0  0  0  0  0  0
    1.3328    2.6115    0.6155 H   0  0  0  0  0  0  0  0  0  0  0  0
    7.3552    4.1609    3.3423 H   0  0  0  0  0  0  0  0  0  0  0  0
   10.5371    3.0192    5.8147 H   0  0  0  0  0  0  0  0  0  0  0  0
    9.6840    2.7021    4.2627 H   0  0  0  0  0  0  0  0  0  0  0  0
    9.6000    0.8523    6.7475 H   0  0  0  0  0  0  0  0  0  0  0  0
    8.9074    0.4982    5.1056 H   0  0  0  0  0  0  0  0  0  0  0  0
   10.6862    0.6268    5.3187 H   0  0  0  0  0  0  0  0  0  0  0  0
    6.9198    0.9231    7.0383 H   0  0  0  0  0  0  0  0  0  0  0  0
  1  2  2  3
  2  3  1  0
  3  4  2  0
  3  5  1  0
  5  6  2  0
  6  7  1  0
  7  8  2  0
  8  9  1  0
  9 10  2  0
 10 11  1  0
 11 12  2  3
 12 13  1  0
 13 14  3  0
 12 15  1  0
 15 16  3  0
  8 17  1  0
 17 18  1  0
 18 19  1  0
 19 20  2  0
 20 21  1  0
 21 22  1  0
 21 23  1  0
  1 24  1  0
 24 25  2  0
 25 26  1  0
 26 27  1  0
 27 28  1  0
 28 29  1  0
 26 30  2  0
 30 31  1  0
 30 32  1  0
 32 33  2  0
 33 34  1  0
 34 35  2  0
 35 36  1  0
 36 37  2  0
 37 38  1  0
 38 39  1  0
 39 40  1  0
 38 41  2  0
 33 42  1  0
 42 43  1  0
 43 44  1  0
 44 45  1  0
 45 46  1  0
 46 47  1  0
 47 48  2  0
 48 49  1  0
 49 50  1  0
 47 51  1  0
 51 52  1  0
 52 53  1  0
 53 54  1  0
 54 55  1  0
 55 56  1  0
 56 57  2  0
 57 58  1  0
 58 59  2  0
 59 60  1  0
 60 61  1  0
 61 62  1  0
 60 63  2  0
 55 64  2  0
 64 65  1  0
 65 66  1  0
 66 67  1  0
 67 68  1  0
 68 69  1  0
 69 70  1  0
 70 71  1  0
 71 72  1  0
 72 73  1  0
 73 74  1  0
 71 75  1  0
 75 76  1  0
 68 77  1  0
 77 78  1  0
 64 79  1  0
 79 80  2  0
 80 81  1  0
 81 82  1  0
 82 83  1  0
 83 84  1  0
 81 85  2  0
 85 86  1  0
 85 87  1  0
 87 88  2  3
 88 89  1  0
 89 90  3  0
 88 91  1  0
 91 92  3  0
 11  2  1  0
 23 17  1  0
 31 24  1  0
 74 32  1  0
 86 79  1  0
 10  5  1  0
 22 18  1  0
 41 34  1  0
 73 42  2  0
 23  7  1  0
 72 44  2  0
 70 45  2  0
 50 46  2  0
 69 51  2  0
 67 52  2  0
 66 54  2  0
 63 56  1  0
  1 93  1  0
  6 94  1  0
  9 95  1  0
 17 96  1  0
 18 97  1  0
 19 98  1  0
 20 99  1  0
 21100  1  0
 22101  1  0
 22102  1  0
 23103  1  0
 25104  1  0
 28105  1  0
 28106  1  0
 29107  1  0
 29108  1  0
 29109  1  0
 35110  1  0
 36111  1  0
 37112  1  0
 39113  1  0
 39114  1  0
 40115  1  0
 40116  1  0
 40117  1  0
 41118  1  0
 57119  1  0
 58120  1  0
 59121  1  0
 61122  1  0
 61123  1  0
 62124  1  0
 62125  1  0
 62126  1  0
 63127  1  0
 75128  1  0
 75129  1  0
 76130  1  0
 76131  1  0
 76132  1  0
 77133  1  0
 77134  1  0
 78135  1  0
 78136  1  0
 78137  1  0
 80138  1  0
 83139  1  0
 83140  1  0
 84141  1  0
 84142  1  0
 84143  1  0
 87144  1  0
M  END

