
     RDKit          3D

165186  0  0  0  0  0  0  0  0999 V2000
   -3.8917    0.4634   -6.1303 C   0  0  0  0  0  0  0  0  0  0  0  0
   -4.8807   -0.3645   -6.0779 C   0  0  0  0  0  0  0  0  0  0  0  0
   -5.3235   -1.4433   -6.9363 C   0  0  0  0  0  0  0  0  0  0  0  0
   -5.0287   -1.5213   -8.1552 O   0  0  0  0  0  0  0  0  0  0  0  0
   -6.1408   -2.3604   -6.1077 C   0  0  0  0  0  0  0  0  0  0  0  0
   -6.7334   -3.5586   -6.4002 C   0  0  0  0  0  0  0  0  0  0  0  0
   -7.4086   -4.3026   -5.4335 C   0  0  0  0  0  0  0  0  0  0  0  0
   -7.4999   -3.8436   -4.1382 C   0  0  0  0  0  0  0  0  0  0  0  0
   -6.9021   -2.6386   -3.8595 C   0  0  0  0  0  0  0  0  0  0  0  0
   -6.2289   -1.8989   -4.8102 C   0  0  0  0  0  0  0  0  0  0  0  0
   -5.4642   -0.6286   -4.7310 C   0  0  0  0  0  0  0  0  0  0  0  0
   -5.6710    0.2744   -3.8030 C   0  0  0  0  0  0  0  0  0  0  0  0
   -6.1255    0.1983   -2.5429 C   0  0  0  0  0  0  0  0  0  0  0  0
   -6.5516    0.1239   -1.3789 N   0  0  0  0  0  0  0  0  0  0  0  0
   -5.6115    1.7064   -4.3400 C   0  0  0  0  0  0  0  0  0  0  0  0
   -5.5693    2.7785   -4.7621 N   0  0  0  0  0  0  0  0  0  0  0  0
   -8.2834   -5.0149   -3.6688 C   0  0  0  0  0  0  0  0  0  0  0  0
   -7.5466   -6.0395   -2.8779 C   0  0  0  0  0  0  0  0  0  0  0  0
   -8.1952   -7.3613   -3.0645 C   0  0  0  0  0  0  0  0  0  0  0  0
   -7.9871   -7.7722   -4.3053 C   0  0  0  0  0  0  0  0  0  0  0  0
   -7.2246   -6.6987   -4.9892 C   0  0  0  0  0  0  0  0  0  0  0  0
   -6.3375   -6.2711   -3.8308 C   0  0  0  0  0  0  0  0  0  0  0  0
   -8.1438   -5.5311   -5.1066 C   0  0  0  0  0  0  0  0  0  0  0  0
   -2.9864    0.2960   -7.3839 C   0  0  0  0  0  0  0  0  0  0  0  0
   -2.2903    0.1659   -8.3411 C   0  0  0  0  0  0  0  0  0  0  0  0
   -1.1106   -0.4653   -8.6178 C   0  0  0  0  0  0  0  0  0  0  0  0
   -0.2678   -0.3701  -10.2050 S   0  0  0  0  0  0  0  0  0  0  0  0
   -0.9801    0.7710  -11.3757 C   0  0  0  0  0  0  0  0  0  0  0  0
   -2.2964    0.3439  -11.9597 C   0  0  0  0  0  0  0  0  0  0  0  0
   -0.5694   -1.0986   -7.5995 C   0  0  0  0  0  0  0  0  0  0  0  0
   -1.7213   -0.7888   -6.3436 S   0  0  0  0  0  0  0  0  0  0  0  0
    0.6136   -1.9002   -7.1995 C   0  0  0  0  0  0  0  0  0  0  0  0
    1.7356   -2.4254   -7.5624 C   0  0  0  0  0  0  0  0  0  0  0  0
    2.1998   -2.3811   -9.0190 C   0  0  0  0  0  0  0  0  0  0  0  0
    1.3821   -3.3609   -9.8064 C   0  0  0  0  0  0  0  0  0  0  0  0
    2.5284   -3.0236   -6.5971 C   0  0  0  0  0  0  0  0  0  0  0  0
    4.3458   -3.7587   -6.4568 Se  0  0  0  0  0  2  0  0  0  0  0  0
    4.1521   -3.9495   -4.4735 C   0  0  0  0  0  0  0  0  0  0  0  0
    4.8433   -4.1621   -3.3213 C   0  0  0  0  0  0  0  0  0  0  0  0
    6.1602   -4.4373   -2.9982 C   0  0  0  0  0  0  0  0  0  0  0  0
    6.5567   -4.3142   -1.6966 C   0  0  0  0  0  0  0  0  0  0  0  0
    7.8351   -4.6132   -1.4551 N   0  0  0  0  0  0  0  0  0  0  0  0
    8.4692   -5.0409   -2.9357 S   0  0  0  0  0  0  0  0  0  0  0  0
    7.1016   -4.8397   -3.8694 N   0  0  0  0  0  0  0  0  0  0  0  0
    5.6363   -3.8899   -0.7059 C   0  0  0  0  0  0  0  0  0  0  0  0
    5.8251   -3.3056    0.5120 C   0  0  0  0  0  0  0  0  0  0  0  0
    7.1961   -2.7803    1.8359 Se  0  0  0  0  0  2  0  0  0  0  0  0
    5.9403   -1.7287    2.8311 C   0  0  0  0  0  0  0  0  0  0  0  0
    6.0311   -0.7672    3.8396 C   0  0  0  0  0  0  0  0  0  0  0  0
    7.3422   -0.6560    4.5896 C   0  0  0  0  0  0  0  0  0  0  0  0
    8.4123   -0.0662    3.6403 C   0  0  0  0  0  0  0  0  0  0  0  0
    4.9767   -0.0383    4.0607 C   0  0  0  0  0  0  0  0  0  0  0  0
    3.8583   -0.7122    2.8830 S   0  0  0  0  0  0  0  0  0  0  0  0
    4.8879   -1.9264    2.1381 C   0  0  0  0  0  0  0  0  0  0  0  0
    4.7413   -2.6862    0.9911 C   0  0  0  0  0  0  0  0  0  0  0  0
    3.7604   -2.9137    0.0120 N   0  0  0  0  0  0  0  0  0  0  0  0
    4.3269   -3.6305   -0.9973 C   0  0  0  0  0  0  0  0  0  0  0  0
    3.9120   -3.7945   -2.3340 C   0  0  0  0  0  0  0  0  0  0  0  0
    2.7927   -3.4471   -2.8986 N   0  0  0  0  0  0  0  0  0  0  0  0
    2.9169   -3.5053   -4.2899 C   0  0  0  0  0  0  0  0  0  0  0  0
    2.1749   -3.0700   -5.3641 C   0  0  0  0  0  0  0  0  0  0  0  0
    0.6312   -2.2498   -5.4673 S   0  0  0  0  0  0  0  0  0  0  0  0
    1.4632   -3.4889   -2.2776 C   0  0  0  0  0  0  0  0  0  0  0  0
    0.7336   -4.7805   -2.8941 C   0  0  0  0  0  0  0  0  0  0  0  0
    2.4538   -2.3167    0.1981 C   0  0  0  0  0  0  0  0  0  0  0  0
    1.5821   -3.1747    1.0802 C   0  0  0  0  0  0  0  0  0  0  0  0
    4.5370    1.1125    4.8300 C   0  0  0  0  0  0  0  0  0  0  0  0
    3.6680    2.3391    3.8771 S   0  0  0  0  0  0  0  0  0  0  0  0
    3.2389    3.4343    5.0221 C   0  0  0  0  0  0  0  0  0  0  0  0
    3.7994    2.8288    6.1925 C   0  0  0  0  0  0  0  0  0  0  0  0
    3.6526    3.4634    7.5242 C   0  0  0  0  0  0  0  0  0  0  0  0
    3.0507    4.5647    7.6511 O   0  0  0  0  0  0  0  0  0  0  0  0
    4.1988    2.8389    8.7493 C   0  0  0  0  0  0  0  0  0  0  0  0
    4.0935    3.3575   10.0155 C   0  0  0  0  0  0  0  0  0  0  0  0
    3.4967    4.6674   10.4825 C   0  0  0  0  0  0  0  0  0  0  0  0
    4.4695    5.8104   10.2634 C   0  0  0  0  0  0  0  0  0  0  0  0
    4.8757    2.2080   11.0019 S   0  0  0  0  0  0  0  0  0  0  0  0
    5.3239    1.0913    9.8055 C   0  0  0  0  0  0  0  0  0  0  0  0
    6.0848   -0.2047    9.9775 C   0  0  0  0  0  0  0  0  0  0  0  0
    7.5178    0.0312    9.5842 C   0  0  0  0  0  0  0  0  0  0  0  0
    4.8408    1.6490    8.6222 C   0  0  0  0  0  0  0  0  0  0  0  0
    4.9838    1.0224    7.2885 C   0  0  0  0  0  0  0  0  0  0  0  0
    5.5672   -0.0797    7.1711 O   0  0  0  0  0  0  0  0  0  0  0  0
    4.4439    1.6466    6.0295 C   0  0  0  0  0  0  0  0  0  0  0  0
    2.4047    4.6149    5.0102 C   0  0  0  0  0  0  0  0  0  0  0  0
    1.1051    4.7655    4.6169 C   0  0  0  0  0  0  0  0  0  0  0  0
    0.4462    6.0551    4.7278 C   0  0  0  0  0  0  0  0  0  0  0  0
    0.9894    7.1919    4.9450 O   0  0  0  0  0  0  0  0  0  0  0  0
   -0.9649    5.7736    4.5428 C   0  0  0  0  0  0  0  0  0  0  0  0
   -2.0257    6.6988    4.5059 C   0  0  0  0  0  0  0  0  0  0  0  0
   -3.2718    6.2344    4.2542 C   0  0  0  0  0  0  0  0  0  0  0  0
   -3.5502    4.9075    4.0402 C   0  0  0  0  0  0  0  0  0  0  0  0
   -2.4767    3.9836    4.0807 C   0  0  0  0  0  0  0  0  0  0  0  0
   -1.2126    4.4552    4.3277 C   0  0  0  0  0  0  0  0  0  0  0  0
    0.1863    3.7252    4.3527 C   0  0  0  0  0  0  0  0  0  0  0  0
    0.1259    2.7001    3.4334 C   0  0  0  0  0  0  0  0  0  0  0  0
    1.0910    2.6047    2.4042 C   0  0  0  0  0  0  0  0  0  0  0  0
    1.8929    2.5169    1.5744 N   0  0  0  0  0  0  0  0  0  0  0  0
   -0.7693    1.6473    3.7647 C   0  0  0  0  0  0  0  0  0  0  0  0
   -1.5305    0.7287    4.0436 N   0  0  0  0  0  0  0  0  0  0  0  0
   -5.0113    5.0410    3.8318 C   0  0  0  0  0  0  0  0  0  0  0  0
   -5.4681    4.8925    2.4295 C   0  0  0  0  0  0  0  0  0  0  0  0
   -4.3153    5.1456    1.5410 C   0  0  0  0  0  0  0  0  0  0  0  0
   -4.0083    6.4320    1.7315 C   0  0  0  0  0  0  0  0  0  0  0  0
   -4.9937    7.0703    2.6442 C   0  0  0  0  0  0  0  0  0  0  0  0
   -6.2226    6.2263    2.2601 C   0  0  0  0  0  0  0  0  0  0  0  0
   -4.7164    6.5158    4.0185 C   0  0  0  0  0  0  0  0  0  0  0  0
   -3.6180    1.2076   -5.4853 H   0  0  0  0  0  0  0  0  0  0  0  0
   -6.6502   -3.8948   -7.4418 H   0  0  0  0  0  0  0  0  0  0  0  0
   -6.9601   -2.2656   -2.8526 H   0  0  0  0  0  0  0  0  0  0  0  0
   -9.3020   -4.7907   -3.3691 H   0  0  0  0  0  0  0  0  0  0  0  0
   -7.2721   -5.7864   -1.8758 H   0  0  0  0  0  0  0  0  0  0  0  0
   -8.7586   -7.9121   -2.2991 H   0  0  0  0  0  0  0  0  0  0  0  0
   -8.2944   -8.7030   -4.7320 H   0  0  0  0  0  0  0  0  0  0  0  0
   -6.6862   -7.0026   -5.8663 H   0  0  0  0  0  0  0  0  0  0  0  0
   -5.7713   -5.3683   -4.0026 H   0  0  0  0  0  0  0  0  0  0  0  0
   -5.7473   -7.1231   -3.4356 H   0  0  0  0  0  0  0  0  0  0  0  0
   -9.0911   -5.6931   -5.6095 H   0  0  0  0  0  0  0  0  0  0  0  0
   -2.7760    0.7293   -9.2968 H   0  0  0  0  0  0  0  0  0  0  0  0
   -0.2362    1.0578  -12.1789 H   0  0  0  0  0  0  0  0  0  0  0  0
   -1.1878    1.7852  -10.8977 H   0  0  0  0  0  0  0  0  0  0  0  0
   -2.4387   -0.7203  -11.6635 H   0  0  0  0  0  0  0  0  0  0  0  0
   -3.1195    1.0113  -11.5803 H   0  0  0  0  0  0  0  0  0  0  0  0
   -2.2789    0.4313  -13.0770 H   0  0  0  0  0  0  0  0  0  0  0  0
    3.2554   -2.7201   -9.0845 H   0  0  0  0  0  0  0  0  0  0  0  0
    2.2266   -1.3602   -9.3876 H   0  0  0  0  0  0  0  0  0  0  0  0
    1.3158   -2.9834  -10.8480 H   0  0  0  0  0  0  0  0  0  0  0  0
    0.3816   -3.4486   -9.3175 H   0  0  0  0  0  0  0  0  0  0  0  0
    1.9150   -4.3286   -9.8293 H   0  0  0  0  0  0  0  0  0  0  0  0
    7.2456    0.0919    5.3519 H   0  0  0  0  0  0  0  0  0  0  0  0
    7.6335   -1.6575    4.9456 H   0  0  0  0  0  0  0  0  0  0  0  0
    8.5902   -0.7648    2.7809 H   0  0  0  0  0  0  0  0  0  0  0  0
    9.2943    0.1124    4.2636 H   0  0  0  0  0  0  0  0  0  0  0  0
    8.0236    0.8893    3.2542 H   0  0  0  0  0  0  0  0  0  0  0  0
    1.5468   -3.9062   -1.2954 H   0  0  0  0  0  0  0  0  0  0  0  0
    0.8467   -2.6876   -2.5524 H   0  0  0  0  0  0  0  0  0  0  0  0
    1.3703   -5.6381   -2.7006 H   0  0  0  0  0  0  0  0  0  0  0  0
   -0.2431   -4.8569   -2.3774 H   0  0  0  0  0  0  0  0  0  0  0  0
    0.5994   -4.6507   -3.9399 H   0  0  0  0  0  0  0  0  0  0  0  0
    2.5393   -1.3642    0.8778 H   0  0  0  0  0  0  0  0  0  0  0  0
    2.0006   -1.8085   -0.6436 H   0  0  0  0  0  0  0  0  0  0  0  0
    0.5250   -3.0579    0.7762 H   0  0  0  0  0  0  0  0  0  0  0  0
    1.8143   -4.2683    1.0195 H   0  0  0  0  0  0  0  0  0  0  0  0
    1.6609   -2.9428    2.1519 H   0  0  0  0  0  0  0  0  0  0  0  0
    2.5935    4.9284    9.8943 H   0  0  0  0  0  0  0  0  0  0  0  0
    3.1689    4.5648   11.5366 H   0  0  0  0  0  0  0  0  0  0  0  0
    5.4927    5.4005   10.4731 H   0  0  0  0  0  0  0  0  0  0  0  0
    4.2184    6.6624   10.9294 H   0  0  0  0  0  0  0  0  0  0  0  0
    4.4653    6.1826    9.2304 H   0  0  0  0  0  0  0  0  0  0  0  0
    5.5842   -0.9442    9.3508 H   0  0  0  0  0  0  0  0  0  0  0  0
    6.0309   -0.4447   11.0580 H   0  0  0  0  0  0  0  0  0  0  0  0
    7.6216    0.8745    8.8791 H   0  0  0  0  0  0  0  0  0  0  0  0
    7.9060   -0.8908    9.0734 H   0  0  0  0  0  0  0  0  0  0  0  0
    8.1125    0.2285   10.5163 H   0  0  0  0  0  0  0  0  0  0  0  0
    2.8911    5.5122    5.3610 H   0  0  0  0  0  0  0  0  0  0  0  0
   -1.8005    7.7515    4.6755 H   0  0  0  0  0  0  0  0  0  0  0  0
   -2.6984    2.9533    3.9069 H   0  0  0  0  0  0  0  0  0  0  0  0
   -5.6361    4.5955    4.6160 H   0  0  0  0  0  0  0  0  0  0  0  0
   -6.0834    4.0244    2.1934 H   0  0  0  0  0  0  0  0  0  0  0  0
   -3.8434    4.4290    0.8804 H   0  0  0  0  0  0  0  0  0  0  0  0
   -3.1399    6.8745    1.2442 H   0  0  0  0  0  0  0  0  0  0  0  0
   -5.1378    8.1127    2.5531 H   0  0  0  0  0  0  0  0  0  0  0  0
   -7.0057    6.3746    2.9953 H   0  0  0  0  0  0  0  0  0  0  0  0
   -6.5137    6.4129    1.2272 H   0  0  0  0  0  0  0  0  0  0  0  0
   -5.2319    7.0144    4.8533 H   0  0  0  0  0  0  0  0  0  0  0  0
  1  2  2  3
  2  3  1  0
  3  4  2  0
  3  5  1  0
  5  6  2  0
  6  7  1  0
  7  8  2  0
  8  9  1  0
  9 10  2  0
 10 11  1  0
 11 12  2  3
 12 13  1  0
 13 14  3  0
 12 15  1  0
 15 16  3  0
  8 17  1  0
 17 18  1  0
 18 19  1  0
 19 20  2  0
 20 21  1  0
 21 22  1  0
 21 23  1  0
  1 24  1  0
 24 25  2  0
 25 26  1  0
 26 27  1  0
 27 28  1  0
 28 29  1  0
 26 30  2  0
 30 31  1  0
 30 32  1  0
 32 33  2  0
 33 34  1  0
 34 35  1  0
 33 36  1  0
 36 37  1  0
 37 38  1  0
 38 39  1  0
 39 40  1  0
 40 41  1  0
 41 42  2  0
 42 43  1  0
 43 44  1  0
 41 45  1  0
 45 46  1  0
 46 47  1  0
 47 48  1  0
 48 49  1  0
 49 50  1  0
 50 51  1  0
 49 52  2  0
 52 53  1  0
 53 54  1  0
 54 55  1  0
 55 56  1  0
 56 57  1  0
 57 58  1  0
 58 59  1  0
 59 60  1  0
 60 61  1  0
 61 62  1  0
 59 63  1  0
 63 64  1  0
 56 65  1  0
 65 66  1  0
 52 67  1  0
 67 68  1  0
 68 69  1  0
 69 70  2  0
 70 71  1  0
 71 72  2  0
 71 73  1  0
 73 74  2  0
 74 75  1  0
 75 76  1  0
 74 77  1  0
 77 78  1  0
 78 79  1  0
 79 80  1  0
 78 81  2  0
 81 82  1  0
 82 83  2  0
 82 84  1  0
 69 85  1  0
 85 86  2  3
 86 87  1  0
 87 88  2  0
 87 89  1  0
 89 90  2  0
 90 91  1  0
 91 92  2  0
 92 93  1  0
 93 94  2  0
 94 95  1  0
 95 96  2  3
 96 97  1  0
 97 98  3  0
 96 99  1  0
 99100  3  0
 92101  1  0
101102  1  0
102103  1  0
103104  2  0
104105  1  0
105106  1  0
105107  1  0
 11  2  1  0
 23 17  1  0
 31 24  1  0
 62 32  1  0
 84 67  2  0
 95 86  1  0
107101  1  0
 10  5  1  0
 22 18  1  0
 61 36  2  0
 84 70  1  0
 94 89  1  0
106102  1  0
 23  7  1  0
 60 38  2  0
 81 73  1  0
107 91  1  0
 58 39  2  0
 44 40  2  0
 57 45  2  0
 55 46  2  0
 54 48  2  0
  1108  1  0
  6109  1  0
  9110  1  0
 17111  1  0
 18112  1  0
 19113  1  0
 20114  1  0
 21115  1  0
 22116  1  0
 22117  1  0
 23118  1  0
 25119  1  0
 28120  1  0
 28121  1  0
 29122  1  0
 29123  1  0
 29124  1  0
 34125  1  0
 34126  1  0
 35127  1  0
 35128  1  0
 35129  1  0
 50130  1  0
 50131  1  0
 51132  1  0
 51133  1  0
 51134  1  0
 63135  1  0
 63136  1  0
 64137  1  0
 64138  1  0
 64139  1  0
 65140  1  0
 65141  1  0
 66142  1  0
 66143  1  0
 66144  1  0
 75145  1  0
 75146  1  0
 76147  1  0
 76148  1  0
 76149  1  0
 79150  1  0
 79151  1  0
 80152  1  0
 80153  1  0
 80154  1  0
 85155  1  0
 90156  1  0
 93157  1  0
101158  1  0
102159  1  0
103160  1  0
104161  1  0
105162  1  0
106163  1  0
106164  1  0
107165  1  0
M  END

