
     RDKit          3D

202224  0  0  0  0  0  0  0  0999 V2000
   -4.1403    7.9150   -2.3919 C   0  0  0  0  0  0  0  0  0  0  0  0
   -5.2896    7.2382   -2.5916 C   0  0  0  0  0  0  0  0  0  0  0  0
   -5.3796    5.9023   -3.1920 C   0  0  0  0  0  0  0  0  0  0  0  0
   -4.5978    5.4234   -4.0574 O   0  0  0  0  0  0  0  0  0  0  0  0
   -6.5200    5.2187   -2.6364 C   0  0  0  0  0  0  0  0  0  0  0  0
   -6.8136    3.8421   -2.7436 C   0  0  0  0  0  0  0  0  0  0  0  0
   -7.8271    3.4201   -1.9060 C   0  0  0  0  0  0  0  0  0  0  0  0
   -8.5147    4.2932   -1.0031 C   0  0  0  0  0  0  0  0  0  0  0  0
   -8.2381    5.6500   -0.9018 C   0  0  0  0  0  0  0  0  0  0  0  0
   -7.2152    6.1097   -1.7797 C   0  0  0  0  0  0  0  0  0  0  0  0
   -6.5705    7.4510   -1.8566 C   0  0  0  0  0  0  0  0  0  0  0  0
   -7.1157    8.6379   -1.5065 C   0  0  0  0  0  0  0  0  0  0  0  0
   -6.5000    9.8924   -1.8615 C   0  0  0  0  0  0  0  0  0  0  0  0
   -6.0134   10.9043   -2.1488 N   0  0  0  0  0  0  0  0  0  0  0  0
   -8.4081    8.7333   -0.8812 C   0  0  0  0  0  0  0  0  0  0  0  0
   -9.4472    8.8236   -0.3781 N   0  0  0  0  0  0  0  0  0  0  0  0
   -9.2864    3.1323   -0.4471 C   0  0  0  0  0  0  0  0  0  0  0  0
   -8.8455    2.6087    0.9525 C   0  0  0  0  0  0  0  0  0  0  0  0
   -9.4689    1.2396    1.1008 C   0  0  0  0  0  0  0  0  0  0  0  0
   -8.8206    0.4348    0.2499 C   0  0  0  0  0  0  0  0  0  0  0  0
   -7.7866    1.2849   -0.4419 C   0  0  0  0  0  0  0  0  0  0  0  0
   -7.4051    2.1807    0.7248 C   0  0  0  0  0  0  0  0  0  0  0  0
   -8.5843    2.2444   -1.3782 C   0  0  0  0  0  0  0  0  0  0  0  0
   -2.8282    7.2577   -2.5271 C   0  0  0  0  0  0  0  0  0  0  0  0
   -1.6929    7.7778   -3.1442 C   0  0  0  0  0  0  0  0  0  0  0  0
   -0.5933    6.8998   -3.0733 C   0  0  0  0  0  0  0  0  0  0  0  0
    0.6862    7.1070   -3.6304 C   0  0  0  0  0  0  0  0  0  0  0  0
    0.9972    8.2983   -4.4320 C   0  0  0  0  0  0  0  0  0  0  0  0
    0.4173    8.5839   -5.9831 S   0  0  0  0  0  0  0  0  0  0  0  0
    1.1993   10.0577   -6.1949 C   0  0  0  0  0  0  0  0  0  0  0  0
    1.0400   10.9418   -7.3980 C   0  0  0  0  0  0  0  0  0  0  0  0
   -0.0779   11.9517   -7.1793 C   0  0  0  0  0  0  0  0  0  0  0  0
    1.9089   10.3580   -5.0352 C   0  0  0  0  0  0  0  0  0  0  0  0
    2.8124   11.8476   -4.8088 Cl  0  0  0  0  0  0  0  0  0  0  0  0
    1.8068    9.3634   -4.0496 C   0  0  0  0  0  0  0  0  0  0  0  0
    2.5627    9.4816   -2.4699 Cl  0  0  0  0  0  0  0  0  0  0  0  0
    1.6345    6.0832   -3.4542 C   0  0  0  0  0  0  0  0  0  0  0  0
    1.3446    4.9099   -2.7488 C   0  0  0  0  0  0  0  0  0  0  0  0
    0.0720    4.7019   -2.1811 C   0  0  0  0  0  0  0  0  0  0  0  0
   -0.2768    3.4570   -1.4645 C   0  0  0  0  0  0  0  0  0  0  0  0
   -1.3779    2.6485   -1.7220 C   0  0  0  0  0  0  0  0  0  0  0  0
   -1.4458    1.5172   -0.8984 C   0  0  0  0  0  0  0  0  0  0  0  0
   -0.4075    1.4373    0.0217 C   0  0  0  0  0  0  0  0  0  0  0  0
   -0.1489    0.2698    0.9338 C   0  0  0  0  0  0  0  0  0  0  0  0
    0.5079    0.6984    2.2427 C   0  0  0  0  0  0  0  0  0  0  0  0
    0.6088    2.7633   -0.2108 S   0  0  0  0  0  0  0  0  0  0  0  0
   -0.8716    5.7223   -2.3689 C   0  0  0  0  0  0  0  0  0  0  0  0
   -2.4579    5.7641   -1.8326 S   0  0  0  0  0  0  0  0  0  0  0  0
    2.3859    3.9759   -2.7894 C   0  0  0  0  0  0  0  0  0  0  0  0
    3.4886    4.4084   -3.5144 C   0  0  0  0  0  0  0  0  0  0  0  0
    3.1774    5.9522   -4.1289 S   0  0  0  0  0  0  0  0  0  0  0  0
    4.5930    3.5061   -3.8670 C   0  0  0  0  0  0  0  0  0  0  0  0
    4.7009    2.8815   -5.1236 C   0  0  0  0  0  0  0  0  0  0  0  0
    4.0864    3.4026   -6.3596 C   0  0  0  0  0  0  0  0  0  0  0  0
    4.5132    4.6320   -6.8825 C   0  0  0  0  0  0  0  0  0  0  0  0
    3.9775    5.1147   -8.0788 C   0  0  0  0  0  0  0  0  0  0  0  0
    3.0206    4.3670   -8.7696 C   0  0  0  0  0  0  0  0  0  0  0  0
    2.5722    3.1408   -8.2520 C   0  0  0  0  0  0  0  0  0  0  0  0
    1.6040    2.2923   -9.0294 C   0  0  0  0  0  0  0  0  0  0  0  0
    2.3536    1.3092   -9.9264 C   0  0  0  0  0  0  0  0  0  0  0  0
    3.1044    2.6675   -7.0430 C   0  0  0  0  0  0  0  0  0  0  0  0
    5.2683    1.6025   -5.0166 C   0  0  0  0  0  0  0  0  0  0  0  0
    5.1203    0.2404   -6.0169 S   0  0  0  0  0  0  0  0  0  0  0  0
    5.5718   -0.8195   -4.7748 C   0  0  0  0  0  0  0  0  0  0  0  0
    5.1290   -2.0770   -4.4475 C   0  0  0  0  0  0  0  0  0  0  0  0
    4.2289   -2.8981   -5.1512 C   0  0  0  0  0  0  0  0  0  0  0  0
    3.4983   -3.9027   -4.4384 C   0  0  0  0  0  0  0  0  0  0  0  0
    2.5616   -4.5938   -5.1287 N   0  0  0  0  0  0  0  0  0  0  0  0
    2.7251   -3.8780   -6.6122 S   0  0  0  0  0  0  0  0  0  0  0  0
    3.9072   -2.7278   -6.4570 N   0  0  0  0  0  0  0  0  0  0  0  0
    3.7630   -4.0764   -3.0767 C   0  0  0  0  0  0  0  0  0  0  0  0
    3.2053   -4.8825   -2.1171 C   0  0  0  0  0  0  0  0  0  0  0  0
    1.8199   -5.8359   -1.8781 S   0  0  0  0  0  0  0  0  0  0  0  0
    2.1007   -5.8792   -0.1854 C   0  0  0  0  0  0  0  0  0  0  0  0
    1.3365   -6.2835    0.9225 C   0  0  0  0  0  0  0  0  0  0  0  0
    0.0444   -7.0089    0.8415 C   0  0  0  0  0  0  0  0  0  0  0  0
   -0.2359   -8.0528    1.7367 C   0  0  0  0  0  0  0  0  0  0  0  0
   -1.4507   -8.7399    1.6645 C   0  0  0  0  0  0  0  0  0  0  0  0
   -2.3909   -8.4034    0.6904 C   0  0  0  0  0  0  0  0  0  0  0  0
   -2.1361   -7.3551   -0.2024 C   0  0  0  0  0  0  0  0  0  0  0  0
   -3.1194   -7.0302   -1.2932 C   0  0  0  0  0  0  0  0  0  0  0  0
   -2.7756   -7.7990   -2.5643 C   0  0  0  0  0  0  0  0  0  0  0  0
   -0.9215   -6.6542   -0.1185 C   0  0  0  0  0  0  0  0  0  0  0  0
    1.9521   -5.8650    2.1241 C   0  0  0  0  0  0  0  0  0  0  0  0
    3.3859   -5.0069    1.7891 S   0  0  0  0  0  0  0  0  0  0  0  0
    3.2419   -5.1897    0.1383 C   0  0  0  0  0  0  0  0  0  0  0  0
    3.8500   -4.6158   -0.9591 C   0  0  0  0  0  0  0  0  0  0  0  0
    4.8114   -3.6781   -1.0906 N   0  0  0  0  0  0  0  0  0  0  0  0
    4.7026   -3.2946   -2.3968 C   0  0  0  0  0  0  0  0  0  0  0  0
    5.2787   -2.1809   -3.0554 C   0  0  0  0  0  0  0  0  0  0  0  0
    5.6291   -0.9651   -2.5165 N   0  0  0  0  0  0  0  0  0  0  0  0
    5.8106   -0.1609   -3.5999 C   0  0  0  0  0  0  0  0  0  0  0  0
    5.6326    1.2211   -3.7468 C   0  0  0  0  0  0  0  0  0  0  0  0
    5.2248    2.4563   -2.6926 S   0  0  0  0  0  0  0  0  0  0  0  0
    5.2974   -0.4636   -1.1702 C   0  0  0  0  0  0  0  0  0  0  0  0
    6.5270    0.1352   -0.4846 C   0  0  0  0  0  0  0  0  0  0  0  0
    5.9833   -3.5356   -0.2181 C   0  0  0  0  0  0  0  0  0  0  0  0
    6.7555   -4.8501   -0.1156 C   0  0  0  0  0  0  0  0  0  0  0  0
    1.3688   -5.8664    3.4777 C   0  0  0  0  0  0  0  0  0  0  0  0
    2.1146   -6.4138    4.5273 C   0  0  0  0  0  0  0  0  0  0  0  0
    1.7226   -6.2300    5.8654 C   0  0  0  0  0  0  0  0  0  0  0  0
    2.4618   -6.7551    6.9418 O   0  0  0  0  0  0  0  0  0  0  0  0
    3.7054   -7.4519    6.8444 C   0  0  0  0  0  0  0  0  0  0  0  0
    4.8523   -6.4798    6.5886 C   0  0  0  0  0  0  0  0  0  0  0  0
    0.5633   -5.4846    6.1453 C   0  0  0  0  0  0  0  0  0  0  0  0
   -0.2007   -4.9587    5.0905 C   0  0  0  0  0  0  0  0  0  0  0  0
    0.1805   -5.1632    3.7517 C   0  0  0  0  0  0  0  0  0  0  0  0
   -0.5622   -4.6426    2.6770 O   0  0  0  0  0  0  0  0  0  0  0  0
   -1.9021   -4.1520    2.7385 C   0  0  0  0  0  0  0  0  0  0  0  0
   -2.8834   -5.2670    3.0900 C   0  0  0  0  0  0  0  0  0  0  0  0
    0.3043   -5.0589    7.5366 C   0  0  0  0  0  0  0  0  0  0  0  0
   -0.8928   -5.0852    8.1575 C   0  0  0  0  0  0  0  0  0  0  0  0
   -2.1607   -5.5426    7.5814 C   0  0  0  0  0  0  0  0  0  0  0  0
   -2.2993   -6.3323    6.6100 O   0  0  0  0  0  0  0  0  0  0  0  0
   -3.2407   -4.9934    8.3736 C   0  0  0  0  0  0  0  0  0  0  0  0
   -4.6129   -5.0675    8.1301 C   0  0  0  0  0  0  0  0  0  0  0  0
   -5.4944   -4.3944    9.0022 C   0  0  0  0  0  0  0  0  0  0  0  0
   -6.9581   -4.4434    8.7892 C   0  0  0  0  0  0  0  0  0  0  0  0
   -7.4290   -5.0314    7.7798 O   0  0  0  0  0  0  0  0  0  0  0  0
   -7.8175   -3.8295    9.7077 O   0  0  0  0  0  0  0  0  0  0  0  0
   -9.2317   -3.8382    9.5676 C   0  0  0  0  0  0  0  0  0  0  0  0
   -4.9629   -3.6539   10.0826 C   0  0  0  0  0  0  0  0  0  0  0  0
   -3.5788   -3.5971   10.3040 C   0  0  0  0  0  0  0  0  0  0  0  0
   -2.7178   -4.2987    9.4493 C   0  0  0  0  0  0  0  0  0  0  0  0
   -1.2330   -4.4234    9.4534 C   0  0  0  0  0  0  0  0  0  0  0  0
   -0.3977   -4.1835   10.5006 C   0  0  0  0  0  0  0  0  0  0  0  0
    0.9780   -4.6086   10.5029 C   0  0  0  0  0  0  0  0  0  0  0  0
    2.0829   -4.9516   10.5147 N   0  0  0  0  0  0  0  0  0  0  0  0
   -0.8517   -3.6069   11.7384 C   0  0  0  0  0  0  0  0  0  0  0  0
   -1.1983   -3.1427   12.7417 N   0  0  0  0  0  0  0  0  0  0  0  0
   -4.1409    8.8716   -1.8935 H   0  0  0  0  0  0  0  0  0  0  0  0
   -6.2478    3.1617   -3.3636 H   0  0  0  0  0  0  0  0  0  0  0  0
   -8.7128    6.2580   -0.1527 H   0  0  0  0  0  0  0  0  0  0  0  0
  -10.3845    3.2021   -0.6128 H   0  0  0  0  0  0  0  0  0  0  0  0
   -9.0177    3.3018    1.8028 H   0  0  0  0  0  0  0  0  0  0  0  0
  -10.2170    0.9325    1.8230 H   0  0  0  0  0  0  0  0  0  0  0  0
   -8.9634   -0.6362    0.1568 H   0  0  0  0  0  0  0  0  0  0  0  0
   -6.9522    0.7276   -0.9196 H   0  0  0  0  0  0  0  0  0  0  0  0
   -6.7194    3.0138    0.4538 H   0  0  0  0  0  0  0  0  0  0  0  0
   -6.9660    1.6235    1.5880 H   0  0  0  0  0  0  0  0  0  0  0  0
   -9.2318    1.7528   -2.1355 H   0  0  0  0  0  0  0  0  0  0  0  0
   -1.6728    8.7441   -3.6297 H   0  0  0  0  0  0  0  0  0  0  0  0
    0.7989   10.3180   -8.2828 H   0  0  0  0  0  0  0  0  0  0  0  0
    1.9928   11.4734   -7.6010 H   0  0  0  0  0  0  0  0  0  0  0  0
    0.1315   12.5806   -6.2863 H   0  0  0  0  0  0  0  0  0  0  0  0
   -0.1625   12.6131   -8.0699 H   0  0  0  0  0  0  0  0  0  0  0  0
   -1.0446   11.4219   -7.0321 H   0  0  0  0  0  0  0  0  0  0  0  0
   -2.0973    2.8483   -2.5047 H   0  0  0  0  0  0  0  0  0  0  0  0
   -2.2166    0.7635   -0.9933 H   0  0  0  0  0  0  0  0  0  0  0  0
   -1.1118   -0.2365    1.1671 H   0  0  0  0  0  0  0  0  0  0  0  0
    0.5064   -0.4577    0.4078 H   0  0  0  0  0  0  0  0  0  0  0  0
    0.5874   -0.1760    2.9189 H   0  0  0  0  0  0  0  0  0  0  0  0
   -0.0982    1.4853    2.7440 H   0  0  0  0  0  0  0  0  0  0  0  0
    1.5319    1.0886    2.0512 H   0  0  0  0  0  0  0  0  0  0  0  0
    2.3180    2.9785   -2.3831 H   0  0  0  0  0  0  0  0  0  0  0  0
    5.2735    5.2106   -6.3719 H   0  0  0  0  0  0  0  0  0  0  0  0
    4.3232    6.0562   -8.4841 H   0  0  0  0  0  0  0  0  0  0  0  0
    2.6324    4.7341   -9.7110 H   0  0  0  0  0  0  0  0  0  0  0  0
    0.9458    2.9323   -9.6555 H   0  0  0  0  0  0  0  0  0  0  0  0
    0.9506    1.7229   -8.3293 H   0  0  0  0  0  0  0  0  0  0  0  0
    1.6249    0.6804  -10.4776 H   0  0  0  0  0  0  0  0  0  0  0  0
    3.0021    0.6460   -9.3115 H   0  0  0  0  0  0  0  0  0  0  0  0
    2.9821    1.8553  -10.6614 H   0  0  0  0  0  0  0  0  0  0  0  0
    2.7587    1.7222   -6.6386 H   0  0  0  0  0  0  0  0  0  0  0  0
    0.4905   -8.3482    2.4834 H   0  0  0  0  0  0  0  0  0  0  0  0
   -1.6597   -9.5413    2.3591 H   0  0  0  0  0  0  0  0  0  0  0  0
   -3.3189   -8.9605    0.6299 H   0  0  0  0  0  0  0  0  0  0  0  0
   -4.1500   -7.2929   -0.9779 H   0  0  0  0  0  0  0  0  0  0  0  0
   -3.1056   -5.9410   -1.5105 H   0  0  0  0  0  0  0  0  0  0  0  0
   -2.8395   -8.8949   -2.3857 H   0  0  0  0  0  0  0  0  0  0  0  0
   -3.4908   -7.5329   -3.3718 H   0  0  0  0  0  0  0  0  0  0  0  0
   -1.7473   -7.5482   -2.9056 H   0  0  0  0  0  0  0  0  0  0  0  0
   -0.7429   -5.8293   -0.7944 H   0  0  0  0  0  0  0  0  0  0  0  0
    4.8546   -1.2422   -0.5274 H   0  0  0  0  0  0  0  0  0  0  0  0
    4.4959    0.2986   -1.2408 H   0  0  0  0  0  0  0  0  0  0  0  0
    6.2121    0.6853    0.4266 H   0  0  0  0  0  0  0  0  0  0  0  0
    7.2336   -0.6625   -0.1833 H   0  0  0  0  0  0  0  0  0  0  0  0
    7.0617    0.8223   -1.1619 H   0  0  0  0  0  0  0  0  0  0  0  0
    5.6636   -3.2112    0.7937 H   0  0  0  0  0  0  0  0  0  0  0  0
    6.6809   -2.7843   -0.6373 H   0  0  0  0  0  0  0  0  0  0  0  0
    7.0277   -5.2101   -1.1288 H   0  0  0  0  0  0  0  0  0  0  0  0
    7.6850   -4.6889    0.4695 H   0  0  0  0  0  0  0  0  0  0  0  0
    6.1469   -5.6216    0.3979 H   0  0  0  0  0  0  0  0  0  0  0  0
    3.0229   -6.9497    4.2893 H   0  0  0  0  0  0  0  0  0  0  0  0
    3.6633   -8.2375    6.0583 H   0  0  0  0  0  0  0  0  0  0  0  0
    3.8931   -7.9662    7.8106 H   0  0  0  0  0  0  0  0  0  0  0  0
    4.8809   -5.7170    7.3913 H   0  0  0  0  0  0  0  0  0  0  0  0
    5.8173   -7.0275    6.5770 H   0  0  0  0  0  0  0  0  0  0  0  0
    4.7239   -5.9670    5.6150 H   0  0  0  0  0  0  0  0  0  0  0  0
   -1.0482   -4.3272    5.3195 H   0  0  0  0  0  0  0  0  0  0  0  0
   -1.9853   -3.3103    3.4587 H   0  0  0  0  0  0  0  0  0  0  0  0
   -2.1664   -3.7589    1.7354 H   0  0  0  0  0  0  0  0  0  0  0  0
   -3.9080   -4.9869    2.7706 H   0  0  0  0  0  0  0  0  0  0  0  0
   -2.5903   -6.2076    2.5847 H   0  0  0  0  0  0  0  0  0  0  0  0
   -2.8982   -5.4373    4.1837 H   0  0  0  0  0  0  0  0  0  0  0  0
    1.1551   -4.6174    8.0270 H   0  0  0  0  0  0  0  0  0  0  0  0
   -4.9800   -5.6250    7.2754 H   0  0  0  0  0  0  0  0  0  0  0  0
   -9.6840   -3.2980   10.4268 H   0  0  0  0  0  0  0  0  0  0  0  0
   -9.6044   -4.8844    9.5637 H   0  0  0  0  0  0  0  0  0  0  0  0
   -9.5238   -3.3290    8.6234 H   0  0  0  0  0  0  0  0  0  0  0  0
   -5.6152   -3.1068   10.7517 H   0  0  0  0  0  0  0  0  0  0  0  0
   -3.2173   -2.9816   11.1091 H   0  0  0  0  0  0  0  0  0  0  0  0
  1  2  2  3
  2  3  1  0
  3  4  2  0
  3  5  1  0
  5  6  2  0
  6  7  1  0
  7  8  2  0
  8  9  1  0
  9 10  2  0
 10 11  1  0
 11 12  2  3
 12 13  1  0
 13 14  3  0
 12 15  1  0
 15 16  3  0
  8 17  1  0
 17 18  1  0
 18 19  1  0
 19 20  2  0
 20 21  1  0
 21 22  1  0
 21 23  1  0
  1 24  1  0
 24 25  2  0
 25 26  1  0
 26 27  2  0
 27 28  1  0
 28 29  1  0
 29 30  1  0
 30 31  1  0
 31 32  1  0
 30 33  2  0
 33 34  1  0
 33 35  1  0
 35 36  1  0
 27 37  1  0
 37 38  2  0
 38 39  1  0
 39 40  1  0
 40 41  2  0
 41 42  1  0
 42 43  2  0
 43 44  1  0
 44 45  1  0
 43 46  1  0
 39 47  2  0
 47 48  1  0
 38 49  1  0
 49 50  2  0
 50 51  1  0
 50 52  1  0
 52 53  2  0
 53 54  1  0
 54 55  2  0
 55 56  1  0
 56 57  2  0
 57 58  1  0
 58 59  1  0
 59 60  1  0
 58 61  2  0
 53 62  1  0
 62 63  1  0
 63 64  1  0
 64 65  1  0
 65 66  1  0
 66 67  1  0
 67 68  2  0
 68 69  1  0
 69 70  1  0
 67 71  1  0
 71 72  1  0
 72 73  1  0
 73 74  1  0
 74 75  1  0
 75 76  1  0
 76 77  2  0
 77 78  1  0
 78 79  2  0
 79 80  1  0
 80 81  1  0
 81 82  1  0
 80 83  2  0
 75 84  2  0
 84 85  1  0
 85 86  1  0
 86 87  1  0
 87 88  1  0
 88 89  1  0
 89 90  1  0
 90 91  1  0
 91 92  1  0
 92 93  1  0
 93 94  1  0
 91 95  1  0
 95 96  1  0
 88 97  1  0
 97 98  1  0
 84 99  1  0
 99100  2  0
100101  1  0
101102  1  0
102103  1  0
103104  1  0
101105  2  0
105106  1  0
106107  2  0
107108  1  0
108109  1  0
109110  1  0
105111  1  0
111112  2  3
112113  1  0
113114  2  0
113115  1  0
115116  2  0
116117  1  0
117118  1  0
118119  2  0
118120  1  0
120121  1  0
117122  2  0
122123  1  0
123124  2  0
124125  1  0
125126  2  3
126127  1  0
127128  3  0
126129  1  0
129130  3  0
 11  2  1  0
 23 17  1  0
 48 24  1  0
 94 52  1  0
107 99  1  0
125112  1  0
 10  5  1  0
 22 18  1  0
 47 26  1  0
 61 54  1  0
 93 62  2  0
124115  1  0
 23  7  1  0
 35 28  2  0
 51 37  1  0
 92 64  2  0
 46 40  1  0
 90 65  2  0
 70 66  2  0
 89 71  2  0
 87 72  2  0
 86 74  2  0
 83 76  1  0
  1131  1  0
  6132  1  0
  9133  1  0
 17134  1  0
 18135  1  0
 19136  1  0
 20137  1  0
 21138  1  0
 22139  1  0
 22140  1  0
 23141  1  0
 25142  1  0
 31143  1  0
 31144  1  0
 32145  1  0
 32146  1  0
 32147  1  0
 41148  1  0
 42149  1  0
 44150  1  0
 44151  1  0
 45152  1  0
 45153  1  0
 45154  1  0
 49155  1  0
 55156  1  0
 56157  1  0
 57158  1  0
 59159  1  0
 59160  1  0
 60161  1  0
 60162  1  0
 60163  1  0
 61164  1  0
 77165  1  0
 78166  1  0
 79167  1  0
 81168  1  0
 81169  1  0
 82170  1  0
 82171  1  0
 82172  1  0
 83173  1  0
 95174  1  0
 95175  1  0
 96176  1  0
 96177  1  0
 96178  1  0
 97179  1  0
 97180  1  0
 98181  1  0
 98182  1  0
 98183  1  0
100184  1  0
103185  1  0
103186  1  0
104187  1  0
104188  1  0
104189  1  0
106190  1  0
109191  1  0
109192  1  0
110193  1  0
110194  1  0
110195  1  0
111196  1  0
116197  1  0
121198  1  0
121199  1  0
121200  1  0
122201  1  0
123202  1  0
M  END

