
     RDKit          3D

157176  0  0  0  0  0  0  0  0999 V2000
    0.1726    2.3972   -7.7443 C   0  0  0  0  0  0  0  0  0  0  0  0
    0.5809    1.1435   -7.6396 C   0  0  0  0  0  0  0  0  0  0  0  0
    0.6665    0.2512   -8.8094 C   0  0  0  0  0  0  0  0  0  0  0  0
    0.2223    0.4577   -9.9554 O   0  0  0  0  0  0  0  0  0  0  0  0
    1.3708   -0.9404   -8.4003 C   0  0  0  0  0  0  0  0  0  0  0  0
    1.8466   -2.0398   -9.1434 C   0  0  0  0  0  0  0  0  0  0  0  0
    2.6328   -3.0167   -8.5654 C   0  0  0  0  0  0  0  0  0  0  0  0
    2.9539   -2.9322   -7.2461 C   0  0  0  0  0  0  0  0  0  0  0  0
    2.4849   -1.8467   -6.4931 C   0  0  0  0  0  0  0  0  0  0  0  0
    1.7123   -0.8655   -7.0765 C   0  0  0  0  0  0  0  0  0  0  0  0
    1.2070    0.4527   -6.5281 C   0  0  0  0  0  0  0  0  0  0  0  0
    1.0489    0.6293   -5.2423 C   0  0  0  0  0  0  0  0  0  0  0  0
    1.7551   -0.0957   -4.2282 C   0  0  0  0  0  0  0  0  0  0  0  0
    2.3431   -0.6858   -3.3802 N   0  0  0  0  0  0  0  0  0  0  0  0
   -0.0871    1.3321   -4.6540 C   0  0  0  0  0  0  0  0  0  0  0  0
   -1.0215    1.8901   -4.1612 N   0  0  0  0  0  0  0  0  0  0  0  0
    3.8312   -4.1508   -7.2448 C   0  0  0  0  0  0  0  0  0  0  0  0
    5.2992   -3.7944   -7.2295 C   0  0  0  0  0  0  0  0  0  0  0  0
    5.3495   -2.3944   -7.7787 C   0  0  0  0  0  0  0  0  0  0  0  0
    5.0137   -2.4584   -9.0760 C   0  0  0  0  0  0  0  0  0  0  0  0
    4.8017   -3.9001   -9.4039 C   0  0  0  0  0  0  0  0  0  0  0  0
    5.7883   -4.5371   -8.4483 C   0  0  0  0  0  0  0  0  0  0  0  0
    3.4727   -4.2618   -8.7119 C   0  0  0  0  0  0  0  0  0  0  0  0
    0.0645    3.4071   -6.7173 C   0  0  0  0  0  0  0  0  0  0  0  0
   -0.8331    4.3354   -6.3413 C   0  0  0  0  0  0  0  0  0  0  0  0
   -0.5431    5.1478   -5.2794 C   0  0  0  0  0  0  0  0  0  0  0  0
   -1.6901    6.4758   -4.8155 S   0  0  0  0  0  0  0  0  0  0  0  0
   -2.9941    5.8067   -3.7730 C   0  0  0  0  0  0  0  0  0  0  0  0
   -3.9498    4.8542   -4.4950 C   0  0  0  0  0  0  0  0  0  0  0  0
    0.6326    4.9493   -4.6830 C   0  0  0  0  0  0  0  0  0  0  0  0
    1.3511    3.6926   -5.5460 S   0  0  0  0  0  0  0  0  0  0  0  0
    1.1208    5.4006   -3.3481 C   0  0  0  0  0  0  0  0  0  0  0  0
    2.3380    5.4825   -2.8006 C   0  0  0  0  0  0  0  0  0  0  0  0
    3.5619    5.2602   -3.6388 C   0  0  0  0  0  0  0  0  0  0  0  0
    4.4121    4.2449   -3.1435 C   0  0  0  0  0  0  0  0  0  0  0  0
    5.5501    3.8806   -3.8216 C   0  0  0  0  0  0  0  0  0  0  0  0
    5.8330    4.5478   -5.0201 C   0  0  0  0  0  0  0  0  0  0  0  0
    5.0097    5.5129   -5.4868 C   0  0  0  0  0  0  0  0  0  0  0  0
    5.3566    6.1682   -6.7813 C   0  0  0  0  0  0  0  0  0  0  0  0
    4.7474    5.3365   -7.9259 C   0  0  0  0  0  0  0  0  0  0  0  0
    3.8691    5.8675   -4.7774 C   0  0  0  0  0  0  0  0  0  0  0  0
    2.3814    5.5693   -1.4266 C   0  0  0  0  0  0  0  0  0  0  0  0
    3.5731    5.3413   -0.1853 S   0  0  0  0  0  0  0  0  0  0  0  0
    2.4992    5.2293    1.1638 C   0  0  0  0  0  0  0  0  0  0  0  0
    2.4131    4.7186    2.4953 C   0  0  0  0  0  0  0  0  0  0  0  0
    3.4147    4.1506    3.2556 C   0  0  0  0  0  0  0  0  0  0  0  0
    3.0208    3.3737    4.2971 C   0  0  0  0  0  0  0  0  0  0  0  0
    3.9956    2.8657    5.0446 N   0  0  0  0  0  0  0  0  0  0  0  0
    5.4299    3.4363    4.3271 S   0  0  0  0  0  0  0  0  0  0  0  0
    4.7164    4.3144    3.0935 N   0  0  0  0  0  0  0  0  0  0  0  0
    1.6523    3.1837    4.5230 C   0  0  0  0  0  0  0  0  0  0  0  0
    1.0281    2.1326    5.2162 C   0  0  0  0  0  0  0  0  0  0  0  0
    1.3182    0.6570    6.0018 S   0  0  0  0  0  0  0  0  0  0  0  0
   -0.2811   -0.0166    5.9243 C   0  0  0  0  0  0  0  0  0  0  0  0
   -0.9140   -1.2295    6.1743 C   0  0  0  0  0  0  0  0  0  0  0  0
   -0.1739   -2.4487    6.5948 C   0  0  0  0  0  0  0  0  0  0  0  0
   -0.1643   -3.0748    7.7761 C   0  0  0  0  0  0  0  0  0  0  0  0
    0.6109   -4.2147    7.9276 C   0  0  0  0  0  0  0  0  0  0  0  0
    1.3583   -4.7041    6.9304 C   0  0  0  0  0  0  0  0  0  0  0  0
    1.3847   -4.0768    5.6644 C   0  0  0  0  0  0  0  0  0  0  0  0
    2.2222   -4.5968    4.5300 C   0  0  0  0  0  0  0  0  0  0  0  0
    3.4851   -3.8136    4.5200 C   0  0  0  0  0  0  0  0  0  0  0  0
    0.5831   -2.9330    5.5275 C   0  0  0  0  0  0  0  0  0  0  0  0
   -2.2052   -1.3080    5.7751 C   0  0  0  0  0  0  0  0  0  0  0  0
   -2.5379    0.1756    5.1098 S   0  0  0  0  0  0  0  0  0  0  0  0
   -0.9532    0.9354    5.3178 C   0  0  0  0  0  0  0  0  0  0  0  0
   -0.2752    2.1121    4.9101 C   0  0  0  0  0  0  0  0  0  0  0  0
   -0.5460    3.1675    4.0061 N   0  0  0  0  0  0  0  0  0  0  0  0
    0.6512    3.7560    3.8117 C   0  0  0  0  0  0  0  0  0  0  0  0
    1.0604    4.5908    2.7224 C   0  0  0  0  0  0  0  0  0  0  0  0
    0.3958    5.0070    1.6558 N   0  0  0  0  0  0  0  0  0  0  0  0
    1.2977    5.3858    0.6475 C   0  0  0  0  0  0  0  0  0  0  0  0
    1.2716    5.5675   -0.7343 C   0  0  0  0  0  0  0  0  0  0  0  0
    0.0785    5.4725   -1.9762 S   0  0  0  0  0  0  0  0  0  0  0  0
   -1.0315    5.3225    1.5473 C   0  0  0  0  0  0  0  0  0  0  0  0
   -1.2741    6.6637    2.2327 C   0  0  0  0  0  0  0  0  0  0  0  0
   -1.8790    3.3267    3.5798 C   0  0  0  0  0  0  0  0  0  0  0  0
   -2.1637    2.2804    2.4534 C   0  0  0  0  0  0  0  0  0  0  0  0
   -3.1048   -2.4660    5.6170 C   0  0  0  0  0  0  0  0  0  0  0  0
   -2.6733   -4.1270    5.8605 S   0  0  0  0  0  0  0  0  0  0  0  0
   -4.1188   -4.8344    5.2140 C   0  0  0  0  0  0  0  0  0  0  0  0
   -4.9121   -3.6950    4.8350 C   0  0  0  0  0  0  0  0  0  0  0  0
   -6.1497   -3.6840    4.2766 C   0  0  0  0  0  0  0  0  0  0  0  0
   -6.8571   -2.5860    3.9265 C   0  0  0  0  0  0  0  0  0  0  0  0
   -8.1526   -2.3166    3.2963 C   0  0  0  0  0  0  0  0  0  0  0  0
   -8.1110   -2.0676    1.8286 C   0  0  0  0  0  0  0  0  0  0  0  0
   -5.6963   -1.1655    4.4168 Se  0  0  0  0  0  2  0  0  0  0  0  0
   -4.2722   -2.6127    5.0981 C   0  0  0  0  0  0  0  0  0  0  0  0
   -4.2136   -6.2706    5.0630 C   0  0  0  0  0  0  0  0  0  0  0  0
   -5.0523   -7.1161    5.5342 C   0  0  0  0  0  0  0  0  0  0  0  0
   -6.1922   -6.8165    6.4210 C   0  0  0  0  0  0  0  0  0  0  0  0
   -6.4933   -5.6404    6.7439 O   0  0  0  0  0  0  0  0  0  0  0  0
   -6.8378   -8.0858    6.8029 C   0  0  0  0  0  0  0  0  0  0  0  0
   -6.1922   -9.1061    6.2309 C   0  0  0  0  0  0  0  0  0  0  0  0
   -6.6451  -10.3788    6.5306 C   0  0  0  0  0  0  0  0  0  0  0  0
   -7.9560  -10.1055    7.5891 S   0  0  0  0  0  0  0  0  0  0  0  0
   -7.9139   -8.3995    7.6442 C   0  0  0  0  0  0  0  0  0  0  0  0
   -8.9804   -7.3039    8.5421 Cl  0  0  0  0  0  0  0  0  0  0  0  0
   -5.0573   -8.6015    5.4059 C   0  0  0  0  0  0  0  0  0  0  0  0
   -4.2609   -9.2972    4.6763 C   0  0  0  0  0  0  0  0  0  0  0  0
   -4.2545  -10.7485    4.5468 C   0  0  0  0  0  0  0  0  0  0  0  0
   -4.2613  -11.9453    4.4530 N   0  0  0  0  0  0  0  0  0  0  0  0
   -3.5027   -8.6773    3.5642 C   0  0  0  0  0  0  0  0  0  0  0  0
   -2.8769   -8.1490    2.6131 N   0  0  0  0  0  0  0  0  0  0  0  0
   -0.1430    2.6871   -8.7784 H   0  0  0  0  0  0  0  0  0  0  0  0
    1.5388   -2.0612  -10.1885 H   0  0  0  0  0  0  0  0  0  0  0  0
    2.7919   -1.8205   -5.4647 H   0  0  0  0  0  0  0  0  0  0  0  0
    3.4938   -4.9091   -6.5524 H   0  0  0  0  0  0  0  0  0  0  0  0
    5.8246   -3.9517   -6.3265 H   0  0  0  0  0  0  0  0  0  0  0  0
    5.6315   -1.5450   -7.1616 H   0  0  0  0  0  0  0  0  0  0  0  0
    4.9139   -1.5644   -9.7082 H   0  0  0  0  0  0  0  0  0  0  0  0
    4.8684   -4.1630  -10.4055 H   0  0  0  0  0  0  0  0  0  0  0  0
    6.8412   -4.3028   -8.6630 H   0  0  0  0  0  0  0  0  0  0  0  0
    5.6067   -5.6406   -8.3425 H   0  0  0  0  0  0  0  0  0  0  0  0
    2.9270   -5.1205   -9.0492 H   0  0  0  0  0  0  0  0  0  0  0  0
   -1.7948    4.4036   -6.9166 H   0  0  0  0  0  0  0  0  0  0  0  0
   -2.6301    5.2660   -2.8848 H   0  0  0  0  0  0  0  0  0  0  0  0
   -3.6024    6.6641   -3.4061 H   0  0  0  0  0  0  0  0  0  0  0  0
   -3.9373    5.0039   -5.5752 H   0  0  0  0  0  0  0  0  0  0  0  0
   -4.9732    5.0455   -4.0914 H   0  0  0  0  0  0  0  0  0  0  0  0
   -3.7272    3.7779   -4.2105 H   0  0  0  0  0  0  0  0  0  0  0  0
    4.1706    3.7445   -2.1994 H   0  0  0  0  0  0  0  0  0  0  0  0
    6.2219    3.1277   -3.4908 H   0  0  0  0  0  0  0  0  0  0  0  0
    6.7569    4.2451   -5.5606 H   0  0  0  0  0  0  0  0  0  0  0  0
    4.9041    7.1683   -6.8450 H   0  0  0  0  0  0  0  0  0  0  0  0
    6.4227    6.2468   -6.9002 H   0  0  0  0  0  0  0  0  0  0  0  0
    4.5707    6.0081   -8.7559 H   0  0  0  0  0  0  0  0  0  0  0  0
    3.8584    4.8210   -7.5456 H   0  0  0  0  0  0  0  0  0  0  0  0
    5.4740    4.5585   -8.2773 H   0  0  0  0  0  0  0  0  0  0  0  0
    3.2328    6.6422   -5.1934 H   0  0  0  0  0  0  0  0  0  0  0  0
   -0.7842   -2.6608    8.5731 H   0  0  0  0  0  0  0  0  0  0  0  0
    0.5902   -4.6517    8.8725 H   0  0  0  0  0  0  0  0  0  0  0  0
    1.9708   -5.6021    7.0752 H   0  0  0  0  0  0  0  0  0  0  0  0
    2.3835   -5.6649    4.7261 H   0  0  0  0  0  0  0  0  0  0  0  0
    1.6908   -4.5413    3.5348 H   0  0  0  0  0  0  0  0  0  0  0  0
    3.3347   -2.8011    4.9514 H   0  0  0  0  0  0  0  0  0  0  0  0
    3.8329   -3.6041    3.4784 H   0  0  0  0  0  0  0  0  0  0  0  0
    4.3288   -4.3032    5.0246 H   0  0  0  0  0  0  0  0  0  0  0  0
    0.5818   -2.4268    4.5615 H   0  0  0  0  0  0  0  0  0  0  0  0
   -1.7901    4.6530    1.4030 H   0  0  0  0  0  0  0  0  0  0  0  0
   -1.0826    5.7789    0.4267 H   0  0  0  0  0  0  0  0  0  0  0  0
   -0.9874    7.5244    1.6024 H   0  0  0  0  0  0  0  0  0  0  0  0
   -0.5459    6.7000    3.1169 H   0  0  0  0  0  0  0  0  0  0  0  0
   -2.3134    6.7846    2.5186 H   0  0  0  0  0  0  0  0  0  0  0  0
   -2.3631    4.2442    3.3793 H   0  0  0  0  0  0  0  0  0  0  0  0
   -2.5796    2.8822    4.3943 H   0  0  0  0  0  0  0  0  0  0  0  0
   -1.8339    2.5799    1.4519 H   0  0  0  0  0  0  0  0  0  0  0  0
   -1.4733    1.3838    2.6826 H   0  0  0  0  0  0  0  0  0  0  0  0
   -3.2226    1.9727    2.4288 H   0  0  0  0  0  0  0  0  0  0  0  0
   -6.7519   -4.6526    4.0241 H   0  0  0  0  0  0  0  0  0  0  0  0
   -8.6523   -1.5083    3.8207 H   0  0  0  0  0  0  0  0  0  0  0  0
   -8.7034   -3.2865    3.4342 H   0  0  0  0  0  0  0  0  0  0  0  0
   -7.2164   -2.3087    1.2856 H   0  0  0  0  0  0  0  0  0  0  0  0
   -9.0005   -2.5732    1.3194 H   0  0  0  0  0  0  0  0  0  0  0  0
   -8.3594   -0.9731    1.5788 H   0  0  0  0  0  0  0  0  0  0  0  0
   -3.3681   -6.7291    4.4676 H   0  0  0  0  0  0  0  0  0  0  0  0
   -6.2459  -11.3684    6.1874 H   0  0  0  0  0  0  0  0  0  0  0  0
  1  2  2  3
  2  3  1  0
  3  4  2  0
  3  5  1  0
  5  6  2  0
  6  7  1  0
  7  8  2  0
  8  9  1  0
  9 10  2  0
 10 11  1  0
 11 12  2  3
 12 13  1  0
 13 14  3  0
 12 15  1  0
 15 16  3  0
  8 17  1  0
 17 18  1  0
 18 19  1  0
 19 20  2  0
 20 21  1  0
 21 22  1  0
 21 23  1  0
  1 24  1  0
 24 25  2  0
 25 26  1  0
 26 27  1  0
 27 28  1  0
 28 29  1  0
 26 30  2  0
 30 31  1  0
 30 32  1  0
 32 33  2  0
 33 34  1  0
 34 35  2  0
 35 36  1  0
 36 37  2  0
 37 38  1  0
 38 39  1  0
 39 40  1  0
 38 41  2  0
 33 42  1  0
 42 43  1  0
 43 44  1  0
 44 45  1  0
 45 46  1  0
 46 47  1  0
 47 48  2  0
 48 49  1  0
 49 50  1  0
 47 51  1  0
 51 52  1  0
 52 53  1  0
 53 54  1  0
 54 55  1  0
 55 56  1  0
 56 57  2  0
 57 58  1  0
 58 59  2  0
 59 60  1  0
 60 61  1  0
 61 62  1  0
 60 63  2  0
 55 64  2  0
 64 65  1  0
 65 66  1  0
 66 67  1  0
 67 68  1  0
 68 69  1  0
 69 70  1  0
 70 71  1  0
 71 72  1  0
 72 73  1  0
 73 74  1  0
 71 75  1  0
 75 76  1  0
 68 77  1  0
 77 78  1  0
 64 79  1  0
 79 80  1  0
 80 81  1  0
 81 82  2  0
 82 83  1  0
 83 84  2  0
 84 85  1  0
 85 86  1  0
 84 87  1  0
 87 88  1  0
 81 89  1  0
 89 90  2  3
 90 91  1  0
 91 92  2  0
 91 93  1  0
 93 94  1  0
 94 95  2  0
 95 96  1  0
 96 97  1  0
 97 98  1  0
 94 99  1  0
 99100  2  3
100101  1  0
101102  3  0
100103  1  0
103104  3  0
 11  2  1  0
 23 17  1  0
 31 24  1  0
 74 32  1  0
 88 79  2  0
 99 90  1  0
 10  5  1  0
 22 18  1  0
 41 34  1  0
 73 42  2  0
 88 82  1  0
 97 93  2  0
 23  7  1  0
 72 44  2  0
 70 45  2  0
 50 46  2  0
 69 51  2  0
 67 52  2  0
 66 54  2  0
 63 56  1  0
  1105  1  0
  6106  1  0
  9107  1  0
 17108  1  0
 18109  1  0
 19110  1  0
 20111  1  0
 21112  1  0
 22113  1  0
 22114  1  0
 23115  1  0
 25116  1  0
 28117  1  0
 28118  1  0
 29119  1  0
 29120  1  0
 29121  1  0
 35122  1  0
 36123  1  0
 37124  1  0
 39125  1  0
 39126  1  0
 40127  1  0
 40128  1  0
 40129  1  0
 41130  1  0
 57131  1  0
 58132  1  0
 59133  1  0
 61134  1  0
 61135  1  0
 62136  1  0
 62137  1  0
 62138  1  0
 63139  1  0
 75140  1  0
 75141  1  0
 76142  1  0
 76143  1  0
 76144  1  0
 77145  1  0
 77146  1  0
 78147  1  0
 78148  1  0
 78149  1  0
 83150  1  0
 85151  1  0
 85152  1  0
 86153  1  0
 86154  1  0
 86155  1  0
 89156  1  0
 95157  1  0
M  END

