
     RDKit          3D

192214  0  0  0  0  0  0  0  0999 V2000
    7.8916    4.5478   -4.5979 C   0  0  0  0  0  0  0  0  0  0  0  0
    8.2947    3.2656   -4.7738 C   0  0  0  0  0  0  0  0  0  0  0  0
    7.6702    2.1650   -5.3554 C   0  0  0  0  0  0  0  0  0  0  0  0
    6.7948    2.1912   -6.2857 O   0  0  0  0  0  0  0  0  0  0  0  0
    8.1890    0.9910   -4.7346 C   0  0  0  0  0  0  0  0  0  0  0  0
    7.8898   -0.3486   -5.0765 C   0  0  0  0  0  0  0  0  0  0  0  0
    8.5577   -1.3631   -4.4309 C   0  0  0  0  0  0  0  0  0  0  0  0
    9.4714   -1.0867   -3.4839 C   0  0  0  0  0  0  0  0  0  0  0  0
    9.7462    0.2493   -3.1672 C   0  0  0  0  0  0  0  0  0  0  0  0
    9.1091    1.3060   -3.7878 C   0  0  0  0  0  0  0  0  0  0  0  0
    9.3115    2.8585   -3.6837 C   0  0  0  0  0  0  0  0  0  0  0  0
   10.3024    3.2003   -3.1003 C   0  0  0  0  0  0  0  0  0  0  0  0
   11.2525    4.3262   -3.1042 C   0  0  0  0  0  0  0  0  0  0  0  0
   11.9650    5.1795   -3.1121 N   0  0  0  0  0  0  0  0  0  0  0  0
   10.4986    2.4877   -1.7618 C   0  0  0  0  0  0  0  0  0  0  0  0
   10.6820    1.9013   -0.6295 N   0  0  0  0  0  0  0  0  0  0  0  0
    9.6343   -2.4934   -3.2292 C   0  0  0  0  0  0  0  0  0  0  0  0
    8.7877   -3.1154   -2.1463 C   0  0  0  0  0  0  0  0  0  0  0  0
    7.4732   -2.4743   -2.1035 C   0  0  0  0  0  0  0  0  0  0  0  0
    6.7485   -2.8714   -3.1727 C   0  0  0  0  0  0  0  0  0  0  0  0
    7.6691   -3.7085   -4.0038 C   0  0  0  0  0  0  0  0  0  0  0  0
    8.3765   -4.4363   -2.8827 C   0  0  0  0  0  0  0  0  0  0  0  0
    8.7786   -2.8458   -4.4989 C   0  0  0  0  0  0  0  0  0  0  0  0
    6.5471    5.0073   -5.0081 C   0  0  0  0  0  0  0  0  0  0  0  0
    5.9436    6.1882   -4.7182 C   0  0  0  0  0  0  0  0  0  0  0  0
    4.5867    6.2785   -4.8783 C   0  0  0  0  0  0  0  0  0  0  0  0
    3.7301    7.8417   -4.4744 S   0  0  0  0  0  0  0  0  0  0  0  0
    3.4712    7.9295   -2.6852 C   0  0  0  0  0  0  0  0  0  0  0  0
    2.5720    9.1454   -2.3819 C   0  0  0  0  0  0  0  0  0  0  0  0
    3.9634    5.1818   -5.3104 C   0  0  0  0  0  0  0  0  0  0  0  0
    5.2116    4.0280   -5.5127 S   0  0  0  0  0  0  0  0  0  0  0  0
    2.5099    4.8446   -5.2914 C   0  0  0  0  0  0  0  0  0  0  0  0
    1.9071    3.6636   -5.4977 C   0  0  0  0  0  0  0  0  0  0  0  0
    0.6495    3.4227   -5.0564 C   0  0  0  0  0  0  0  0  0  0  0  0
   -0.3141    1.9087   -4.8166 S   0  0  0  0  0  0  0  0  0  0  0  0
   -1.5840    2.6565   -3.8966 C   0  0  0  0  0  0  0  0  0  0  0  0
   -2.4680    2.3385   -2.6638 C   0  0  0  0  0  0  0  0  0  0  0  0
   -2.5742    1.2027   -1.9027 C   0  0  0  0  0  0  0  0  0  0  0  0
   -2.7299    1.3864   -0.5058 C   0  0  0  0  0  0  0  0  0  0  0  0
   -2.7860    0.3943    0.6162 C   0  0  0  0  0  0  0  0  0  0  0  0
   -1.7947   -0.6772    0.3270 C   0  0  0  0  0  0  0  0  0  0  0  0
   -0.4403   -0.5172    0.5994 C   0  0  0  0  0  0  0  0  0  0  0  0
    0.4615   -1.5293    0.2761 C   0  0  0  0  0  0  0  0  0  0  0  0
    0.0444   -2.6881   -0.3095 C   0  0  0  0  0  0  0  0  0  0  0  0
    0.9657   -3.8136   -0.6967 C   0  0  0  0  0  0  0  0  0  0  0  0
    1.4408   -3.5704   -2.1266 C   0  0  0  0  0  0  0  0  0  0  0  0
   -1.3271   -2.8580   -0.5845 C   0  0  0  0  0  0  0  0  0  0  0  0
   -2.1840   -1.8434   -0.2555 C   0  0  0  0  0  0  0  0  0  0  0  0
   -4.1589   -0.1133    0.7519 C   0  0  0  0  0  0  0  0  0  0  0  0
   -4.9587   -0.2233   -0.3619 C   0  0  0  0  0  0  0  0  0  0  0  0
   -6.2559   -0.7109   -0.2596 C   0  0  0  0  0  0  0  0  0  0  0  0
   -6.7353   -1.0823    0.9914 C   0  0  0  0  0  0  0  0  0  0  0  0
   -8.1517   -1.5996    1.1203 C   0  0  0  0  0  0  0  0  0  0  0  0
   -9.0099   -0.3942    1.4149 C   0  0  0  0  0  0  0  0  0  0  0  0
   -5.9233   -0.9649    2.0842 C   0  0  0  0  0  0  0  0  0  0  0  0
   -4.6604   -0.4981    2.0237 C   0  0  0  0  0  0  0  0  0  0  0  0
   -2.3791    1.1597    1.8610 C   0  0  0  0  0  0  0  0  0  0  0  0
   -2.5610    2.4542    1.5362 C   0  0  0  0  0  0  0  0  0  0  0  0
   -2.7798    2.6040    0.0698 C   0  0  0  0  0  0  0  0  0  0  0  0
   -2.6930    3.7643   -0.6838 C   0  0  0  0  0  0  0  0  0  0  0  0
   -2.5445    3.6247   -2.0493 C   0  0  0  0  0  0  0  0  0  0  0  0
   -2.5091    4.4842   -3.2641 C   0  0  0  0  0  0  0  0  0  0  0  0
   -3.5860    3.7710   -4.1935 C   0  0  0  0  0  0  0  0  0  0  0  0
   -3.4521    3.8077   -5.5322 C   0  0  0  0  0  0  0  0  0  0  0  0
   -4.3556    3.1129   -6.3565 C   0  0  0  0  0  0  0  0  0  0  0  0
   -5.3893    2.3896   -5.8001 C   0  0  0  0  0  0  0  0  0  0  0  0
   -6.3609    1.6427   -6.6895 C   0  0  0  0  0  0  0  0  0  0  0  0
   -5.7367    0.2908   -6.9768 C   0  0  0  0  0  0  0  0  0  0  0  0
   -5.5075    2.3720   -4.4176 C   0  0  0  0  0  0  0  0  0  0  0  0
   -4.5988    3.0672   -3.6163 C   0  0  0  0  0  0  0  0  0  0  0  0
   -2.8878    5.8596   -3.2071 C   0  0  0  0  0  0  0  0  0  0  0  0
   -2.3652    6.8085   -4.0365 C   0  0  0  0  0  0  0  0  0  0  0  0
   -2.8259    8.1210   -4.0190 C   0  0  0  0  0  0  0  0  0  0  0  0
   -3.8140    8.4766   -3.1617 C   0  0  0  0  0  0  0  0  0  0  0  0
   -4.3702    9.8736   -3.1580 C   0  0  0  0  0  0  0  0  0  0  0  0
   -3.6726   10.7800   -2.1729 C   0  0  0  0  0  0  0  0  0  0  0  0
   -4.3417    7.5167   -2.3163 C   0  0  0  0  0  0  0  0  0  0  0  0
   -3.8848    6.2125   -2.3285 C   0  0  0  0  0  0  0  0  0  0  0  0
   -1.2602    3.9946   -3.8411 C   0  0  0  0  0  0  0  0  0  0  0  0
   -0.1251    4.2125   -4.4339 C   0  0  0  0  0  0  0  0  0  0  0  0
    1.2360    5.8698   -4.4029 Se  0  0  0  0  0  2  0  0  0  0  0  0
   -2.0925    3.2480    2.9707 S   0  0  0  0  0  0  0  0  0  0  0  0
   -1.6640    1.8714    3.9543 C   0  0  0  0  0  0  0  0  0  0  0  0
   -1.1361    1.5822    5.1644 C   0  0  0  0  0  0  0  0  0  0  0  0
   -0.7730    0.6878    5.8462 C   0  0  0  0  0  0  0  0  0  0  0  0
   -1.3898   -0.6475    4.0903 Se  0  0  0  0  0  2  0  0  0  0  0  0
   -1.9130    0.8854    3.1172 C   0  0  0  0  0  0  0  0  0  0  0  0
   -0.2642   -0.3478    6.7501 C   0  0  0  0  0  0  0  0  0  0  0  0
    0.9810   -0.3531    7.3636 C   0  0  0  0  0  0  0  0  0  0  0  0
    1.3432   -1.5157    7.9672 C   0  0  0  0  0  0  0  0  0  0  0  0
    3.0010   -1.7475    8.6627 S   0  0  0  0  0  0  0  0  0  0  0  0
    3.9898   -2.7037    7.4731 C   0  0  0  0  0  0  0  0  0  0  0  0
    4.1954   -2.0280    6.1717 C   0  0  0  0  0  0  0  0  0  0  0  0
    0.4592   -2.5550    7.9322 C   0  0  0  0  0  0  0  0  0  0  0  0
   -0.8176   -1.8995    7.0828 S   0  0  0  0  0  0  0  0  0  0  0  0
    0.6781   -4.0084    8.1728 C   0  0  0  0  0  0  0  0  0  0  0  0
   -0.1825   -4.9019    7.6583 C   0  0  0  0  0  0  0  0  0  0  0  0
   -1.3921   -4.7012    6.9067 C   0  0  0  0  0  0  0  0  0  0  0  0
   -2.1909   -3.7212    6.9711 O   0  0  0  0  0  0  0  0  0  0  0  0
   -1.6235   -5.8319    5.9951 C   0  0  0  0  0  0  0  0  0  0  0  0
   -2.6806   -6.0126    5.1138 C   0  0  0  0  0  0  0  0  0  0  0  0
   -2.7224   -7.1781    4.3445 C   0  0  0  0  0  0  0  0  0  0  0  0
   -1.7372   -8.0948    4.4737 C   0  0  0  0  0  0  0  0  0  0  0  0
   -0.6818   -7.8850    5.3611 C   0  0  0  0  0  0  0  0  0  0  0  0
   -0.6127   -6.7436    6.1361 C   0  0  0  0  0  0  0  0  0  0  0  0
    0.3596   -6.2401    7.1813 C   0  0  0  0  0  0  0  0  0  0  0  0
    1.3021   -6.9369    7.7200 C   0  0  0  0  0  0  0  0  0  0  0  0
    1.7670   -8.2267    7.0955 C   0  0  0  0  0  0  0  0  0  0  0  0
    2.0808   -9.1114    6.6629 N   0  0  0  0  0  0  0  0  0  0  0  0
    1.8379   -6.6362    9.0532 C   0  0  0  0  0  0  0  0  0  0  0  0
    2.2650   -6.4009   10.0918 N   0  0  0  0  0  0  0  0  0  0  0  0
   -2.3411   -9.0333    3.4737 C   0  0  0  0  0  0  0  0  0  0  0  0
   -3.0268  -10.1713    4.2226 C   0  0  0  0  0  0  0  0  0  0  0  0
   -4.0304  -10.7242    3.2757 C   0  0  0  0  0  0  0  0  0  0  0  0
   -5.0198   -9.8049    3.1296 C   0  0  0  0  0  0  0  0  0  0  0  0
   -4.6663   -8.6407    3.9611 C   0  0  0  0  0  0  0  0  0  0  0  0
   -3.9481   -9.3275    5.1220 C   0  0  0  0  0  0  0  0  0  0  0  0
   -3.4551   -7.9897    3.3324 C   0  0  0  0  0  0  0  0  0  0  0  0
    8.5352    5.2957   -4.1427 H   0  0  0  0  0  0  0  0  0  0  0  0
    7.1454   -0.5419   -5.8338 H   0  0  0  0  0  0  0  0  0  0  0  0
   10.5136    0.3939   -2.4336 H   0  0  0  0  0  0  0  0  0  0  0  0
   10.6508   -2.9203   -3.2921 H   0  0  0  0  0  0  0  0  0  0  0  0
    9.2739   -3.2880   -1.2215 H   0  0  0  0  0  0  0  0  0  0  0  0
    7.1109   -1.7807   -1.3365 H   0  0  0  0  0  0  0  0  0  0  0  0
    5.6937   -2.6718   -3.4116 H   0  0  0  0  0  0  0  0  0  0  0  0
    7.2078   -4.3400   -4.7149 H   0  0  0  0  0  0  0  0  0  0  0  0
    7.7514   -5.0185   -2.2429 H   0  0  0  0  0  0  0  0  0  0  0  0
    9.3159   -4.9293   -3.2492 H   0  0  0  0  0  0  0  0  0  0  0  0
    9.3752   -3.2140   -5.3379 H   0  0  0  0  0  0  0  0  0  0  0  0
    6.5855    7.0443   -4.3626 H   0  0  0  0  0  0  0  0  0  0  0  0
    2.9397    7.0300   -2.2964 H   0  0  0  0  0  0  0  0  0  0  0  0
    4.4235    8.1253   -2.1237 H   0  0  0  0  0  0  0  0  0  0  0  0
    1.9572    9.4381   -3.2619 H   0  0  0  0  0  0  0  0  0  0  0  0
    3.0489    9.9713   -1.9575 H   0  0  0  0  0  0  0  0  0  0  0  0
    1.7491    8.8320   -1.6385 H   0  0  0  0  0  0  0  0  0  0  0  0
    2.5039    2.8714   -6.0423 H   0  0  0  0  0  0  0  0  0  0  0  0
   -2.5162    0.2692   -2.3799 H   0  0  0  0  0  0  0  0  0  0  0  0
   -0.0383    0.3608    1.0508 H   0  0  0  0  0  0  0  0  0  0  0  0
    1.4988   -1.3673    0.4800 H   0  0  0  0  0  0  0  0  0  0  0  0
    1.7845   -3.8391    0.0253 H   0  0  0  0  0  0  0  0  0  0  0  0
    0.4256   -4.7737   -0.5962 H   0  0  0  0  0  0  0  0  0  0  0  0
    0.7222   -3.9477   -2.8396 H   0  0  0  0  0  0  0  0  0  0  0  0
    2.4277   -4.0375   -2.2037 H   0  0  0  0  0  0  0  0  0  0  0  0
    1.5300   -2.4990   -2.2610 H   0  0  0  0  0  0  0  0  0  0  0  0
   -1.6785   -3.7615   -1.0497 H   0  0  0  0  0  0  0  0  0  0  0  0
   -3.2249   -2.0519   -0.4957 H   0  0  0  0  0  0  0  0  0  0  0  0
   -4.6258    0.0540   -1.3466 H   0  0  0  0  0  0  0  0  0  0  0  0
   -6.9024   -0.8074   -1.0932 H   0  0  0  0  0  0  0  0  0  0  0  0
   -8.4636   -2.1073    0.1742 H   0  0  0  0  0  0  0  0  0  0  0  0
   -8.2443   -2.3282    1.9432 H   0  0  0  0  0  0  0  0  0  0  0  0
   -9.3411   -0.3669    2.4602 H   0  0  0  0  0  0  0  0  0  0  0  0
   -9.9074   -0.4168    0.7741 H   0  0  0  0  0  0  0  0  0  0  0  0
   -8.4512    0.5595    1.2445 H   0  0  0  0  0  0  0  0  0  0  0  0
   -6.3538   -1.2729    3.0508 H   0  0  0  0  0  0  0  0  0  0  0  0
   -4.0760   -0.4217    2.9086 H   0  0  0  0  0  0  0  0  0  0  0  0
   -2.7303    4.7110   -0.2149 H   0  0  0  0  0  0  0  0  0  0  0  0
   -2.6221    4.3604   -5.9968 H   0  0  0  0  0  0  0  0  0  0  0  0
   -4.2302    3.1525   -7.4193 H   0  0  0  0  0  0  0  0  0  0  0  0
   -7.2142    1.4250   -5.9949 H   0  0  0  0  0  0  0  0  0  0  0  0
   -6.6445    2.2134   -7.5912 H   0  0  0  0  0  0  0  0  0  0  0  0
   -6.4861   -0.4824   -7.2933 H   0  0  0  0  0  0  0  0  0  0  0  0
   -4.9253    0.4497   -7.7274 H   0  0  0  0  0  0  0  0  0  0  0  0
   -5.2676   -0.1212   -6.0539 H   0  0  0  0  0  0  0  0  0  0  0  0
   -6.3348    1.8170   -4.0321 H   0  0  0  0  0  0  0  0  0  0  0  0
   -4.7618    3.0039   -2.5573 H   0  0  0  0  0  0  0  0  0  0  0  0
   -1.5817    6.6352   -4.7928 H   0  0  0  0  0  0  0  0  0  0  0  0
   -2.4104    8.8771   -4.7092 H   0  0  0  0  0  0  0  0  0  0  0  0
   -5.4736    9.7891   -2.9425 H   0  0  0  0  0  0  0  0  0  0  0  0
   -4.2797   10.2390   -4.1645 H   0  0  0  0  0  0  0  0  0  0  0  0
   -3.5220   10.3282   -1.2047 H   0  0  0  0  0  0  0  0  0  0  0  0
   -2.7501   11.1817   -2.6463 H   0  0  0  0  0  0  0  0  0  0  0  0
   -4.3635   11.6676   -1.9858 H   0  0  0  0  0  0  0  0  0  0  0  0
   -5.1369    7.8047   -1.6294 H   0  0  0  0  0  0  0  0  0  0  0  0
   -4.3452    5.5127   -1.6575 H   0  0  0  0  0  0  0  0  0  0  0  0
   -0.9547    2.6663    5.8084 H   0  0  0  0  0  0  0  0  0  0  0  0
    1.6091    0.5656    7.3047 H   0  0  0  0  0  0  0  0  0  0  0  0
    4.9831   -2.9515    7.9050 H   0  0  0  0  0  0  0  0  0  0  0  0
    3.4676   -3.6900    7.2962 H   0  0  0  0  0  0  0  0  0  0  0  0
    4.8825   -2.7481    5.5923 H   0  0  0  0  0  0  0  0  0  0  0  0
    4.7549   -1.0671    6.2136 H   0  0  0  0  0  0  0  0  0  0  0  0
    3.2676   -1.9542    5.5775 H   0  0  0  0  0  0  0  0  0  0  0  0
    1.4937   -4.2937    8.7378 H   0  0  0  0  0  0  0  0  0  0  0  0
   -3.4774   -5.3183    4.9737 H   0  0  0  0  0  0  0  0  0  0  0  0
    0.0470   -8.6363    5.4328 H   0  0  0  0  0  0  0  0  0  0  0  0
   -1.7693   -9.2735    2.5781 H   0  0  0  0  0  0  0  0  0  0  0  0
   -2.3712  -10.8360    4.7358 H   0  0  0  0  0  0  0  0  0  0  0  0
   -4.0672  -11.6698    2.7767 H   0  0  0  0  0  0  0  0  0  0  0  0
   -5.9022   -9.8703    2.5345 H   0  0  0  0  0  0  0  0  0  0  0  0
   -5.4528   -7.9666    4.2223 H   0  0  0  0  0  0  0  0  0  0  0  0
   -3.3787   -8.6159    5.7158 H   0  0  0  0  0  0  0  0  0  0  0  0
   -4.6136   -9.9726    5.7095 H   0  0  0  0  0  0  0  0  0  0  0  0
   -3.5764   -7.5238    2.3668 H   0  0  0  0  0  0  0  0  0  0  0  0
  1  2  2  3
  2  3  1  0
  3  4  2  0
  3  5  1  0
  5  6  2  0
  6  7  1  0
  7  8  2  0
  8  9  1  0
  9 10  2  0
 10 11  1  0
 11 12  2  3
 12 13  1  0
 13 14  3  0
 12 15  1  0
 15 16  3  0
  8 17  1  0
 17 18  1  0
 18 19  1  0
 19 20  2  0
 20 21  1  0
 21 22  1  0
 21 23  1  0
  1 24  1  0
 24 25  2  0
 25 26  1  0
 26 27  1  0
 27 28  1  0
 28 29  1  0
 26 30  2  0
 30 31  1  0
 30 32  1  0
 32 33  2  0
 33 34  1  0
 34 35  1  0
 35 36  1  0
 36 37  1  0
 37 38  2  0
 38 39  1  0
 39 40  1  0
 40 41  1  0
 41 42  2  0
 42 43  1  0
 43 44  2  0
 44 45  1  0
 45 46  1  0
 44 47  1  0
 47 48  2  0
 40 49  1  0
 49 50  2  0
 50 51  1  0
 51 52  2  0
 52 53  1  0
 53 54  1  0
 52 55  1  0
 55 56  2  0
 40 57  1  0
 57 58  2  0
 58 59  1  0
 59 60  1  0
 60 61  2  0
 61 62  1  0
 62 63  1  0
 63 64  2  0
 64 65  1  0
 65 66  2  0
 66 67  1  0
 67 68  1  0
 66 69  1  0
 69 70  2  0
 62 71  1  0
 71 72  2  0
 72 73  1  0
 73 74  2  0
 74 75  1  0
 75 76  1  0
 74 77  1  0
 77 78  2  0
 62 79  1  0
 79 80  1  0
 80 81  1  0
 58 82  1  0
 82 83  1  0
 83 84  1  0
 84 85  2  0
 85 86  1  0
 86 87  1  0
 85 88  1  0
 88 89  2  0
 89 90  1  0
 90 91  1  0
 91 92  1  0
 92 93  1  0
 90 94  2  0
 94 95  1  0
 94 96  1  0
 96 97  2  3
 97 98  1  0
 98 99  2  0
 98100  1  0
100101  2  0
101102  1  0
102103  2  0
103104  1  0
104105  2  0
105106  1  0
106107  2  3
107108  1  0
108109  3  0
107110  1  0
110111  3  0
103112  1  0
112113  1  0
113114  1  0
114115  2  0
115116  1  0
116117  1  0
116118  1  0
 11  2  1  0
 23 17  1  0
 31 24  1  0
 81 32  1  0
 87 83  2  0
 95 88  1  0
106 97  1  0
118112  1  0
 10  5  1  0
 22 18  1  0
 80 34  2  0
105100  1  0
117113  1  0
 23  7  1  0
 79 36  2  0
118102  1  0
 61 37  1  0
 70 63  1  0
 78 71  1  0
 59 39  2  0
 48 41  1  0
 56 49  1  0
 87 57  1  0
  1119  1  0
  6120  1  0
  9121  1  0
 17122  1  0
 18123  1  0
 19124  1  0
 20125  1  0
 21126  1  0
 22127  1  0
 22128  1  0
 23129  1  0
 25130  1  0
 28131  1  0
 28132  1  0
 29133  1  0
 29134  1  0
 29135  1  0
 33136  1  0
 38137  1  0
 42138  1  0
 43139  1  0
 45140  1  0
 45141  1  0
 46142  1  0
 46143  1  0
 46144  1  0
 47145  1  0
 48146  1  0
 50147  1  0
 51148  1  0
 53149  1  0
 53150  1  0
 54151  1  0
 54152  1  0
 54153  1  0
 55154  1  0
 56155  1  0
 60156  1  0
 64157  1  0
 65158  1  0
 67159  1  0
 67160  1  0
 68161  1  0
 68162  1  0
 68163  1  0
 69164  1  0
 70165  1  0
 72166  1  0
 73167  1  0
 75168  1  0
 75169  1  0
 76170  1  0
 76171  1  0
 76172  1  0
 77173  1  0
 78174  1  0
 84175  1  0
 89176  1  0
 92177  1  0
 92178  1  0
 93179  1  0
 93180  1  0
 93181  1  0
 96182  1  0
101183  1  0
104184  1  0
112185  1  0
113186  1  0
114187  1  0
115188  1  0
116189  1  0
117190  1  0
117191  1  0
118192  1  0
M  END

