
     RDKit          3D

210234  0  0  0  0  0  0  0  0999 V2000
  -12.9552    1.0823   -1.8836 C   0  0  0  0  0  0  0  0  0  0  0  0
  -13.2995    1.5176   -0.6613 C   0  0  0  0  0  0  0  0  0  0  0  0
  -13.5503    0.5995    0.4547 C   0  0  0  0  0  0  0  0  0  0  0  0
  -13.8964   -0.6026    0.3396 O   0  0  0  0  0  0  0  0  0  0  0  0
  -13.4292    1.3189    1.6988 C   0  0  0  0  0  0  0  0  0  0  0  0
  -13.5614    0.7854    3.0033 C   0  0  0  0  0  0  0  0  0  0  0  0
  -13.3655    1.7123    4.0034 C   0  0  0  0  0  0  0  0  0  0  0  0
  -13.0705    3.0931    3.7495 C   0  0  0  0  0  0  0  0  0  0  0  0
  -12.9447    3.6194    2.4753 C   0  0  0  0  0  0  0  0  0  0  0  0
  -13.0881    2.6707    1.4226 C   0  0  0  0  0  0  0  0  0  0  0  0
  -12.8802    2.8327   -0.0526 C   0  0  0  0  0  0  0  0  0  0  0  0
  -12.0833    3.7842   -0.6334 C   0  0  0  0  0  0  0  0  0  0  0  0
  -11.5423    3.6111   -1.9607 C   0  0  0  0  0  0  0  0  0  0  0  0
  -11.0608    3.4092   -2.9939 N   0  0  0  0  0  0  0  0  0  0  0  0
  -11.4656    4.8405    0.1247 C   0  0  0  0  0  0  0  0  0  0  0  0
  -10.9404    5.6821    0.7270 N   0  0  0  0  0  0  0  0  0  0  0  0
  -13.0249    3.3679    5.2256 C   0  0  0  0  0  0  0  0  0  0  0  0
  -14.2270    4.1112    5.8791 C   0  0  0  0  0  0  0  0  0  0  0  0
  -15.5036    3.7915    5.1345 C   0  0  0  0  0  0  0  0  0  0  0  0
  -15.7619    2.5049    5.3610 C   0  0  0  0  0  0  0  0  0  0  0  0
  -14.6620    1.9922    6.2615 C   0  0  0  0  0  0  0  0  0  0  0  0
  -14.4377    3.2339    7.1018 C   0  0  0  0  0  0  0  0  0  0  0  0
  -13.3136    1.9551    5.4814 C   0  0  0  0  0  0  0  0  0  0  0  0
  -11.7714    0.2153   -2.0248 C   0  0  0  0  0  0  0  0  0  0  0  0
  -11.2320   -0.2508   -3.2196 C   0  0  0  0  0  0  0  0  0  0  0  0
   -9.9023   -0.7052   -3.1035 C   0  0  0  0  0  0  0  0  0  0  0  0
   -9.0053   -1.3671   -4.5153 S   0  0  0  0  0  0  0  0  0  0  0  0
   -8.4096    0.2484   -5.1274 C   0  0  0  0  0  0  0  0  0  0  0  0
   -9.4600    0.9409   -5.9870 C   0  0  0  0  0  0  0  0  0  0  0  0
   -9.3845   -0.6055   -1.8012 C   0  0  0  0  0  0  0  0  0  0  0  0
  -10.5875    0.0691   -0.8484 S   0  0  0  0  0  0  0  0  0  0  0  0
   -7.9967   -0.8049   -1.3129 C   0  0  0  0  0  0  0  0  0  0  0  0
   -7.6254   -0.8820    0.0477 C   0  0  0  0  0  0  0  0  0  0  0  0
   -8.5554   -1.0278    1.1834 C   0  0  0  0  0  0  0  0  0  0  0  0
   -8.7698    0.0408    2.0723 C   0  0  0  0  0  0  0  0  0  0  0  0
   -9.6851   -0.0906    3.1220 C   0  0  0  0  0  0  0  0  0  0  0  0
  -10.3666   -1.2989    3.3108 C   0  0  0  0  0  0  0  0  0  0  0  0
  -10.1597   -2.3743    2.4326 C   0  0  0  0  0  0  0  0  0  0  0  0
  -10.8260   -3.7011    2.6828 C   0  0  0  0  0  0  0  0  0  0  0  0
   -9.9105   -4.6122    3.4963 C   0  0  0  0  0  0  0  0  0  0  0  0
   -9.2547   -2.2321    1.3667 C   0  0  0  0  0  0  0  0  0  0  0  0
   -6.2515   -0.7336    0.2172 C   0  0  0  0  0  0  0  0  0  0  0  0
   -5.3148   -0.4302    1.5997 S   0  0  0  0  0  0  0  0  0  0  0  0
   -3.9452   -0.1684    0.6421 C   0  0  0  0  0  0  0  0  0  0  0  0
   -2.7935    0.5521    0.7832 C   0  0  0  0  0  0  0  0  0  0  0  0
   -2.3234    1.2854    1.8769 C   0  0  0  0  0  0  0  0  0  0  0  0
   -1.2674    2.2225    1.6719 C   0  0  0  0  0  0  0  0  0  0  0  0
   -0.8437    2.9164    2.7573 N   0  0  0  0  0  0  0  0  0  0  0  0
   -1.8724    2.3001    3.9025 S   0  0  0  0  0  0  0  0  0  0  0  0
   -2.8307    1.1910    3.1300 N   0  0  0  0  0  0  0  0  0  0  0  0
   -0.7082    2.3456    0.3952 C   0  0  0  0  0  0  0  0  0  0  0  0
    0.4914    2.8838    0.0196 C   0  0  0  0  0  0  0  0  0  0  0  0
    1.8439    3.4881    0.8533 S   0  0  0  0  0  0  0  0  0  0  0  0
    2.8837    3.0212   -0.4078 C   0  0  0  0  0  0  0  0  0  0  0  0
    4.2757    2.9049   -0.4687 C   0  0  0  0  0  0  0  0  0  0  0  0
    5.1993    3.6561    0.4039 C   0  0  0  0  0  0  0  0  0  0  0  0
    5.1241    5.0582    0.4105 C   0  0  0  0  0  0  0  0  0  0  0  0
    6.0482    5.8112    1.1336 C   0  0  0  0  0  0  0  0  0  0  0  0
    7.0534    5.1750    1.8668 C   0  0  0  0  0  0  0  0  0  0  0  0
    7.1213    3.7702    1.9017 C   0  0  0  0  0  0  0  0  0  0  0  0
    8.2098    3.0895    2.6964 C   0  0  0  0  0  0  0  0  0  0  0  0
    8.0361    3.3195    4.1978 C   0  0  0  0  0  0  0  0  0  0  0  0
    6.1919    3.0143    1.1613 C   0  0  0  0  0  0  0  0  0  0  0  0
    4.6633    2.0970   -1.5533 C   0  0  0  0  0  0  0  0  0  0  0  0
    3.2810    1.5485   -2.3819 S   0  0  0  0  0  0  0  0  0  0  0  0
    2.1955    2.3637   -1.3982 C   0  0  0  0  0  0  0  0  0  0  0  0
    0.8209    2.3063   -1.1708 C   0  0  0  0  0  0  0  0  0  0  0  0
   -0.1514    1.4728   -1.6323 N   0  0  0  0  0  0  0  0  0  0  0  0
   -1.1377    1.5525   -0.6838 C   0  0  0  0  0  0  0  0  0  0  0  0
   -2.2976    0.7364   -0.5148 C   0  0  0  0  0  0  0  0  0  0  0  0
   -3.1953    0.2743   -1.4483 N   0  0  0  0  0  0  0  0  0  0  0  0
   -4.1885   -0.2761   -0.6919 C   0  0  0  0  0  0  0  0  0  0  0  0
   -5.5305   -0.5747   -0.9386 C   0  0  0  0  0  0  0  0  0  0  0  0
   -6.5867   -0.5466   -2.2443 S   0  0  0  0  0  0  0  0  0  0  0  0
   -3.3644    0.7350   -2.8324 C   0  0  0  0  0  0  0  0  0  0  0  0
   -3.3975   -0.4453   -3.8133 C   0  0  0  0  0  0  0  0  0  0  0  0
    0.0939    0.3771   -2.5788 C   0  0  0  0  0  0  0  0  0  0  0  0
    0.6211   -0.8636   -1.8616 C   0  0  0  0  0  0  0  0  0  0  0  0
    5.9424    1.3950   -1.6705 C   0  0  0  0  0  0  0  0  0  0  0  0
    6.1884    0.2089   -0.9919 C   0  0  0  0  0  0  0  0  0  0  0  0
    7.2017   -0.5639   -1.5732 C   0  0  0  0  0  0  0  0  0  0  0  0
    7.5616   -1.8626   -1.1758 C   0  0  0  0  0  0  0  0  0  0  0  0
    7.0423   -2.4520    0.0634 C   0  0  0  0  0  0  0  0  0  0  0  0
    6.1548   -3.5164    0.1716 C   0  0  0  0  0  0  0  0  0  0  0  0
    5.8532   -3.8388    1.4997 C   0  0  0  0  0  0  0  0  0  0  0  0
    6.4619   -3.0044    2.4379 C   0  0  0  0  0  0  0  0  0  0  0  0
    6.5718   -3.3215    3.8639 C   0  0  0  0  0  0  0  0  0  0  0  0
    6.0940   -2.5934    4.8827 C   0  0  0  0  0  0  0  0  0  0  0  0
    5.3942   -1.2891    4.8186 C   0  0  0  0  0  0  0  0  0  0  0  0
    5.6280   -0.2091    3.9672 C   0  0  0  0  0  0  0  0  0  0  0  0
    4.9433    0.9551    4.3333 C   0  0  0  0  0  0  0  0  0  0  0  0
    4.1728    0.7999    5.4725 C   0  0  0  0  0  0  0  0  0  0  0  0
    3.3915    2.1325    6.3839 S   0  0  0  0  0  0  0  0  0  0  0  0
    2.0718    2.4127    5.1607 C   0  0  0  0  0  0  0  0  0  0  0  0
    1.2902    3.6633    5.5475 C   0  0  0  0  0  0  0  0  0  0  0  0
    4.3483   -0.7678    6.0349 S   0  0  0  0  0  0  0  0  0  0  0  0
    7.4718   -1.9444    1.6051 S   0  0  0  0  0  0  0  0  0  0  0  0
    8.4293   -2.5661   -2.0207 C   0  0  0  0  0  0  0  0  0  0  0  0
    9.0046   -1.9851   -3.1538 C   0  0  0  0  0  0  0  0  0  0  0  0
    8.7395   -0.6390   -3.4936 C   0  0  0  0  0  0  0  0  0  0  0  0
    9.5790    0.0736   -4.4831 C   0  0  0  0  0  0  0  0  0  0  0  0
    9.1883    1.0590   -5.3857 C   0  0  0  0  0  0  0  0  0  0  0  0
   10.2684    1.6953   -6.0176 C   0  0  0  0  0  0  0  0  0  0  0  0
   11.5098    1.2361   -5.5884 C   0  0  0  0  0  0  0  0  0  0  0  0
   12.8120    1.7080   -6.0934 C   0  0  0  0  0  0  0  0  0  0  0  0
   13.9601    1.7097   -5.3963 C   0  0  0  0  0  0  0  0  0  0  0  0
   14.0832    1.4637   -3.9451 C   0  0  0  0  0  0  0  0  0  0  0  0
   15.1515    0.8037   -3.3392 C   0  0  0  0  0  0  0  0  0  0  0  0
   15.0715    0.7872   -1.9417 C   0  0  0  0  0  0  0  0  0  0  0  0
   13.9611    1.4576   -1.4508 C   0  0  0  0  0  0  0  0  0  0  0  0
   13.5436    1.6493    0.2770 S   0  0  0  0  0  0  0  0  0  0  0  0
   12.4936    0.1538    0.3217 C   0  0  0  0  0  0  0  0  0  0  0  0
   12.0137   -0.0940    1.7457 C   0  0  0  0  0  0  0  0  0  0  0  0
   13.0878    2.0944   -2.7359 S   0  0  0  0  0  0  0  0  0  0  0  0
   11.2591   -0.0149   -4.4940 S   0  0  0  0  0  0  0  0  0  0  0  0
    7.7690    0.0240   -2.7106 C   0  0  0  0  0  0  0  0  0  0  0  0
    6.9875    1.4946   -2.9909 S   0  0  0  0  0  0  0  0  0  0  0  0
    9.7313   -2.9022   -3.9296 C   0  0  0  0  0  0  0  0  0  0  0  0
    9.7181   -4.1903   -3.4012 C   0  0  0  0  0  0  0  0  0  0  0  0
    8.8248   -4.1964   -1.9679 S   0  0  0  0  0  0  0  0  0  0  0  0
   10.0210   -5.3958   -4.1792 C   0  0  0  0  0  0  0  0  0  0  0  0
    9.1374   -5.9118   -5.0560 C   0  0  0  0  0  0  0  0  0  0  0  0
    7.8221   -5.3479   -5.3975 C   0  0  0  0  0  0  0  0  0  0  0  0
    7.1894   -4.4893   -4.7320 O   0  0  0  0  0  0  0  0  0  0  0  0
    7.3691   -5.9513   -6.6416 C   0  0  0  0  0  0  0  0  0  0  0  0
    6.2643   -5.6137   -7.4299 C   0  0  0  0  0  0  0  0  0  0  0  0
    5.0588   -4.4672   -6.8503 Cl  0  0  0  0  0  0  0  0  0  0  0  0
    6.1462   -6.2065   -8.7019 C   0  0  0  0  0  0  0  0  0  0  0  0
    4.7558   -5.8288   -9.7233 Cl  0  0  0  0  0  0  0  0  0  0  0  0
    7.1650   -7.0598   -9.1856 C   0  0  0  0  0  0  0  0  0  0  0  0
    7.0728   -7.6949  -10.8291 Cl  0  0  0  0  0  0  0  0  0  0  0  0
    8.2763   -7.3756   -8.3727 C   0  0  0  0  0  0  0  0  0  0  0  0
    9.6811   -8.1892   -9.0658 Cl  0  0  0  0  0  0  0  0  0  0  0  0
    8.3087   -6.8775   -7.0564 C   0  0  0  0  0  0  0  0  0  0  0  0
    9.3507   -7.0411   -6.0037 C   0  0  0  0  0  0  0  0  0  0  0  0
    9.9522   -8.2123   -5.6810 C   0  0  0  0  0  0  0  0  0  0  0  0
    9.5173   -9.4576   -6.2741 C   0  0  0  0  0  0  0  0  0  0  0  0
    9.1353  -10.4496   -6.7219 N   0  0  0  0  0  0  0  0  0  0  0  0
   10.8258   -8.3415   -4.5450 C   0  0  0  0  0  0  0  0  0  0  0  0
   11.5221   -8.4551   -3.6264 N   0  0  0  0  0  0  0  0  0  0  0  0
  -13.1403    1.7267   -2.7307 H   0  0  0  0  0  0  0  0  0  0  0  0
  -13.7902   -0.2540    3.2013 H   0  0  0  0  0  0  0  0  0  0  0  0
  -12.7622    4.6724    2.3355 H   0  0  0  0  0  0  0  0  0  0  0  0
  -12.0253    3.6883    5.5919 H   0  0  0  0  0  0  0  0  0  0  0  0
  -14.0645    5.1892    6.0927 H   0  0  0  0  0  0  0  0  0  0  0  0
  -16.1304    4.4773    4.5760 H   0  0  0  0  0  0  0  0  0  0  0  0
  -16.6390    1.9614    5.0251 H   0  0  0  0  0  0  0  0  0  0  0  0
  -14.9041    1.0719    6.8292 H   0  0  0  0  0  0  0  0  0  0  0  0
  -15.3263    3.5227    7.7136 H   0  0  0  0  0  0  0  0  0  0  0  0
  -13.5428    3.1640    7.7660 H   0  0  0  0  0  0  0  0  0  0  0  0
  -12.4851    1.4275    5.9960 H   0  0  0  0  0  0  0  0  0  0  0  0
  -11.7739   -0.2157   -4.1620 H   0  0  0  0  0  0  0  0  0  0  0  0
   -8.1198    0.9111   -4.2845 H   0  0  0  0  0  0  0  0  0  0  0  0
   -7.5097    0.0657   -5.7496 H   0  0  0  0  0  0  0  0  0  0  0  0
  -10.2745    1.3432   -5.3512 H   0  0  0  0  0  0  0  0  0  0  0  0
   -9.8836    0.2365   -6.7335 H   0  0  0  0  0  0  0  0  0  0  0  0
   -8.9910    1.7894   -6.5324 H   0  0  0  0  0  0  0  0  0  0  0  0
   -8.2391    0.9748    1.9382 H   0  0  0  0  0  0  0  0  0  0  0  0
   -9.8544    0.7386    3.7987 H   0  0  0  0  0  0  0  0  0  0  0  0
  -11.0519   -1.3937    4.1460 H   0  0  0  0  0  0  0  0  0  0  0  0
  -11.0726   -4.1907    1.7176 H   0  0  0  0  0  0  0  0  0  0  0  0
  -11.7844   -3.5568    3.2319 H   0  0  0  0  0  0  0  0  0  0  0  0
   -8.9675   -4.8029    2.9408 H   0  0  0  0  0  0  0  0  0  0  0  0
  -10.4185   -5.5818    3.6795 H   0  0  0  0  0  0  0  0  0  0  0  0
   -9.6674   -4.1428    4.4748 H   0  0  0  0  0  0  0  0  0  0  0  0
   -9.0881   -3.0557    0.6871 H   0  0  0  0  0  0  0  0  0  0  0  0
    4.3703    5.5697   -0.1767 H   0  0  0  0  0  0  0  0  0  0  0  0
    5.9986    6.8938    1.1130 H   0  0  0  0  0  0  0  0  0  0  0  0
    7.7729    5.7754    2.4079 H   0  0  0  0  0  0  0  0  0  0  0  0
    9.1970    3.4896    2.3754 H   0  0  0  0  0  0  0  0  0  0  0  0
    8.2138    1.9935    2.5038 H   0  0  0  0  0  0  0  0  0  0  0  0
    8.0521    4.4051    4.4385 H   0  0  0  0  0  0  0  0  0  0  0  0
    8.8673    2.8261    4.7455 H   0  0  0  0  0  0  0  0  0  0  0  0
    7.0757    2.8891    4.5476 H   0  0  0  0  0  0  0  0  0  0  0  0
    6.2431    1.9352    1.1761 H   0  0  0  0  0  0  0  0  0  0  0  0
   -2.5558    1.4376   -3.1159 H   0  0  0  0  0  0  0  0  0  0  0  0
   -4.3099    1.3063   -2.9189 H   0  0  0  0  0  0  0  0  0  0  0  0
   -3.3730   -0.0637   -4.8545 H   0  0  0  0  0  0  0  0  0  0  0  0
   -4.3229   -1.0352   -3.6886 H   0  0  0  0  0  0  0  0  0  0  0  0
   -2.5400   -1.1289   -3.6557 H   0  0  0  0  0  0  0  0  0  0  0  0
   -0.8193    0.1137   -3.1173 H   0  0  0  0  0  0  0  0  0  0  0  0
    0.8113    0.6993   -3.3629 H   0  0  0  0  0  0  0  0  0  0  0  0
    0.8115   -1.6669   -2.6062 H   0  0  0  0  0  0  0  0  0  0  0  0
    1.5712   -0.6350   -1.3335 H   0  0  0  0  0  0  0  0  0  0  0  0
   -0.1243   -1.2274   -1.1227 H   0  0  0  0  0  0  0  0  0  0  0  0
    5.5682   -0.1369   -0.1749 H   0  0  0  0  0  0  0  0  0  0  0  0
    5.7555   -4.0528   -0.6797 H   0  0  0  0  0  0  0  0  0  0  0  0
    5.2339   -4.6830    1.7776 H   0  0  0  0  0  0  0  0  0  0  0  0
    6.9781   -4.3003    4.1035 H   0  0  0  0  0  0  0  0  0  0  0  0
    6.1530   -3.0422    5.8675 H   0  0  0  0  0  0  0  0  0  0  0  0
    6.3401   -0.2030    3.1633 H   0  0  0  0  0  0  0  0  0  0  0  0
    5.0465    1.8947    3.8078 H   0  0  0  0  0  0  0  0  0  0  0  0
    2.5200    2.5670    4.1568 H   0  0  0  0  0  0  0  0  0  0  0  0
    1.3909    1.5372    5.1264 H   0  0  0  0  0  0  0  0  0  0  0  0
    0.5880    3.9335    4.7350 H   0  0  0  0  0  0  0  0  0  0  0  0
    1.9830    4.5163    5.7057 H   0  0  0  0  0  0  0  0  0  0  0  0
    0.7120    3.4792    6.4755 H   0  0  0  0  0  0  0  0  0  0  0  0
    8.1552    1.3273   -5.5812 H   0  0  0  0  0  0  0  0  0  0  0  0
   10.1444    2.4830   -6.7514 H   0  0  0  0  0  0  0  0  0  0  0  0
   12.8478    2.0341   -7.1243 H   0  0  0  0  0  0  0  0  0  0  0  0
   14.8738    1.9434   -5.9266 H   0  0  0  0  0  0  0  0  0  0  0  0
   15.9652    0.3504   -3.8935 H   0  0  0  0  0  0  0  0  0  0  0  0
   15.8208    0.3227   -1.3080 H   0  0  0  0  0  0  0  0  0  0  0  0
   11.6149    0.2948   -0.3424 H   0  0  0  0  0  0  0  0  0  0  0  0
   13.0750   -0.7279   -0.0239 H   0  0  0  0  0  0  0  0  0  0  0  0
   11.4759    0.7985    2.1314 H   0  0  0  0  0  0  0  0  0  0  0  0
   11.3193   -0.9640    1.7616 H   0  0  0  0  0  0  0  0  0  0  0  0
   12.8773   -0.3158    2.4057 H   0  0  0  0  0  0  0  0  0  0  0  0
   10.1507   -2.6790   -4.9034 H   0  0  0  0  0  0  0  0  0  0  0  0
   11.0181   -5.8014   -4.0974 H   0  0  0  0  0  0  0  0  0  0  0  0
  1  2  2  3
  2  3  1  0
  3  4  2  0
  3  5  1  0
  5  6  2  0
  6  7  1  0
  7  8  2  0
  8  9  1  0
  9 10  2  0
 10 11  1  0
 11 12  2  3
 12 13  1  0
 13 14  3  0
 12 15  1  0
 15 16  3  0
  8 17  1  0
 17 18  1  0
 18 19  1  0
 19 20  2  0
 20 21  1  0
 21 22  1  0
 21 23  1  0
  1 24  1  0
 24 25  2  0
 25 26  1  0
 26 27  1  0
 27 28  1  0
 28 29  1  0
 26 30  2  0
 30 31  1  0
 30 32  1  0
 32 33  2  0
 33 34  1  0
 34 35  2  0
 35 36  1  0
 36 37  2  0
 37 38  1  0
 38 39  1  0
 39 40  1  0
 38 41  2  0
 33 42  1  0
 42 43  1  0
 43 44  1  0
 44 45  1  0
 45 46  1  0
 46 47  1  0
 47 48  2  0
 48 49  1  0
 49 50  1  0
 47 51  1  0
 51 52  1  0
 52 53  1  0
 53 54  1  0
 54 55  1  0
 55 56  1  0
 56 57  2  0
 57 58  1  0
 58 59  2  0
 59 60  1  0
 60 61  1  0
 61 62  1  0
 60 63  2  0
 55 64  2  0
 64 65  1  0
 65 66  1  0
 66 67  1  0
 67 68  1  0
 68 69  1  0
 69 70  1  0
 70 71  1  0
 71 72  1  0
 72 73  1  0
 73 74  1  0
 71 75  1  0
 75 76  1  0
 68 77  1  0
 77 78  1  0
 64 79  1  0
 79 80  2  0
 80 81  1  0
 81 82  2  0
 82 83  1  0
 83 84  2  0
 84 85  1  0
 85 86  2  0
 86 87  1  0
 87 88  2  3
 88 89  1  0
 89 90  2  0
 90 91  1  0
 91 92  2  0
 92 93  1  0
 93 94  1  0
 94 95  1  0
 92 96  1  0
 86 97  1  0
 82 98  1  0
 98 99  2  0
 99100  1  0
100101  1  0
101102  2  0
102103  1  0
103104  2  0
104105  1  0
105106  2  3
106107  1  0
107108  2  0
108109  1  0
109110  2  0
110111  1  0
111112  1  0
112113  1  0
110114  1  0
104115  1  0
100116  2  0
116117  1  0
 99118  1  0
118119  2  0
119120  1  0
119121  1  0
121122  2  3
122123  1  0
123124  2  0
123125  1  0
125126  2  0
126127  1  0
126128  1  0
128129  1  0
128130  2  0
130131  1  0
130132  1  0
132133  1  0
132134  2  0
134135  1  0
135136  2  3
136137  1  0
137138  3  0
136139  1  0
139140  3  0
 11  2  1  0
 23 17  1  0
 31 24  1  0
 74 32  1  0
117 79  1  0
135122  1  0
 10  5  1  0
 22 18  1  0
 41 34  1  0
 73 42  2  0
116 81  1  0
134125  1  0
 23  7  1  0
 72 44  2  0
 97 83  1  0
120 98  1  0
 70 45  2  0
 96 89  1  0
115101  1  0
 50 46  2  0
 69 51  2  0
114107  1  0
 67 52  2  0
 66 54  2  0
 63 56  1  0
  1141  1  0
  6142  1  0
  9143  1  0
 17144  1  0
 18145  1  0
 19146  1  0
 20147  1  0
 21148  1  0
 22149  1  0
 22150  1  0
 23151  1  0
 25152  1  0
 28153  1  0
 28154  1  0
 29155  1  0
 29156  1  0
 29157  1  0
 35158  1  0
 36159  1  0
 37160  1  0
 39161  1  0
 39162  1  0
 40163  1  0
 40164  1  0
 40165  1  0
 41166  1  0
 57167  1  0
 58168  1  0
 59169  1  0
 61170  1  0
 61171  1  0
 62172  1  0
 62173  1  0
 62174  1  0
 63175  1  0
 75176  1  0
 75177  1  0
 76178  1  0
 76179  1  0
 76180  1  0
 77181  1  0
 77182  1  0
 78183  1  0
 78184  1  0
 78185  1  0
 80186  1  0
 84187  1  0
 85188  1  0
 87189  1  0
 88190  1  0
 90191  1  0
 91192  1  0
 94193  1  0
 94194  1  0
 95195  1  0
 95196  1  0
 95197  1  0
102198  1  0
103199  1  0
105200  1  0
106201  1  0
108202  1  0
109203  1  0
112204  1  0
112205  1  0
113206  1  0
113207  1  0
113208  1  0
118209  1  0
121210  1  0
M  END

