
     RDKit          3D

174194  0  0  0  0  0  0  0  0999 V2000
    0.6680    2.6551   -8.7978 C   0  0  0  0  0  0  0  0  0  0  0  0
    1.8221    2.2551   -8.2426 C   0  0  0  0  0  0  0  0  0  0  0  0
    2.9970    3.1271   -8.1791 C   0  0  0  0  0  0  0  0  0  0  0  0
    3.2211    4.1144   -8.9287 O   0  0  0  0  0  0  0  0  0  0  0  0
    3.7919    2.7452   -7.0256 C   0  0  0  0  0  0  0  0  0  0  0  0
    4.8459    3.4808   -6.4357 C   0  0  0  0  0  0  0  0  0  0  0  0
    5.2603    2.9796   -5.2133 C   0  0  0  0  0  0  0  0  0  0  0  0
    4.6822    1.8173   -4.6053 C   0  0  0  0  0  0  0  0  0  0  0  0
    3.6497    1.0939   -5.1764 C   0  0  0  0  0  0  0  0  0  0  0  0
    3.2088    1.5932   -6.4334 C   0  0  0  0  0  0  0  0  0  0  0  0
    2.0495    1.1631   -7.2521 C   0  0  0  0  0  0  0  0  0  0  0  0
    1.5503   -0.0967   -7.3338 C   0  0  0  0  0  0  0  0  0  0  0  0
    0.6673   -0.4973   -8.4001 C   0  0  0  0  0  0  0  0  0  0  0  0
   -0.0378   -0.8227   -9.2572 N   0  0  0  0  0  0  0  0  0  0  0  0
    1.9511   -1.1472   -6.4335 C   0  0  0  0  0  0  0  0  0  0  0  0
    2.2656   -2.0018   -5.7186 N   0  0  0  0  0  0  0  0  0  0  0  0
    5.5457    2.0007   -3.3941 C   0  0  0  0  0  0  0  0  0  0  0  0
    4.8333    2.5490   -2.1224 C   0  0  0  0  0  0  0  0  0  0  0  0
    5.9304    3.0229   -1.2007 C   0  0  0  0  0  0  0  0  0  0  0  0
    6.4558    4.1189   -1.7631 C   0  0  0  0  0  0  0  0  0  0  0  0
    5.6952    4.3461   -3.0468 C   0  0  0  0  0  0  0  0  0  0  0  0
    4.3168    3.9052   -2.5772 C   0  0  0  0  0  0  0  0  0  0  0  0
    6.1295    3.1980   -4.0104 C   0  0  0  0  0  0  0  0  0  0  0  0
   -0.6641    2.2389   -8.3177 C   0  0  0  0  0  0  0  0  0  0  0  0
   -1.8262    2.2239   -9.0752 C   0  0  0  0  0  0  0  0  0  0  0  0
   -2.9706    1.8913   -8.3336 C   0  0  0  0  0  0  0  0  0  0  0  0
   -4.5697    1.6529   -9.1153 S   0  0  0  0  0  0  0  0  0  0  0  0
   -4.2124   -0.0416   -9.6984 C   0  0  0  0  0  0  0  0  0  0  0  0
   -4.2539   -1.0427   -8.5510 C   0  0  0  0  0  0  0  0  0  0  0  0
   -2.7188    1.7128   -6.9703 C   0  0  0  0  0  0  0  0  0  0  0  0
   -1.0732    1.9207   -6.7173 S   0  0  0  0  0  0  0  0  0  0  0  0
   -3.6690    1.4083   -5.8871 C   0  0  0  0  0  0  0  0  0  0  0  0
   -4.8624    2.0958   -5.5646 C   0  0  0  0  0  0  0  0  0  0  0  0
   -5.4488    3.2137   -6.3312 C   0  0  0  0  0  0  0  0  0  0  0  0
   -6.8166    3.1968   -6.6481 C   0  0  0  0  0  0  0  0  0  0  0  0
   -7.3720    4.2113   -7.4326 C   0  0  0  0  0  0  0  0  0  0  0  0
   -6.5693    5.2497   -7.9094 C   0  0  0  0  0  0  0  0  0  0  0  0
   -5.2002    5.2875   -7.5929 C   0  0  0  0  0  0  0  0  0  0  0  0
   -4.3302    6.4062   -8.0975 C   0  0  0  0  0  0  0  0  0  0  0  0
   -4.1579    7.4862   -7.0343 C   0  0  0  0  0  0  0  0  0  0  0  0
   -4.6512    4.2775   -6.7861 C   0  0  0  0  0  0  0  0  0  0  0  0
   -5.3887    1.6300   -4.3507 C   0  0  0  0  0  0  0  0  0  0  0  0
   -6.5771    2.2467   -3.2930 S   0  0  0  0  0  0  0  0  0  0  0  0
   -6.1615    1.1124   -2.0949 C   0  0  0  0  0  0  0  0  0  0  0  0
   -6.2930    0.9988   -0.7381 C   0  0  0  0  0  0  0  0  0  0  0  0
   -6.9287    1.8480    0.1760 C   0  0  0  0  0  0  0  0  0  0  0  0
   -6.6329    1.7114    1.5626 C   0  0  0  0  0  0  0  0  0  0  0  0
   -7.2377    2.5763    2.4138 N   0  0  0  0  0  0  0  0  0  0  0  0
   -8.0982    3.4788    1.3238 S   0  0  0  0  0  0  0  0  0  0  0  0
   -7.7677    2.8550   -0.1751 N   0  0  0  0  0  0  0  0  0  0  0  0
   -5.7719    0.6888    1.9639 C   0  0  0  0  0  0  0  0  0  0  0  0
   -5.3047    0.3273    3.1988 C   0  0  0  0  0  0  0  0  0  0  0  0
   -5.2023    0.9306    4.7883 S   0  0  0  0  0  0  0  0  0  0  0  0
   -4.1174   -0.3203    5.2344 C   0  0  0  0  0  0  0  0  0  0  0  0
   -3.3005   -0.5710    6.3563 C   0  0  0  0  0  0  0  0  0  0  0  0
   -3.3012    0.2369    7.6035 C   0  0  0  0  0  0  0  0  0  0  0  0
   -3.1798   -0.3899    8.8561 C   0  0  0  0  0  0  0  0  0  0  0  0
   -3.2202    0.3627   10.0360 C   0  0  0  0  0  0  0  0  0  0  0  0
   -3.3970    1.7472    9.9796 C   0  0  0  0  0  0  0  0  0  0  0  0
   -3.5121    2.3922    8.7400 C   0  0  0  0  0  0  0  0  0  0  0  0
   -3.7064    3.8847    8.6783 C   0  0  0  0  0  0  0  0  0  0  0  0
   -2.4122    4.6332    8.9957 C   0  0  0  0  0  0  0  0  0  0  0  0
   -3.4367    1.6364    7.5551 C   0  0  0  0  0  0  0  0  0  0  0  0
   -2.4623   -1.6852    6.1067 C   0  0  0  0  0  0  0  0  0  0  0  0
   -2.7173   -2.2764    4.5285 S   0  0  0  0  0  0  0  0  0  0  0  0
   -3.9029   -1.1686    4.1728 C   0  0  0  0  0  0  0  0  0  0  0  0
   -4.5610   -0.7838    3.0228 C   0  0  0  0  0  0  0  0  0  0  0  0
   -4.4884   -1.1906    1.7340 N   0  0  0  0  0  0  0  0  0  0  0  0
   -5.1856   -0.2141    1.0556 C   0  0  0  0  0  0  0  0  0  0  0  0
   -5.3560    0.0225   -0.3410 C   0  0  0  0  0  0  0  0  0  0  0  0
   -4.5728   -0.3473   -1.4132 N   0  0  0  0  0  0  0  0  0  0  0  0
   -5.1201    0.3227   -2.4636 C   0  0  0  0  0  0  0  0  0  0  0  0
   -4.6666    0.6308   -3.7463 C   0  0  0  0  0  0  0  0  0  0  0  0
   -3.3094    0.2844   -4.6646 S   0  0  0  0  0  0  0  0  0  0  0  0
   -3.2340   -0.9550   -1.4258 C   0  0  0  0  0  0  0  0  0  0  0  0
   -2.2299   -0.1236   -0.6331 C   0  0  0  0  0  0  0  0  0  0  0  0
   -4.1434   -2.5654    1.3452 C   0  0  0  0  0  0  0  0  0  0  0  0
   -5.2378   -3.2260    0.5032 C   0  0  0  0  0  0  0  0  0  0  0  0
   -1.2838   -2.1097    6.8722 C   0  0  0  0  0  0  0  0  0  0  0  0
   -0.7804   -3.4083    6.7872 C   0  0  0  0  0  0  0  0  0  0  0  0
    0.5979   -3.4788    6.9975 C   0  0  0  0  0  0  0  0  0  0  0  0
    1.3983   -4.5925    6.7103 C   0  0  0  0  0  0  0  0  0  0  0  0
    0.8313   -5.8120    6.3398 O   0  0  0  0  0  0  0  0  0  0  0  0
    0.6360   -6.1466    4.9690 C   0  0  0  0  0  0  0  0  0  0  0  0
   -0.0712   -7.4887    4.8611 C   0  0  0  0  0  0  0  0  0  0  0  0
    2.7847   -4.3996    6.7032 C   0  0  0  0  0  0  0  0  0  0  0  0
    3.3723   -3.1550    6.9603 C   0  0  0  0  0  0  0  0  0  0  0  0
    2.5671   -2.0509    7.3059 C   0  0  0  0  0  0  0  0  0  0  0  0
    3.1035   -0.7854    7.5509 O   0  0  0  0  0  0  0  0  0  0  0  0
    3.8935   -0.5140    8.7043 C   0  0  0  0  0  0  0  0  0  0  0  0
    4.3386    0.9403    8.6842 C   0  0  0  0  0  0  0  0  0  0  0  0
    1.1783   -2.2427    7.2936 C   0  0  0  0  0  0  0  0  0  0  0  0
   -0.0152   -1.0603    7.2688 S   0  0  0  0  0  0  0  0  0  0  0  0
    4.7288   -3.1025    6.5966 C   0  0  0  0  0  0  0  0  0  0  0  0
    5.1691   -4.2904    6.0122 C   0  0  0  0  0  0  0  0  0  0  0  0
    3.9267   -5.4343    6.0523 S   0  0  0  0  0  0  0  0  0  0  0  0
    6.4214   -4.4474    5.2573 C   0  0  0  0  0  0  0  0  0  0  0  0
    6.4836   -4.9898    4.0246 C   0  0  0  0  0  0  0  0  0  0  0  0
    7.6937   -5.6453    3.5033 C   0  0  0  0  0  0  0  0  0  0  0  0
    8.8662   -5.5219    3.9479 O   0  0  0  0  0  0  0  0  0  0  0  0
    7.2730   -6.5374    2.4389 C   0  0  0  0  0  0  0  0  0  0  0  0
    5.9191   -6.4263    2.2390 C   0  0  0  0  0  0  0  0  0  0  0  0
    5.4059   -7.2557    1.2453 C   0  0  0  0  0  0  0  0  0  0  0  0
    6.7260   -8.1308    0.6404 S   0  0  0  0  0  0  0  0  0  0  0  0
    7.9239   -7.4488    1.6240 C   0  0  0  0  0  0  0  0  0  0  0  0
    9.3761   -7.7940    1.6202 C   0  0  0  0  0  0  0  0  0  0  0  0
    5.3561   -5.3720    3.1074 C   0  0  0  0  0  0  0  0  0  0  0  0
    4.2384   -4.6611    2.8367 C   0  0  0  0  0  0  0  0  0  0  0  0
    3.2481   -5.1247    1.8990 C   0  0  0  0  0  0  0  0  0  0  0  0
    2.4440   -5.4882    1.1498 N   0  0  0  0  0  0  0  0  0  0  0  0
    4.0349   -3.3279    3.3500 C   0  0  0  0  0  0  0  0  0  0  0  0
    3.8577   -2.2559    3.7452 N   0  0  0  0  0  0  0  0  0  0  0  0
    0.6843    3.4631   -9.5208 H   0  0  0  0  0  0  0  0  0  0  0  0
    5.2394    4.3979   -6.8579 H   0  0  0  0  0  0  0  0  0  0  0  0
    3.1781    0.2833   -4.6389 H   0  0  0  0  0  0  0  0  0  0  0  0
    6.2623    1.1641   -3.2222 H   0  0  0  0  0  0  0  0  0  0  0  0
    4.0843    1.8722   -1.6594 H   0  0  0  0  0  0  0  0  0  0  0  0
    6.1804    2.6356   -0.2196 H   0  0  0  0  0  0  0  0  0  0  0  0
    7.2092    4.7611   -1.3181 H   0  0  0  0  0  0  0  0  0  0  0  0
    5.7590    5.3727   -3.4636 H   0  0  0  0  0  0  0  0  0  0  0  0
    3.5529    3.8521   -3.3853 H   0  0  0  0  0  0  0  0  0  0  0  0
    3.9100    4.5299   -1.7432 H   0  0  0  0  0  0  0  0  0  0  0  0
    7.2200    3.1270   -4.2209 H   0  0  0  0  0  0  0  0  0  0  0  0
   -1.8430    2.4191  -10.1394 H   0  0  0  0  0  0  0  0  0  0  0  0
   -3.2242   -0.0829  -10.2037 H   0  0  0  0  0  0  0  0  0  0  0  0
   -4.9905   -0.3212  -10.4427 H   0  0  0  0  0  0  0  0  0  0  0  0
   -4.1928   -2.0752   -8.9551 H   0  0  0  0  0  0  0  0  0  0  0  0
   -3.3917   -0.8875   -7.8713 H   0  0  0  0  0  0  0  0  0  0  0  0
   -5.2016   -0.9344   -7.9797 H   0  0  0  0  0  0  0  0  0  0  0  0
   -7.4488    2.3816   -6.3159 H   0  0  0  0  0  0  0  0  0  0  0  0
   -8.4250    4.1806   -7.6872 H   0  0  0  0  0  0  0  0  0  0  0  0
   -7.0098    6.0183   -8.5310 H   0  0  0  0  0  0  0  0  0  0  0  0
   -4.7690    6.8628   -9.0099 H   0  0  0  0  0  0  0  0  0  0  0  0
   -3.3318    6.0051   -8.3751 H   0  0  0  0  0  0  0  0  0  0  0  0
   -3.7184    7.0526   -6.1105 H   0  0  0  0  0  0  0  0  0  0  0  0
   -3.4761    8.2755   -7.4171 H   0  0  0  0  0  0  0  0  0  0  0  0
   -5.1404    7.9452   -6.7920 H   0  0  0  0  0  0  0  0  0  0  0  0
   -3.5994    4.3110   -6.5286 H   0  0  0  0  0  0  0  0  0  0  0  0
   -3.0807   -1.4676    8.9293 H   0  0  0  0  0  0  0  0  0  0  0  0
   -3.1315   -0.1312   10.9969 H   0  0  0  0  0  0  0  0  0  0  0  0
   -3.4337    2.3186   10.8986 H   0  0  0  0  0  0  0  0  0  0  0  0
   -4.4909    4.1885    9.4056 H   0  0  0  0  0  0  0  0  0  0  0  0
   -4.0608    4.1941    7.6684 H   0  0  0  0  0  0  0  0  0  0  0  0
   -1.5934    4.2967    8.3214 H   0  0  0  0  0  0  0  0  0  0  0  0
   -2.5713    5.7193    8.8416 H   0  0  0  0  0  0  0  0  0  0  0  0
   -2.1175    4.4647   10.0517 H   0  0  0  0  0  0  0  0  0  0  0  0
   -3.4697    2.1451    6.5998 H   0  0  0  0  0  0  0  0  0  0  0  0
   -2.8493   -1.0395   -2.4540 H   0  0  0  0  0  0  0  0  0  0  0  0
   -3.2733   -2.0005   -1.1041 H   0  0  0  0  0  0  0  0  0  0  0  0
   -1.2096   -0.5394   -0.7705 H   0  0  0  0  0  0  0  0  0  0  0  0
   -2.4636   -0.1324    0.4496 H   0  0  0  0  0  0  0  0  0  0  0  0
   -2.2402    0.9271   -0.9928 H   0  0  0  0  0  0  0  0  0  0  0  0
   -3.1415   -2.6075    0.8811 H   0  0  0  0  0  0  0  0  0  0  0  0
   -4.0491   -3.1991    2.2511 H   0  0  0  0  0  0  0  0  0  0  0  0
   -5.3714   -2.7328   -0.4801 H   0  0  0  0  0  0  0  0  0  0  0  0
   -6.2065   -3.1830    1.0429 H   0  0  0  0  0  0  0  0  0  0  0  0
   -4.9750   -4.2876    0.3248 H   0  0  0  0  0  0  0  0  0  0  0  0
   -1.3637   -4.2464    6.4243 H   0  0  0  0  0  0  0  0  0  0  0  0
    1.6156   -6.2089    4.4472 H   0  0  0  0  0  0  0  0  0  0  0  0
    0.0169   -5.3664    4.4754 H   0  0  0  0  0  0  0  0  0  0  0  0
    0.5524   -8.2854    5.3208 H   0  0  0  0  0  0  0  0  0  0  0  0
   -0.2451   -7.7364    3.7932 H   0  0  0  0  0  0  0  0  0  0  0  0
   -1.0506   -7.4449    5.3844 H   0  0  0  0  0  0  0  0  0  0  0  0
    3.2890   -0.6961    9.6206 H   0  0  0  0  0  0  0  0  0  0  0  0
    4.7879   -1.1724    8.7272 H   0  0  0  0  0  0  0  0  0  0  0  0
    3.4484    1.6027    8.6272 H   0  0  0  0  0  0  0  0  0  0  0  0
    4.9897    1.1243    7.8043 H   0  0  0  0  0  0  0  0  0  0  0  0
    4.9026    1.1741    9.6105 H   0  0  0  0  0  0  0  0  0  0  0  0
    5.3185   -2.1939    6.6049 H   0  0  0  0  0  0  0  0  0  0  0  0
    7.3425   -4.2181    5.7799 H   0  0  0  0  0  0  0  0  0  0  0  0
    4.3799   -7.3484    0.9251 H   0  0  0  0  0  0  0  0  0  0  0  0
    9.6439   -8.2861    2.5784 H   0  0  0  0  0  0  0  0  0  0  0  0
    9.9793   -6.8719    1.4947 H   0  0  0  0  0  0  0  0  0  0  0  0
    9.6013   -8.4863    0.7795 H   0  0  0  0  0  0  0  0  0  0  0  0
  1  2  2  3
  2  3  1  0
  3  4  2  0
  3  5  1  0
  5  6  2  0
  6  7  1  0
  7  8  2  0
  8  9  1  0
  9 10  2  0
 10 11  1  0
 11 12  2  3
 12 13  1  0
 13 14  3  0
 12 15  1  0
 15 16  3  0
  8 17  1  0
 17 18  1  0
 18 19  1  0
 19 20  2  0
 20 21  1  0
 21 22  1  0
 21 23  1  0
  1 24  1  0
 24 25  2  0
 25 26  1  0
 26 27  1  0
 27 28  1  0
 28 29  1  0
 26 30  2  0
 30 31  1  0
 30 32  1  0
 32 33  2  0
 33 34  1  0
 34 35  2  0
 35 36  1  0
 36 37  2  0
 37 38  1  0
 38 39  1  0
 39 40  1  0
 38 41  2  0
 33 42  1  0
 42 43  1  0
 43 44  1  0
 44 45  1  0
 45 46  1  0
 46 47  1  0
 47 48  2  0
 48 49  1  0
 49 50  1  0
 47 51  1  0
 51 52  1  0
 52 53  1  0
 53 54  1  0
 54 55  1  0
 55 56  1  0
 56 57  2  0
 57 58  1  0
 58 59  2  0
 59 60  1  0
 60 61  1  0
 61 62  1  0
 60 63  2  0
 55 64  2  0
 64 65  1  0
 65 66  1  0
 66 67  1  0
 67 68  1  0
 68 69  1  0
 69 70  1  0
 70 71  1  0
 71 72  1  0
 72 73  1  0
 73 74  1  0
 71 75  1  0
 75 76  1  0
 68 77  1  0
 77 78  1  0
 64 79  1  0
 79 80  2  0
 80 81  1  0
 81 82  2  0
 82 83  1  0
 83 84  1  0
 84 85  1  0
 82 86  1  0
 86 87  2  0
 87 88  1  0
 88 89  1  0
 89 90  1  0
 90 91  1  0
 88 92  2  0
 92 93  1  0
 87 94  1  0
 94 95  2  0
 95 96  1  0
 95 97  1  0
 97 98  2  3
 98 99  1  0
 99100  2  0
 99101  1  0
101102  1  0
102103  2  0
103104  1  0
104105  1  0
105106  1  0
102107  1  0
107108  2  3
108109  1  0
109110  3  0
108111  1  0
111112  3  0
 11  2  1  0
 23 17  1  0
 31 24  1  0
 74 32  1  0
 93 79  1  0
107 98  1  0
 10  5  1  0
 22 18  1  0
 41 34  1  0
 73 42  2  0
 92 81  1  0
105101  2  0
 23  7  1  0
 72 44  2  0
 96 86  1  0
 70 45  2  0
 50 46  2  0
 69 51  2  0
 67 52  2  0
 66 54  2  0
 63 56  1  0
  1113  1  0
  6114  1  0
  9115  1  0
 17116  1  0
 18117  1  0
 19118  1  0
 20119  1  0
 21120  1  0
 22121  1  0
 22122  1  0
 23123  1  0
 25124  1  0
 28125  1  0
 28126  1  0
 29127  1  0
 29128  1  0
 29129  1  0
 35130  1  0
 36131  1  0
 37132  1  0
 39133  1  0
 39134  1  0
 40135  1  0
 40136  1  0
 40137  1  0
 41138  1  0
 57139  1  0
 58140  1  0
 59141  1  0
 61142  1  0
 61143  1  0
 62144  1  0
 62145  1  0
 62146  1  0
 63147  1  0
 75148  1  0
 75149  1  0
 76150  1  0
 76151  1  0
 76152  1  0
 77153  1  0
 77154  1  0
 78155  1  0
 78156  1  0
 78157  1  0
 80158  1  0
 84159  1  0
 84160  1  0
 85161  1  0
 85162  1  0
 85163  1  0
 90164  1  0
 90165  1  0
 91166  1  0
 91167  1  0
 91168  1  0
 94169  1  0
 97170  1  0
103171  1  0
106172  1  0
106173  1  0
106174  1  0
M  END

