
     RDKit          3D

151170  0  0  0  0  0  0  0  0999 V2000
   -1.7058   -7.0453    3.2626 C   0  0  0  0  0  0  0  0  0  0  0  0
   -2.9476   -6.6320    3.5949 C   0  0  0  0  0  0  0  0  0  0  0  0
   -4.1055   -6.5926    2.6939 C   0  0  0  0  0  0  0  0  0  0  0  0
   -4.3154   -7.3612    1.7176 O   0  0  0  0  0  0  0  0  0  0  0  0
   -5.0217   -5.5758    3.1627 C   0  0  0  0  0  0  0  0  0  0  0  0
   -6.1413   -5.0568    2.4710 C   0  0  0  0  0  0  0  0  0  0  0  0
   -6.7350   -3.9764    3.0964 C   0  0  0  0  0  0  0  0  0  0  0  0
   -6.2583   -3.4297    4.3314 C   0  0  0  0  0  0  0  0  0  0  0  0
   -5.1636   -3.9359    5.0154 C   0  0  0  0  0  0  0  0  0  0  0  0
   -4.5493   -5.0625    4.3968 C   0  0  0  0  0  0  0  0  0  0  0  0
   -3.3193   -5.8100    4.7891 C   0  0  0  0  0  0  0  0  0  0  0  0
   -2.7703   -5.8763    6.0291 C   0  0  0  0  0  0  0  0  0  0  0  0
   -3.2957   -5.1321    7.1459 C   0  0  0  0  0  0  0  0  0  0  0  0
   -3.7126   -4.5511    8.0548 N   0  0  0  0  0  0  0  0  0  0  0  0
   -1.7192   -6.8061    6.3523 C   0  0  0  0  0  0  0  0  0  0  0  0
   -0.8786   -7.5554    6.6171 N   0  0  0  0  0  0  0  0  0  0  0  0
   -7.3075   -2.3573    4.2794 C   0  0  0  0  0  0  0  0  0  0  0  0
   -6.8595   -0.9144    3.8917 C   0  0  0  0  0  0  0  0  0  0  0  0
   -5.6639   -0.9770    2.9697 C   0  0  0  0  0  0  0  0  0  0  0  0
   -6.0953   -1.4869    1.8161 C   0  0  0  0  0  0  0  0  0  0  0  0
   -7.5731   -1.7548    1.9902 C   0  0  0  0  0  0  0  0  0  0  0  0
   -7.9283   -0.5718    2.8690 C   0  0  0  0  0  0  0  0  0  0  0  0
   -7.7906   -2.9159    3.0121 C   0  0  0  0  0  0  0  0  0  0  0  0
   -1.2851   -7.3012    1.8717 C   0  0  0  0  0  0  0  0  0  0  0  0
   -0.2087   -8.0902    1.4724 C   0  0  0  0  0  0  0  0  0  0  0  0
    0.1399   -7.9238    0.1164 C   0  0  0  0  0  0  0  0  0  0  0  0
    1.4874   -8.8289   -0.6603 S   0  0  0  0  0  0  0  0  0  0  0  0
    2.8443   -7.9999    0.2462 C   0  0  0  0  0  0  0  0  0  0  0  0
    3.1201   -6.6061   -0.2925 C   0  0  0  0  0  0  0  0  0  0  0  0
   -0.6864   -7.0225   -0.5575 C   0  0  0  0  0  0  0  0  0  0  0  0
   -1.7592   -6.3777    0.5540 S   0  0  0  0  0  0  0  0  0  0  0  0
   -0.5826   -6.5065   -1.9301 C   0  0  0  0  0  0  0  0  0  0  0  0
   -1.7146   -6.1728   -2.7002 C   0  0  0  0  0  0  0  0  0  0  0  0
   -3.0542   -6.7397   -2.4487 C   0  0  0  0  0  0  0  0  0  0  0  0
   -4.0829   -5.9470   -1.9210 C   0  0  0  0  0  0  0  0  0  0  0  0
   -5.3172   -6.5158   -1.5990 C   0  0  0  0  0  0  0  0  0  0  0  0
   -5.5392   -7.8790   -1.8179 C   0  0  0  0  0  0  0  0  0  0  0  0
   -4.5175   -8.6865   -2.3450 C   0  0  0  0  0  0  0  0  0  0  0  0
   -4.7795  -10.1401   -2.6528 C   0  0  0  0  0  0  0  0  0  0  0  0
   -5.3442  -10.2940   -4.0627 C   0  0  0  0  0  0  0  0  0  0  0  0
   -3.2754   -8.1104   -2.6535 C   0  0  0  0  0  0  0  0  0  0  0  0
   -1.4643   -5.0866   -3.5504 C   0  0  0  0  0  0  0  0  0  0  0  0
   -2.5275   -3.9576   -4.2405 S   0  0  0  0  0  0  0  0  0  0  0  0
   -1.2925   -2.8142   -4.4569 C   0  0  0  0  0  0  0  0  0  0  0  0
   -1.3005   -1.4531   -4.3001 C   0  0  0  0  0  0  0  0  0  0  0  0
   -2.4063   -0.5953   -4.1605 C   0  0  0  0  0  0  0  0  0  0  0  0
   -2.2231    0.6785   -3.5513 C   0  0  0  0  0  0  0  0  0  0  0  0
   -3.3233    1.4529   -3.3839 N   0  0  0  0  0  0  0  0  0  0  0  0
   -4.4699    0.4403   -4.0204 S   0  0  0  0  0  0  0  0  0  0  0  0
   -3.6748   -0.9293   -4.5024 N   0  0  0  0  0  0  0  0  0  0  0  0
   -0.9370    1.0474   -3.1592 C   0  0  0  0  0  0  0  0  0  0  0  0
   -0.4522    2.1906   -2.5924 C   0  0  0  0  0  0  0  0  0  0  0  0
   -1.0125    3.6466   -1.9291 S   0  0  0  0  0  0  0  0  0  0  0  0
    0.5929    4.1221   -1.5706 C   0  0  0  0  0  0  0  0  0  0  0  0
    1.1468    5.2085   -0.8843 C   0  0  0  0  0  0  0  0  0  0  0  0
    0.3506    6.2594   -0.2164 C   0  0  0  0  0  0  0  0  0  0  0  0
    0.7049    7.6124   -0.3339 C   0  0  0  0  0  0  0  0  0  0  0  0
   -0.0155    8.5907    0.3539 C   0  0  0  0  0  0  0  0  0  0  0  0
   -1.0945    8.2293    1.1668 C   0  0  0  0  0  0  0  0  0  0  0  0
   -1.4710    6.8840    1.2828 C   0  0  0  0  0  0  0  0  0  0  0  0
   -2.5951    6.4763    2.1995 C   0  0  0  0  0  0  0  0  0  0  0  0
   -2.0548    6.1008    3.5764 C   0  0  0  0  0  0  0  0  0  0  0  0
   -0.7398    5.9028    0.5950 C   0  0  0  0  0  0  0  0  0  0  0  0
    2.5527    5.0938   -0.8244 C   0  0  0  0  0  0  0  0  0  0  0  0
    3.0497    3.6568   -1.5938 S   0  0  0  0  0  0  0  0  0  0  0  0
    1.5003    3.1878   -2.0009 C   0  0  0  0  0  0  0  0  0  0  0  0
    0.8937    2.0690   -2.5453 C   0  0  0  0  0  0  0  0  0  0  0  0
    1.3406    0.8791   -3.0191 N   0  0  0  0  0  0  0  0  0  0  0  0
    0.1801    0.2195   -3.3506 C   0  0  0  0  0  0  0  0  0  0  0  0
   -0.0242   -1.1034   -3.8240 C   0  0  0  0  0  0  0  0  0  0  0  0
    0.7096   -2.2329   -3.5616 N   0  0  0  0  0  0  0  0  0  0  0  0
   -0.0918   -3.2602   -3.9716 C   0  0  0  0  0  0  0  0  0  0  0  0
   -0.1961   -4.5689   -3.4791 C   0  0  0  0  0  0  0  0  0  0  0  0
    0.6694   -5.4463   -2.3486 S   0  0  0  0  0  0  0  0  0  0  0  0
    1.7726   -2.3753   -2.5579 C   0  0  0  0  0  0  0  0  0  0  0  0
    3.0198   -3.0286   -3.1582 C   0  0  0  0  0  0  0  0  0  0  0  0
    2.6946    0.6467   -3.5416 C   0  0  0  0  0  0  0  0  0  0  0  0
    3.7315    0.5131   -2.4175 C   0  0  0  0  0  0  0  0  0  0  0  0
    3.4811    5.9512   -0.0641 C   0  0  0  0  0  0  0  0  0  0  0  0
    4.5820    6.5371   -0.7121 C   0  0  0  0  0  0  0  0  0  0  0  0
    4.7534    6.3739   -2.0489 F   0  0  0  0  0  0  0  0  0  0  0  0
    5.5087    7.3106    0.0037 C   0  0  0  0  0  0  0  0  0  0  0  0
    6.5334    7.8987   -0.6653 F   0  0  0  0  0  0  0  0  0  0  0  0
    5.3767    7.4900    1.3967 C   0  0  0  0  0  0  0  0  0  0  0  0
    4.2679    6.9287    2.0459 C   0  0  0  0  0  0  0  0  0  0  0  0
    3.3263    6.1455    1.3186 C   0  0  0  0  0  0  0  0  0  0  0  0
    2.3103    5.5965    2.0372 N   0  0  0  0  0  0  0  0  0  0  0  0
    2.6697    6.1622    3.5465 S   0  0  0  0  0  0  0  0  0  0  0  0
    4.0479    7.0595    3.3816 N   0  0  0  0  0  0  0  0  0  0  0  0
    6.3432    8.3127    2.1532 C   0  0  0  0  0  0  0  0  0  0  0  0
    7.6568    8.0516    2.2166 C   0  0  0  0  0  0  0  0  0  0  0  0
    8.4055    6.9116    1.6574 C   0  0  0  0  0  0  0  0  0  0  0  0
    7.9299    5.9338    1.0261 O   0  0  0  0  0  0  0  0  0  0  0  0
    9.8122    7.0754    2.0215 C   0  0  0  0  0  0  0  0  0  0  0  0
   10.9095    6.2659    1.7217 C   0  0  0  0  0  0  0  0  0  0  0  0
   12.1719    6.6514    2.2032 C   0  0  0  0  0  0  0  0  0  0  0  0
   12.3169    7.8254    2.9673 C   0  0  0  0  0  0  0  0  0  0  0  0
   11.2020    8.6268    3.2594 C   0  0  0  0  0  0  0  0  0  0  0  0
    9.9563    8.2266    2.7746 C   0  0  0  0  0  0  0  0  0  0  0  0
    8.6521    8.8594    2.9312 C   0  0  0  0  0  0  0  0  0  0  0  0
    8.4209    9.9176    3.5720 O   0  0  0  0  0  0  0  0  0  0  0  0
   -0.9063   -7.0061    3.9816 H   0  0  0  0  0  0  0  0  0  0  0  0
   -6.4715   -5.4261    1.5096 H   0  0  0  0  0  0  0  0  0  0  0  0
   -4.8001   -3.4563    5.9070 H   0  0  0  0  0  0  0  0  0  0  0  0
   -8.0502   -2.4120    5.1039 H   0  0  0  0  0  0  0  0  0  0  0  0
   -6.7630   -0.2000    4.7381 H   0  0  0  0  0  0  0  0  0  0  0  0
   -4.6590   -0.6190    3.1704 H   0  0  0  0  0  0  0  0  0  0  0  0
   -5.5007   -1.6128    0.9188 H   0  0  0  0  0  0  0  0  0  0  0  0
   -8.1522   -1.8427    1.0469 H   0  0  0  0  0  0  0  0  0  0  0  0
   -8.9645   -0.6167    3.2797 H   0  0  0  0  0  0  0  0  0  0  0  0
   -7.7704    0.4148    2.3709 H   0  0  0  0  0  0  0  0  0  0  0  0
   -8.8326   -3.3077    3.0691 H   0  0  0  0  0  0  0  0  0  0  0  0
    0.3391   -8.7306    2.1511 H   0  0  0  0  0  0  0  0  0  0  0  0
    2.6197   -7.9482    1.3328 H   0  0  0  0  0  0  0  0  0  0  0  0
    3.7616   -8.6148    0.1172 H   0  0  0  0  0  0  0  0  0  0  0  0
    4.0407   -6.1986    0.1805 H   0  0  0  0  0  0  0  0  0  0  0  0
    3.2667   -6.6359   -1.3912 H   0  0  0  0  0  0  0  0  0  0  0  0
    2.2758   -5.9318   -0.0416 H   0  0  0  0  0  0  0  0  0  0  0  0
   -3.9165   -4.8960   -1.7177 H   0  0  0  0  0  0  0  0  0  0  0  0
   -6.1029   -5.9033   -1.1760 H   0  0  0  0  0  0  0  0  0  0  0  0
   -6.5060   -8.3043   -1.5759 H   0  0  0  0  0  0  0  0  0  0  0  0
   -5.4959  -10.5657   -1.9172 H   0  0  0  0  0  0  0  0  0  0  0  0
   -3.8369  -10.7244   -2.5676 H   0  0  0  0  0  0  0  0  0  0  0  0
   -6.2861   -9.7136   -4.1644 H   0  0  0  0  0  0  0  0  0  0  0  0
   -5.5606  -11.3647   -4.2613 H   0  0  0  0  0  0  0  0  0  0  0  0
   -4.6090   -9.9331   -4.8123 H   0  0  0  0  0  0  0  0  0  0  0  0
   -2.4820   -8.7269   -3.0577 H   0  0  0  0  0  0  0  0  0  0  0  0
    1.5393    7.9078   -0.9590 H   0  0  0  0  0  0  0  0  0  0  0  0
    0.2676    9.6311    0.2682 H   0  0  0  0  0  0  0  0  0  0  0  0
   -1.6334    8.9999    1.7042 H   0  0  0  0  0  0  0  0  0  0  0  0
   -3.1399    5.6087    1.7676 H   0  0  0  0  0  0  0  0  0  0  0  0
   -3.3269    7.3053    2.3040 H   0  0  0  0  0  0  0  0  0  0  0  0
   -2.8856    5.7159    4.2059 H   0  0  0  0  0  0  0  0  0  0  0  0
   -1.2776    5.3095    3.4883 H   0  0  0  0  0  0  0  0  0  0  0  0
   -1.6144    6.9910    4.0723 H   0  0  0  0  0  0  0  0  0  0  0  0
   -0.9962    4.8575    0.7291 H   0  0  0  0  0  0  0  0  0  0  0  0
    2.0236   -1.4098   -2.0993 H   0  0  0  0  0  0  0  0  0  0  0  0
    1.4035   -2.9635   -1.6973 H   0  0  0  0  0  0  0  0  0  0  0  0
    3.4569   -2.3921   -3.9504 H   0  0  0  0  0  0  0  0  0  0  0  0
    2.7762   -4.0142   -3.6034 H   0  0  0  0  0  0  0  0  0  0  0  0
    3.7793   -3.1772   -2.3616 H   0  0  0  0  0  0  0  0  0  0  0  0
    2.9780    1.4925   -4.2034 H   0  0  0  0  0  0  0  0  0  0  0  0
    2.7052   -0.2540   -4.1885 H   0  0  0  0  0  0  0  0  0  0  0  0
    3.2593    0.5917   -1.4157 H   0  0  0  0  0  0  0  0  0  0  0  0
    4.2495   -0.4633   -2.4838 H   0  0  0  0  0  0  0  0  0  0  0  0
    4.5038    1.3064   -2.5070 H   0  0  0  0  0  0  0  0  0  0  0  0
    5.9490    9.1433    2.7251 H   0  0  0  0  0  0  0  0  0  0  0  0
   10.7901    5.3659    1.1338 H   0  0  0  0  0  0  0  0  0  0  0  0
   13.0366    6.0392    1.9883 H   0  0  0  0  0  0  0  0  0  0  0  0
   13.2950    8.1148    3.3328 H   0  0  0  0  0  0  0  0  0  0  0  0
   11.3038    9.5308    3.8476 H   0  0  0  0  0  0  0  0  0  0  0  0
  1  2  2  3
  2  3  1  0
  3  4  2  0
  3  5  1  0
  5  6  2  0
  6  7  1  0
  7  8  2  0
  8  9  1  0
  9 10  2  0
 10 11  1  0
 11 12  2  3
 12 13  1  0
 13 14  3  0
 12 15  1  0
 15 16  3  0
  8 17  1  0
 17 18  1  0
 18 19  1  0
 19 20  2  0
 20 21  1  0
 21 22  1  0
 21 23  1  0
  1 24  1  0
 24 25  2  0
 25 26  1  0
 26 27  1  0
 27 28  1  0
 28 29  1  0
 26 30  2  0
 30 31  1  0
 30 32  1  0
 32 33  2  0
 33 34  1  0
 34 35  2  0
 35 36  1  0
 36 37  2  0
 37 38  1  0
 38 39  1  0
 39 40  1  0
 38 41  2  0
 33 42  1  0
 42 43  1  0
 43 44  1  0
 44 45  1  0
 45 46  1  0
 46 47  1  0
 47 48  2  0
 48 49  1  0
 49 50  1  0
 47 51  1  0
 51 52  1  0
 52 53  1  0
 53 54  1  0
 54 55  1  0
 55 56  1  0
 56 57  2  0
 57 58  1  0
 58 59  2  0
 59 60  1  0
 60 61  1  0
 61 62  1  0
 60 63  2  0
 55 64  2  0
 64 65  1  0
 65 66  1  0
 66 67  1  0
 67 68  1  0
 68 69  1  0
 69 70  1  0
 70 71  1  0
 71 72  1  0
 72 73  1  0
 73 74  1  0
 71 75  1  0
 75 76  1  0
 68 77  1  0
 77 78  1  0
 64 79  1  0
 79 80  2  0
 80 81  1  0
 80 82  1  0
 82 83  1  0
 82 84  2  0
 84 85  1  0
 85 86  1  0
 86 87  2  0
 87 88  1  0
 88 89  1  0
 84 90  1  0
 90 91  2  3
 91 92  1  0
 92 93  2  0
 92 94  1  0
 94 95  2  0
 95 96  1  0
 96 97  2  0
 97 98  1  0
 98 99  2  0
 99100  1  0
100101  2  0
 11  2  1  0
 23 17  1  0
 31 24  1  0
 74 32  1  0
 86 79  1  0
100 91  1  0
 10  5  1  0
 22 18  1  0
 41 34  1  0
 73 42  2  0
 89 85  2  0
 99 94  1  0
 23  7  1  0
 72 44  2  0
 70 45  2  0
 50 46  2  0
 69 51  2  0
 67 52  2  0
 66 54  2  0
 63 56  1  0
  1102  1  0
  6103  1  0
  9104  1  0
 17105  1  0
 18106  1  0
 19107  1  0
 20108  1  0
 21109  1  0
 22110  1  0
 22111  1  0
 23112  1  0
 25113  1  0
 28114  1  0
 28115  1  0
 29116  1  0
 29117  1  0
 29118  1  0
 35119  1  0
 36120  1  0
 37121  1  0
 39122  1  0
 39123  1  0
 40124  1  0
 40125  1  0
 40126  1  0
 41127  1  0
 57128  1  0
 58129  1  0
 59130  1  0
 61131  1  0
 61132  1  0
 62133  1  0
 62134  1  0
 62135  1  0
 63136  1  0
 75137  1  0
 75138  1  0
 76139  1  0
 76140  1  0
 76141  1  0
 77142  1  0
 77143  1  0
 78144  1  0
 78145  1  0
 78146  1  0
 90147  1  0
 95148  1  0
 96149  1  0
 97150  1  0
 98151  1  0
M  END

