
     RDKit          3D

155173  0  0  0  0  0  0  0  0999 V2000
    0.4804   -9.1029    2.8562 C   0  0  0  0  0  0  0  0  0  0  0  0
    1.8273   -9.1027    2.8685 C   0  0  0  0  0  0  0  0  0  0  0  0
    2.6742   -7.9563    2.5133 C   0  0  0  0  0  0  0  0  0  0  0  0
    2.3602   -6.9895    1.7675 O   0  0  0  0  0  0  0  0  0  0  0  0
    3.9521   -8.0984    3.1749 C   0  0  0  0  0  0  0  0  0  0  0  0
    4.9927   -7.1422    3.2278 C   0  0  0  0  0  0  0  0  0  0  0  0
    6.0366   -7.5033    4.0574 C   0  0  0  0  0  0  0  0  0  0  0  0
    6.0668   -8.7283    4.7973 C   0  0  0  0  0  0  0  0  0  0  0  0
    5.0508   -9.6687    4.7490 C   0  0  0  0  0  0  0  0  0  0  0  0
    3.9700   -9.3261    3.8872 C   0  0  0  0  0  0  0  0  0  0  0  0
    2.6953  -10.0558    3.6235 C   0  0  0  0  0  0  0  0  0  0  0  0
    2.4533  -11.3746    3.8232 C   0  0  0  0  0  0  0  0  0  0  0  0
    1.2991  -12.0272    3.2572 C   0  0  0  0  0  0  0  0  0  0  0  0
    0.3742  -12.5570    2.8010 N   0  0  0  0  0  0  0  0  0  0  0  0
    3.3707  -12.2369    4.5149 C   0  0  0  0  0  0  0  0  0  0  0  0
    4.0946  -12.9473    5.0713 N   0  0  0  0  0  0  0  0  0  0  0  0
    7.3756   -8.3435    5.4195 C   0  0  0  0  0  0  0  0  0  0  0  0
    7.3684   -7.8717    6.9067 C   0  0  0  0  0  0  0  0  0  0  0  0
    6.0497   -7.2093    7.2353 C   0  0  0  0  0  0  0  0  0  0  0  0
    6.0162   -6.0676    6.5466 C   0  0  0  0  0  0  0  0  0  0  0  0
    7.3122   -5.9920    5.7711 C   0  0  0  0  0  0  0  0  0  0  0  0
    8.2330   -6.6294    6.7926 C   0  0  0  0  0  0  0  0  0  0  0  0
    7.3434   -7.0876    4.6634 C   0  0  0  0  0  0  0  0  0  0  0  0
   -0.2981   -7.9503    2.3980 C   0  0  0  0  0  0  0  0  0  0  0  0
   -0.4334   -7.5296    1.0816 C   0  0  0  0  0  0  0  0  0  0  0  0
   -0.9765   -6.2445    0.9798 C   0  0  0  0  0  0  0  0  0  0  0  0
   -1.2243   -5.4257   -0.5985 S   0  0  0  0  0  0  0  0  0  0  0  0
   -2.9080   -6.0802   -0.8755 C   0  0  0  0  0  0  0  0  0  0  0  0
   -2.8600   -7.1715   -1.9376 C   0  0  0  0  0  0  0  0  0  0  0  0
   -1.2695   -5.6612    2.2112 C   0  0  0  0  0  0  0  0  0  0  0  0
   -0.8429   -6.7401    3.4232 S   0  0  0  0  0  0  0  0  0  0  0  0
   -1.5388   -4.2398    2.4479 C   0  0  0  0  0  0  0  0  0  0  0  0
   -2.4676   -3.6897    3.3529 C   0  0  0  0  0  0  0  0  0  0  0  0
   -3.3992   -4.4642    4.1818 C   0  0  0  0  0  0  0  0  0  0  0  0
   -2.9692   -5.0135    5.3962 C   0  0  0  0  0  0  0  0  0  0  0  0
   -3.8605   -5.7382    6.1917 C   0  0  0  0  0  0  0  0  0  0  0  0
   -5.1877   -5.9070    5.7863 C   0  0  0  0  0  0  0  0  0  0  0  0
   -5.6299   -5.3577    4.5709 C   0  0  0  0  0  0  0  0  0  0  0  0
   -7.0714   -5.4875    4.1512 C   0  0  0  0  0  0  0  0  0  0  0  0
   -7.8463   -4.2219    4.5030 C   0  0  0  0  0  0  0  0  0  0  0  0
   -4.7263   -4.6394    3.7685 C   0  0  0  0  0  0  0  0  0  0  0  0
   -2.3931   -2.2985    3.3589 C   0  0  0  0  0  0  0  0  0  0  0  0
   -3.2664   -1.0695    4.1593 S   0  0  0  0  0  0  0  0  0  0  0  0
   -2.3000    0.1263    3.4317 C   0  0  0  0  0  0  0  0  0  0  0  0
   -2.2834    1.4813    3.2576 C   0  0  0  0  0  0  0  0  0  0  0  0
   -3.2329    2.4466    3.6067 C   0  0  0  0  0  0  0  0  0  0  0  0
   -3.1091    3.7560    3.0612 C   0  0  0  0  0  0  0  0  0  0  0  0
   -4.0832    4.6458    3.3674 N   0  0  0  0  0  0  0  0  0  0  0  0
   -5.0497    3.6878    4.3123 S   0  0  0  0  0  0  0  0  0  0  0  0
   -4.3257    2.1984    4.3717 N   0  0  0  0  0  0  0  0  0  0  0  0
   -2.0003    4.0439    2.2624 C   0  0  0  0  0  0  0  0  0  0  0  0
   -1.6289    5.1911    1.6179 C   0  0  0  0  0  0  0  0  0  0  0  0
   -2.3659    6.6137    1.0591 S   0  0  0  0  0  0  0  0  0  0  0  0
   -1.0518    6.9005    0.0048 C   0  0  0  0  0  0  0  0  0  0  0  0
   -0.8833    7.7595   -1.0817 C   0  0  0  0  0  0  0  0  0  0  0  0
   -1.8447    8.8054   -1.4586 C   0  0  0  0  0  0  0  0  0  0  0  0
   -1.4281   10.1440   -1.5153 C   0  0  0  0  0  0  0  0  0  0  0  0
   -2.3439   11.1495   -1.8364 C   0  0  0  0  0  0  0  0  0  0  0  0
   -3.6741   10.8216   -2.1196 C   0  0  0  0  0  0  0  0  0  0  0  0
   -4.0966    9.4799   -2.0860 C   0  0  0  0  0  0  0  0  0  0  0  0
   -5.5070    9.1193   -2.4660 C   0  0  0  0  0  0  0  0  0  0  0  0
   -5.6616    9.0764   -3.9851 C   0  0  0  0  0  0  0  0  0  0  0  0
   -3.1752    8.4777   -1.7486 C   0  0  0  0  0  0  0  0  0  0  0  0
    0.2552    7.4151   -1.8330 C   0  0  0  0  0  0  0  0  0  0  0  0
    0.9894    6.0335   -1.1573 S   0  0  0  0  0  0  0  0  0  0  0  0
   -0.1002    5.9195    0.1034 C   0  0  0  0  0  0  0  0  0  0  0  0
   -0.4515    4.9353    1.0080 C   0  0  0  0  0  0  0  0  0  0  0  0
   -0.0055    3.6729    1.2103 N   0  0  0  0  0  0  0  0  0  0  0  0
   -1.0207    3.0864    1.9367 C   0  0  0  0  0  0  0  0  0  0  0  0
   -1.2323    1.7378    2.3504 C   0  0  0  0  0  0  0  0  0  0  0  0
   -0.7195    0.5549    1.8672 N   0  0  0  0  0  0  0  0  0  0  0  0
   -1.3681   -0.3889    2.5943 C   0  0  0  0  0  0  0  0  0  0  0  0
   -1.4319   -1.7713    2.5367 C   0  0  0  0  0  0  0  0  0  0  0  0
   -0.6281   -2.9926    1.7290 S   0  0  0  0  0  0  0  0  0  0  0  0
   -0.0511    0.2849    0.5844 C   0  0  0  0  0  0  0  0  0  0  0  0
   -0.8616    0.8203   -0.5966 C   0  0  0  0  0  0  0  0  0  0  0  0
    1.3763    3.2477    0.9394 C   0  0  0  0  0  0  0  0  0  0  0  0
    2.0448    2.6440    2.1743 C   0  0  0  0  0  0  0  0  0  0  0  0
    0.4886    7.7924   -3.2306 C   0  0  0  0  0  0  0  0  0  0  0  0
   -0.4411    7.5629   -4.2387 C   0  0  0  0  0  0  0  0  0  0  0  0
    0.1305    7.4488   -5.5144 C   0  0  0  0  0  0  0  0  0  0  0  0
   -0.7856    6.6973   -6.8690 S   0  0  0  0  0  0  0  0  0  0  0  0
   -0.2080    4.9925   -6.5300 C   0  0  0  0  0  0  0  0  0  0  0  0
   -1.0711    4.3208   -5.4703 C   0  0  0  0  0  0  0  0  0  0  0  0
    1.5043    7.7005   -5.5392 C   0  0  0  0  0  0  0  0  0  0  0  0
    2.0077    7.8866   -3.9426 S   0  0  0  0  0  0  0  0  0  0  0  0
    2.4314    7.3542   -6.6289 C   0  0  0  0  0  0  0  0  0  0  0  0
    2.3013    7.7704   -7.9052 C   0  0  0  0  0  0  0  0  0  0  0  0
    1.3744    8.8263   -8.3685 C   0  0  0  0  0  0  0  0  0  0  0  0
    0.5961    9.5251   -7.6630 O   0  0  0  0  0  0  0  0  0  0  0  0
    1.5361    8.9499   -9.7943 C   0  0  0  0  0  0  0  0  0  0  0  0
    0.8812    9.7052  -10.7521 C   0  0  0  0  0  0  0  0  0  0  0  0
    1.5693    9.2360  -12.2231 S   0  0  0  0  0  0  0  0  0  0  0  0
    2.6730    8.1005  -11.6236 C   0  0  0  0  0  0  0  0  0  0  0  0
    2.4924    8.0778  -10.2451 C   0  0  0  0  0  0  0  0  0  0  0  0
    3.0575    7.2918   -9.1221 C   0  0  0  0  0  0  0  0  0  0  0  0
    4.0145    6.3312   -9.2203 C   0  0  0  0  0  0  0  0  0  0  0  0
    4.6019    5.9662  -10.4819 C   0  0  0  0  0  0  0  0  0  0  0  0
    5.0734    5.6536  -11.4918 N   0  0  0  0  0  0  0  0  0  0  0  0
    4.5054    5.5802   -8.0921 C   0  0  0  0  0  0  0  0  0  0  0  0
    4.9109    4.9734   -7.1935 N   0  0  0  0  0  0  0  0  0  0  0  0
   -0.0655   -9.8662    3.3866 H   0  0  0  0  0  0  0  0  0  0  0  0
    4.9582   -6.1944    2.7067 H   0  0  0  0  0  0  0  0  0  0  0  0
    5.0883  -10.5513    5.3678 H   0  0  0  0  0  0  0  0  0  0  0  0
    8.2243   -9.0098    5.1426 H   0  0  0  0  0  0  0  0  0  0  0  0
    7.7147   -8.6251    7.6456 H   0  0  0  0  0  0  0  0  0  0  0  0
    5.3061   -7.5465    7.9474 H   0  0  0  0  0  0  0  0  0  0  0  0
    5.2310   -5.3202    6.5967 H   0  0  0  0  0  0  0  0  0  0  0  0
    7.6016   -4.9745    5.4361 H   0  0  0  0  0  0  0  0  0  0  0  0
    9.2568   -6.8335    6.4066 H   0  0  0  0  0  0  0  0  0  0  0  0
    8.3065   -6.0510    7.7453 H   0  0  0  0  0  0  0  0  0  0  0  0
    8.1715   -6.9904    3.9250 H   0  0  0  0  0  0  0  0  0  0  0  0
   -0.0864   -8.1029    0.2322 H   0  0  0  0  0  0  0  0  0  0  0  0
   -3.5531   -5.2492   -1.2324 H   0  0  0  0  0  0  0  0  0  0  0  0
   -3.3573   -6.4907    0.0598 H   0  0  0  0  0  0  0  0  0  0  0  0
   -3.8729   -7.6002   -2.0975 H   0  0  0  0  0  0  0  0  0  0  0  0
   -2.1718   -7.9840   -1.6102 H   0  0  0  0  0  0  0  0  0  0  0  0
   -2.4973   -6.7442   -2.8984 H   0  0  0  0  0  0  0  0  0  0  0  0
   -1.9497   -4.8751    5.7280 H   0  0  0  0  0  0  0  0  0  0  0  0
   -3.5227   -6.1645    7.1284 H   0  0  0  0  0  0  0  0  0  0  0  0
   -5.8687   -6.4535    6.4254 H   0  0  0  0  0  0  0  0  0  0  0  0
   -7.5481   -6.3543    4.6556 H   0  0  0  0  0  0  0  0  0  0  0  0
   -7.1285   -5.6642    3.0560 H   0  0  0  0  0  0  0  0  0  0  0  0
   -7.8757   -4.0788    5.6061 H   0  0  0  0  0  0  0  0  0  0  0  0
   -8.8867   -4.3046    4.1288 H   0  0  0  0  0  0  0  0  0  0  0  0
   -7.3694   -3.3321    4.0346 H   0  0  0  0  0  0  0  0  0  0  0  0
   -5.0624   -4.2028    2.8345 H   0  0  0  0  0  0  0  0  0  0  0  0
   -0.4041   10.4114   -1.2931 H   0  0  0  0  0  0  0  0  0  0  0  0
   -2.0241   12.1829   -1.8677 H   0  0  0  0  0  0  0  0  0  0  0  0
   -4.3737   11.6104   -2.3715 H   0  0  0  0  0  0  0  0  0  0  0  0
   -5.7805    8.1258   -2.0445 H   0  0  0  0  0  0  0  0  0  0  0  0
   -6.2168    9.8655   -2.0433 H   0  0  0  0  0  0  0  0  0  0  0  0
   -6.7021    8.7947   -4.2445 H   0  0  0  0  0  0  0  0  0  0  0  0
   -4.9662    8.3301   -4.4222 H   0  0  0  0  0  0  0  0  0  0  0  0
   -5.4434   10.0764   -4.4211 H   0  0  0  0  0  0  0  0  0  0  0  0
   -3.4880    7.4369   -1.7357 H   0  0  0  0  0  0  0  0  0  0  0  0
    0.9857    0.6390    0.5921 H   0  0  0  0  0  0  0  0  0  0  0  0
    0.0566   -0.8014    0.4264 H   0  0  0  0  0  0  0  0  0  0  0  0
   -0.9147    1.9241   -0.5829 H   0  0  0  0  0  0  0  0  0  0  0  0
   -1.8905    0.4036   -0.5688 H   0  0  0  0  0  0  0  0  0  0  0  0
   -0.3803    0.5090   -1.5478 H   0  0  0  0  0  0  0  0  0  0  0  0
    1.4171    2.5993    0.0474 H   0  0  0  0  0  0  0  0  0  0  0  0
    1.9939    4.1298    0.6661 H   0  0  0  0  0  0  0  0  0  0  0  0
    1.4880    1.7784    2.5739 H   0  0  0  0  0  0  0  0  0  0  0  0
    3.0660    2.3004    1.9088 H   0  0  0  0  0  0  0  0  0  0  0  0
    2.1265    3.4102    2.9722 H   0  0  0  0  0  0  0  0  0  0  0  0
   -1.4730    7.3047   -4.0377 H   0  0  0  0  0  0  0  0  0  0  0  0
    0.8553    4.9906   -6.2057 H   0  0  0  0  0  0  0  0  0  0  0  0
   -0.2745    4.4092   -7.4735 H   0  0  0  0  0  0  0  0  0  0  0  0
   -1.0775    4.9120   -4.5332 H   0  0  0  0  0  0  0  0  0  0  0  0
   -0.6556    3.3202   -5.2415 H   0  0  0  0  0  0  0  0  0  0  0  0
   -2.1120    4.2026   -5.8393 H   0  0  0  0  0  0  0  0  0  0  0  0
    3.1843    6.6565   -6.3453 H   0  0  0  0  0  0  0  0  0  0  0  0
    0.0725   10.4086  -10.5963 H   0  0  0  0  0  0  0  0  0  0  0  0
    3.3491    7.5113  -12.2223 H   0  0  0  0  0  0  0  0  0  0  0  0
  1  2  2  3
  2  3  1  0
  3  4  2  0
  3  5  1  0
  5  6  2  0
  6  7  1  0
  7  8  2  0
  8  9  1  0
  9 10  2  0
 10 11  1  0
 11 12  2  3
 12 13  1  0
 13 14  3  0
 12 15  1  0
 15 16  3  0
  8 17  1  0
 17 18  1  0
 18 19  1  0
 19 20  2  0
 20 21  1  0
 21 22  1  0
 21 23  1  0
  1 24  1  0
 24 25  2  0
 25 26  1  0
 26 27  1  0
 27 28  1  0
 28 29  1  0
 26 30  2  0
 30 31  1  0
 30 32  1  0
 32 33  2  0
 33 34  1  0
 34 35  2  0
 35 36  1  0
 36 37  2  0
 37 38  1  0
 38 39  1  0
 39 40  1  0
 38 41  2  0
 33 42  1  0
 42 43  1  0
 43 44  1  0
 44 45  1  0
 45 46  1  0
 46 47  1  0
 47 48  2  0
 48 49  1  0
 49 50  1  0
 47 51  1  0
 51 52  1  0
 52 53  1  0
 53 54  1  0
 54 55  1  0
 55 56  1  0
 56 57  2  0
 57 58  1  0
 58 59  2  0
 59 60  1  0
 60 61  1  0
 61 62  1  0
 60 63  2  0
 55 64  2  0
 64 65  1  0
 65 66  1  0
 66 67  1  0
 67 68  1  0
 68 69  1  0
 69 70  1  0
 70 71  1  0
 71 72  1  0
 72 73  1  0
 73 74  1  0
 71 75  1  0
 75 76  1  0
 68 77  1  0
 77 78  1  0
 64 79  1  0
 79 80  2  0
 80 81  1  0
 81 82  1  0
 82 83  1  0
 83 84  1  0
 81 85  2  0
 85 86  1  0
 85 87  1  0
 87 88  2  3
 88 89  1  0
 89 90  2  0
 89 91  1  0
 91 92  2  0
 92 93  1  0
 93 94  1  0
 94 95  2  0
 95 96  1  0
 96 97  2  3
 97 98  1  0
 98 99  3  0
 97100  1  0
100101  3  0
 11  2  1  0
 23 17  1  0
 31 24  1  0
 74 32  1  0
 86 79  1  0
 96 88  1  0
 10  5  1  0
 22 18  1  0
 41 34  1  0
 73 42  2  0
 95 91  1  0
 23  7  1  0
 72 44  2  0
 70 45  2  0
 50 46  2  0
 69 51  2  0
 67 52  2  0
 66 54  2  0
 63 56  1  0
  1102  1  0
  6103  1  0
  9104  1  0
 17105  1  0
 18106  1  0
 19107  1  0
 20108  1  0
 21109  1  0
 22110  1  0
 22111  1  0
 23112  1  0
 25113  1  0
 28114  1  0
 28115  1  0
 29116  1  0
 29117  1  0
 29118  1  0
 35119  1  0
 36120  1  0
 37121  1  0
 39122  1  0
 39123  1  0
 40124  1  0
 40125  1  0
 40126  1  0
 41127  1  0
 57128  1  0
 58129  1  0
 59130  1  0
 61131  1  0
 61132  1  0
 62133  1  0
 62134  1  0
 62135  1  0
 63136  1  0
 75137  1  0
 75138  1  0
 76139  1  0
 76140  1  0
 76141  1  0
 77142  1  0
 77143  1  0
 78144  1  0
 78145  1  0
 78146  1  0
 80147  1  0
 83148  1  0
 83149  1  0
 84150  1  0
 84151  1  0
 84152  1  0
 87153  1  0
 92154  1  0
 94155  1  0
M  END

