
     RDKit          3D

158176  0  0  0  0  0  0  0  0999 V2000
    9.2320    0.1846    0.6509 C   0  0  0  0  0  0  0  0  0  0  0  0
    9.3287   -0.9157   -0.1193 C   0  0  0  0  0  0  0  0  0  0  0  0
    8.3080   -1.9639   -0.2503 C   0  0  0  0  0  0  0  0  0  0  0  0
    7.6106   -2.4496    0.6816 O   0  0  0  0  0  0  0  0  0  0  0  0
    8.3663   -2.4981   -1.5912 C   0  0  0  0  0  0  0  0  0  0  0  0
    7.4848   -3.4345   -2.1736 C   0  0  0  0  0  0  0  0  0  0  0  0
    7.7565   -3.7223   -3.4944 C   0  0  0  0  0  0  0  0  0  0  0  0
    8.8325   -3.1102   -4.2199 C   0  0  0  0  0  0  0  0  0  0  0  0
    9.7015   -2.1890   -3.6595 C   0  0  0  0  0  0  0  0  0  0  0  0
    9.4467   -1.8959   -2.2897 C   0  0  0  0  0  0  0  0  0  0  0  0
   10.1659   -0.9864   -1.3571 C   0  0  0  0  0  0  0  0  0  0  0  0
   11.4161   -0.4780   -1.4943 C   0  0  0  0  0  0  0  0  0  0  0  0
   12.1497   -0.5386   -2.7317 C   0  0  0  0  0  0  0  0  0  0  0  0
   12.7445   -0.5734   -3.7277 N   0  0  0  0  0  0  0  0  0  0  0  0
   12.1217    0.0916   -0.3718 C   0  0  0  0  0  0  0  0  0  0  0  0
   12.6948    0.5315    0.5316 N   0  0  0  0  0  0  0  0  0  0  0  0
    8.4475   -3.8692   -5.4551 C   0  0  0  0  0  0  0  0  0  0  0  0
    7.7236   -3.0528   -6.5627 C   0  0  0  0  0  0  0  0  0  0  0  0
    7.1170   -4.0725   -7.4926 C   0  0  0  0  0  0  0  0  0  0  0  0
    6.1108   -4.6471   -6.8193 C   0  0  0  0  0  0  0  0  0  0  0  0
    6.0739   -3.9897   -5.4578 C   0  0  0  0  0  0  0  0  0  0  0  0
    6.4545   -2.5797   -5.8703 C   0  0  0  0  0  0  0  0  0  0  0  0
    7.3440   -4.4901   -4.7141 C   0  0  0  0  0  0  0  0  0  0  0  0
    8.0515    0.5006    1.4732 C   0  0  0  0  0  0  0  0  0  0  0  0
    7.4604   -0.2516    2.4819 C   0  0  0  0  0  0  0  0  0  0  0  0
    6.2761    0.3087    2.9839 C   0  0  0  0  0  0  0  0  0  0  0  0
    5.3467   -0.5244    4.2796 S   0  0  0  0  0  0  0  0  0  0  0  0
    6.3167    0.1906    5.6580 C   0  0  0  0  0  0  0  0  0  0  0  0
    5.5337    1.3071    6.3353 C   0  0  0  0  0  0  0  0  0  0  0  0
    5.9033    1.5105    2.3446 C   0  0  0  0  0  0  0  0  0  0  0  0
    7.1275    1.8674    1.2429 S   0  0  0  0  0  0  0  0  0  0  0  0
    4.7022    2.3618    2.5739 C   0  0  0  0  0  0  0  0  0  0  0  0
    4.4383    3.6190    1.9739 C   0  0  0  0  0  0  0  0  0  0  0  0
    4.9987    4.0469    0.6767 C   0  0  0  0  0  0  0  0  0  0  0  0
    5.7220    5.2406    0.5485 C   0  0  0  0  0  0  0  0  0  0  0  0
    6.3084    5.5713   -0.6764 C   0  0  0  0  0  0  0  0  0  0  0  0
    6.1873    4.7108   -1.7729 C   0  0  0  0  0  0  0  0  0  0  0  0
    5.4296    3.5312   -1.6658 C   0  0  0  0  0  0  0  0  0  0  0  0
    5.3516    2.5577   -2.8131 C   0  0  0  0  0  0  0  0  0  0  0  0
    6.3524    1.4203   -2.6270 C   0  0  0  0  0  0  0  0  0  0  0  0
    4.8180    3.2208   -0.4448 C   0  0  0  0  0  0  0  0  0  0  0  0
    3.2647    4.1832    2.4774 C   0  0  0  0  0  0  0  0  0  0  0  0
    2.3595    5.5456    2.0212 S   0  0  0  0  0  0  0  0  0  0  0  0
    1.0514    5.0793    2.9944 C   0  0  0  0  0  0  0  0  0  0  0  0
   -0.2924    5.2399    2.8261 C   0  0  0  0  0  0  0  0  0  0  0  0
   -0.9744    6.1194    1.9738 C   0  0  0  0  0  0  0  0  0  0  0  0
   -2.3398    5.8581    1.6615 C   0  0  0  0  0  0  0  0  0  0  0  0
   -2.9478    6.6967    0.7828 N   0  0  0  0  0  0  0  0  0  0  0  0
   -1.6826    7.7138    0.4582 S   0  0  0  0  0  0  0  0  0  0  0  0
   -0.3922    7.1812    1.3503 N   0  0  0  0  0  0  0  0  0  0  0  0
   -2.9514    4.7466    2.2385 C   0  0  0  0  0  0  0  0  0  0  0  0
   -4.1861    4.1865    2.0464 C   0  0  0  0  0  0  0  0  0  0  0  0
   -5.5054    4.2966    0.9852 S   0  0  0  0  0  0  0  0  0  0  0  0
   -6.1010    2.7801    1.5107 C   0  0  0  0  0  0  0  0  0  0  0  0
   -7.0575    1.8901    1.0028 C   0  0  0  0  0  0  0  0  0  0  0  0
   -8.1829    2.3019    0.1320 C   0  0  0  0  0  0  0  0  0  0  0  0
   -7.9785    3.1364   -0.9811 C   0  0  0  0  0  0  0  0  0  0  0  0
   -9.0678    3.6094   -1.7131 C   0  0  0  0  0  0  0  0  0  0  0  0
  -10.3703    3.2499   -1.3585 C   0  0  0  0  0  0  0  0  0  0  0  0
  -10.5901    2.3969   -0.2646 C   0  0  0  0  0  0  0  0  0  0  0  0
  -11.9892    1.9858    0.1202 C   0  0  0  0  0  0  0  0  0  0  0  0
  -12.4236    2.6573    1.4169 C   0  0  0  0  0  0  0  0  0  0  0  0
   -9.4906    1.9461    0.4867 C   0  0  0  0  0  0  0  0  0  0  0  0
   -6.8816    0.5929    1.5522 C   0  0  0  0  0  0  0  0  0  0  0  0
   -5.6057    0.6222    2.6861 S   0  0  0  0  0  0  0  0  0  0  0  0
   -5.2809    2.2416    2.4719 C   0  0  0  0  0  0  0  0  0  0  0  0
   -4.2139    3.0539    2.7838 C   0  0  0  0  0  0  0  0  0  0  0  0
   -3.0895    2.8546    3.5055 N   0  0  0  0  0  0  0  0  0  0  0  0
   -2.2708    3.8767    3.1062 C   0  0  0  0  0  0  0  0  0  0  0  0
   -0.8882    4.0824    3.3553 C   0  0  0  0  0  0  0  0  0  0  0  0
    0.0755    3.1743    3.7482 N   0  0  0  0  0  0  0  0  0  0  0  0
    1.2465    3.8499    3.5687 C   0  0  0  0  0  0  0  0  0  0  0  0
    2.5388    3.3791    3.3152 C   0  0  0  0  0  0  0  0  0  0  0  0
    3.3737    1.9505    3.5534 S   0  0  0  0  0  0  0  0  0  0  0  0
   -0.0202    1.7062    3.6449 C   0  0  0  0  0  0  0  0  0  0  0  0
    0.3335    1.0024    4.9554 C   0  0  0  0  0  0  0  0  0  0  0  0
   -3.0182    2.1056    4.7624 C   0  0  0  0  0  0  0  0  0  0  0  0
   -4.1863    2.4507    5.6871 C   0  0  0  0  0  0  0  0  0  0  0  0
   -7.4284   -0.6684    1.0174 C   0  0  0  0  0  0  0  0  0  0  0  0
   -7.1286   -1.9337    1.5166 C   0  0  0  0  0  0  0  0  0  0  0  0
   -7.5446   -2.9776    0.6751 C   0  0  0  0  0  0  0  0  0  0  0  0
   -7.2079   -4.7039    1.0285 S   0  0  0  0  0  0  0  0  0  0  0  0
   -8.5178   -4.8764    2.2991 C   0  0  0  0  0  0  0  0  0  0  0  0
   -7.8808   -5.0757    3.6679 C   0  0  0  0  0  0  0  0  0  0  0  0
   -8.1731   -2.5390   -0.4795 C   0  0  0  0  0  0  0  0  0  0  0  0
   -8.1972   -0.8616   -0.4687 S   0  0  0  0  0  0  0  0  0  0  0  0
   -8.4984   -3.3696   -1.6429 C   0  0  0  0  0  0  0  0  0  0  0  0
   -7.7112   -3.4326   -2.7347 C   0  0  0  0  0  0  0  0  0  0  0  0
   -6.4018   -2.7507   -2.8756 C   0  0  0  0  0  0  0  0  0  0  0  0
   -5.8162   -2.0462   -2.0163 O   0  0  0  0  0  0  0  0  0  0  0  0
   -5.8573   -3.1027   -4.1604 C   0  0  0  0  0  0  0  0  0  0  0  0
   -6.7086   -3.9619   -4.8137 C   0  0  0  0  0  0  0  0  0  0  0  0
   -6.2781   -4.3219   -6.0881 C   0  0  0  0  0  0  0  0  0  0  0  0
   -4.7964   -3.5319   -6.3346 S   0  0  0  0  0  0  0  0  0  0  0  0
   -4.7022   -2.7589   -4.8372 C   0  0  0  0  0  0  0  0  0  0  0  0
   -3.6503   -1.7930   -4.4035 C   0  0  0  0  0  0  0  0  0  0  0  0
   -7.9118   -4.2395   -3.9893 C   0  0  0  0  0  0  0  0  0  0  0  0
   -8.9321   -5.0734   -4.3270 C   0  0  0  0  0  0  0  0  0  0  0  0
   -8.9126   -5.8461   -5.5437 C   0  0  0  0  0  0  0  0  0  0  0  0
   -8.9030   -6.4751   -6.5168 N   0  0  0  0  0  0  0  0  0  0  0  0
  -10.0947   -5.2814   -3.5038 C   0  0  0  0  0  0  0  0  0  0  0  0
  -11.0352   -5.4593   -2.8527 N   0  0  0  0  0  0  0  0  0  0  0  0
    9.8762    1.0306    0.4384 H   0  0  0  0  0  0  0  0  0  0  0  0
    6.6615   -3.8846   -1.6302 H   0  0  0  0  0  0  0  0  0  0  0  0
   10.4764   -1.7331   -4.2563 H   0  0  0  0  0  0  0  0  0  0  0  0
    9.2326   -4.5777   -5.8031 H   0  0  0  0  0  0  0  0  0  0  0  0
    8.3324   -2.2601   -7.0541 H   0  0  0  0  0  0  0  0  0  0  0  0
    7.3743   -4.2566   -8.5312 H   0  0  0  0  0  0  0  0  0  0  0  0
    5.4111   -5.3747   -7.2179 H   0  0  0  0  0  0  0  0  0  0  0  0
    5.1173   -4.0915   -4.9077 H   0  0  0  0  0  0  0  0  0  0  0  0
    5.7091   -2.1105   -6.5619 H   0  0  0  0  0  0  0  0  0  0  0  0
    6.6274   -1.8838   -5.0209 H   0  0  0  0  0  0  0  0  0  0  0  0
    7.4342   -5.5926   -4.5893 H   0  0  0  0  0  0  0  0  0  0  0  0
    7.8878   -1.1743    2.8659 H   0  0  0  0  0  0  0  0  0  0  0  0
    6.5023   -0.6175    6.3957 H   0  0  0  0  0  0  0  0  0  0  0  0
    7.3005    0.5810    5.3186 H   0  0  0  0  0  0  0  0  0  0  0  0
    4.5480    0.9342    6.6868 H   0  0  0  0  0  0  0  0  0  0  0  0
    6.1097    1.6788    7.2086 H   0  0  0  0  0  0  0  0  0  0  0  0
    5.3787    2.1569    5.6368 H   0  0  0  0  0  0  0  0  0  0  0  0
    5.8439    5.9023    1.3969 H   0  0  0  0  0  0  0  0  0  0  0  0
    6.8813    6.4847   -0.7698 H   0  0  0  0  0  0  0  0  0  0  0  0
    6.6781    4.9640   -2.7007 H   0  0  0  0  0  0  0  0  0  0  0  0
    5.5564    3.0744   -3.7783 H   0  0  0  0  0  0  0  0  0  0  0  0
    4.3255    2.1321   -2.8740 H   0  0  0  0  0  0  0  0  0  0  0  0
    6.1441    0.8661   -1.6850 H   0  0  0  0  0  0  0  0  0  0  0  0
    7.3898    1.8220   -2.5960 H   0  0  0  0  0  0  0  0  0  0  0  0
    6.2688    0.7076   -3.4790 H   0  0  0  0  0  0  0  0  0  0  0  0
    4.2545    2.2977   -0.3455 H   0  0  0  0  0  0  0  0  0  0  0  0
   -6.9822    3.4201   -1.2854 H   0  0  0  0  0  0  0  0  0  0  0  0
   -8.9017    4.2724   -2.5567 H   0  0  0  0  0  0  0  0  0  0  0  0
  -11.2014    3.6238   -1.9424 H   0  0  0  0  0  0  0  0  0  0  0  0
  -12.7116    2.2514   -0.6852 H   0  0  0  0  0  0  0  0  0  0  0  0
  -12.0218    0.8774    0.2443 H   0  0  0  0  0  0  0  0  0  0  0  0
  -11.7651    2.3344    2.2556 H   0  0  0  0  0  0  0  0  0  0  0  0
  -12.3816    3.7620    1.3109 H   0  0  0  0  0  0  0  0  0  0  0  0
  -13.4674    2.3603    1.6558 H   0  0  0  0  0  0  0  0  0  0  0  0
   -9.6663    1.3054    1.3473 H   0  0  0  0  0  0  0  0  0  0  0  0
    0.6579    1.3501    2.8419 H   0  0  0  0  0  0  0  0  0  0  0  0
   -1.0226    1.3898    3.3092 H   0  0  0  0  0  0  0  0  0  0  0  0
   -0.2490    1.3916    5.8102 H   0  0  0  0  0  0  0  0  0  0  0  0
    1.4004    1.1239    5.2071 H   0  0  0  0  0  0  0  0  0  0  0  0
    0.1232   -0.0838    4.8586 H   0  0  0  0  0  0  0  0  0  0  0  0
   -2.0973    2.3877    5.3054 H   0  0  0  0  0  0  0  0  0  0  0  0
   -3.0106    1.0092    4.5550 H   0  0  0  0  0  0  0  0  0  0  0  0
   -5.1033    1.9327    5.3543 H   0  0  0  0  0  0  0  0  0  0  0  0
   -3.9592    2.1128    6.7186 H   0  0  0  0  0  0  0  0  0  0  0  0
   -4.3531    3.5472    5.7024 H   0  0  0  0  0  0  0  0  0  0  0  0
   -6.5677   -2.1104    2.4244 H   0  0  0  0  0  0  0  0  0  0  0  0
   -9.1422   -5.7565    2.0498 H   0  0  0  0  0  0  0  0  0  0  0  0
   -9.1858   -3.9864    2.3293 H   0  0  0  0  0  0  0  0  0  0  0  0
   -8.6580   -5.0385    4.4610 H   0  0  0  0  0  0  0  0  0  0  0  0
   -7.3724   -6.0612    3.7034 H   0  0  0  0  0  0  0  0  0  0  0  0
   -7.1345   -4.2747    3.8594 H   0  0  0  0  0  0  0  0  0  0  0  0
   -9.3868   -3.9623   -1.5479 H   0  0  0  0  0  0  0  0  0  0  0  0
   -6.7784   -4.9463   -6.8058 H   0  0  0  0  0  0  0  0  0  0  0  0
   -2.7381   -1.9159   -5.0252 H   0  0  0  0  0  0  0  0  0  0  0  0
   -3.3850   -1.9766   -3.3426 H   0  0  0  0  0  0  0  0  0  0  0  0
   -4.0294   -0.7522   -4.5164 H   0  0  0  0  0  0  0  0  0  0  0  0
  1  2  2  3
  2  3  1  0
  3  4  2  0
  3  5  1  0
  5  6  2  0
  6  7  1  0
  7  8  2  0
  8  9  1  0
  9 10  2  0
 10 11  1  0
 11 12  2  3
 12 13  1  0
 13 14  3  0
 12 15  1  0
 15 16  3  0
  8 17  1  0
 17 18  1  0
 18 19  1  0
 19 20  2  0
 20 21  1  0
 21 22  1  0
 21 23  1  0
  1 24  1  0
 24 25  2  0
 25 26  1  0
 26 27  1  0
 27 28  1  0
 28 29  1  0
 26 30  2  0
 30 31  1  0
 30 32  1  0
 32 33  2  0
 33 34  1  0
 34 35  2  0
 35 36  1  0
 36 37  2  0
 37 38  1  0
 38 39  1  0
 39 40  1  0
 38 41  2  0
 33 42  1  0
 42 43  1  0
 43 44  1  0
 44 45  1  0
 45 46  1  0
 46 47  1  0
 47 48  2  0
 48 49  1  0
 49 50  1  0
 47 51  1  0
 51 52  1  0
 52 53  1  0
 53 54  1  0
 54 55  1  0
 55 56  1  0
 56 57  2  0
 57 58  1  0
 58 59  2  0
 59 60  1  0
 60 61  1  0
 61 62  1  0
 60 63  2  0
 55 64  2  0
 64 65  1  0
 65 66  1  0
 66 67  1  0
 67 68  1  0
 68 69  1  0
 69 70  1  0
 70 71  1  0
 71 72  1  0
 72 73  1  0
 73 74  1  0
 71 75  1  0
 75 76  1  0
 68 77  1  0
 77 78  1  0
 64 79  1  0
 79 80  2  0
 80 81  1  0
 81 82  1  0
 82 83  1  0
 83 84  1  0
 81 85  2  0
 85 86  1  0
 85 87  1  0
 87 88  2  3
 88 89  1  0
 89 90  2  0
 89 91  1  0
 91 92  1  0
 92 93  2  0
 93 94  1  0
 94 95  1  0
 95 96  1  0
 92 97  1  0
 97 98  2  3
 98 99  1  0
 99100  3  0
 98101  1  0
101102  3  0
 11  2  1  0
 23 17  1  0
 31 24  1  0
 74 32  1  0
 86 79  1  0
 97 88  1  0
 10  5  1  0
 22 18  1  0
 41 34  1  0
 73 42  2  0
 95 91  2  0
 23  7  1  0
 72 44  2  0
 70 45  2  0
 50 46  2  0
 69 51  2  0
 67 52  2  0
 66 54  2  0
 63 56  1  0
  1103  1  0
  6104  1  0
  9105  1  0
 17106  1  0
 18107  1  0
 19108  1  0
 20109  1  0
 21110  1  0
 22111  1  0
 22112  1  0
 23113  1  0
 25114  1  0
 28115  1  0
 28116  1  0
 29117  1  0
 29118  1  0
 29119  1  0
 35120  1  0
 36121  1  0
 37122  1  0
 39123  1  0
 39124  1  0
 40125  1  0
 40126  1  0
 40127  1  0
 41128  1  0
 57129  1  0
 58130  1  0
 59131  1  0
 61132  1  0
 61133  1  0
 62134  1  0
 62135  1  0
 62136  1  0
 63137  1  0
 75138  1  0
 75139  1  0
 76140  1  0
 76141  1  0
 76142  1  0
 77143  1  0
 77144  1  0
 78145  1  0
 78146  1  0
 78147  1  0
 80148  1  0
 83149  1  0
 83150  1  0
 84151  1  0
 84152  1  0
 84153  1  0
 87154  1  0
 93155  1  0
 96156  1  0
 96157  1  0
 96158  1  0
M  END

