
     RDKit          3D

158176  0  0  0  0  0  0  0  0999 V2000
    5.5505   -2.9547   -3.5501 C   0  0  0  0  0  0  0  0  0  0  0  0
    6.0672   -3.3589   -2.3628 C   0  0  0  0  0  0  0  0  0  0  0  0
    5.5785   -4.4807   -1.5461 C   0  0  0  0  0  0  0  0  0  0  0  0
    4.8774   -5.4513   -1.9454 O   0  0  0  0  0  0  0  0  0  0  0  0
    6.1222   -4.3620   -0.2115 C   0  0  0  0  0  0  0  0  0  0  0  0
    5.7850   -5.1303    0.9280 C   0  0  0  0  0  0  0  0  0  0  0  0
    6.3463   -4.6646    2.1029 C   0  0  0  0  0  0  0  0  0  0  0  0
    7.1823   -3.5026    2.1642 C   0  0  0  0  0  0  0  0  0  0  0  0
    7.5360   -2.7669    1.0453 C   0  0  0  0  0  0  0  0  0  0  0  0
    7.0010   -3.2535   -0.1804 C   0  0  0  0  0  0  0  0  0  0  0  0
    7.1228   -2.6799   -1.5508 C   0  0  0  0  0  0  0  0  0  0  0  0
    8.1440   -1.8924   -1.9859 C   0  0  0  0  0  0  0  0  0  0  0  0
    8.2553   -1.4297   -3.3421 C   0  0  0  0  0  0  0  0  0  0  0  0
    8.3709   -1.0406   -4.4272 N   0  0  0  0  0  0  0  0  0  0  0  0
    9.3090   -1.6675   -1.1739 C   0  0  0  0  0  0  0  0  0  0  0  0
   10.2602   -1.5134   -0.5370 N   0  0  0  0  0  0  0  0  0  0  0  0
    7.2921   -3.6435    3.6547 C   0  0  0  0  0  0  0  0  0  0  0  0
    8.6421   -4.1593    4.2435 C   0  0  0  0  0  0  0  0  0  0  0  0
    9.3191   -5.0753    3.2526 C   0  0  0  0  0  0  0  0  0  0  0  0
    8.5657   -6.1721    3.1706 C   0  0  0  0  0  0  0  0  0  0  0  0
    7.4069   -5.9702    4.1188 C   0  0  0  0  0  0  0  0  0  0  0  0
    8.1230   -5.2028    5.2139 C   0  0  0  0  0  0  0  0  0  0  0  0
    6.4620   -4.8509    3.5860 C   0  0  0  0  0  0  0  0  0  0  0  0
    4.2795   -3.4444   -4.1204 C   0  0  0  0  0  0  0  0  0  0  0  0
    3.9360   -3.3684   -5.4669 C   0  0  0  0  0  0  0  0  0  0  0  0
    2.5709   -3.5911   -5.7122 C   0  0  0  0  0  0  0  0  0  0  0  0
    1.8468   -3.4421   -7.3463 S   0  0  0  0  0  0  0  0  0  0  0  0
    1.6861   -1.6246   -7.2634 C   0  0  0  0  0  0  0  0  0  0  0  0
    0.5115   -1.1664   -8.1188 C   0  0  0  0  0  0  0  0  0  0  0  0
    1.8372   -3.8777   -4.5611 C   0  0  0  0  0  0  0  0  0  0  0  0
    2.8708   -3.7500   -3.2493 S   0  0  0  0  0  0  0  0  0  0  0  0
    0.3758   -4.0121   -4.4314 C   0  0  0  0  0  0  0  0  0  0  0  0
   -0.2626   -4.9240   -3.5678 C   0  0  0  0  0  0  0  0  0  0  0  0
    0.4317   -6.0109   -2.8461 C   0  0  0  0  0  0  0  0  0  0  0  0
    1.1985   -6.9479   -3.5544 C   0  0  0  0  0  0  0  0  0  0  0  0
    1.8513   -7.9806   -2.8762 C   0  0  0  0  0  0  0  0  0  0  0  0
    1.7432   -8.0867   -1.4880 C   0  0  0  0  0  0  0  0  0  0  0  0
    0.9948   -7.1470   -0.7641 C   0  0  0  0  0  0  0  0  0  0  0  0
    0.8954   -7.2507    0.7366 C   0  0  0  0  0  0  0  0  0  0  0  0
    2.1794   -6.7633    1.4120 C   0  0  0  0  0  0  0  0  0  0  0  0
    0.3599   -6.0982   -1.4454 C   0  0  0  0  0  0  0  0  0  0  0  0
   -1.5972   -4.5685   -3.3557 C   0  0  0  0  0  0  0  0  0  0  0  0
   -2.7246   -5.0531   -2.1880 S   0  0  0  0  0  0  0  0  0  0  0  0
   -3.7349   -3.7402   -2.5320 C   0  0  0  0  0  0  0  0  0  0  0  0
   -4.5450   -2.9738   -1.7396 C   0  0  0  0  0  0  0  0  0  0  0  0
   -4.9689   -3.2393   -0.4343 C   0  0  0  0  0  0  0  0  0  0  0  0
   -5.4498   -2.1702    0.3606 C   0  0  0  0  0  0  0  0  0  0  0  0
   -5.8149   -2.4602    1.6336 N   0  0  0  0  0  0  0  0  0  0  0  0
   -5.4735   -4.0774    1.6554 S   0  0  0  0  0  0  0  0  0  0  0  0
   -4.8943   -4.4583    0.1554 N   0  0  0  0  0  0  0  0  0  0  0  0
   -5.5196   -0.8990   -0.2059 C   0  0  0  0  0  0  0  0  0  0  0  0
   -5.8949    0.2760    0.3492 C   0  0  0  0  0  0  0  0  0  0  0  0
   -6.2610    0.8896    1.8849 S   0  0  0  0  0  0  0  0  0  0  0  0
   -6.3631    2.4623    1.2341 C   0  0  0  0  0  0  0  0  0  0  0  0
   -6.4731    3.7229    1.8255 C   0  0  0  0  0  0  0  0  0  0  0  0
   -6.5101    3.9474    3.2833 C   0  0  0  0  0  0  0  0  0  0  0  0
   -7.5269    4.7266    3.8592 C   0  0  0  0  0  0  0  0  0  0  0  0
   -7.5620    4.9282    5.2405 C   0  0  0  0  0  0  0  0  0  0  0  0
   -6.5616    4.3818    6.0547 C   0  0  0  0  0  0  0  0  0  0  0  0
   -5.5205    3.6285    5.4914 C   0  0  0  0  0  0  0  0  0  0  0  0
   -4.4315    3.0494    6.3599 C   0  0  0  0  0  0  0  0  0  0  0  0
   -4.7385    1.5974    6.7287 C   0  0  0  0  0  0  0  0  0  0  0  0
   -5.5089    3.4034    4.1077 C   0  0  0  0  0  0  0  0  0  0  0  0
   -6.3815    4.7438    0.8606 C   0  0  0  0  0  0  0  0  0  0  0  0
   -6.1145    4.0573   -0.6759 S   0  0  0  0  0  0  0  0  0  0  0  0
   -6.1506    2.4751   -0.1241 C   0  0  0  0  0  0  0  0  0  0  0  0
   -5.8329    1.2125   -0.6153 C   0  0  0  0  0  0  0  0  0  0  0  0
   -5.4019    0.7204   -1.8078 N   0  0  0  0  0  0  0  0  0  0  0  0
   -5.1567   -0.6143   -1.5395 C   0  0  0  0  0  0  0  0  0  0  0  0
   -4.5658   -1.6790   -2.3085 C   0  0  0  0  0  0  0  0  0  0  0  0
   -3.7050   -1.6593   -3.3875 N   0  0  0  0  0  0  0  0  0  0  0  0
   -3.2157   -2.9254   -3.4857 C   0  0  0  0  0  0  0  0  0  0  0  0
   -1.9995   -3.4120   -3.9829 C   0  0  0  0  0  0  0  0  0  0  0  0
   -0.7111   -2.7691   -4.8431 S   0  0  0  0  0  0  0  0  0  0  0  0
   -3.2703   -0.5498   -4.2422 C   0  0  0  0  0  0  0  0  0  0  0  0
   -3.9551   -0.6423   -5.6132 C   0  0  0  0  0  0  0  0  0  0  0  0
   -5.6950    1.3775   -3.0951 C   0  0  0  0  0  0  0  0  0  0  0  0
   -4.7136    2.5301   -3.3905 C   0  0  0  0  0  0  0  0  0  0  0  0
   -6.1041    6.1590    1.1385 C   0  0  0  0  0  0  0  0  0  0  0  0
   -6.5142    7.2221    0.3415 C   0  0  0  0  0  0  0  0  0  0  0  0
   -5.8458    8.4184    0.6341 C   0  0  0  0  0  0  0  0  0  0  0  0
   -6.0969    9.9290   -0.3170 S   0  0  0  0  0  0  0  0  0  0  0  0
   -7.5535   10.4867    0.6394 C   0  0  0  0  0  0  0  0  0  0  0  0
   -7.1398   11.1020    1.9722 C   0  0  0  0  0  0  0  0  0  0  0  0
   -4.8969    8.2868    1.6486 C   0  0  0  0  0  0  0  0  0  0  0  0
   -4.8999    6.6921    2.1889 S   0  0  0  0  0  0  0  0  0  0  0  0
   -3.8631    9.2716    1.9941 C   0  0  0  0  0  0  0  0  0  0  0  0
   -2.6206    9.2252    1.4741 C   0  0  0  0  0  0  0  0  0  0  0  0
   -2.0997    8.1667    0.5954 C   0  0  0  0  0  0  0  0  0  0  0  0
   -2.7764    7.2829    0.0132 O   0  0  0  0  0  0  0  0  0  0  0  0
   -0.6559    8.2973    0.5177 C   0  0  0  0  0  0  0  0  0  0  0  0
   -0.2642    9.4061    1.2515 C   0  0  0  0  0  0  0  0  0  0  0  0
    1.1012    9.6790    1.4233 C   0  0  0  0  0  0  0  0  0  0  0  0
    2.0443    8.8616    0.7866 C   0  0  0  0  0  0  0  0  0  0  0  0
    1.6391    7.7665    0.0068 C   0  0  0  0  0  0  0  0  0  0  0  0
    2.9870    6.7034   -0.8560 Br  0  0  0  0  0  0  0  0  0  0  0  0
    0.2725    7.4616   -0.1267 C   0  0  0  0  0  0  0  0  0  0  0  0
   -0.2620    6.0674   -1.0653 Cl  0  0  0  0  0  0  0  0  0  0  0  0
   -1.4615   10.1154    1.7906 C   0  0  0  0  0  0  0  0  0  0  0  0
   -1.5127   11.4027    2.2238 C   0  0  0  0  0  0  0  0  0  0  0  0
   -2.7546   12.0819    2.4950 C   0  0  0  0  0  0  0  0  0  0  0  0
   -3.7432   12.6382    2.7123 N   0  0  0  0  0  0  0  0  0  0  0  0
   -0.3474   12.2443    2.2844 C   0  0  0  0  0  0  0  0  0  0  0  0
    0.5782   12.9346    2.3248 N   0  0  0  0  0  0  0  0  0  0  0  0
    5.9851   -2.1283   -4.0767 H   0  0  0  0  0  0  0  0  0  0  0  0
    5.1056   -5.9754    0.8975 H   0  0  0  0  0  0  0  0  0  0  0  0
    8.1326   -1.8726    1.1283 H   0  0  0  0  0  0  0  0  0  0  0  0
    6.8217   -2.8134    4.2311 H   0  0  0  0  0  0  0  0  0  0  0  0
    9.2990   -3.3804    4.6852 H   0  0  0  0  0  0  0  0  0  0  0  0
   10.2632   -4.9087    2.7478 H   0  0  0  0  0  0  0  0  0  0  0  0
    8.8088   -7.0596    2.5975 H   0  0  0  0  0  0  0  0  0  0  0  0
    6.9061   -6.9057    4.4481 H   0  0  0  0  0  0  0  0  0  0  0  0
    8.9332   -5.7867    5.7162 H   0  0  0  0  0  0  0  0  0  0  0  0
    7.4385   -4.7873    5.9898 H   0  0  0  0  0  0  0  0  0  0  0  0
    5.4958   -4.7575    4.1347 H   0  0  0  0  0  0  0  0  0  0  0  0
    4.6394   -3.0944   -6.2427 H   0  0  0  0  0  0  0  0  0  0  0  0
    2.6202   -1.1604   -7.6410 H   0  0  0  0  0  0  0  0  0  0  0  0
    1.5173   -1.2820   -6.2196 H   0  0  0  0  0  0  0  0  0  0  0  0
    0.6570   -1.4851   -9.1697 H   0  0  0  0  0  0  0  0  0  0  0  0
   -0.4301   -1.6098   -7.7378 H   0  0  0  0  0  0  0  0  0  0  0  0
    0.4228   -0.0600   -8.0841 H   0  0  0  0  0  0  0  0  0  0  0  0
    1.2899   -6.8792   -4.6300 H   0  0  0  0  0  0  0  0  0  0  0  0
    2.4373   -8.7023   -3.4332 H   0  0  0  0  0  0  0  0  0  0  0  0
    2.2504   -8.8935   -0.9791 H   0  0  0  0  0  0  0  0  0  0  0  0
    0.0417   -6.6559    1.1199 H   0  0  0  0  0  0  0  0  0  0  0  0
    0.7078   -8.3075    1.0251 H   0  0  0  0  0  0  0  0  0  0  0  0
    2.0720   -6.8501    2.5113 H   0  0  0  0  0  0  0  0  0  0  0  0
    3.0405   -7.3836    1.0912 H   0  0  0  0  0  0  0  0  0  0  0  0
    2.3785   -5.7009    1.1503 H   0  0  0  0  0  0  0  0  0  0  0  0
   -0.1816   -5.3455   -0.8859 H   0  0  0  0  0  0  0  0  0  0  0  0
   -8.2961    5.1717    3.2389 H   0  0  0  0  0  0  0  0  0  0  0  0
   -8.3576    5.5145    5.6865 H   0  0  0  0  0  0  0  0  0  0  0  0
   -6.5948    4.5536    7.1242 H   0  0  0  0  0  0  0  0  0  0  0  0
   -4.3230    3.6488    7.2879 H   0  0  0  0  0  0  0  0  0  0  0  0
   -3.4613    3.0875    5.8177 H   0  0  0  0  0  0  0  0  0  0  0  0
   -3.9126    1.2032    7.3615 H   0  0  0  0  0  0  0  0  0  0  0  0
   -4.8187    0.9739    5.8126 H   0  0  0  0  0  0  0  0  0  0  0  0
   -5.6913    1.5393    7.3062 H   0  0  0  0  0  0  0  0  0  0  0  0
   -4.7148    2.8159    3.6659 H   0  0  0  0  0  0  0  0  0  0  0  0
   -2.1720   -0.5749   -4.3942 H   0  0  0  0  0  0  0  0  0  0  0  0
   -3.4355    0.3994   -3.7439 H   0  0  0  0  0  0  0  0  0  0  0  0
   -5.0452   -0.8318   -5.4936 H   0  0  0  0  0  0  0  0  0  0  0  0
   -3.8038    0.3037   -6.1749 H   0  0  0  0  0  0  0  0  0  0  0  0
   -3.5231   -1.4811   -6.1948 H   0  0  0  0  0  0  0  0  0  0  0  0
   -5.7047    0.6387   -3.9056 H   0  0  0  0  0  0  0  0  0  0  0  0
   -6.7287    1.7965   -3.0724 H   0  0  0  0  0  0  0  0  0  0  0  0
   -5.1857    3.5211   -3.1983 H   0  0  0  0  0  0  0  0  0  0  0  0
   -4.4262    2.5112   -4.4616 H   0  0  0  0  0  0  0  0  0  0  0  0
   -3.7909    2.4491   -2.7663 H   0  0  0  0  0  0  0  0  0  0  0  0
   -7.2280    7.1203   -0.4704 H   0  0  0  0  0  0  0  0  0  0  0  0
   -8.2653    9.6482    0.8116 H   0  0  0  0  0  0  0  0  0  0  0  0
   -8.0795   11.2609    0.0404 H   0  0  0  0  0  0  0  0  0  0  0  0
   -6.4005   11.9142    1.8102 H   0  0  0  0  0  0  0  0  0  0  0  0
   -8.0322   11.5320    2.4773 H   0  0  0  0  0  0  0  0  0  0  0  0
   -6.6986   10.3299    2.6357 H   0  0  0  0  0  0  0  0  0  0  0  0
   -4.1314   10.0026    2.7375 H   0  0  0  0  0  0  0  0  0  0  0  0
    1.4501   10.4717    2.0573 H   0  0  0  0  0  0  0  0  0  0  0  0
    3.0963    9.0782    0.9084 H   0  0  0  0  0  0  0  0  0  0  0  0
  1  2  2  3
  2  3  1  0
  3  4  2  0
  3  5  1  0
  5  6  2  0
  6  7  1  0
  7  8  2  0
  8  9  1  0
  9 10  2  0
 10 11  1  0
 11 12  2  3
 12 13  1  0
 13 14  3  0
 12 15  1  0
 15 16  3  0
  8 17  1  0
 17 18  1  0
 18 19  1  0
 19 20  2  0
 20 21  1  0
 21 22  1  0
 21 23  1  0
  1 24  1  0
 24 25  2  0
 25 26  1  0
 26 27  1  0
 27 28  1  0
 28 29  1  0
 26 30  2  0
 30 31  1  0
 30 32  1  0
 32 33  2  0
 33 34  1  0
 34 35  2  0
 35 36  1  0
 36 37  2  0
 37 38  1  0
 38 39  1  0
 39 40  1  0
 38 41  2  0
 33 42  1  0
 42 43  1  0
 43 44  1  0
 44 45  1  0
 45 46  1  0
 46 47  1  0
 47 48  2  0
 48 49  1  0
 49 50  1  0
 47 51  1  0
 51 52  1  0
 52 53  1  0
 53 54  1  0
 54 55  1  0
 55 56  1  0
 56 57  2  0
 57 58  1  0
 58 59  2  0
 59 60  1  0
 60 61  1  0
 61 62  1  0
 60 63  2  0
 55 64  2  0
 64 65  1  0
 65 66  1  0
 66 67  1  0
 67 68  1  0
 68 69  1  0
 69 70  1  0
 70 71  1  0
 71 72  1  0
 72 73  1  0
 73 74  1  0
 71 75  1  0
 75 76  1  0
 68 77  1  0
 77 78  1  0
 64 79  1  0
 79 80  2  0
 80 81  1  0
 81 82  1  0
 82 83  1  0
 83 84  1  0
 81 85  2  0
 85 86  1  0
 85 87  1  0
 87 88  2  3
 88 89  1  0
 89 90  2  0
 89 91  1  0
 91 92  2  0
 92 93  1  0
 93 94  2  0
 94 95  1  0
 95 96  1  0
 95 97  2  0
 97 98  1  0
 92 99  1  0
 99100  2  3
100101  1  0
101102  3  0
100103  1  0
103104  3  0
 11  2  1  0
 23 17  1  0
 31 24  1  0
 74 32  1  0
 86 79  1  0
 99 88  1  0
 10  5  1  0
 22 18  1  0
 41 34  1  0
 73 42  2  0
 97 91  1  0
 23  7  1  0
 72 44  2  0
 70 45  2  0
 50 46  2  0
 69 51  2  0
 67 52  2  0
 66 54  2  0
 63 56  1  0
  1105  1  0
  6106  1  0
  9107  1  0
 17108  1  0
 18109  1  0
 19110  1  0
 20111  1  0
 21112  1  0
 22113  1  0
 22114  1  0
 23115  1  0
 25116  1  0
 28117  1  0
 28118  1  0
 29119  1  0
 29120  1  0
 29121  1  0
 35122  1  0
 36123  1  0
 37124  1  0
 39125  1  0
 39126  1  0
 40127  1  0
 40128  1  0
 40129  1  0
 41130  1  0
 57131  1  0
 58132  1  0
 59133  1  0
 61134  1  0
 61135  1  0
 62136  1  0
 62137  1  0
 62138  1  0
 63139  1  0
 75140  1  0
 75141  1  0
 76142  1  0
 76143  1  0
 76144  1  0
 77145  1  0
 77146  1  0
 78147  1  0
 78148  1  0
 78149  1  0
 80150  1  0
 83151  1  0
 83152  1  0
 84153  1  0
 84154  1  0
 84155  1  0
 87156  1  0
 93157  1  0
 94158  1  0
M  END

