
     RDKit          3D

185208  0  0  0  0  0  0  0  0999 V2000
    3.3930    4.8910    6.2728 C   0  0  0  0  0  0  0  0  0  0  0  0
    3.4425    3.5573    6.0700 C   0  0  0  0  0  0  0  0  0  0  0  0
    2.3657    2.7423    5.4816 C   0  0  0  0  0  0  0  0  0  0  0  0
    1.4205    3.1538    4.7571 O   0  0  0  0  0  0  0  0  0  0  0  0
    2.5753    1.3629    5.8496 C   0  0  0  0  0  0  0  0  0  0  0  0
    1.6847    0.2844    5.6420 C   0  0  0  0  0  0  0  0  0  0  0  0
    2.1006   -0.9008    6.2162 C   0  0  0  0  0  0  0  0  0  0  0  0
    3.3179   -1.0241    6.9588 C   0  0  0  0  0  0  0  0  0  0  0  0
    4.1927    0.0312    7.1688 C   0  0  0  0  0  0  0  0  0  0  0  0
    3.7939    1.2575    6.5661 C   0  0  0  0  0  0  0  0  0  0  0  0
    4.4485    2.5970    6.6182 C   0  0  0  0  0  0  0  0  0  0  0  0
    5.7607    2.8471    6.8621 C   0  0  0  0  0  0  0  0  0  0  0  0
    6.6943    1.8046    7.2000 C   0  0  0  0  0  0  0  0  0  0  0  0
    7.4572    0.9761    7.4675 N   0  0  0  0  0  0  0  0  0  0  0  0
    6.3474    4.1446    6.6456 C   0  0  0  0  0  0  0  0  0  0  0  0
    6.8318    5.1831    6.4703 N   0  0  0  0  0  0  0  0  0  0  0  0
    3.0273   -2.4719    7.2240 C   0  0  0  0  0  0  0  0  0  0  0  0
    3.8296   -3.5395    6.4191 C   0  0  0  0  0  0  0  0  0  0  0  0
    4.1968   -2.9948    5.0574 C   0  0  0  0  0  0  0  0  0  0  0  0
    3.0581   -2.8794    4.3729 C   0  0  0  0  0  0  0  0  0  0  0  0
    1.9540   -3.3493    5.2913 C   0  0  0  0  0  0  0  0  0  0  0  0
    2.6951   -4.4614    6.0084 C   0  0  0  0  0  0  0  0  0  0  0  0
    1.7770   -2.3433    6.4680 C   0  0  0  0  0  0  0  0  0  0  0  0
    2.2572    5.7028    5.8207 C   0  0  0  0  0  0  0  0  0  0  0  0
    2.1404    6.2141    4.5378 C   0  0  0  0  0  0  0  0  0  0  0  0
    0.8158    6.4616    4.1560 C   0  0  0  0  0  0  0  0  0  0  0  0
    0.4051    6.8702    2.4530 S   0  0  0  0  0  0  0  0  0  0  0  0
    0.1689    5.1437    1.8990 C   0  0  0  0  0  0  0  0  0  0  0  0
    1.4931    4.5140    1.4878 C   0  0  0  0  0  0  0  0  0  0  0  0
   -0.1237    6.1955    5.1616 C   0  0  0  0  0  0  0  0  0  0  0  0
    0.7200    5.5967    6.4875 S   0  0  0  0  0  0  0  0  0  0  0  0
   -1.5399    5.8646    4.9329 C   0  0  0  0  0  0  0  0  0  0  0  0
   -2.4951    6.6266    4.2196 C   0  0  0  0  0  0  0  0  0  0  0  0
   -2.3244    8.0522    3.8575 C   0  0  0  0  0  0  0  0  0  0  0  0
   -2.6298    8.5178    2.5681 C   0  0  0  0  0  0  0  0  0  0  0  0
   -2.4261    9.8588    2.2358 C   0  0  0  0  0  0  0  0  0  0  0  0
   -1.9175   10.7490    3.1838 C   0  0  0  0  0  0  0  0  0  0  0  0
   -1.6174   10.3039    4.4803 C   0  0  0  0  0  0  0  0  0  0  0  0
   -1.0266   11.2476    5.4928 C   0  0  0  0  0  0  0  0  0  0  0  0
    0.4963   11.2109    5.4369 C   0  0  0  0  0  0  0  0  0  0  0  0
   -1.8131    8.9530    4.8075 C   0  0  0  0  0  0  0  0  0  0  0  0
   -3.6043    5.8319    3.8822 C   0  0  0  0  0  0  0  0  0  0  0  0
   -4.8774    6.0035    2.7478 S   0  0  0  0  0  0  0  0  0  0  0  0
   -5.2757    4.3569    2.8782 C   0  0  0  0  0  0  0  0  0  0  0  0
   -5.8504    3.3995    2.0803 C   0  0  0  0  0  0  0  0  0  0  0  0
   -6.7540    3.4649    1.0144 C   0  0  0  0  0  0  0  0  0  0  0  0
   -7.1194    2.2494    0.3520 C   0  0  0  0  0  0  0  0  0  0  0  0
   -7.9854    2.3562   -0.6856 N   0  0  0  0  0  0  0  0  0  0  0  0
   -8.2420    3.9944   -0.6695 S   0  0  0  0  0  0  0  0  0  0  0  0
   -7.3187    4.6107    0.5599 N   0  0  0  0  0  0  0  0  0  0  0  0
   -6.5002    1.0488    0.7418 C   0  0  0  0  0  0  0  0  0  0  0  0
   -6.3753   -0.1370    0.0670 C   0  0  0  0  0  0  0  0  0  0  0  0
   -6.7866   -0.6670   -1.4928 S   0  0  0  0  0  0  0  0  0  0  0  0
   -5.4898   -1.7723   -1.5159 C   0  0  0  0  0  0  0  0  0  0  0  0
   -4.9176   -2.5676   -2.5176 C   0  0  0  0  0  0  0  0  0  0  0  0
   -5.4946   -2.7851   -3.8644 C   0  0  0  0  0  0  0  0  0  0  0  0
   -5.5089   -4.0751   -4.4189 C   0  0  0  0  0  0  0  0  0  0  0  0
   -6.0550   -4.2937   -5.6854 C   0  0  0  0  0  0  0  0  0  0  0  0
   -6.5894   -3.2277   -6.4125 C   0  0  0  0  0  0  0  0  0  0  0  0
   -6.5630   -1.9288   -5.8828 C   0  0  0  0  0  0  0  0  0  0  0  0
   -7.1668   -0.7811   -6.6466 C   0  0  0  0  0  0  0  0  0  0  0  0
   -8.6159   -0.5600   -6.2270 C   0  0  0  0  0  0  0  0  0  0  0  0
   -6.0195   -1.7144   -4.6068 C   0  0  0  0  0  0  0  0  0  0  0  0
   -3.6771   -3.0838   -2.0897 C   0  0  0  0  0  0  0  0  0  0  0  0
   -3.3352   -2.5572   -0.5120 S   0  0  0  0  0  0  0  0  0  0  0  0
   -4.7546   -1.6813   -0.3619 C   0  0  0  0  0  0  0  0  0  0  0  0
   -5.2527   -0.7481    0.5421 C   0  0  0  0  0  0  0  0  0  0  0  0
   -4.6333   -0.0239    1.5134 N   0  0  0  0  0  0  0  0  0  0  0  0
   -5.4886    1.0302    1.7130 C   0  0  0  0  0  0  0  0  0  0  0  0
   -5.2687    2.1914    2.4820 C   0  0  0  0  0  0  0  0  0  0  0  0
   -4.4487    2.3650    3.5569 N   0  0  0  0  0  0  0  0  0  0  0  0
   -4.4571    3.7029    3.7424 C   0  0  0  0  0  0  0  0  0  0  0  0
   -3.5269    4.5357    4.3259 C   0  0  0  0  0  0  0  0  0  0  0  0
   -2.0874    4.2635    5.1148 S   0  0  0  0  0  0  0  0  0  0  0  0
   -4.1083    1.3726    4.5880 C   0  0  0  0  0  0  0  0  0  0  0  0
   -4.9608    1.5705    5.8386 C   0  0  0  0  0  0  0  0  0  0  0  0
   -3.1653    0.0327    1.6516 C   0  0  0  0  0  0  0  0  0  0  0  0
   -2.5388    0.8353    0.5094 C   0  0  0  0  0  0  0  0  0  0  0  0
   -2.6555   -3.6974   -2.9467 C   0  0  0  0  0  0  0  0  0  0  0  0
   -1.9110   -5.1699   -2.6194 S   0  0  0  0  0  0  0  0  0  0  0  0
   -0.8110   -5.1120   -3.8875 C   0  0  0  0  0  0  0  0  0  0  0  0
   -1.0126   -3.9249   -4.5998 C   0  0  0  0  0  0  0  0  0  0  0  0
   -0.2497   -3.4886   -5.7916 C   0  0  0  0  0  0  0  0  0  0  0  0
    0.5681   -4.2686   -6.3471 O   0  0  0  0  0  0  0  0  0  0  0  0
   -0.5017   -2.1302   -6.3331 C   0  0  0  0  0  0  0  0  0  0  0  0
    0.1653   -1.5332   -7.4115 C   0  0  0  0  0  0  0  0  0  0  0  0
    1.3172   -2.0794   -8.2048 C   0  0  0  0  0  0  0  0  0  0  0  0
    2.6227   -1.9566   -7.4236 C   0  0  0  0  0  0  0  0  0  0  0  0
   -0.4563    0.0147   -7.6209 S   0  0  0  0  0  0  0  0  0  0  0  0
   -1.5930   -0.0479   -6.3835 C   0  0  0  0  0  0  0  0  0  0  0  0
   -2.4970    1.0963   -6.0244 C   0  0  0  0  0  0  0  0  0  0  0  0
   -1.8758    1.9601   -4.9305 C   0  0  0  0  0  0  0  0  0  0  0  0
   -1.4781   -1.2928   -5.7496 C   0  0  0  0  0  0  0  0  0  0  0  0
   -2.2376   -1.7367   -4.5564 C   0  0  0  0  0  0  0  0  0  0  0  0
   -2.9926   -0.9382   -3.9438 O   0  0  0  0  0  0  0  0  0  0  0  0
   -2.0201   -3.1126   -4.0490 C   0  0  0  0  0  0  0  0  0  0  0  0
    0.2541   -6.1032   -4.0944 C   0  0  0  0  0  0  0  0  0  0  0  0
    1.5572   -5.8331   -3.8782 C   0  0  0  0  0  0  0  0  0  0  0  0
    2.1056   -4.5266   -3.4862 C   0  0  0  0  0  0  0  0  0  0  0  0
    1.4666   -3.5671   -2.9770 O   0  0  0  0  0  0  0  0  0  0  0  0
    3.5230   -4.5167   -3.7685 C   0  0  0  0  0  0  0  0  0  0  0  0
    4.4077   -3.4190   -3.6556 C   0  0  0  0  0  0  0  0  0  0  0  0
    5.6922   -3.6908   -4.0860 C   0  0  0  0  0  0  0  0  0  0  0  0
    6.0890   -4.9622   -4.6104 C   0  0  0  0  0  0  0  0  0  0  0  0
    5.2273   -6.0402   -4.7237 C   0  0  0  0  0  0  0  0  0  0  0  0
    3.9054   -5.7929   -4.2564 C   0  0  0  0  0  0  0  0  0  0  0  0
    2.7241   -6.7033   -4.2188 C   0  0  0  0  0  0  0  0  0  0  0  0
    2.7467   -8.0616   -4.2376 C   0  0  0  0  0  0  0  0  0  0  0  0
    3.9563   -8.8159   -4.4422 C   0  0  0  0  0  0  0  0  0  0  0  0
    4.9189   -9.4383   -4.6030 N   0  0  0  0  0  0  0  0  0  0  0  0
    1.5929   -8.8556   -3.9054 C   0  0  0  0  0  0  0  0  0  0  0  0
    0.6713   -9.5021   -3.6333 N   0  0  0  0  0  0  0  0  0  0  0  0
    7.4821   -4.4538   -4.8359 C   0  0  0  0  0  0  0  0  0  0  0  0
    8.5995   -4.9265   -3.8568 C   0  0  0  0  0  0  0  0  0  0  0  0
    8.0091   -5.1999   -2.4917 C   0  0  0  0  0  0  0  0  0  0  0  0
    7.6364   -4.0196   -1.9955 C   0  0  0  0  0  0  0  0  0  0  0  0
    7.9879   -2.9827   -3.0383 C   0  0  0  0  0  0  0  0  0  0  0  0
    9.2718   -3.5977   -3.5633 C   0  0  0  0  0  0  0  0  0  0  0  0
    7.0775   -3.1530   -4.2916 C   0  0  0  0  0  0  0  0  0  0  0  0
    4.1519    5.3988    6.8449 H   0  0  0  0  0  0  0  0  0  0  0  0
    0.7442    0.3813    5.1153 H   0  0  0  0  0  0  0  0  0  0  0  0
    5.0664   -0.0930    7.7854 H   0  0  0  0  0  0  0  0  0  0  0  0
    2.8769   -2.7124    8.3000 H   0  0  0  0  0  0  0  0  0  0  0  0
    4.6626   -4.0249    6.9710 H   0  0  0  0  0  0  0  0  0  0  0  0
    5.1929   -2.8104    4.6688 H   0  0  0  0  0  0  0  0  0  0  0  0
    2.9679   -2.5863    3.3338 H   0  0  0  0  0  0  0  0  0  0  0  0
    1.0158   -3.6518    4.7798 H   0  0  0  0  0  0  0  0  0  0  0  0
    3.0176   -5.2887    5.3310 H   0  0  0  0  0  0  0  0  0  0  0  0
    2.1326   -4.8870    6.8735 H   0  0  0  0  0  0  0  0  0  0  0  0
    0.8637   -2.4990    7.0845 H   0  0  0  0  0  0  0  0  0  0  0  0
    2.9723    6.2717    3.8480 H   0  0  0  0  0  0  0  0  0  0  0  0
   -0.3120    4.5299    2.6882 H   0  0  0  0  0  0  0  0  0  0  0  0
   -0.5080    5.1567    1.0199 H   0  0  0  0  0  0  0  0  0  0  0  0
    1.3059    3.5027    1.0685 H   0  0  0  0  0  0  0  0  0  0  0  0
    2.1665    4.4102    2.3627 H   0  0  0  0  0  0  0  0  0  0  0  0
    1.9903    5.1356    0.7127 H   0  0  0  0  0  0  0  0  0  0  0  0
   -2.9798    7.8401    1.8038 H   0  0  0  0  0  0  0  0  0  0  0  0
   -2.6475   10.2063    1.2352 H   0  0  0  0  0  0  0  0  0  0  0  0
   -1.7525   11.7838    2.9083 H   0  0  0  0  0  0  0  0  0  0  0  0
   -1.3631   10.9687    6.5152 H   0  0  0  0  0  0  0  0  0  0  0  0
   -1.3768   12.2851    5.3019 H   0  0  0  0  0  0  0  0  0  0  0  0
    0.8513   11.5221    4.4314 H   0  0  0  0  0  0  0  0  0  0  0  0
    0.9133   11.9083    6.1936 H   0  0  0  0  0  0  0  0  0  0  0  0
    0.8667   10.1858    5.6547 H   0  0  0  0  0  0  0  0  0  0  0  0
   -1.5695    8.6061    5.8050 H   0  0  0  0  0  0  0  0  0  0  0  0
   -5.1118   -4.9165   -3.8655 H   0  0  0  0  0  0  0  0  0  0  0  0
   -6.0721   -5.2928   -6.1004 H   0  0  0  0  0  0  0  0  0  0  0  0
   -7.0230   -3.4148   -7.3870 H   0  0  0  0  0  0  0  0  0  0  0  0
   -6.5842    0.1475   -6.4571 H   0  0  0  0  0  0  0  0  0  0  0  0
   -7.1271   -0.9813   -7.7391 H   0  0  0  0  0  0  0  0  0  0  0  0
   -9.0428    0.2917   -6.7966 H   0  0  0  0  0  0  0  0  0  0  0  0
   -9.2200   -1.4680   -6.4370 H   0  0  0  0  0  0  0  0  0  0  0  0
   -8.6734   -0.3251   -5.1418 H   0  0  0  0  0  0  0  0  0  0  0  0
   -5.9855   -0.7081   -4.2082 H   0  0  0  0  0  0  0  0  0  0  0  0
   -4.3036    0.3439    4.2229 H   0  0  0  0  0  0  0  0  0  0  0  0
   -3.0329    1.4584    4.8526 H   0  0  0  0  0  0  0  0  0  0  0  0
   -4.7367    0.7695    6.5734 H   0  0  0  0  0  0  0  0  0  0  0  0
   -4.7405    2.5518    6.3086 H   0  0  0  0  0  0  0  0  0  0  0  0
   -6.0397    1.5226    5.5742 H   0  0  0  0  0  0  0  0  0  0  0  0
   -2.8508    0.5086    2.5883 H   0  0  0  0  0  0  0  0  0  0  0  0
   -2.7434   -0.9917    1.6763 H   0  0  0  0  0  0  0  0  0  0  0  0
   -1.4343    0.8483    0.6212 H   0  0  0  0  0  0  0  0  0  0  0  0
   -2.9087    1.8834    0.5328 H   0  0  0  0  0  0  0  0  0  0  0  0
   -2.7907    0.3891   -0.4738 H   0  0  0  0  0  0  0  0  0  0  0  0
    1.1313   -3.1383   -8.4792 H   0  0  0  0  0  0  0  0  0  0  0  0
    1.4113   -1.5103   -9.1539 H   0  0  0  0  0  0  0  0  0  0  0  0
    2.5611   -2.5091   -6.4618 H   0  0  0  0  0  0  0  0  0  0  0  0
    2.8467   -0.8886   -7.2138 H   0  0  0  0  0  0  0  0  0  0  0  0
    3.4549   -2.3827   -8.0222 H   0  0  0  0  0  0  0  0  0  0  0  0
   -3.4899    0.7226   -5.7008 H   0  0  0  0  0  0  0  0  0  0  0  0
   -2.6655    1.7244   -6.9246 H   0  0  0  0  0  0  0  0  0  0  0  0
   -2.5770    2.7764   -4.6600 H   0  0  0  0  0  0  0  0  0  0  0  0
   -0.9270    2.4111   -5.2911 H   0  0  0  0  0  0  0  0  0  0  0  0
   -1.6664    1.3561   -4.0224 H   0  0  0  0  0  0  0  0  0  0  0  0
   -0.0592   -7.0561   -4.4849 H   0  0  0  0  0  0  0  0  0  0  0  0
    4.1061   -2.4477   -3.2869 H   0  0  0  0  0  0  0  0  0  0  0  0
    5.5580   -6.9639   -5.1668 H   0  0  0  0  0  0  0  0  0  0  0  0
    7.7812   -4.4159   -5.9066 H   0  0  0  0  0  0  0  0  0  0  0  0
    9.2667   -5.7232   -4.2483 H   0  0  0  0  0  0  0  0  0  0  0  0
    7.9707   -6.1507   -1.9714 H   0  0  0  0  0  0  0  0  0  0  0  0
    7.2413   -3.8450   -1.0013 H   0  0  0  0  0  0  0  0  0  0  0  0
    8.0784   -1.9439   -2.6553 H   0  0  0  0  0  0  0  0  0  0  0  0
   10.0778   -3.6685   -2.7931 H   0  0  0  0  0  0  0  0  0  0  0  0
    9.6700   -3.0887   -4.4727 H   0  0  0  0  0  0  0  0  0  0  0  0
    7.1357   -2.3241   -5.0313 H   0  0  0  0  0  0  0  0  0  0  0  0
  1  2  2  3
  2  3  1  0
  3  4  2  0
  3  5  1  0
  5  6  2  0
  6  7  1  0
  7  8  2  0
  8  9  1  0
  9 10  2  0
 10 11  1  0
 11 12  2  3
 12 13  1  0
 13 14  3  0
 12 15  1  0
 15 16  3  0
  8 17  1  0
 17 18  1  0
 18 19  1  0
 19 20  2  0
 20 21  1  0
 21 22  1  0
 21 23  1  0
  1 24  1  0
 24 25  2  0
 25 26  1  0
 26 27  1  0
 27 28  1  0
 28 29  1  0
 26 30  2  0
 30 31  1  0
 30 32  1  0
 32 33  2  0
 33 34  1  0
 34 35  2  0
 35 36  1  0
 36 37  2  0
 37 38  1  0
 38 39  1  0
 39 40  1  0
 38 41  2  0
 33 42  1  0
 42 43  1  0
 43 44  1  0
 44 45  1  0
 45 46  1  0
 46 47  1  0
 47 48  2  0
 48 49  1  0
 49 50  1  0
 47 51  1  0
 51 52  1  0
 52 53  1  0
 53 54  1  0
 54 55  1  0
 55 56  1  0
 56 57  2  0
 57 58  1  0
 58 59  2  0
 59 60  1  0
 60 61  1  0
 61 62  1  0
 60 63  2  0
 55 64  2  0
 64 65  1  0
 65 66  1  0
 66 67  1  0
 67 68  1  0
 68 69  1  0
 69 70  1  0
 70 71  1  0
 71 72  1  0
 72 73  1  0
 73 74  1  0
 71 75  1  0
 75 76  1  0
 68 77  1  0
 77 78  1  0
 64 79  1  0
 79 80  1  0
 80 81  1  0
 81 82  2  0
 82 83  1  0
 83 84  2  0
 83 85  1  0
 85 86  2  0
 86 87  1  0
 87 88  1  0
 86 89  1  0
 89 90  1  0
 90 91  1  0
 91 92  1  0
 90 93  2  0
 93 94  1  0
 94 95  2  0
 94 96  1  0
 81 97  1  0
 97 98  2  3
 98 99  1  0
 99100  2  0
 99101  1  0
101102  2  0
102103  1  0
103104  2  0
104105  1  0
105106  2  0
106107  1  0
107108  2  3
108109  1  0
109110  3  0
108111  1  0
111112  3  0
104113  1  0
113114  1  0
114115  1  0
115116  2  0
116117  1  0
117118  1  0
117119  1  0
 11  2  1  0
 23 17  1  0
 31 24  1  0
 74 32  1  0
 96 79  2  0
107 98  1  0
119113  1  0
 10  5  1  0
 22 18  1  0
 41 34  1  0
 73 42  2  0
 96 82  1  0
106101  1  0
118114  1  0
 23  7  1  0
 72 44  2  0
 93 85  1  0
119103  1  0
 70 45  2  0
 50 46  2  0
 69 51  2  0
 67 52  2  0
 66 54  2  0
 63 56  1  0
  1120  1  0
  6121  1  0
  9122  1  0
 17123  1  0
 18124  1  0
 19125  1  0
 20126  1  0
 21127  1  0
 22128  1  0
 22129  1  0
 23130  1  0
 25131  1  0
 28132  1  0
 28133  1  0
 29134  1  0
 29135  1  0
 29136  1  0
 35137  1  0
 36138  1  0
 37139  1  0
 39140  1  0
 39141  1  0
 40142  1  0
 40143  1  0
 40144  1  0
 41145  1  0
 57146  1  0
 58147  1  0
 59148  1  0
 61149  1  0
 61150  1  0
 62151  1  0
 62152  1  0
 62153  1  0
 63154  1  0
 75155  1  0
 75156  1  0
 76157  1  0
 76158  1  0
 76159  1  0
 77160  1  0
 77161  1  0
 78162  1  0
 78163  1  0
 78164  1  0
 87165  1  0
 87166  1  0
 88167  1  0
 88168  1  0
 88169  1  0
 91170  1  0
 91171  1  0
 92172  1  0
 92173  1  0
 92174  1  0
 97175  1  0
102176  1  0
105177  1  0
113178  1  0
114179  1  0
115180  1  0
116181  1  0
117182  1  0
118183  1  0
118184  1  0
119185  1  0
M  END

