
     RDKit          3D

153170  0  0  0  0  0  0  0  0999 V2000
    3.0853   -7.1037    2.4746 C   0  0  0  0  0  0  0  0  0  0  0  0
    4.2428   -6.4880    2.1800 C   0  0  0  0  0  0  0  0  0  0  0  0
    5.2744   -7.1158    1.3570 C   0  0  0  0  0  0  0  0  0  0  0  0
    5.3173   -8.3346    1.0300 O   0  0  0  0  0  0  0  0  0  0  0  0
    6.1882   -6.0913    0.8994 C   0  0  0  0  0  0  0  0  0  0  0  0
    7.2962   -6.2571    0.0345 C   0  0  0  0  0  0  0  0  0  0  0  0
    7.9726   -5.0840   -0.2411 C   0  0  0  0  0  0  0  0  0  0  0  0
    7.5889   -3.8166    0.3012 C   0  0  0  0  0  0  0  0  0  0  0  0
    6.5002   -3.6446    1.1428 C   0  0  0  0  0  0  0  0  0  0  0  0
    5.7962   -4.8414    1.4518 C   0  0  0  0  0  0  0  0  0  0  0  0
    4.6441   -5.0616    2.3747 C   0  0  0  0  0  0  0  0  0  0  0  0
    4.3449   -4.3001    3.4569 C   0  0  0  0  0  0  0  0  0  0  0  0
    3.7390   -4.8767    4.6288 C   0  0  0  0  0  0  0  0  0  0  0  0
    3.2697   -5.3342    5.5835 N   0  0  0  0  0  0  0  0  0  0  0  0
    4.7797   -2.9366    3.5976 C   0  0  0  0  0  0  0  0  0  0  0  0
    5.1138   -1.8350    3.7241 N   0  0  0  0  0  0  0  0  0  0  0  0
    8.7376   -3.1521   -0.3963 C   0  0  0  0  0  0  0  0  0  0  0  0
    9.9744   -2.7451    0.4601 C   0  0  0  0  0  0  0  0  0  0  0  0
   10.1391   -3.6982    1.6229 C   0  0  0  0  0  0  0  0  0  0  0  0
   10.4954   -4.8725    1.1025 C   0  0  0  0  0  0  0  0  0  0  0  0
   10.5578   -4.6808   -0.3950 C   0  0  0  0  0  0  0  0  0  0  0  0
   11.0907   -3.2598   -0.4298 C   0  0  0  0  0  0  0  0  0  0  0  0
    9.1254   -4.4496   -0.9608 C   0  0  0  0  0  0  0  0  0  0  0  0
    1.8447   -6.4452    2.9218 C   0  0  0  0  0  0  0  0  0  0  0  0
    0.8792   -7.0636    3.7031 C   0  0  0  0  0  0  0  0  0  0  0  0
   -0.2956   -6.3115    3.8505 C   0  0  0  0  0  0  0  0  0  0  0  0
   -1.7296   -6.9712    4.7111 S   0  0  0  0  0  0  0  0  0  0  0  0
   -1.1277   -6.5854    6.3919 C   0  0  0  0  0  0  0  0  0  0  0  0
   -0.4375   -7.7914    7.0105 C   0  0  0  0  0  0  0  0  0  0  0  0
   -0.2765   -5.1038    3.1468 C   0  0  0  0  0  0  0  0  0  0  0  0
    1.1979   -5.0013    2.3329 S   0  0  0  0  0  0  0  0  0  0  0  0
   -1.4378   -4.2430    2.8510 C   0  0  0  0  0  0  0  0  0  0  0  0
   -2.3031   -3.6135    3.7728 C   0  0  0  0  0  0  0  0  0  0  0  0
   -2.0822   -3.4995    5.2293 C   0  0  0  0  0  0  0  0  0  0  0  0
   -3.1531   -3.6823    6.1211 C   0  0  0  0  0  0  0  0  0  0  0  0
   -2.9651   -3.5223    7.4939 C   0  0  0  0  0  0  0  0  0  0  0  0
   -1.7104   -3.1765    7.9939 C   0  0  0  0  0  0  0  0  0  0  0  0
   -0.6276   -2.9854    7.1199 C   0  0  0  0  0  0  0  0  0  0  0  0
    0.7384   -2.6827    7.6736 C   0  0  0  0  0  0  0  0  0  0  0  0
    1.3917   -3.9494    8.2159 C   0  0  0  0  0  0  0  0  0  0  0  0
   -0.8197   -3.1461    5.7366 C   0  0  0  0  0  0  0  0  0  0  0  0
   -3.3542   -2.9704    3.1075 C   0  0  0  0  0  0  0  0  0  0  0  0
   -4.5940   -1.9200    3.6291 S   0  0  0  0  0  0  0  0  0  0  0  0
   -5.1080   -1.6807    2.0314 C   0  0  0  0  0  0  0  0  0  0  0  0
   -5.8542   -0.7622    1.3547 C   0  0  0  0  0  0  0  0  0  0  0  0
   -6.5529    0.3451    1.8433 C   0  0  0  0  0  0  0  0  0  0  0  0
   -6.9986    1.3339    0.9244 C   0  0  0  0  0  0  0  0  0  0  0  0
   -7.6208    2.4216    1.4425 N   0  0  0  0  0  0  0  0  0  0  0  0
   -7.5475    2.0467    3.0532 S   0  0  0  0  0  0  0  0  0  0  0  0
   -6.7731    0.5858    3.1589 N   0  0  0  0  0  0  0  0  0  0  0  0
   -6.7682    1.1355   -0.4390 C   0  0  0  0  0  0  0  0  0  0  0  0
   -6.9761    1.9779   -1.4994 C   0  0  0  0  0  0  0  0  0  0  0  0
   -6.9021    3.6666   -1.6372 S   0  0  0  0  0  0  0  0  0  0  0  0
   -6.1634    3.5809   -3.1665 C   0  0  0  0  0  0  0  0  0  0  0  0
   -5.3305    4.4961   -3.8286 C   0  0  0  0  0  0  0  0  0  0  0  0
   -5.3696    5.9573   -3.6160 C   0  0  0  0  0  0  0  0  0  0  0  0
   -5.2436    6.5104   -2.3337 C   0  0  0  0  0  0  0  0  0  0  0  0
   -5.2859    7.8960   -2.1602 C   0  0  0  0  0  0  0  0  0  0  0  0
   -5.4505    8.7396   -3.2634 C   0  0  0  0  0  0  0  0  0  0  0  0
   -5.5515    8.2010   -4.5542 C   0  0  0  0  0  0  0  0  0  0  0  0
   -5.7569    9.1013   -5.7428 C   0  0  0  0  0  0  0  0  0  0  0  0
   -7.2289    9.1429   -6.1448 C   0  0  0  0  0  0  0  0  0  0  0  0
   -5.5066    6.8083   -4.7248 C   0  0  0  0  0  0  0  0  0  0  0  0
   -4.4289    3.8367   -4.6934 C   0  0  0  0  0  0  0  0  0  0  0  0
   -4.7228    2.1617   -4.6243 S   0  0  0  0  0  0  0  0  0  0  0  0
   -5.9816    2.2674   -3.5306 C   0  0  0  0  0  0  0  0  0  0  0  0
   -6.4433    1.3592   -2.5872 C   0  0  0  0  0  0  0  0  0  0  0  0
   -5.9518    0.1303   -2.3055 N   0  0  0  0  0  0  0  0  0  0  0  0
   -6.0861    0.0110   -0.9436 C   0  0  0  0  0  0  0  0  0  0  0  0
   -5.5412   -0.9334   -0.0108 C   0  0  0  0  0  0  0  0  0  0  0  0
   -4.5463   -1.8858   -0.1451 N   0  0  0  0  0  0  0  0  0  0  0  0
   -4.3353   -2.3223    1.1253 C   0  0  0  0  0  0  0  0  0  0  0  0
   -3.3229   -3.0604    1.7385 C   0  0  0  0  0  0  0  0  0  0  0  0
   -1.9773   -3.9449    1.2641 S   0  0  0  0  0  0  0  0  0  0  0  0
   -3.6285   -2.1500   -1.2589 C   0  0  0  0  0  0  0  0  0  0  0  0
   -2.7546   -0.9338   -1.5570 C   0  0  0  0  0  0  0  0  0  0  0  0
   -5.8221   -0.8953   -3.3504 C   0  0  0  0  0  0  0  0  0  0  0  0
   -6.7050   -2.1101   -3.0653 C   0  0  0  0  0  0  0  0  0  0  0  0
   -3.1276    4.3600   -5.1578 C   0  0  0  0  0  0  0  0  0  0  0  0
   -2.3688    5.3117   -4.4770 C   0  0  0  0  0  0  0  0  0  0  0  0
   -1.0026    5.2710   -4.7765 C   0  0  0  0  0  0  0  0  0  0  0  0
    0.1933    6.1601   -3.7657 S   0  0  0  0  0  0  0  0  0  0  0  0
    0.4789    4.7922   -2.5850 C   0  0  0  0  0  0  0  0  0  0  0  0
   -0.6112    4.7430   -1.5229 C   0  0  0  0  0  0  0  0  0  0  0  0
   -0.6685    4.3374   -5.7635 C   0  0  0  0  0  0  0  0  0  0  0  0
   -2.0739    3.4990   -6.1496 S   0  0  0  0  0  0  0  0  0  0  0  0
    0.6752    3.8067   -6.0446 C   0  0  0  0  0  0  0  0  0  0  0  0
    1.7224    4.5559   -6.4090 C   0  0  0  0  0  0  0  0  0  0  0  0
    1.6518    6.3129   -6.7963 S   0  0  0  0  0  0  0  0  0  0  0  0
    3.4466    6.3461   -6.7022 C   0  0  0  0  0  0  0  0  0  0  0  0
    4.2239    7.7306   -6.3079 S   0  0  0  0  0  0  0  0  0  0  0  0
    4.0723    5.0631   -6.5833 N   0  0  0  0  0  0  0  0  0  0  0  0
    5.5180    4.8211   -6.5429 C   0  0  0  0  0  0  0  0  0  0  0  0
    6.1227    4.9853   -7.9318 C   0  0  0  0  0  0  0  0  0  0  0  0
    3.0871    4.0447   -6.4604 C   0  0  0  0  0  0  0  0  0  0  0  0
    3.3826    2.8285   -6.3166 O   0  0  0  0  0  0  0  0  0  0  0  0
    3.0136   -8.1686    2.2938 H   0  0  0  0  0  0  0  0  0  0  0  0
    7.5923   -7.2145   -0.3743 H   0  0  0  0  0  0  0  0  0  0  0  0
    6.2303   -2.6671    1.5057 H   0  0  0  0  0  0  0  0  0  0  0  0
    8.4300   -2.4030   -1.1602 H   0  0  0  0  0  0  0  0  0  0  0  0
   10.0348   -1.6685    0.7253 H   0  0  0  0  0  0  0  0  0  0  0  0
   10.0570   -3.4725    2.6808 H   0  0  0  0  0  0  0  0  0  0  0  0
   10.7553   -5.7635    1.6631 H   0  0  0  0  0  0  0  0  0  0  0  0
   11.1686   -5.4317   -0.9409 H   0  0  0  0  0  0  0  0  0  0  0  0
   12.1056   -3.1548    0.0231 H   0  0  0  0  0  0  0  0  0  0  0  0
   11.0921   -2.8078   -1.4494 H   0  0  0  0  0  0  0  0  0  0  0  0
    9.0438   -4.4903   -2.0698 H   0  0  0  0  0  0  0  0  0  0  0  0
    1.0040   -8.0563    4.1176 H   0  0  0  0  0  0  0  0  0  0  0  0
   -0.4249   -5.7321    6.3788 H   0  0  0  0  0  0  0  0  0  0  0  0
   -2.0005   -6.3113    7.0198 H   0  0  0  0  0  0  0  0  0  0  0  0
   -0.1094   -7.5447    8.0439 H   0  0  0  0  0  0  0  0  0  0  0  0
    0.4581   -8.0761    6.4191 H   0  0  0  0  0  0  0  0  0  0  0  0
   -1.1372   -8.6539    7.0542 H   0  0  0  0  0  0  0  0  0  0  0  0
   -4.1331   -3.9642    5.7512 H   0  0  0  0  0  0  0  0  0  0  0  0
   -3.7960   -3.6756    8.1724 H   0  0  0  0  0  0  0  0  0  0  0  0
   -1.5766   -3.0700    9.0630 H   0  0  0  0  0  0  0  0  0  0  0  0
    0.6524   -1.9349    8.4926 H   0  0  0  0  0  0  0  0  0  0  0  0
    1.3913   -2.2420    6.8866 H   0  0  0  0  0  0  0  0  0  0  0  0
    0.7826   -4.3822    9.0386 H   0  0  0  0  0  0  0  0  0  0  0  0
    2.4035   -3.7142    8.6082 H   0  0  0  0  0  0  0  0  0  0  0  0
    1.4929   -4.7029    7.4098 H   0  0  0  0  0  0  0  0  0  0  0  0
    0.0113   -2.9956    5.0587 H   0  0  0  0  0  0  0  0  0  0  0  0
   -5.0963    5.8761   -1.4677 H   0  0  0  0  0  0  0  0  0  0  0  0
   -5.1886    8.3193   -1.1685 H   0  0  0  0  0  0  0  0  0  0  0  0
   -5.4992    9.8105   -3.1090 H   0  0  0  0  0  0  0  0  0  0  0  0
   -5.4120   10.1351   -5.5136 H   0  0  0  0  0  0  0  0  0  0  0  0
   -5.1531    8.7338   -6.6006 H   0  0  0  0  0  0  0  0  0  0  0  0
   -7.3530    9.8030   -7.0290 H   0  0  0  0  0  0  0  0  0  0  0  0
   -7.8453    9.5436   -5.3117 H   0  0  0  0  0  0  0  0  0  0  0  0
   -7.5888    8.1250   -6.4098 H   0  0  0  0  0  0  0  0  0  0  0  0
   -5.5946    6.3860   -5.7193 H   0  0  0  0  0  0  0  0  0  0  0  0
   -2.9565   -2.9927   -1.0180 H   0  0  0  0  0  0  0  0  0  0  0  0
   -4.1684   -2.5326   -2.1319 H   0  0  0  0  0  0  0  0  0  0  0  0
   -3.3651   -0.0466   -1.8112 H   0  0  0  0  0  0  0  0  0  0  0  0
   -2.1344   -0.6930   -0.6666 H   0  0  0  0  0  0  0  0  0  0  0  0
   -2.0824   -1.1579   -2.4102 H   0  0  0  0  0  0  0  0  0  0  0  0
   -6.1746   -0.4827   -4.3210 H   0  0  0  0  0  0  0  0  0  0  0  0
   -4.7631   -1.1393   -3.5420 H   0  0  0  0  0  0  0  0  0  0  0  0
   -6.4490   -2.5911   -2.1029 H   0  0  0  0  0  0  0  0  0  0  0  0
   -6.5833   -2.8564   -3.8780 H   0  0  0  0  0  0  0  0  0  0  0  0
   -7.7706   -1.7966   -3.0299 H   0  0  0  0  0  0  0  0  0  0  0  0
   -2.7457    5.9106   -3.6619 H   0  0  0  0  0  0  0  0  0  0  0  0
    0.5401    3.8170   -3.1114 H   0  0  0  0  0  0  0  0  0  0  0  0
    1.4541    4.9693   -2.0846 H   0  0  0  0  0  0  0  0  0  0  0  0
   -0.3481    3.9869   -0.7539 H   0  0  0  0  0  0  0  0  0  0  0  0
   -0.7150    5.7323   -1.0289 H   0  0  0  0  0  0  0  0  0  0  0  0
   -1.5843    4.4522   -1.9695 H   0  0  0  0  0  0  0  0  0  0  0  0
    0.8105    2.7394   -5.9150 H   0  0  0  0  0  0  0  0  0  0  0  0
    5.7294    3.7935   -6.1755 H   0  0  0  0  0  0  0  0  0  0  0  0
    6.0019    5.5268   -5.8343 H   0  0  0  0  0  0  0  0  0  0  0  0
    5.9442    6.0135   -8.3094 H   0  0  0  0  0  0  0  0  0  0  0  0
    5.6665    4.2531   -8.6327 H   0  0  0  0  0  0  0  0  0  0  0  0
    7.2178    4.8072   -7.8840 H   0  0  0  0  0  0  0  0  0  0  0  0
  1  2  2  3
  2  3  1  0
  3  4  2  0
  3  5  1  0
  5  6  2  0
  6  7  1  0
  7  8  2  0
  8  9  1  0
  9 10  2  0
 10 11  1  0
 11 12  2  3
 12 13  1  0
 13 14  3  0
 12 15  1  0
 15 16  3  0
  8 17  1  0
 17 18  1  0
 18 19  1  0
 19 20  2  0
 20 21  1  0
 21 22  1  0
 21 23  1  0
  1 24  1  0
 24 25  2  0
 25 26  1  0
 26 27  1  0
 27 28  1  0
 28 29  1  0
 26 30  2  0
 30 31  1  0
 30 32  1  0
 32 33  2  0
 33 34  1  0
 34 35  2  0
 35 36  1  0
 36 37  2  0
 37 38  1  0
 38 39  1  0
 39 40  1  0
 38 41  2  0
 33 42  1  0
 42 43  1  0
 43 44  1  0
 44 45  1  0
 45 46  1  0
 46 47  1  0
 47 48  2  0
 48 49  1  0
 49 50  1  0
 47 51  1  0
 51 52  1  0
 52 53  1  0
 53 54  1  0
 54 55  1  0
 55 56  1  0
 56 57  2  0
 57 58  1  0
 58 59  2  0
 59 60  1  0
 60 61  1  0
 61 62  1  0
 60 63  2  0
 55 64  2  0
 64 65  1  0
 65 66  1  0
 66 67  1  0
 67 68  1  0
 68 69  1  0
 69 70  1  0
 70 71  1  0
 71 72  1  0
 72 73  1  0
 73 74  1  0
 71 75  1  0
 75 76  1  0
 68 77  1  0
 77 78  1  0
 64 79  1  0
 79 80  2  0
 80 81  1  0
 81 82  1  0
 82 83  1  0
 83 84  1  0
 81 85  2  0
 85 86  1  0
 85 87  1  0
 87 88  2  3
 88 89  1  0
 89 90  1  0
 90 91  2  0
 90 92  1  0
 92 93  1  0
 93 94  1  0
 92 95  1  0
 95 96  2  0
 11  2  1  0
 23 17  1  0
 31 24  1  0
 74 32  1  0
 86 79  1  0
 95 88  1  0
 10  5  1  0
 22 18  1  0
 41 34  1  0
 73 42  2  0
 23  7  1  0
 72 44  2  0
 70 45  2  0
 50 46  2  0
 69 51  2  0
 67 52  2  0
 66 54  2  0
 63 56  1  0
  1 97  1  0
  6 98  1  0
  9 99  1  0
 17100  1  0
 18101  1  0
 19102  1  0
 20103  1  0
 21104  1  0
 22105  1  0
 22106  1  0
 23107  1  0
 25108  1  0
 28109  1  0
 28110  1  0
 29111  1  0
 29112  1  0
 29113  1  0
 35114  1  0
 36115  1  0
 37116  1  0
 39117  1  0
 39118  1  0
 40119  1  0
 40120  1  0
 40121  1  0
 41122  1  0
 57123  1  0
 58124  1  0
 59125  1  0
 61126  1  0
 61127  1  0
 62128  1  0
 62129  1  0
 62130  1  0
 63131  1  0
 75132  1  0
 75133  1  0
 76134  1  0
 76135  1  0
 76136  1  0
 77137  1  0
 77138  1  0
 78139  1  0
 78140  1  0
 78141  1  0
 80142  1  0
 83143  1  0
 83144  1  0
 84145  1  0
 84146  1  0
 84147  1  0
 87148  1  0
 93149  1  0
 93150  1  0
 94151  1  0
 94152  1  0
 94153  1  0
M  END

