
     RDKit          3D

168190  0  0  0  0  0  0  0  0999 V2000
    8.0115   -4.2417   -2.4670 C   0  0  0  0  0  0  0  0  0  0  0  0
    7.8493   -3.0208   -3.0151 C   0  0  0  0  0  0  0  0  0  0  0  0
    7.3479   -1.8376   -2.3013 C   0  0  0  0  0  0  0  0  0  0  0  0
    7.3517   -1.6607   -1.0522 O   0  0  0  0  0  0  0  0  0  0  0  0
    6.8624   -0.8820   -3.2636 C   0  0  0  0  0  0  0  0  0  0  0  0
    6.1406    0.3022   -2.9871 C   0  0  0  0  0  0  0  0  0  0  0  0
    5.6768    0.9451   -4.1148 C   0  0  0  0  0  0  0  0  0  0  0  0
    5.9073    0.4628   -5.4455 C   0  0  0  0  0  0  0  0  0  0  0  0
    6.6157   -0.6964   -5.7213 C   0  0  0  0  0  0  0  0  0  0  0  0
    7.1212   -1.3674   -4.5721 C   0  0  0  0  0  0  0  0  0  0  0  0
    7.8639   -2.6586   -4.4707 C   0  0  0  0  0  0  0  0  0  0  0  0
    8.5900   -3.2523   -5.4512 C   0  0  0  0  0  0  0  0  0  0  0  0
    9.4742   -4.3601   -5.1896 C   0  0  0  0  0  0  0  0  0  0  0  0
   10.2011   -5.2387   -4.9899 N   0  0  0  0  0  0  0  0  0  0  0  0
    8.6641   -2.7245   -6.7901 C   0  0  0  0  0  0  0  0  0  0  0  0
    8.7391   -2.3015   -7.8636 N   0  0  0  0  0  0  0  0  0  0  0  0
    5.0977    1.5925   -6.0110 C   0  0  0  0  0  0  0  0  0  0  0  0
    3.6660    1.2694   -6.5334 C   0  0  0  0  0  0  0  0  0  0  0  0
    3.0795    0.1120   -5.7569 C   0  0  0  0  0  0  0  0  0  0  0  0
    2.8604    0.5503   -4.5174 C   0  0  0  0  0  0  0  0  0  0  0  0
    3.3098    1.9941   -4.4906 C   0  0  0  0  0  0  0  0  0  0  0  0
    2.8861    2.4047   -5.8893 C   0  0  0  0  0  0  0  0  0  0  0  0
    4.8583    2.0812   -4.6485 C   0  0  0  0  0  0  0  0  0  0  0  0
    7.6507   -4.5223   -1.0690 C   0  0  0  0  0  0  0  0  0  0  0  0
    8.5470   -4.6667   -0.0162 C   0  0  0  0  0  0  0  0  0  0  0  0
    7.9261   -4.6466    1.2433 C   0  0  0  0  0  0  0  0  0  0  0  0
    8.8712   -4.7342    2.7647 S   0  0  0  0  0  0  0  0  0  0  0  0
    9.4598   -3.0068    2.7458 C   0  0  0  0  0  0  0  0  0  0  0  0
    8.3664   -2.0368    3.1641 C   0  0  0  0  0  0  0  0  0  0  0  0
    6.5308   -4.5438    1.1799 C   0  0  0  0  0  0  0  0  0  0  0  0
    6.0956   -4.4202   -0.4410 S   0  0  0  0  0  0  0  0  0  0  0  0
    5.6100   -4.1935    2.2702 C   0  0  0  0  0  0  0  0  0  0  0  0
    4.8699   -5.0987    3.0606 C   0  0  0  0  0  0  0  0  0  0  0  0
    5.0486   -6.5591    3.0577 C   0  0  0  0  0  0  0  0  0  0  0  0
    4.0407   -7.3943    2.5512 C   0  0  0  0  0  0  0  0  0  0  0  0
    4.2112   -8.7798    2.5555 C   0  0  0  0  0  0  0  0  0  0  0  0
    5.3811   -9.3416    3.0744 C   0  0  0  0  0  0  0  0  0  0  0  0
    6.3997   -8.5168    3.5779 C   0  0  0  0  0  0  0  0  0  0  0  0
    7.6318   -9.1239    4.1928 C   0  0  0  0  0  0  0  0  0  0  0  0
    7.4117   -9.3901    5.6801 C   0  0  0  0  0  0  0  0  0  0  0  0
    6.2223   -7.1241    3.5758 C   0  0  0  0  0  0  0  0  0  0  0  0
    3.8428   -4.4394    3.7472 C   0  0  0  0  0  0  0  0  0  0  0  0
    2.5281   -4.9422    4.7296 S   0  0  0  0  0  0  0  0  0  0  0  0
    1.9104   -3.3545    4.7761 C   0  0  0  0  0  0  0  0  0  0  0  0
    0.8660   -2.6229    5.2851 C   0  0  0  0  0  0  0  0  0  0  0  0
   -0.1844   -2.9257    6.1603 C   0  0  0  0  0  0  0  0  0  0  0  0
   -1.1113   -1.8896    6.5048 C   0  0  0  0  0  0  0  0  0  0  0  0
   -2.1242   -2.2281    7.3416 N   0  0  0  0  0  0  0  0  0  0  0  0
   -1.7500   -3.8219    7.6032 S   0  0  0  0  0  0  0  0  0  0  0  0
   -0.3869   -4.1471    6.7152 N   0  0  0  0  0  0  0  0  0  0  0  0
   -0.9549   -0.6174    5.9282 C   0  0  0  0  0  0  0  0  0  0  0  0
   -1.8135    0.4486    5.8313 C   0  0  0  0  0  0  0  0  0  0  0  0
   -3.4542    0.7542    6.1722 S   0  0  0  0  0  0  0  0  0  0  0  0
   -3.5162    2.0109    5.0177 C   0  0  0  0  0  0  0  0  0  0  0  0
   -4.5401    2.8194    4.4975 C   0  0  0  0  0  0  0  0  0  0  0  0
   -5.9292    2.8563    4.9938 C   0  0  0  0  0  0  0  0  0  0  0  0
   -6.6278    1.6703    5.2676 C   0  0  0  0  0  0  0  0  0  0  0  0
   -7.9305    1.7213    5.7666 C   0  0  0  0  0  0  0  0  0  0  0  0
   -8.5471    2.9521    6.0010 C   0  0  0  0  0  0  0  0  0  0  0  0
   -7.8695    4.1471    5.7142 C   0  0  0  0  0  0  0  0  0  0  0  0
   -8.5117    5.4757    6.0148 C   0  0  0  0  0  0  0  0  0  0  0  0
   -8.1089    5.9676    7.4023 C   0  0  0  0  0  0  0  0  0  0  0  0
   -6.5585    4.0922    5.2128 C   0  0  0  0  0  0  0  0  0  0  0  0
   -4.0612    3.5953    3.4225 C   0  0  0  0  0  0  0  0  0  0  0  0
   -2.4258    3.2385    3.1333 S   0  0  0  0  0  0  0  0  0  0  0  0
   -2.3112    2.1351    4.3802 C   0  0  0  0  0  0  0  0  0  0  0  0
   -1.3441    1.2490    4.8345 C   0  0  0  0  0  0  0  0  0  0  0  0
   -0.2252    0.7544    4.2496 N   0  0  0  0  0  0  0  0  0  0  0  0
    0.0655   -0.3518    5.0044 C   0  0  0  0  0  0  0  0  0  0  0  0
    1.0463   -1.3329    4.7691 C   0  0  0  0  0  0  0  0  0  0  0  0
    2.2222   -1.2234    4.0836 N   0  0  0  0  0  0  0  0  0  0  0  0
    2.6748   -2.4945    4.0653 C   0  0  0  0  0  0  0  0  0  0  0  0
    3.7774   -3.0957    3.4984 C   0  0  0  0  0  0  0  0  0  0  0  0
    4.9369   -2.6324    2.3985 S   0  0  0  0  0  0  0  0  0  0  0  0
    3.0888   -0.0372    4.0145 C   0  0  0  0  0  0  0  0  0  0  0  0
    4.1525   -0.0713    5.1143 C   0  0  0  0  0  0  0  0  0  0  0  0
    0.0660    0.9177    2.8148 C   0  0  0  0  0  0  0  0  0  0  0  0
   -0.9009    0.0900    1.9651 C   0  0  0  0  0  0  0  0  0  0  0  0
   -4.8683    4.3061    2.4166 C   0  0  0  0  0  0  0  0  0  0  0  0
   -5.6316    3.5557    1.5015 C   0  0  0  0  0  0  0  0  0  0  0  0
   -5.8425    2.2346    1.7226 F   0  0  0  0  0  0  0  0  0  0  0  0
   -6.0735    4.1213    0.2919 C   0  0  0  0  0  0  0  0  0  0  0  0
   -6.6000    3.2750   -0.6302 F   0  0  0  0  0  0  0  0  0  0  0  0
   -5.8167    5.4796   -0.0160 C   0  0  0  0  0  0  0  0  0  0  0  0
   -5.1386    6.2540    0.9534 C   0  0  0  0  0  0  0  0  0  0  0  0
   -4.6535    5.6603    2.1582 C   0  0  0  0  0  0  0  0  0  0  0  0
   -3.9172    6.4592    2.9818 N   0  0  0  0  0  0  0  0  0  0  0  0
   -3.9240    7.8645    2.1201 S   0  0  0  0  0  0  0  0  0  0  0  0
   -4.7948    7.5497    0.7462 N   0  0  0  0  0  0  0  0  0  0  0  0
   -5.9375    6.0370   -1.4014 C   0  0  0  0  0  0  0  0  0  0  0  0
   -6.6546    5.5054   -2.4108 C   0  0  0  0  0  0  0  0  0  0  0  0
   -8.0135    4.9720   -2.2931 C   0  0  0  0  0  0  0  0  0  0  0  0
   -8.7009    4.9095   -1.2327 O   0  0  0  0  0  0  0  0  0  0  0  0
   -8.5154    4.6799   -3.6224 C   0  0  0  0  0  0  0  0  0  0  0  0
   -9.7383    4.0484   -3.9586 C   0  0  0  0  0  0  0  0  0  0  0  0
   -9.8775    3.7723   -5.3096 C   0  0  0  0  0  0  0  0  0  0  0  0
   -8.8693    4.0847   -6.2757 C   0  0  0  0  0  0  0  0  0  0  0  0
   -7.6809    4.7139   -5.9584 C   0  0  0  0  0  0  0  0  0  0  0  0
   -7.5249    5.0370   -4.5780 C   0  0  0  0  0  0  0  0  0  0  0  0
   -6.3349    5.5898   -3.8675 C   0  0  0  0  0  0  0  0  0  0  0  0
   -5.1318    5.9079   -4.4208 C   0  0  0  0  0  0  0  0  0  0  0  0
   -3.9268    6.0342   -3.6380 C   0  0  0  0  0  0  0  0  0  0  0  0
   -2.9557    6.1327   -3.0173 N   0  0  0  0  0  0  0  0  0  0  0  0
   -4.9404    6.0974   -5.8338 C   0  0  0  0  0  0  0  0  0  0  0  0
   -4.7636    6.2557   -6.9688 N   0  0  0  0  0  0  0  0  0  0  0  0
   -9.6825    3.4565   -7.3657 C   0  0  0  0  0  0  0  0  0  0  0  0
   -9.2420    2.0537   -7.8864 C   0  0  0  0  0  0  0  0  0  0  0  0
   -8.5968    1.2642   -6.7695 C   0  0  0  0  0  0  0  0  0  0  0  0
   -9.5624    0.9813   -5.8928 C   0  0  0  0  0  0  0  0  0  0  0  0
  -10.8312    1.5942   -6.4382 C   0  0  0  0  0  0  0  0  0  0  0  0
  -10.5919    1.3613   -7.9226 C   0  0  0  0  0  0  0  0  0  0  0  0
  -10.7299    3.1490   -6.3836 C   0  0  0  0  0  0  0  0  0  0  0  0
    8.3056   -5.0923   -3.0663 H   0  0  0  0  0  0  0  0  0  0  0  0
    5.9053    0.6365   -1.9855 H   0  0  0  0  0  0  0  0  0  0  0  0
    6.7080   -1.0553   -6.7363 H   0  0  0  0  0  0  0  0  0  0  0  0
    5.6802    2.2941   -6.6471 H   0  0  0  0  0  0  0  0  0  0  0  0
    3.5719    1.1880   -7.6357 H   0  0  0  0  0  0  0  0  0  0  0  0
    2.7946   -0.8592   -6.1423 H   0  0  0  0  0  0  0  0  0  0  0  0
    2.3733   -0.0059   -3.7243 H   0  0  0  0  0  0  0  0  0  0  0  0
    2.8794    2.6013   -3.6661 H   0  0  0  0  0  0  0  0  0  0  0  0
    3.2487    3.4186   -6.1834 H   0  0  0  0  0  0  0  0  0  0  0  0
    1.7843    2.3350   -6.0524 H   0  0  0  0  0  0  0  0  0  0  0  0
    5.2962    3.0861   -4.4555 H   0  0  0  0  0  0  0  0  0  0  0  0
    9.6229   -4.6983   -0.1480 H   0  0  0  0  0  0  0  0  0  0  0  0
    9.8473   -2.7291    1.7442 H   0  0  0  0  0  0  0  0  0  0  0  0
   10.3001   -2.9321    3.4693 H   0  0  0  0  0  0  0  0  0  0  0  0
    7.8463   -2.3952    4.0794 H   0  0  0  0  0  0  0  0  0  0  0  0
    7.6402   -1.9094    2.3382 H   0  0  0  0  0  0  0  0  0  0  0  0
    8.8125   -1.0423    3.3736 H   0  0  0  0  0  0  0  0  0  0  0  0
    3.1243   -6.9706    2.1527 H   0  0  0  0  0  0  0  0  0  0  0  0
    3.4328   -9.4252    2.1679 H   0  0  0  0  0  0  0  0  0  0  0  0
    5.4902  -10.4194    3.0942 H   0  0  0  0  0  0  0  0  0  0  0  0
    8.5063   -8.4490    4.0649 H   0  0  0  0  0  0  0  0  0  0  0  0
    7.8774  -10.0796    3.6840 H   0  0  0  0  0  0  0  0  0  0  0  0
    8.2647   -9.9744    6.0830 H   0  0  0  0  0  0  0  0  0  0  0  0
    6.4817   -9.9724    5.8374 H   0  0  0  0  0  0  0  0  0  0  0  0
    7.3407   -8.4328    6.2360 H   0  0  0  0  0  0  0  0  0  0  0  0
    6.9828   -6.4799    4.0008 H   0  0  0  0  0  0  0  0  0  0  0  0
   -6.1717    0.7049    5.0854 H   0  0  0  0  0  0  0  0  0  0  0  0
   -8.4603    0.8026    5.9815 H   0  0  0  0  0  0  0  0  0  0  0  0
   -9.5537    2.9766    6.3990 H   0  0  0  0  0  0  0  0  0  0  0  0
   -8.2090    6.2291    5.2529 H   0  0  0  0  0  0  0  0  0  0  0  0
   -9.6202    5.3861    5.9692 H   0  0  0  0  0  0  0  0  0  0  0  0
   -7.0149    6.1530    7.4463 H   0  0  0  0  0  0  0  0  0  0  0  0
   -8.6393    6.9132    7.6288 H   0  0  0  0  0  0  0  0  0  0  0  0
   -8.3789    5.2159    8.1722 H   0  0  0  0  0  0  0  0  0  0  0  0
   -6.0184    5.0120    5.0222 H   0  0  0  0  0  0  0  0  0  0  0  0
    2.5022    0.8908    4.1719 H   0  0  0  0  0  0  0  0  0  0  0  0
    3.5803    0.0136    3.0207 H   0  0  0  0  0  0  0  0  0  0  0  0
    4.7014    0.8956    5.1342 H   0  0  0  0  0  0  0  0  0  0  0  0
    4.8830   -0.8919    4.9304 H   0  0  0  0  0  0  0  0  0  0  0  0
    3.6736   -0.2307    6.1070 H   0  0  0  0  0  0  0  0  0  0  0  0
    0.0087    1.9845    2.5283 H   0  0  0  0  0  0  0  0  0  0  0  0
    1.0823    0.5852    2.5570 H   0  0  0  0  0  0  0  0  0  0  0  0
   -0.7970   -0.9878    2.2210 H   0  0  0  0  0  0  0  0  0  0  0  0
   -1.9526    0.3964    2.1456 H   0  0  0  0  0  0  0  0  0  0  0  0
   -0.6651    0.2203    0.8923 H   0  0  0  0  0  0  0  0  0  0  0  0
   -5.2146    6.8013   -1.6521 H   0  0  0  0  0  0  0  0  0  0  0  0
  -10.4801    3.7560   -3.2252 H   0  0  0  0  0  0  0  0  0  0  0  0
   -6.9298    4.8678   -6.7154 H   0  0  0  0  0  0  0  0  0  0  0  0
  -10.0091    4.1720   -8.1512 H   0  0  0  0  0  0  0  0  0  0  0  0
   -8.6863    2.0584   -8.8487 H   0  0  0  0  0  0  0  0  0  0  0  0
   -7.5810    0.8893   -6.7320 H   0  0  0  0  0  0  0  0  0  0  0  0
   -9.4622    0.3427   -5.0223 H   0  0  0  0  0  0  0  0  0  0  0  0
  -11.7763    1.1691   -6.0386 H   0  0  0  0  0  0  0  0  0  0  0  0
  -10.5329    0.2752   -8.1855 H   0  0  0  0  0  0  0  0  0  0  0  0
  -11.3331    1.8732   -8.5841 H   0  0  0  0  0  0  0  0  0  0  0  0
  -11.6838    3.6876   -6.5659 H   0  0  0  0  0  0  0  0  0  0  0  0
  1  2  2  3
  2  3  1  0
  3  4  2  0
  3  5  1  0
  5  6  2  0
  6  7  1  0
  7  8  2  0
  8  9  1  0
  9 10  2  0
 10 11  1  0
 11 12  2  3
 12 13  1  0
 13 14  3  0
 12 15  1  0
 15 16  3  0
  8 17  1  0
 17 18  1  0
 18 19  1  0
 19 20  2  0
 20 21  1  0
 21 22  1  0
 21 23  1  0
  1 24  1  0
 24 25  2  0
 25 26  1  0
 26 27  1  0
 27 28  1  0
 28 29  1  0
 26 30  2  0
 30 31  1  0
 30 32  1  0
 32 33  2  0
 33 34  1  0
 34 35  2  0
 35 36  1  0
 36 37  2  0
 37 38  1  0
 38 39  1  0
 39 40  1  0
 38 41  2  0
 33 42  1  0
 42 43  1  0
 43 44  1  0
 44 45  1  0
 45 46  1  0
 46 47  1  0
 47 48  2  0
 48 49  1  0
 49 50  1  0
 47 51  1  0
 51 52  1  0
 52 53  1  0
 53 54  1  0
 54 55  1  0
 55 56  1  0
 56 57  2  0
 57 58  1  0
 58 59  2  0
 59 60  1  0
 60 61  1  0
 61 62  1  0
 60 63  2  0
 55 64  2  0
 64 65  1  0
 65 66  1  0
 66 67  1  0
 67 68  1  0
 68 69  1  0
 69 70  1  0
 70 71  1  0
 71 72  1  0
 72 73  1  0
 73 74  1  0
 71 75  1  0
 75 76  1  0
 68 77  1  0
 77 78  1  0
 64 79  1  0
 79 80  2  0
 80 81  1  0
 80 82  1  0
 82 83  1  0
 82 84  2  0
 84 85  1  0
 85 86  1  0
 86 87  2  0
 87 88  1  0
 88 89  1  0
 84 90  1  0
 90 91  2  3
 91 92  1  0
 92 93  2  0
 92 94  1  0
 94 95  2  0
 95 96  1  0
 96 97  2  0
 97 98  1  0
 98 99  2  0
 99100  1  0
100101  2  3
101102  1  0
102103  3  0
101104  1  0
104105  3  0
 97106  1  0
106107  1  0
107108  1  0
108109  2  0
109110  1  0
110111  1  0
110112  1  0
 11  2  1  0
 23 17  1  0
 31 24  1  0
 74 32  1  0
 86 79  1  0
100 91  1  0
112106  1  0
 10  5  1  0
 22 18  1  0
 41 34  1  0
 73 42  2  0
 89 85  2  0
 99 94  1  0
111107  1  0
 23  7  1  0
 72 44  2  0
112 96  1  0
 70 45  2  0
 50 46  2  0
 69 51  2  0
 67 52  2  0
 66 54  2  0
 63 56  1  0
  1113  1  0
  6114  1  0
  9115  1  0
 17116  1  0
 18117  1  0
 19118  1  0
 20119  1  0
 21120  1  0
 22121  1  0
 22122  1  0
 23123  1  0
 25124  1  0
 28125  1  0
 28126  1  0
 29127  1  0
 29128  1  0
 29129  1  0
 35130  1  0
 36131  1  0
 37132  1  0
 39133  1  0
 39134  1  0
 40135  1  0
 40136  1  0
 40137  1  0
 41138  1  0
 57139  1  0
 58140  1  0
 59141  1  0
 61142  1  0
 61143  1  0
 62144  1  0
 62145  1  0
 62146  1  0
 63147  1  0
 75148  1  0
 75149  1  0
 76150  1  0
 76151  1  0
 76152  1  0
 77153  1  0
 77154  1  0
 78155  1  0
 78156  1  0
 78157  1  0
 90158  1  0
 95159  1  0
 98160  1  0
106161  1  0
107162  1  0
108163  1  0
109164  1  0
110165  1  0
111166  1  0
111167  1  0
112168  1  0
M  END

