
     RDKit          3D

177197  0  0  0  0  0  0  0  0999 V2000
   -2.4094   -6.5574   -9.7888 C   0  0  0  0  0  0  0  0  0  0  0  0
   -1.6043   -5.4993  -10.0290 C   0  0  0  0  0  0  0  0  0  0  0  0
   -0.6413   -4.9474   -9.0686 C   0  0  0  0  0  0  0  0  0  0  0  0
   -0.0923   -5.5734   -8.1220 O   0  0  0  0  0  0  0  0  0  0  0  0
   -0.4243   -3.5546   -9.3739 C   0  0  0  0  0  0  0  0  0  0  0  0
    0.3140   -2.6257   -8.6052 C   0  0  0  0  0  0  0  0  0  0  0  0
    0.2496   -1.3309   -9.0795 C   0  0  0  0  0  0  0  0  0  0  0  0
   -0.4919   -0.9618  -10.2507 C   0  0  0  0  0  0  0  0  0  0  0  0
   -1.2134   -1.8710  -11.0128 C   0  0  0  0  0  0  0  0  0  0  0  0
   -1.1552   -3.2163  -10.5427 C   0  0  0  0  0  0  0  0  0  0  0  0
   -1.8150   -4.4463  -11.0689 C   0  0  0  0  0  0  0  0  0  0  0  0
   -2.3554   -4.6274  -12.3051 C   0  0  0  0  0  0  0  0  0  0  0  0
   -2.7072   -5.9343  -12.7946 C   0  0  0  0  0  0  0  0  0  0  0  0
   -2.9780   -6.9817  -13.2008 N   0  0  0  0  0  0  0  0  0  0  0  0
   -2.4906   -3.5627  -13.2624 C   0  0  0  0  0  0  0  0  0  0  0  0
   -2.6065   -2.7164  -14.0457 N   0  0  0  0  0  0  0  0  0  0  0  0
   -0.0881    0.4738  -10.0711 C   0  0  0  0  0  0  0  0  0  0  0  0
    1.0049    1.0173  -11.0388 C   0  0  0  0  0  0  0  0  0  0  0  0
    1.5060    2.2981  -10.4133 C   0  0  0  0  0  0  0  0  0  0  0  0
    2.2014    1.9452   -9.3259 C   0  0  0  0  0  0  0  0  0  0  0  0
    2.1451    0.4401   -9.2521 C   0  0  0  0  0  0  0  0  0  0  0  0
    2.2017    0.1297  -10.7398 C   0  0  0  0  0  0  0  0  0  0  0  0
    0.6740    0.0928   -8.8763 C   0  0  0  0  0  0  0  0  0  0  0  0
   -2.4463   -7.2003   -8.4648 C   0  0  0  0  0  0  0  0  0  0  0  0
   -1.6006   -8.2087   -8.0185 C   0  0  0  0  0  0  0  0  0  0  0  0
   -1.5526   -8.3131   -6.6192 C   0  0  0  0  0  0  0  0  0  0  0  0
   -0.3945   -9.4108   -5.7923 S   0  0  0  0  0  0  0  0  0  0  0  0
    1.0843   -8.3647   -6.0701 C   0  0  0  0  0  0  0  0  0  0  0  0
    1.1120   -7.1597   -5.1370 C   0  0  0  0  0  0  0  0  0  0  0  0
   -2.3915   -7.4039   -5.9620 C   0  0  0  0  0  0  0  0  0  0  0  0
   -3.1344   -6.4564   -7.1320 S   0  0  0  0  0  0  0  0  0  0  0  0
   -2.3460   -7.0057   -4.5449 C   0  0  0  0  0  0  0  0  0  0  0  0
   -2.4449   -7.8217   -3.3971 C   0  0  0  0  0  0  0  0  0  0  0  0
   -2.7200   -9.2689   -3.4109 C   0  0  0  0  0  0  0  0  0  0  0  0
   -3.7789   -9.7836   -4.1716 C   0  0  0  0  0  0  0  0  0  0  0  0
   -3.9810  -11.1636   -4.2525 C   0  0  0  0  0  0  0  0  0  0  0  0
   -3.1235  -12.0383   -3.5845 C   0  0  0  0  0  0  0  0  0  0  0  0
   -2.0464  -11.5384   -2.8336 C   0  0  0  0  0  0  0  0  0  0  0  0
   -1.0904  -12.4830   -2.1550 C   0  0  0  0  0  0  0  0  0  0  0  0
   -1.5107  -12.7455   -0.7122 C   0  0  0  0  0  0  0  0  0  0  0  0
   -1.8690  -10.1493   -2.7268 C   0  0  0  0  0  0  0  0  0  0  0  0
   -2.3263   -7.0481   -2.2328 C   0  0  0  0  0  0  0  0  0  0  0  0
   -2.5839   -7.3516   -0.5680 S   0  0  0  0  0  0  0  0  0  0  0  0
   -2.3425   -5.7086   -0.1854 C   0  0  0  0  0  0  0  0  0  0  0  0
   -2.6317   -4.8359    0.8321 C   0  0  0  0  0  0  0  0  0  0  0  0
   -3.1988   -5.0421    2.0945 C   0  0  0  0  0  0  0  0  0  0  0  0
   -3.6104   -3.9057    2.8592 C   0  0  0  0  0  0  0  0  0  0  0  0
   -4.1346   -4.1490    4.0833 N   0  0  0  0  0  0  0  0  0  0  0  0
   -4.0556   -5.8043    4.1001 S   0  0  0  0  0  0  0  0  0  0  0  0
   -3.3924   -6.2594    2.6513 N   0  0  0  0  0  0  0  0  0  0  0  0
   -3.4293   -2.6232    2.3185 C   0  0  0  0  0  0  0  0  0  0  0  0
   -3.5109   -1.3835    2.9032 C   0  0  0  0  0  0  0  0  0  0  0  0
   -3.6624   -0.7993    4.4942 S   0  0  0  0  0  0  0  0  0  0  0  0
   -2.8471    0.6452    4.0980 C   0  0  0  0  0  0  0  0  0  0  0  0
   -2.2446    1.6295    4.8939 C   0  0  0  0  0  0  0  0  0  0  0  0
   -2.5135    1.8044    6.3378 C   0  0  0  0  0  0  0  0  0  0  0  0
   -1.4666    1.8465    7.2706 C   0  0  0  0  0  0  0  0  0  0  0  0
   -1.7366    2.0399    8.6267 C   0  0  0  0  0  0  0  0  0  0  0  0
   -3.0545    2.1829    9.0650 C   0  0  0  0  0  0  0  0  0  0  0  0
   -4.1153    2.1393    8.1465 C   0  0  0  0  0  0  0  0  0  0  0  0
   -5.5383    2.2644    8.6237 C   0  0  0  0  0  0  0  0  0  0  0  0
   -6.0831    0.9091    9.0567 C   0  0  0  0  0  0  0  0  0  0  0  0
   -3.8378    1.9388    6.7854 C   0  0  0  0  0  0  0  0  0  0  0  0
   -1.2888    2.3492    4.1499 C   0  0  0  0  0  0  0  0  0  0  0  0
   -1.2262    1.7565    2.5609 S   0  0  0  0  0  0  0  0  0  0  0  0
   -2.4261    0.6125    2.7911 C   0  0  0  0  0  0  0  0  0  0  0  0
   -2.8310   -0.5236    2.0986 C   0  0  0  0  0  0  0  0  0  0  0  0
   -2.3431   -1.1246    0.9826 N   0  0  0  0  0  0  0  0  0  0  0  0
   -2.7767   -2.4222    1.0908 C   0  0  0  0  0  0  0  0  0  0  0  0
   -2.4609   -3.5511    0.2908 C   0  0  0  0  0  0  0  0  0  0  0  0
   -2.1893   -3.6186   -1.0526 N   0  0  0  0  0  0  0  0  0  0  0  0
   -2.1063   -4.9529   -1.2901 C   0  0  0  0  0  0  0  0  0  0  0  0
   -2.1311   -5.7082   -2.4513 C   0  0  0  0  0  0  0  0  0  0  0  0
   -2.1398   -5.3839   -4.0840 S   0  0  0  0  0  0  0  0  0  0  0  0
   -2.4620   -2.6034   -2.0781 C   0  0  0  0  0  0  0  0  0  0  0  0
   -1.2047   -2.2634   -2.8845 C   0  0  0  0  0  0  0  0  0  0  0  0
   -1.1355   -0.6620    0.2779 C   0  0  0  0  0  0  0  0  0  0  0  0
   -1.4234    0.5698   -0.5861 C   0  0  0  0  0  0  0  0  0  0  0  0
   -0.2236    3.1996    4.6842 C   0  0  0  0  0  0  0  0  0  0  0  0
   -0.3647    4.4175    5.3475 C   0  0  0  0  0  0  0  0  0  0  0  0
    0.8741    4.9894    5.6847 C   0  0  0  0  0  0  0  0  0  0  0  0
    1.0930    6.2563    6.2643 C   0  0  0  0  0  0  0  0  0  0  0  0
    0.0467    7.0655    6.7207 O   0  0  0  0  0  0  0  0  0  0  0  0
   -0.7706    6.7012    7.8337 C   0  0  0  0  0  0  0  0  0  0  0  0
    0.0094    6.8159    9.1380 C   0  0  0  0  0  0  0  0  0  0  0  0
    2.4196    6.7038    6.3330 C   0  0  0  0  0  0  0  0  0  0  0  0
    3.5007    5.9209    5.9173 C   0  0  0  0  0  0  0  0  0  0  0  0
    3.2938    4.6250    5.4271 C   0  0  0  0  0  0  0  0  0  0  0  0
    4.3804    3.8122    5.0892 O   0  0  0  0  0  0  0  0  0  0  0  0
    4.6113    2.5420    5.6995 C   0  0  0  0  0  0  0  0  0  0  0  0
    4.9388    2.7134    7.1821 C   0  0  0  0  0  0  0  0  0  0  0  0
    1.9653    4.2045    5.2856 C   0  0  0  0  0  0  0  0  0  0  0  0
    1.4079    2.8406    4.4985 S   0  0  0  0  0  0  0  0  0  0  0  0
    4.7342    6.5684    6.0137 C   0  0  0  0  0  0  0  0  0  0  0  0
    4.6110    7.8684    6.4958 C   0  0  0  0  0  0  0  0  0  0  0  0
    2.9851    8.2112    6.8249 S   0  0  0  0  0  0  0  0  0  0  0  0
    5.6905    8.8610    6.5003 C   0  0  0  0  0  0  0  0  0  0  0  0
    6.1312    9.4428    5.3661 C   0  0  0  0  0  0  0  0  0  0  0  0
    5.4670    9.3521    4.0556 C   0  0  0  0  0  0  0  0  0  0  0  0
    4.5165    8.5834    3.7435 O   0  0  0  0  0  0  0  0  0  0  0  0
    5.9956   10.3917    3.2039 C   0  0  0  0  0  0  0  0  0  0  0  0
    5.5603   10.7566    1.9314 C   0  0  0  0  0  0  0  0  0  0  0  0
    6.1348   11.8816    1.3275 C   0  0  0  0  0  0  0  0  0  0  0  0
    7.1178   12.6357    2.0051 C   0  0  0  0  0  0  0  0  0  0  0  0
    7.6692   13.8706    1.3593 C   0  0  0  0  0  0  0  0  0  0  0  0
    7.5276   12.2530    3.3009 C   0  0  0  0  0  0  0  0  0  0  0  0
    6.9732   11.1008    3.8816 C   0  0  0  0  0  0  0  0  0  0  0  0
    7.1885   10.4910    5.2280 C   0  0  0  0  0  0  0  0  0  0  0  0
    8.2571   10.6769    6.0440 C   0  0  0  0  0  0  0  0  0  0  0  0
    9.3207   11.5964    5.7353 C   0  0  0  0  0  0  0  0  0  0  0  0
   10.1879   12.3268    5.4978 N   0  0  0  0  0  0  0  0  0  0  0  0
    8.4931    9.8540    7.2039 C   0  0  0  0  0  0  0  0  0  0  0  0
    8.6929    9.2027    8.1390 N   0  0  0  0  0  0  0  0  0  0  0  0
   -3.2366   -6.7831  -10.4441 H   0  0  0  0  0  0  0  0  0  0  0  0
    0.8511   -2.8970   -7.7069 H   0  0  0  0  0  0  0  0  0  0  0  0
   -1.7938   -1.5408  -11.8564 H   0  0  0  0  0  0  0  0  0  0  0  0
   -0.9445    1.1573   -9.8729 H   0  0  0  0  0  0  0  0  0  0  0  0
    0.7117    1.0925  -12.1059 H   0  0  0  0  0  0  0  0  0  0  0  0
    1.4013    3.3054  -10.8036 H   0  0  0  0  0  0  0  0  0  0  0  0
    2.7585    2.6164   -8.6824 H   0  0  0  0  0  0  0  0  0  0  0  0
    2.9285   -0.0342   -8.6250 H   0  0  0  0  0  0  0  0  0  0  0  0
    3.1451    0.4781  -11.2236 H   0  0  0  0  0  0  0  0  0  0  0  0
    2.0443   -0.9445  -10.9851 H   0  0  0  0  0  0  0  0  0  0  0  0
    0.2972    0.5382   -7.9260 H   0  0  0  0  0  0  0  0  0  0  0  0
   -0.9501   -8.7703   -8.6805 H   0  0  0  0  0  0  0  0  0  0  0  0
    1.1248   -8.0257   -7.1269 H   0  0  0  0  0  0  0  0  0  0  0  0
    1.9849   -8.9880   -5.8831 H   0  0  0  0  0  0  0  0  0  0  0  0
    0.9134   -7.4757   -4.0910 H   0  0  0  0  0  0  0  0  0  0  0  0
    2.1122   -6.6809   -5.1816 H   0  0  0  0  0  0  0  0  0  0  0  0
    0.3520   -6.4165   -5.4548 H   0  0  0  0  0  0  0  0  0  0  0  0
   -4.4441   -9.1165   -4.7073 H   0  0  0  0  0  0  0  0  0  0  0  0
   -4.7988  -11.5546   -4.8468 H   0  0  0  0  0  0  0  0  0  0  0  0
   -3.2855  -13.1066   -3.6670 H   0  0  0  0  0  0  0  0  0  0  0  0
   -1.0492  -13.4481   -2.7081 H   0  0  0  0  0  0  0  0  0  0  0  0
   -0.0627  -12.0571   -2.1662 H   0  0  0  0  0  0  0  0  0  0  0  0
   -0.8144  -13.4822   -0.2578 H   0  0  0  0  0  0  0  0  0  0  0  0
   -2.5436  -13.1560   -0.6766 H   0  0  0  0  0  0  0  0  0  0  0  0
   -1.4666  -11.8028   -0.1224 H   0  0  0  0  0  0  0  0  0  0  0  0
   -1.0306   -9.7573   -2.1612 H   0  0  0  0  0  0  0  0  0  0  0  0
   -0.4406    1.7202    6.9552 H   0  0  0  0  0  0  0  0  0  0  0  0
   -0.9236    2.0741    9.3426 H   0  0  0  0  0  0  0  0  0  0  0  0
   -3.2490    2.3249   10.1224 H   0  0  0  0  0  0  0  0  0  0  0  0
   -6.1796    2.6731    7.8117 H   0  0  0  0  0  0  0  0  0  0  0  0
   -5.5910    2.9673    9.4807 H   0  0  0  0  0  0  0  0  0  0  0  0
   -7.1449    1.0178    9.3677 H   0  0  0  0  0  0  0  0  0  0  0  0
   -6.0220    0.1678    8.2298 H   0  0  0  0  0  0  0  0  0  0  0  0
   -5.5071    0.5305    9.9315 H   0  0  0  0  0  0  0  0  0  0  0  0
   -4.6549    1.8944    6.0718 H   0  0  0  0  0  0  0  0  0  0  0  0
   -3.2550   -2.9671   -2.7658 H   0  0  0  0  0  0  0  0  0  0  0  0
   -2.8857   -1.6937   -1.6104 H   0  0  0  0  0  0  0  0  0  0  0  0
   -0.2818   -2.3891   -2.2811 H   0  0  0  0  0  0  0  0  0  0  0  0
   -1.1108   -2.9104   -3.7765 H   0  0  0  0  0  0  0  0  0  0  0  0
   -1.2597   -1.2172   -3.2512 H   0  0  0  0  0  0  0  0  0  0  0  0
   -0.6947   -1.4692   -0.3249 H   0  0  0  0  0  0  0  0  0  0  0  0
   -0.3517   -0.4160    1.0208 H   0  0  0  0  0  0  0  0  0  0  0  0
   -1.8705    0.2832   -1.5521 H   0  0  0  0  0  0  0  0  0  0  0  0
   -0.4702    1.0982   -0.8019 H   0  0  0  0  0  0  0  0  0  0  0  0
   -2.1205    1.2685   -0.0798 H   0  0  0  0  0  0  0  0  0  0  0  0
   -1.3233    4.8848    5.5192 H   0  0  0  0  0  0  0  0  0  0  0  0
   -1.1524    5.6651    7.7201 H   0  0  0  0  0  0  0  0  0  0  0  0
   -1.6398    7.3874    7.8709 H   0  0  0  0  0  0  0  0  0  0  0  0
   -0.6510    6.5458    9.9888 H   0  0  0  0  0  0  0  0  0  0  0  0
    0.3683    7.8548    9.2782 H   0  0  0  0  0  0  0  0  0  0  0  0
    0.8812    6.1288    9.1287 H   0  0  0  0  0  0  0  0  0  0  0  0
    5.4707    2.0504    5.1992 H   0  0  0  0  0  0  0  0  0  0  0  0
    3.7280    1.8824    5.5894 H   0  0  0  0  0  0  0  0  0  0  0  0
    5.8388    3.3499    7.3001 H   0  0  0  0  0  0  0  0  0  0  0  0
    5.1330    1.7222    7.6456 H   0  0  0  0  0  0  0  0  0  0  0  0
    4.0865    3.1917    7.7065 H   0  0  0  0  0  0  0  0  0  0  0  0
    5.6701    6.1316    5.6899 H   0  0  0  0  0  0  0  0  0  0  0  0
    6.0758    9.1570    7.4623 H   0  0  0  0  0  0  0  0  0  0  0  0
    4.7799   10.1993    1.4304 H   0  0  0  0  0  0  0  0  0  0  0  0
    5.7971   12.1836    0.3415 H   0  0  0  0  0  0  0  0  0  0  0  0
    6.8632   14.6251    1.2455 H   0  0  0  0  0  0  0  0  0  0  0  0
    8.0800   13.6213    0.3577 H   0  0  0  0  0  0  0  0  0  0  0  0
    8.4874   14.3176    1.9642 H   0  0  0  0  0  0  0  0  0  0  0  0
    8.2289   12.8751    3.8350 H   0  0  0  0  0  0  0  0  0  0  0  0
  1  2  2  3
  2  3  1  0
  3  4  2  0
  3  5  1  0
  5  6  2  0
  6  7  1  0
  7  8  2  0
  8  9  1  0
  9 10  2  0
 10 11  1  0
 11 12  2  3
 12 13  1  0
 13 14  3  0
 12 15  1  0
 15 16  3  0
  8 17  1  0
 17 18  1  0
 18 19  1  0
 19 20  2  0
 20 21  1  0
 21 22  1  0
 21 23  1  0
  1 24  1  0
 24 25  2  0
 25 26  1  0
 26 27  1  0
 27 28  1  0
 28 29  1  0
 26 30  2  0
 30 31  1  0
 30 32  1  0
 32 33  2  0
 33 34  1  0
 34 35  2  0
 35 36  1  0
 36 37  2  0
 37 38  1  0
 38 39  1  0
 39 40  1  0
 38 41  2  0
 33 42  1  0
 42 43  1  0
 43 44  1  0
 44 45  1  0
 45 46  1  0
 46 47  1  0
 47 48  2  0
 48 49  1  0
 49 50  1  0
 47 51  1  0
 51 52  1  0
 52 53  1  0
 53 54  1  0
 54 55  1  0
 55 56  1  0
 56 57  2  0
 57 58  1  0
 58 59  2  0
 59 60  1  0
 60 61  1  0
 61 62  1  0
 60 63  2  0
 55 64  2  0
 64 65  1  0
 65 66  1  0
 66 67  1  0
 67 68  1  0
 68 69  1  0
 69 70  1  0
 70 71  1  0
 71 72  1  0
 72 73  1  0
 73 74  1  0
 71 75  1  0
 75 76  1  0
 68 77  1  0
 77 78  1  0
 64 79  1  0
 79 80  2  0
 80 81  1  0
 81 82  2  0
 82 83  1  0
 83 84  1  0
 84 85  1  0
 82 86  1  0
 86 87  2  0
 87 88  1  0
 88 89  1  0
 89 90  1  0
 90 91  1  0
 88 92  2  0
 92 93  1  0
 87 94  1  0
 94 95  2  0
 95 96  1  0
 95 97  1  0
 97 98  2  3
 98 99  1  0
 99100  2  0
 99101  1  0
101102  2  0
102103  1  0
103104  2  0
104105  1  0
104106  1  0
106107  2  0
107108  1  0
108109  2  3
109110  1  0
110111  3  0
109112  1  0
112113  3  0
 11  2  1  0
 23 17  1  0
 31 24  1  0
 74 32  1  0
 93 79  1  0
108 98  1  0
 10  5  1  0
 22 18  1  0
 41 34  1  0
 73 42  2  0
 92 81  1  0
107101  1  0
 23  7  1  0
 72 44  2  0
 96 86  1  0
 70 45  2  0
 50 46  2  0
 69 51  2  0
 67 52  2  0
 66 54  2  0
 63 56  1  0
  1114  1  0
  6115  1  0
  9116  1  0
 17117  1  0
 18118  1  0
 19119  1  0
 20120  1  0
 21121  1  0
 22122  1  0
 22123  1  0
 23124  1  0
 25125  1  0
 28126  1  0
 28127  1  0
 29128  1  0
 29129  1  0
 29130  1  0
 35131  1  0
 36132  1  0
 37133  1  0
 39134  1  0
 39135  1  0
 40136  1  0
 40137  1  0
 40138  1  0
 41139  1  0
 57140  1  0
 58141  1  0
 59142  1  0
 61143  1  0
 61144  1  0
 62145  1  0
 62146  1  0
 62147  1  0
 63148  1  0
 75149  1  0
 75150  1  0
 76151  1  0
 76152  1  0
 76153  1  0
 77154  1  0
 77155  1  0
 78156  1  0
 78157  1  0
 78158  1  0
 80159  1  0
 84160  1  0
 84161  1  0
 85162  1  0
 85163  1  0
 85164  1  0
 90165  1  0
 90166  1  0
 91167  1  0
 91168  1  0
 91169  1  0
 94170  1  0
 97171  1  0
102172  1  0
103173  1  0
105174  1  0
105175  1  0
105176  1  0
106177  1  0
M  END

