
     RDKit          3D

192213  0  0  0  0  0  0  0  0999 V2000
    4.9490   -1.9038   -7.6078 C   0  0  0  0  0  0  0  0  0  0  0  0
    4.2293   -0.7573   -7.6230 C   0  0  0  0  0  0  0  0  0  0  0  0
    2.9686   -0.5169   -6.9086 C   0  0  0  0  0  0  0  0  0  0  0  0
    2.5073   -1.1820   -5.9364 O   0  0  0  0  0  0  0  0  0  0  0  0
    2.2907    0.6002   -7.5207 C   0  0  0  0  0  0  0  0  0  0  0  0
    0.9580    1.0126   -7.2940 C   0  0  0  0  0  0  0  0  0  0  0  0
    0.5181    1.9921   -8.1601 C   0  0  0  0  0  0  0  0  0  0  0  0
    1.3500    2.5692   -9.1749 C   0  0  0  0  0  0  0  0  0  0  0  0
    2.6624    2.1767   -9.3986 C   0  0  0  0  0  0  0  0  0  0  0  0
    3.1279    1.1568   -8.5217 C   0  0  0  0  0  0  0  0  0  0  0  0
    4.4230    0.4177   -8.5300 C   0  0  0  0  0  0  0  0  0  0  0  0
    5.5992    0.8725   -9.0335 C   0  0  0  0  0  0  0  0  0  0  0  0
    6.8604    0.2394   -8.7386 C   0  0  0  0  0  0  0  0  0  0  0  0
    7.8885   -0.2391   -8.4950 N   0  0  0  0  0  0  0  0  0  0  0  0
    5.7116    2.1345   -9.7273 C   0  0  0  0  0  0  0  0  0  0  0  0
    5.8034    3.1431  -10.2859 N   0  0  0  0  0  0  0  0  0  0  0  0
    0.2198    3.4546   -9.6140 C   0  0  0  0  0  0  0  0  0  0  0  0
    0.2681    4.9631   -9.2177 C   0  0  0  0  0  0  0  0  0  0  0  0
    1.0082    5.1256   -7.9105 C   0  0  0  0  0  0  0  0  0  0  0  0
    0.2408    4.5801   -6.9663 C   0  0  0  0  0  0  0  0  0  0  0  0
   -0.9997    4.0599   -7.6602 C   0  0  0  0  0  0  0  0  0  0  0  0
   -1.1554    5.1462   -8.7097 C   0  0  0  0  0  0  0  0  0  0  0  0
   -0.6330    2.8573   -8.5770 C   0  0  0  0  0  0  0  0  0  0  0  0
    4.5896   -3.0826   -6.7987 C   0  0  0  0  0  0  0  0  0  0  0  0
    5.3570   -3.6139   -5.7752 C   0  0  0  0  0  0  0  0  0  0  0  0
    4.6851   -4.5826   -5.0156 C   0  0  0  0  0  0  0  0  0  0  0  0
    5.4410   -5.3068   -3.5528 S   0  0  0  0  0  0  0  0  0  0  0  0
    5.1244   -3.8954   -2.4351 C   0  0  0  0  0  0  0  0  0  0  0  0
    3.7106   -3.9291   -1.8656 C   0  0  0  0  0  0  0  0  0  0  0  0
    3.3940   -4.8726   -5.4836 C   0  0  0  0  0  0  0  0  0  0  0  0
    3.1132   -3.8842   -6.8170 S   0  0  0  0  0  0  0  0  0  0  0  0
    2.2934   -5.4741   -4.7055 C   0  0  0  0  0  0  0  0  0  0  0  0
    2.3323   -6.6370   -3.8997 C   0  0  0  0  0  0  0  0  0  0  0  0
    3.3177   -7.7291   -4.0459 C   0  0  0  0  0  0  0  0  0  0  0  0
    3.9763   -8.2641   -2.9286 C   0  0  0  0  0  0  0  0  0  0  0  0
    4.9168   -9.2861   -3.0853 C   0  0  0  0  0  0  0  0  0  0  0  0
    5.1879   -9.7967   -4.3603 C   0  0  0  0  0  0  0  0  0  0  0  0
    4.5056   -9.3023   -5.4780 C   0  0  0  0  0  0  0  0  0  0  0  0
    4.7948   -9.8491   -6.8493 C   0  0  0  0  0  0  0  0  0  0  0  0
    5.8620   -9.0158   -7.5513 C   0  0  0  0  0  0  0  0  0  0  0  0
    3.5965   -8.2416   -5.3223 C   0  0  0  0  0  0  0  0  0  0  0  0
    1.2614   -6.6545   -2.9972 C   0  0  0  0  0  0  0  0  0  0  0  0
    0.9453   -7.5241   -1.5452 S   0  0  0  0  0  0  0  0  0  0  0  0
   -0.3041   -6.4437   -1.1267 C   0  0  0  0  0  0  0  0  0  0  0  0
   -0.9719   -6.0203   -0.0030 C   0  0  0  0  0  0  0  0  0  0  0  0
   -1.1453   -6.5690    1.2751 C   0  0  0  0  0  0  0  0  0  0  0  0
   -1.8851   -5.8263    2.2502 C   0  0  0  0  0  0  0  0  0  0  0  0
   -2.0162   -6.3902    3.4755 N   0  0  0  0  0  0  0  0  0  0  0  0
   -1.2090   -7.8143    3.2228 S   0  0  0  0  0  0  0  0  0  0  0  0
   -0.6736   -7.7832    1.6550 N   0  0  0  0  0  0  0  0  0  0  0  0
   -2.3456   -4.5445    1.9151 C   0  0  0  0  0  0  0  0  0  0  0  0
   -2.8331   -3.5176    2.6867 C   0  0  0  0  0  0  0  0  0  0  0  0
   -3.2328   -3.1627    4.3093 S   0  0  0  0  0  0  0  0  0  0  0  0
   -3.2919   -1.4784    3.9724 C   0  0  0  0  0  0  0  0  0  0  0  0
   -3.5980   -0.3147    4.7071 C   0  0  0  0  0  0  0  0  0  0  0  0
   -4.1237   -0.3193    6.0898 C   0  0  0  0  0  0  0  0  0  0  0  0
   -3.5460   -1.1337    7.0790 C   0  0  0  0  0  0  0  0  0  0  0  0
   -4.1191   -1.2031    8.3516 C   0  0  0  0  0  0  0  0  0  0  0  0
   -5.2738   -0.4726    8.6489 C   0  0  0  0  0  0  0  0  0  0  0  0
   -5.8486    0.3643    7.6748 C   0  0  0  0  0  0  0  0  0  0  0  0
   -7.1291    1.1018    7.9653 C   0  0  0  0  0  0  0  0  0  0  0  0
   -8.3356    0.3495    7.4054 C   0  0  0  0  0  0  0  0  0  0  0  0
   -5.2627    0.4414    6.4040 C   0  0  0  0  0  0  0  0  0  0  0  0
   -3.4870    0.8261    3.8758 C   0  0  0  0  0  0  0  0  0  0  0  0
   -2.9996    0.3742    2.3082 S   0  0  0  0  0  0  0  0  0  0  0  0
   -2.9723   -1.2453    2.6598 C   0  0  0  0  0  0  0  0  0  0  0  0
   -2.7361   -2.3930    1.9341 C   0  0  0  0  0  0  0  0  0  0  0  0
   -2.2099   -2.5964    0.7071 N   0  0  0  0  0  0  0  0  0  0  0  0
   -2.0620   -3.9585    0.6686 C   0  0  0  0  0  0  0  0  0  0  0  0
   -1.4734   -4.7506   -0.3356 C   0  0  0  0  0  0  0  0  0  0  0  0
   -1.2251   -4.4432   -1.6391 N   0  0  0  0  0  0  0  0  0  0  0  0
   -0.4642   -5.4711   -2.0621 C   0  0  0  0  0  0  0  0  0  0  0  0
    0.4048   -5.5866   -3.1226 C   0  0  0  0  0  0  0  0  0  0  0  0
    0.9257   -4.5376   -4.3073 S   0  0  0  0  0  0  0  0  0  0  0  0
   -1.9477   -3.5031   -2.5037 C   0  0  0  0  0  0  0  0  0  0  0  0
   -2.7406   -4.2289   -3.5842 C   0  0  0  0  0  0  0  0  0  0  0  0
   -1.3977   -1.5867    0.0050 C   0  0  0  0  0  0  0  0  0  0  0  0
   -2.2621   -0.5874   -0.7715 C   0  0  0  0  0  0  0  0  0  0  0  0
   -3.5420    2.2596    4.2292 C   0  0  0  0  0  0  0  0  0  0  0  0
   -4.2752    3.0945    3.3700 C   0  0  0  0  0  0  0  0  0  0  0  0
   -5.2907    2.5750    2.6259 F   0  0  0  0  0  0  0  0  0  0  0  0
   -3.8282    4.3879    3.0892 C   0  0  0  0  0  0  0  0  0  0  0  0
   -4.4001    5.0252    2.0353 F   0  0  0  0  0  0  0  0  0  0  0  0
   -2.6862    4.9133    3.7291 C   0  0  0  0  0  0  0  0  0  0  0  0
   -2.0502    4.1277    4.7216 C   0  0  0  0  0  0  0  0  0  0  0  0
   -0.9165    4.5676    5.3321 N   0  0  0  0  0  0  0  0  0  0  0  0
   -0.2128    3.8007    6.2104 C   0  0  0  0  0  0  0  0  0  0  0  0
    1.0983    4.3102    6.6838 C   0  0  0  0  0  0  0  0  0  0  0  0
    2.2543    3.5202    6.5733 C   0  0  0  0  0  0  0  0  0  0  0  0
    3.4891    4.0177    6.9909 C   0  0  0  0  0  0  0  0  0  0  0  0
    3.5902    5.3160    7.4956 C   0  0  0  0  0  0  0  0  0  0  0  0
    2.4464    6.1302    7.5860 C   0  0  0  0  0  0  0  0  0  0  0  0
    2.4950    7.4494    8.0688 O   0  0  0  0  0  0  0  0  0  0  0  0
    3.6830    8.1660    8.4121 C   0  0  0  0  0  0  0  0  0  0  0  0
    4.4264    8.6197    7.1543 C   0  0  0  0  0  0  0  0  0  0  0  0
    1.2047    5.6179    7.1867 C   0  0  0  0  0  0  0  0  0  0  0  0
   -0.6896    2.5009    6.5099 C   0  0  0  0  0  0  0  0  0  0  0  0
   -1.7914    2.0426    5.8616 N   0  0  0  0  0  0  0  0  0  0  0  0
   -2.4889    2.8109    4.9829 C   0  0  0  0  0  0  0  0  0  0  0  0
   -0.0199    1.5976    7.4770 C   0  0  0  0  0  0  0  0  0  0  0  0
    0.2130    0.2590    7.1270 C   0  0  0  0  0  0  0  0  0  0  0  0
    0.8960   -0.5873    8.0039 C   0  0  0  0  0  0  0  0  0  0  0  0
    1.3403   -0.1123    9.2433 C   0  0  0  0  0  0  0  0  0  0  0  0
    1.0796    1.2182    9.6208 C   0  0  0  0  0  0  0  0  0  0  0  0
    1.5175    1.7629   10.8406 O   0  0  0  0  0  0  0  0  0  0  0  0
    2.3305    1.1075   11.8125 C   0  0  0  0  0  0  0  0  0  0  0  0
    1.4894    0.2128   12.7256 C   0  0  0  0  0  0  0  0  0  0  0  0
    0.3825    2.0585    8.7422 C   0  0  0  0  0  0  0  0  0  0  0  0
   -1.9293    6.0385    3.1108 C   0  0  0  0  0  0  0  0  0  0  0  0
   -2.4672    7.1748    2.6173 C   0  0  0  0  0  0  0  0  0  0  0  0
   -3.8533    7.6117    2.7914 C   0  0  0  0  0  0  0  0  0  0  0  0
   -4.6205    7.2982    3.7465 O   0  0  0  0  0  0  0  0  0  0  0  0
   -4.1822    8.5164    1.7061 C   0  0  0  0  0  0  0  0  0  0  0  0
   -5.4260    9.0525    1.3756 C   0  0  0  0  0  0  0  0  0  0  0  0
   -5.5353    9.8202    0.2076 C   0  0  0  0  0  0  0  0  0  0  0  0
   -6.7293   10.3548   -0.1415 F   0  0  0  0  0  0  0  0  0  0  0  0
   -4.4091   10.0272   -0.6121 C   0  0  0  0  0  0  0  0  0  0  0  0
   -3.1647    9.4785   -0.2644 C   0  0  0  0  0  0  0  0  0  0  0  0
   -3.0521    8.7387    0.9309 C   0  0  0  0  0  0  0  0  0  0  0  0
   -1.8846    8.0303    1.5319 C   0  0  0  0  0  0  0  0  0  0  0  0
   -0.5675    8.2391    1.2590 C   0  0  0  0  0  0  0  0  0  0  0  0
   -0.1182    9.0891    0.1898 C   0  0  0  0  0  0  0  0  0  0  0  0
    0.2635    9.7527   -0.6823 N   0  0  0  0  0  0  0  0  0  0  0  0
    0.4922    7.6942    2.0671 C   0  0  0  0  0  0  0  0  0  0  0  0
    1.3630    7.2784    2.7092 N   0  0  0  0  0  0  0  0  0  0  0  0
    5.8234   -2.0154   -8.2307 H   0  0  0  0  0  0  0  0  0  0  0  0
    0.3214    0.5646   -6.5445 H   0  0  0  0  0  0  0  0  0  0  0  0
    3.2146    2.5717  -10.2342 H   0  0  0  0  0  0  0  0  0  0  0  0
   -0.1317    3.2580  -10.6522 H   0  0  0  0  0  0  0  0  0  0  0  0
    0.5773    5.6571  -10.0277 H   0  0  0  0  0  0  0  0  0  0  0  0
    1.9441    5.6536   -7.7414 H   0  0  0  0  0  0  0  0  0  0  0  0
    0.4410    4.5777   -5.9011 H   0  0  0  0  0  0  0  0  0  0  0  0
   -1.8719    3.8991   -6.9925 H   0  0  0  0  0  0  0  0  0  0  0  0
   -1.3520    6.1544   -8.2645 H   0  0  0  0  0  0  0  0  0  0  0  0
   -1.9376    4.9201   -9.4743 H   0  0  0  0  0  0  0  0  0  0  0  0
   -1.5039    2.2961   -8.9768 H   0  0  0  0  0  0  0  0  0  0  0  0
    6.3499   -3.2552   -5.5262 H   0  0  0  0  0  0  0  0  0  0  0  0
    5.8467   -3.9653   -1.5920 H   0  0  0  0  0  0  0  0  0  0  0  0
    5.3009   -2.9245   -2.9531 H   0  0  0  0  0  0  0  0  0  0  0  0
    2.9874   -3.6155   -2.6435 H   0  0  0  0  0  0  0  0  0  0  0  0
    3.4608   -4.9509   -1.4954 H   0  0  0  0  0  0  0  0  0  0  0  0
    3.6296   -3.2158   -1.0185 H   0  0  0  0  0  0  0  0  0  0  0  0
    3.8080   -7.8535   -1.9412 H   0  0  0  0  0  0  0  0  0  0  0  0
    5.4521   -9.6673   -2.2251 H   0  0  0  0  0  0  0  0  0  0  0  0
    5.9210  -10.5910   -4.4693 H   0  0  0  0  0  0  0  0  0  0  0  0
    5.1436  -10.9041   -6.7793 H   0  0  0  0  0  0  0  0  0  0  0  0
    3.8639   -9.8514   -7.4561 H   0  0  0  0  0  0  0  0  0  0  0  0
    5.5191   -7.9601   -7.6460 H   0  0  0  0  0  0  0  0  0  0  0  0
    6.0513   -9.4285   -8.5658 H   0  0  0  0  0  0  0  0  0  0  0  0
    6.8089   -9.0470   -6.9681 H   0  0  0  0  0  0  0  0  0  0  0  0
    3.0818   -7.8464   -6.1895 H   0  0  0  0  0  0  0  0  0  0  0  0
   -2.6516   -1.7040    6.8679 H   0  0  0  0  0  0  0  0  0  0  0  0
   -3.6759   -1.8428    9.1078 H   0  0  0  0  0  0  0  0  0  0  0  0
   -5.7228   -0.5590    9.6310 H   0  0  0  0  0  0  0  0  0  0  0  0
   -7.2615    1.2403    9.0616 H   0  0  0  0  0  0  0  0  0  0  0  0
   -7.0820    2.1141    7.5033 H   0  0  0  0  0  0  0  0  0  0  0  0
   -8.4282   -0.6512    7.8894 H   0  0  0  0  0  0  0  0  0  0  0  0
   -8.2322    0.2164    6.3026 H   0  0  0  0  0  0  0  0  0  0  0  0
   -9.2622    0.9266    7.6040 H   0  0  0  0  0  0  0  0  0  0  0  0
   -5.7286    1.0543    5.6420 H   0  0  0  0  0  0  0  0  0  0  0  0
   -1.2330   -2.7932   -2.9724 H   0  0  0  0  0  0  0  0  0  0  0  0
   -2.6924   -2.9392   -1.9104 H   0  0  0  0  0  0  0  0  0  0  0  0
   -2.0649   -4.7658   -4.2826 H   0  0  0  0  0  0  0  0  0  0  0  0
   -3.3273   -3.4868   -4.1699 H   0  0  0  0  0  0  0  0  0  0  0  0
   -3.4366   -4.9608   -3.1202 H   0  0  0  0  0  0  0  0  0  0  0  0
   -0.6631   -2.0662   -0.6745 H   0  0  0  0  0  0  0  0  0  0  0  0
   -0.7784   -1.0350    0.7495 H   0  0  0  0  0  0  0  0  0  0  0  0
   -3.3463   -0.7739   -0.6056 H   0  0  0  0  0  0  0  0  0  0  0  0
   -2.0289    0.4518   -0.4631 H   0  0  0  0  0  0  0  0  0  0  0  0
   -2.0510   -0.6543   -1.8616 H   0  0  0  0  0  0  0  0  0  0  0  0
    2.2072    2.5263    6.1483 H   0  0  0  0  0  0  0  0  0  0  0  0
    4.3761    3.4038    6.9023 H   0  0  0  0  0  0  0  0  0  0  0  0
    4.5611    5.6675    7.8084 H   0  0  0  0  0  0  0  0  0  0  0  0
    4.3410    7.5626    9.0690 H   0  0  0  0  0  0  0  0  0  0  0  0
    3.3891    9.0742    8.9819 H   0  0  0  0  0  0  0  0  0  0  0  0
    5.2837    9.2673    7.4389 H   0  0  0  0  0  0  0  0  0  0  0  0
    3.7435    9.1965    6.4969 H   0  0  0  0  0  0  0  0  0  0  0  0
    4.8179    7.7467    6.5922 H   0  0  0  0  0  0  0  0  0  0  0  0
    0.3229    6.2436    7.2632 H   0  0  0  0  0  0  0  0  0  0  0  0
   -0.0865   -0.1132    6.1569 H   0  0  0  0  0  0  0  0  0  0  0  0
    1.0960   -1.6121    7.7168 H   0  0  0  0  0  0  0  0  0  0  0  0
    1.8793   -0.7873    9.8921 H   0  0  0  0  0  0  0  0  0  0  0  0
    2.8129    1.8887   12.4394 H   0  0  0  0  0  0  0  0  0  0  0  0
    3.1498    0.5263   11.3272 H   0  0  0  0  0  0  0  0  0  0  0  0
    2.0766   -0.0413   13.6352 H   0  0  0  0  0  0  0  0  0  0  0  0
    0.5646    0.7508   13.0347 H   0  0  0  0  0  0  0  0  0  0  0  0
    1.2178   -0.7245   12.2066 H   0  0  0  0  0  0  0  0  0  0  0  0
    0.1736    3.0771    9.0468 H   0  0  0  0  0  0  0  0  0  0  0  0
   -0.9015    5.7997    2.8807 H   0  0  0  0  0  0  0  0  0  0  0  0
   -6.2956    8.8649    1.9911 H   0  0  0  0  0  0  0  0  0  0  0  0
   -4.5042   10.5995   -1.5268 H   0  0  0  0  0  0  0  0  0  0  0  0
   -2.3398    9.6048   -0.9458 H   0  0  0  0  0  0  0  0  0  0  0  0
  1  2  2  3
  2  3  1  0
  3  4  2  0
  3  5  1  0
  5  6  2  0
  6  7  1  0
  7  8  2  0
  8  9  1  0
  9 10  2  0
 10 11  1  0
 11 12  2  3
 12 13  1  0
 13 14  3  0
 12 15  1  0
 15 16  3  0
  8 17  1  0
 17 18  1  0
 18 19  1  0
 19 20  2  0
 20 21  1  0
 21 22  1  0
 21 23  1  0
  1 24  1  0
 24 25  2  0
 25 26  1  0
 26 27  1  0
 27 28  1  0
 28 29  1  0
 26 30  2  0
 30 31  1  0
 30 32  1  0
 32 33  2  0
 33 34  1  0
 34 35  2  0
 35 36  1  0
 36 37  2  0
 37 38  1  0
 38 39  1  0
 39 40  1  0
 38 41  2  0
 33 42  1  0
 42 43  1  0
 43 44  1  0
 44 45  1  0
 45 46  1  0
 46 47  1  0
 47 48  2  0
 48 49  1  0
 49 50  1  0
 47 51  1  0
 51 52  1  0
 52 53  1  0
 53 54  1  0
 54 55  1  0
 55 56  1  0
 56 57  2  0
 57 58  1  0
 58 59  2  0
 59 60  1  0
 60 61  1  0
 61 62  1  0
 60 63  2  0
 55 64  2  0
 64 65  1  0
 65 66  1  0
 66 67  1  0
 67 68  1  0
 68 69  1  0
 69 70  1  0
 70 71  1  0
 71 72  1  0
 72 73  1  0
 73 74  1  0
 71 75  1  0
 75 76  1  0
 68 77  1  0
 77 78  1  0
 64 79  1  0
 79 80  2  0
 80 81  1  0
 80 82  1  0
 82 83  1  0
 82 84  2  0
 84 85  1  0
 85 86  2  0
 86 87  1  0
 87 88  1  0
 88 89  2  0
 89 90  1  0
 90 91  2  0
 91 92  1  0
 92 93  1  0
 93 94  1  0
 94 95  1  0
 92 96  2  0
 87 97  2  0
 97 98  1  0
 98 99  2  0
 97100  1  0
100101  2  0
101102  1  0
102103  2  0
103104  1  0
104105  1  0
105106  1  0
106107  1  0
104108  2  0
 84109  1  0
109110  2  3
110111  1  0
111112  2  0
111113  1  0
113114  2  0
114115  1  0
115116  1  0
115117  2  0
117118  1  0
118119  2  0
119120  1  0
120121  2  3
121122  1  0
122123  3  0
121124  1  0
124125  3  0
 11  2  1  0
 23 17  1  0
 31 24  1  0
 74 32  1  0
 99 79  1  0
108100  1  0
120110  1  0
 10  5  1  0
 22 18  1  0
 41 34  1  0
 73 42  2  0
 99 85  1  0
119113  1  0
 23  7  1  0
 72 44  2  0
 96 88  1  0
 70 45  2  0
 50 46  2  0
 69 51  2  0
 67 52  2  0
 66 54  2  0
 63 56  1  0
  1126  1  0
  6127  1  0
  9128  1  0
 17129  1  0
 18130  1  0
 19131  1  0
 20132  1  0
 21133  1  0
 22134  1  0
 22135  1  0
 23136  1  0
 25137  1  0
 28138  1  0
 28139  1  0
 29140  1  0
 29141  1  0
 29142  1  0
 35143  1  0
 36144  1  0
 37145  1  0
 39146  1  0
 39147  1  0
 40148  1  0
 40149  1  0
 40150  1  0
 41151  1  0
 57152  1  0
 58153  1  0
 59154  1  0
 61155  1  0
 61156  1  0
 62157  1  0
 62158  1  0
 62159  1  0
 63160  1  0
 75161  1  0
 75162  1  0
 76163  1  0
 76164  1  0
 76165  1  0
 77166  1  0
 77167  1  0
 78168  1  0
 78169  1  0
 78170  1  0
 89171  1  0
 90172  1  0
 91173  1  0
 94174  1  0
 94175  1  0
 95176  1  0
 95177  1  0
 95178  1  0
 96179  1  0
101180  1  0
102181  1  0
103182  1  0
106183  1  0
106184  1  0
107185  1  0
107186  1  0
107187  1  0
108188  1  0
109189  1  0
114190  1  0
117191  1  0
118192  1  0
M  END

