
     RDKit          3D

155173  0  0  0  0  0  0  0  0999 V2000
    0.4528   -7.0259   -3.7538 C   0  0  0  0  0  0  0  0  0  0  0  0
   -0.2204   -7.0590   -2.5824 C   0  0  0  0  0  0  0  0  0  0  0  0
    0.4500   -7.3311   -1.3055 C   0  0  0  0  0  0  0  0  0  0  0  0
    1.6137   -7.7843   -1.1663 O   0  0  0  0  0  0  0  0  0  0  0  0
   -0.4280   -6.9161   -0.2301 C   0  0  0  0  0  0  0  0  0  0  0  0
   -0.1369   -6.9130    1.1537 C   0  0  0  0  0  0  0  0  0  0  0  0
   -1.1717   -6.4520    1.9500 C   0  0  0  0  0  0  0  0  0  0  0  0
   -2.4188   -6.0016    1.4139 C   0  0  0  0  0  0  0  0  0  0  0  0
   -2.6982   -5.9662    0.0555 C   0  0  0  0  0  0  0  0  0  0  0  0
   -1.6578   -6.4654   -0.7820 C   0  0  0  0  0  0  0  0  0  0  0  0
   -1.6214   -6.6482   -2.2639 C   0  0  0  0  0  0  0  0  0  0  0  0
   -2.6966   -6.8217   -3.0756 C   0  0  0  0  0  0  0  0  0  0  0  0
   -4.0494   -6.5939   -2.6323 C   0  0  0  0  0  0  0  0  0  0  0  0
   -5.1485   -6.4334   -2.2970 N   0  0  0  0  0  0  0  0  0  0  0  0
   -2.5786   -7.4403   -4.3697 C   0  0  0  0  0  0  0  0  0  0  0  0
   -2.4831   -7.9471   -5.4061 N   0  0  0  0  0  0  0  0  0  0  0  0
   -2.9404   -5.7431    2.8003 C   0  0  0  0  0  0  0  0  0  0  0  0
   -3.0560   -4.2639    3.2853 C   0  0  0  0  0  0  0  0  0  0  0  0
   -2.0012   -3.4114    2.6165 C   0  0  0  0  0  0  0  0  0  0  0  0
   -0.8248   -3.8142    3.0973 C   0  0  0  0  0  0  0  0  0  0  0  0
   -1.1128   -4.9189    4.0845 C   0  0  0  0  0  0  0  0  0  0  0  0
   -2.4144   -4.3848    4.6599 C   0  0  0  0  0  0  0  0  0  0  0  0
   -1.6506   -6.1841    3.3471 C   0  0  0  0  0  0  0  0  0  0  0  0
    0.1010   -6.1889   -4.9188 C   0  0  0  0  0  0  0  0  0  0  0  0
    0.7154   -6.2907   -6.1567 C   0  0  0  0  0  0  0  0  0  0  0  0
    0.5571   -5.1508   -6.9693 C   0  0  0  0  0  0  0  0  0  0  0  0
    1.4221   -4.9601   -8.5328 S   0  0  0  0  0  0  0  0  0  0  0  0
    0.3593   -6.1141   -9.4783 C   0  0  0  0  0  0  0  0  0  0  0  0
   -1.0331   -5.5464   -9.7138 C   0  0  0  0  0  0  0  0  0  0  0  0
   -0.1987   -4.1336   -6.3795 C   0  0  0  0  0  0  0  0  0  0  0  0
   -0.6106   -4.6699   -4.8394 S   0  0  0  0  0  0  0  0  0  0  0  0
   -0.0221   -2.7004   -6.6106 C   0  0  0  0  0  0  0  0  0  0  0  0
   -0.9195   -1.7850   -7.2057 C   0  0  0  0  0  0  0  0  0  0  0  0
   -2.0637   -2.1197   -8.0925 C   0  0  0  0  0  0  0  0  0  0  0  0
   -2.3166   -1.3172   -9.2157 C   0  0  0  0  0  0  0  0  0  0  0  0
   -3.3300   -1.6420  -10.1227 C   0  0  0  0  0  0  0  0  0  0  0  0
   -4.0628   -2.8160   -9.9434 C   0  0  0  0  0  0  0  0  0  0  0  0
   -3.8389   -3.6407   -8.8288 C   0  0  0  0  0  0  0  0  0  0  0  0
   -4.5527   -4.9690   -8.7218 C   0  0  0  0  0  0  0  0  0  0  0  0
   -6.0614   -4.8072   -8.5775 C   0  0  0  0  0  0  0  0  0  0  0  0
   -2.8613   -3.2656   -7.8879 C   0  0  0  0  0  0  0  0  0  0  0  0
   -0.5546   -0.4666   -6.8809 C   0  0  0  0  0  0  0  0  0  0  0  0
   -1.4626    0.9763   -6.8370 S   0  0  0  0  0  0  0  0  0  0  0  0
   -0.2878    1.7712   -5.9028 C   0  0  0  0  0  0  0  0  0  0  0  0
   -0.3625    2.7324   -4.9272 C   0  0  0  0  0  0  0  0  0  0  0  0
   -1.4713    3.4989   -4.5381 C   0  0  0  0  0  0  0  0  0  0  0  0
   -1.4637    4.1183   -3.2522 C   0  0  0  0  0  0  0  0  0  0  0  0
   -2.5972    4.7438   -2.8691 N   0  0  0  0  0  0  0  0  0  0  0  0
   -3.5404    4.4641   -4.1899 S   0  0  0  0  0  0  0  0  0  0  0  0
   -2.6251    3.5799   -5.2467 N   0  0  0  0  0  0  0  0  0  0  0  0
   -0.3320    3.9877   -2.4466 C   0  0  0  0  0  0  0  0  0  0  0  0
   -0.1150    4.3285   -1.1386 C   0  0  0  0  0  0  0  0  0  0  0  0
   -0.9812    4.8784    0.2218 S   0  0  0  0  0  0  0  0  0  0  0  0
    0.3153    4.4334    1.2497 C   0  0  0  0  0  0  0  0  0  0  0  0
    0.4659    4.3313    2.6347 C   0  0  0  0  0  0  0  0  0  0  0  0
   -0.4750    4.8276    3.6522 C   0  0  0  0  0  0  0  0  0  0  0  0
   -1.6894    4.1745    3.8678 C   0  0  0  0  0  0  0  0  0  0  0  0
   -2.4734    4.4890    4.9906 C   0  0  0  0  0  0  0  0  0  0  0  0
   -2.0735    5.5175    5.8575 C   0  0  0  0  0  0  0  0  0  0  0  0
   -0.8876    6.2271    5.6072 C   0  0  0  0  0  0  0  0  0  0  0  0
   -0.4501    7.3258    6.5394 C   0  0  0  0  0  0  0  0  0  0  0  0
    0.6409    6.8332    7.4916 C   0  0  0  0  0  0  0  0  0  0  0  0
   -0.0882    5.8731    4.5097 C   0  0  0  0  0  0  0  0  0  0  0  0
    1.6338    3.6077    2.9577 C   0  0  0  0  0  0  0  0  0  0  0  0
    2.4510    3.1331    1.5458 S   0  0  0  0  0  0  0  0  0  0  0  0
    1.3498    3.8859    0.5395 C   0  0  0  0  0  0  0  0  0  0  0  0
    1.1023    3.8424   -0.8153 C   0  0  0  0  0  0  0  0  0  0  0  0
    1.7373    3.2317   -1.8401 N   0  0  0  0  0  0  0  0  0  0  0  0
    0.7995    3.2457   -2.8478 C   0  0  0  0  0  0  0  0  0  0  0  0
    0.7413    2.5100   -4.0738 C   0  0  0  0  0  0  0  0  0  0  0  0
    1.4011    1.3631   -4.4609 N   0  0  0  0  0  0  0  0  0  0  0  0
    0.7355    0.9428   -5.5623 C   0  0  0  0  0  0  0  0  0  0  0  0
    0.5717   -0.3303   -6.1134 C   0  0  0  0  0  0  0  0  0  0  0  0
    1.1609   -1.8425   -5.7483 S   0  0  0  0  0  0  0  0  0  0  0  0
    2.4063    0.5618   -3.7650 C   0  0  0  0  0  0  0  0  0  0  0  0
    1.8217   -0.1301   -2.5375 C   0  0  0  0  0  0  0  0  0  0  0  0
    3.2038    3.1554   -1.9051 C   0  0  0  0  0  0  0  0  0  0  0  0
    3.7565    3.8342   -3.1626 C   0  0  0  0  0  0  0  0  0  0  0  0
    1.9508    3.1154    4.2900 C   0  0  0  0  0  0  0  0  0  0  0  0
    2.4285    3.8845    5.3405 C   0  0  0  0  0  0  0  0  0  0  0  0
    2.4691    3.1834    6.5416 C   0  0  0  0  0  0  0  0  0  0  0  0
    3.0304    3.9162    8.0724 S   0  0  0  0  0  0  0  0  0  0  0  0
    4.7576    3.3786    7.8636 C   0  0  0  0  0  0  0  0  0  0  0  0
    5.4703    3.4126    9.2023 C   0  0  0  0  0  0  0  0  0  0  0  0
    2.0047    1.8723    6.4387 C   0  0  0  0  0  0  0  0  0  0  0  0
    1.5835    1.5645    4.8466 S   0  0  0  0  0  0  0  0  0  0  0  0
    1.8937    0.9290    7.5585 C   0  0  0  0  0  0  0  0  0  0  0  0
    0.9878    1.1407    8.5313 C   0  0  0  0  0  0  0  0  0  0  0  0
   -0.1523    2.0750    8.3910 C   0  0  0  0  0  0  0  0  0  0  0  0
   -0.7981    2.3378    7.3359 O   0  0  0  0  0  0  0  0  0  0  0  0
   -0.4041    2.6273    9.6835 C   0  0  0  0  0  0  0  0  0  0  0  0
   -1.6177    3.5391   10.3794 S   0  0  0  0  0  0  0  0  0  0  0  0
   -1.0273    3.2779   11.9561 C   0  0  0  0  0  0  0  0  0  0  0  0
   -1.8195    3.8862   13.3983 Cl  0  0  0  0  0  0  0  0  0  0  0  0
    0.0685    2.4074   11.9292 C   0  0  0  0  0  0  0  0  0  0  0  0
    0.4185    2.0836   10.6206 C   0  0  0  0  0  0  0  0  0  0  0  0
    1.2808    1.0750    9.9982 C   0  0  0  0  0  0  0  0  0  0  0  0
    2.1787    0.2894   10.6437 C   0  0  0  0  0  0  0  0  0  0  0  0
    2.7831   -0.8362    9.9759 C   0  0  0  0  0  0  0  0  0  0  0  0
    3.2702   -1.7414    9.4334 N   0  0  0  0  0  0  0  0  0  0  0  0
    2.8891    0.7818   11.7933 C   0  0  0  0  0  0  0  0  0  0  0  0
    3.5140    1.2105   12.6753 N   0  0  0  0  0  0  0  0  0  0  0  0
    1.4688   -7.4133   -3.7691 H   0  0  0  0  0  0  0  0  0  0  0  0
    0.8009   -7.2612    1.5611 H   0  0  0  0  0  0  0  0  0  0  0  0
   -3.6422   -5.5873   -0.3074 H   0  0  0  0  0  0  0  0  0  0  0  0
   -3.7946   -6.3867    3.0880 H   0  0  0  0  0  0  0  0  0  0  0  0
   -4.0693   -3.8308    3.2775 H   0  0  0  0  0  0  0  0  0  0  0  0
   -2.1610   -2.5696    1.9593 H   0  0  0  0  0  0  0  0  0  0  0  0
    0.1379   -3.3536    2.8825 H   0  0  0  0  0  0  0  0  0  0  0  0
   -0.3112   -5.1101    4.8301 H   0  0  0  0  0  0  0  0  0  0  0  0
   -2.9356   -5.1107    5.3313 H   0  0  0  0  0  0  0  0  0  0  0  0
   -2.3030   -3.4025    5.1972 H   0  0  0  0  0  0  0  0  0  0  0  0
   -1.7345   -7.0895    3.9750 H   0  0  0  0  0  0  0  0  0  0  0  0
    1.3436   -7.1271   -6.4405 H   0  0  0  0  0  0  0  0  0  0  0  0
    0.8289   -6.2995  -10.4660 H   0  0  0  0  0  0  0  0  0  0  0  0
    0.2785   -7.0817   -8.9396 H   0  0  0  0  0  0  0  0  0  0  0  0
   -1.5752   -5.4819   -8.7510 H   0  0  0  0  0  0  0  0  0  0  0  0
   -1.6140   -6.2210  -10.3813 H   0  0  0  0  0  0  0  0  0  0  0  0
   -0.9673   -4.5416  -10.1899 H   0  0  0  0  0  0  0  0  0  0  0  0
   -1.7206   -0.4363   -9.4117 H   0  0  0  0  0  0  0  0  0  0  0  0
   -3.5008   -1.0157  -10.9879 H   0  0  0  0  0  0  0  0  0  0  0  0
   -4.8105   -3.0798  -10.6868 H   0  0  0  0  0  0  0  0  0  0  0  0
   -4.1682   -5.5429   -7.8521 H   0  0  0  0  0  0  0  0  0  0  0  0
   -4.3319   -5.5612   -9.6324 H   0  0  0  0  0  0  0  0  0  0  0  0
   -6.5294   -5.8093   -8.5347 H   0  0  0  0  0  0  0  0  0  0  0  0
   -6.3130   -4.2558   -7.6485 H   0  0  0  0  0  0  0  0  0  0  0  0
   -6.4916   -4.2727   -9.4490 H   0  0  0  0  0  0  0  0  0  0  0  0
   -2.7025   -3.8866   -7.0193 H   0  0  0  0  0  0  0  0  0  0  0  0
   -1.9964    3.3544    3.2253 H   0  0  0  0  0  0  0  0  0  0  0  0
   -3.3788    3.9327    5.2118 H   0  0  0  0  0  0  0  0  0  0  0  0
   -2.6645    5.7284    6.7473 H   0  0  0  0  0  0  0  0  0  0  0  0
   -0.0511    8.1895    5.9487 H   0  0  0  0  0  0  0  0  0  0  0  0
   -1.3191    7.6996    7.1308 H   0  0  0  0  0  0  0  0  0  0  0  0
    1.0241    7.6926    8.0781 H   0  0  0  0  0  0  0  0  0  0  0  0
    1.4985    6.4078    6.9159 H   0  0  0  0  0  0  0  0  0  0  0  0
    0.2483    6.0496    8.1872 H   0  0  0  0  0  0  0  0  0  0  0  0
    0.8486    6.3966    4.3325 H   0  0  0  0  0  0  0  0  0  0  0  0
    2.8134   -0.2052   -4.4411 H   0  0  0  0  0  0  0  0  0  0  0  0
    3.2991    1.1450   -3.5389 H   0  0  0  0  0  0  0  0  0  0  0  0
    2.6113   -0.6943   -1.9970 H   0  0  0  0  0  0  0  0  0  0  0  0
    1.0404   -0.8552   -2.8586 H   0  0  0  0  0  0  0  0  0  0  0  0
    1.3575    0.6022   -1.8330 H   0  0  0  0  0  0  0  0  0  0  0  0
    3.6518    3.7098   -1.0537 H   0  0  0  0  0  0  0  0  0  0  0  0
    3.5627    2.1267   -1.7376 H   0  0  0  0  0  0  0  0  0  0  0  0
    3.3907    3.3485   -4.0888 H   0  0  0  0  0  0  0  0  0  0  0  0
    4.8719    3.7804   -3.1555 H   0  0  0  0  0  0  0  0  0  0  0  0
    3.4379    4.8970   -3.1739 H   0  0  0  0  0  0  0  0  0  0  0  0
    2.7251    4.9213    5.2449 H   0  0  0  0  0  0  0  0  0  0  0  0
    5.2558    4.0693    7.1562 H   0  0  0  0  0  0  0  0  0  0  0  0
    4.8066    2.3464    7.4558 H   0  0  0  0  0  0  0  0  0  0  0  0
    5.4846    4.4529    9.5879 H   0  0  0  0  0  0  0  0  0  0  0  0
    6.5151    3.0603    9.0721 H   0  0  0  0  0  0  0  0  0  0  0  0
    4.9411    2.7511    9.9211 H   0  0  0  0  0  0  0  0  0  0  0  0
    2.7814    0.3692    7.7603 H   0  0  0  0  0  0  0  0  0  0  0  0
    0.5379    2.0249   12.8234 H   0  0  0  0  0  0  0  0  0  0  0  0
  1  2  2  3
  2  3  1  0
  3  4  2  0
  3  5  1  0
  5  6  2  0
  6  7  1  0
  7  8  2  0
  8  9  1  0
  9 10  2  0
 10 11  1  0
 11 12  2  3
 12 13  1  0
 13 14  3  0
 12 15  1  0
 15 16  3  0
  8 17  1  0
 17 18  1  0
 18 19  1  0
 19 20  2  0
 20 21  1  0
 21 22  1  0
 21 23  1  0
  1 24  1  0
 24 25  2  0
 25 26  1  0
 26 27  1  0
 27 28  1  0
 28 29  1  0
 26 30  2  0
 30 31  1  0
 30 32  1  0
 32 33  2  0
 33 34  1  0
 34 35  2  0
 35 36  1  0
 36 37  2  0
 37 38  1  0
 38 39  1  0
 39 40  1  0
 38 41  2  0
 33 42  1  0
 42 43  1  0
 43 44  1  0
 44 45  1  0
 45 46  1  0
 46 47  1  0
 47 48  2  0
 48 49  1  0
 49 50  1  0
 47 51  1  0
 51 52  1  0
 52 53  1  0
 53 54  1  0
 54 55  1  0
 55 56  1  0
 56 57  2  0
 57 58  1  0
 58 59  2  0
 59 60  1  0
 60 61  1  0
 61 62  1  0
 60 63  2  0
 55 64  2  0
 64 65  1  0
 65 66  1  0
 66 67  1  0
 67 68  1  0
 68 69  1  0
 69 70  1  0
 70 71  1  0
 71 72  1  0
 72 73  1  0
 73 74  1  0
 71 75  1  0
 75 76  1  0
 68 77  1  0
 77 78  1  0
 64 79  1  0
 79 80  2  0
 80 81  1  0
 81 82  1  0
 82 83  1  0
 83 84  1  0
 81 85  2  0
 85 86  1  0
 85 87  1  0
 87 88  2  3
 88 89  1  0
 89 90  2  0
 89 91  1  0
 91 92  1  0
 92 93  1  0
 93 94  1  0
 93 95  2  0
 95 96  1  0
 96 97  1  0
 97 98  2  3
 98 99  1  0
 99100  3  0
 98101  1  0
101102  3  0
 11  2  1  0
 23 17  1  0
 31 24  1  0
 74 32  1  0
 86 79  1  0
 97 88  1  0
 10  5  1  0
 22 18  1  0
 41 34  1  0
 73 42  2  0
 96 91  2  0
 23  7  1  0
 72 44  2  0
 70 45  2  0
 50 46  2  0
 69 51  2  0
 67 52  2  0
 66 54  2  0
 63 56  1  0
  1103  1  0
  6104  1  0
  9105  1  0
 17106  1  0
 18107  1  0
 19108  1  0
 20109  1  0
 21110  1  0
 22111  1  0
 22112  1  0
 23113  1  0
 25114  1  0
 28115  1  0
 28116  1  0
 29117  1  0
 29118  1  0
 29119  1  0
 35120  1  0
 36121  1  0
 37122  1  0
 39123  1  0
 39124  1  0
 40125  1  0
 40126  1  0
 40127  1  0
 41128  1  0
 57129  1  0
 58130  1  0
 59131  1  0
 61132  1  0
 61133  1  0
 62134  1  0
 62135  1  0
 62136  1  0
 63137  1  0
 75138  1  0
 75139  1  0
 76140  1  0
 76141  1  0
 76142  1  0
 77143  1  0
 77144  1  0
 78145  1  0
 78146  1  0
 78147  1  0
 80148  1  0
 83149  1  0
 83150  1  0
 84151  1  0
 84152  1  0
 84153  1  0
 87154  1  0
 95155  1  0
M  END

