
     RDKit          3D

164183  0  0  0  0  0  0  0  0999 V2000
   -2.4634   -5.3057   -6.4959 C   0  0  0  0  0  0  0  0  0  0  0  0
   -2.7436   -6.1681   -5.4983 C   0  0  0  0  0  0  0  0  0  0  0  0
   -3.5195   -5.8549   -4.2886 C   0  0  0  0  0  0  0  0  0  0  0  0
   -4.3359   -4.9066   -4.1495 O   0  0  0  0  0  0  0  0  0  0  0  0
   -3.2660   -6.8719   -3.2954 C   0  0  0  0  0  0  0  0  0  0  0  0
   -3.6640   -6.8590   -1.9375 C   0  0  0  0  0  0  0  0  0  0  0  0
   -3.1377   -7.8986   -1.1921 C   0  0  0  0  0  0  0  0  0  0  0  0
   -2.2651   -8.8923   -1.7419 C   0  0  0  0  0  0  0  0  0  0  0  0
   -1.8778   -8.9108   -3.0721 C   0  0  0  0  0  0  0  0  0  0  0  0
   -2.4363   -7.8693   -3.8656 C   0  0  0  0  0  0  0  0  0  0  0  0
   -2.1954   -7.5455   -5.3000 C   0  0  0  0  0  0  0  0  0  0  0  0
   -1.8097   -8.4233   -6.2623 C   0  0  0  0  0  0  0  0  0  0  0  0
   -1.7557   -8.0745   -7.6574 C   0  0  0  0  0  0  0  0  0  0  0  0
   -1.7114   -7.8062   -8.7820 N   0  0  0  0  0  0  0  0  0  0  0  0
   -1.5874   -9.8202   -5.9775 C   0  0  0  0  0  0  0  0  0  0  0  0
   -1.4317  -10.9430   -5.7601 N   0  0  0  0  0  0  0  0  0  0  0  0
   -2.1364   -9.5459   -0.4011 C   0  0  0  0  0  0  0  0  0  0  0  0
   -2.9174  -10.8775   -0.2014 C   0  0  0  0  0  0  0  0  0  0  0  0
   -2.9511  -11.1136    1.2903 C   0  0  0  0  0  0  0  0  0  0  0  0
   -3.7725  -10.1901    1.8019 C   0  0  0  0  0  0  0  0  0  0  0  0
   -4.2643   -9.3598    0.6380 C   0  0  0  0  0  0  0  0  0  0  0  0
   -4.3657  -10.4598   -0.4031 C   0  0  0  0  0  0  0  0  0  0  0  0
   -3.0345   -8.5330    0.1602 C   0  0  0  0  0  0  0  0  0  0  0  0
   -2.8565   -3.8891   -6.4606 C   0  0  0  0  0  0  0  0  0  0  0  0
   -3.6661   -3.2464   -7.3841 C   0  0  0  0  0  0  0  0  0  0  0  0
   -3.9591   -1.9169   -7.0323 C   0  0  0  0  0  0  0  0  0  0  0  0
   -5.1400   -0.9232   -7.9527 S   0  0  0  0  0  0  0  0  0  0  0  0
   -4.0003   -0.5062   -9.3203 C   0  0  0  0  0  0  0  0  0  0  0  0
   -4.2603   -1.3968  -10.5272 C   0  0  0  0  0  0  0  0  0  0  0  0
   -3.3552   -1.5150   -5.8360 C   0  0  0  0  0  0  0  0  0  0  0  0
   -2.4713   -2.8117   -5.2357 S   0  0  0  0  0  0  0  0  0  0  0  0
   -3.6951   -0.3517   -5.0026 C   0  0  0  0  0  0  0  0  0  0  0  0
   -3.6200    1.0196   -5.3398 C   0  0  0  0  0  0  0  0  0  0  0  0
   -3.0645    1.5659   -6.5933 C   0  0  0  0  0  0  0  0  0  0  0  0
   -3.7124    2.6251   -7.2472 C   0  0  0  0  0  0  0  0  0  0  0  0
   -3.1737    3.1630   -8.4190 C   0  0  0  0  0  0  0  0  0  0  0  0
   -1.9884    2.6460   -8.9475 C   0  0  0  0  0  0  0  0  0  0  0  0
   -1.3256    1.5890   -8.3008 C   0  0  0  0  0  0  0  0  0  0  0  0
   -0.0448    1.0336   -8.8588 C   0  0  0  0  0  0  0  0  0  0  0  0
    1.1605    1.7761   -8.2923 C   0  0  0  0  0  0  0  0  0  0  0  0
   -1.8591    1.0680   -7.1118 C   0  0  0  0  0  0  0  0  0  0  0  0
   -3.9067    1.8165   -4.2226 C   0  0  0  0  0  0  0  0  0  0  0  0
   -3.6325    3.4738   -3.8742 S   0  0  0  0  0  0  0  0  0  0  0  0
   -3.8814    3.1983   -2.2166 C   0  0  0  0  0  0  0  0  0  0  0  0
   -3.6414    3.8154   -1.0204 C   0  0  0  0  0  0  0  0  0  0  0  0
   -3.3660    5.1415   -0.6743 C   0  0  0  0  0  0  0  0  0  0  0  0
   -3.1391    5.4551    0.7021 C   0  0  0  0  0  0  0  0  0  0  0  0
   -2.8646    6.7513    0.9963 N   0  0  0  0  0  0  0  0  0  0  0  0
   -2.9569    7.4096   -0.5227 S   0  0  0  0  0  0  0  0  0  0  0  0
   -3.3118    6.1670   -1.5601 N   0  0  0  0  0  0  0  0  0  0  0  0
   -3.1330    4.4129    1.6450 C   0  0  0  0  0  0  0  0  0  0  0  0
   -2.6027    4.3736    2.9037 C   0  0  0  0  0  0  0  0  0  0  0  0
   -1.6258    5.4310    3.8084 S   0  0  0  0  0  0  0  0  0  0  0  0
   -0.9161    4.1320    4.6499 C   0  0  0  0  0  0  0  0  0  0  0  0
    0.1608    4.0344    5.5379 C   0  0  0  0  0  0  0  0  0  0  0  0
    0.8890    5.1863    6.1122 C   0  0  0  0  0  0  0  0  0  0  0  0
    1.3026    6.2521    5.2979 C   0  0  0  0  0  0  0  0  0  0  0  0
    1.9604    7.3518    5.8556 C   0  0  0  0  0  0  0  0  0  0  0  0
    2.2230    7.3907    7.2279 C   0  0  0  0  0  0  0  0  0  0  0  0
    1.8404    6.3205    8.0518 C   0  0  0  0  0  0  0  0  0  0  0  0
    2.0896    6.3771    9.5341 C   0  0  0  0  0  0  0  0  0  0  0  0
    0.8834    6.9614   10.2625 C   0  0  0  0  0  0  0  0  0  0  0  0
    1.1672    5.2244    7.4886 C   0  0  0  0  0  0  0  0  0  0  0  0
    0.4696    2.6845    5.7911 C   0  0  0  0  0  0  0  0  0  0  0  0
   -0.5493    1.6678    4.8834 S   0  0  0  0  0  0  0  0  0  0  0  0
   -1.4095    2.9334    4.2028 C   0  0  0  0  0  0  0  0  0  0  0  0
   -2.3561    3.0638    3.1919 C   0  0  0  0  0  0  0  0  0  0  0  0
   -2.6913    2.2307    2.1685 N   0  0  0  0  0  0  0  0  0  0  0  0
   -3.2867    3.0720    1.2624 C   0  0  0  0  0  0  0  0  0  0  0  0
   -3.6797    2.7905   -0.0647 C   0  0  0  0  0  0  0  0  0  0  0  0
   -4.0482    1.6009   -0.6254 N   0  0  0  0  0  0  0  0  0  0  0  0
   -4.1297    1.8959   -1.9421 C   0  0  0  0  0  0  0  0  0  0  0  0
   -4.1687    1.1113   -3.0749 C   0  0  0  0  0  0  0  0  0  0  0  0
   -4.0575   -0.5268   -3.3479 S   0  0  0  0  0  0  0  0  0  0  0  0
   -4.6837    0.4478    0.0282 C   0  0  0  0  0  0  0  0  0  0  0  0
   -6.1846    0.4154   -0.2539 C   0  0  0  0  0  0  0  0  0  0  0  0
   -1.8958    1.0407    1.8202 C   0  0  0  0  0  0  0  0  0  0  0  0
   -0.5389    1.4363    1.2320 C   0  0  0  0  0  0  0  0  0  0  0  0
    1.6938    2.1874    6.4200 C   0  0  0  0  0  0  0  0  0  0  0  0
    1.7600    1.1446    7.3348 C   0  0  0  0  0  0  0  0  0  0  0  0
    3.0637    0.6780    7.5466 C   0  0  0  0  0  0  0  0  0  0  0  0
    3.4519   -0.5742    8.7792 S   0  0  0  0  0  0  0  0  0  0  0  0
    3.4168   -1.9983    7.6368 C   0  0  0  0  0  0  0  0  0  0  0  0
    1.9870   -2.3990    7.2951 C   0  0  0  0  0  0  0  0  0  0  0  0
    4.0120    1.3047    6.7370 C   0  0  0  0  0  0  0  0  0  0  0  0
    3.2410    2.5141    5.8467 S   0  0  0  0  0  0  0  0  0  0  0  0
    5.4448    0.9704    6.6910 C   0  0  0  0  0  0  0  0  0  0  0  0
    6.2357    1.0438    5.6021 C   0  0  0  0  0  0  0  0  0  0  0  0
    7.6942    1.1051    5.7061 C   0  0  0  0  0  0  0  0  0  0  0  0
    8.3768    0.8361    6.7307 O   0  0  0  0  0  0  0  0  0  0  0  0
    8.2199    1.6144    4.4571 C   0  0  0  0  0  0  0  0  0  0  0  0
    9.5431    1.9211    4.1389 C   0  0  0  0  0  0  0  0  0  0  0  0
    9.8223    2.4560    2.8716 C   0  0  0  0  0  0  0  0  0  0  0  0
   11.1409    2.7557    2.4995 C   0  0  0  0  0  0  0  0  0  0  0  0
   11.4130    3.2828    1.2328 C   0  0  0  0  0  0  0  0  0  0  0  0
   12.6936    3.5580    0.8764 F   0  0  0  0  0  0  0  0  0  0  0  0
   10.3704    3.5230    0.3320 C   0  0  0  0  0  0  0  0  0  0  0  0
   10.6391    4.0326   -0.8959 F   0  0  0  0  0  0  0  0  0  0  0  0
    9.0487    3.2416    0.6930 C   0  0  0  0  0  0  0  0  0  0  0  0
    8.7614    2.7015    1.9555 C   0  0  0  0  0  0  0  0  0  0  0  0
    7.4323    2.4018    2.3177 C   0  0  0  0  0  0  0  0  0  0  0  0
    7.1793    1.8206    3.5699 C   0  0  0  0  0  0  0  0  0  0  0  0
    5.9043    1.3324    4.1687 C   0  0  0  0  0  0  0  0  0  0  0  0
    4.8515    0.8374    3.4641 C   0  0  0  0  0  0  0  0  0  0  0  0
    3.8847   -0.0605    4.0327 C   0  0  0  0  0  0  0  0  0  0  0  0
    3.0867   -0.7834    4.4605 N   0  0  0  0  0  0  0  0  0  0  0  0
    4.6990    1.0467    2.0472 C   0  0  0  0  0  0  0  0  0  0  0  0
    4.5574    1.2033    0.9099 N   0  0  0  0  0  0  0  0  0  0  0  0
   -1.8537   -5.5956   -7.3316 H   0  0  0  0  0  0  0  0  0  0  0  0
   -4.2859   -6.0854   -1.5064 H   0  0  0  0  0  0  0  0  0  0  0  0
   -1.1714   -9.6403   -3.4351 H   0  0  0  0  0  0  0  0  0  0  0  0
   -1.1021   -9.5245    0.0071 H   0  0  0  0  0  0  0  0  0  0  0  0
   -2.5686  -11.7378   -0.8117 H   0  0  0  0  0  0  0  0  0  0  0  0
   -2.4789  -11.9196    1.8388 H   0  0  0  0  0  0  0  0  0  0  0  0
   -4.0839  -10.1195    2.8403 H   0  0  0  0  0  0  0  0  0  0  0  0
   -5.1939   -8.7790    0.8259 H   0  0  0  0  0  0  0  0  0  0  0  0
   -5.0973  -11.2582   -0.1314 H   0  0  0  0  0  0  0  0  0  0  0  0
   -4.6059  -10.0972   -1.4262 H   0  0  0  0  0  0  0  0  0  0  0  0
   -2.5704   -7.8737    0.9266 H   0  0  0  0  0  0  0  0  0  0  0  0
   -4.0897   -3.7412   -8.2485 H   0  0  0  0  0  0  0  0  0  0  0  0
   -4.1778    0.5499   -9.6102 H   0  0  0  0  0  0  0  0  0  0  0  0
   -2.9376   -0.6083   -9.0165 H   0  0  0  0  0  0  0  0  0  0  0  0
   -5.3303   -1.3495  -10.8206 H   0  0  0  0  0  0  0  0  0  0  0  0
   -3.6386   -1.0491  -11.3802 H   0  0  0  0  0  0  0  0  0  0  0  0
   -3.9817   -2.4475  -10.2949 H   0  0  0  0  0  0  0  0  0  0  0  0
   -4.6346    3.0317   -6.8521 H   0  0  0  0  0  0  0  0  0  0  0  0
   -3.6788    3.9789   -8.9187 H   0  0  0  0  0  0  0  0  0  0  0  0
   -1.5838    3.0721   -9.8575 H   0  0  0  0  0  0  0  0  0  0  0  0
   -0.0375    1.1194   -9.9679 H   0  0  0  0  0  0  0  0  0  0  0  0
    0.0438   -0.0472   -8.6104 H   0  0  0  0  0  0  0  0  0  0  0  0
    1.2048    1.6489   -7.1903 H   0  0  0  0  0  0  0  0  0  0  0  0
    2.0911    1.3636   -8.7345 H   0  0  0  0  0  0  0  0  0  0  0  0
    1.0967    2.8585   -8.5378 H   0  0  0  0  0  0  0  0  0  0  0  0
   -1.3351    0.2743   -6.5967 H   0  0  0  0  0  0  0  0  0  0  0  0
    1.1255    6.2316    4.2315 H   0  0  0  0  0  0  0  0  0  0  0  0
    2.2677    8.1741    5.2241 H   0  0  0  0  0  0  0  0  0  0  0  0
    2.7251    8.2542    7.6477 H   0  0  0  0  0  0  0  0  0  0  0  0
    2.9866    7.0000    9.7513 H   0  0  0  0  0  0  0  0  0  0  0  0
    2.2935    5.3559    9.9235 H   0  0  0  0  0  0  0  0  0  0  0  0
    0.6705    7.9876    9.8945 H   0  0  0  0  0  0  0  0  0  0  0  0
    1.0951    7.0132   11.3515 H   0  0  0  0  0  0  0  0  0  0  0  0
   -0.0109    6.3219   10.1018 H   0  0  0  0  0  0  0  0  0  0  0  0
    0.8398    4.4136    8.1290 H   0  0  0  0  0  0  0  0  0  0  0  0
   -4.2199   -0.4912   -0.3355 H   0  0  0  0  0  0  0  0  0  0  0  0
   -4.5683    0.5053    1.1296 H   0  0  0  0  0  0  0  0  0  0  0  0
   -6.6422   -0.4520    0.2662 H   0  0  0  0  0  0  0  0  0  0  0  0
   -6.3793    0.3173   -1.3433 H   0  0  0  0  0  0  0  0  0  0  0  0
   -6.6599    1.3452    0.1217 H   0  0  0  0  0  0  0  0  0  0  0  0
   -2.3908    0.4149    1.0674 H   0  0  0  0  0  0  0  0  0  0  0  0
   -1.7535    0.3955    2.7108 H   0  0  0  0  0  0  0  0  0  0  0  0
    0.0731    2.0003    1.9691 H   0  0  0  0  0  0  0  0  0  0  0  0
   -0.6828    2.0652    0.3278 H   0  0  0  0  0  0  0  0  0  0  0  0
    0.0221    0.5214    0.9401 H   0  0  0  0  0  0  0  0  0  0  0  0
    0.8904    0.7285    7.8268 H   0  0  0  0  0  0  0  0  0  0  0  0
    3.9924   -1.7687    6.7161 H   0  0  0  0  0  0  0  0  0  0  0  0
    3.9148   -2.8543    8.1375 H   0  0  0  0  0  0  0  0  0  0  0  0
    1.4684   -1.5812    6.7536 H   0  0  0  0  0  0  0  0  0  0  0  0
    2.0009   -3.2967    6.6400 H   0  0  0  0  0  0  0  0  0  0  0  0
    1.4250   -2.6398    8.2245 H   0  0  0  0  0  0  0  0  0  0  0  0
    5.9021    0.7096    7.6374 H   0  0  0  0  0  0  0  0  0  0  0  0
   10.3307    1.7461    4.8631 H   0  0  0  0  0  0  0  0  0  0  0  0
   11.9613    2.5752    3.1851 H   0  0  0  0  0  0  0  0  0  0  0  0
    8.2554    3.4331   -0.0203 H   0  0  0  0  0  0  0  0  0  0  0  0
    6.6309    2.6465    1.6383 H   0  0  0  0  0  0  0  0  0  0  0  0
  1  2  2  3
  2  3  1  0
  3  4  2  0
  3  5  1  0
  5  6  2  0
  6  7  1  0
  7  8  2  0
  8  9  1  0
  9 10  2  0
 10 11  1  0
 11 12  2  3
 12 13  1  0
 13 14  3  0
 12 15  1  0
 15 16  3  0
  8 17  1  0
 17 18  1  0
 18 19  1  0
 19 20  2  0
 20 21  1  0
 21 22  1  0
 21 23  1  0
  1 24  1  0
 24 25  2  0
 25 26  1  0
 26 27  1  0
 27 28  1  0
 28 29  1  0
 26 30  2  0
 30 31  1  0
 30 32  1  0
 32 33  2  0
 33 34  1  0
 34 35  2  0
 35 36  1  0
 36 37  2  0
 37 38  1  0
 38 39  1  0
 39 40  1  0
 38 41  2  0
 33 42  1  0
 42 43  1  0
 43 44  1  0
 44 45  1  0
 45 46  1  0
 46 47  1  0
 47 48  2  0
 48 49  1  0
 49 50  1  0
 47 51  1  0
 51 52  1  0
 52 53  1  0
 53 54  1  0
 54 55  1  0
 55 56  1  0
 56 57  2  0
 57 58  1  0
 58 59  2  0
 59 60  1  0
 60 61  1  0
 61 62  1  0
 60 63  2  0
 55 64  2  0
 64 65  1  0
 65 66  1  0
 66 67  1  0
 67 68  1  0
 68 69  1  0
 69 70  1  0
 70 71  1  0
 71 72  1  0
 72 73  1  0
 73 74  1  0
 71 75  1  0
 75 76  1  0
 68 77  1  0
 77 78  1  0
 64 79  1  0
 79 80  2  0
 80 81  1  0
 81 82  1  0
 82 83  1  0
 83 84  1  0
 81 85  2  0
 85 86  1  0
 85 87  1  0
 87 88  2  3
 88 89  1  0
 89 90  2  0
 89 91  1  0
 91 92  2  0
 92 93  1  0
 93 94  2  0
 94 95  1  0
 95 96  1  0
 95 97  2  0
 97 98  1  0
 97 99  1  0
 99100  2  0
100101  1  0
101102  2  0
102103  1  0
103104  2  3
104105  1  0
105106  3  0
104107  1  0
107108  3  0
 11  2  1  0
 23 17  1  0
 31 24  1  0
 74 32  1  0
 86 79  1  0
103 88  1  0
 10  5  1  0
 22 18  1  0
 41 34  1  0
 73 42  2  0
102 91  1  0
 23  7  1  0
 72 44  2  0
100 93  1  0
 70 45  2  0
 50 46  2  0
 69 51  2  0
 67 52  2  0
 66 54  2  0
 63 56  1  0
  1109  1  0
  6110  1  0
  9111  1  0
 17112  1  0
 18113  1  0
 19114  1  0
 20115  1  0
 21116  1  0
 22117  1  0
 22118  1  0
 23119  1  0
 25120  1  0
 28121  1  0
 28122  1  0
 29123  1  0
 29124  1  0
 29125  1  0
 35126  1  0
 36127  1  0
 37128  1  0
 39129  1  0
 39130  1  0
 40131  1  0
 40132  1  0
 40133  1  0
 41134  1  0
 57135  1  0
 58136  1  0
 59137  1  0
 61138  1  0
 61139  1  0
 62140  1  0
 62141  1  0
 62142  1  0
 63143  1  0
 75144  1  0
 75145  1  0
 76146  1  0
 76147  1  0
 76148  1  0
 77149  1  0
 77150  1  0
 78151  1  0
 78152  1  0
 78153  1  0
 80154  1  0
 83155  1  0
 83156  1  0
 84157  1  0
 84158  1  0
 84159  1  0
 87160  1  0
 92161  1  0
 94162  1  0
 99163  1  0
101164  1  0
M  END

