
     RDKit          3D

176195  0  0  0  0  0  0  0  0999 V2000
   -6.3520    1.2625   -5.7456 C   0  0  0  0  0  0  0  0  0  0  0  0
   -7.1771    0.2666   -5.3640 C   0  0  0  0  0  0  0  0  0  0  0  0
   -8.2183    0.3883   -4.3391 C   0  0  0  0  0  0  0  0  0  0  0  0
   -8.8704    1.4310   -4.0634 O   0  0  0  0  0  0  0  0  0  0  0  0
   -8.3964   -0.8950   -3.7052 C   0  0  0  0  0  0  0  0  0  0  0  0
   -9.1532   -1.1632   -2.5401 C   0  0  0  0  0  0  0  0  0  0  0  0
   -9.0026   -2.4504   -2.0633 C   0  0  0  0  0  0  0  0  0  0  0  0
   -8.1517   -3.4214   -2.6840 C   0  0  0  0  0  0  0  0  0  0  0  0
   -7.4129   -3.1667   -3.8311 C   0  0  0  0  0  0  0  0  0  0  0  0
   -7.5656   -1.8498   -4.3518 C   0  0  0  0  0  0  0  0  0  0  0  0
   -6.8930   -1.1918   -5.5110 C   0  0  0  0  0  0  0  0  0  0  0  0
   -6.2756   -1.7967   -6.5570 C   0  0  0  0  0  0  0  0  0  0  0  0
   -5.9258   -1.0740   -7.7540 C   0  0  0  0  0  0  0  0  0  0  0  0
   -5.6529   -0.4994   -8.7202 N   0  0  0  0  0  0  0  0  0  0  0  0
   -6.0081   -3.2097   -6.5862 C   0  0  0  0  0  0  0  0  0  0  0  0
   -5.7657   -4.3444   -6.6084 N   0  0  0  0  0  0  0  0  0  0  0  0
   -8.4619   -4.4086   -1.5991 C   0  0  0  0  0  0  0  0  0  0  0  0
   -7.3506   -4.6400   -0.5319 C   0  0  0  0  0  0  0  0  0  0  0  0
   -8.0242   -5.3337    0.6273 C   0  0  0  0  0  0  0  0  0  0  0  0
   -8.8225   -4.4268    1.2026 C   0  0  0  0  0  0  0  0  0  0  0  0
   -8.6599   -3.1524    0.4100 C   0  0  0  0  0  0  0  0  0  0  0  0
   -7.1776   -3.2645    0.0903 C   0  0  0  0  0  0  0  0  0  0  0  0
   -9.3366   -3.4156   -0.9682 C   0  0  0  0  0  0  0  0  0  0  0  0
   -6.2045    2.5069   -4.9684 C   0  0  0  0  0  0  0  0  0  0  0  0
   -5.6967    3.7107   -5.4452 C   0  0  0  0  0  0  0  0  0  0  0  0
   -5.3021    4.6016   -4.4262 C   0  0  0  0  0  0  0  0  0  0  0  0
   -4.6192    6.2300   -4.7705 S   0  0  0  0  0  0  0  0  0  0  0  0
   -3.0946    5.6616   -5.6167 C   0  0  0  0  0  0  0  0  0  0  0  0
   -2.0460    5.1581   -4.6376 C   0  0  0  0  0  0  0  0  0  0  0  0
   -5.5373    4.1106   -3.1367 C   0  0  0  0  0  0  0  0  0  0  0  0
   -6.1407    2.5551   -3.2950 S   0  0  0  0  0  0  0  0  0  0  0  0
   -5.0805    4.6492   -1.8406 C   0  0  0  0  0  0  0  0  0  0  0  0
   -5.6549    4.3013   -0.5950 C   0  0  0  0  0  0  0  0  0  0  0  0
   -7.0125    3.7293   -0.4541 C   0  0  0  0  0  0  0  0  0  0  0  0
   -7.2124    2.4763    0.1469 C   0  0  0  0  0  0  0  0  0  0  0  0
   -8.4909    1.9166    0.2003 C   0  0  0  0  0  0  0  0  0  0  0  0
   -9.5810    2.6004   -0.3452 C   0  0  0  0  0  0  0  0  0  0  0  0
   -9.3928    3.8432   -0.9722 C   0  0  0  0  0  0  0  0  0  0  0  0
  -10.5602    4.5830   -1.5678 C   0  0  0  0  0  0  0  0  0  0  0  0
  -11.0991    5.6239   -0.5910 C   0  0  0  0  0  0  0  0  0  0  0  0
   -8.1074    4.4042   -1.0197 C   0  0  0  0  0  0  0  0  0  0  0  0
   -4.7201    4.4041    0.4452 C   0  0  0  0  0  0  0  0  0  0  0  0
   -4.6678    3.6769    1.9779 S   0  0  0  0  0  0  0  0  0  0  0  0
   -2.9951    3.9192    2.1217 C   0  0  0  0  0  0  0  0  0  0  0  0
   -2.0187    3.1098    2.6377 C   0  0  0  0  0  0  0  0  0  0  0  0
   -2.1489    1.9763    3.4584 C   0  0  0  0  0  0  0  0  0  0  0  0
   -1.0735    1.0426    3.5247 C   0  0  0  0  0  0  0  0  0  0  0  0
   -1.2441   -0.0425    4.3214 N   0  0  0  0  0  0  0  0  0  0  0  0
   -2.7781    0.2588    4.8710 S   0  0  0  0  0  0  0  0  0  0  0  0
   -3.2617    1.6810    4.1730 N   0  0  0  0  0  0  0  0  0  0  0  0
    0.0806    1.2997    2.7869 C   0  0  0  0  0  0  0  0  0  0  0  0
    1.2857    0.6612    2.7339 C   0  0  0  0  0  0  0  0  0  0  0  0
    2.0626   -0.6904    3.4054 S   0  0  0  0  0  0  0  0  0  0  0  0
    3.5639   -0.1805    2.7613 C   0  0  0  0  0  0  0  0  0  0  0  0
    4.8665   -0.6854    2.8181 C   0  0  0  0  0  0  0  0  0  0  0  0
    5.2277   -1.9708    3.4559 C   0  0  0  0  0  0  0  0  0  0  0  0
    6.3309   -2.0516    4.3191 C   0  0  0  0  0  0  0  0  0  0  0  0
    6.6506   -3.2599    4.9440 C   0  0  0  0  0  0  0  0  0  0  0  0
    5.8708   -4.3957    4.7174 C   0  0  0  0  0  0  0  0  0  0  0  0
    4.7559   -4.3309    3.8652 C   0  0  0  0  0  0  0  0  0  0  0  0
    3.9146   -5.5527    3.6107 C   0  0  0  0  0  0  0  0  0  0  0  0
    4.2173   -6.1525    2.2419 C   0  0  0  0  0  0  0  0  0  0  0  0
    4.4454   -3.1175    3.2309 C   0  0  0  0  0  0  0  0  0  0  0  0
    5.7689    0.2132    2.2098 C   0  0  0  0  0  0  0  0  0  0  0  0
    4.9389    1.5800    1.6270 S   0  0  0  0  0  0  0  0  0  0  0  0
    3.4409    1.0229    2.1149 C   0  0  0  0  0  0  0  0  0  0  0  0
    2.1336    1.4736    2.0617 C   0  0  0  0  0  0  0  0  0  0  0  0
    1.5456    2.6128    1.6200 N   0  0  0  0  0  0  0  0  0  0  0  0
    0.2406    2.4692    2.0239 C   0  0  0  0  0  0  0  0  0  0  0  0
   -0.8706    3.3351    1.8608 C   0  0  0  0  0  0  0  0  0  0  0  0
   -1.1633    4.1629    0.8092 N   0  0  0  0  0  0  0  0  0  0  0  0
   -2.4651    4.5105    1.0031 C   0  0  0  0  0  0  0  0  0  0  0  0
   -3.4641    4.8112    0.0667 C   0  0  0  0  0  0  0  0  0  0  0  0
   -3.4595    5.0675   -1.5853 S   0  0  0  0  0  0  0  0  0  0  0  0
   -0.4883    4.1966   -0.4976 C   0  0  0  0  0  0  0  0  0  0  0  0
   -0.1174    5.6255   -0.8965 C   0  0  0  0  0  0  0  0  0  0  0  0
    2.2691    3.8617    1.3476 C   0  0  0  0  0  0  0  0  0  0  0  0
    3.0200    3.8111    0.0072 C   0  0  0  0  0  0  0  0  0  0  0  0
    7.1988   -0.0049    1.9635 C   0  0  0  0  0  0  0  0  0  0  0  0
    7.7565   -0.9289    1.0768 C   0  0  0  0  0  0  0  0  0  0  0  0
    6.9654   -1.9173    0.3076 C   0  0  0  0  0  0  0  0  0  0  0  0
    6.1524   -1.4895   -0.7745 C   0  0  0  0  0  0  0  0  0  0  0  0
    5.3422   -2.4225   -1.4402 C   0  0  0  0  0  0  0  0  0  0  0  0
    5.3372   -3.7676   -1.0646 C   0  0  0  0  0  0  0  0  0  0  0  0
    4.4988   -4.7623   -1.8206 C   0  0  0  0  0  0  0  0  0  0  0  0
    5.2571   -5.2924   -3.0343 C   0  0  0  0  0  0  0  0  0  0  0  0
    6.1924   -4.1985   -0.0468 C   0  0  0  0  0  0  0  0  0  0  0  0
    7.0009   -3.2930    0.6524 C   0  0  0  0  0  0  0  0  0  0  0  0
    7.9181   -3.8453    1.7236 C   0  0  0  0  0  0  0  0  0  0  0  0
    9.1189   -4.5537    1.1057 C   0  0  0  0  0  0  0  0  0  0  0  0
    6.2292   -0.0885   -1.3459 C   0  0  0  0  0  0  0  0  0  0  0  0
    7.2301   -0.0357   -2.4945 C   0  0  0  0  0  0  0  0  0  0  0  0
    9.1430   -0.7812    0.9275 C   0  0  0  0  0  0  0  0  0  0  0  0
    9.6666    0.2844    1.6512 C   0  0  0  0  0  0  0  0  0  0  0  0
    8.4178    1.0077    2.5241 S   0  0  0  0  0  0  0  0  0  0  0  0
   11.1013    0.6110    1.7385 C   0  0  0  0  0  0  0  0  0  0  0  0
   11.6087    1.8336    1.9849 C   0  0  0  0  0  0  0  0  0  0  0  0
   12.9360    2.0235    2.5908 C   0  0  0  0  0  0  0  0  0  0  0  0
   13.8388    1.1529    2.7083 O   0  0  0  0  0  0  0  0  0  0  0  0
   12.9889    3.3701    3.1063 C   0  0  0  0  0  0  0  0  0  0  0  0
   13.9449    4.0855    3.8029 C   0  0  0  0  0  0  0  0  0  0  0  0
   13.2642    5.6147    4.0254 S   0  0  0  0  0  0  0  0  0  0  0  0
   11.7833    5.3506    3.2458 C   0  0  0  0  0  0  0  0  0  0  0  0
   11.8201    4.0326    2.8108 C   0  0  0  0  0  0  0  0  0  0  0  0
   10.9277    3.1704    2.0048 C   0  0  0  0  0  0  0  0  0  0  0  0
    9.9626    3.6126    1.1659 C   0  0  0  0  0  0  0  0  0  0  0  0
    9.3985    4.9330    1.2864 C   0  0  0  0  0  0  0  0  0  0  0  0
    8.9313    5.9896    1.3797 N   0  0  0  0  0  0  0  0  0  0  0  0
    9.5263    2.8369    0.0313 C   0  0  0  0  0  0  0  0  0  0  0  0
    9.1733    2.2231   -0.8841 N   0  0  0  0  0  0  0  0  0  0  0  0
   -5.5726    1.0824   -6.4660 H   0  0  0  0  0  0  0  0  0  0  0  0
   -9.7487   -0.4156   -2.0312 H   0  0  0  0  0  0  0  0  0  0  0  0
   -6.7401   -3.9086   -4.2273 H   0  0  0  0  0  0  0  0  0  0  0  0
   -8.9824   -5.3231   -1.9633 H   0  0  0  0  0  0  0  0  0  0  0  0
   -6.4220   -5.1290   -0.8990 H   0  0  0  0  0  0  0  0  0  0  0  0
   -7.8362   -6.3349    1.0001 H   0  0  0  0  0  0  0  0  0  0  0  0
   -9.3878   -4.5649    2.1197 H   0  0  0  0  0  0  0  0  0  0  0  0
   -8.9748   -2.2250    0.9346 H   0  0  0  0  0  0  0  0  0  0  0  0
   -6.8024   -2.4855   -0.6107 H   0  0  0  0  0  0  0  0  0  0  0  0
   -6.5278   -3.2656    1.0000 H   0  0  0  0  0  0  0  0  0  0  0  0
  -10.4127   -3.6988   -0.9329 H   0  0  0  0  0  0  0  0  0  0  0  0
   -5.5552    3.9140   -6.5008 H   0  0  0  0  0  0  0  0  0  0  0  0
   -2.6731    6.5251   -6.1713 H   0  0  0  0  0  0  0  0  0  0  0  0
   -3.3257    4.8740   -6.3629 H   0  0  0  0  0  0  0  0  0  0  0  0
   -1.8228    5.9374   -3.8821 H   0  0  0  0  0  0  0  0  0  0  0  0
   -1.1101    4.9234   -5.1844 H   0  0  0  0  0  0  0  0  0  0  0  0
   -2.3983    4.2300   -4.1394 H   0  0  0  0  0  0  0  0  0  0  0  0
   -6.3770    1.9122    0.5374 H   0  0  0  0  0  0  0  0  0  0  0  0
   -8.6351    0.9442    0.6511 H   0  0  0  0  0  0  0  0  0  0  0  0
  -10.5680    2.1565   -0.2926 H   0  0  0  0  0  0  0  0  0  0  0  0
  -11.3759    3.8762   -1.8343 H   0  0  0  0  0  0  0  0  0  0  0  0
  -10.2438    5.0903   -2.5055 H   0  0  0  0  0  0  0  0  0  0  0  0
  -10.2967    6.3329   -0.2966 H   0  0  0  0  0  0  0  0  0  0  0  0
  -11.9194    6.1992   -1.0718 H   0  0  0  0  0  0  0  0  0  0  0  0
  -11.4984    5.1257    0.3183 H   0  0  0  0  0  0  0  0  0  0  0  0
   -7.9560    5.3604   -1.5062 H   0  0  0  0  0  0  0  0  0  0  0  0
    6.9386   -1.1779    4.5204 H   0  0  0  0  0  0  0  0  0  0  0  0
    7.5075   -3.3164    5.6006 H   0  0  0  0  0  0  0  0  0  0  0  0
    6.1367   -5.3278    5.2020 H   0  0  0  0  0  0  0  0  0  0  0  0
    4.1000   -6.3227    4.3870 H   0  0  0  0  0  0  0  0  0  0  0  0
    2.8394   -5.2829    3.6607 H   0  0  0  0  0  0  0  0  0  0  0  0
    5.2950   -6.4176    2.1660 H   0  0  0  0  0  0  0  0  0  0  0  0
    3.9515   -5.4322    1.4382 H   0  0  0  0  0  0  0  0  0  0  0  0
    3.6164   -7.0765    2.0959 H   0  0  0  0  0  0  0  0  0  0  0  0
    3.6008   -3.0700    2.5532 H   0  0  0  0  0  0  0  0  0  0  0  0
    0.3975    3.5459   -0.5070 H   0  0  0  0  0  0  0  0  0  0  0  0
   -1.1444    3.7444   -1.2702 H   0  0  0  0  0  0  0  0  0  0  0  0
    0.6788    6.0273   -0.2419 H   0  0  0  0  0  0  0  0  0  0  0  0
    0.2458    5.6319   -1.9436 H   0  0  0  0  0  0  0  0  0  0  0  0
   -0.9945    6.2985   -0.8225 H   0  0  0  0  0  0  0  0  0  0  0  0
    3.0010    4.0366    2.1682 H   0  0  0  0  0  0  0  0  0  0  0  0
    1.5796    4.7276    1.3761 H   0  0  0  0  0  0  0  0  0  0  0  0
    3.1585    2.7686   -0.3425 H   0  0  0  0  0  0  0  0  0  0  0  0
    4.0155    4.2860    0.1180 H   0  0  0  0  0  0  0  0  0  0  0  0
    2.4778    4.3740   -0.7754 H   0  0  0  0  0  0  0  0  0  0  0  0
    4.7302   -2.1040   -2.2777 H   0  0  0  0  0  0  0  0  0  0  0  0
    3.5533   -4.2864   -2.1576 H   0  0  0  0  0  0  0  0  0  0  0  0
    4.2240   -5.6140   -1.1629 H   0  0  0  0  0  0  0  0  0  0  0  0
    6.1869   -5.8064   -2.7107 H   0  0  0  0  0  0  0  0  0  0  0  0
    5.5173   -4.4580   -3.7200 H   0  0  0  0  0  0  0  0  0  0  0  0
    4.6214   -6.0186   -3.5838 H   0  0  0  0  0  0  0  0  0  0  0  0
    6.2364   -5.2533    0.1946 H   0  0  0  0  0  0  0  0  0  0  0  0
    8.2772   -3.0571    2.4147 H   0  0  0  0  0  0  0  0  0  0  0  0
    7.3563   -4.5780    2.3401 H   0  0  0  0  0  0  0  0  0  0  0  0
    9.7797   -4.9326    1.9123 H   0  0  0  0  0  0  0  0  0  0  0  0
    9.6977   -3.8560    0.4679 H   0  0  0  0  0  0  0  0  0  0  0  0
    8.7844   -5.4155    0.4880 H   0  0  0  0  0  0  0  0  0  0  0  0
    5.2280    0.2240   -1.7184 H   0  0  0  0  0  0  0  0  0  0  0  0
    6.5268    0.6560   -0.5857 H   0  0  0  0  0  0  0  0  0  0  0  0
    8.2422   -0.3157   -2.1334 H   0  0  0  0  0  0  0  0  0  0  0  0
    7.2684    0.9943   -2.9076 H   0  0  0  0  0  0  0  0  0  0  0  0
    6.9286   -0.7333   -3.3043 H   0  0  0  0  0  0  0  0  0  0  0  0
    9.7415   -1.4116    0.2846 H   0  0  0  0  0  0  0  0  0  0  0  0
   11.7768   -0.2360    1.7290 H   0  0  0  0  0  0  0  0  0  0  0  0
   14.9179    3.7413    4.1243 H   0  0  0  0  0  0  0  0  0  0  0  0
   10.9886    6.0703    3.1243 H   0  0  0  0  0  0  0  0  0  0  0  0
  1  2  2  3
  2  3  1  0
  3  4  2  0
  3  5  1  0
  5  6  2  0
  6  7  1  0
  7  8  2  0
  8  9  1  0
  9 10  2  0
 10 11  1  0
 11 12  2  3
 12 13  1  0
 13 14  3  0
 12 15  1  0
 15 16  3  0
  8 17  1  0
 17 18  1  0
 18 19  1  0
 19 20  2  0
 20 21  1  0
 21 22  1  0
 21 23  1  0
  1 24  1  0
 24 25  2  0
 25 26  1  0
 26 27  1  0
 27 28  1  0
 28 29  1  0
 26 30  2  0
 30 31  1  0
 30 32  1  0
 32 33  2  0
 33 34  1  0
 34 35  2  0
 35 36  1  0
 36 37  2  0
 37 38  1  0
 38 39  1  0
 39 40  1  0
 38 41  2  0
 33 42  1  0
 42 43  1  0
 43 44  1  0
 44 45  1  0
 45 46  1  0
 46 47  1  0
 47 48  2  0
 48 49  1  0
 49 50  1  0
 47 51  1  0
 51 52  1  0
 52 53  1  0
 53 54  1  0
 54 55  1  0
 55 56  1  0
 56 57  2  0
 57 58  1  0
 58 59  2  0
 59 60  1  0
 60 61  1  0
 61 62  1  0
 60 63  2  0
 55 64  2  0
 64 65  1  0
 65 66  1  0
 66 67  1  0
 67 68  1  0
 68 69  1  0
 69 70  1  0
 70 71  1  0
 71 72  1  0
 72 73  1  0
 73 74  1  0
 71 75  1  0
 75 76  1  0
 68 77  1  0
 77 78  1  0
 64 79  1  0
 79 80  2  0
 80 81  1  0
 81 82  2  0
 82 83  1  0
 83 84  2  0
 84 85  1  0
 85 86  1  0
 84 87  1  0
 87 88  2  0
 88 89  1  0
 89 90  1  0
 82 91  1  0
 91 92  1  0
 80 93  1  0
 93 94  2  0
 94 95  1  0
 94 96  1  0
 96 97  2  3
 97 98  1  0
 98 99  2  0
 98100  1  0
100101  2  0
101102  1  0
102103  1  0
103104  2  0
104105  1  0
105106  2  3
106107  1  0
107108  3  0
106109  1  0
109110  3  0
 11  2  1  0
 23 17  1  0
 31 24  1  0
 74 32  1  0
 95 79  1  0
105 97  1  0
 10  5  1  0
 22 18  1  0
 41 34  1  0
 73 42  2  0
 88 81  1  0
104100  1  0
 23  7  1  0
 72 44  2  0
 70 45  2  0
 50 46  2  0
 69 51  2  0
 67 52  2  0
 66 54  2  0
 63 56  1  0
  1111  1  0
  6112  1  0
  9113  1  0
 17114  1  0
 18115  1  0
 19116  1  0
 20117  1  0
 21118  1  0
 22119  1  0
 22120  1  0
 23121  1  0
 25122  1  0
 28123  1  0
 28124  1  0
 29125  1  0
 29126  1  0
 29127  1  0
 35128  1  0
 36129  1  0
 37130  1  0
 39131  1  0
 39132  1  0
 40133  1  0
 40134  1  0
 40135  1  0
 41136  1  0
 57137  1  0
 58138  1  0
 59139  1  0
 61140  1  0
 61141  1  0
 62142  1  0
 62143  1  0
 62144  1  0
 63145  1  0
 75146  1  0
 75147  1  0
 76148  1  0
 76149  1  0
 76150  1  0
 77151  1  0
 77152  1  0
 78153  1  0
 78154  1  0
 78155  1  0
 83156  1  0
 85157  1  0
 85158  1  0
 86159  1  0
 86160  1  0
 86161  1  0
 87162  1  0
 89163  1  0
 89164  1  0
 90165  1  0
 90166  1  0
 90167  1  0
 91168  1  0
 91169  1  0
 92170  1  0
 92171  1  0
 92172  1  0
 93173  1  0
 96174  1  0
101175  1  0
103176  1  0
M  END

