
     RDKit          3D

178199  0  0  0  0  0  0  0  0999 V2000
    5.6810    0.5167   -3.8026 C   0  0  0  0  0  0  0  0  0  0  0  0
    5.2521   -0.7431   -3.5574 C   0  0  0  0  0  0  0  0  0  0  0  0
    6.0001   -1.8853   -4.1094 C   0  0  0  0  0  0  0  0  0  0  0  0
    7.0724   -1.8121   -4.7697 O   0  0  0  0  0  0  0  0  0  0  0  0
    5.3147   -3.1163   -3.8058 C   0  0  0  0  0  0  0  0  0  0  0  0
    5.6397   -4.4173   -4.2649 C   0  0  0  0  0  0  0  0  0  0  0  0
    4.6949   -5.3782   -3.9517 C   0  0  0  0  0  0  0  0  0  0  0  0
    3.4915   -5.0777   -3.2399 C   0  0  0  0  0  0  0  0  0  0  0  0
    3.1730   -3.8087   -2.7912 C   0  0  0  0  0  0  0  0  0  0  0  0
    4.1570   -2.8127   -3.0593 C   0  0  0  0  0  0  0  0  0  0  0  0
    4.0982   -1.3448   -2.7794 C   0  0  0  0  0  0  0  0  0  0  0  0
    3.3012   -0.8027   -1.8187 C   0  0  0  0  0  0  0  0  0  0  0  0
    2.9794    0.5838   -1.6807 C   0  0  0  0  0  0  0  0  0  0  0  0
    2.6496    1.6804   -1.5247 N   0  0  0  0  0  0  0  0  0  0  0  0
    2.6623   -1.6251   -0.8192 C   0  0  0  0  0  0  0  0  0  0  0  0
    2.1550   -2.2749   -0.0067 N   0  0  0  0  0  0  0  0  0  0  0  0
    3.0503   -6.5046   -3.3450 C   0  0  0  0  0  0  0  0  0  0  0  0
    3.1627   -7.3661   -2.0546 C   0  0  0  0  0  0  0  0  0  0  0  0
    3.0431   -8.8005   -2.5068 C   0  0  0  0  0  0  0  0  0  0  0  0
    4.1693   -9.0826   -3.1728 C   0  0  0  0  0  0  0  0  0  0  0  0
    5.0110   -7.8276   -3.1443 C   0  0  0  0  0  0  0  0  0  0  0  0
    4.6512   -7.3392   -1.7517 C   0  0  0  0  0  0  0  0  0  0  0  0
    4.2865   -6.8127   -4.0734 C   0  0  0  0  0  0  0  0  0  0  0  0
    5.0460    1.7766   -3.4299 C   0  0  0  0  0  0  0  0  0  0  0  0
    5.3921    2.5663   -2.3439 C   0  0  0  0  0  0  0  0  0  0  0  0
    4.7045    3.7935   -2.2980 C   0  0  0  0  0  0  0  0  0  0  0  0
    4.8055    4.8497   -0.8451 S   0  0  0  0  0  0  0  0  0  0  0  0
    6.5669    5.3013   -1.0748 C   0  0  0  0  0  0  0  0  0  0  0  0
    6.7338    6.3838   -2.1268 C   0  0  0  0  0  0  0  0  0  0  0  0
    3.8384    4.0029   -3.3867 C   0  0  0  0  0  0  0  0  0  0  0  0
    3.9790    2.6430   -4.3847 S   0  0  0  0  0  0  0  0  0  0  0  0
    2.5620    4.7481   -3.3327 C   0  0  0  0  0  0  0  0  0  0  0  0
    2.2888    6.0672   -2.8874 C   0  0  0  0  0  0  0  0  0  0  0  0
    3.2562    7.1688   -2.7362 C   0  0  0  0  0  0  0  0  0  0  0  0
    3.2694    7.9306   -1.5606 C   0  0  0  0  0  0  0  0  0  0  0  0
    4.0281    9.0999   -1.4871 C   0  0  0  0  0  0  0  0  0  0  0  0
    4.7728    9.5216   -2.5879 C   0  0  0  0  0  0  0  0  0  0  0  0
    4.7698    8.7717   -3.7741 C   0  0  0  0  0  0  0  0  0  0  0  0
    5.5321    9.2529   -4.9850 C   0  0  0  0  0  0  0  0  0  0  0  0
    6.7172    8.3369   -5.2926 C   0  0  0  0  0  0  0  0  0  0  0  0
    4.0108    7.5904   -3.8409 C   0  0  0  0  0  0  0  0  0  0  0  0
    0.9061    6.2631   -2.7232 C   0  0  0  0  0  0  0  0  0  0  0  0
   -0.0303    7.4873   -1.9930 S   0  0  0  0  0  0  0  0  0  0  0  0
   -1.4537    6.5690   -2.1593 C   0  0  0  0  0  0  0  0  0  0  0  0
   -2.6212    6.4599   -1.4486 C   0  0  0  0  0  0  0  0  0  0  0  0
   -3.0779    7.2059   -0.3477 C   0  0  0  0  0  0  0  0  0  0  0  0
   -4.0939    6.6504    0.4911 C   0  0  0  0  0  0  0  0  0  0  0  0
   -4.4345    7.3552    1.5976 N   0  0  0  0  0  0  0  0  0  0  0  0
   -3.4042    8.6440    1.4323 S   0  0  0  0  0  0  0  0  0  0  0  0
   -2.5333    8.3823    0.0477 N   0  0  0  0  0  0  0  0  0  0  0  0
   -4.6565    5.4175    0.1413 C   0  0  0  0  0  0  0  0  0  0  0  0
   -5.5340    4.5835    0.7991 C   0  0  0  0  0  0  0  0  0  0  0  0
   -5.8328    4.2724    2.4437 S   0  0  0  0  0  0  0  0  0  0  0  0
   -6.0921    2.6115    2.1515 C   0  0  0  0  0  0  0  0  0  0  0  0
   -5.9756    1.5055    3.0000 C   0  0  0  0  0  0  0  0  0  0  0  0
   -6.1995    1.5598    4.4564 C   0  0  0  0  0  0  0  0  0  0  0  0
   -5.3834    2.3373    5.2910 C   0  0  0  0  0  0  0  0  0  0  0  0
   -5.6352    2.3882    6.6659 C   0  0  0  0  0  0  0  0  0  0  0  0
   -6.7228    1.6955    7.2075 C   0  0  0  0  0  0  0  0  0  0  0  0
   -7.5640    0.9406    6.3768 C   0  0  0  0  0  0  0  0  0  0  0  0
   -8.7564    0.2169    6.9470 C   0  0  0  0  0  0  0  0  0  0  0  0
   -8.4296   -1.2505    7.2130 C   0  0  0  0  0  0  0  0  0  0  0  0
   -7.2825    0.8583    5.0053 C   0  0  0  0  0  0  0  0  0  0  0  0
   -5.6129    0.3376    2.2921 C   0  0  0  0  0  0  0  0  0  0  0  0
   -5.4668    0.7309    0.6418 S   0  0  0  0  0  0  0  0  0  0  0  0
   -5.9073    2.3281    0.8208 C   0  0  0  0  0  0  0  0  0  0  0  0
   -5.6064    3.4398    0.0564 C   0  0  0  0  0  0  0  0  0  0  0  0
   -4.8623    3.4982   -1.0659 N   0  0  0  0  0  0  0  0  0  0  0  0
   -4.2218    4.6999   -0.9802 C   0  0  0  0  0  0  0  0  0  0  0  0
   -3.1013    5.1654   -1.7119 C   0  0  0  0  0  0  0  0  0  0  0  0
   -2.1848    4.4436   -2.4351 N   0  0  0  0  0  0  0  0  0  0  0  0
   -1.2164    5.3496   -2.7188 C   0  0  0  0  0  0  0  0  0  0  0  0
    0.1245    5.1854   -3.0393 C   0  0  0  0  0  0  0  0  0  0  0  0
    1.0900    3.9163   -3.5083 S   0  0  0  0  0  0  0  0  0  0  0  0
   -1.9520    2.9886   -2.3924 C   0  0  0  0  0  0  0  0  0  0  0  0
   -2.0698    2.3591   -3.7850 C   0  0  0  0  0  0  0  0  0  0  0  0
   -5.1082    2.6985   -2.2733 C   0  0  0  0  0  0  0  0  0  0  0  0
   -6.5946    2.6518   -2.6235 C   0  0  0  0  0  0  0  0  0  0  0  0
   -4.8736   -0.8013    2.8765 C   0  0  0  0  0  0  0  0  0  0  0  0
   -3.7243   -0.5667    4.0851 S   0  0  0  0  0  0  0  0  0  0  0  0
   -2.8228   -1.9561    3.8246 C   0  0  0  0  0  0  0  0  0  0  0  0
   -3.3885   -2.6317    2.7386 C   0  0  0  0  0  0  0  0  0  0  0  0
   -2.7899   -3.8002    2.0503 C   0  0  0  0  0  0  0  0  0  0  0  0
   -1.7366   -4.3319    2.4893 O   0  0  0  0  0  0  0  0  0  0  0  0
   -3.4444   -4.3099    0.8202 C   0  0  0  0  0  0  0  0  0  0  0  0
   -2.9785   -5.3567    0.0119 C   0  0  0  0  0  0  0  0  0  0  0  0
   -1.7149   -6.1567    0.1585 C   0  0  0  0  0  0  0  0  0  0  0  0
   -0.5121   -5.3886   -0.3861 C   0  0  0  0  0  0  0  0  0  0  0  0
   -4.0348   -5.5243   -1.2823 S   0  0  0  0  0  0  0  0  0  0  0  0
   -5.1180   -4.3209   -0.8303 C   0  0  0  0  0  0  0  0  0  0  0  0
   -6.2972   -3.9180   -1.6699 C   0  0  0  0  0  0  0  0  0  0  0  0
   -5.9282   -2.7818   -2.6154 C   0  0  0  0  0  0  0  0  0  0  0  0
   -4.6428   -3.7276    0.3474 C   0  0  0  0  0  0  0  0  0  0  0  0
   -5.2615   -2.5873    1.0680 C   0  0  0  0  0  0  0  0  0  0  0  0
   -6.3946   -2.1475    0.7357 O   0  0  0  0  0  0  0  0  0  0  0  0
   -4.5463   -2.0054    2.2276 C   0  0  0  0  0  0  0  0  0  0  0  0
   -1.4731   -2.1569    4.3870 C   0  0  0  0  0  0  0  0  0  0  0  0
   -0.4826   -1.2275    4.0471 C   0  0  0  0  0  0  0  0  0  0  0  0
    0.8177   -1.3634    4.5204 C   0  0  0  0  0  0  0  0  0  0  0  0
    1.1629   -2.4381    5.3479 C   0  0  0  0  0  0  0  0  0  0  0  0
    2.5506   -2.5733    5.8412 C   0  0  0  0  0  0  0  0  0  0  0  0
    3.4240   -1.7309    5.4957 O   0  0  0  0  0  0  0  0  0  0  0  0
    2.9039   -3.6621    6.7117 N   0  0  0  0  0  0  0  0  0  0  0  0
    4.2891   -3.8204    7.1794 C   0  0  0  0  0  0  0  0  0  0  0  0
    5.0762   -4.7181    6.2330 C   0  0  0  0  0  0  0  0  0  0  0  0
    1.9036   -4.6469    7.0383 C   0  0  0  0  0  0  0  0  0  0  0  0
    2.2105   -5.6469    7.7463 O   0  0  0  0  0  0  0  0  0  0  0  0
    0.5147   -4.4826    6.5441 C   0  0  0  0  0  0  0  0  0  0  0  0
   -0.4794   -5.4051    6.9053 C   0  0  0  0  0  0  0  0  0  0  0  0
   -1.7867   -5.2524    6.4515 C   0  0  0  0  0  0  0  0  0  0  0  0
   -2.1264   -4.1835    5.6246 C   0  0  0  0  0  0  0  0  0  0  0  0
   -1.1521   -3.2431    5.2370 C   0  0  0  0  0  0  0  0  0  0  0  0
    0.1827   -3.3879    5.7119 C   0  0  0  0  0  0  0  0  0  0  0  0
    6.5767    0.6417   -4.3975 H   0  0  0  0  0  0  0  0  0  0  0  0
    6.5212   -4.6358   -4.8561 H   0  0  0  0  0  0  0  0  0  0  0  0
    2.2205   -3.6189   -2.3233 H   0  0  0  0  0  0  0  0  0  0  0  0
    2.1173   -6.6403   -3.9374 H   0  0  0  0  0  0  0  0  0  0  0  0
    2.4914   -7.0733   -1.2194 H   0  0  0  0  0  0  0  0  0  0  0  0
    2.2602   -9.5068   -2.2543 H   0  0  0  0  0  0  0  0  0  0  0  0
    4.4512  -10.0581   -3.5523 H   0  0  0  0  0  0  0  0  0  0  0  0
    6.0942   -7.9776   -3.3446 H   0  0  0  0  0  0  0  0  0  0  0  0
    4.9530   -8.0483   -0.9386 H   0  0  0  0  0  0  0  0  0  0  0  0
    5.0465   -6.3274   -1.5068 H   0  0  0  0  0  0  0  0  0  0  0  0
    4.1327   -7.1428   -5.1256 H   0  0  0  0  0  0  0  0  0  0  0  0
    6.0837    2.2407   -1.5780 H   0  0  0  0  0  0  0  0  0  0  0  0
    6.9550    5.6826   -0.1041 H   0  0  0  0  0  0  0  0  0  0  0  0
    7.1708    4.4111   -1.3455 H   0  0  0  0  0  0  0  0  0  0  0  0
    6.2714    7.3229   -1.7658 H   0  0  0  0  0  0  0  0  0  0  0  0
    7.8123    6.5640   -2.3054 H   0  0  0  0  0  0  0  0  0  0  0  0
    6.2595    6.0727   -3.0784 H   0  0  0  0  0  0  0  0  0  0  0  0
    2.6793    7.6300   -0.7035 H   0  0  0  0  0  0  0  0  0  0  0  0
    4.0351    9.6853   -0.5731 H   0  0  0  0  0  0  0  0  0  0  0  0
    5.3429   10.4394   -2.5178 H   0  0  0  0  0  0  0  0  0  0  0  0
    5.9166   10.2813   -4.8221 H   0  0  0  0  0  0  0  0  0  0  0  0
    4.8540    9.2861   -5.8628 H   0  0  0  0  0  0  0  0  0  0  0  0
    7.3852    8.2608   -4.4094 H   0  0  0  0  0  0  0  0  0  0  0  0
    7.2951    8.7527   -6.1445 H   0  0  0  0  0  0  0  0  0  0  0  0
    6.3561    7.3273   -5.5760 H   0  0  0  0  0  0  0  0  0  0  0  0
    3.9745    7.0256   -4.7639 H   0  0  0  0  0  0  0  0  0  0  0  0
   -4.5439    2.8856    4.8834 H   0  0  0  0  0  0  0  0  0  0  0  0
   -4.9929    2.9717    7.3109 H   0  0  0  0  0  0  0  0  0  0  0  0
   -6.9128    1.7563    8.2709 H   0  0  0  0  0  0  0  0  0  0  0  0
   -9.6092    0.2834    6.2356 H   0  0  0  0  0  0  0  0  0  0  0  0
   -9.0837    0.6978    7.8953 H   0  0  0  0  0  0  0  0  0  0  0  0
   -8.1239   -1.7560    6.2713 H   0  0  0  0  0  0  0  0  0  0  0  0
   -7.6058   -1.3307    7.9555 H   0  0  0  0  0  0  0  0  0  0  0  0
   -9.3279   -1.7593    7.6198 H   0  0  0  0  0  0  0  0  0  0  0  0
   -7.9175    0.2621    4.3621 H   0  0  0  0  0  0  0  0  0  0  0  0
   -0.9435    2.7775   -1.9730 H   0  0  0  0  0  0  0  0  0  0  0  0
   -2.6261    2.4923   -1.6723 H   0  0  0  0  0  0  0  0  0  0  0  0
   -2.4285    1.3123   -3.6882 H   0  0  0  0  0  0  0  0  0  0  0  0
   -1.0838    2.3380   -4.2911 H   0  0  0  0  0  0  0  0  0  0  0  0
   -2.7711    2.9268   -4.4305 H   0  0  0  0  0  0  0  0  0  0  0  0
   -4.7370    1.6623   -2.1246 H   0  0  0  0  0  0  0  0  0  0  0  0
   -4.5896    3.1538   -3.1351 H   0  0  0  0  0  0  0  0  0  0  0  0
   -7.1574    2.0994   -1.8427 H   0  0  0  0  0  0  0  0  0  0  0  0
   -6.7327    2.1279   -3.5923 H   0  0  0  0  0  0  0  0  0  0  0  0
   -6.9929    3.6848   -2.7094 H   0  0  0  0  0  0  0  0  0  0  0  0
   -1.8151   -7.1078   -0.4055 H   0  0  0  0  0  0  0  0  0  0  0  0
   -1.5476   -6.4306    1.2201 H   0  0  0  0  0  0  0  0  0  0  0  0
    0.4103   -5.9859   -0.2263 H   0  0  0  0  0  0  0  0  0  0  0  0
   -0.3969   -4.4148    0.1352 H   0  0  0  0  0  0  0  0  0  0  0  0
   -0.6346   -5.2050   -1.4743 H   0  0  0  0  0  0  0  0  0  0  0  0
   -6.6328   -4.7890   -2.2720 H   0  0  0  0  0  0  0  0  0  0  0  0
   -7.1547   -3.6254   -1.0323 H   0  0  0  0  0  0  0  0  0  0  0  0
   -6.8287   -2.4573   -3.1787 H   0  0  0  0  0  0  0  0  0  0  0  0
   -5.5306   -1.9115   -2.0512 H   0  0  0  0  0  0  0  0  0  0  0  0
   -5.1656   -3.1234   -3.3431 H   0  0  0  0  0  0  0  0  0  0  0  0
   -0.7191   -0.3933    3.3967 H   0  0  0  0  0  0  0  0  0  0  0  0
    1.5541   -0.6248    4.2287 H   0  0  0  0  0  0  0  0  0  0  0  0
    4.3020   -4.2533    8.2017 H   0  0  0  0  0  0  0  0  0  0  0  0
    4.7943   -2.8341    7.2469 H   0  0  0  0  0  0  0  0  0  0  0  0
    4.6708   -5.7543    6.2555 H   0  0  0  0  0  0  0  0  0  0  0  0
    5.0159   -4.3234    5.1919 H   0  0  0  0  0  0  0  0  0  0  0  0
    6.1457   -4.7474    6.5455 H   0  0  0  0  0  0  0  0  0  0  0  0
   -0.2456   -6.2475    7.5426 H   0  0  0  0  0  0  0  0  0  0  0  0
   -2.5443   -5.9714    6.7401 H   0  0  0  0  0  0  0  0  0  0  0  0
   -3.1519   -4.0959    5.2951 H   0  0  0  0  0  0  0  0  0  0  0  0
  1  2  2  3
  2  3  1  0
  3  4  2  0
  3  5  1  0
  5  6  2  0
  6  7  1  0
  7  8  2  0
  8  9  1  0
  9 10  2  0
 10 11  1  0
 11 12  2  3
 12 13  1  0
 13 14  3  0
 12 15  1  0
 15 16  3  0
  8 17  1  0
 17 18  1  0
 18 19  1  0
 19 20  2  0
 20 21  1  0
 21 22  1  0
 21 23  1  0
  1 24  1  0
 24 25  2  0
 25 26  1  0
 26 27  1  0
 27 28  1  0
 28 29  1  0
 26 30  2  0
 30 31  1  0
 30 32  1  0
 32 33  2  0
 33 34  1  0
 34 35  2  0
 35 36  1  0
 36 37  2  0
 37 38  1  0
 38 39  1  0
 39 40  1  0
 38 41  2  0
 33 42  1  0
 42 43  1  0
 43 44  1  0
 44 45  1  0
 45 46  1  0
 46 47  1  0
 47 48  2  0
 48 49  1  0
 49 50  1  0
 47 51  1  0
 51 52  1  0
 52 53  1  0
 53 54  1  0
 54 55  1  0
 55 56  1  0
 56 57  2  0
 57 58  1  0
 58 59  2  0
 59 60  1  0
 60 61  1  0
 61 62  1  0
 60 63  2  0
 55 64  2  0
 64 65  1  0
 65 66  1  0
 66 67  1  0
 67 68  1  0
 68 69  1  0
 69 70  1  0
 70 71  1  0
 71 72  1  0
 72 73  1  0
 73 74  1  0
 71 75  1  0
 75 76  1  0
 68 77  1  0
 77 78  1  0
 64 79  1  0
 79 80  1  0
 80 81  1  0
 81 82  2  0
 82 83  1  0
 83 84  2  0
 83 85  1  0
 85 86  2  0
 86 87  1  0
 87 88  1  0
 86 89  1  0
 89 90  1  0
 90 91  1  0
 91 92  1  0
 90 93  2  0
 93 94  1  0
 94 95  2  0
 94 96  1  0
 81 97  1  0
 97 98  2  0
 98 99  1  0
 99100  2  0
100101  1  0
101102  2  0
101103  1  0
103104  1  0
104105  1  0
103106  1  0
106107  2  0
106108  1  0
108109  1  0
109110  2  0
110111  1  0
111112  2  0
112113  1  0
 11  2  1  0
 23 17  1  0
 31 24  1  0
 74 32  1  0
 96 79  2  0
112 97  1  0
 10  5  1  0
 22 18  1  0
 41 34  1  0
 73 42  2  0
 96 82  1  0
113100  1  0
 23  7  1  0
 72 44  2  0
 93 85  1  0
113108  2  0
 70 45  2  0
 50 46  2  0
 69 51  2  0
 67 52  2  0
 66 54  2  0
 63 56  1  0
  1114  1  0
  6115  1  0
  9116  1  0
 17117  1  0
 18118  1  0
 19119  1  0
 20120  1  0
 21121  1  0
 22122  1  0
 22123  1  0
 23124  1  0
 25125  1  0
 28126  1  0
 28127  1  0
 29128  1  0
 29129  1  0
 29130  1  0
 35131  1  0
 36132  1  0
 37133  1  0
 39134  1  0
 39135  1  0
 40136  1  0
 40137  1  0
 40138  1  0
 41139  1  0
 57140  1  0
 58141  1  0
 59142  1  0
 61143  1  0
 61144  1  0
 62145  1  0
 62146  1  0
 62147  1  0
 63148  1  0
 75149  1  0
 75150  1  0
 76151  1  0
 76152  1  0
 76153  1  0
 77154  1  0
 77155  1  0
 78156  1  0
 78157  1  0
 78158  1  0
 87159  1  0
 87160  1  0
 88161  1  0
 88162  1  0
 88163  1  0
 91164  1  0
 91165  1  0
 92166  1  0
 92167  1  0
 92168  1  0
 98169  1  0
 99170  1  0
104171  1  0
104172  1  0
105173  1  0
105174  1  0
105175  1  0
109176  1  0
110177  1  0
111178  1  0
M  END

