
     RDKit          3D

205230  0  0  0  0  0  0  0  0999 V2000
    3.2027    8.7698   -2.7427 C   0  0  0  0  0  0  0  0  0  0  0  0
    2.1947    8.3803   -3.5411 C   0  0  0  0  0  0  0  0  0  0  0  0
    0.7766    8.6419   -3.2626 C   0  0  0  0  0  0  0  0  0  0  0  0
    0.3188    9.3025   -2.2880 O   0  0  0  0  0  0  0  0  0  0  0  0
   -0.0134    8.1239   -4.3499 C   0  0  0  0  0  0  0  0  0  0  0  0
   -1.4244    8.1237   -4.4383 C   0  0  0  0  0  0  0  0  0  0  0  0
   -1.9186    7.4322   -5.5226 C   0  0  0  0  0  0  0  0  0  0  0  0
   -1.0784    6.7716   -6.4758 C   0  0  0  0  0  0  0  0  0  0  0  0
    0.3059    6.7965   -6.4168 C   0  0  0  0  0  0  0  0  0  0  0  0
    0.8460    7.5255   -5.3117 C   0  0  0  0  0  0  0  0  0  0  0  0
    2.2670    7.6924   -4.8727 C   0  0  0  0  0  0  0  0  0  0  0  0
    3.3766    7.1954   -5.4920 C   0  0  0  0  0  0  0  0  0  0  0  0
    3.3484    6.6404   -6.8192 C   0  0  0  0  0  0  0  0  0  0  0  0
    3.3501    6.1901   -7.8840 N   0  0  0  0  0  0  0  0  0  0  0  0
    4.6602    7.1335   -4.8464 C   0  0  0  0  0  0  0  0  0  0  0  0
    5.6934    7.0587   -4.3269 N   0  0  0  0  0  0  0  0  0  0  0  0
   -2.2866    6.2562   -7.2024 C   0  0  0  0  0  0  0  0  0  0  0  0
   -2.6226    4.7493   -6.9925 C   0  0  0  0  0  0  0  0  0  0  0  0
   -4.0388    4.5795   -7.4781 C   0  0  0  0  0  0  0  0  0  0  0  0
   -4.8273    5.1976   -6.5886 C   0  0  0  0  0  0  0  0  0  0  0  0
   -3.9093    5.7742   -5.5363 C   0  0  0  0  0  0  0  0  0  0  0  0
   -2.8777    4.6572   -5.4961 C   0  0  0  0  0  0  0  0  0  0  0  0
   -3.1437    6.9368   -6.2296 C   0  0  0  0  0  0  0  0  0  0  0  0
    3.0449    8.8353   -1.2795 C   0  0  0  0  0  0  0  0  0  0  0  0
    3.7854    9.6178   -0.3995 C   0  0  0  0  0  0  0  0  0  0  0  0
    3.6141    9.2542    0.9488 C   0  0  0  0  0  0  0  0  0  0  0  0
    4.4922   10.0690    2.2865 S   0  0  0  0  0  0  0  0  0  0  0  0
    6.0470    9.1356    2.0630 C   0  0  0  0  0  0  0  0  0  0  0  0
    5.9855    7.7782    2.7521 C   0  0  0  0  0  0  0  0  0  0  0  0
    2.7443    8.1771    1.1229 C   0  0  0  0  0  0  0  0  0  0  0  0
    2.2244    7.6724   -0.3847 S   0  0  0  0  0  0  0  0  0  0  0  0
    2.4469    7.4289    2.3539 C   0  0  0  0  0  0  0  0  0  0  0  0
    1.8233    7.9094    3.5248 C   0  0  0  0  0  0  0  0  0  0  0  0
    1.4330    9.3133    3.7703 C   0  0  0  0  0  0  0  0  0  0  0  0
    0.7959   10.0699    2.7738 C   0  0  0  0  0  0  0  0  0  0  0  0
    0.4669   11.4068    3.0079 C   0  0  0  0  0  0  0  0  0  0  0  0
    0.7663   11.9990    4.2324 C   0  0  0  0  0  0  0  0  0  0  0  0
    1.3745   11.2487    5.2521 C   0  0  0  0  0  0  0  0  0  0  0  0
    1.7247   11.8928    6.5648 C   0  0  0  0  0  0  0  0  0  0  0  0
    3.1369   12.4703    6.5238 C   0  0  0  0  0  0  0  0  0  0  0  0
    1.7160    9.9087    5.0107 C   0  0  0  0  0  0  0  0  0  0  0  0
    1.5014    6.8454    4.3807 C   0  0  0  0  0  0  0  0  0  0  0  0
    0.4010    6.7053    5.6762 S   0  0  0  0  0  0  0  0  0  0  0  0
    0.4868    5.0062    5.6446 C   0  0  0  0  0  0  0  0  0  0  0  0
   -0.3732    3.9844    5.9616 C   0  0  0  0  0  0  0  0  0  0  0  0
   -1.6121    4.0088    6.6298 C   0  0  0  0  0  0  0  0  0  0  0  0
   -2.4795    2.8798    6.5144 C   0  0  0  0  0  0  0  0  0  0  0  0
   -3.6971    2.9743    7.0990 N   0  0  0  0  0  0  0  0  0  0  0  0
   -3.5881    4.5096    7.7167 S   0  0  0  0  0  0  0  0  0  0  0  0
   -2.0942    5.0842    7.2886 N   0  0  0  0  0  0  0  0  0  0  0  0
   -2.0453    1.7703    5.7810 C   0  0  0  0  0  0  0  0  0  0  0  0
   -2.6403    0.5766    5.4757 C   0  0  0  0  0  0  0  0  0  0  0  0
   -4.1138   -0.2595    5.6305 S   0  0  0  0  0  0  0  0  0  0  0  0
   -3.5256   -1.5728    4.6837 C   0  0  0  0  0  0  0  0  0  0  0  0
   -4.1073   -2.7210    4.1050 C   0  0  0  0  0  0  0  0  0  0  0  0
   -5.3708   -3.3588    4.5852 C   0  0  0  0  0  0  0  0  0  0  0  0
   -5.7338   -3.2295    5.9402 C   0  0  0  0  0  0  0  0  0  0  0  0
   -6.8098   -3.9482    6.4650 C   0  0  0  0  0  0  0  0  0  0  0  0
   -7.5176   -4.8349    5.6584 C   0  0  0  0  0  0  0  0  0  0  0  0
   -7.1819   -4.9836    4.3073 C   0  0  0  0  0  0  0  0  0  0  0  0
   -7.8637   -6.0381    3.4775 C   0  0  0  0  0  0  0  0  0  0  0  0
   -6.9810   -7.2805    3.3590 C   0  0  0  0  0  0  0  0  0  0  0  0
   -6.1319   -4.2184    3.7658 C   0  0  0  0  0  0  0  0  0  0  0  0
   -3.2112   -3.2688    3.1468 C   0  0  0  0  0  0  0  0  0  0  0  0
   -1.7491   -2.4030    3.1268 S   0  0  0  0  0  0  0  0  0  0  0  0
   -2.2351   -1.3257    4.2934 C   0  0  0  0  0  0  0  0  0  0  0  0
   -1.7384   -0.1276    4.7583 C   0  0  0  0  0  0  0  0  0  0  0  0
   -0.5544    0.4982    4.5850 N   0  0  0  0  0  0  0  0  0  0  0  0
   -0.7878    1.7273    5.1562 C   0  0  0  0  0  0  0  0  0  0  0  0
    0.0242    2.8932    5.1667 C   0  0  0  0  0  0  0  0  0  0  0  0
    1.0174    3.2658    4.2981 N   0  0  0  0  0  0  0  0  0  0  0  0
    1.2878    4.5527    4.6390 C   0  0  0  0  0  0  0  0  0  0  0  0
    1.8547    5.6002    3.9181 C   0  0  0  0  0  0  0  0  0  0  0  0
    2.5543    5.7385    2.4117 S   0  0  0  0  0  0  0  0  0  0  0  0
    1.3551    2.6690    3.0043 C   0  0  0  0  0  0  0  0  0  0  0  0
    2.8214    2.2296    2.9717 C   0  0  0  0  0  0  0  0  0  0  0  0
    0.7179   -0.2428    4.5177 C   0  0  0  0  0  0  0  0  0  0  0  0
    1.5380   -0.0704    5.7966 C   0  0  0  0  0  0  0  0  0  0  0  0
   -3.4646   -4.2646    2.1062 C   0  0  0  0  0  0  0  0  0  0  0  0
   -3.4564   -3.8929    0.7595 C   0  0  0  0  0  0  0  0  0  0  0  0
   -2.9408   -4.8744   -0.0967 C   0  0  0  0  0  0  0  0  0  0  0  0
   -2.5958   -4.6786   -1.4503 C   0  0  0  0  0  0  0  0  0  0  0  0
   -2.9832   -3.4583   -2.1850 C   0  0  0  0  0  0  0  0  0  0  0  0
   -2.0098   -2.5477   -2.6337 C   0  0  0  0  0  0  0  0  0  0  0  0
   -2.3880   -1.4277   -3.3821 C   0  0  0  0  0  0  0  0  0  0  0  0
   -3.7405   -1.2006   -3.6899 C   0  0  0  0  0  0  0  0  0  0  0  0
   -4.1520   -0.0024   -4.5014 C   0  0  0  0  0  0  0  0  0  0  0  0
   -4.6328    1.1339   -3.6005 C   0  0  0  0  0  0  0  0  0  0  0  0
   -4.7133   -2.0937   -3.2066 C   0  0  0  0  0  0  0  0  0  0  0  0
   -4.3360   -3.2166   -2.4602 C   0  0  0  0  0  0  0  0  0  0  0  0
   -1.8036   -5.6689   -2.0498 C   0  0  0  0  0  0  0  0  0  0  0  0
   -1.4267   -6.8389   -1.3835 C   0  0  0  0  0  0  0  0  0  0  0  0
   -1.8568   -7.0808   -0.0598 C   0  0  0  0  0  0  0  0  0  0  0  0
   -1.5957   -8.3727    0.6091 C   0  0  0  0  0  0  0  0  0  0  0  0
   -2.0877   -9.5518    0.0275 C   0  0  0  0  0  0  0  0  0  0  0  0
   -1.8930  -10.7829    0.6557 C   0  0  0  0  0  0  0  0  0  0  0  0
   -1.2063  -10.8532    1.8776 C   0  0  0  0  0  0  0  0  0  0  0  0
   -1.0578  -12.1766    2.5750 C   0  0  0  0  0  0  0  0  0  0  0  0
   -2.3481  -12.5492    3.2996 C   0  0  0  0  0  0  0  0  0  0  0  0
   -0.7035   -9.6754    2.4581 C   0  0  0  0  0  0  0  0  0  0  0  0
   -0.8897   -8.4409    1.8224 C   0  0  0  0  0  0  0  0  0  0  0  0
   -2.5755   -6.0470    0.5698 C   0  0  0  0  0  0  0  0  0  0  0  0
   -2.8809   -5.8464    2.2155 S   0  0  0  0  0  0  0  0  0  0  0  0
   -0.4823   -7.6013   -2.0936 C   0  0  0  0  0  0  0  0  0  0  0  0
   -0.1232   -7.0168   -3.3049 C   0  0  0  0  0  0  0  0  0  0  0  0
   -0.9896   -5.5865   -3.5187 S   0  0  0  0  0  0  0  0  0  0  0  0
    1.1046   -7.3393   -4.0457 C   0  0  0  0  0  0  0  0  0  0  0  0
    2.2769   -6.7251   -3.7874 C   0  0  0  0  0  0  0  0  0  0  0  0
    2.5500   -5.8499   -2.6338 C   0  0  0  0  0  0  0  0  0  0  0  0
    1.6963   -5.3460   -1.8553 O   0  0  0  0  0  0  0  0  0  0  0  0
    3.9788   -5.6979   -2.4931 C   0  0  0  0  0  0  0  0  0  0  0  0
    4.6612   -5.0548   -1.4330 C   0  0  0  0  0  0  0  0  0  0  0  0
    6.0371   -5.1731   -1.5015 C   0  0  0  0  0  0  0  0  0  0  0  0
    6.7101   -5.8842   -2.5478 C   0  0  0  0  0  0  0  0  0  0  0  0
    6.0463   -6.5214   -3.5842 C   0  0  0  0  0  0  0  0  0  0  0  0
    4.6290   -6.3951   -3.5475 C   0  0  0  0  0  0  0  0  0  0  0  0
    3.5945   -6.9677   -4.4597 C   0  0  0  0  0  0  0  0  0  0  0  0
    3.7892   -7.3757   -5.7406 C   0  0  0  0  0  0  0  0  0  0  0  0
    2.6993   -7.6744   -6.6326 C   0  0  0  0  0  0  0  0  0  0  0  0
    1.8297   -7.9119   -7.3614 N   0  0  0  0  0  0  0  0  0  0  0  0
    5.0888   -7.3845   -6.3676 C   0  0  0  0  0  0  0  0  0  0  0  0
    6.1174   -7.3705   -6.8935 N   0  0  0  0  0  0  0  0  0  0  0  0
    8.0389   -5.5781   -1.9211 C   0  0  0  0  0  0  0  0  0  0  0  0
    8.9221   -4.4764   -2.5786 C   0  0  0  0  0  0  0  0  0  0  0  0
    8.0511   -3.4261   -3.2282 C   0  0  0  0  0  0  0  0  0  0  0  0
    7.4371   -2.7745   -2.2408 C   0  0  0  0  0  0  0  0  0  0  0  0
    7.9023   -3.4092   -0.9515 C   0  0  0  0  0  0  0  0  0  0  0  0
    9.3434   -3.7056   -1.3375 C   0  0  0  0  0  0  0  0  0  0  0  0
    7.3485   -4.8617   -0.8404 C   0  0  0  0  0  0  0  0  0  0  0  0
    4.2092    8.8743   -3.1133 H   0  0  0  0  0  0  0  0  0  0  0  0
   -2.0634    8.5811   -3.6956 H   0  0  0  0  0  0  0  0  0  0  0  0
    0.8807    6.2505   -7.1430 H   0  0  0  0  0  0  0  0  0  0  0  0
   -2.3776    6.6298   -8.2465 H   0  0  0  0  0  0  0  0  0  0  0  0
   -1.8907    4.0263   -7.4065 H   0  0  0  0  0  0  0  0  0  0  0  0
   -4.3766    4.0079   -8.3366 H   0  0  0  0  0  0  0  0  0  0  0  0
   -5.9127    5.2045   -6.5859 H   0  0  0  0  0  0  0  0  0  0  0  0
   -4.3954    6.0212   -4.5710 H   0  0  0  0  0  0  0  0  0  0  0  0
   -1.9851    4.8757   -4.8669 H   0  0  0  0  0  0  0  0  0  0  0  0
   -3.2992    3.6714   -5.1794 H   0  0  0  0  0  0  0  0  0  0  0  0
   -3.7763    7.7498   -6.6517 H   0  0  0  0  0  0  0  0  0  0  0  0
    4.4654   10.3956   -0.7291 H   0  0  0  0  0  0  0  0  0  0  0  0
    6.2788    9.0040    0.9848 H   0  0  0  0  0  0  0  0  0  0  0  0
    6.8698    9.7304    2.5141 H   0  0  0  0  0  0  0  0  0  0  0  0
    5.2410    7.1303    2.2507 H   0  0  0  0  0  0  0  0  0  0  0  0
    5.7164    7.9075    3.8215 H   0  0  0  0  0  0  0  0  0  0  0  0
    6.9790    7.2845    2.6854 H   0  0  0  0  0  0  0  0  0  0  0  0
    0.5399    9.6244    1.8193 H   0  0  0  0  0  0  0  0  0  0  0  0
   -0.0065   11.9905    2.2259 H   0  0  0  0  0  0  0  0  0  0  0  0
    0.5164   13.0394    4.3943 H   0  0  0  0  0  0  0  0  0  0  0  0
    1.0046   12.7038    6.8043 H   0  0  0  0  0  0  0  0  0  0  0  0
    1.6598   11.1455    7.3847 H   0  0  0  0  0  0  0  0  0  0  0  0
    3.3755   12.9408    7.5004 H   0  0  0  0  0  0  0  0  0  0  0  0
    3.2162   13.2423    5.7274 H   0  0  0  0  0  0  0  0  0  0  0  0
    3.8779   11.6642    6.3298 H   0  0  0  0  0  0  0  0  0  0  0  0
    2.2211    9.3343    5.7825 H   0  0  0  0  0  0  0  0  0  0  0  0
   -5.1522   -2.6223    6.6240 H   0  0  0  0  0  0  0  0  0  0  0  0
   -7.0675   -3.8418    7.5104 H   0  0  0  0  0  0  0  0  0  0  0  0
   -8.3080   -5.4310    6.1002 H   0  0  0  0  0  0  0  0  0  0  0  0
   -8.0883   -5.6382    2.4655 H   0  0  0  0  0  0  0  0  0  0  0  0
   -8.8302   -6.3279    3.9463 H   0  0  0  0  0  0  0  0  0  0  0  0
   -6.1626   -7.0942    2.6227 H   0  0  0  0  0  0  0  0  0  0  0  0
   -6.5308   -7.5381    4.3490 H   0  0  0  0  0  0  0  0  0  0  0  0
   -7.5927   -8.1470    3.0128 H   0  0  0  0  0  0  0  0  0  0  0  0
   -5.9038   -4.3306    2.7154 H   0  0  0  0  0  0  0  0  0  0  0  0
    1.1796    3.4003    2.1922 H   0  0  0  0  0  0  0  0  0  0  0  0
    0.6706    1.8430    2.7511 H   0  0  0  0  0  0  0  0  0  0  0  0
    3.4956    3.0978    3.1286 H   0  0  0  0  0  0  0  0  0  0  0  0
    3.0481    1.7629    1.9900 H   0  0  0  0  0  0  0  0  0  0  0  0
    3.0293    1.4948    3.7731 H   0  0  0  0  0  0  0  0  0  0  0  0
    1.3090    0.0255    3.6311 H   0  0  0  0  0  0  0  0  0  0  0  0
    0.5268   -1.3276    4.4069 H   0  0  0  0  0  0  0  0  0  0  0  0
    1.8884    0.9762    5.8989 H   0  0  0  0  0  0  0  0  0  0  0  0
    2.4226   -0.7357    5.7690 H   0  0  0  0  0  0  0  0  0  0  0  0
    0.9174   -0.3274    6.6837 H   0  0  0  0  0  0  0  0  0  0  0  0
   -3.6426   -2.8753    0.4399 H   0  0  0  0  0  0  0  0  0  0  0  0
   -0.9619   -2.7136   -2.4126 H   0  0  0  0  0  0  0  0  0  0  0  0
   -1.6191   -0.7496   -3.7440 H   0  0  0  0  0  0  0  0  0  0  0  0
   -3.3009    0.3536   -5.1287 H   0  0  0  0  0  0  0  0  0  0  0  0
   -4.9742   -0.2841   -5.1963 H   0  0  0  0  0  0  0  0  0  0  0  0
   -4.9774    1.9839   -4.2320 H   0  0  0  0  0  0  0  0  0  0  0  0
   -3.8004    1.4801   -2.9442 H   0  0  0  0  0  0  0  0  0  0  0  0
   -5.4875    0.7929   -2.9700 H   0  0  0  0  0  0  0  0  0  0  0  0
   -5.7612   -1.9292   -3.4227 H   0  0  0  0  0  0  0  0  0  0  0  0
   -5.0959   -3.9063   -2.1185 H   0  0  0  0  0  0  0  0  0  0  0  0
   -2.6355   -9.5166   -0.9041 H   0  0  0  0  0  0  0  0  0  0  0  0
   -2.2983  -11.6810    0.2020 H   0  0  0  0  0  0  0  0  0  0  0  0
   -0.8175  -12.9661    1.8285 H   0  0  0  0  0  0  0  0  0  0  0  0
   -0.2227  -12.1432    3.3096 H   0  0  0  0  0  0  0  0  0  0  0  0
   -3.2081  -12.5342    2.5951 H   0  0  0  0  0  0  0  0  0  0  0  0
   -2.2571  -13.5730    3.7196 H   0  0  0  0  0  0  0  0  0  0  0  0
   -2.5453  -11.8363    4.1306 H   0  0  0  0  0  0  0  0  0  0  0  0
   -0.1759   -9.7101    3.4035 H   0  0  0  0  0  0  0  0  0  0  0  0
   -0.4877   -7.5461    2.2752 H   0  0  0  0  0  0  0  0  0  0  0  0
    0.0085   -8.4793   -1.6922 H   0  0  0  0  0  0  0  0  0  0  0  0
    1.0380   -8.1296   -4.7752 H   0  0  0  0  0  0  0  0  0  0  0  0
    4.1605   -4.5431   -0.6212 H   0  0  0  0  0  0  0  0  0  0  0  0
    6.5901   -7.0959   -4.3162 H   0  0  0  0  0  0  0  0  0  0  0  0
    8.5913   -6.4782   -1.5732 H   0  0  0  0  0  0  0  0  0  0  0  0
    9.7542   -4.8518   -3.2079 H   0  0  0  0  0  0  0  0  0  0  0  0
    7.9916   -3.1824   -4.2839 H   0  0  0  0  0  0  0  0  0  0  0  0
    6.7970   -1.9032   -2.3511 H   0  0  0  0  0  0  0  0  0  0  0  0
    7.7755   -2.7822   -0.0416 H   0  0  0  0  0  0  0  0  0  0  0  0
    9.9458   -2.7922   -1.5613 H   0  0  0  0  0  0  0  0  0  0  0  0
    9.8824   -4.3324   -0.5869 H   0  0  0  0  0  0  0  0  0  0  0  0
    7.4709   -5.3373    0.1580 H   0  0  0  0  0  0  0  0  0  0  0  0
  1  2  2  3
  2  3  1  0
  3  4  2  0
  3  5  1  0
  5  6  2  0
  6  7  1  0
  7  8  2  0
  8  9  1  0
  9 10  2  0
 10 11  1  0
 11 12  2  3
 12 13  1  0
 13 14  3  0
 12 15  1  0
 15 16  3  0
  8 17  1  0
 17 18  1  0
 18 19  1  0
 19 20  2  0
 20 21  1  0
 21 22  1  0
 21 23  1  0
  1 24  1  0
 24 25  2  0
 25 26  1  0
 26 27  1  0
 27 28  1  0
 28 29  1  0
 26 30  2  0
 30 31  1  0
 30 32  1  0
 32 33  2  0
 33 34  1  0
 34 35  2  0
 35 36  1  0
 36 37  2  0
 37 38  1  0
 38 39  1  0
 39 40  1  0
 38 41  2  0
 33 42  1  0
 42 43  1  0
 43 44  1  0
 44 45  1  0
 45 46  1  0
 46 47  1  0
 47 48  2  0
 48 49  1  0
 49 50  1  0
 47 51  1  0
 51 52  1  0
 52 53  1  0
 53 54  1  0
 54 55  1  0
 55 56  1  0
 56 57  2  0
 57 58  1  0
 58 59  2  0
 59 60  1  0
 60 61  1  0
 61 62  1  0
 60 63  2  0
 55 64  2  0
 64 65  1  0
 65 66  1  0
 66 67  1  0
 67 68  1  0
 68 69  1  0
 69 70  1  0
 70 71  1  0
 71 72  1  0
 72 73  1  0
 73 74  1  0
 71 75  1  0
 75 76  1  0
 68 77  1  0
 77 78  1  0
 64 79  1  0
 79 80  2  0
 80 81  1  0
 81 82  2  0
 82 83  1  0
 83 84  2  0
 84 85  1  0
 85 86  2  0
 86 87  1  0
 87 88  1  0
 86 89  1  0
 89 90  2  0
 82 91  1  0
 91 92  2  0
 92 93  1  0
 93 94  1  0
 94 95  2  0
 95 96  1  0
 96 97  2  0
 97 98  1  0
 98 99  1  0
 97100  1  0
100101  2  0
 93102  2  0
102103  1  0
 92104  1  0
104105  2  0
105106  1  0
105107  1  0
107108  2  3
108109  1  0
109110  2  0
109111  1  0
111112  2  0
112113  1  0
113114  2  0
114115  1  0
115116  2  0
116117  1  0
117118  2  3
118119  1  0
119120  3  0
118121  1  0
121122  3  0
114123  1  0
123124  1  0
124125  1  0
125126  2  0
126127  1  0
127128  1  0
127129  1  0
 11  2  1  0
 23 17  1  0
 31 24  1  0
 74 32  1  0
103 79  1  0
117108  1  0
129123  1  0
 10  5  1  0
 22 18  1  0
 41 34  1  0
 73 42  2  0
102 81  1  0
116111  1  0
128124  1  0
 23  7  1  0
 72 44  2  0
 90 83  1  0
106 91  1  0
129113  1  0
 70 45  2  0
101 94  1  0
 50 46  2  0
 69 51  2  0
 67 52  2  0
 66 54  2  0
 63 56  1  0
  1130  1  0
  6131  1  0
  9132  1  0
 17133  1  0
 18134  1  0
 19135  1  0
 20136  1  0
 21137  1  0
 22138  1  0
 22139  1  0
 23140  1  0
 25141  1  0
 28142  1  0
 28143  1  0
 29144  1  0
 29145  1  0
 29146  1  0
 35147  1  0
 36148  1  0
 37149  1  0
 39150  1  0
 39151  1  0
 40152  1  0
 40153  1  0
 40154  1  0
 41155  1  0
 57156  1  0
 58157  1  0
 59158  1  0
 61159  1  0
 61160  1  0
 62161  1  0
 62162  1  0
 62163  1  0
 63164  1  0
 75165  1  0
 75166  1  0
 76167  1  0
 76168  1  0
 76169  1  0
 77170  1  0
 77171  1  0
 78172  1  0
 78173  1  0
 78174  1  0
 80175  1  0
 84176  1  0
 85177  1  0
 87178  1  0
 87179  1  0
 88180  1  0
 88181  1  0
 88182  1  0
 89183  1  0
 90184  1  0
 95185  1  0
 96186  1  0
 98187  1  0
 98188  1  0
 99189  1  0
 99190  1  0
 99191  1  0
100192  1  0
101193  1  0
104194  1  0
107195  1  0
112196  1  0
115197  1  0
123198  1  0
124199  1  0
125200  1  0
126201  1  0
127202  1  0
128203  1  0
128204  1  0
129205  1  0
M  END

