
     RDKit          3D

167186  0  0  0  0  0  0  0  0999 V2000
   -5.5277    1.5624   -9.1150 C   0  0  0  0  0  0  0  0  0  0  0  0
   -4.4766    1.9461   -9.8669 C   0  0  0  0  0  0  0  0  0  0  0  0
   -3.0703    1.5753   -9.6591 C   0  0  0  0  0  0  0  0  0  0  0  0
   -2.5596    1.1164   -8.6042 O   0  0  0  0  0  0  0  0  0  0  0  0
   -2.3357    1.8681  -10.8657 C   0  0  0  0  0  0  0  0  0  0  0  0
   -0.9938    1.5164  -11.1546 C   0  0  0  0  0  0  0  0  0  0  0  0
   -0.6012    1.8358  -12.4379 C   0  0  0  0  0  0  0  0  0  0  0  0
   -1.4692    2.4655  -13.3895 C   0  0  0  0  0  0  0  0  0  0  0  0
   -2.7848    2.7981  -13.1153 C   0  0  0  0  0  0  0  0  0  0  0  0
   -3.2018    2.5070  -11.7894 C   0  0  0  0  0  0  0  0  0  0  0  0
   -4.5305    2.7100  -11.1566 C   0  0  0  0  0  0  0  0  0  0  0  0
   -5.4248    3.6768  -11.4914 C   0  0  0  0  0  0  0  0  0  0  0  0
   -5.1515    4.6254  -12.5481 C   0  0  0  0  0  0  0  0  0  0  0  0
   -4.9033    5.4246  -13.3478 N   0  0  0  0  0  0  0  0  0  0  0  0
   -6.5421    4.0132  -10.6524 C   0  0  0  0  0  0  0  0  0  0  0  0
   -7.4352    4.3154   -9.9703 N   0  0  0  0  0  0  0  0  0  0  0  0
   -0.3781    2.4760  -14.4095 C   0  0  0  0  0  0  0  0  0  0  0  0
    0.3470    3.8270  -14.6870 C   0  0  0  0  0  0  0  0  0  0  0  0
    0.3583    4.6783  -13.4407 C   0  0  0  0  0  0  0  0  0  0  0  0
    1.1679    4.0695  -12.5700 C   0  0  0  0  0  0  0  0  0  0  0  0
    1.6784    2.8274  -13.2582 C   0  0  0  0  0  0  0  0  0  0  0  0
    1.7947    3.3581  -14.6707 C   0  0  0  0  0  0  0  0  0  0  0  0
    0.5097    1.8106  -13.4455 C   0  0  0  0  0  0  0  0  0  0  0  0
   -5.4110    0.9302   -7.7853 C   0  0  0  0  0  0  0  0  0  0  0  0
   -5.8476    1.5268   -6.6182 C   0  0  0  0  0  0  0  0  0  0  0  0
   -5.5225    0.8029   -5.4735 C   0  0  0  0  0  0  0  0  0  0  0  0
   -5.8689    1.4609   -3.8347 S   0  0  0  0  0  0  0  0  0  0  0  0
   -7.2885    0.3670   -3.5255 C   0  0  0  0  0  0  0  0  0  0  0  0
   -7.8216    0.6110   -2.1160 C   0  0  0  0  0  0  0  0  0  0  0  0
   -4.8530   -0.3972   -5.7288 C   0  0  0  0  0  0  0  0  0  0  0  0
   -4.6865   -0.5490   -7.3992 S   0  0  0  0  0  0  0  0  0  0  0  0
   -4.2029   -1.2636   -4.7219 C   0  0  0  0  0  0  0  0  0  0  0  0
   -4.2096   -2.6766   -4.6538 C   0  0  0  0  0  0  0  0  0  0  0  0
   -4.7010   -3.5738   -5.7030 C   0  0  0  0  0  0  0  0  0  0  0  0
   -3.9306   -3.7746   -6.8594 C   0  0  0  0  0  0  0  0  0  0  0  0
   -4.3539   -4.6718   -7.8416 C   0  0  0  0  0  0  0  0  0  0  0  0
   -5.5460   -5.3891   -7.6705 C   0  0  0  0  0  0  0  0  0  0  0  0
   -6.3328   -5.1880   -6.5270 C   0  0  0  0  0  0  0  0  0  0  0  0
   -7.5939   -5.9868   -6.3346 C   0  0  0  0  0  0  0  0  0  0  0  0
   -7.2838   -7.3587   -5.7418 C   0  0  0  0  0  0  0  0  0  0  0  0
   -5.8946   -4.2902   -5.5342 C   0  0  0  0  0  0  0  0  0  0  0  0
   -3.5911   -3.1246   -3.4821 C   0  0  0  0  0  0  0  0  0  0  0  0
   -3.3322   -4.6583   -2.7483 S   0  0  0  0  0  0  0  0  0  0  0  0
   -2.4969   -3.9346   -1.4484 C   0  0  0  0  0  0  0  0  0  0  0  0
   -1.9913   -4.2199   -0.1967 C   0  0  0  0  0  0  0  0  0  0  0  0
   -1.9738   -5.3752    0.6017 C   0  0  0  0  0  0  0  0  0  0  0  0
   -1.4904   -5.2802    1.9519 C   0  0  0  0  0  0  0  0  0  0  0  0
   -1.5080   -6.4198    2.6831 N   0  0  0  0  0  0  0  0  0  0  0  0
   -2.1514   -7.4690    1.5754 S   0  0  0  0  0  0  0  0  0  0  0  0
   -2.4135   -6.5897    0.1966 N   0  0  0  0  0  0  0  0  0  0  0  0
   -1.0214   -4.0421    2.4187 C   0  0  0  0  0  0  0  0  0  0  0  0
   -0.3302   -3.6600    3.5466 C   0  0  0  0  0  0  0  0  0  0  0  0
    0.3753   -4.3169    4.9512 S   0  0  0  0  0  0  0  0  0  0  0  0
    1.2933   -2.8916    5.2207 C   0  0  0  0  0  0  0  0  0  0  0  0
    2.2788   -2.4900    6.1403 C   0  0  0  0  0  0  0  0  0  0  0  0
    2.6134   -3.2164    7.3823 C   0  0  0  0  0  0  0  0  0  0  0  0
    3.9480   -3.4485    7.7422 C   0  0  0  0  0  0  0  0  0  0  0  0
    4.2571   -4.1146    8.9296 C   0  0  0  0  0  0  0  0  0  0  0  0
    3.2369   -4.5319    9.7863 C   0  0  0  0  0  0  0  0  0  0  0  0
    1.8937   -4.2870    9.4512 C   0  0  0  0  0  0  0  0  0  0  0  0
    0.7942   -4.6291   10.4253 C   0  0  0  0  0  0  0  0  0  0  0  0
    0.6378   -3.5147   11.4558 C   0  0  0  0  0  0  0  0  0  0  0  0
    1.5892   -3.6420    8.2436 C   0  0  0  0  0  0  0  0  0  0  0  0
    2.8393   -1.2538    5.7502 C   0  0  0  0  0  0  0  0  0  0  0  0
    2.0425   -0.6512    4.3825 S   0  0  0  0  0  0  0  0  0  0  0  0
    1.0654   -1.9899    4.2246 C   0  0  0  0  0  0  0  0  0  0  0  0
    0.1413   -2.4083    3.2969 C   0  0  0  0  0  0  0  0  0  0  0  0
   -0.1665   -1.9447    2.0659 N   0  0  0  0  0  0  0  0  0  0  0  0
   -0.9818   -2.9210    1.5789 C   0  0  0  0  0  0  0  0  0  0  0  0
   -1.5832   -2.9839    0.3156 C   0  0  0  0  0  0  0  0  0  0  0  0
   -1.9393   -1.9469   -0.4975 N   0  0  0  0  0  0  0  0  0  0  0  0
   -2.4407   -2.5831   -1.5786 C   0  0  0  0  0  0  0  0  0  0  0  0
   -3.0734   -2.1253   -2.7120 C   0  0  0  0  0  0  0  0  0  0  0  0
   -3.3681   -0.6325   -3.3886 S   0  0  0  0  0  0  0  0  0  0  0  0
   -2.3338   -0.5942   -0.0672 C   0  0  0  0  0  0  0  0  0  0  0  0
   -3.8250   -0.5389    0.2809 C   0  0  0  0  0  0  0  0  0  0  0  0
    0.7158   -1.0737    1.2695 C   0  0  0  0  0  0  0  0  0  0  0  0
    1.9920   -1.8220    0.8660 C   0  0  0  0  0  0  0  0  0  0  0  0
    3.8708   -0.4458    6.4054 C   0  0  0  0  0  0  0  0  0  0  0  0
    3.4368    0.5485    7.2772 C   0  0  0  0  0  0  0  0  0  0  0  0
    2.1914    0.7309    7.7504 N   0  0  0  0  0  0  0  0  0  0  0  0
    2.1885    1.9537    8.2688 N   0  0  0  0  0  0  0  0  0  0  0  0
    0.9835    2.6143    8.7429 C   0  0  0  0  0  0  0  0  0  0  0  0
    0.1546    3.0961    7.5571 C   0  0  0  0  0  0  0  0  0  0  0  0
    3.3472    2.5838    8.1027 N   0  0  0  0  0  0  0  0  0  0  0  0
    4.1467    1.6921    7.4921 C   0  0  0  0  0  0  0  0  0  0  0  0
    5.3622    1.9545    6.8582 C   0  0  0  0  0  0  0  0  0  0  0  0
    5.8886    0.9340    6.0160 C   0  0  0  0  0  0  0  0  0  0  0  0
    5.1670   -0.2879    5.8223 C   0  0  0  0  0  0  0  0  0  0  0  0
    5.7793   -1.2931    5.0505 O   0  0  0  0  0  0  0  0  0  0  0  0
    5.1433   -2.1950    4.1426 C   0  0  0  0  0  0  0  0  0  0  0  0
    7.0517    1.2449    5.2853 O   0  0  0  0  0  0  0  0  0  0  0  0
    7.5594    0.5658    4.1412 C   0  0  0  0  0  0  0  0  0  0  0  0
    5.8319    3.3578    6.7705 C   0  0  0  0  0  0  0  0  0  0  0  0
    7.1127    3.7452    6.6912 C   0  0  0  0  0  0  0  0  0  0  0  0
    8.2628    3.0775    7.3289 C   0  0  0  0  0  0  0  0  0  0  0  0
    8.3311    1.8761    7.6906 O   0  0  0  0  0  0  0  0  0  0  0  0
    9.3786    3.9885    7.2526 C   0  0  0  0  0  0  0  0  0  0  0  0
   11.0278    3.7207    7.2193 S   0  0  0  0  0  0  0  0  0  0  0  0
   11.3684    5.1309    6.3399 C   0  0  0  0  0  0  0  0  0  0  0  0
   10.1683    5.7722    5.9949 C   0  0  0  0  0  0  0  0  0  0  0  0
    9.0462    5.0983    6.5253 C   0  0  0  0  0  0  0  0  0  0  0  0
    7.6211    5.0372    6.1182 C   0  0  0  0  0  0  0  0  0  0  0  0
    7.0349    5.7735    5.1373 C   0  0  0  0  0  0  0  0  0  0  0  0
    7.6391    6.9524    4.5710 C   0  0  0  0  0  0  0  0  0  0  0  0
    8.1198    7.9039    4.1129 N   0  0  0  0  0  0  0  0  0  0  0  0
    5.8142    5.3434    4.4941 C   0  0  0  0  0  0  0  0  0  0  0  0
    4.8421    4.9670    3.9821 N   0  0  0  0  0  0  0  0  0  0  0  0
   -6.5324    1.8232   -9.4017 H   0  0  0  0  0  0  0  0  0  0  0  0
   -0.3414    1.0278  -10.4386 H   0  0  0  0  0  0  0  0  0  0  0  0
   -3.4223    3.2207  -13.8785 H   0  0  0  0  0  0  0  0  0  0  0  0
   -0.5939    1.8612  -15.3062 H   0  0  0  0  0  0  0  0  0  0  0  0
    0.0259    4.3591  -15.6140 H   0  0  0  0  0  0  0  0  0  0  0  0
   -0.1284    5.6359  -13.2843 H   0  0  0  0  0  0  0  0  0  0  0  0
    1.4541    4.4441  -11.5949 H   0  0  0  0  0  0  0  0  0  0  0  0
    2.6056    2.3958  -12.8273 H   0  0  0  0  0  0  0  0  0  0  0  0
    2.0128    2.5728  -15.4319 H   0  0  0  0  0  0  0  0  0  0  0  0
    2.5299    4.1905  -14.7710 H   0  0  0  0  0  0  0  0  0  0  0  0
    0.8150    0.7811  -13.7544 H   0  0  0  0  0  0  0  0  0  0  0  0
   -6.3226    2.5020   -6.5842 H   0  0  0  0  0  0  0  0  0  0  0  0
   -6.9626   -0.6854   -3.6001 H   0  0  0  0  0  0  0  0  0  0  0  0
   -8.0880    0.5514   -4.2662 H   0  0  0  0  0  0  0  0  0  0  0  0
   -8.1913    1.6530   -2.0258 H   0  0  0  0  0  0  0  0  0  0  0  0
   -8.6528   -0.0913   -1.8932 H   0  0  0  0  0  0  0  0  0  0  0  0
   -7.0128    0.4453   -1.3713 H   0  0  0  0  0  0  0  0  0  0  0  0
   -2.9989   -3.2387   -6.9930 H   0  0  0  0  0  0  0  0  0  0  0  0
   -3.7500   -4.8284   -8.7272 H   0  0  0  0  0  0  0  0  0  0  0  0
   -5.8530   -6.0914   -8.4394 H   0  0  0  0  0  0  0  0  0  0  0  0
   -8.1104   -6.1194   -7.3126 H   0  0  0  0  0  0  0  0  0  0  0  0
   -8.2987   -5.4438   -5.6675 H   0  0  0  0  0  0  0  0  0  0  0  0
   -6.6210   -7.9342   -6.4266 H   0  0  0  0  0  0  0  0  0  0  0  0
   -8.2225   -7.9264   -5.6013 H   0  0  0  0  0  0  0  0  0  0  0  0
   -6.7802   -7.2461   -4.7556 H   0  0  0  0  0  0  0  0  0  0  0  0
   -6.4865   -4.1509   -4.6364 H   0  0  0  0  0  0  0  0  0  0  0  0
    4.7620   -3.1298    7.0966 H   0  0  0  0  0  0  0  0  0  0  0  0
    5.2895   -4.2995    9.1955 H   0  0  0  0  0  0  0  0  0  0  0  0
    3.4858   -5.0122   10.7276 H   0  0  0  0  0  0  0  0  0  0  0  0
   -0.1725   -4.7773    9.8909 H   0  0  0  0  0  0  0  0  0  0  0  0
    1.0219   -5.5827   10.9442 H   0  0  0  0  0  0  0  0  0  0  0  0
    1.5630   -3.4124   12.0587 H   0  0  0  0  0  0  0  0  0  0  0  0
   -0.2049   -3.7565   12.1384 H   0  0  0  0  0  0  0  0  0  0  0  0
    0.4144   -2.5530   10.9445 H   0  0  0  0  0  0  0  0  0  0  0  0
    0.5566   -3.4242    7.9987 H   0  0  0  0  0  0  0  0  0  0  0  0
   -1.7969   -0.2883    0.8487 H   0  0  0  0  0  0  0  0  0  0  0  0
   -2.0952    0.1448   -0.8626 H   0  0  0  0  0  0  0  0  0  0  0  0
   -4.0873    0.4750    0.6504 H   0  0  0  0  0  0  0  0  0  0  0  0
   -4.0381   -1.2723    1.0873 H   0  0  0  0  0  0  0  0  0  0  0  0
   -4.4547   -0.7565   -0.6037 H   0  0  0  0  0  0  0  0  0  0  0  0
    0.2489   -0.7439    0.3270 H   0  0  0  0  0  0  0  0  0  0  0  0
    0.9770   -0.1542    1.8348 H   0  0  0  0  0  0  0  0  0  0  0  0
    2.6239   -1.1691    0.2314 H   0  0  0  0  0  0  0  0  0  0  0  0
    2.5862   -2.1194    1.7551 H   0  0  0  0  0  0  0  0  0  0  0  0
    1.7292   -2.7419    0.3073 H   0  0  0  0  0  0  0  0  0  0  0  0
    1.2600    3.4874    9.3805 H   0  0  0  0  0  0  0  0  0  0  0  0
    0.3858    1.9129    9.3697 H   0  0  0  0  0  0  0  0  0  0  0  0
    0.7577    3.7981    6.9386 H   0  0  0  0  0  0  0  0  0  0  0  0
   -0.1484    2.2320    6.9309 H   0  0  0  0  0  0  0  0  0  0  0  0
   -0.7572    3.6200    7.9205 H   0  0  0  0  0  0  0  0  0  0  0  0
    4.4681   -1.6531    3.4490 H   0  0  0  0  0  0  0  0  0  0  0  0
    5.9154   -2.6757    3.5248 H   0  0  0  0  0  0  0  0  0  0  0  0
    4.5946   -2.9854    4.6936 H   0  0  0  0  0  0  0  0  0  0  0  0
    6.7541    0.4367    3.3801 H   0  0  0  0  0  0  0  0  0  0  0  0
    8.3537    1.1911    3.6857 H   0  0  0  0  0  0  0  0  0  0  0  0
    7.9993   -0.4208    4.4116 H   0  0  0  0  0  0  0  0  0  0  0  0
    5.0687    4.1135    6.6282 H   0  0  0  0  0  0  0  0  0  0  0  0
   12.3440    5.3994    5.9806 H   0  0  0  0  0  0  0  0  0  0  0  0
   10.1188    6.6143    5.3258 H   0  0  0  0  0  0  0  0  0  0  0  0
  1  2  2  3
  2  3  1  0
  3  4  2  0
  3  5  1  0
  5  6  2  0
  6  7  1  0
  7  8  2  0
  8  9  1  0
  9 10  2  0
 10 11  1  0
 11 12  2  3
 12 13  1  0
 13 14  3  0
 12 15  1  0
 15 16  3  0
  8 17  1  0
 17 18  1  0
 18 19  1  0
 19 20  2  0
 20 21  1  0
 21 22  1  0
 21 23  1  0
  1 24  1  0
 24 25  2  0
 25 26  1  0
 26 27  1  0
 27 28  1  0
 28 29  1  0
 26 30  2  0
 30 31  1  0
 30 32  1  0
 32 33  2  0
 33 34  1  0
 34 35  2  0
 35 36  1  0
 36 37  2  0
 37 38  1  0
 38 39  1  0
 39 40  1  0
 38 41  2  0
 33 42  1  0
 42 43  1  0
 43 44  1  0
 44 45  1  0
 45 46  1  0
 46 47  1  0
 47 48  2  0
 48 49  1  0
 49 50  1  0
 47 51  1  0
 51 52  1  0
 52 53  1  0
 53 54  1  0
 54 55  1  0
 55 56  1  0
 56 57  2  0
 57 58  1  0
 58 59  2  0
 59 60  1  0
 60 61  1  0
 61 62  1  0
 60 63  2  0
 55 64  2  0
 64 65  1  0
 65 66  1  0
 66 67  1  0
 67 68  1  0
 68 69  1  0
 69 70  1  0
 70 71  1  0
 71 72  1  0
 72 73  1  0
 73 74  1  0
 71 75  1  0
 75 76  1  0
 68 77  1  0
 77 78  1  0
 64 79  1  0
 79 80  1  0
 80 81  2  0
 81 82  1  0
 82 83  1  0
 83 84  1  0
 82 85  1  0
 85 86  2  0
 86 87  1  0
 87 88  2  0
 88 89  1  0
 89 90  1  0
 90 91  1  0
 88 92  1  0
 92 93  1  0
 87 94  1  0
 94 95  2  3
 95 96  1  0
 96 97  2  0
 96 98  1  0
 98 99  1  0
 99100  1  0
100101  2  0
101102  1  0
102103  1  0
103104  2  3
104105  1  0
105106  3  0
104107  1  0
107108  3  0
 11  2  1  0
 23 17  1  0
 31 24  1  0
 74 32  1  0
 89 79  2  0
103 95  1  0
 10  5  1  0
 22 18  1  0
 41 34  1  0
 73 42  2  0
 86 80  1  0
102 98  2  0
 23  7  1  0
 72 44  2  0
 70 45  2  0
 50 46  2  0
 69 51  2  0
 67 52  2  0
 66 54  2  0
 63 56  1  0
  1109  1  0
  6110  1  0
  9111  1  0
 17112  1  0
 18113  1  0
 19114  1  0
 20115  1  0
 21116  1  0
 22117  1  0
 22118  1  0
 23119  1  0
 25120  1  0
 28121  1  0
 28122  1  0
 29123  1  0
 29124  1  0
 29125  1  0
 35126  1  0
 36127  1  0
 37128  1  0
 39129  1  0
 39130  1  0
 40131  1  0
 40132  1  0
 40133  1  0
 41134  1  0
 57135  1  0
 58136  1  0
 59137  1  0
 61138  1  0
 61139  1  0
 62140  1  0
 62141  1  0
 62142  1  0
 63143  1  0
 75144  1  0
 75145  1  0
 76146  1  0
 76147  1  0
 76148  1  0
 77149  1  0
 77150  1  0
 78151  1  0
 78152  1  0
 78153  1  0
 83154  1  0
 83155  1  0
 84156  1  0
 84157  1  0
 84158  1  0
 91159  1  0
 91160  1  0
 91161  1  0
 93162  1  0
 93163  1  0
 93164  1  0
 94165  1  0
100166  1  0
101167  1  0
M  END

