
     RDKit          3D

155174  0  0  0  0  0  0  0  0999 V2000
   -4.1614    6.9802   -4.9822 C   0  0  0  0  0  0  0  0  0  0  0  0
   -3.8043    7.1812   -3.6992 C   0  0  0  0  0  0  0  0  0  0  0  0
   -3.0916    8.3790   -3.2556 C   0  0  0  0  0  0  0  0  0  0  0  0
   -3.1488    9.5139   -3.7998 O   0  0  0  0  0  0  0  0  0  0  0  0
   -2.2138    8.0093   -2.1542 C   0  0  0  0  0  0  0  0  0  0  0  0
   -1.2198    8.8035   -1.5350 C   0  0  0  0  0  0  0  0  0  0  0  0
   -0.4661    8.1234   -0.5918 C   0  0  0  0  0  0  0  0  0  0  0  0
   -0.6693    6.7405   -0.2767 C   0  0  0  0  0  0  0  0  0  0  0  0
   -1.6286    5.9543   -0.8881 C   0  0  0  0  0  0  0  0  0  0  0  0
   -2.4222    6.6398   -1.8442 C   0  0  0  0  0  0  0  0  0  0  0  0
   -3.5238    6.1246   -2.6886 C   0  0  0  0  0  0  0  0  0  0  0  0
   -4.3750    5.1243   -2.3631 C   0  0  0  0  0  0  0  0  0  0  0  0
   -4.0775    4.1528   -1.3427 C   0  0  0  0  0  0  0  0  0  0  0  0
   -3.8508    3.3680   -0.5218 N   0  0  0  0  0  0  0  0  0  0  0  0
   -5.7235    5.1107   -2.8676 C   0  0  0  0  0  0  0  0  0  0  0  0
   -6.8152    5.1026   -3.2566 N   0  0  0  0  0  0  0  0  0  0  0  0
    0.4665    6.7760    0.7007 C   0  0  0  0  0  0  0  0  0  0  0  0
    1.8051    6.0926    0.2851 C   0  0  0  0  0  0  0  0  0  0  0  0
    1.9736    6.1593   -1.2144 C   0  0  0  0  0  0  0  0  0  0  0  0
    2.1642    7.4429   -1.5170 C   0  0  0  0  0  0  0  0  0  0  0  0
    2.1250    8.2087   -0.2154 C   0  0  0  0  0  0  0  0  0  0  0  0
    2.7854    7.1799    0.6843 C   0  0  0  0  0  0  0  0  0  0  0  0
    0.6811    8.1899    0.3731 C   0  0  0  0  0  0  0  0  0  0  0  0
   -4.0269    5.6527   -5.5972 C   0  0  0  0  0  0  0  0  0  0  0  0
   -5.0544    4.7791   -5.9174 C   0  0  0  0  0  0  0  0  0  0  0  0
   -4.6248    3.4501   -6.0963 C   0  0  0  0  0  0  0  0  0  0  0  0
   -5.8241    2.1229   -6.2597 S   0  0  0  0  0  0  0  0  0  0  0  0
   -5.7778    1.6582   -4.4962 C   0  0  0  0  0  0  0  0  0  0  0  0
   -6.6955    0.4666   -4.2590 C   0  0  0  0  0  0  0  0  0  0  0  0
   -3.2323    3.2858   -5.9875 C   0  0  0  0  0  0  0  0  0  0  0  0
   -2.5934    4.7940   -5.6117 S   0  0  0  0  0  0  0  0  0  0  0  0
   -2.4666    2.0530   -5.7054 C   0  0  0  0  0  0  0  0  0  0  0  0
   -2.6075    0.7503   -6.2468 C   0  0  0  0  0  0  0  0  0  0  0  0
   -3.4841    0.3670   -7.3701 C   0  0  0  0  0  0  0  0  0  0  0  0
   -3.5526    1.1561   -8.5265 C   0  0  0  0  0  0  0  0  0  0  0  0
   -4.4267    0.8148   -9.5625 C   0  0  0  0  0  0  0  0  0  0  0  0
   -5.2421   -0.3152   -9.4505 C   0  0  0  0  0  0  0  0  0  0  0  0
   -5.1888   -1.1101   -8.2966 C   0  0  0  0  0  0  0  0  0  0  0  0
   -6.0511   -2.3361   -8.1677 C   0  0  0  0  0  0  0  0  0  0  0  0
   -5.2850   -3.5842   -8.5938 C   0  0  0  0  0  0  0  0  0  0  0  0
   -4.2984   -0.7723   -7.2667 C   0  0  0  0  0  0  0  0  0  0  0  0
   -1.7871   -0.1573   -5.5599 C   0  0  0  0  0  0  0  0  0  0  0  0
   -1.5014   -1.8403   -5.6894 S   0  0  0  0  0  0  0  0  0  0  0  0
   -0.4403   -1.7891   -4.3605 C   0  0  0  0  0  0  0  0  0  0  0  0
    0.4323   -2.5933   -3.6881 C   0  0  0  0  0  0  0  0  0  0  0  0
    0.8265   -3.9220   -3.8830 C   0  0  0  0  0  0  0  0  0  0  0  0
    1.8807   -4.4485   -3.0749 C   0  0  0  0  0  0  0  0  0  0  0  0
    2.2148   -5.7488   -3.2765 N   0  0  0  0  0  0  0  0  0  0  0  0
    1.1540   -6.1270   -4.4929 S   0  0  0  0  0  0  0  0  0  0  0  0
    0.2708   -4.7578   -4.7939 N   0  0  0  0  0  0  0  0  0  0  0  0
    2.4623   -3.6254   -2.0977 C   0  0  0  0  0  0  0  0  0  0  0  0
    3.2493   -3.9402   -1.0227 C   0  0  0  0  0  0  0  0  0  0  0  0
    3.7449   -5.3854   -0.2734 S   0  0  0  0  0  0  0  0  0  0  0  0
    3.8911   -4.6043    1.2347 C   0  0  0  0  0  0  0  0  0  0  0  0
    4.0473   -5.0869    2.5399 C   0  0  0  0  0  0  0  0  0  0  0  0
    4.4497   -6.4724    2.8624 C   0  0  0  0  0  0  0  0  0  0  0  0
    3.7275   -7.2448    3.7854 C   0  0  0  0  0  0  0  0  0  0  0  0
    4.1329   -8.5469    4.0828 C   0  0  0  0  0  0  0  0  0  0  0  0
    5.2689   -9.0888    3.4744 C   0  0  0  0  0  0  0  0  0  0  0  0
    6.0103   -8.3257    2.5611 C   0  0  0  0  0  0  0  0  0  0  0  0
    7.2257   -8.9081    1.8891 C   0  0  0  0  0  0  0  0  0  0  0  0
    6.8318   -9.7684    0.6918 C   0  0  0  0  0  0  0  0  0  0  0  0
    5.5812   -7.0266    2.2409 C   0  0  0  0  0  0  0  0  0  0  0  0
    3.7396   -4.0790    3.4757 C   0  0  0  0  0  0  0  0  0  0  0  0
    3.2863   -2.6506    2.6746 S   0  0  0  0  0  0  0  0  0  0  0  0
    3.4981   -3.2948    1.1460 C   0  0  0  0  0  0  0  0  0  0  0  0
    3.1450   -2.9070   -0.1414 C   0  0  0  0  0  0  0  0  0  0  0  0
    2.3434   -1.9103   -0.5951 N   0  0  0  0  0  0  0  0  0  0  0  0
    1.9977   -2.3242   -1.8551 C   0  0  0  0  0  0  0  0  0  0  0  0
    1.0382   -1.7639   -2.7330 C   0  0  0  0  0  0  0  0  0  0  0  0
    0.6445   -0.4568   -2.8813 N   0  0  0  0  0  0  0  0  0  0  0  0
   -0.2889   -0.5377   -3.8607 C   0  0  0  0  0  0  0  0  0  0  0  0
   -1.0329    0.3931   -4.5583 C   0  0  0  0  0  0  0  0  0  0  0  0
   -1.3222    2.0226   -4.4407 S   0  0  0  0  0  0  0  0  0  0  0  0
    1.4627    0.7407   -2.6180 C   0  0  0  0  0  0  0  0  0  0  0  0
    0.6890    1.8155   -1.8378 C   0  0  0  0  0  0  0  0  0  0  0  0
    1.5333   -1.0536    0.2829 C   0  0  0  0  0  0  0  0  0  0  0  0
    0.3085   -1.8049    0.8031 C   0  0  0  0  0  0  0  0  0  0  0  0
    3.5636   -4.2297    4.9245 C   0  0  0  0  0  0  0  0  0  0  0  0
    4.6414   -4.0114    5.8002 C   0  0  0  0  0  0  0  0  0  0  0  0
    4.4310   -3.9092    7.1861 C   0  0  0  0  0  0  0  0  0  0  0  0
    5.4849   -3.6448    7.9996 F   0  0  0  0  0  0  0  0  0  0  0  0
    3.1331   -4.0133    7.7222 C   0  0  0  0  0  0  0  0  0  0  0  0
    2.0622   -4.2996    6.8611 C   0  0  0  0  0  0  0  0  0  0  0  0
    2.2770   -4.3928    5.4568 C   0  0  0  0  0  0  0  0  0  0  0  0
    1.1768   -4.6103    4.6874 N   0  0  0  0  0  0  0  0  0  0  0  0
    0.0067   -4.6879    5.8533 S   0  0  0  0  0  0  0  0  0  0  0  0
    0.7808   -4.4492    7.2933 N   0  0  0  0  0  0  0  0  0  0  0  0
    2.9027   -3.7483    9.1551 C   0  0  0  0  0  0  0  0  0  0  0  0
    2.2488   -2.6514    9.5907 C   0  0  0  0  0  0  0  0  0  0  0  0
    1.6491   -1.6106    8.7384 C   0  0  0  0  0  0  0  0  0  0  0  0
    1.9111   -1.3864    7.5261 O   0  0  0  0  0  0  0  0  0  0  0  0
    0.7015   -0.8638    9.5351 C   0  0  0  0  0  0  0  0  0  0  0  0
   -0.1894    0.1254    9.1187 C   0  0  0  0  0  0  0  0  0  0  0  0
   -1.0958    0.6452   10.0524 C   0  0  0  0  0  0  0  0  0  0  0  0
   -1.9654    1.6123    9.6755 F   0  0  0  0  0  0  0  0  0  0  0  0
   -1.1198    0.1464   11.3691 C   0  0  0  0  0  0  0  0  0  0  0  0
   -2.0304    0.6245   12.2540 F   0  0  0  0  0  0  0  0  0  0  0  0
   -0.2185   -0.8561   11.7663 C   0  0  0  0  0  0  0  0  0  0  0  0
    0.7188   -1.3357   10.8380 C   0  0  0  0  0  0  0  0  0  0  0  0
    1.7787   -2.3752   10.9804 C   0  0  0  0  0  0  0  0  0  0  0  0
    2.3832   -2.7643   12.1301 C   0  0  0  0  0  0  0  0  0  0  0  0
    1.9348   -2.3210   13.4260 C   0  0  0  0  0  0  0  0  0  0  0  0
    1.5878   -1.9734   14.4748 N   0  0  0  0  0  0  0  0  0  0  0  0
    3.6204   -3.5067   12.1273 C   0  0  0  0  0  0  0  0  0  0  0  0
    4.6174   -4.0913   12.1336 N   0  0  0  0  0  0  0  0  0  0  0  0
   -4.2226    7.8276   -5.6535 H   0  0  0  0  0  0  0  0  0  0  0  0
   -1.0406    9.8393   -1.7938 H   0  0  0  0  0  0  0  0  0  0  0  0
   -1.7061    4.9028   -0.6703 H   0  0  0  0  0  0  0  0  0  0  0  0
    0.1593    6.6002    1.7548 H   0  0  0  0  0  0  0  0  0  0  0  0
    1.9911    5.0936    0.7330 H   0  0  0  0  0  0  0  0  0  0  0  0
    1.9936    5.3278   -1.9117 H   0  0  0  0  0  0  0  0  0  0  0  0
    2.3690    7.8384   -2.5072 H   0  0  0  0  0  0  0  0  0  0  0  0
    2.6113    9.2051   -0.2395 H   0  0  0  0  0  0  0  0  0  0  0  0
    2.7426    7.4449    1.7677 H   0  0  0  0  0  0  0  0  0  0  0  0
    3.8399    6.9527    0.3985 H   0  0  0  0  0  0  0  0  0  0  0  0
    0.5110    8.8751    1.2339 H   0  0  0  0  0  0  0  0  0  0  0  0
   -6.0964    5.0676   -5.9134 H   0  0  0  0  0  0  0  0  0  0  0  0
   -4.7452    1.3898   -4.1951 H   0  0  0  0  0  0  0  0  0  0  0  0
   -6.1246    2.5111   -3.8790 H   0  0  0  0  0  0  0  0  0  0  0  0
   -6.6712    0.1867   -3.1834 H   0  0  0  0  0  0  0  0  0  0  0  0
   -7.7374    0.7302   -4.5383 H   0  0  0  0  0  0  0  0  0  0  0  0
   -6.3555   -0.3996   -4.8651 H   0  0  0  0  0  0  0  0  0  0  0  0
   -2.9331    2.0375   -8.6299 H   0  0  0  0  0  0  0  0  0  0  0  0
   -4.4750    1.4312  -10.4520 H   0  0  0  0  0  0  0  0  0  0  0  0
   -5.9149   -0.5702  -10.2598 H   0  0  0  0  0  0  0  0  0  0  0  0
   -6.9661   -2.2362   -8.7940 H   0  0  0  0  0  0  0  0  0  0  0  0
   -6.3891   -2.4560   -7.1142 H   0  0  0  0  0  0  0  0  0  0  0  0
   -5.9412   -4.4741   -8.5031 H   0  0  0  0  0  0  0  0  0  0  0  0
   -4.3953   -3.7321   -7.9435 H   0  0  0  0  0  0  0  0  0  0  0  0
   -4.9559   -3.4905   -9.6504 H   0  0  0  0  0  0  0  0  0  0  0  0
   -4.2743   -1.3769   -6.3680 H   0  0  0  0  0  0  0  0  0  0  0  0
    2.8344   -6.8533    4.2548 H   0  0  0  0  0  0  0  0  0  0  0  0
    3.5629   -9.1433    4.7855 H   0  0  0  0  0  0  0  0  0  0  0  0
    5.5719  -10.1006    3.7224 H   0  0  0  0  0  0  0  0  0  0  0  0
    7.9046   -8.0960    1.5479 H   0  0  0  0  0  0  0  0  0  0  0  0
    7.7956   -9.5286    2.6164 H   0  0  0  0  0  0  0  0  0  0  0  0
    7.7463  -10.1627    0.2030 H   0  0  0  0  0  0  0  0  0  0  0  0
    6.2085  -10.6294    1.0282 H   0  0  0  0  0  0  0  0  0  0  0  0
    6.2614   -9.1643   -0.0487 H   0  0  0  0  0  0  0  0  0  0  0  0
    6.1437   -6.4365    1.5293 H   0  0  0  0  0  0  0  0  0  0  0  0
    2.3915    0.4705   -2.0686 H   0  0  0  0  0  0  0  0  0  0  0  0
    1.8044    1.1659   -3.5878 H   0  0  0  0  0  0  0  0  0  0  0  0
   -0.3368    1.4770   -1.5847 H   0  0  0  0  0  0  0  0  0  0  0  0
    0.6197    2.7478   -2.4385 H   0  0  0  0  0  0  0  0  0  0  0  0
    1.2251    2.0720   -0.9010 H   0  0  0  0  0  0  0  0  0  0  0  0
    1.1763   -0.1668   -0.2445 H   0  0  0  0  0  0  0  0  0  0  0  0
    2.1466   -0.6803    1.1286 H   0  0  0  0  0  0  0  0  0  0  0  0
   -0.3515   -2.0813   -0.0463 H   0  0  0  0  0  0  0  0  0  0  0  0
   -0.2575   -1.1550    1.5032 H   0  0  0  0  0  0  0  0  0  0  0  0
    0.6068   -2.7301    1.3365 H   0  0  0  0  0  0  0  0  0  0  0  0
    5.6367   -3.8606    5.4012 H   0  0  0  0  0  0  0  0  0  0  0  0
    3.2056   -4.5197    9.8399 H   0  0  0  0  0  0  0  0  0  0  0  0
   -0.1908    0.4742    8.0939 H   0  0  0  0  0  0  0  0  0  0  0  0
   -0.2951   -1.2603   12.7620 H   0  0  0  0  0  0  0  0  0  0  0  0
  1  2  2  3
  2  3  1  0
  3  4  2  0
  3  5  1  0
  5  6  2  0
  6  7  1  0
  7  8  2  0
  8  9  1  0
  9 10  2  0
 10 11  1  0
 11 12  2  3
 12 13  1  0
 13 14  3  0
 12 15  1  0
 15 16  3  0
  8 17  1  0
 17 18  1  0
 18 19  1  0
 19 20  2  0
 20 21  1  0
 21 22  1  0
 21 23  1  0
  1 24  1  0
 24 25  2  0
 25 26  1  0
 26 27  1  0
 27 28  1  0
 28 29  1  0
 26 30  2  0
 30 31  1  0
 30 32  1  0
 32 33  2  0
 33 34  1  0
 34 35  2  0
 35 36  1  0
 36 37  2  0
 37 38  1  0
 38 39  1  0
 39 40  1  0
 38 41  2  0
 33 42  1  0
 42 43  1  0
 43 44  1  0
 44 45  1  0
 45 46  1  0
 46 47  1  0
 47 48  2  0
 48 49  1  0
 49 50  1  0
 47 51  1  0
 51 52  1  0
 52 53  1  0
 53 54  1  0
 54 55  1  0
 55 56  1  0
 56 57  2  0
 57 58  1  0
 58 59  2  0
 59 60  1  0
 60 61  1  0
 61 62  1  0
 60 63  2  0
 55 64  2  0
 64 65  1  0
 65 66  1  0
 66 67  1  0
 67 68  1  0
 68 69  1  0
 69 70  1  0
 70 71  1  0
 71 72  1  0
 72 73  1  0
 73 74  1  0
 71 75  1  0
 75 76  1  0
 68 77  1  0
 77 78  1  0
 64 79  1  0
 79 80  2  0
 80 81  1  0
 81 82  1  0
 81 83  2  0
 83 84  1  0
 84 85  1  0
 85 86  2  0
 86 87  1  0
 87 88  1  0
 83 89  1  0
 89 90  2  3
 90 91  1  0
 91 92  2  0
 91 93  1  0
 93 94  2  0
 94 95  1  0
 95 96  1  0
 95 97  2  0
 97 98  1  0
 97 99  1  0
 99100  2  0
100101  1  0
101102  2  3
102103  1  0
103104  3  0
102105  1  0
105106  3  0
 11  2  1  0
 23 17  1  0
 31 24  1  0
 74 32  1  0
 85 79  1  0
101 90  1  0
 10  5  1  0
 22 18  1  0
 41 34  1  0
 73 42  2  0
 88 84  2  0
100 93  1  0
 23  7  1  0
 72 44  2  0
 70 45  2  0
 50 46  2  0
 69 51  2  0
 67 52  2  0
 66 54  2  0
 63 56  1  0
  1107  1  0
  6108  1  0
  9109  1  0
 17110  1  0
 18111  1  0
 19112  1  0
 20113  1  0
 21114  1  0
 22115  1  0
 22116  1  0
 23117  1  0
 25118  1  0
 28119  1  0
 28120  1  0
 29121  1  0
 29122  1  0
 29123  1  0
 35124  1  0
 36125  1  0
 37126  1  0
 39127  1  0
 39128  1  0
 40129  1  0
 40130  1  0
 40131  1  0
 41132  1  0
 57133  1  0
 58134  1  0
 59135  1  0
 61136  1  0
 61137  1  0
 62138  1  0
 62139  1  0
 62140  1  0
 63141  1  0
 75142  1  0
 75143  1  0
 76144  1  0
 76145  1  0
 76146  1  0
 77147  1  0
 77148  1  0
 78149  1  0
 78150  1  0
 78151  1  0
 80152  1  0
 89153  1  0
 94154  1  0
 99155  1  0
M  END

