
     RDKit          3D

232258  0  0  0  0  0  0  0  0999 V2000
   -1.4749   -2.5149   11.9513 C   0  0  0  0  0  0  0  0  0  0  0  0
   -0.2360   -2.5405   12.4748 C   0  0  0  0  0  0  0  0  0  0  0  0
    0.0188   -2.9221   13.8637 C   0  0  0  0  0  0  0  0  0  0  0  0
   -0.8278   -2.9246   14.7971 O   0  0  0  0  0  0  0  0  0  0  0  0
    1.3879   -3.3790   13.9686 C   0  0  0  0  0  0  0  0  0  0  0  0
    2.0085   -3.9874   15.0822 C   0  0  0  0  0  0  0  0  0  0  0  0
    3.2903   -4.4435   14.8259 C   0  0  0  0  0  0  0  0  0  0  0  0
    3.9302   -4.3076   13.5509 C   0  0  0  0  0  0  0  0  0  0  0  0
    3.3276   -3.7146   12.4547 C   0  0  0  0  0  0  0  0  0  0  0  0
    2.0204   -3.2196   12.7051 C   0  0  0  0  0  0  0  0  0  0  0  0
    1.0838   -2.5341   11.7784 C   0  0  0  0  0  0  0  0  0  0  0  0
    1.4442   -1.6920   10.7769 C   0  0  0  0  0  0  0  0  0  0  0  0
    0.5339   -0.7014   10.2548 C   0  0  0  0  0  0  0  0  0  0  0  0
   -0.1911    0.0960    9.8329 N   0  0  0  0  0  0  0  0  0  0  0  0
    2.7889   -1.6250   10.2709 C   0  0  0  0  0  0  0  0  0  0  0  0
    3.8668   -1.5598    9.8541 N   0  0  0  0  0  0  0  0  0  0  0  0
    5.1393   -5.0328   14.0650 C   0  0  0  0  0  0  0  0  0  0  0  0
    5.3534   -6.5091   13.6083 C   0  0  0  0  0  0  0  0  0  0  0  0
    4.0169   -7.1661   13.3499 C   0  0  0  0  0  0  0  0  0  0  0  0
    3.4180   -7.2905   14.5357 C   0  0  0  0  0  0  0  0  0  0  0  0
    4.3658   -6.7128   15.5609 C   0  0  0  0  0  0  0  0  0  0  0  0
    5.6793   -7.1523   14.9438 C   0  0  0  0  0  0  0  0  0  0  0  0
    4.4834   -5.1707   15.3701 C   0  0  0  0  0  0  0  0  0  0  0  0
   -1.7945   -2.6335   10.5189 C   0  0  0  0  0  0  0  0  0  0  0  0
   -2.9259   -2.1010    9.9187 C   0  0  0  0  0  0  0  0  0  0  0  0
   -3.0174   -2.3650    8.5463 C   0  0  0  0  0  0  0  0  0  0  0  0
   -4.3988   -1.7387    7.5746 S   0  0  0  0  0  0  0  0  0  0  0  0
   -3.8982    0.0230    7.6345 C   0  0  0  0  0  0  0  0  0  0  0  0
   -2.6982    0.3151    6.7430 C   0  0  0  0  0  0  0  0  0  0  0  0
   -1.9837   -3.1832    8.0568 C   0  0  0  0  0  0  0  0  0  0  0  0
   -0.9560   -3.5186    9.3580 S   0  0  0  0  0  0  0  0  0  0  0  0
   -1.7671   -3.6384    6.6569 C   0  0  0  0  0  0  0  0  0  0  0  0
   -1.0319   -4.7735    6.2137 C   0  0  0  0  0  0  0  0  0  0  0  0
   -0.4371   -5.8546    7.0794 C   0  0  0  0  0  0  0  0  0  0  0  0
   -1.5270   -6.6873    7.7443 C   0  0  0  0  0  0  0  0  0  0  0  0
   -0.9125   -4.7832    4.8194 C   0  0  0  0  0  0  0  0  0  0  0  0
    0.0240   -5.7010    3.7136 S   0  0  0  0  0  0  0  0  0  0  0  0
   -0.4075   -4.6630    2.4370 C   0  0  0  0  0  0  0  0  0  0  0  0
   -0.0695   -4.3930    1.1360 C   0  0  0  0  0  0  0  0  0  0  0  0
    0.7390   -5.0729    0.2135 C   0  0  0  0  0  0  0  0  0  0  0  0
    1.2919   -6.2770    0.4903 N   0  0  0  0  0  0  0  0  0  0  0  0
    2.0929   -6.9275   -0.4008 C   0  0  0  0  0  0  0  0  0  0  0  0
    2.5605   -8.2885   -0.0222 C   0  0  0  0  0  0  0  0  0  0  0  0
    3.8932   -9.1416   -0.6151 S   0  0  0  0  0  0  0  0  0  0  0  0
    3.6946  -10.5095    0.3370 C   0  0  0  0  0  0  0  0  0  0  0  0
    4.5887  -11.7132    0.3191 C   0  0  0  0  0  0  0  0  0  0  0  0
    5.3687  -11.8352    1.6243 C   0  0  0  0  0  0  0  0  0  0  0  0
    2.5769  -10.3199    1.1386 C   0  0  0  0  0  0  0  0  0  0  0  0
    1.9555   -9.0793    0.9524 C   0  0  0  0  0  0  0  0  0  0  0  0
    2.1306  -11.2361    2.0323 F   0  0  0  0  0  0  0  0  0  0  0  0
    2.3700   -6.2944   -1.6461 C   0  0  0  0  0  0  0  0  0  0  0  0
    3.2639   -6.8610   -2.6614 C   0  0  0  0  0  0  0  0  0  0  0  0
    4.6516   -6.8275   -2.6270 C   0  0  0  0  0  0  0  0  0  0  0  0
    5.2416   -7.3642   -3.7724 C   0  0  0  0  0  0  0  0  0  0  0  0
    6.5824   -7.4544   -3.9328 F   0  0  0  0  0  0  0  0  0  0  0  0
    4.3230   -7.7821   -4.7346 C   0  0  0  0  0  0  0  0  0  0  0  0
    4.6838   -8.3073   -6.0942 C   0  0  0  0  0  0  0  0  0  0  0  0
    3.5835   -9.1707   -6.7057 C   0  0  0  0  0  0  0  0  0  0  0  0
    2.7700   -7.4595   -4.1554 S   0  0  0  0  0  0  0  0  0  0  0  0
    1.7825   -5.1007   -1.9299 N   0  0  0  0  0  0  0  0  0  0  0  0
    0.9603   -4.4848   -1.0474 C   0  0  0  0  0  0  0  0  0  0  0  0
    0.3744   -3.2378   -1.3246 C   0  0  0  0  0  0  0  0  0  0  0  0
    0.6435   -2.3371   -2.3214 C   0  0  0  0  0  0  0  0  0  0  0  0
    1.8380   -2.1492   -3.5245 S   0  0  0  0  0  0  0  0  0  0  0  0
    1.5813   -0.4629   -3.5811 C   0  0  0  0  0  0  0  0  0  0  0  0
    2.1977    0.6029   -4.2561 C   0  0  0  0  0  0  0  0  0  0  0  0
    3.3152    0.4292   -5.2447 C   0  0  0  0  0  0  0  0  0  0  0  0
    4.6513    0.8414   -4.6394 C   0  0  0  0  0  0  0  0  0  0  0  0
    1.6917    1.8404   -3.7960 C   0  0  0  0  0  0  0  0  0  0  0  0
    0.4919    1.5557   -2.6196 S   0  0  0  0  0  0  0  0  0  0  0  0
    0.6397   -0.0952   -2.6586 C   0  0  0  0  0  0  0  0  0  0  0  0
    0.1083   -1.1486   -1.9326 C   0  0  0  0  0  0  0  0  0  0  0  0
   -0.4842   -1.2019   -0.7119 N   0  0  0  0  0  0  0  0  0  0  0  0
   -0.5148   -0.0669    0.2275 C   0  0  0  0  0  0  0  0  0  0  0  0
   -1.6898    0.8729   -0.0582 C   0  0  0  0  0  0  0  0  0  0  0  0
   -0.3864   -2.5305   -0.3787 C   0  0  0  0  0  0  0  0  0  0  0  0
   -0.6884   -3.1703    0.8438 C   0  0  0  0  0  0  0  0  0  0  0  0
   -1.4742   -2.7508    1.8847 N   0  0  0  0  0  0  0  0  0  0  0  0
   -1.2216   -3.6656    2.8444 C   0  0  0  0  0  0  0  0  0  0  0  0
   -1.5237   -3.7353    4.1888 C   0  0  0  0  0  0  0  0  0  0  0  0
   -2.2316   -2.7169    5.2967 S   0  0  0  0  0  0  0  0  0  0  0  0
   -2.6758   -1.9097    1.8327 C   0  0  0  0  0  0  0  0  0  0  0  0
   -3.9436   -2.7616    1.8589 C   0  0  0  0  0  0  0  0  0  0  0  0
    1.9803    3.2093   -4.2772 C   0  0  0  0  0  0  0  0  0  0  0  0
    1.5712    4.3389   -3.5404 C   0  0  0  0  0  0  0  0  0  0  0  0
    1.6402    4.4207   -2.0945 N   0  0  0  0  0  0  0  0  0  0  0  0
    2.6667    3.6955   -1.3828 C   0  0  0  0  0  0  0  0  0  0  0  0
    2.3596    3.0191   -0.1909 C   0  0  0  0  0  0  0  0  0  0  0  0
    3.3336    2.2497    0.4548 C   0  0  0  0  0  0  0  0  0  0  0  0
    4.6287    2.1543   -0.0803 C   0  0  0  0  0  0  0  0  0  0  0  0
    5.6874    1.3435    0.6088 C   0  0  0  0  0  0  0  0  0  0  0  0
    4.9493    2.8652   -1.2431 C   0  0  0  0  0  0  0  0  0  0  0  0
    3.9770    3.6333   -1.8896 C   0  0  0  0  0  0  0  0  0  0  0  0
    0.9716    5.4765   -1.3948 C   0  0  0  0  0  0  0  0  0  0  0  0
    1.6381    6.6826   -1.1477 C   0  0  0  0  0  0  0  0  0  0  0  0
    0.9767    7.7374   -0.5156 C   0  0  0  0  0  0  0  0  0  0  0  0
   -0.3664    7.5982   -0.1311 C   0  0  0  0  0  0  0  0  0  0  0  0
   -1.0694    8.7301    0.5577 C   0  0  0  0  0  0  0  0  0  0  0  0
   -1.0219    6.3740   -0.3400 C   0  0  0  0  0  0  0  0  0  0  0  0
   -0.3594    5.3193   -0.9791 C   0  0  0  0  0  0  0  0  0  0  0  0
    1.1268    5.3668   -4.3787 C   0  0  0  0  0  0  0  0  0  0  0  0
   -0.2711    6.2835   -4.2269 S   0  0  0  0  0  0  0  0  0  0  0  0
   -0.5403    6.4721   -5.8939 C   0  0  0  0  0  0  0  0  0  0  0  0
    0.5251    5.8680   -6.5881 C   0  0  0  0  0  0  0  0  0  0  0  0
    0.8642    6.0771   -7.9800 N   0  0  0  0  0  0  0  0  0  0  0  0
   -0.1356    6.4378   -8.9451 C   0  0  0  0  0  0  0  0  0  0  0  0
   -1.0444    5.4851   -9.4133 C   0  0  0  0  0  0  0  0  0  0  0  0
   -2.0415    5.8534  -10.3245 C   0  0  0  0  0  0  0  0  0  0  0  0
   -2.1366    7.1789  -10.7714 C   0  0  0  0  0  0  0  0  0  0  0  0
   -3.2043    7.5806  -11.7467 C   0  0  0  0  0  0  0  0  0  0  0  0
   -1.2016    8.1263  -10.3289 C   0  0  0  0  0  0  0  0  0  0  0  0
   -0.2047    7.7554   -9.4218 C   0  0  0  0  0  0  0  0  0  0  0  0
    2.2485    6.2938   -8.3268 C   0  0  0  0  0  0  0  0  0  0  0  0
    3.0539    7.1456   -7.5499 C   0  0  0  0  0  0  0  0  0  0  0  0
    4.3848    7.3809   -7.9017 C   0  0  0  0  0  0  0  0  0  0  0  0
    4.9267    6.7793   -9.0482 C   0  0  0  0  0  0  0  0  0  0  0  0
    6.3638    7.0165   -9.4138 C   0  0  0  0  0  0  0  0  0  0  0  0
    4.1314    5.9131   -9.8148 C   0  0  0  0  0  0  0  0  0  0  0  0
    2.7966    5.6794   -9.4636 C   0  0  0  0  0  0  0  0  0  0  0  0
    1.3688    5.1733   -5.7113 C   0  0  0  0  0  0  0  0  0  0  0  0
    1.9840    3.6234   -5.9228 S   0  0  0  0  0  0  0  0  0  0  0  0
   -1.8422    6.8637   -6.4613 C   0  0  0  0  0  0  0  0  0  0  0  0
   -3.0184    6.3236   -6.0724 C   0  0  0  0  0  0  0  0  0  0  0  0
   -4.3127    6.9458   -6.3530 C   0  0  0  0  0  0  0  0  0  0  0  0
   -4.5365    7.8193   -7.2347 O   0  0  0  0  0  0  0  0  0  0  0  0
   -5.2804    6.4545   -5.3939 C   0  0  0  0  0  0  0  0  0  0  0  0
   -6.6501    6.8018   -5.2907 C   0  0  0  0  0  0  0  0  0  0  0  0
   -7.3092    6.1738   -4.2482 C   0  0  0  0  0  0  0  0  0  0  0  0
   -6.6575    5.2824   -3.3325 C   0  0  0  0  0  0  0  0  0  0  0  0
   -5.3219    4.9336   -3.4323 C   0  0  0  0  0  0  0  0  0  0  0  0
   -4.6387    5.5282   -4.5303 C   0  0  0  0  0  0  0  0  0  0  0  0
   -3.2658    5.2732   -5.0375 C   0  0  0  0  0  0  0  0  0  0  0  0
   -2.6305    4.0759   -4.9544 C   0  0  0  0  0  0  0  0  0  0  0  0
   -2.9112    3.1047   -3.9285 C   0  0  0  0  0  0  0  0  0  0  0  0
   -3.1151    2.3098   -3.1069 N   0  0  0  0  0  0  0  0  0  0  0  0
   -1.7759    3.6037   -6.0078 C   0  0  0  0  0  0  0  0  0  0  0  0
   -1.1008    3.1909   -6.8512 N   0  0  0  0  0  0  0  0  0  0  0  0
   -7.9445    5.0833   -2.5885 C   0  0  0  0  0  0  0  0  0  0  0  0
   -8.6570    3.7157   -2.7972 C   0  0  0  0  0  0  0  0  0  0  0  0
  -10.0709    3.9053   -2.2998 C   0  0  0  0  0  0  0  0  0  0  0  0
  -10.6795    4.7083   -3.1796 C   0  0  0  0  0  0  0  0  0  0  0  0
   -9.6534    5.0396   -4.2347 C   0  0  0  0  0  0  0  0  0  0  0  0
   -8.9339    3.7026   -4.2902 C   0  0  0  0  0  0  0  0  0  0  0  0
   -8.6164    5.9733   -3.5389 C   0  0  0  0  0  0  0  0  0  0  0  0
   -2.3195   -2.4919   12.6293 H   0  0  0  0  0  0  0  0  0  0  0  0
    1.5166   -4.1219   16.0360 H   0  0  0  0  0  0  0  0  0  0  0  0
    3.8117   -3.6926   11.4895 H   0  0  0  0  0  0  0  0  0  0  0  0
    6.0601   -4.4094   14.0880 H   0  0  0  0  0  0  0  0  0  0  0  0
    6.1111   -6.6532   12.8114 H   0  0  0  0  0  0  0  0  0  0  0  0
    3.6390   -7.5368   12.4038 H   0  0  0  0  0  0  0  0  0  0  0  0
    2.4653   -7.7744   14.7172 H   0  0  0  0  0  0  0  0  0  0  0  0
    4.1901   -7.0472   16.6038 H   0  0  0  0  0  0  0  0  0  0  0  0
    6.5730   -6.7138   15.4443 H   0  0  0  0  0  0  0  0  0  0  0  0
    5.7879   -8.2614   14.8859 H   0  0  0  0  0  0  0  0  0  0  0  0
    5.0040   -4.6271   16.1902 H   0  0  0  0  0  0  0  0  0  0  0  0
   -3.6565   -1.5179   10.4642 H   0  0  0  0  0  0  0  0  0  0  0  0
   -4.7574    0.6330    7.2849 H   0  0  0  0  0  0  0  0  0  0  0  0
   -3.6747    0.3309    8.6762 H   0  0  0  0  0  0  0  0  0  0  0  0
   -2.4413    1.3944    6.8067 H   0  0  0  0  0  0  0  0  0  0  0  0
   -2.9390    0.0716    5.6870 H   0  0  0  0  0  0  0  0  0  0  0  0
   -1.8167   -0.2713    7.0740 H   0  0  0  0  0  0  0  0  0  0  0  0
    0.1910   -6.5340    6.4610 H   0  0  0  0  0  0  0  0  0  0  0  0
    0.2394   -5.4179    7.8385 H   0  0  0  0  0  0  0  0  0  0  0  0
   -2.1470   -6.0604    8.4176 H   0  0  0  0  0  0  0  0  0  0  0  0
   -2.1794   -7.1463    6.9708 H   0  0  0  0  0  0  0  0  0  0  0  0
   -1.0624   -7.4972    8.3435 H   0  0  0  0  0  0  0  0  0  0  0  0
    5.3089  -11.6288   -0.5247 H   0  0  0  0  0  0  0  0  0  0  0  0
    3.9794  -12.6300    0.1599 H   0  0  0  0  0  0  0  0  0  0  0  0
    4.6744  -12.0226    2.4717 H   0  0  0  0  0  0  0  0  0  0  0  0
    6.0793  -12.6860    1.5559 H   0  0  0  0  0  0  0  0  0  0  0  0
    5.9453  -10.9057    1.8207 H   0  0  0  0  0  0  0  0  0  0  0  0
    1.0786   -8.7752    1.5128 H   0  0  0  0  0  0  0  0  0  0  0  0
    5.2172   -6.4417   -1.7866 H   0  0  0  0  0  0  0  0  0  0  0  0
    4.9040   -7.4522   -6.7692 H   0  0  0  0  0  0  0  0  0  0  0  0
    5.6046   -8.9224   -6.0074 H   0  0  0  0  0  0  0  0  0  0  0  0
    2.6857   -8.5543   -6.9253 H   0  0  0  0  0  0  0  0  0  0  0  0
    3.3083   -9.9970   -6.0159 H   0  0  0  0  0  0  0  0  0  0  0  0
    3.9460   -9.6124   -7.6571 H   0  0  0  0  0  0  0  0  0  0  0  0
    3.3738   -0.6324   -5.5636 H   0  0  0  0  0  0  0  0  0  0  0  0
    3.1134    1.0329   -6.1534 H   0  0  0  0  0  0  0  0  0  0  0  0
    4.8554    0.2497   -3.7198 H   0  0  0  0  0  0  0  0  0  0  0  0
    5.4650    0.6541   -5.3717 H   0  0  0  0  0  0  0  0  0  0  0  0
    4.6475    1.9251   -4.3898 H   0  0  0  0  0  0  0  0  0  0  0  0
    0.4397    0.5006    0.1672 H   0  0  0  0  0  0  0  0  0  0  0  0
   -0.5636   -0.4209    1.2745 H   0  0  0  0  0  0  0  0  0  0  0  0
   -2.4937    0.3608   -0.6306 H   0  0  0  0  0  0  0  0  0  0  0  0
   -1.3609    1.7568   -0.6376 H   0  0  0  0  0  0  0  0  0  0  0  0
   -2.1167    1.2459    0.8977 H   0  0  0  0  0  0  0  0  0  0  0  0
   -2.6830   -1.1957    2.6864 H   0  0  0  0  0  0  0  0  0  0  0  0
   -2.7054   -1.3474    0.8899 H   0  0  0  0  0  0  0  0  0  0  0  0
   -4.0532   -3.2672    2.8386 H   0  0  0  0  0  0  0  0  0  0  0  0
   -3.9029   -3.5222    1.0509 H   0  0  0  0  0  0  0  0  0  0  0  0
   -4.8308   -2.1127    1.6944 H   0  0  0  0  0  0  0  0  0  0  0  0
    1.3562    3.0617    0.2173 H   0  0  0  0  0  0  0  0  0  0  0  0
    3.0730    1.7217    1.3628 H   0  0  0  0  0  0  0  0  0  0  0  0
    5.2503    0.6831    1.3903 H   0  0  0  0  0  0  0  0  0  0  0  0
    6.4253    2.0230    1.0851 H   0  0  0  0  0  0  0  0  0  0  0  0
    6.2125    0.7028   -0.1313 H   0  0  0  0  0  0  0  0  0  0  0  0
    5.9519    2.8232   -1.6538 H   0  0  0  0  0  0  0  0  0  0  0  0
    4.2447    4.1795   -2.7856 H   0  0  0  0  0  0  0  0  0  0  0  0
    2.6679    6.8051   -1.4617 H   0  0  0  0  0  0  0  0  0  0  0  0
    1.5060    8.6673   -0.3422 H   0  0  0  0  0  0  0  0  0  0  0  0
   -0.8824    8.6755    1.6515 H   0  0  0  0  0  0  0  0  0  0  0  0
   -2.1650    8.6823    0.3729 H   0  0  0  0  0  0  0  0  0  0  0  0
   -0.7035    9.7063    0.1743 H   0  0  0  0  0  0  0  0  0  0  0  0
   -2.0504    6.2419   -0.0220 H   0  0  0  0  0  0  0  0  0  0  0  0
   -0.8815    4.3848   -1.1588 H   0  0  0  0  0  0  0  0  0  0  0  0
   -0.9690    4.4586   -9.0923 H   0  0  0  0  0  0  0  0  0  0  0  0
   -2.7410    5.1003  -10.6714 H   0  0  0  0  0  0  0  0  0  0  0  0
   -2.7468    7.7707  -12.7382 H   0  0  0  0  0  0  0  0  0  0  0  0
   -3.7100    8.5053  -11.3934 H   0  0  0  0  0  0  0  0  0  0  0  0
   -3.9706    6.7840  -11.8527 H   0  0  0  0  0  0  0  0  0  0  0  0
   -1.2536    9.1502  -10.6713 H   0  0  0  0  0  0  0  0  0  0  0  0
    0.5021    8.4996   -9.0719 H   0  0  0  0  0  0  0  0  0  0  0  0
    2.6457    7.6415   -6.6773 H   0  0  0  0  0  0  0  0  0  0  0  0
    4.9874    8.0424   -7.2931 H   0  0  0  0  0  0  0  0  0  0  0  0
    6.5162    6.9041  -10.5084 H   0  0  0  0  0  0  0  0  0  0  0  0
    6.6730    8.0441   -9.1278 H   0  0  0  0  0  0  0  0  0  0  0  0
    7.0082    6.2862   -8.8821 H   0  0  0  0  0  0  0  0  0  0  0  0
    4.5423    5.4267  -10.6922 H   0  0  0  0  0  0  0  0  0  0  0  0
    2.1904    5.0191  -10.0739 H   0  0  0  0  0  0  0  0  0  0  0  0
   -1.8545    7.6813   -7.1693 H   0  0  0  0  0  0  0  0  0  0  0  0
   -7.1457    7.4838   -5.9709 H   0  0  0  0  0  0  0  0  0  0  0  0
   -4.8732    4.2526   -2.7255 H   0  0  0  0  0  0  0  0  0  0  0  0
   -7.9144    5.4614   -1.5428 H   0  0  0  0  0  0  0  0  0  0  0  0
   -8.1253    2.8277   -2.3922 H   0  0  0  0  0  0  0  0  0  0  0  0
  -10.5430    3.4140   -1.4542 H   0  0  0  0  0  0  0  0  0  0  0  0
  -11.7295    4.9860   -3.1710 H   0  0  0  0  0  0  0  0  0  0  0  0
  -10.0649    5.4058   -5.1981 H   0  0  0  0  0  0  0  0  0  0  0  0
   -8.0169    3.6962   -4.9224 H   0  0  0  0  0  0  0  0  0  0  0  0
   -9.5918    2.8571   -4.6096 H   0  0  0  0  0  0  0  0  0  0  0  0
   -9.0264    6.9040   -3.0869 H   0  0  0  0  0  0  0  0  0  0  0  0
  1  2  2  3
  2  3  1  0
  3  4  2  0
  3  5  1  0
  5  6  2  0
  6  7  1  0
  7  8  2  0
  8  9  1  0
  9 10  2  0
 10 11  1  0
 11 12  2  3
 12 13  1  0
 13 14  3  0
 12 15  1  0
 15 16  3  0
  8 17  1  0
 17 18  1  0
 18 19  1  0
 19 20  2  0
 20 21  1  0
 21 22  1  0
 21 23  1  0
  1 24  1  0
 24 25  2  0
 25 26  1  0
 26 27  1  0
 27 28  1  0
 28 29  1  0
 26 30  2  0
 30 31  1  0
 30 32  1  0
 32 33  2  0
 33 34  1  0
 34 35  1  0
 33 36  1  0
 36 37  1  0
 37 38  1  0
 38 39  1  0
 39 40  2  0
 40 41  1  0
 41 42  2  0
 42 43  1  0
 43 44  1  0
 44 45  1  0
 45 46  1  0
 46 47  1  0
 45 48  2  0
 48 49  1  0
 48 50  1  0
 42 51  1  0
 51 52  1  0
 52 53  2  0
 53 54  1  0
 54 55  1  0
 54 56  2  0
 56 57  1  0
 57 58  1  0
 56 59  1  0
 51 60  2  0
 60 61  1  0
 61 62  2  0
 62 63  1  0
 63 64  1  0
 64 65  1  0
 65 66  1  0
 66 67  1  0
 67 68  1  0
 66 69  2  0
 69 70  1  0
 70 71  1  0
 71 72  1  0
 72 73  1  0
 73 74  1  0
 74 75  1  0
 73 76  1  0
 76 77  2  0
 77 78  1  0
 78 79  1  0
 79 80  1  0
 80 81  1  0
 78 82  1  0
 82 83  1  0
 69 84  1  0
 84 85  2  0
 85 86  1  0
 86 87  1  0
 87 88  2  0
 88 89  1  0
 89 90  2  0
 90 91  1  0
 90 92  1  0
 92 93  2  0
 86 94  1  0
 94 95  2  0
 95 96  1  0
 96 97  2  0
 97 98  1  0
 97 99  1  0
 99100  2  0
 85101  1  0
101102  1  0
102103  1  0
103104  2  0
104105  1  0
105106  1  0
106107  2  0
107108  1  0
108109  2  0
109110  1  0
109111  1  0
111112  2  0
105113  1  0
113114  2  0
114115  1  0
115116  2  0
116117  1  0
116118  1  0
118119  2  0
104120  1  0
120121  1  0
103122  1  0
122123  2  3
123124  1  0
124125  2  0
124126  1  0
126127  2  0
127128  1  0
128129  2  0
129130  1  0
130131  2  0
131132  1  0
132133  2  3
133134  1  0
134135  3  0
133136  1  0
136137  3  0
129138  1  0
138139  1  0
139140  1  0
140141  2  0
141142  1  0
142143  1  0
142144  1  0
 11  2  1  0
 23 17  1  0
 31 24  1  0
 81 32  1  0
121 84  1  0
132123  1  0
144138  1  0
 10  5  1  0
 22 18  1  0
 80 36  2  0
 93 87  1  0
100 94  1  0
120101  2  0
131126  1  0
143139  1  0
 23  7  1  0
 79 38  2  0
112106  1  0
119113  1  0
144128  1  0
 77 39  1  0
 61 40  1  0
 76 62  1  0
 49 43  2  0
 59 52  1  0
 72 63  2  0
 71 65  2  0
  1145  1  0
  6146  1  0
  9147  1  0
 17148  1  0
 18149  1  0
 19150  1  0
 20151  1  0
 21152  1  0
 22153  1  0
 22154  1  0
 23155  1  0
 25156  1  0
 28157  1  0
 28158  1  0
 29159  1  0
 29160  1  0
 29161  1  0
 34162  1  0
 34163  1  0
 35164  1  0
 35165  1  0
 35166  1  0
 46167  1  0
 46168  1  0
 47169  1  0
 47170  1  0
 47171  1  0
 49172  1  0
 53173  1  0
 57174  1  0
 57175  1  0
 58176  1  0
 58177  1  0
 58178  1  0
 67179  1  0
 67180  1  0
 68181  1  0
 68182  1  0
 68183  1  0
 74184  1  0
 74185  1  0
 75186  1  0
 75187  1  0
 75188  1  0
 82189  1  0
 82190  1  0
 83191  1  0
 83192  1  0
 83193  1  0
 88194  1  0
 89195  1  0
 91196  1  0
 91197  1  0
 91198  1  0
 92199  1  0
 93200  1  0
 95201  1  0
 96202  1  0
 98203  1  0
 98204  1  0
 98205  1  0
 99206  1  0
100207  1  0
107208  1  0
108209  1  0
110210  1  0
110211  1  0
110212  1  0
111213  1  0
112214  1  0
114215  1  0
115216  1  0
117217  1  0
117218  1  0
117219  1  0
118220  1  0
119221  1  0
122222  1  0
127223  1  0
130224  1  0
138225  1  0
139226  1  0
140227  1  0
141228  1  0
142229  1  0
143230  1  0
143231  1  0
144232  1  0
M  END

