
     RDKit          3D

205230  0  0  0  0  0  0  0  0999 V2000
   -3.5623    6.0890   -0.5534 C   0  0  0  0  0  0  0  0  0  0  0  0
   -3.2308    6.2948   -1.8403 C   0  0  0  0  0  0  0  0  0  0  0  0
   -2.0495    7.0477   -2.3231 C   0  0  0  0  0  0  0  0  0  0  0  0
   -1.4483    7.9687   -1.7028 O   0  0  0  0  0  0  0  0  0  0  0  0
   -1.6839    6.5518   -3.6202 C   0  0  0  0  0  0  0  0  0  0  0  0
   -0.5326    6.9036   -4.3818 C   0  0  0  0  0  0  0  0  0  0  0  0
   -0.3341    6.1082   -5.4957 C   0  0  0  0  0  0  0  0  0  0  0  0
   -1.2023    5.0201   -5.8512 C   0  0  0  0  0  0  0  0  0  0  0  0
   -2.3477    4.6927   -5.1404 C   0  0  0  0  0  0  0  0  0  0  0  0
   -2.5925    5.5176   -4.0014 C   0  0  0  0  0  0  0  0  0  0  0  0
   -3.6647    5.4246   -2.9778 C   0  0  0  0  0  0  0  0  0  0  0  0
   -4.8584    4.7793   -3.1100 C   0  0  0  0  0  0  0  0  0  0  0  0
   -5.1966    3.9679   -4.2577 C   0  0  0  0  0  0  0  0  0  0  0  0
   -5.4851    3.3193   -5.1722 N   0  0  0  0  0  0  0  0  0  0  0  0
   -5.9288    4.9688   -2.1673 C   0  0  0  0  0  0  0  0  0  0  0  0
   -6.7974    5.1236   -1.4184 N   0  0  0  0  0  0  0  0  0  0  0  0
   -0.3509    4.7028   -7.0419 C   0  0  0  0  0  0  0  0  0  0  0  0
   -0.9274    5.0987   -8.4401 C   0  0  0  0  0  0  0  0  0  0  0  0
    0.2409    5.0769   -9.3909 C   0  0  0  0  0  0  0  0  0  0  0  0
    1.0056    6.1302   -9.0778 C   0  0  0  0  0  0  0  0  0  0  0  0
    0.3385    6.8061   -7.9044 C   0  0  0  0  0  0  0  0  0  0  0  0
   -1.1085    6.6040   -8.3259 C   0  0  0  0  0  0  0  0  0  0  0  0
    0.5193    5.8373   -6.6944 C   0  0  0  0  0  0  0  0  0  0  0  0
   -2.7441    6.5293    0.5897 C   0  0  0  0  0  0  0  0  0  0  0  0
   -2.6022    7.8303    1.1100 C   0  0  0  0  0  0  0  0  0  0  0  0
   -1.9066    7.8440    2.3216 C   0  0  0  0  0  0  0  0  0  0  0  0
   -1.6144    9.3927    3.2009 S   0  0  0  0  0  0  0  0  0  0  0  0
   -0.0568    9.8074    2.3228 C   0  0  0  0  0  0  0  0  0  0  0  0
    1.0925    8.9540    2.8432 C   0  0  0  0  0  0  0  0  0  0  0  0
   -1.4963    6.5839    2.7654 C   0  0  0  0  0  0  0  0  0  0  0  0
   -2.0615    5.4573    1.6604 S   0  0  0  0  0  0  0  0  0  0  0  0
   -0.9410    6.1569    4.0675 C   0  0  0  0  0  0  0  0  0  0  0  0
   -1.7513    5.8400    5.1786 C   0  0  0  0  0  0  0  0  0  0  0  0
   -2.9829    6.5732    5.4959 C   0  0  0  0  0  0  0  0  0  0  0  0
   -4.2096    6.2281    4.9223 C   0  0  0  0  0  0  0  0  0  0  0  0
   -5.3333    7.0351    5.1527 C   0  0  0  0  0  0  0  0  0  0  0  0
   -5.2267    8.1910    5.9326 C   0  0  0  0  0  0  0  0  0  0  0  0
   -3.9897    8.5467    6.5020 C   0  0  0  0  0  0  0  0  0  0  0  0
   -3.8645    9.8061    7.3257 C   0  0  0  0  0  0  0  0  0  0  0  0
   -3.2885   10.9498    6.4891 C   0  0  0  0  0  0  0  0  0  0  0  0
   -2.8686    7.7320    6.2782 C   0  0  0  0  0  0  0  0  0  0  0  0
   -1.1466    4.9354    6.0431 C   0  0  0  0  0  0  0  0  0  0  0  0
   -1.7913    3.7712    7.1340 S   0  0  0  0  0  0  0  0  0  0  0  0
   -0.3515    2.8559    7.1088 C   0  0  0  0  0  0  0  0  0  0  0  0
    0.0592    1.5505    7.3258 C   0  0  0  0  0  0  0  0  0  0  0  0
   -0.5841    0.4878    7.9660 C   0  0  0  0  0  0  0  0  0  0  0  0
   -0.0186   -0.8244    7.8544 C   0  0  0  0  0  0  0  0  0  0  0  0
   -0.7085   -1.8296    8.4619 N   0  0  0  0  0  0  0  0  0  0  0  0
   -1.9780   -0.9774    9.1002 S   0  0  0  0  0  0  0  0  0  0  0  0
   -1.7471    0.5980    8.6552 N   0  0  0  0  0  0  0  0  0  0  0  0
    1.1384   -1.0009    7.1080 C   0  0  0  0  0  0  0  0  0  0  0  0
    1.6656   -2.1749    6.5784 C   0  0  0  0  0  0  0  0  0  0  0  0
    1.0818   -3.7569    6.3251 S   0  0  0  0  0  0  0  0  0  0  0  0
    2.0847   -3.9833    4.9627 C   0  0  0  0  0  0  0  0  0  0  0  0
    2.0640   -4.9066    3.9057 C   0  0  0  0  0  0  0  0  0  0  0  0
    1.3243   -6.1814    3.9687 C   0  0  0  0  0  0  0  0  0  0  0  0
    0.2797   -6.4544    3.0715 C   0  0  0  0  0  0  0  0  0  0  0  0
   -0.3930   -7.6747    3.1378 C   0  0  0  0  0  0  0  0  0  0  0  0
   -0.0297   -8.6443    4.0835 C   0  0  0  0  0  0  0  0  0  0  0  0
    1.0085   -8.3711    4.9987 C   0  0  0  0  0  0  0  0  0  0  0  0
    1.4124   -9.4063    6.0133 C   0  0  0  0  0  0  0  0  0  0  0  0
    2.5860  -10.2457    5.5005 C   0  0  0  0  0  0  0  0  0  0  0  0
    1.6921   -7.1456    4.9222 C   0  0  0  0  0  0  0  0  0  0  0  0
    2.8052   -4.4516    2.7990 C   0  0  0  0  0  0  0  0  0  0  0  0
    3.4666   -2.9294    3.1842 S   0  0  0  0  0  0  0  0  0  0  0  0
    2.8050   -2.8400    4.7186 C   0  0  0  0  0  0  0  0  0  0  0  0
    2.5644   -1.8102    5.6253 C   0  0  0  0  0  0  0  0  0  0  0  0
    2.6779   -0.4497    5.5129 N   0  0  0  0  0  0  0  0  0  0  0  0
    1.7980    0.0569    6.4371 C   0  0  0  0  0  0  0  0  0  0  0  0
    1.2636    1.3975    6.6053 C   0  0  0  0  0  0  0  0  0  0  0  0
    1.6100    2.5908    6.0190 N   0  0  0  0  0  0  0  0  0  0  0  0
    0.5711    3.4151    6.2961 C   0  0  0  0  0  0  0  0  0  0  0  0
    0.1234    4.5647    5.6605 C   0  0  0  0  0  0  0  0  0  0  0  0
    0.4960    5.2754    4.1866 S   0  0  0  0  0  0  0  0  0  0  0  0
    2.9285    3.1741    5.7120 C   0  0  0  0  0  0  0  0  0  0  0  0
    3.9495    2.8349    6.8105 C   0  0  0  0  0  0  0  0  0  0  0  0
    3.4095    0.1903    4.4279 C   0  0  0  0  0  0  0  0  0  0  0  0
    2.4735    0.6457    3.2938 C   0  0  0  0  0  0  0  0  0  0  0  0
    2.8573   -4.9572    1.4061 C   0  0  0  0  0  0  0  0  0  0  0  0
    3.2517   -4.1428    0.3643 C   0  0  0  0  0  0  0  0  0  0  0  0
    2.9699   -4.8372   -0.7735 C   0  0  0  0  0  0  0  0  0  0  0  0
    2.9755   -4.4011   -2.1062 C   0  0  0  0  0  0  0  0  0  0  0  0
    3.5220   -3.0727   -2.4186 C   0  0  0  0  0  0  0  0  0  0  0  0
    4.8593   -2.9739   -2.8447 C   0  0  0  0  0  0  0  0  0  0  0  0
    5.5058   -1.7342   -2.8647 C   0  0  0  0  0  0  0  0  0  0  0  0
    6.8103   -1.6760   -3.2428 F   0  0  0  0  0  0  0  0  0  0  0  0
    4.8110   -0.5756   -2.4588 C   0  0  0  0  0  0  0  0  0  0  0  0
    5.4987    0.7709   -2.4573 C   0  0  0  0  0  0  0  0  0  0  0  0
    6.3599    0.9454   -1.2082 C   0  0  0  0  0  0  0  0  0  0  0  0
    3.4725   -0.6770   -2.0119 C   0  0  0  0  0  0  0  0  0  0  0  0
    2.7846    0.4106   -1.5737 F   0  0  0  0  0  0  0  0  0  0  0  0
    2.8439   -1.9214   -1.9799 C   0  0  0  0  0  0  0  0  0  0  0  0
    2.4650   -5.3186   -3.0524 C   0  0  0  0  0  0  0  0  0  0  0  0
    2.0800   -6.5909   -2.6870 C   0  0  0  0  0  0  0  0  0  0  0  0
    2.0723   -7.0228   -1.3377 C   0  0  0  0  0  0  0  0  0  0  0  0
    1.5704   -8.3633   -0.9928 C   0  0  0  0  0  0  0  0  0  0  0  0
    0.3905   -8.5015   -0.2475 C   0  0  0  0  0  0  0  0  0  0  0  0
   -0.2229   -9.7579   -0.1326 C   0  0  0  0  0  0  0  0  0  0  0  0
    0.3541  -10.8944   -0.7389 C   0  0  0  0  0  0  0  0  0  0  0  0
   -0.4198  -12.2049   -0.7784 C   0  0  0  0  0  0  0  0  0  0  0  0
   -0.4155  -12.9405    0.5786 C   0  0  0  0  0  0  0  0  0  0  0  0
    1.5901  -10.7697   -1.4169 C   0  0  0  0  0  0  0  0  0  0  0  0
    2.1592   -9.5023   -1.5718 C   0  0  0  0  0  0  0  0  0  0  0  0
    2.1849  -11.8425   -2.0108 F   0  0  0  0  0  0  0  0  0  0  0  0
   -1.4452   -9.8254    0.4830 F   0  0  0  0  0  0  0  0  0  0  0  0
    2.4760   -6.0734   -0.3817 C   0  0  0  0  0  0  0  0  0  0  0  0
    2.4149   -6.1304    0.9484 O   0  0  0  0  0  0  0  0  0  0  0  0
    1.6128   -7.2054   -3.8314 C   0  0  0  0  0  0  0  0  0  0  0  0
    1.5664   -6.1920   -4.7879 C   0  0  0  0  0  0  0  0  0  0  0  0
    2.1800   -5.1164   -4.3236 O   0  0  0  0  0  0  0  0  0  0  0  0
    0.6643   -6.2673   -5.9925 C   0  0  0  0  0  0  0  0  0  0  0  0
   -0.1563   -5.2602   -6.4063 C   0  0  0  0  0  0  0  0  0  0  0  0
   -1.5820   -5.4832   -6.7093 C   0  0  0  0  0  0  0  0  0  0  0  0
   -2.0690   -6.5159   -7.2406 O   0  0  0  0  0  0  0  0  0  0  0  0
   -2.3512   -4.3778   -6.1479 C   0  0  0  0  0  0  0  0  0  0  0  0
   -3.7664   -4.3053   -5.9692 C   0  0  0  0  0  0  0  0  0  0  0  0
   -4.1687   -3.2170   -5.1977 C   0  0  0  0  0  0  0  0  0  0  0  0
   -3.2425   -2.2643   -4.6508 C   0  0  0  0  0  0  0  0  0  0  0  0
   -1.8789   -2.3099   -4.8415 C   0  0  0  0  0  0  0  0  0  0  0  0
   -1.4380   -3.4073   -5.6446 C   0  0  0  0  0  0  0  0  0  0  0  0
   -0.0568   -3.8319   -5.9731 C   0  0  0  0  0  0  0  0  0  0  0  0
    1.0169   -3.0379   -6.0826 C   0  0  0  0  0  0  0  0  0  0  0  0
    2.2105   -3.5232   -6.7024 C   0  0  0  0  0  0  0  0  0  0  0  0
    3.1398   -3.9758   -7.2207 N   0  0  0  0  0  0  0  0  0  0  0  0
    1.1677   -1.9189   -5.1600 C   0  0  0  0  0  0  0  0  0  0  0  0
    1.2849   -1.1028   -4.3252 N   0  0  0  0  0  0  0  0  0  0  0  0
   -4.3489   -1.5618   -3.9209 C   0  0  0  0  0  0  0  0  0  0  0  0
   -4.8471   -0.1778   -4.4331 C   0  0  0  0  0  0  0  0  0  0  0  0
   -4.6682   -0.0816   -5.9267 C   0  0  0  0  0  0  0  0  0  0  0  0
   -5.5191   -0.9639   -6.4626 C   0  0  0  0  0  0  0  0  0  0  0  0
   -6.2563   -1.6113   -5.3110 C   0  0  0  0  0  0  0  0  0  0  0  0
   -6.3484   -0.4122   -4.3812 C   0  0  0  0  0  0  0  0  0  0  0  0
   -5.3020   -2.5261   -4.4941 C   0  0  0  0  0  0  0  0  0  0  0  0
   -4.2297    5.2775   -0.3032 H   0  0  0  0  0  0  0  0  0  0  0  0
    0.1492    7.7091   -4.1123 H   0  0  0  0  0  0  0  0  0  0  0  0
   -2.9620    3.8568   -5.4625 H   0  0  0  0  0  0  0  0  0  0  0  0
    0.1335    3.7006   -6.9878 H   0  0  0  0  0  0  0  0  0  0  0  0
   -1.8195    4.5197   -8.7684 H   0  0  0  0  0  0  0  0  0  0  0  0
    0.4252    4.3851  -10.2160 H   0  0  0  0  0  0  0  0  0  0  0  0
    1.8822    6.4621   -9.6291 H   0  0  0  0  0  0  0  0  0  0  0  0
    0.6495    7.8593   -7.7302 H   0  0  0  0  0  0  0  0  0  0  0  0
   -1.8612    6.9288   -7.5630 H   0  0  0  0  0  0  0  0  0  0  0  0
   -1.3843    7.0992   -9.2851 H   0  0  0  0  0  0  0  0  0  0  0  0
    1.5663    5.5552   -6.4505 H   0  0  0  0  0  0  0  0  0  0  0  0
   -3.0389    8.6967    0.6220 H   0  0  0  0  0  0  0  0  0  0  0  0
    0.1841   10.8762    2.5185 H   0  0  0  0  0  0  0  0  0  0  0  0
   -0.1619    9.6915    1.2238 H   0  0  0  0  0  0  0  0  0  0  0  0
    1.0644    8.8740    3.9546 H   0  0  0  0  0  0  0  0  0  0  0  0
    1.0441    7.9419    2.3839 H   0  0  0  0  0  0  0  0  0  0  0  0
    2.0589    9.4109    2.5466 H   0  0  0  0  0  0  0  0  0  0  0  0
   -4.3073    5.3533    4.2781 H   0  0  0  0  0  0  0  0  0  0  0  0
   -6.2933    6.7661    4.7210 H   0  0  0  0  0  0  0  0  0  0  0  0
   -6.1144    8.7952    6.0856 H   0  0  0  0  0  0  0  0  0  0  0  0
   -4.8499   10.1116    7.7278 H   0  0  0  0  0  0  0  0  0  0  0  0
   -3.1889    9.6107    8.1931 H   0  0  0  0  0  0  0  0  0  0  0  0
   -3.2963   11.8839    7.0949 H   0  0  0  0  0  0  0  0  0  0  0  0
   -3.8942   11.1053    5.5693 H   0  0  0  0  0  0  0  0  0  0  0  0
   -2.2439   10.7236    6.1939 H   0  0  0  0  0  0  0  0  0  0  0  0
   -1.8936    8.0252    6.6840 H   0  0  0  0  0  0  0  0  0  0  0  0
   -0.0225   -5.7105    2.3220 H   0  0  0  0  0  0  0  0  0  0  0  0
   -1.2061   -7.8945    2.4479 H   0  0  0  0  0  0  0  0  0  0  0  0
   -0.5591   -9.5845    4.1043 H   0  0  0  0  0  0  0  0  0  0  0  0
    0.5531  -10.0739    6.2479 H   0  0  0  0  0  0  0  0  0  0  0  0
    1.7088   -8.8939    6.9592 H   0  0  0  0  0  0  0  0  0  0  0  0
    3.4872   -9.6113    5.3529 H   0  0  0  0  0  0  0  0  0  0  0  0
    2.3197  -10.7159    4.5263 H   0  0  0  0  0  0  0  0  0  0  0  0
    2.8177  -11.0416    6.2346 H   0  0  0  0  0  0  0  0  0  0  0  0
    2.5038   -6.9420    5.6241 H   0  0  0  0  0  0  0  0  0  0  0  0
    3.2568    2.9057    4.6945 H   0  0  0  0  0  0  0  0  0  0  0  0
    2.8811    4.2797    5.6758 H   0  0  0  0  0  0  0  0  0  0  0  0
    3.6433    3.3572    7.7503 H   0  0  0  0  0  0  0  0  0  0  0  0
    4.0359    1.7507    6.9816 H   0  0  0  0  0  0  0  0  0  0  0  0
    4.9524    3.2068    6.5076 H   0  0  0  0  0  0  0  0  0  0  0  0
    4.0476    0.9938    4.8240 H   0  0  0  0  0  0  0  0  0  0  0  0
    4.1769   -0.4819    4.0066 H   0  0  0  0  0  0  0  0  0  0  0  0
    1.8347   -0.1967    2.9679 H   0  0  0  0  0  0  0  0  0  0  0  0
    1.8461    1.4869    3.6256 H   0  0  0  0  0  0  0  0  0  0  0  0
    3.0803    0.9701    2.4170 H   0  0  0  0  0  0  0  0  0  0  0  0
    3.5544   -3.1106    0.4142 H   0  0  0  0  0  0  0  0  0  0  0  0
    5.4149   -3.8657   -3.1031 H   0  0  0  0  0  0  0  0  0  0  0  0
    6.1245    0.8705   -3.3654 H   0  0  0  0  0  0  0  0  0  0  0  0
    4.7474    1.5937   -2.4863 H   0  0  0  0  0  0  0  0  0  0  0  0
    5.7716    0.7506   -0.2885 H   0  0  0  0  0  0  0  0  0  0  0  0
    7.2210    0.2440   -1.2334 H   0  0  0  0  0  0  0  0  0  0  0  0
    6.7514    1.9903   -1.1621 H   0  0  0  0  0  0  0  0  0  0  0  0
    1.8227   -2.0106   -1.6044 H   0  0  0  0  0  0  0  0  0  0  0  0
   -0.1074   -7.6078    0.1403 H   0  0  0  0  0  0  0  0  0  0  0  0
   -0.0149  -12.8837   -1.5602 H   0  0  0  0  0  0  0  0  0  0  0  0
   -1.4754  -11.9788   -1.0700 H   0  0  0  0  0  0  0  0  0  0  0  0
    0.5644  -13.4705    0.6923 H   0  0  0  0  0  0  0  0  0  0  0  0
   -0.5223  -12.1993    1.4112 H   0  0  0  0  0  0  0  0  0  0  0  0
   -1.2838  -13.6433    0.6080 H   0  0  0  0  0  0  0  0  0  0  0  0
    3.0479   -9.3979   -2.1875 H   0  0  0  0  0  0  0  0  0  0  0  0
    1.1247   -8.1623   -3.8804 H   0  0  0  0  0  0  0  0  0  0  0  0
    0.2530   -7.2653   -6.1246 H   0  0  0  0  0  0  0  0  0  0  0  0
   -4.4761   -5.0576   -6.3500 H   0  0  0  0  0  0  0  0  0  0  0  0
   -1.2361   -1.5961   -4.3605 H   0  0  0  0  0  0  0  0  0  0  0  0
   -4.2539   -1.6350   -2.8124 H   0  0  0  0  0  0  0  0  0  0  0  0
   -4.4896    0.7101   -3.8556 H   0  0  0  0  0  0  0  0  0  0  0  0
   -4.0309    0.6106   -6.4736 H   0  0  0  0  0  0  0  0  0  0  0  0
   -5.6905   -1.1139   -7.5302 H   0  0  0  0  0  0  0  0  0  0  0  0
   -7.2306   -2.0679   -5.5829 H   0  0  0  0  0  0  0  0  0  0  0  0
   -6.7364   -0.6586   -3.3615 H   0  0  0  0  0  0  0  0  0  0  0  0
   -6.9603    0.4402   -4.7988 H   0  0  0  0  0  0  0  0  0  0  0  0
   -5.7953   -3.1564   -3.7281 H   0  0  0  0  0  0  0  0  0  0  0  0
  1  2  2  3
  2  3  1  0
  3  4  2  0
  3  5  1  0
  5  6  2  0
  6  7  1  0
  7  8  2  0
  8  9  1  0
  9 10  2  0
 10 11  1  0
 11 12  2  3
 12 13  1  0
 13 14  3  0
 12 15  1  0
 15 16  3  0
  8 17  1  0
 17 18  1  0
 18 19  1  0
 19 20  2  0
 20 21  1  0
 21 22  1  0
 21 23  1  0
  1 24  1  0
 24 25  2  0
 25 26  1  0
 26 27  1  0
 27 28  1  0
 28 29  1  0
 26 30  2  0
 30 31  1  0
 30 32  1  0
 32 33  2  0
 33 34  1  0
 34 35  2  0
 35 36  1  0
 36 37  2  0
 37 38  1  0
 38 39  1  0
 39 40  1  0
 38 41  2  0
 33 42  1  0
 42 43  1  0
 43 44  1  0
 44 45  1  0
 45 46  1  0
 46 47  1  0
 47 48  2  0
 48 49  1  0
 49 50  1  0
 47 51  1  0
 51 52  1  0
 52 53  1  0
 53 54  1  0
 54 55  1  0
 55 56  1  0
 56 57  2  0
 57 58  1  0
 58 59  2  0
 59 60  1  0
 60 61  1  0
 61 62  1  0
 60 63  2  0
 55 64  2  0
 64 65  1  0
 65 66  1  0
 66 67  1  0
 67 68  1  0
 68 69  1  0
 69 70  1  0
 70 71  1  0
 71 72  1  0
 72 73  1  0
 73 74  1  0
 71 75  1  0
 75 76  1  0
 68 77  1  0
 77 78  1  0
 64 79  1  0
 79 80  2  0
 80 81  1  0
 81 82  2  0
 82 83  1  0
 83 84  2  0
 84 85  1  0
 85 86  1  0
 85 87  2  0
 87 88  1  0
 88 89  1  0
 87 90  1  0
 90 91  1  0
 90 92  2  0
 82 93  1  0
 93 94  2  0
 94 95  1  0
 95 96  1  0
 96 97  2  0
 97 98  1  0
 98 99  2  0
 99100  1  0
100101  1  0
 99102  1  0
102103  2  0
102104  1  0
 98105  1  0
 95106  2  0
106107  1  0
 94108  1  0
108109  2  0
109110  1  0
109111  1  0
111112  2  3
112113  1  0
113114  2  0
113115  1  0
115116  2  0
116117  1  0
117118  2  0
118119  1  0
119120  2  0
120121  1  0
121122  2  3
122123  1  0
123124  3  0
122125  1  0
125126  3  0
118127  1  0
127128  1  0
128129  1  0
129130  2  0
130131  1  0
131132  1  0
131133  1  0
 11  2  1  0
 23 17  1  0
 31 24  1  0
 74 32  1  0
107 79  1  0
121112  1  0
133127  1  0
 10  5  1  0
 22 18  1  0
 41 34  1  0
 73 42  2  0
106 81  1  0
120115  1  0
132128  1  0
 23  7  1  0
 72 44  2  0
 92 83  1  0
110 93  1  0
133117  1  0
 70 45  2  0
103 96  1  0
 50 46  2  0
 69 51  2  0
 67 52  2  0
 66 54  2  0
 63 56  1  0
  1134  1  0
  6135  1  0
  9136  1  0
 17137  1  0
 18138  1  0
 19139  1  0
 20140  1  0
 21141  1  0
 22142  1  0
 22143  1  0
 23144  1  0
 25145  1  0
 28146  1  0
 28147  1  0
 29148  1  0
 29149  1  0
 29150  1  0
 35151  1  0
 36152  1  0
 37153  1  0
 39154  1  0
 39155  1  0
 40156  1  0
 40157  1  0
 40158  1  0
 41159  1  0
 57160  1  0
 58161  1  0
 59162  1  0
 61163  1  0
 61164  1  0
 62165  1  0
 62166  1  0
 62167  1  0
 63168  1  0
 75169  1  0
 75170  1  0
 76171  1  0
 76172  1  0
 76173  1  0
 77174  1  0
 77175  1  0
 78176  1  0
 78177  1  0
 78178  1  0
 80179  1  0
 84180  1  0
 88181  1  0
 88182  1  0
 89183  1  0
 89184  1  0
 89185  1  0
 92186  1  0
 97187  1  0
100188  1  0
100189  1  0
101190  1  0
101191  1  0
101192  1  0
103193  1  0
108194  1  0
111195  1  0
116196  1  0
119197  1  0
127198  1  0
128199  1  0
129200  1  0
130201  1  0
131202  1  0
132203  1  0
132204  1  0
133205  1  0
M  END

