
     RDKit          3D

175194  0  0  0  0  0  0  0  0999 V2000
   -4.7050    2.3800   -8.9533 C   0  0  0  0  0  0  0  0  0  0  0  0
   -5.4076    2.6688   -7.8365 C   0  0  0  0  0  0  0  0  0  0  0  0
   -5.0699    2.2092   -6.4826 C   0  0  0  0  0  0  0  0  0  0  0  0
   -4.4193    1.1698   -6.1875 O   0  0  0  0  0  0  0  0  0  0  0  0
   -5.6286    3.1333   -5.5262 C   0  0  0  0  0  0  0  0  0  0  0  0
   -5.3222    3.2101   -4.1495 C   0  0  0  0  0  0  0  0  0  0  0  0
   -5.8109    4.3458   -3.5347 C   0  0  0  0  0  0  0  0  0  0  0  0
   -6.5615    5.3518   -4.2251 C   0  0  0  0  0  0  0  0  0  0  0  0
   -6.8698    5.2780   -5.5747 C   0  0  0  0  0  0  0  0  0  0  0  0
   -6.3942    4.1052   -6.2246 C   0  0  0  0  0  0  0  0  0  0  0  0
   -6.4144    3.7602   -7.6742 C   0  0  0  0  0  0  0  0  0  0  0  0
   -7.2818    4.2233   -8.6065 C   0  0  0  0  0  0  0  0  0  0  0  0
   -7.3483    3.6723   -9.9366 C   0  0  0  0  0  0  0  0  0  0  0  0
   -7.4038    3.2330  -11.0056 N   0  0  0  0  0  0  0  0  0  0  0  0
   -8.2871    5.2020   -8.2971 C   0  0  0  0  0  0  0  0  0  0  0  0
   -9.1077    5.9862   -8.0616 N   0  0  0  0  0  0  0  0  0  0  0  0
   -6.5956    6.1970   -2.9843 C   0  0  0  0  0  0  0  0  0  0  0  0
   -5.6453    7.4338   -2.9668 C   0  0  0  0  0  0  0  0  0  0  0  0
   -5.5512    7.8679   -1.5222 C   0  0  0  0  0  0  0  0  0  0  0  0
   -4.8417    6.9226   -0.8863 C   0  0  0  0  0  0  0  0  0  0  0  0
   -4.4877    5.8844   -1.9227 C   0  0  0  0  0  0  0  0  0  0  0  0
   -4.2649    6.8103   -3.1104 C   0  0  0  0  0  0  0  0  0  0  0  0
   -5.8232    5.1652   -2.2815 C   0  0  0  0  0  0  0  0  0  0  0  0
   -3.4034    1.6929   -8.9019 C   0  0  0  0  0  0  0  0  0  0  0  0
   -3.0448    0.5525   -9.6179 C   0  0  0  0  0  0  0  0  0  0  0  0
   -1.7672    0.0737   -9.2815 C   0  0  0  0  0  0  0  0  0  0  0  0
   -1.0723   -1.4171  -10.0035 S   0  0  0  0  0  0  0  0  0  0  0  0
   -2.0700   -2.6027   -9.0295 C   0  0  0  0  0  0  0  0  0  0  0  0
   -1.5605   -2.7198   -7.6002 C   0  0  0  0  0  0  0  0  0  0  0  0
   -1.1059    0.8696   -8.3407 C   0  0  0  0  0  0  0  0  0  0  0  0
   -2.1217    2.1292   -7.9010 S   0  0  0  0  0  0  0  0  0  0  0  0
    0.0595    0.4845   -7.5448 C   0  0  0  0  0  0  0  0  0  0  0  0
    1.4137    0.5917   -7.9166 C   0  0  0  0  0  0  0  0  0  0  0  0
    1.8694    1.2424   -9.1511 C   0  0  0  0  0  0  0  0  0  0  0  0
    2.2006    0.4805  -10.2780 C   0  0  0  0  0  0  0  0  0  0  0  0
    2.5779    1.1211  -11.4629 C   0  0  0  0  0  0  0  0  0  0  0  0
    2.6190    2.5181  -11.5282 C   0  0  0  0  0  0  0  0  0  0  0  0
    2.3068    3.2887  -10.3956 C   0  0  0  0  0  0  0  0  0  0  0  0
    2.3364    4.7938  -10.4669 C   0  0  0  0  0  0  0  0  0  0  0  0
    0.9258    5.3672  -10.5774 C   0  0  0  0  0  0  0  0  0  0  0  0
    1.9246    2.6438   -9.2088 C   0  0  0  0  0  0  0  0  0  0  0  0
    2.2452    0.3032   -6.8279 C   0  0  0  0  0  0  0  0  0  0  0  0
    3.9399    0.3180   -6.5481 S   0  0  0  0  0  0  0  0  0  0  0  0
    3.7089   -0.0108   -4.8901 C   0  0  0  0  0  0  0  0  0  0  0  0
    4.3962   -0.3392   -3.7427 C   0  0  0  0  0  0  0  0  0  0  0  0
    5.7339   -0.6884   -3.4901 C   0  0  0  0  0  0  0  0  0  0  0  0
    6.0813   -1.2106   -2.1960 C   0  0  0  0  0  0  0  0  0  0  0  0
    7.3717   -1.5794   -2.0089 N   0  0  0  0  0  0  0  0  0  0  0  0
    7.9784   -1.2306   -3.5113 S   0  0  0  0  0  0  0  0  0  0  0  0
    6.7216   -0.6313   -4.4156 N   0  0  0  0  0  0  0  0  0  0  0  0
    5.0893   -1.2730   -1.2040 C   0  0  0  0  0  0  0  0  0  0  0  0
    5.0828   -1.6175    0.1340 C   0  0  0  0  0  0  0  0  0  0  0  0
    6.0192   -2.3770    1.3416 S   0  0  0  0  0  0  0  0  0  0  0  0
    4.7370   -2.2557    2.4828 C   0  0  0  0  0  0  0  0  0  0  0  0
    4.4744   -2.7874    3.7579 C   0  0  0  0  0  0  0  0  0  0  0  0
    5.3834   -3.7117    4.4569 C   0  0  0  0  0  0  0  0  0  0  0  0
    5.7400   -4.9261    3.8536 C   0  0  0  0  0  0  0  0  0  0  0  0
    6.5525   -5.8375    4.5322 C   0  0  0  0  0  0  0  0  0  0  0  0
    7.0126   -5.5453    5.8197 C   0  0  0  0  0  0  0  0  0  0  0  0
    6.6912   -4.3197    6.4247 C   0  0  0  0  0  0  0  0  0  0  0  0
    7.1269   -4.0344    7.8368 C   0  0  0  0  0  0  0  0  0  0  0  0
    6.0262   -4.4080    8.8223 C   0  0  0  0  0  0  0  0  0  0  0  0
    5.8894   -3.3968    5.7282 C   0  0  0  0  0  0  0  0  0  0  0  0
    3.1325   -2.5144    4.1380 C   0  0  0  0  0  0  0  0  0  0  0  0
    2.3437   -1.6488    2.9091 S   0  0  0  0  0  0  0  0  0  0  0  0
    3.6703   -1.6114    1.9224 C   0  0  0  0  0  0  0  0  0  0  0  0
    3.8555   -1.2916    0.6047 C   0  0  0  0  0  0  0  0  0  0  0  0
    3.0307   -0.7790   -0.3261 N   0  0  0  0  0  0  0  0  0  0  0  0
    3.7782   -0.8493   -1.4620 C   0  0  0  0  0  0  0  0  0  0  0  0
    3.4037   -0.5233   -2.7700 C   0  0  0  0  0  0  0  0  0  0  0  0
    2.1497   -0.5029   -3.3106 N   0  0  0  0  0  0  0  0  0  0  0  0
    2.3881   -0.1238   -4.5847 C   0  0  0  0  0  0  0  0  0  0  0  0
    1.5671    0.0169   -5.6755 C   0  0  0  0  0  0  0  0  0  0  0  0
   -0.0829    0.0853   -5.8969 S   0  0  0  0  0  0  0  0  0  0  0  0
    1.0136   -1.3591   -2.9250 C   0  0  0  0  0  0  0  0  0  0  0  0
    1.1072   -2.7244   -3.6104 C   0  0  0  0  0  0  0  0  0  0  0  0
    1.8666    0.0792   -0.0530 C   0  0  0  0  0  0  0  0  0  0  0  0
    2.2720    1.3220    0.7357 C   0  0  0  0  0  0  0  0  0  0  0  0
    2.3428   -3.0579    5.2567 C   0  0  0  0  0  0  0  0  0  0  0  0
    2.6258   -2.9708    6.6186 C   0  0  0  0  0  0  0  0  0  0  0  0
    1.4934   -3.1661    7.4372 C   0  0  0  0  0  0  0  0  0  0  0  0
    1.5566   -3.1019    8.9076 C   0  0  0  0  0  0  0  0  0  0  0  0
    2.2416   -4.1018    9.6395 C   0  0  0  0  0  0  0  0  0  0  0  0
    2.7683   -5.2567    9.0370 O   0  0  0  0  0  0  0  0  0  0  0  0
    1.9861   -6.1960    8.2907 C   0  0  0  0  0  0  0  0  0  0  0  0
    0.8380   -6.7516    9.1290 C   0  0  0  0  0  0  0  0  0  0  0  0
    2.4294   -3.9439   11.0139 C   0  0  0  0  0  0  0  0  0  0  0  0
    1.9101   -2.8322   11.6749 C   0  0  0  0  0  0  0  0  0  0  0  0
    1.1981   -1.8615   10.9688 C   0  0  0  0  0  0  0  0  0  0  0  0
    1.0093   -1.9886    9.5796 C   0  0  0  0  0  0  0  0  0  0  0  0
    0.3133   -1.0124    8.8435 O   0  0  0  0  0  0  0  0  0  0  0  0
   -0.2571    0.1689    9.4031 C   0  0  0  0  0  0  0  0  0  0  0  0
   -1.0152    0.9316    8.3282 C   0  0  0  0  0  0  0  0  0  0  0  0
    0.3140   -3.3561    6.7196 C   0  0  0  0  0  0  0  0  0  0  0  0
    0.6990   -3.3804    5.0919 S   0  0  0  0  0  0  0  0  0  0  0  0
   -1.0421   -3.4918    7.2654 C   0  0  0  0  0  0  0  0  0  0  0  0
   -2.0624   -2.6860    6.9027 C   0  0  0  0  0  0  0  0  0  0  0  0
   -1.9716   -1.5383    5.9849 C   0  0  0  0  0  0  0  0  0  0  0  0
   -0.9192   -0.9570    5.6065 O   0  0  0  0  0  0  0  0  0  0  0  0
   -3.3102   -1.1034    5.6586 C   0  0  0  0  0  0  0  0  0  0  0  0
   -3.6960   -0.0872    4.7835 C   0  0  0  0  0  0  0  0  0  0  0  0
   -5.0653    0.1295    4.5653 C   0  0  0  0  0  0  0  0  0  0  0  0
   -5.5601    1.4178    3.4815 Cl  0  0  0  0  0  0  0  0  0  0  0  0
   -6.0187   -0.6935    5.2049 C   0  0  0  0  0  0  0  0  0  0  0  0
   -7.7426   -0.4710    4.9325 Cl  0  0  0  0  0  0  0  0  0  0  0  0
   -5.5992   -1.7068    6.0850 C   0  0  0  0  0  0  0  0  0  0  0  0
   -4.2287   -1.8765    6.3412 C   0  0  0  0  0  0  0  0  0  0  0  0
   -3.5136   -2.8252    7.2503 C   0  0  0  0  0  0  0  0  0  0  0  0
   -4.0530   -3.4878    8.3097 C   0  0  0  0  0  0  0  0  0  0  0  0
   -5.4582   -3.4448    8.6178 C   0  0  0  0  0  0  0  0  0  0  0  0
   -6.5839   -3.4225    8.8821 N   0  0  0  0  0  0  0  0  0  0  0  0
   -3.2586   -4.1928    9.2772 C   0  0  0  0  0  0  0  0  0  0  0  0
   -2.6333   -4.7669   10.0662 N   0  0  0  0  0  0  0  0  0  0  0  0
   -4.9757    2.7941   -9.9078 H   0  0  0  0  0  0  0  0  0  0  0  0
   -4.6880    2.4972   -3.6400 H   0  0  0  0  0  0  0  0  0  0  0  0
   -7.3392    6.1052   -6.0746 H   0  0  0  0  0  0  0  0  0  0  0  0
   -7.6211    6.3707   -2.5850 H   0  0  0  0  0  0  0  0  0  0  0  0
   -5.8870    8.2401   -3.6892 H   0  0  0  0  0  0  0  0  0  0  0  0
   -5.8692    8.8157   -1.0967 H   0  0  0  0  0  0  0  0  0  0  0  0
   -4.4888    6.9763    0.1435 H   0  0  0  0  0  0  0  0  0  0  0  0
   -3.6399    5.2213   -1.6558 H   0  0  0  0  0  0  0  0  0  0  0  0
   -3.4285    7.5403   -2.9554 H   0  0  0  0  0  0  0  0  0  0  0  0
   -4.1003    6.2858   -4.0784 H   0  0  0  0  0  0  0  0  0  0  0  0
   -6.3584    4.6856   -1.4317 H   0  0  0  0  0  0  0  0  0  0  0  0
   -3.7076    0.0564  -10.3174 H   0  0  0  0  0  0  0  0  0  0  0  0
   -3.1406   -2.3122   -9.0271 H   0  0  0  0  0  0  0  0  0  0  0  0
   -1.9844   -3.5964   -9.5185 H   0  0  0  0  0  0  0  0  0  0  0  0
   -1.9912   -3.6226   -7.1185 H   0  0  0  0  0  0  0  0  0  0  0  0
   -0.4519   -2.8036   -7.5861 H   0  0  0  0  0  0  0  0  0  0  0  0
   -1.8819   -1.8352   -7.0174 H   0  0  0  0  0  0  0  0  0  0  0  0
    2.1543   -0.6019  -10.2452 H   0  0  0  0  0  0  0  0  0  0  0  0
    2.8313    0.5339  -12.3359 H   0  0  0  0  0  0  0  0  0  0  0  0
    2.9028    2.9979  -12.4577 H   0  0  0  0  0  0  0  0  0  0  0  0
    2.8291    5.1994   -9.5558 H   0  0  0  0  0  0  0  0  0  0  0  0
    2.9368    5.1313  -11.3401 H   0  0  0  0  0  0  0  0  0  0  0  0
    0.3289    5.1001   -9.6809 H   0  0  0  0  0  0  0  0  0  0  0  0
    0.4232    4.9769  -11.4896 H   0  0  0  0  0  0  0  0  0  0  0  0
    0.9764    6.4745  -10.6472 H   0  0  0  0  0  0  0  0  0  0  0  0
    1.6558    3.2302   -8.3372 H   0  0  0  0  0  0  0  0  0  0  0  0
    5.3644   -5.1814    2.8708 H   0  0  0  0  0  0  0  0  0  0  0  0
    6.8129   -6.7794    4.0653 H   0  0  0  0  0  0  0  0  0  0  0  0
    7.6139   -6.2736    6.3459 H   0  0  0  0  0  0  0  0  0  0  0  0
    7.3686   -2.9543    7.9523 H   0  0  0  0  0  0  0  0  0  0  0  0
    8.0474   -4.6059    8.0781 H   0  0  0  0  0  0  0  0  0  0  0  0
    6.3951   -4.2948    9.8616 H   0  0  0  0  0  0  0  0  0  0  0  0
    5.7124   -5.4631    8.6704 H   0  0  0  0  0  0  0  0  0  0  0  0
    5.1497   -3.7454    8.6857 H   0  0  0  0  0  0  0  0  0  0  0  0
    5.6599   -2.4370    6.1742 H   0  0  0  0  0  0  0  0  0  0  0  0
    0.0572   -0.8628   -3.1960 H   0  0  0  0  0  0  0  0  0  0  0  0
    0.9938   -1.5567   -1.8401 H   0  0  0  0  0  0  0  0  0  0  0  0
    1.1664   -2.6254   -4.7111 H   0  0  0  0  0  0  0  0  0  0  0  0
    2.0117   -3.2611   -3.2513 H   0  0  0  0  0  0  0  0  0  0  0  0
    0.2143   -3.3361   -3.3586 H   0  0  0  0  0  0  0  0  0  0  0  0
    1.1046   -0.4974    0.5166 H   0  0  0  0  0  0  0  0  0  0  0  0
    1.3974    0.4405   -0.9871 H   0  0  0  0  0  0  0  0  0  0  0  0
    2.9902    1.9249    0.1442 H   0  0  0  0  0  0  0  0  0  0  0  0
    2.7332    1.0516    1.7073 H   0  0  0  0  0  0  0  0  0  0  0  0
    1.3764    1.9463    0.9415 H   0  0  0  0  0  0  0  0  0  0  0  0
    3.5811   -2.6678    7.0155 H   0  0  0  0  0  0  0  0  0  0  0  0
    2.6456   -7.0381    7.9913 H   0  0  0  0  0  0  0  0  0  0  0  0
    1.5933   -5.7413    7.3589 H   0  0  0  0  0  0  0  0  0  0  0  0
    1.2401   -7.2474   10.0373 H   0  0  0  0  0  0  0  0  0  0  0  0
    0.2624   -7.4897    8.5326 H   0  0  0  0  0  0  0  0  0  0  0  0
    0.1491   -5.9401    9.4395 H   0  0  0  0  0  0  0  0  0  0  0  0
    2.9699   -4.6998   11.5728 H   0  0  0  0  0  0  0  0  0  0  0  0
    2.0633   -2.7227   12.7427 H   0  0  0  0  0  0  0  0  0  0  0  0
    0.8086   -1.0142   11.5163 H   0  0  0  0  0  0  0  0  0  0  0  0
   -0.9712   -0.1012   10.2142 H   0  0  0  0  0  0  0  0  0  0  0  0
    0.5525    0.8102    9.8082 H   0  0  0  0  0  0  0  0  0  0  0  0
   -0.3461    1.1470    7.4679 H   0  0  0  0  0  0  0  0  0  0  0  0
   -1.8834    0.3360    7.9885 H   0  0  0  0  0  0  0  0  0  0  0  0
   -1.3883    1.8912    8.7433 H   0  0  0  0  0  0  0  0  0  0  0  0
   -1.1856   -4.3208    7.9325 H   0  0  0  0  0  0  0  0  0  0  0  0
   -2.9503    0.5115    4.2744 H   0  0  0  0  0  0  0  0  0  0  0  0
   -6.3381   -2.3552    6.5175 H   0  0  0  0  0  0  0  0  0  0  0  0
  1  2  2  3
  2  3  1  0
  3  4  2  0
  3  5  1  0
  5  6  2  0
  6  7  1  0
  7  8  2  0
  8  9  1  0
  9 10  2  0
 10 11  1  0
 11 12  2  3
 12 13  1  0
 13 14  3  0
 12 15  1  0
 15 16  3  0
  8 17  1  0
 17 18  1  0
 18 19  1  0
 19 20  2  0
 20 21  1  0
 21 22  1  0
 21 23  1  0
  1 24  1  0
 24 25  2  0
 25 26  1  0
 26 27  1  0
 27 28  1  0
 28 29  1  0
 26 30  2  0
 30 31  1  0
 30 32  1  0
 32 33  2  0
 33 34  1  0
 34 35  2  0
 35 36  1  0
 36 37  2  0
 37 38  1  0
 38 39  1  0
 39 40  1  0
 38 41  2  0
 33 42  1  0
 42 43  1  0
 43 44  1  0
 44 45  1  0
 45 46  1  0
 46 47  1  0
 47 48  2  0
 48 49  1  0
 49 50  1  0
 47 51  1  0
 51 52  1  0
 52 53  1  0
 53 54  1  0
 54 55  1  0
 55 56  1  0
 56 57  2  0
 57 58  1  0
 58 59  2  0
 59 60  1  0
 60 61  1  0
 61 62  1  0
 60 63  2  0
 55 64  2  0
 64 65  1  0
 65 66  1  0
 66 67  1  0
 67 68  1  0
 68 69  1  0
 69 70  1  0
 70 71  1  0
 71 72  1  0
 72 73  1  0
 73 74  1  0
 71 75  1  0
 75 76  1  0
 68 77  1  0
 77 78  1  0
 64 79  1  0
 79 80  2  0
 80 81  1  0
 81 82  1  0
 82 83  2  0
 83 84  1  0
 84 85  1  0
 85 86  1  0
 83 87  1  0
 87 88  2  0
 88 89  1  0
 89 90  2  0
 90 91  1  0
 91 92  1  0
 92 93  1  0
 81 94  2  0
 94 95  1  0
 94 96  1  0
 96 97  2  3
 97 98  1  0
 98 99  2  0
 98100  1  0
100101  2  0
101102  1  0
102103  1  0
102104  2  0
104105  1  0
104106  1  0
106107  2  0
107108  1  0
108109  2  3
109110  1  0
110111  3  0
109112  1  0
112113  3  0
 11  2  1  0
 23 17  1  0
 31 24  1  0
 74 32  1  0
 95 79  1  0
108 97  1  0
 10  5  1  0
 22 18  1  0
 41 34  1  0
 73 42  2  0
 90 82  1  0
107100  1  0
 23  7  1  0
 72 44  2  0
 70 45  2  0
 50 46  2  0
 69 51  2  0
 67 52  2  0
 66 54  2  0
 63 56  1  0
  1114  1  0
  6115  1  0
  9116  1  0
 17117  1  0
 18118  1  0
 19119  1  0
 20120  1  0
 21121  1  0
 22122  1  0
 22123  1  0
 23124  1  0
 25125  1  0
 28126  1  0
 28127  1  0
 29128  1  0
 29129  1  0
 29130  1  0
 35131  1  0
 36132  1  0
 37133  1  0
 39134  1  0
 39135  1  0
 40136  1  0
 40137  1  0
 40138  1  0
 41139  1  0
 57140  1  0
 58141  1  0
 59142  1  0
 61143  1  0
 61144  1  0
 62145  1  0
 62146  1  0
 62147  1  0
 63148  1  0
 75149  1  0
 75150  1  0
 76151  1  0
 76152  1  0
 76153  1  0
 77154  1  0
 77155  1  0
 78156  1  0
 78157  1  0
 78158  1  0
 80159  1  0
 85160  1  0
 85161  1  0
 86162  1  0
 86163  1  0
 86164  1  0
 87165  1  0
 88166  1  0
 89167  1  0
 92168  1  0
 92169  1  0
 93170  1  0
 93171  1  0
 93172  1  0
 96173  1  0
101174  1  0
106175  1  0
M  END

