
     RDKit          3D

164185  0  0  0  0  0  0  0  0999 V2000
    5.4921    6.0539   -2.5192 C   0  0  0  0  0  0  0  0  0  0  0  0
    6.0270    4.9477   -1.9609 C   0  0  0  0  0  0  0  0  0  0  0  0
    5.3340    3.6737   -1.7133 C   0  0  0  0  0  0  0  0  0  0  0  0
    4.4965    3.1140   -2.4745 O   0  0  0  0  0  0  0  0  0  0  0  0
    5.8754    3.0706   -0.5193 C   0  0  0  0  0  0  0  0  0  0  0  0
    5.3601    1.9480    0.1716 C   0  0  0  0  0  0  0  0  0  0  0  0
    5.9672    1.7130    1.3911 C   0  0  0  0  0  0  0  0  0  0  0  0
    7.0404    2.5168    1.8977 C   0  0  0  0  0  0  0  0  0  0  0  0
    7.5733    3.5956    1.2058 C   0  0  0  0  0  0  0  0  0  0  0  0
    6.9543    3.8595   -0.0502 C   0  0  0  0  0  0  0  0  0  0  0  0
    7.1899    4.9685   -1.0176 C   0  0  0  0  0  0  0  0  0  0  0  0
    8.3000    5.7379   -1.1265 C   0  0  0  0  0  0  0  0  0  0  0  0
    9.3884    5.6681   -0.1899 C   0  0  0  0  0  0  0  0  0  0  0  0
   10.2666    5.6281    0.5668 N   0  0  0  0  0  0  0  0  0  0  0  0
    8.5203    6.6076   -2.2569 C   0  0  0  0  0  0  0  0  0  0  0  0
    8.7091    7.3071   -3.1601 N   0  0  0  0  0  0  0  0  0  0  0  0
    7.0670    1.7121    3.1615 C   0  0  0  0  0  0  0  0  0  0  0  0
    8.2377    0.7013    3.3263 C   0  0  0  0  0  0  0  0  0  0  0  0
    7.8318   -0.2291    4.4435 C   0  0  0  0  0  0  0  0  0  0  0  0
    6.8333   -0.9840    3.9671 C   0  0  0  0  0  0  0  0  0  0  0  0
    6.5996   -0.5326    2.5438 C   0  0  0  0  0  0  0  0  0  0  0  0
    8.0385   -0.2459    2.1564 C   0  0  0  0  0  0  0  0  0  0  0  0
    5.9726    0.8862    2.6425 C   0  0  0  0  0  0  0  0  0  0  0  0
    4.0584    6.2087   -2.8151 C   0  0  0  0  0  0  0  0  0  0  0  0
    3.2328    7.0438   -2.0795 C   0  0  0  0  0  0  0  0  0  0  0  0
    1.8708    6.8236   -2.3091 C   0  0  0  0  0  0  0  0  0  0  0  0
    0.6235    7.5197   -1.2082 S   0  0  0  0  0  0  0  0  0  0  0  0
    0.1796    8.9566   -2.2438 C   0  0  0  0  0  0  0  0  0  0  0  0
    1.3521    9.9120   -2.4385 C   0  0  0  0  0  0  0  0  0  0  0  0
    1.6094    5.8497   -3.2747 C   0  0  0  0  0  0  0  0  0  0  0  0
    3.0884    5.2510   -3.8065 S   0  0  0  0  0  0  0  0  0  0  0  0
    0.3876    5.0457   -3.2880 C   0  0  0  0  0  0  0  0  0  0  0  0
   -0.5982    4.9422   -4.2981 C   0  0  0  0  0  0  0  0  0  0  0  0
   -0.5751    5.6119   -5.6303 C   0  0  0  0  0  0  0  0  0  0  0  0
   -0.0218    6.8952   -5.7954 C   0  0  0  0  0  0  0  0  0  0  0  0
   -0.0922    7.5494   -7.0265 C   0  0  0  0  0  0  0  0  0  0  0  0
   -0.7166    6.9366   -8.1172 C   0  0  0  0  0  0  0  0  0  0  0  0
   -1.2329    5.6391   -7.9925 C   0  0  0  0  0  0  0  0  0  0  0  0
   -1.9419    4.9824   -9.1474 C   0  0  0  0  0  0  0  0  0  0  0  0
   -3.4481    5.2020   -9.0523 C   0  0  0  0  0  0  0  0  0  0  0  0
   -1.1394    4.9778   -6.7571 C   0  0  0  0  0  0  0  0  0  0  0  0
   -1.6142    4.0658   -3.8723 C   0  0  0  0  0  0  0  0  0  0  0  0
   -3.0696    3.4986   -4.5627 S   0  0  0  0  0  0  0  0  0  0  0  0
   -3.3647    2.4904   -3.2336 C   0  0  0  0  0  0  0  0  0  0  0  0
   -4.1044    1.3785   -2.9785 C   0  0  0  0  0  0  0  0  0  0  0  0
   -5.0340    0.7218   -3.7937 C   0  0  0  0  0  0  0  0  0  0  0  0
   -5.4584   -0.5834   -3.4257 C   0  0  0  0  0  0  0  0  0  0  0  0
   -6.3413   -1.2031   -4.2493 N   0  0  0  0  0  0  0  0  0  0  0  0
   -6.5036   -0.0328   -5.4051 S   0  0  0  0  0  0  0  0  0  0  0  0
   -5.5313    1.2306   -4.9469 N   0  0  0  0  0  0  0  0  0  0  0  0
   -4.9484   -1.1467   -2.2569 C   0  0  0  0  0  0  0  0  0  0  0  0
   -5.1742   -2.3605   -1.6881 C   0  0  0  0  0  0  0  0  0  0  0  0
   -6.0366   -3.7946   -1.9834 S   0  0  0  0  0  0  0  0  0  0  0  0
   -5.4426   -4.4646   -0.5279 C   0  0  0  0  0  0  0  0  0  0  0  0
   -5.5744   -5.7109    0.0840 C   0  0  0  0  0  0  0  0  0  0  0  0
   -6.4255   -6.7925   -0.4282 C   0  0  0  0  0  0  0  0  0  0  0  0
   -6.2242   -7.3123   -1.7133 C   0  0  0  0  0  0  0  0  0  0  0  0
   -7.0799   -8.2952   -2.2139 C   0  0  0  0  0  0  0  0  0  0  0  0
   -8.1589   -8.7431   -1.4458 C   0  0  0  0  0  0  0  0  0  0  0  0
   -8.3840   -8.2106   -0.1643 C   0  0  0  0  0  0  0  0  0  0  0  0
   -9.5531   -8.6636    0.6652 C   0  0  0  0  0  0  0  0  0  0  0  0
   -9.1157   -9.6741    1.7212 C   0  0  0  0  0  0  0  0  0  0  0  0
   -7.4974   -7.2532    0.3479 C   0  0  0  0  0  0  0  0  0  0  0  0
   -4.8085   -5.7689    1.2639 C   0  0  0  0  0  0  0  0  0  0  0  0
   -3.9897   -4.2901    1.5073 S   0  0  0  0  0  0  0  0  0  0  0  0
   -4.6422   -3.5763    0.1446 C   0  0  0  0  0  0  0  0  0  0  0  0
   -4.4835   -2.3819   -0.5284 C   0  0  0  0  0  0  0  0  0  0  0  0
   -3.8246   -1.2307   -0.2679 N   0  0  0  0  0  0  0  0  0  0  0  0
   -4.0546   -0.4732   -1.4005 C   0  0  0  0  0  0  0  0  0  0  0  0
   -3.5571    0.8037   -1.8117 C   0  0  0  0  0  0  0  0  0  0  0  0
   -2.4463    1.5219   -1.4144 N   0  0  0  0  0  0  0  0  0  0  0  0
   -2.3893    2.5484   -2.3019 C   0  0  0  0  0  0  0  0  0  0  0  0
   -1.3988    3.4614   -2.6532 C   0  0  0  0  0  0  0  0  0  0  0  0
    0.0310    4.0086   -1.9913 S   0  0  0  0  0  0  0  0  0  0  0  0
   -1.3393    1.1361   -0.5274 C   0  0  0  0  0  0  0  0  0  0  0  0
   -0.6374   -0.1267   -1.0210 C   0  0  0  0  0  0  0  0  0  0  0  0
   -3.4313   -0.8254    1.0884 C   0  0  0  0  0  0  0  0  0  0  0  0
   -4.1605    0.4385    1.5462 C   0  0  0  0  0  0  0  0  0  0  0  0
   -4.5316   -6.9455    2.0860 C   0  0  0  0  0  0  0  0  0  0  0  0
   -5.1437   -7.1590    3.3223 C   0  0  0  0  0  0  0  0  0  0  0  0
   -6.2925   -6.5385    3.6747 F   0  0  0  0  0  0  0  0  0  0  0  0
   -4.3067   -7.7593    4.2766 C   0  0  0  0  0  0  0  0  0  0  0  0
   -4.6304   -7.7844    5.5892 F   0  0  0  0  0  0  0  0  0  0  0  0
   -3.0121   -7.9879    3.8169 C   0  0  0  0  0  0  0  0  0  0  0  0
   -2.9572   -7.5045    2.2134 S   0  0  0  0  0  0  0  0  0  0  0  0
   -1.8023   -7.9127    4.6516 C   0  0  0  0  0  0  0  0  0  0  0  0
   -1.2656   -6.7157    4.9894 C   0  0  0  0  0  0  0  0  0  0  0  0
   -1.8790   -5.4176    4.6949 C   0  0  0  0  0  0  0  0  0  0  0  0
   -3.1202   -5.1766    4.6485 O   0  0  0  0  0  0  0  0  0  0  0  0
   -0.8615   -4.4047    4.6267 C   0  0  0  0  0  0  0  0  0  0  0  0
   -1.0360   -3.0450    4.2846 C   0  0  0  0  0  0  0  0  0  0  0  0
    0.1143   -2.2944    4.3632 C   0  0  0  0  0  0  0  0  0  0  0  0
    1.3753   -2.8377    4.7728 C   0  0  0  0  0  0  0  0  0  0  0  0
    1.5542   -4.1721    5.1037 C   0  0  0  0  0  0  0  0  0  0  0  0
    0.3851   -4.9793    4.9967 C   0  0  0  0  0  0  0  0  0  0  0  0
    0.1752   -6.4325    5.2984 C   0  0  0  0  0  0  0  0  0  0  0  0
    1.0798   -7.2987    5.8186 C   0  0  0  0  0  0  0  0  0  0  0  0
    0.7021   -8.5859    6.3424 C   0  0  0  0  0  0  0  0  0  0  0  0
    0.4220   -9.6251    6.7723 N   0  0  0  0  0  0  0  0  0  0  0  0
    2.4867   -7.0027    5.8852 C   0  0  0  0  0  0  0  0  0  0  0  0
    3.6272   -6.7815    5.9117 N   0  0  0  0  0  0  0  0  0  0  0  0
    2.0043   -1.4790    4.6801 C   0  0  0  0  0  0  0  0  0  0  0  0
    2.2685   -0.7409    6.0264 C   0  0  0  0  0  0  0  0  0  0  0  0
    2.5336    0.6991    5.6633 C   0  0  0  0  0  0  0  0  0  0  0  0
    1.3650    1.2048    5.2463 C   0  0  0  0  0  0  0  0  0  0  0  0
    0.3543    0.0919    5.3484 C   0  0  0  0  0  0  0  0  0  0  0  0
    0.8710   -0.5800    6.6068 C   0  0  0  0  0  0  0  0  0  0  0  0
    0.7215   -0.9318    4.2337 C   0  0  0  0  0  0  0  0  0  0  0  0
    6.0158    6.9903   -2.4110 H   0  0  0  0  0  0  0  0  0  0  0  0
    4.5226    1.3635   -0.1806 H   0  0  0  0  0  0  0  0  0  0  0  0
    8.3372    4.2098    1.6501 H   0  0  0  0  0  0  0  0  0  0  0  0
    6.8076    2.2968    4.0718 H   0  0  0  0  0  0  0  0  0  0  0  0
    9.2495    1.1492    3.4264 H   0  0  0  0  0  0  0  0  0  0  0  0
    8.3114   -0.3408    5.4108 H   0  0  0  0  0  0  0  0  0  0  0  0
    6.3638   -1.8140    4.4804 H   0  0  0  0  0  0  0  0  0  0  0  0
    6.0591   -1.2597    1.9022 H   0  0  0  0  0  0  0  0  0  0  0  0
    8.6982   -1.1430    2.1949 H   0  0  0  0  0  0  0  0  0  0  0  0
    8.1506    0.2333    1.1584 H   0  0  0  0  0  0  0  0  0  0  0  0
    5.0250    0.9513    3.2222 H   0  0  0  0  0  0  0  0  0  0  0  0
    3.6001    7.6975   -1.2961 H   0  0  0  0  0  0  0  0  0  0  0  0
   -0.2100    8.6224   -3.2224 H   0  0  0  0  0  0  0  0  0  0  0  0
   -0.6372    9.4986   -1.7264 H   0  0  0  0  0  0  0  0  0  0  0  0
    0.9862   10.8488   -2.9063 H   0  0  0  0  0  0  0  0  0  0  0  0
    1.8172   10.1603   -1.4622 H   0  0  0  0  0  0  0  0  0  0  0  0
    2.1121    9.4653   -3.1114 H   0  0  0  0  0  0  0  0  0  0  0  0
    0.4396    7.4122   -4.9737 H   0  0  0  0  0  0  0  0  0  0  0  0
    0.3139    8.5459   -7.1329 H   0  0  0  0  0  0  0  0  0  0  0  0
   -0.7797    7.4648   -9.0594 H   0  0  0  0  0  0  0  0  0  0  0  0
   -1.7332    3.8893   -9.1468 H   0  0  0  0  0  0  0  0  0  0  0  0
   -1.5719    5.3899  -10.1117 H   0  0  0  0  0  0  0  0  0  0  0  0
   -3.9539    4.6928   -9.8965 H   0  0  0  0  0  0  0  0  0  0  0  0
   -3.8410    4.7791   -8.1029 H   0  0  0  0  0  0  0  0  0  0  0  0
   -3.6812    6.2870   -9.0933 H   0  0  0  0  0  0  0  0  0  0  0  0
   -1.5086    3.9642   -6.6901 H   0  0  0  0  0  0  0  0  0  0  0  0
   -5.4026   -6.9550   -2.3248 H   0  0  0  0  0  0  0  0  0  0  0  0
   -6.9162   -8.7002   -3.2064 H   0  0  0  0  0  0  0  0  0  0  0  0
   -8.8258   -9.4922   -1.8548 H   0  0  0  0  0  0  0  0  0  0  0  0
  -10.0149   -7.7849    1.1659 H   0  0  0  0  0  0  0  0  0  0  0  0
  -10.3348   -9.1219    0.0202 H   0  0  0  0  0  0  0  0  0  0  0  0
   -9.9988  -10.0099    2.2980 H   0  0  0  0  0  0  0  0  0  0  0  0
   -8.3851   -9.2101    2.4202 H   0  0  0  0  0  0  0  0  0  0  0  0
   -8.6477  -10.5598    1.2387 H   0  0  0  0  0  0  0  0  0  0  0  0
   -7.6651   -6.8422    1.3335 H   0  0  0  0  0  0  0  0  0  0  0  0
   -0.5755    1.9303   -0.4793 H   0  0  0  0  0  0  0  0  0  0  0  0
   -1.6765    1.0710    0.5126 H   0  0  0  0  0  0  0  0  0  0  0  0
   -1.3395   -0.9806   -1.0925 H   0  0  0  0  0  0  0  0  0  0  0  0
    0.1739   -0.3999   -0.3129 H   0  0  0  0  0  0  0  0  0  0  0  0
   -0.1928    0.0563   -2.0234 H   0  0  0  0  0  0  0  0  0  0  0  0
   -3.7184   -1.6109    1.8185 H   0  0  0  0  0  0  0  0  0  0  0  0
   -2.3355   -0.7766    1.1903 H   0  0  0  0  0  0  0  0  0  0  0  0
   -3.8642    0.6824    2.5872 H   0  0  0  0  0  0  0  0  0  0  0  0
   -3.9338    1.3077    0.9006 H   0  0  0  0  0  0  0  0  0  0  0  0
   -5.2584    0.2640    1.5228 H   0  0  0  0  0  0  0  0  0  0  0  0
   -1.2196   -8.8214    4.7206 H   0  0  0  0  0  0  0  0  0  0  0  0
   -1.9985   -2.6240    4.0229 H   0  0  0  0  0  0  0  0  0  0  0  0
    2.5224   -4.5164    5.4288 H   0  0  0  0  0  0  0  0  0  0  0  0
    2.8234   -1.4182    3.9323 H   0  0  0  0  0  0  0  0  0  0  0  0
    3.0188   -1.2088    6.6954 H   0  0  0  0  0  0  0  0  0  0  0  0
    3.4507    1.2606    5.8217 H   0  0  0  0  0  0  0  0  0  0  0  0
    1.1755    2.2463    5.0006 H   0  0  0  0  0  0  0  0  0  0  0  0
   -0.7070    0.4191    5.3775 H   0  0  0  0  0  0  0  0  0  0  0  0
    0.8436    0.0843    7.5037 H   0  0  0  0  0  0  0  0  0  0  0  0
    0.3580   -1.5328    6.8581 H   0  0  0  0  0  0  0  0  0  0  0  0
    0.7209   -0.5361    3.1929 H   0  0  0  0  0  0  0  0  0  0  0  0
  1  2  2  3
  2  3  1  0
  3  4  2  0
  3  5  1  0
  5  6  2  0
  6  7  1  0
  7  8  2  0
  8  9  1  0
  9 10  2  0
 10 11  1  0
 11 12  2  3
 12 13  1  0
 13 14  3  0
 12 15  1  0
 15 16  3  0
  8 17  1  0
 17 18  1  0
 18 19  1  0
 19 20  2  0
 20 21  1  0
 21 22  1  0
 21 23  1  0
  1 24  1  0
 24 25  2  0
 25 26  1  0
 26 27  1  0
 27 28  1  0
 28 29  1  0
 26 30  2  0
 30 31  1  0
 30 32  1  0
 32 33  2  0
 33 34  1  0
 34 35  2  0
 35 36  1  0
 36 37  2  0
 37 38  1  0
 38 39  1  0
 39 40  1  0
 38 41  2  0
 33 42  1  0
 42 43  1  0
 43 44  1  0
 44 45  1  0
 45 46  1  0
 46 47  1  0
 47 48  2  0
 48 49  1  0
 49 50  1  0
 47 51  1  0
 51 52  1  0
 52 53  1  0
 53 54  1  0
 54 55  1  0
 55 56  1  0
 56 57  2  0
 57 58  1  0
 58 59  2  0
 59 60  1  0
 60 61  1  0
 61 62  1  0
 60 63  2  0
 55 64  2  0
 64 65  1  0
 65 66  1  0
 66 67  1  0
 67 68  1  0
 68 69  1  0
 69 70  1  0
 70 71  1  0
 71 72  1  0
 72 73  1  0
 73 74  1  0
 71 75  1  0
 75 76  1  0
 68 77  1  0
 77 78  1  0
 64 79  1  0
 79 80  2  0
 80 81  1  0
 80 82  1  0
 82 83  1  0
 82 84  2  0
 84 85  1  0
 84 86  1  0
 86 87  2  3
 87 88  1  0
 88 89  2  0
 88 90  1  0
 90 91  2  0
 91 92  1  0
 92 93  2  0
 93 94  1  0
 94 95  2  0
 95 96  1  0
 96 97  2  3
 97 98  1  0
 98 99  3  0
 97100  1  0
100101  3  0
 93102  1  0
102103  1  0
103104  1  0
104105  2  0
105106  1  0
106107  1  0
106108  1  0
 11  2  1  0
 23 17  1  0
 31 24  1  0
 74 32  1  0
 85 79  1  0
 96 87  1  0
108102  1  0
 10  5  1  0
 22 18  1  0
 41 34  1  0
 73 42  2  0
 95 90  1  0
107103  1  0
 23  7  1  0
 72 44  2  0
108 92  1  0
 70 45  2  0
 50 46  2  0
 69 51  2  0
 67 52  2  0
 66 54  2  0
 63 56  1  0
  1109  1  0
  6110  1  0
  9111  1  0
 17112  1  0
 18113  1  0
 19114  1  0
 20115  1  0
 21116  1  0
 22117  1  0
 22118  1  0
 23119  1  0
 25120  1  0
 28121  1  0
 28122  1  0
 29123  1  0
 29124  1  0
 29125  1  0
 35126  1  0
 36127  1  0
 37128  1  0
 39129  1  0
 39130  1  0
 40131  1  0
 40132  1  0
 40133  1  0
 41134  1  0
 57135  1  0
 58136  1  0
 59137  1  0
 61138  1  0
 61139  1  0
 62140  1  0
 62141  1  0
 62142  1  0
 63143  1  0
 75144  1  0
 75145  1  0
 76146  1  0
 76147  1  0
 76148  1  0
 77149  1  0
 77150  1  0
 78151  1  0
 78152  1  0
 78153  1  0
 86154  1  0
 91155  1  0
 94156  1  0
102157  1  0
103158  1  0
104159  1  0
105160  1  0
106161  1  0
107162  1  0
107163  1  0
108164  1  0
M  END

