
     RDKit          3D

284313  0  0  0  0  0  0  0  0999 V2000
  -10.8794   -3.6746   -4.8209 C   0  0  0  0  0  0  0  0  0  0  0  0
  -11.3099   -2.4433   -4.4701 C   0  0  0  0  0  0  0  0  0  0  0  0
  -10.6877   -1.1750   -4.8868 C   0  0  0  0  0  0  0  0  0  0  0  0
   -9.6755   -1.0455   -5.6296 O   0  0  0  0  0  0  0  0  0  0  0  0
  -11.5035   -0.0691   -4.4168 C   0  0  0  0  0  0  0  0  0  0  0  0
  -11.1363    1.2941   -4.3820 C   0  0  0  0  0  0  0  0  0  0  0  0
  -11.8819    2.0405   -3.4871 C   0  0  0  0  0  0  0  0  0  0  0  0
  -12.9303    1.4892   -2.6770 C   0  0  0  0  0  0  0  0  0  0  0  0
  -13.3402    0.1652   -2.7631 C   0  0  0  0  0  0  0  0  0  0  0  0
  -12.6162   -0.6103   -3.7165 C   0  0  0  0  0  0  0  0  0  0  0  0
  -12.5861   -2.0781   -3.8005 C   0  0  0  0  0  0  0  0  0  0  0  0
  -13.4693   -2.8976   -3.1950 C   0  0  0  0  0  0  0  0  0  0  0  0
  -14.8704   -2.6841   -3.4933 C   0  0  0  0  0  0  0  0  0  0  0  0
  -15.9475   -2.4843   -3.8577 N   0  0  0  0  0  0  0  0  0  0  0  0
  -13.0451   -4.1390   -2.6054 C   0  0  0  0  0  0  0  0  0  0  0  0
  -12.6694   -5.1234   -2.1236 N   0  0  0  0  0  0  0  0  0  0  0  0
  -13.0101    2.7568   -1.8876 C   0  0  0  0  0  0  0  0  0  0  0  0
  -12.3343    2.7389   -0.4744 C   0  0  0  0  0  0  0  0  0  0  0  0
  -12.2440    4.1892   -0.0499 C   0  0  0  0  0  0  0  0  0  0  0  0
  -11.3270    4.7646   -0.8407 C   0  0  0  0  0  0  0  0  0  0  0  0
  -10.8186    3.6739   -1.7634 C   0  0  0  0  0  0  0  0  0  0  0  0
  -10.8616    2.5061   -0.7918 C   0  0  0  0  0  0  0  0  0  0  0  0
  -11.9778    3.3485   -2.7525 C   0  0  0  0  0  0  0  0  0  0  0  0
   -9.4546   -3.9652   -4.7610 C   0  0  0  0  0  0  0  0  0  0  0  0
   -8.6933   -4.6167   -5.7223 C   0  0  0  0  0  0  0  0  0  0  0  0
   -7.3995   -4.9467   -5.2555 C   0  0  0  0  0  0  0  0  0  0  0  0
   -6.2258   -5.8261   -6.2871 S   0  0  0  0  0  0  0  0  0  0  0  0
   -5.2908   -4.3486   -6.8099 C   0  0  0  0  0  0  0  0  0  0  0  0
   -6.0847   -3.4952   -7.7902 C   0  0  0  0  0  0  0  0  0  0  0  0
   -7.1894   -4.5934   -3.9045 C   0  0  0  0  0  0  0  0  0  0  0  0
   -8.5819   -3.8503   -3.3373 S   0  0  0  0  0  0  0  0  0  0  0  0
   -6.0372   -4.8651   -3.0285 C   0  0  0  0  0  0  0  0  0  0  0  0
   -5.9588   -4.4380   -1.7019 C   0  0  0  0  0  0  0  0  0  0  0  0
   -4.7809   -4.8334   -1.0568 C   0  0  0  0  0  0  0  0  0  0  0  0
   -4.4549   -4.5651    0.2795 C   0  0  0  0  0  0  0  0  0  0  0  0
   -5.3454   -3.9102    1.1412 O   0  0  0  0  0  0  0  0  0  0  0  0
   -6.5343   -4.5412    1.6122 C   0  0  0  0  0  0  0  0  0  0  0  0
   -6.1911   -5.6759    2.5667 C   0  0  0  0  0  0  0  0  0  0  0  0
   -3.2092   -4.9886    0.7424 C   0  0  0  0  0  0  0  0  0  0  0  0
   -2.5545   -4.6847    2.2781 S   0  0  0  0  0  0  0  0  0  0  0  0
   -1.1517   -5.5424    1.9292 C   0  0  0  0  0  0  0  0  0  0  0  0
    0.1860   -5.5041    2.4697 C   0  0  0  0  0  0  0  0  0  0  0  0
    1.0375   -5.9988    1.4828 C   0  0  0  0  0  0  0  0  0  0  0  0
    0.2714   -6.4313    0.2309 C   0  0  0  0  0  0  0  0  0  0  0  0
   -1.1275   -5.9882    0.6391 C   0  0  0  0  0  0  0  0  0  0  0  0
   -2.3094   -5.6948   -0.0746 C   0  0  0  0  0  0  0  0  0  0  0  0
   -2.6366   -5.9783   -1.4280 C   0  0  0  0  0  0  0  0  0  0  0  0
   -3.8985   -5.5429   -1.8799 C   0  0  0  0  0  0  0  0  0  0  0  0
   -4.6544   -5.7527   -3.3835 S   0  0  0  0  0  0  0  0  0  0  0  0
   -1.7410   -6.6708   -2.2515 O   0  0  0  0  0  0  0  0  0  0  0  0
   -1.3517   -6.2228   -3.5510 C   0  0  0  0  0  0  0  0  0  0  0  0
   -0.7595   -7.3760   -4.3407 C   0  0  0  0  0  0  0  0  0  0  0  0
    0.7840   -5.5994   -0.9507 C   0  0  0  0  0  0  0  0  0  0  0  0
    1.5829   -6.1476   -1.9813 C   0  0  0  0  0  0  0  0  0  0  0  0
    2.1510   -5.3219   -2.9560 C   0  0  0  0  0  0  0  0  0  0  0  0
    1.9600   -3.9324   -2.9049 C   0  0  0  0  0  0  0  0  0  0  0  0
    2.5426   -3.0287   -3.9545 C   0  0  0  0  0  0  0  0  0  0  0  0
    1.5077   -2.7276   -5.0315 C   0  0  0  0  0  0  0  0  0  0  0  0
    1.1790   -3.3775   -1.8897 C   0  0  0  0  0  0  0  0  0  0  0  0
    0.6090   -4.1963   -0.9218 C   0  0  0  0  0  0  0  0  0  0  0  0
    0.3494   -7.9608    0.0709 C   0  0  0  0  0  0  0  0  0  0  0  0
    1.5919   -8.6279    0.1572 C   0  0  0  0  0  0  0  0  0  0  0  0
    1.6535  -10.0199    0.1917 C   0  0  0  0  0  0  0  0  0  0  0  0
    0.4818  -10.7883    0.1322 C   0  0  0  0  0  0  0  0  0  0  0  0
    0.5417  -12.2763    0.3135 C   0  0  0  0  0  0  0  0  0  0  0  0
    0.2830  -12.6387    1.7722 C   0  0  0  0  0  0  0  0  0  0  0  0
   -0.7515  -10.1437    0.0065 C   0  0  0  0  0  0  0  0  0  0  0  0
   -0.8158   -8.7527   -0.0328 C   0  0  0  0  0  0  0  0  0  0  0  0
    2.4213   -5.7315    1.5365 C   0  0  0  0  0  0  0  0  0  0  0  0
    2.8870   -4.9240    2.5672 C   0  0  0  0  0  0  0  0  0  0  0  0
    4.0129   -4.0444    2.4872 C   0  0  0  0  0  0  0  0  0  0  0  0
    3.8145   -2.9294    3.2631 C   0  0  0  0  0  0  0  0  0  0  0  0
    2.7112   -3.2439    4.2970 C   0  0  0  0  0  0  0  0  0  0  0  0
    2.0382   -4.4077    3.5485 C   0  0  0  0  0  0  0  0  0  0  0  0
    0.6621   -4.7392    3.5455 C   0  0  0  0  0  0  0  0  0  0  0  0
    3.3174   -3.8299    5.5848 C   0  0  0  0  0  0  0  0  0  0  0  0
    2.5263   -4.6243    6.4464 C   0  0  0  0  0  0  0  0  0  0  0  0
    3.0573   -5.1559    7.6261 C   0  0  0  0  0  0  0  0  0  0  0  0
    4.3925   -4.9115    7.9687 C   0  0  0  0  0  0  0  0  0  0  0  0
    4.9711   -5.4782    9.2347 C   0  0  0  0  0  0  0  0  0  0  0  0
    4.9465   -4.4398   10.3511 C   0  0  0  0  0  0  0  0  0  0  0  0
    5.1730   -4.0810    7.1538 C   0  0  0  0  0  0  0  0  0  0  0  0
    4.6412   -3.5349    5.9893 C   0  0  0  0  0  0  0  0  0  0  0  0
    1.7212   -2.1001    4.5724 C   0  0  0  0  0  0  0  0  0  0  0  0
    0.8310   -1.6775    3.5592 C   0  0  0  0  0  0  0  0  0  0  0  0
   -0.2091   -0.7915    3.8576 C   0  0  0  0  0  0  0  0  0  0  0  0
   -0.3398   -0.2517    5.1424 C   0  0  0  0  0  0  0  0  0  0  0  0
   -1.4030    0.7638    5.4328 C   0  0  0  0  0  0  0  0  0  0  0  0
   -0.9293    2.1594    5.0515 C   0  0  0  0  0  0  0  0  0  0  0  0
    0.5728   -0.6215    6.1390 C   0  0  0  0  0  0  0  0  0  0  0  0
    1.5859   -1.5363    5.8663 C   0  0  0  0  0  0  0  0  0  0  0  0
    4.6391   -1.8454    2.8653 C   0  0  0  0  0  0  0  0  0  0  0  0
    4.6287   -0.4816    3.2832 C   0  0  0  0  0  0  0  0  0  0  0  0
    3.6833   -0.0666    4.2376 O   0  0  0  0  0  0  0  0  0  0  0  0
    3.1390    1.2458    4.3752 C   0  0  0  0  0  0  0  0  0  0  0  0
    2.3641    1.6695    3.1280 C   0  0  0  0  0  0  0  0  0  0  0  0
    5.5349    0.3986    2.6054 C   0  0  0  0  0  0  0  0  0  0  0  0
    6.3590   -0.0300    1.5566 C   0  0  0  0  0  0  0  0  0  0  0  0
    6.3383   -1.3622    1.1411 C   0  0  0  0  0  0  0  0  0  0  0  0
    7.1053   -1.7873    0.0554 O   0  0  0  0  0  0  0  0  0  0  0  0
    8.4648   -2.1777    0.2198 C   0  0  0  0  0  0  0  0  0  0  0  0
    9.1809   -2.0732   -1.1139 C   0  0  0  0  0  0  0  0  0  0  0  0
    5.4692   -2.2397    1.7890 C   0  0  0  0  0  0  0  0  0  0  0  0
    5.1465   -3.8199    1.2795 S   0  0  0  0  0  0  0  0  0  0  0  0
    7.0507    0.9946    0.8843 C   0  0  0  0  0  0  0  0  0  0  0  0
    6.7412    2.2681    1.3703 C   0  0  0  0  0  0  0  0  0  0  0  0
    5.6837    2.0785    2.6721 S   0  0  0  0  0  0  0  0  0  0  0  0
    6.8364    3.5185    0.5854 C   0  0  0  0  0  0  0  0  0  0  0  0
    6.4434    4.7693    1.1023 C   0  0  0  0  0  0  0  0  0  0  0  0
    6.6392    5.1380    2.4874 N   0  0  0  0  0  0  0  0  0  0  0  0
    5.7300    6.0202    3.1496 C   0  0  0  0  0  0  0  0  0  0  0  0
    5.8980    7.4086    3.0500 C   0  0  0  0  0  0  0  0  0  0  0  0
    4.9614    8.2709    3.6233 C   0  0  0  0  0  0  0  0  0  0  0  0
    3.8875    7.7584    4.3687 C   0  0  0  0  0  0  0  0  0  0  0  0
    2.9234    8.6952    5.0330 C   0  0  0  0  0  0  0  0  0  0  0  0
    3.7745    6.3689    4.5448 C   0  0  0  0  0  0  0  0  0  0  0  0
    4.6731    5.5027    3.9187 C   0  0  0  0  0  0  0  0  0  0  0  0
    7.8499    4.7233    3.1523 C   0  0  0  0  0  0  0  0  0  0  0  0
    7.8017    4.1190    4.4267 C   0  0  0  0  0  0  0  0  0  0  0  0
    8.9624    3.5630    4.9794 C   0  0  0  0  0  0  0  0  0  0  0  0
   10.1778    3.6070    4.2770 C   0  0  0  0  0  0  0  0  0  0  0  0
   11.4154    2.9989    4.8604 C   0  0  0  0  0  0  0  0  0  0  0  0
   10.2318    4.2511    3.0376 C   0  0  0  0  0  0  0  0  0  0  0  0
    9.0788    4.8021    2.4751 C   0  0  0  0  0  0  0  0  0  0  0  0
    5.9758    5.6098    0.0823 C   0  0  0  0  0  0  0  0  0  0  0  0
    4.9196    6.9057    0.0718 S   0  0  0  0  0  0  0  0  0  0  0  0
    4.4571    6.7137   -1.5545 C   0  0  0  0  0  0  0  0  0  0  0  0
    5.2350    5.7083   -2.1333 C   0  0  0  0  0  0  0  0  0  0  0  0
    5.4495    5.5912   -3.5519 N   0  0  0  0  0  0  0  0  0  0  0  0
    4.6091    4.7436   -4.3505 C   0  0  0  0  0  0  0  0  0  0  0  0
    4.0428    5.2333   -5.5428 C   0  0  0  0  0  0  0  0  0  0  0  0
    3.3307    4.3805   -6.3943 C   0  0  0  0  0  0  0  0  0  0  0  0
    3.1728    3.0232   -6.0698 C   0  0  0  0  0  0  0  0  0  0  0  0
    2.4258    2.0977   -6.9796 C   0  0  0  0  0  0  0  0  0  0  0  0
    3.7222    2.5347   -4.8727 C   0  0  0  0  0  0  0  0  0  0  0  0
    4.4264    3.3915   -4.0128 C   0  0  0  0  0  0  0  0  0  0  0  0
    6.4584    6.4259   -4.1788 C   0  0  0  0  0  0  0  0  0  0  0  0
    7.2040    5.9320   -5.2690 C   0  0  0  0  0  0  0  0  0  0  0  0
    8.1810    6.7277   -5.8815 C   0  0  0  0  0  0  0  0  0  0  0  0
    8.4283    8.0288   -5.4119 C   0  0  0  0  0  0  0  0  0  0  0  0
    9.4335    8.8991   -6.1069 C   0  0  0  0  0  0  0  0  0  0  0  0
    7.6746    8.5302   -4.3480 C   0  0  0  0  0  0  0  0  0  0  0  0
    6.7051    7.7411   -3.7261 C   0  0  0  0  0  0  0  0  0  0  0  0
    6.0530    5.0895   -1.1800 C   0  0  0  0  0  0  0  0  0  0  0  0
    6.6840    3.5457   -1.1126 S   0  0  0  0  0  0  0  0  0  0  0  0
    3.3148    7.3867   -2.2206 C   0  0  0  0  0  0  0  0  0  0  0  0
    2.0556    7.4265   -1.7205 C   0  0  0  0  0  0  0  0  0  0  0  0
    1.5594    6.7948   -0.4707 C   0  0  0  0  0  0  0  0  0  0  0  0
    2.1994    6.0689    0.3380 O   0  0  0  0  0  0  0  0  0  0  0  0
    0.1267    6.9442   -0.3990 C   0  0  0  0  0  0  0  0  0  0  0  0
   -0.6635    6.6827    0.7378 C   0  0  0  0  0  0  0  0  0  0  0  0
   -1.9534    7.1514    0.6368 C   0  0  0  0  0  0  0  0  0  0  0  0
   -2.4546    7.7970   -0.5432 C   0  0  0  0  0  0  0  0  0  0  0  0
   -1.6854    8.0405   -1.6670 C   0  0  0  0  0  0  0  0  0  0  0  0
   -0.3444    7.5733   -1.5684 C   0  0  0  0  0  0  0  0  0  0  0  0
    0.8115    7.8884   -2.4407 C   0  0  0  0  0  0  0  0  0  0  0  0
    0.7440    8.3586   -3.7022 C   0  0  0  0  0  0  0  0  0  0  0  0
   -0.4259    8.1322   -4.5211 C   0  0  0  0  0  0  0  0  0  0  0  0
   -1.3523    7.8996   -5.1709 N   0  0  0  0  0  0  0  0  0  0  0  0
    1.7030    9.3275   -4.1645 C   0  0  0  0  0  0  0  0  0  0  0  0
    2.4207   10.1971   -4.4366 N   0  0  0  0  0  0  0  0  0  0  0  0
   -3.7907    7.9774    0.1107 C   0  0  0  0  0  0  0  0  0  0  0  0
   -4.9568    7.0276   -0.2943 C   0  0  0  0  0  0  0  0  0  0  0  0
   -4.4289    5.6607   -0.6664 C   0  0  0  0  0  0  0  0  0  0  0  0
   -3.9751    5.1059    0.4626 C   0  0  0  0  0  0  0  0  0  0  0  0
   -4.1846    6.1264    1.5581 C   0  0  0  0  0  0  0  0  0  0  0  0
   -5.5116    6.6958    1.0805 C   0  0  0  0  0  0  0  0  0  0  0  0
   -3.2628    7.3657    1.3327 C   0  0  0  0  0  0  0  0  0  0  0  0
  -11.5377   -4.5279   -4.7068 H   0  0  0  0  0  0  0  0  0  0  0  0
  -10.2416    1.6887   -4.8713 H   0  0  0  0  0  0  0  0  0  0  0  0
  -14.0526   -0.2695   -2.0546 H   0  0  0  0  0  0  0  0  0  0  0  0
  -14.0072    3.2516   -1.9425 H   0  0  0  0  0  0  0  0  0  0  0  0
  -12.7818    2.0527    0.2724 H   0  0  0  0  0  0  0  0  0  0  0  0
  -12.7472    4.6606    0.7857 H   0  0  0  0  0  0  0  0  0  0  0  0
  -10.9679    5.7879   -0.7608 H   0  0  0  0  0  0  0  0  0  0  0  0
   -9.8347    3.8846   -2.2282 H   0  0  0  0  0  0  0  0  0  0  0  0
  -10.6249    1.5190   -1.2557 H   0  0  0  0  0  0  0  0  0  0  0  0
  -10.1727    2.6411    0.0840 H   0  0  0  0  0  0  0  0  0  0  0  0
  -12.3254    4.1994   -3.3797 H   0  0  0  0  0  0  0  0  0  0  0  0
   -9.0641   -4.8852   -6.6917 H   0  0  0  0  0  0  0  0  0  0  0  0
   -4.3712   -4.7041   -7.3216 H   0  0  0  0  0  0  0  0  0  0  0  0
   -4.9794   -3.7400   -5.9336 H   0  0  0  0  0  0  0  0  0  0  0  0
   -6.6440   -4.1395   -8.4987 H   0  0  0  0  0  0  0  0  0  0  0  0
   -5.3951   -2.8530   -8.3763 H   0  0  0  0  0  0  0  0  0  0  0  0
   -6.8028   -2.8397   -7.2487 H   0  0  0  0  0  0  0  0  0  0  0  0
   -6.7335   -3.8592   -1.2251 H   0  0  0  0  0  0  0  0  0  0  0  0
   -7.1377   -4.9412    0.7722 H   0  0  0  0  0  0  0  0  0  0  0  0
   -7.1432   -3.7903    2.1575 H   0  0  0  0  0  0  0  0  0  0  0  0
   -5.6054   -5.2938    3.4224 H   0  0  0  0  0  0  0  0  0  0  0  0
   -5.5899   -6.4549    2.0522 H   0  0  0  0  0  0  0  0  0  0  0  0
   -7.1247   -6.1405    2.9501 H   0  0  0  0  0  0  0  0  0  0  0  0
   -2.1960   -5.8172   -4.1256 H   0  0  0  0  0  0  0  0  0  0  0  0
   -0.6150   -5.4067   -3.4567 H   0  0  0  0  0  0  0  0  0  0  0  0
    0.1260   -7.7915   -3.8237 H   0  0  0  0  0  0  0  0  0  0  0  0
   -0.4584   -7.0213   -5.3438 H   0  0  0  0  0  0  0  0  0  0  0  0
   -1.5191   -8.1765   -4.4570 H   0  0  0  0  0  0  0  0  0  0  0  0
    1.7579   -7.2108   -2.0520 H   0  0  0  0  0  0  0  0  0  0  0  0
    2.7359   -5.7653   -3.7524 H   0  0  0  0  0  0  0  0  0  0  0  0
    3.4355   -3.5019   -4.4108 H   0  0  0  0  0  0  0  0  0  0  0  0
    2.8677   -2.0730   -3.4817 H   0  0  0  0  0  0  0  0  0  0  0  0
    1.9648   -2.0669   -5.7946 H   0  0  0  0  0  0  0  0  0  0  0  0
    0.6227   -2.2161   -4.5898 H   0  0  0  0  0  0  0  0  0  0  0  0
    1.1788   -3.6680   -5.5233 H   0  0  0  0  0  0  0  0  0  0  0  0
    1.0121   -2.3081   -1.8295 H   0  0  0  0  0  0  0  0  0  0  0  0
    0.0617   -3.7196   -0.1204 H   0  0  0  0  0  0  0  0  0  0  0  0
    2.5154   -8.0751    0.2131 H   0  0  0  0  0  0  0  0  0  0  0  0
    2.6211  -10.4978    0.2963 H   0  0  0  0  0  0  0  0  0  0  0  0
   -0.2268  -12.7608   -0.3325 H   0  0  0  0  0  0  0  0  0  0  0  0
    1.5347  -12.6686   -0.0006 H   0  0  0  0  0  0  0  0  0  0  0  0
    1.0385  -12.1501    2.4245 H   0  0  0  0  0  0  0  0  0  0  0  0
   -0.7317  -12.3035    2.0758 H   0  0  0  0  0  0  0  0  0  0  0  0
    0.3497  -13.7407    1.9036 H   0  0  0  0  0  0  0  0  0  0  0  0
   -1.6784  -10.7168   -0.0219 H   0  0  0  0  0  0  0  0  0  0  0  0
   -1.8038   -8.3218   -0.1011 H   0  0  0  0  0  0  0  0  0  0  0  0
    3.0642   -5.9446    0.6893 H   0  0  0  0  0  0  0  0  0  0  0  0
   -0.0396   -4.2613    4.2181 H   0  0  0  0  0  0  0  0  0  0  0  0
    1.4916   -4.8210    6.2196 H   0  0  0  0  0  0  0  0  0  0  0  0
    2.4252   -5.7607    8.2648 H   0  0  0  0  0  0  0  0  0  0  0  0
    6.0182   -5.8065    9.0547 H   0  0  0  0  0  0  0  0  0  0  0  0
    4.3926   -6.3699    9.5536 H   0  0  0  0  0  0  0  0  0  0  0  0
    3.9014   -4.1302   10.5614 H   0  0  0  0  0  0  0  0  0  0  0  0
    5.3854   -4.8759   11.2748 H   0  0  0  0  0  0  0  0  0  0  0  0
    5.5393   -3.5456   10.0567 H   0  0  0  0  0  0  0  0  0  0  0  0
    6.2030   -3.8548    7.4212 H   0  0  0  0  0  0  0  0  0  0  0  0
    5.2836   -2.8964    5.3999 H   0  0  0  0  0  0  0  0  0  0  0  0
    0.9050   -2.0862    2.5585 H   0  0  0  0  0  0  0  0  0  0  0  0
   -0.8962   -0.5070    3.0702 H   0  0  0  0  0  0  0  0  0  0  0  0
   -1.6660    0.7484    6.5160 H   0  0  0  0  0  0  0  0  0  0  0  0
   -2.3269    0.5201    4.8667 H   0  0  0  0  0  0  0  0  0  0  0  0
    0.0037    2.4230    5.5951 H   0  0  0  0  0  0  0  0  0  0  0  0
   -0.7409    2.2127    3.9554 H   0  0  0  0  0  0  0  0  0  0  0  0
   -1.7115    2.9085    5.3030 H   0  0  0  0  0  0  0  0  0  0  0  0
    0.5035   -0.2018    7.1341 H   0  0  0  0  0  0  0  0  0  0  0  0
    2.2613   -1.7980    6.6736 H   0  0  0  0  0  0  0  0  0  0  0  0
    2.4457    1.2546    5.2403 H   0  0  0  0  0  0  0  0  0  0  0  0
    3.9249    1.9782    4.6314 H   0  0  0  0  0  0  0  0  0  0  0  0
    1.4791    1.0257    2.9827 H   0  0  0  0  0  0  0  0  0  0  0  0
    2.0267    2.7236    3.2343 H   0  0  0  0  0  0  0  0  0  0  0  0
    2.9958    1.5858    2.2151 H   0  0  0  0  0  0  0  0  0  0  0  0
    8.4934   -3.2246    0.5961 H   0  0  0  0  0  0  0  0  0  0  0  0
    8.9755   -1.5191    0.9595 H   0  0  0  0  0  0  0  0  0  0  0  0
    8.5492   -2.4939   -1.9329 H   0  0  0  0  0  0  0  0  0  0  0  0
   10.1379   -2.6371   -1.0688 H   0  0  0  0  0  0  0  0  0  0  0  0
    9.4350   -1.0050   -1.3050 H   0  0  0  0  0  0  0  0  0  0  0  0
    7.6396    0.8358   -0.0052 H   0  0  0  0  0  0  0  0  0  0  0  0
    6.7092    7.8083    2.4559 H   0  0  0  0  0  0  0  0  0  0  0  0
    5.0619    9.3398    3.4675 H   0  0  0  0  0  0  0  0  0  0  0  0
    1.9535    8.1862    5.2309 H   0  0  0  0  0  0  0  0  0  0  0  0
    3.3530    9.0475    5.9917 H   0  0  0  0  0  0  0  0  0  0  0  0
    2.7275    9.5696    4.3790 H   0  0  0  0  0  0  0  0  0  0  0  0
    2.9775    5.9501    5.1494 H   0  0  0  0  0  0  0  0  0  0  0  0
    4.5576    4.4334    4.0341 H   0  0  0  0  0  0  0  0  0  0  0  0
    6.8679    4.0080    4.9608 H   0  0  0  0  0  0  0  0  0  0  0  0
    8.9079    3.0749    5.9461 H   0  0  0  0  0  0  0  0  0  0  0  0
   11.1584    2.2207    5.6099 H   0  0  0  0  0  0  0  0  0  0  0  0
   12.0331    3.7928    5.3326 H   0  0  0  0  0  0  0  0  0  0  0  0
   12.0075    2.5056    4.0513 H   0  0  0  0  0  0  0  0  0  0  0  0
   11.1651    4.2971    2.4834 H   0  0  0  0  0  0  0  0  0  0  0  0
    9.1272    5.2434    1.4868 H   0  0  0  0  0  0  0  0  0  0  0  0
    4.1810    6.2651   -5.8325 H   0  0  0  0  0  0  0  0  0  0  0  0
    2.9308    4.7698   -7.3207 H   0  0  0  0  0  0  0  0  0  0  0  0
    2.0852    2.6279   -7.8954 H   0  0  0  0  0  0  0  0  0  0  0  0
    1.5333    1.7003   -6.4556 H   0  0  0  0  0  0  0  0  0  0  0  0
    3.0871    1.2561   -7.2811 H   0  0  0  0  0  0  0  0  0  0  0  0
    3.6258    1.4857   -4.6132 H   0  0  0  0  0  0  0  0  0  0  0  0
    4.8523    2.9910   -3.1021 H   0  0  0  0  0  0  0  0  0  0  0  0
    7.0221    4.9256   -5.6303 H   0  0  0  0  0  0  0  0  0  0  0  0
    8.7384    6.3243   -6.7092 H   0  0  0  0  0  0  0  0  0  0  0  0
    9.7801    9.7123   -5.4295 H   0  0  0  0  0  0  0  0  0  0  0  0
    8.9636    9.3528   -7.0064 H   0  0  0  0  0  0  0  0  0  0  0  0
   10.3202    8.3017   -6.4118 H   0  0  0  0  0  0  0  0  0  0  0  0
    7.8346    9.5427   -3.9901 H   0  0  0  0  0  0  0  0  0  0  0  0
    6.1378    8.1793   -2.9107 H   0  0  0  0  0  0  0  0  0  0  0  0
    3.4898    7.7061   -3.2402 H   0  0  0  0  0  0  0  0  0  0  0  0
   -0.2532    6.2329    1.6448 H   0  0  0  0  0  0  0  0  0  0  0  0
   -2.0597    8.6260   -2.4989 H   0  0  0  0  0  0  0  0  0  0  0  0
   -4.0957    9.0511    0.2489 H   0  0  0  0  0  0  0  0  0  0  0  0
   -5.6915    7.4598   -1.0088 H   0  0  0  0  0  0  0  0  0  0  0  0
   -4.4486    5.1926   -1.6463 H   0  0  0  0  0  0  0  0  0  0  0  0
   -3.5556    4.1115    0.5664 H   0  0  0  0  0  0  0  0  0  0  0  0
   -4.1918    5.7233    2.5918 H   0  0  0  0  0  0  0  0  0  0  0  0
   -6.3370    5.9339    1.0536 H   0  0  0  0  0  0  0  0  0  0  0  0
   -5.8453    7.5860    1.6568 H   0  0  0  0  0  0  0  0  0  0  0  0
   -3.1953    8.0762    2.1873 H   0  0  0  0  0  0  0  0  0  0  0  0
  1  2  2  3
  2  3  1  0
  3  4  2  0
  3  5  1  0
  5  6  2  0
  6  7  1  0
  7  8  2  0
  8  9  1  0
  9 10  2  0
 10 11  1  0
 11 12  2  3
 12 13  1  0
 13 14  3  0
 12 15  1  0
 15 16  3  0
  8 17  1  0
 17 18  1  0
 18 19  1  0
 19 20  2  0
 20 21  1  0
 21 22  1  0
 21 23  1  0
  1 24  1  0
 24 25  2  0
 25 26  1  0
 26 27  1  0
 27 28  1  0
 28 29  1  0
 26 30  2  0
 30 31  1  0
 30 32  1  0
 32 33  2  0
 33 34  1  0
 34 35  2  0
 35 36  1  0
 36 37  1  0
 37 38  1  0
 35 39  1  0
 39 40  1  0
 40 41  1  0
 41 42  1  0
 42 43  2  0
 43 44  1  0
 44 45  1  0
 45 46  1  0
 46 47  1  0
 47 48  2  0
 48 49  1  0
 47 50  1  0
 50 51  1  0
 51 52  1  0
 44 53  1  0
 53 54  2  0
 54 55  1  0
 55 56  2  0
 56 57  1  0
 57 58  1  0
 56 59  1  0
 59 60  2  0
 44 61  1  0
 61 62  2  0
 62 63  1  0
 63 64  2  0
 64 65  1  0
 65 66  1  0
 64 67  1  0
 67 68  2  0
 43 69  1  0
 69 70  2  0
 70 71  1  0
 71 72  2  0
 72 73  1  0
 73 74  1  0
 74 75  2  0
 73 76  1  0
 76 77  2  0
 77 78  1  0
 78 79  2  0
 79 80  1  0
 80 81  1  0
 79 82  1  0
 82 83  2  0
 73 84  1  0
 84 85  2  0
 85 86  1  0
 86 87  2  0
 87 88  1  0
 88 89  1  0
 87 90  1  0
 90 91  2  0
 72 92  1  0
 92 93  2  0
 93 94  1  0
 94 95  1  0
 95 96  1  0
 93 97  1  0
 97 98  2  0
 98 99  1  0
 99100  1  0
100101  1  0
101102  1  0
 99103  2  0
103104  1  0
 98105  1  0
105106  2  0
106107  1  0
106108  1  0
108109  2  0
109110  1  0
110111  1  0
111112  2  0
112113  1  0
113114  2  0
114115  1  0
114116  1  0
116117  2  0
110118  1  0
118119  2  0
119120  1  0
120121  2  0
121122  1  0
121123  1  0
123124  2  0
109125  1  0
125126  1  0
126127  1  0
127128  2  0
128129  1  0
129130  1  0
130131  2  0
131132  1  0
132133  2  0
133134  1  0
133135  1  0
135136  2  0
129137  1  0
137138  2  0
138139  1  0
139140  2  0
140141  1  0
140142  1  0
142143  2  0
128144  1  0
144145  1  0
127146  1  0
146147  2  3
147148  1  0
148149  2  0
148150  1  0
150151  2  0
151152  1  0
152153  2  0
153154  1  0
154155  2  0
155156  1  0
156157  2  3
157158  1  0
158159  3  0
157160  1  0
160161  3  0
153162  1  0
162163  1  0
163164  1  0
164165  2  0
165166  1  0
166167  1  0
166168  1  0
 11  2  1  0
 23 17  1  0
 31 24  1  0
 49 32  1  0
 60 53  1  0
 68 61  1  0
 74 70  1  0
 83 76  1  0
 91 84  1  0
103 92  1  0
145108  1  0
156147  1  0
168162  1  0
 10  5  1  0
 22 18  1  0
 48 34  1  0
104 71  1  0
117111  1  0
124118  1  0
144125  2  0
155150  1  0
167163  1  0
 23  7  1  0
 46 39  2  0
107 97  1  0
136130  1  0
143137  1  0
168152  1  0
 45 41  2  0
 75 42  1  0
  1169  1  0
  6170  1  0
  9171  1  0
 17172  1  0
 18173  1  0
 19174  1  0
 20175  1  0
 21176  1  0
 22177  1  0
 22178  1  0
 23179  1  0
 25180  1  0
 28181  1  0
 28182  1  0
 29183  1  0
 29184  1  0
 29185  1  0
 33186  1  0
 37187  1  0
 37188  1  0
 38189  1  0
 38190  1  0
 38191  1  0
 51192  1  0
 51193  1  0
 52194  1  0
 52195  1  0
 52196  1  0
 54197  1  0
 55198  1  0
 57199  1  0
 57200  1  0
 58201  1  0
 58202  1  0
 58203  1  0
 59204  1  0
 60205  1  0
 62206  1  0
 63207  1  0
 65208  1  0
 65209  1  0
 66210  1  0
 66211  1  0
 66212  1  0
 67213  1  0
 68214  1  0
 69215  1  0
 75216  1  0
 77217  1  0
 78218  1  0
 80219  1  0
 80220  1  0
 81221  1  0
 81222  1  0
 81223  1  0
 82224  1  0
 83225  1  0
 85226  1  0
 86227  1  0
 88228  1  0
 88229  1  0
 89230  1  0
 89231  1  0
 89232  1  0
 90233  1  0
 91234  1  0
 95235  1  0
 95236  1  0
 96237  1  0
 96238  1  0
 96239  1  0
101240  1  0
101241  1  0
102242  1  0
102243  1  0
102244  1  0
105245  1  0
112246  1  0
113247  1  0
115248  1  0
115249  1  0
115250  1  0
116251  1  0
117252  1  0
119253  1  0
120254  1  0
122255  1  0
122256  1  0
122257  1  0
123258  1  0
124259  1  0
131260  1  0
132261  1  0
134262  1  0
134263  1  0
134264  1  0
135265  1  0
136266  1  0
138267  1  0
139268  1  0
141269  1  0
141270  1  0
141271  1  0
142272  1  0
143273  1  0
146274  1  0
151275  1  0
154276  1  0
162277  1  0
163278  1  0
164279  1  0
165280  1  0
166281  1  0
167282  1  0
167283  1  0
168284  1  0
M  END

