
     RDKit          3D

201226  0  0  0  0  0  0  0  0999 V2000
   -3.9365    9.5129   -0.3900 C   0  0  0  0  0  0  0  0  0  0  0  0
   -4.5527    9.1833   -1.5396 C   0  0  0  0  0  0  0  0  0  0  0  0
   -5.7906    9.8311   -1.9726 C   0  0  0  0  0  0  0  0  0  0  0  0
   -6.1471   11.0036   -1.6863 O   0  0  0  0  0  0  0  0  0  0  0  0
   -6.6233    8.8285   -2.6235 C   0  0  0  0  0  0  0  0  0  0  0  0
   -8.0189    8.9047   -2.8584 C   0  0  0  0  0  0  0  0  0  0  0  0
   -8.6037    7.6854   -3.1720 C   0  0  0  0  0  0  0  0  0  0  0  0
   -7.8664    6.4587   -3.2539 C   0  0  0  0  0  0  0  0  0  0  0  0
   -6.5030    6.3780   -3.0352 C   0  0  0  0  0  0  0  0  0  0  0  0
   -5.8855    7.6197   -2.7241 C   0  0  0  0  0  0  0  0  0  0  0  0
   -4.5229    7.8496   -2.2028 C   0  0  0  0  0  0  0  0  0  0  0  0
   -3.4056    7.1503   -2.5170 C   0  0  0  0  0  0  0  0  0  0  0  0
   -2.0899    7.6336   -2.1689 C   0  0  0  0  0  0  0  0  0  0  0  0
   -1.0320    8.0161   -1.8969 N   0  0  0  0  0  0  0  0  0  0  0  0
   -3.4496    5.9795   -3.3506 C   0  0  0  0  0  0  0  0  0  0  0  0
   -3.4783    5.0410   -4.0244 N   0  0  0  0  0  0  0  0  0  0  0  0
   -9.1346    5.6895   -3.4638 C   0  0  0  0  0  0  0  0  0  0  0  0
   -9.6461    4.8744   -2.2346 C   0  0  0  0  0  0  0  0  0  0  0  0
  -11.0800    4.5225   -2.5389 C   0  0  0  0  0  0  0  0  0  0  0  0
  -11.7731    5.6651   -2.4743 C   0  0  0  0  0  0  0  0  0  0  0  0
  -10.7816    6.7496   -2.1224 C   0  0  0  0  0  0  0  0  0  0  0  0
   -9.8871    5.9492   -1.1879 C   0  0  0  0  0  0  0  0  0  0  0  0
   -9.8889    6.9429   -3.3828 C   0  0  0  0  0  0  0  0  0  0  0  0
   -3.4141    8.4825    0.5244 C   0  0  0  0  0  0  0  0  0  0  0  0
   -2.2478    8.5458    1.2753 C   0  0  0  0  0  0  0  0  0  0  0  0
   -1.9802    7.3588    1.9814 C   0  0  0  0  0  0  0  0  0  0  0  0
   -0.4349    7.1044    2.8567 S   0  0  0  0  0  0  0  0  0  0  0  0
    0.5470    6.6735    1.3757 C   0  0  0  0  0  0  0  0  0  0  0  0
    0.2525    5.2544    0.9007 C   0  0  0  0  0  0  0  0  0  0  0  0
   -2.9832    6.3926    1.8427 C   0  0  0  0  0  0  0  0  0  0  0  0
   -4.1500    7.0011    0.8098 S   0  0  0  0  0  0  0  0  0  0  0  0
   -2.9742    4.9830    2.2638 C   0  0  0  0  0  0  0  0  0  0  0  0
   -2.6787    4.4462    3.5363 C   0  0  0  0  0  0  0  0  0  0  0  0
   -2.3650    5.2329    4.7459 C   0  0  0  0  0  0  0  0  0  0  0  0
   -3.1332    6.3589    5.0809 C   0  0  0  0  0  0  0  0  0  0  0  0
   -2.8006    7.1339    6.1971 C   0  0  0  0  0  0  0  0  0  0  0  0
   -1.7025    6.7872    6.9856 C   0  0  0  0  0  0  0  0  0  0  0  0
   -0.9347    5.6556    6.6728 C   0  0  0  0  0  0  0  0  0  0  0  0
    0.2929    5.3209    7.4771 C   0  0  0  0  0  0  0  0  0  0  0  0
    1.5316    5.9532    6.8495 C   0  0  0  0  0  0  0  0  0  0  0  0
   -1.2697    4.8829    5.5493 C   0  0  0  0  0  0  0  0  0  0  0  0
   -2.7930    3.0498    3.5141 C   0  0  0  0  0  0  0  0  0  0  0  0
   -2.6585    1.8238    4.6977 S   0  0  0  0  0  0  0  0  0  0  0  0
   -3.0372    0.6312    3.5486 C   0  0  0  0  0  0  0  0  0  0  0  0
   -3.3343   -0.6999    3.4894 C   0  0  0  0  0  0  0  0  0  0  0  0
   -3.4245   -1.6844    4.4754 C   0  0  0  0  0  0  0  0  0  0  0  0
   -3.8454   -2.9928    4.0927 C   0  0  0  0  0  0  0  0  0  0  0  0
   -3.8842   -3.9281    5.0747 N   0  0  0  0  0  0  0  0  0  0  0  0
   -3.3915   -3.0120    6.3617 S   0  0  0  0  0  0  0  0  0  0  0  0
   -3.1143   -1.4866    5.7796 N   0  0  0  0  0  0  0  0  0  0  0  0
   -4.1176   -3.2577    2.7395 C   0  0  0  0  0  0  0  0  0  0  0  0
   -4.0907   -4.4632    2.0851 C   0  0  0  0  0  0  0  0  0  0  0  0
   -3.4956   -5.9737    2.5756 S   0  0  0  0  0  0  0  0  0  0  0  0
   -2.8528   -6.3101    1.0431 C   0  0  0  0  0  0  0  0  0  0  0  0
   -1.8167   -7.1743    0.6620 C   0  0  0  0  0  0  0  0  0  0  0  0
   -1.3550   -8.3167    1.4709 C   0  0  0  0  0  0  0  0  0  0  0  0
   -0.8406   -8.1275    2.7618 C   0  0  0  0  0  0  0  0  0  0  0  0
   -0.3425   -9.2170    3.4836 C   0  0  0  0  0  0  0  0  0  0  0  0
   -0.3831  -10.5007    2.9336 C   0  0  0  0  0  0  0  0  0  0  0  0
   -0.9222  -10.7070    1.6544 C   0  0  0  0  0  0  0  0  0  0  0  0
   -0.9681  -12.0930    1.0636 C   0  0  0  0  0  0  0  0  0  0  0  0
    0.3221  -12.4096    0.3161 C   0  0  0  0  0  0  0  0  0  0  0  0
   -1.3853   -9.6059    0.9176 C   0  0  0  0  0  0  0  0  0  0  0  0
   -1.1787   -6.7354   -0.5173 C   0  0  0  0  0  0  0  0  0  0  0  0
   -1.9818   -5.3460   -1.0690 S   0  0  0  0  0  0  0  0  0  0  0  0
   -3.0821   -5.2585    0.1881 C   0  0  0  0  0  0  0  0  0  0  0  0
   -3.7721   -4.1928    0.7793 C   0  0  0  0  0  0  0  0  0  0  0  0
   -3.6716   -2.8553    0.5421 N   0  0  0  0  0  0  0  0  0  0  0  0
   -3.9551   -2.2728    1.7522 C   0  0  0  0  0  0  0  0  0  0  0  0
   -3.6782   -0.9445    2.1561 C   0  0  0  0  0  0  0  0  0  0  0  0
   -3.7274    0.2189    1.4318 N   0  0  0  0  0  0  0  0  0  0  0  0
   -3.2795    1.1435    2.3171 C   0  0  0  0  0  0  0  0  0  0  0  0
   -3.1683    2.5228    2.3028 C   0  0  0  0  0  0  0  0  0  0  0  0
   -3.3872    3.7346    1.1846 S   0  0  0  0  0  0  0  0  0  0  0  0
   -4.6607    0.5087    0.3282 C   0  0  0  0  0  0  0  0  0  0  0  0
   -3.9642    1.1884   -0.8592 C   0  0  0  0  0  0  0  0  0  0  0  0
   -2.8719   -2.2650   -0.5432 C   0  0  0  0  0  0  0  0  0  0  0  0
   -1.4103   -2.0994   -0.1288 C   0  0  0  0  0  0  0  0  0  0  0  0
    0.2573   -6.9136   -0.8043 C   0  0  0  0  0  0  0  0  0  0  0  0
    0.8986   -6.3521   -1.9145 C   0  0  0  0  0  0  0  0  0  0  0  0
    2.2562   -6.0545   -1.6901 C   0  0  0  0  0  0  0  0  0  0  0  0
    3.1074   -5.3434   -2.5609 C   0  0  0  0  0  0  0  0  0  0  0  0
    2.6509   -4.8298   -3.8661 C   0  0  0  0  0  0  0  0  0  0  0  0
    1.5912   -3.9496   -4.0632 C   0  0  0  0  0  0  0  0  0  0  0  0
    1.4882   -3.5058   -5.3851 C   0  0  0  0  0  0  0  0  0  0  0  0
    0.2672   -2.3606   -5.9034 Cl  0  0  0  0  0  0  0  0  0  0  0  0
    2.4777   -4.0185   -6.2174 C   0  0  0  0  0  0  0  0  0  0  0  0
    2.7135   -3.6282   -7.9486 S   0  0  0  0  0  0  0  0  0  0  0  0
    3.7283   -2.1387   -7.6403 C   0  0  0  0  0  0  0  0  0  0  0  0
    5.1874   -2.5035   -7.3885 C   0  0  0  0  0  0  0  0  0  0  0  0
    3.4667   -5.0389   -5.3247 S   0  0  0  0  0  0  0  0  0  0  0  0
    4.3844   -5.0203   -2.0739 C   0  0  0  0  0  0  0  0  0  0  0  0
    4.8192   -5.3654   -0.7903 C   0  0  0  0  0  0  0  0  0  0  0  0
    3.9678   -6.0777    0.0841 C   0  0  0  0  0  0  0  0  0  0  0  0
    4.3193   -6.3085    1.5042 C   0  0  0  0  0  0  0  0  0  0  0  0
    3.3875   -5.8333    2.8271 S   0  0  0  0  0  0  0  0  0  0  0  0
    4.4519   -6.3866    4.0014 C   0  0  0  0  0  0  0  0  0  0  0  0
    4.1473   -6.3010    5.7671 S   0  0  0  0  0  0  0  0  0  0  0  0
    4.7195   -4.5748    5.9616 C   0  0  0  0  0  0  0  0  0  0  0  0
    6.2394   -4.4844    5.9159 C   0  0  0  0  0  0  0  0  0  0  0  0
    5.5506   -6.9633    3.3728 C   0  0  0  0  0  0  0  0  0  0  0  0
    5.4802   -6.9151    1.9758 C   0  0  0  0  0  0  0  0  0  0  0  0
    6.8814   -7.7179    4.2315 Cl  0  0  0  0  0  0  0  0  0  0  0  0
    2.6971   -6.4165   -0.4144 C   0  0  0  0  0  0  0  0  0  0  0  0
    1.4064   -7.0894    0.4215 S   0  0  0  0  0  0  0  0  0  0  0  0
    6.0604   -4.7908   -0.4586 C   0  0  0  0  0  0  0  0  0  0  0  0
    6.6034   -3.9912   -1.4669 C   0  0  0  0  0  0  0  0  0  0  0  0
    5.5182   -3.9815   -2.7570 S   0  0  0  0  0  0  0  0  0  0  0  0
    7.7712   -3.1061   -1.2400 C   0  0  0  0  0  0  0  0  0  0  0  0
    8.4069   -2.3058   -2.1269 C   0  0  0  0  0  0  0  0  0  0  0  0
    8.1101   -2.1063   -3.5527 C   0  0  0  0  0  0  0  0  0  0  0  0
    7.6449   -2.9622   -4.3522 O   0  0  0  0  0  0  0  0  0  0  0  0
    8.5992   -0.8026   -3.9485 C   0  0  0  0  0  0  0  0  0  0  0  0
    8.3767   -0.1387   -5.1776 C   0  0  0  0  0  0  0  0  0  0  0  0
    8.8639    1.1565   -5.2127 C   0  0  0  0  0  0  0  0  0  0  0  0
    9.5345    1.7668   -4.1057 C   0  0  0  0  0  0  0  0  0  0  0  0
    9.7651    1.1172   -2.9049 C   0  0  0  0  0  0  0  0  0  0  0  0
    9.2929   -0.2229   -2.8577 C   0  0  0  0  0  0  0  0  0  0  0  0
    9.3424   -1.2035   -1.7438 C   0  0  0  0  0  0  0  0  0  0  0  0
   10.2484   -1.2277   -0.7330 C   0  0  0  0  0  0  0  0  0  0  0  0
   10.4440   -2.3942    0.0925 C   0  0  0  0  0  0  0  0  0  0  0  0
   10.6118   -3.3273    0.7570 N   0  0  0  0  0  0  0  0  0  0  0  0
   11.1846   -0.1585   -0.5024 C   0  0  0  0  0  0  0  0  0  0  0  0
   11.9462    0.6920   -0.3009 N   0  0  0  0  0  0  0  0  0  0  0  0
    9.6574    3.0530   -4.8674 C   0  0  0  0  0  0  0  0  0  0  0  0
    8.7091    4.2232   -4.4679 C   0  0  0  0  0  0  0  0  0  0  0  0
    7.4012    3.6747   -3.9475 C   0  0  0  0  0  0  0  0  0  0  0  0
    6.7822    3.1096   -4.9849 C   0  0  0  0  0  0  0  0  0  0  0  0
    7.6913    3.2936   -6.1767 C   0  0  0  0  0  0  0  0  0  0  0  0
    8.2510    4.6644   -5.8442 C   0  0  0  0  0  0  0  0  0  0  0  0
    8.9742    2.4257   -6.0049 C   0  0  0  0  0  0  0  0  0  0  0  0
   -4.0418   10.5173    0.0064 H   0  0  0  0  0  0  0  0  0  0  0  0
   -8.5946    9.8044   -2.6984 H   0  0  0  0  0  0  0  0  0  0  0  0
   -5.9971    5.4239   -2.9898 H   0  0  0  0  0  0  0  0  0  0  0  0
   -9.1866    5.1685   -4.4464 H   0  0  0  0  0  0  0  0  0  0  0  0
   -9.0062    4.0231   -1.9162 H   0  0  0  0  0  0  0  0  0  0  0  0
  -11.4977    3.5292   -2.6747 H   0  0  0  0  0  0  0  0  0  0  0  0
  -12.8505    5.7617   -2.5576 H   0  0  0  0  0  0  0  0  0  0  0  0
  -11.2252    7.6763   -1.7010 H   0  0  0  0  0  0  0  0  0  0  0  0
   -8.9643    6.4801   -0.8620 H   0  0  0  0  0  0  0  0  0  0  0  0
  -10.4187    5.5788   -0.2792 H   0  0  0  0  0  0  0  0  0  0  0  0
  -10.4193    7.2221   -4.3199 H   0  0  0  0  0  0  0  0  0  0  0  0
   -1.5722    9.3897    1.2495 H   0  0  0  0  0  0  0  0  0  0  0  0
    0.3575    7.3984    0.5550 H   0  0  0  0  0  0  0  0  0  0  0  0
    1.6231    6.7392    1.6483 H   0  0  0  0  0  0  0  0  0  0  0  0
    0.9788    4.9717    0.1106 H   0  0  0  0  0  0  0  0  0  0  0  0
    0.3409    4.5373    1.7426 H   0  0  0  0  0  0  0  0  0  0  0  0
   -0.7633    5.1940    0.4650 H   0  0  0  0  0  0  0  0  0  0  0  0
   -3.9863    6.6406    4.4788 H   0  0  0  0  0  0  0  0  0  0  0  0
   -3.3894    8.0076    6.4395 H   0  0  0  0  0  0  0  0  0  0  0  0
   -1.4484    7.4046    7.8387 H   0  0  0  0  0  0  0  0  0  0  0  0
    0.1807    5.6864    8.5204 H   0  0  0  0  0  0  0  0  0  0  0  0
    0.4282    4.2194    7.5233 H   0  0  0  0  0  0  0  0  0  0  0  0
    1.4080    7.0553    6.7755 H   0  0  0  0  0  0  0  0  0  0  0  0
    1.7056    5.5359    5.8340 H   0  0  0  0  0  0  0  0  0  0  0  0
    2.4213    5.7346    7.4788 H   0  0  0  0  0  0  0  0  0  0  0  0
   -0.6505    4.0352    5.2818 H   0  0  0  0  0  0  0  0  0  0  0  0
   -0.7831   -7.1357    3.1927 H   0  0  0  0  0  0  0  0  0  0  0  0
    0.0818   -9.0630    4.4667 H   0  0  0  0  0  0  0  0  0  0  0  0
    0.0065  -11.3356    3.5070 H   0  0  0  0  0  0  0  0  0  0  0  0
   -1.8299  -12.1833    0.3665 H   0  0  0  0  0  0  0  0  0  0  0  0
   -1.1188  -12.8463    1.8702 H   0  0  0  0  0  0  0  0  0  0  0  0
    1.1860  -12.3794    1.0130 H   0  0  0  0  0  0  0  0  0  0  0  0
    0.2548  -13.4266   -0.1258 H   0  0  0  0  0  0  0  0  0  0  0  0
    0.4811  -11.6762   -0.5026 H   0  0  0  0  0  0  0  0  0  0  0  0
   -1.7735   -9.7526   -0.0834 H   0  0  0  0  0  0  0  0  0  0  0  0
   -5.4773    1.1615    0.7054 H   0  0  0  0  0  0  0  0  0  0  0  0
   -5.1560   -0.4232   -0.0118 H   0  0  0  0  0  0  0  0  0  0  0  0
   -4.2116    0.6571   -1.8034 H   0  0  0  0  0  0  0  0  0  0  0  0
   -4.3268    2.2319   -0.9753 H   0  0  0  0  0  0  0  0  0  0  0  0
   -2.8589    1.1950   -0.7338 H   0  0  0  0  0  0  0  0  0  0  0  0
   -3.2644   -1.2941   -0.8439 H   0  0  0  0  0  0  0  0  0  0  0  0
   -2.9496   -2.8847   -1.4583 H   0  0  0  0  0  0  0  0  0  0  0  0
   -1.3088   -1.2496    0.5798 H   0  0  0  0  0  0  0  0  0  0  0  0
   -1.0283   -3.0156    0.3684 H   0  0  0  0  0  0  0  0  0  0  0  0
   -0.7888   -1.8938   -1.0235 H   0  0  0  0  0  0  0  0  0  0  0  0
    0.3595   -6.0593   -2.8046 H   0  0  0  0  0  0  0  0  0  0  0  0
    0.9374   -3.6127   -3.2693 H   0  0  0  0  0  0  0  0  0  0  0  0
    3.6738   -1.4925   -8.5432 H   0  0  0  0  0  0  0  0  0  0  0  0
    3.3274   -1.5568   -6.7816 H   0  0  0  0  0  0  0  0  0  0  0  0
    5.2922   -3.0603   -6.4347 H   0  0  0  0  0  0  0  0  0  0  0  0
    5.5789   -3.1201   -8.2252 H   0  0  0  0  0  0  0  0  0  0  0  0
    5.7894   -1.5723   -7.3192 H   0  0  0  0  0  0  0  0  0  0  0  0
    4.2714   -3.9281    5.1778 H   0  0  0  0  0  0  0  0  0  0  0  0
    4.3720   -4.2064    6.9501 H   0  0  0  0  0  0  0  0  0  0  0  0
    6.6849   -5.2032    6.6355 H   0  0  0  0  0  0  0  0  0  0  0  0
    6.6065   -4.7077    4.8926 H   0  0  0  0  0  0  0  0  0  0  0  0
    6.5630   -3.4562    6.1860 H   0  0  0  0  0  0  0  0  0  0  0  0
    6.2471   -7.3231    1.3284 H   0  0  0  0  0  0  0  0  0  0  0  0
    6.5190   -4.8786    0.5170 H   0  0  0  0  0  0  0  0  0  0  0  0
    8.0465   -3.0240   -0.2009 H   0  0  0  0  0  0  0  0  0  0  0  0
    7.8374   -0.5828   -6.0004 H   0  0  0  0  0  0  0  0  0  0  0  0
   10.2183    1.6354   -2.0765 H   0  0  0  0  0  0  0  0  0  0  0  0
   10.7084    3.3494   -5.0824 H   0  0  0  0  0  0  0  0  0  0  0  0
    9.1703    5.0111   -3.8400 H   0  0  0  0  0  0  0  0  0  0  0  0
    7.0010    3.7758   -2.9448 H   0  0  0  0  0  0  0  0  0  0  0  0
    5.7901    2.6749   -4.9750 H   0  0  0  0  0  0  0  0  0  0  0  0
    7.1889    3.2079   -7.1653 H   0  0  0  0  0  0  0  0  0  0  0  0
    7.4748    5.4652   -5.8158 H   0  0  0  0  0  0  0  0  0  0  0  0
    9.0855    4.9799   -6.5128 H   0  0  0  0  0  0  0  0  0  0  0  0
    9.6070    2.3396   -6.9142 H   0  0  0  0  0  0  0  0  0  0  0  0
  1  2  2  3
  2  3  1  0
  3  4  2  0
  3  5  1  0
  5  6  2  0
  6  7  1  0
  7  8  2  0
  8  9  1  0
  9 10  2  0
 10 11  1  0
 11 12  2  3
 12 13  1  0
 13 14  3  0
 12 15  1  0
 15 16  3  0
  8 17  1  0
 17 18  1  0
 18 19  1  0
 19 20  2  0
 20 21  1  0
 21 22  1  0
 21 23  1  0
  1 24  1  0
 24 25  2  0
 25 26  1  0
 26 27  1  0
 27 28  1  0
 28 29  1  0
 26 30  2  0
 30 31  1  0
 30 32  1  0
 32 33  2  0
 33 34  1  0
 34 35  2  0
 35 36  1  0
 36 37  2  0
 37 38  1  0
 38 39  1  0
 39 40  1  0
 38 41  2  0
 33 42  1  0
 42 43  1  0
 43 44  1  0
 44 45  1  0
 45 46  1  0
 46 47  1  0
 47 48  2  0
 48 49  1  0
 49 50  1  0
 47 51  1  0
 51 52  1  0
 52 53  1  0
 53 54  1  0
 54 55  1  0
 55 56  1  0
 56 57  2  0
 57 58  1  0
 58 59  2  0
 59 60  1  0
 60 61  1  0
 61 62  1  0
 60 63  2  0
 55 64  2  0
 64 65  1  0
 65 66  1  0
 66 67  1  0
 67 68  1  0
 68 69  1  0
 69 70  1  0
 70 71  1  0
 71 72  1  0
 72 73  1  0
 73 74  1  0
 71 75  1  0
 75 76  1  0
 68 77  1  0
 77 78  1  0
 64 79  1  0
 79 80  2  0
 80 81  1  0
 81 82  2  0
 82 83  1  0
 83 84  2  0
 84 85  1  0
 85 86  1  0
 85 87  2  0
 87 88  1  0
 88 89  1  0
 89 90  1  0
 87 91  1  0
 82 92  1  0
 92 93  2  0
 93 94  1  0
 94 95  1  0
 95 96  1  0
 96 97  1  0
 97 98  1  0
 98 99  1  0
 99100  1  0
 97101  2  0
101102  1  0
101103  1  0
 94104  2  0
104105  1  0
 93106  1  0
106107  2  0
107108  1  0
107109  1  0
109110  2  3
110111  1  0
111112  2  0
111113  1  0
113114  2  0
114115  1  0
115116  2  0
116117  1  0
117118  2  0
118119  1  0
119120  2  3
120121  1  0
121122  3  0
120123  1  0
123124  3  0
116125  1  0
125126  1  0
126127  1  0
127128  2  0
128129  1  0
129130  1  0
129131  1  0
 11  2  1  0
 23 17  1  0
 31 24  1  0
 74 32  1  0
105 79  1  0
119110  1  0
131125  1  0
 10  5  1  0
 22 18  1  0
 41 34  1  0
 73 42  2  0
104 81  1  0
118113  1  0
130126  1  0
 23  7  1  0
 72 44  2  0
 91 83  1  0
108 92  1  0
131115  1  0
 70 45  2  0
102 95  2  0
 50 46  2  0
 69 51  2  0
 67 52  2  0
 66 54  2  0
 63 56  1  0
  1132  1  0
  6133  1  0
  9134  1  0
 17135  1  0
 18136  1  0
 19137  1  0
 20138  1  0
 21139  1  0
 22140  1  0
 22141  1  0
 23142  1  0
 25143  1  0
 28144  1  0
 28145  1  0
 29146  1  0
 29147  1  0
 29148  1  0
 35149  1  0
 36150  1  0
 37151  1  0
 39152  1  0
 39153  1  0
 40154  1  0
 40155  1  0
 40156  1  0
 41157  1  0
 57158  1  0
 58159  1  0
 59160  1  0
 61161  1  0
 61162  1  0
 62163  1  0
 62164  1  0
 62165  1  0
 63166  1  0
 75167  1  0
 75168  1  0
 76169  1  0
 76170  1  0
 76171  1  0
 77172  1  0
 77173  1  0
 78174  1  0
 78175  1  0
 78176  1  0
 80177  1  0
 84178  1  0
 89179  1  0
 89180  1  0
 90181  1  0
 90182  1  0
 90183  1  0
 99184  1  0
 99185  1  0
100186  1  0
100187  1  0
100188  1  0
102189  1  0
106190  1  0
109191  1  0
114192  1  0
117193  1  0
125194  1  0
126195  1  0
127196  1  0
128197  1  0
129198  1  0
130199  1  0
130200  1  0
131201  1  0
M  END

