
     RDKit          3D

181203  0  0  0  0  0  0  0  0999 V2000
    1.9983    2.9501    6.9475 C   0  0  0  0  0  0  0  0  0  0  0  0
    1.3799    1.7679    6.7360 C   0  0  0  0  0  0  0  0  0  0  0  0
    1.8387    0.7389    5.7915 C   0  0  0  0  0  0  0  0  0  0  0  0
    3.0274    0.5157    5.4451 O   0  0  0  0  0  0  0  0  0  0  0  0
    0.7057   -0.0264    5.3469 C   0  0  0  0  0  0  0  0  0  0  0  0
    0.6758   -0.9371    4.2662 C   0  0  0  0  0  0  0  0  0  0  0  0
   -0.5869   -1.4138    3.9745 C   0  0  0  0  0  0  0  0  0  0  0  0
   -1.7561   -1.0358    4.7112 C   0  0  0  0  0  0  0  0  0  0  0  0
   -1.7313   -0.1309    5.7665 C   0  0  0  0  0  0  0  0  0  0  0  0
   -0.4383    0.3757    6.0813 C   0  0  0  0  0  0  0  0  0  0  0  0
   -0.0345    1.4241    7.0690 C   0  0  0  0  0  0  0  0  0  0  0  0
   -0.7246    1.8252    8.1639 C   0  0  0  0  0  0  0  0  0  0  0  0
   -0.1530    2.7033    9.1510 C   0  0  0  0  0  0  0  0  0  0  0  0
    0.2994    3.4047    9.9532 N   0  0  0  0  0  0  0  0  0  0  0  0
   -2.0240    1.2997    8.4842 C   0  0  0  0  0  0  0  0  0  0  0  0
   -3.0683    0.8801    8.7565 N   0  0  0  0  0  0  0  0  0  0  0  0
   -2.6078   -1.9119    3.8373 C   0  0  0  0  0  0  0  0  0  0  0  0
   -3.0975   -3.2724    4.4208 C   0  0  0  0  0  0  0  0  0  0  0  0
   -2.0883   -3.8134    5.4077 C   0  0  0  0  0  0  0  0  0  0  0  0
   -1.0104   -4.1524    4.7019 C   0  0  0  0  0  0  0  0  0  0  0  0
   -1.3179   -3.8286    3.2588 C   0  0  0  0  0  0  0  0  0  0  0  0
   -2.7942   -4.1841    3.2442 C   0  0  0  0  0  0  0  0  0  0  0  0
   -1.4125   -2.2806    3.0708 C   0  0  0  0  0  0  0  0  0  0  0  0
    3.2001    3.3215    6.1843 C   0  0  0  0  0  0  0  0  0  0  0  0
    4.4898    2.9526    6.5423 C   0  0  0  0  0  0  0  0  0  0  0  0
    5.3586    2.8491    5.4459 C   0  0  0  0  0  0  0  0  0  0  0  0
    7.0068    2.1536    5.5967 S   0  0  0  0  0  0  0  0  0  0  0  0
    7.8494    3.7737    5.6689 C   0  0  0  0  0  0  0  0  0  0  0  0
    7.8005    4.3482    7.0799 C   0  0  0  0  0  0  0  0  0  0  0  0
    4.7669    3.1431    4.2158 C   0  0  0  0  0  0  0  0  0  0  0  0
    3.1601    3.5274    4.5172 S   0  0  0  0  0  0  0  0  0  0  0  0
    5.1398    2.4680    2.9702 C   0  0  0  0  0  0  0  0  0  0  0  0
    5.9196    2.9757    1.9116 C   0  0  0  0  0  0  0  0  0  0  0  0
    6.5484    4.3052    1.8944 C   0  0  0  0  0  0  0  0  0  0  0  0
    7.9373    4.4218    1.7228 C   0  0  0  0  0  0  0  0  0  0  0  0
    8.5409    5.6826    1.7197 C   0  0  0  0  0  0  0  0  0  0  0  0
    7.7588    6.8339    1.8686 C   0  0  0  0  0  0  0  0  0  0  0  0
    6.3684    6.7298    2.0289 C   0  0  0  0  0  0  0  0  0  0  0  0
    5.5224    7.9715    2.1002 C   0  0  0  0  0  0  0  0  0  0  0  0
    5.2300    8.4966    0.6941 C   0  0  0  0  0  0  0  0  0  0  0  0
    5.7679    5.4611    2.0441 C   0  0  0  0  0  0  0  0  0  0  0  0
    5.9145    2.0884    0.8281 C   0  0  0  0  0  0  0  0  0  0  0  0
    6.3349    2.2450   -0.8266 S   0  0  0  0  0  0  0  0  0  0  0  0
    5.5396    0.7846   -1.1948 C   0  0  0  0  0  0  0  0  0  0  0  0
    5.0978    0.0665   -2.2794 C   0  0  0  0  0  0  0  0  0  0  0  0
    5.3328    0.1755   -3.6539 C   0  0  0  0  0  0  0  0  0  0  0  0
    4.6693   -0.7313   -4.5406 C   0  0  0  0  0  0  0  0  0  0  0  0
    4.9109   -0.5778   -5.8680 N   0  0  0  0  0  0  0  0  0  0  0  0
    5.9667    0.6999   -5.8160 S   0  0  0  0  0  0  0  0  0  0  0  0
    6.1496    1.1027   -4.2178 N   0  0  0  0  0  0  0  0  0  0  0  0
    3.7628   -1.6623   -4.0055 C   0  0  0  0  0  0  0  0  0  0  0  0
    2.7781   -2.3956   -4.6149 C   0  0  0  0  0  0  0  0  0  0  0  0
    2.0636   -2.3529   -6.1601 S   0  0  0  0  0  0  0  0  0  0  0  0
    0.5649   -2.8774   -5.5466 C   0  0  0  0  0  0  0  0  0  0  0  0
   -0.7339   -2.9330   -6.0760 C   0  0  0  0  0  0  0  0  0  0  0  0
   -1.0765   -2.6908   -7.4915 C   0  0  0  0  0  0  0  0  0  0  0  0
   -0.5624   -1.5806   -8.1800 C   0  0  0  0  0  0  0  0  0  0  0  0
   -0.8349   -1.4066   -9.5399 C   0  0  0  0  0  0  0  0  0  0  0  0
   -1.6254   -2.3366  -10.2228 C   0  0  0  0  0  0  0  0  0  0  0  0
   -2.1687   -3.4380   -9.5415 C   0  0  0  0  0  0  0  0  0  0  0  0
   -2.9901   -4.4583  -10.2812 C   0  0  0  0  0  0  0  0  0  0  0  0
   -2.1177   -5.6305  -10.7249 C   0  0  0  0  0  0  0  0  0  0  0  0
   -1.8964   -3.6044   -8.1712 C   0  0  0  0  0  0  0  0  0  0  0  0
   -1.6815   -3.1771   -5.0599 C   0  0  0  0  0  0  0  0  0  0  0  0
   -0.8955   -3.2709   -3.5577 S   0  0  0  0  0  0  0  0  0  0  0  0
    0.6343   -3.0398   -4.1869 C   0  0  0  0  0  0  0  0  0  0  0  0
    1.8782   -2.7336   -3.6448 C   0  0  0  0  0  0  0  0  0  0  0  0
    2.2046   -2.2145   -2.4295 N   0  0  0  0  0  0  0  0  0  0  0  0
    3.4476   -1.6756   -2.6386 C   0  0  0  0  0  0  0  0  0  0  0  0
    4.2109   -0.8835   -1.7529 C   0  0  0  0  0  0  0  0  0  0  0  0
    4.1836   -0.8395   -0.3867 N   0  0  0  0  0  0  0  0  0  0  0  0
    4.9773    0.2169   -0.1008 C   0  0  0  0  0  0  0  0  0  0  0  0
    5.1837    0.9464    1.0453 C   0  0  0  0  0  0  0  0  0  0  0  0
    4.4627    0.9650    2.5460 S   0  0  0  0  0  0  0  0  0  0  0  0
    3.7680   -1.8859    0.5585 C   0  0  0  0  0  0  0  0  0  0  0  0
    4.9659   -2.4873    1.2811 C   0  0  0  0  0  0  0  0  0  0  0  0
    1.1884   -1.6286   -1.5321 C   0  0  0  0  0  0  0  0  0  0  0  0
    0.6308   -0.3249   -2.1096 C   0  0  0  0  0  0  0  0  0  0  0  0
   -3.1027   -2.8010   -5.0962 C   0  0  0  0  0  0  0  0  0  0  0  0
   -4.0844   -3.7633   -4.8070 C   0  0  0  0  0  0  0  0  0  0  0  0
   -3.7580   -5.0807   -4.7826 F   0  0  0  0  0  0  0  0  0  0  0  0
   -5.3797   -3.3698   -4.4474 C   0  0  0  0  0  0  0  0  0  0  0  0
   -6.2937   -4.3097   -4.0969 F   0  0  0  0  0  0  0  0  0  0  0  0
   -5.6977   -2.0055   -4.3395 C   0  0  0  0  0  0  0  0  0  0  0  0
   -4.7393   -1.0397   -4.6951 C   0  0  0  0  0  0  0  0  0  0  0  0
   -5.0121    0.2881   -4.5782 N   0  0  0  0  0  0  0  0  0  0  0  0
   -4.0781    1.2417   -4.8451 C   0  0  0  0  0  0  0  0  0  0  0  0
   -4.3850    2.6019   -4.7091 O   0  0  0  0  0  0  0  0  0  0  0  0
   -5.6679    3.0866   -4.3214 C   0  0  0  0  0  0  0  0  0  0  0  0
   -6.6713    2.9416   -5.4615 C   0  0  0  0  0  0  0  0  0  0  0  0
   -2.7915    0.8440   -5.2402 C   0  0  0  0  0  0  0  0  0  0  0  0
   -2.5081   -0.4821   -5.3286 N   0  0  0  0  0  0  0  0  0  0  0  0
   -3.4457   -1.4372   -5.0811 C   0  0  0  0  0  0  0  0  0  0  0  0
   -1.7189    1.8463   -5.5132 C   0  0  0  0  0  0  0  0  0  0  0  0
   -6.9464   -1.5844   -3.6724 C   0  0  0  0  0  0  0  0  0  0  0  0
   -6.9936   -1.3669   -2.3418 C   0  0  0  0  0  0  0  0  0  0  0  0
   -5.8538   -1.5053   -1.4205 C   0  0  0  0  0  0  0  0  0  0  0  0
   -4.7576   -2.0781   -1.6624 O   0  0  0  0  0  0  0  0  0  0  0  0
   -6.1746   -0.8378   -0.1804 C   0  0  0  0  0  0  0  0  0  0  0  0
   -5.3152   -0.6402    0.9242 C   0  0  0  0  0  0  0  0  0  0  0  0
   -5.8571    0.1521    1.9188 C   0  0  0  0  0  0  0  0  0  0  0  0
   -7.1573    0.7460    1.8223 C   0  0  0  0  0  0  0  0  0  0  0  0
   -8.0042    0.5558    0.7413 C   0  0  0  0  0  0  0  0  0  0  0  0
   -7.4848   -0.3068   -0.2665 C   0  0  0  0  0  0  0  0  0  0  0  0
   -8.0979   -0.7253   -1.5596 C   0  0  0  0  0  0  0  0  0  0  0  0
   -9.4226   -0.7597   -1.8467 C   0  0  0  0  0  0  0  0  0  0  0  0
   -9.9418   -1.3871   -3.0364 C   0  0  0  0  0  0  0  0  0  0  0  0
  -10.3769   -1.8919   -3.9856 N   0  0  0  0  0  0  0  0  0  0  0  0
  -10.4248   -0.3430   -0.8989 C   0  0  0  0  0  0  0  0  0  0  0  0
  -11.2413   -0.0305   -0.1420 N   0  0  0  0  0  0  0  0  0  0  0  0
   -6.9643    1.4179    3.1506 C   0  0  0  0  0  0  0  0  0  0  0  0
   -7.7467    0.8435    4.3697 C   0  0  0  0  0  0  0  0  0  0  0  0
   -7.9718   -0.6398    4.1835 C   0  0  0  0  0  0  0  0  0  0  0  0
   -6.7753   -1.2203    4.2778 C   0  0  0  0  0  0  0  0  0  0  0  0
   -5.7788   -0.1123    4.5299 C   0  0  0  0  0  0  0  0  0  0  0  0
   -6.6333    0.7922    5.3985 C   0  0  0  0  0  0  0  0  0  0  0  0
   -5.6458    0.7873    3.2630 C   0  0  0  0  0  0  0  0  0  0  0  0
    1.5139    3.7325    7.5061 H   0  0  0  0  0  0  0  0  0  0  0  0
    1.5516   -1.2046    3.6826 H   0  0  0  0  0  0  0  0  0  0  0  0
   -2.6424    0.1826    6.2438 H   0  0  0  0  0  0  0  0  0  0  0  0
   -3.3590   -1.3567    3.2378 H   0  0  0  0  0  0  0  0  0  0  0  0
   -4.1503   -3.2825    4.7750 H   0  0  0  0  0  0  0  0  0  0  0  0
   -2.2240   -3.9649    6.4717 H   0  0  0  0  0  0  0  0  0  0  0  0
   -0.1197   -4.6383    5.0876 H   0  0  0  0  0  0  0  0  0  0  0  0
   -0.6798   -4.3565    2.5172 H   0  0  0  0  0  0  0  0  0  0  0  0
   -3.3142   -3.8852    2.3027 H   0  0  0  0  0  0  0  0  0  0  0  0
   -2.9906   -5.2627    3.4525 H   0  0  0  0  0  0  0  0  0  0  0  0
   -1.4363   -1.9407    2.0112 H   0  0  0  0  0  0  0  0  0  0  0  0
    4.7566    2.6337    7.5421 H   0  0  0  0  0  0  0  0  0  0  0  0
    8.9081    3.6258    5.3747 H   0  0  0  0  0  0  0  0  0  0  0  0
    7.3934    4.4857    4.9464 H   0  0  0  0  0  0  0  0  0  0  0  0
    8.2633    3.6383    7.7939 H   0  0  0  0  0  0  0  0  0  0  0  0
    6.7511    4.5451    7.3826 H   0  0  0  0  0  0  0  0  0  0  0  0
    8.3614    5.3049    7.1124 H   0  0  0  0  0  0  0  0  0  0  0  0
    8.5519    3.5377    1.6044 H   0  0  0  0  0  0  0  0  0  0  0  0
    9.6117    5.7708    1.5957 H   0  0  0  0  0  0  0  0  0  0  0  0
    8.2348    7.8051    1.8412 H   0  0  0  0  0  0  0  0  0  0  0  0
    4.5614    7.7615    2.6226 H   0  0  0  0  0  0  0  0  0  0  0  0
    6.0475    8.7629    2.6783 H   0  0  0  0  0  0  0  0  0  0  0  0
    4.5892    9.4014    0.7547 H   0  0  0  0  0  0  0  0  0  0  0  0
    4.7023    7.7228    0.0934 H   0  0  0  0  0  0  0  0  0  0  0  0
    6.1805    8.7668    0.1858 H   0  0  0  0  0  0  0  0  0  0  0  0
    4.6919    5.3728    2.1534 H   0  0  0  0  0  0  0  0  0  0  0  0
    0.0520   -0.8487   -7.6699 H   0  0  0  0  0  0  0  0  0  0  0  0
   -0.4244   -0.5577  -10.0666 H   0  0  0  0  0  0  0  0  0  0  0  0
   -1.8111   -2.2014  -11.2799 H   0  0  0  0  0  0  0  0  0  0  0  0
   -3.8088   -4.8339   -9.6265 H   0  0  0  0  0  0  0  0  0  0  0  0
   -3.4641   -4.0025  -11.1784 H   0  0  0  0  0  0  0  0  0  0  0  0
   -1.3126   -5.2762  -11.4028 H   0  0  0  0  0  0  0  0  0  0  0  0
   -1.6610   -6.1297   -9.8417 H   0  0  0  0  0  0  0  0  0  0  0  0
   -2.7377   -6.3741  -11.2699 H   0  0  0  0  0  0  0  0  0  0  0  0
   -2.2880   -4.4674   -7.6468 H   0  0  0  0  0  0  0  0  0  0  0  0
    3.2686   -2.7196    0.0190 H   0  0  0  0  0  0  0  0  0  0  0  0
    3.0595   -1.4579    1.2980 H   0  0  0  0  0  0  0  0  0  0  0  0
    4.6284   -3.3414    1.9071 H   0  0  0  0  0  0  0  0  0  0  0  0
    5.7078   -2.8566    0.5455 H   0  0  0  0  0  0  0  0  0  0  0  0
    5.4420   -1.7396    1.9449 H   0  0  0  0  0  0  0  0  0  0  0  0
    1.5911   -1.3919   -0.5406 H   0  0  0  0  0  0  0  0  0  0  0  0
    0.3702   -2.3568   -1.3530 H   0  0  0  0  0  0  0  0  0  0  0  0
    1.4370    0.4380   -2.1654 H   0  0  0  0  0  0  0  0  0  0  0  0
   -0.1795    0.0561   -1.4559 H   0  0  0  0  0  0  0  0  0  0  0  0
    0.2182   -0.4816   -3.1278 H   0  0  0  0  0  0  0  0  0  0  0  0
   -6.0309    2.5484   -3.4170 H   0  0  0  0  0  0  0  0  0  0  0  0
   -5.5724    4.1623   -4.0648 H   0  0  0  0  0  0  0  0  0  0  0  0
   -7.6157    3.4577   -5.1926 H   0  0  0  0  0  0  0  0  0  0  0  0
   -6.8948    1.8695   -5.6497 H   0  0  0  0  0  0  0  0  0  0  0  0
   -6.2649    3.3948   -6.3909 H   0  0  0  0  0  0  0  0  0  0  0  0
   -2.0728    2.5972   -6.2531 H   0  0  0  0  0  0  0  0  0  0  0  0
   -0.8176    1.3429   -5.9252 H   0  0  0  0  0  0  0  0  0  0  0  0
   -1.4380    2.3581   -4.5672 H   0  0  0  0  0  0  0  0  0  0  0  0
   -7.7621   -1.3005   -4.3125 H   0  0  0  0  0  0  0  0  0  0  0  0
   -4.3086   -1.0371    0.9713 H   0  0  0  0  0  0  0  0  0  0  0  0
   -8.9562    1.0635    0.6787 H   0  0  0  0  0  0  0  0  0  0  0  0
   -6.9238    2.5291    3.0929 H   0  0  0  0  0  0  0  0  0  0  0  0
   -8.6468    1.4230    4.6677 H   0  0  0  0  0  0  0  0  0  0  0  0
   -8.9208   -1.1510    4.0663 H   0  0  0  0  0  0  0  0  0  0  0  0
   -6.5859   -2.2877    4.2543 H   0  0  0  0  0  0  0  0  0  0  0  0
   -4.8228   -0.4374    4.9881 H   0  0  0  0  0  0  0  0  0  0  0  0
   -6.1708    1.7830    5.6050 H   0  0  0  0  0  0  0  0  0  0  0  0
   -6.9421    0.3208    6.3594 H   0  0  0  0  0  0  0  0  0  0  0  0
   -4.7993    1.5100    3.2883 H   0  0  0  0  0  0  0  0  0  0  0  0
  1  2  2  3
  2  3  1  0
  3  4  2  0
  3  5  1  0
  5  6  2  0
  6  7  1  0
  7  8  2  0
  8  9  1  0
  9 10  2  0
 10 11  1  0
 11 12  2  3
 12 13  1  0
 13 14  3  0
 12 15  1  0
 15 16  3  0
  8 17  1  0
 17 18  1  0
 18 19  1  0
 19 20  2  0
 20 21  1  0
 21 22  1  0
 21 23  1  0
  1 24  1  0
 24 25  2  0
 25 26  1  0
 26 27  1  0
 27 28  1  0
 28 29  1  0
 26 30  2  0
 30 31  1  0
 30 32  1  0
 32 33  2  0
 33 34  1  0
 34 35  2  0
 35 36  1  0
 36 37  2  0
 37 38  1  0
 38 39  1  0
 39 40  1  0
 38 41  2  0
 33 42  1  0
 42 43  1  0
 43 44  1  0
 44 45  1  0
 45 46  1  0
 46 47  1  0
 47 48  2  0
 48 49  1  0
 49 50  1  0
 47 51  1  0
 51 52  1  0
 52 53  1  0
 53 54  1  0
 54 55  1  0
 55 56  1  0
 56 57  2  0
 57 58  1  0
 58 59  2  0
 59 60  1  0
 60 61  1  0
 61 62  1  0
 60 63  2  0
 55 64  2  0
 64 65  1  0
 65 66  1  0
 66 67  1  0
 67 68  1  0
 68 69  1  0
 69 70  1  0
 70 71  1  0
 71 72  1  0
 72 73  1  0
 73 74  1  0
 71 75  1  0
 75 76  1  0
 68 77  1  0
 77 78  1  0
 64 79  1  0
 79 80  2  0
 80 81  1  0
 80 82  1  0
 82 83  1  0
 82 84  2  0
 84 85  1  0
 85 86  2  0
 86 87  1  0
 87 88  1  0
 88 89  1  0
 89 90  1  0
 87 91  2  0
 91 92  1  0
 92 93  2  0
 91 94  1  0
 84 95  1  0
 95 96  2  3
 96 97  1  0
 97 98  2  0
 97 99  1  0
 99100  2  0
100101  1  0
101102  2  0
102103  1  0
103104  2  0
104105  1  0
105106  2  3
106107  1  0
107108  3  0
106109  1  0
109110  3  0
102111  1  0
111112  1  0
112113  1  0
113114  2  0
114115  1  0
115116  1  0
115117  1  0
 11  2  1  0
 23 17  1  0
 31 24  1  0
 74 32  1  0
 93 79  1  0
105 96  1  0
117111  1  0
 10  5  1  0
 22 18  1  0
 41 34  1  0
 73 42  2  0
 93 85  1  0
104 99  1  0
116112  1  0
 23  7  1  0
 72 44  2  0
117101  1  0
 70 45  2  0
 50 46  2  0
 69 51  2  0
 67 52  2  0
 66 54  2  0
 63 56  1  0
  1118  1  0
  6119  1  0
  9120  1  0
 17121  1  0
 18122  1  0
 19123  1  0
 20124  1  0
 21125  1  0
 22126  1  0
 22127  1  0
 23128  1  0
 25129  1  0
 28130  1  0
 28131  1  0
 29132  1  0
 29133  1  0
 29134  1  0
 35135  1  0
 36136  1  0
 37137  1  0
 39138  1  0
 39139  1  0
 40140  1  0
 40141  1  0
 40142  1  0
 41143  1  0
 57144  1  0
 58145  1  0
 59146  1  0
 61147  1  0
 61148  1  0
 62149  1  0
 62150  1  0
 62151  1  0
 63152  1  0
 75153  1  0
 75154  1  0
 76155  1  0
 76156  1  0
 76157  1  0
 77158  1  0
 77159  1  0
 78160  1  0
 78161  1  0
 78162  1  0
 89163  1  0
 89164  1  0
 90165  1  0
 90166  1  0
 90167  1  0
 94168  1  0
 94169  1  0
 94170  1  0
 95171  1  0
100172  1  0
103173  1  0
111174  1  0
112175  1  0
113176  1  0
114177  1  0
115178  1  0
116179  1  0
116180  1  0
117181  1  0
M  END

