
     RDKit          3D

157176  0  0  0  0  0  0  0  0999 V2000
    8.2704    3.1124   -5.3879 C   0  0  0  0  0  0  0  0  0  0  0  0
    7.6995    3.5220   -6.5325 C   0  0  0  0  0  0  0  0  0  0  0  0
    8.2429    4.6202   -7.3275 C   0  0  0  0  0  0  0  0  0  0  0  0
    9.4220    5.0568   -7.2811 O   0  0  0  0  0  0  0  0  0  0  0  0
    7.1523    5.2273   -8.0727 C   0  0  0  0  0  0  0  0  0  0  0  0
    7.1796    6.4498   -8.7788 C   0  0  0  0  0  0  0  0  0  0  0  0
    5.9383    6.8559   -9.2305 C   0  0  0  0  0  0  0  0  0  0  0  0
    4.7313    6.1168   -8.9917 C   0  0  0  0  0  0  0  0  0  0  0  0
    4.6963    4.9233   -8.2983 C   0  0  0  0  0  0  0  0  0  0  0  0
    5.9654    4.4802   -7.8398 C   0  0  0  0  0  0  0  0  0  0  0  0
    6.3007    3.2995   -7.0025 C   0  0  0  0  0  0  0  0  0  0  0  0
    5.6433    2.1126   -6.9973 C   0  0  0  0  0  0  0  0  0  0  0  0
    4.3632    1.9308   -7.6316 C   0  0  0  0  0  0  0  0  0  0  0  0
    3.3412    1.7687   -8.1512 N   0  0  0  0  0  0  0  0  0  0  0  0
    6.2691    0.9078   -6.5040 C   0  0  0  0  0  0  0  0  0  0  0  0
    6.7644   -0.0675   -6.1122 N   0  0  0  0  0  0  0  0  0  0  0  0
    3.9222    7.1663   -9.7023 C   0  0  0  0  0  0  0  0  0  0  0  0
    3.4007    6.8564  -11.1377 C   0  0  0  0  0  0  0  0  0  0  0  0
    4.3405    5.8975  -11.8340 C   0  0  0  0  0  0  0  0  0  0  0  0
    5.4704    6.5698  -12.0515 C   0  0  0  0  0  0  0  0  0  0  0  0
    5.2561    7.9651  -11.5035 C   0  0  0  0  0  0  0  0  0  0  0  0
    3.7874    8.1380  -11.8479 C   0  0  0  0  0  0  0  0  0  0  0  0
    5.1636    7.9183   -9.9500 C   0  0  0  0  0  0  0  0  0  0  0  0
    7.5226    2.5329   -4.2658 C   0  0  0  0  0  0  0  0  0  0  0  0
    7.9969    1.5579   -3.3962 C   0  0  0  0  0  0  0  0  0  0  0  0
    7.0502    1.1631   -2.4472 C   0  0  0  0  0  0  0  0  0  0  0  0
    7.3869   -0.1014   -1.2258 S   0  0  0  0  0  0  0  0  0  0  0  0
    6.9999   -1.4838   -2.3587 C   0  0  0  0  0  0  0  0  0  0  0  0
    6.7949   -2.7582   -1.5537 C   0  0  0  0  0  0  0  0  0  0  0  0
    5.8581    1.8809   -2.5243 C   0  0  0  0  0  0  0  0  0  0  0  0
    5.9639    2.9725   -3.7937 S   0  0  0  0  0  0  0  0  0  0  0  0
    4.6232    1.6127   -1.7773 C   0  0  0  0  0  0  0  0  0  0  0  0
    3.7963    2.5749   -1.1669 C   0  0  0  0  0  0  0  0  0  0  0  0
    4.1541    3.9807   -0.9492 C   0  0  0  0  0  0  0  0  0  0  0  0
    3.7483    4.9702   -1.8555 C   0  0  0  0  0  0  0  0  0  0  0  0
    4.0185    6.3171   -1.5800 C   0  0  0  0  0  0  0  0  0  0  0  0
    4.6908    6.6750   -0.4030 C   0  0  0  0  0  0  0  0  0  0  0  0
    5.1272    5.6867    0.4948 C   0  0  0  0  0  0  0  0  0  0  0  0
    5.8102    6.0730    1.7759 C   0  0  0  0  0  0  0  0  0  0  0  0
    4.7864    6.1627    2.9036 C   0  0  0  0  0  0  0  0  0  0  0  0
    4.8458    4.3395    0.2166 C   0  0  0  0  0  0  0  0  0  0  0  0
    2.6383    1.9917   -0.6630 C   0  0  0  0  0  0  0  0  0  0  0  0
    1.2354    2.6311    0.0679 S   0  0  0  0  0  0  0  0  0  0  0  0
    0.5519    1.0818    0.1358 C   0  0  0  0  0  0  0  0  0  0  0  0
   -0.6924    0.5447    0.2790 C   0  0  0  0  0  0  0  0  0  0  0  0
   -1.9133    1.1606    0.5537 C   0  0  0  0  0  0  0  0  0  0  0  0
   -3.1026    0.3898    0.4676 C   0  0  0  0  0  0  0  0  0  0  0  0
   -4.2667    1.0254    0.7590 N   0  0  0  0  0  0  0  0  0  0  0  0
   -3.6942    2.5417    1.0911 S   0  0  0  0  0  0  0  0  0  0  0  0
   -2.0485    2.4646    0.9026 N   0  0  0  0  0  0  0  0  0  0  0  0
   -3.0077   -0.9656    0.1312 C   0  0  0  0  0  0  0  0  0  0  0  0
   -3.9386   -1.9563    0.2806 C   0  0  0  0  0  0  0  0  0  0  0  0
   -5.3595   -2.0339    1.2044 S   0  0  0  0  0  0  0  0  0  0  0  0
   -5.1324   -3.6853    1.5205 C   0  0  0  0  0  0  0  0  0  0  0  0
   -5.6204   -4.4594    2.5709 C   0  0  0  0  0  0  0  0  0  0  0  0
   -6.6292   -3.9638    3.5179 C   0  0  0  0  0  0  0  0  0  0  0  0
   -7.9921   -3.9947    3.1918 C   0  0  0  0  0  0  0  0  0  0  0  0
   -8.9442   -3.5646    4.1199 C   0  0  0  0  0  0  0  0  0  0  0  0
   -8.5455   -3.0953    5.3742 C   0  0  0  0  0  0  0  0  0  0  0  0
   -7.1788   -3.0497    5.7100 C   0  0  0  0  0  0  0  0  0  0  0  0
   -6.7238   -2.5330    7.0493 C   0  0  0  0  0  0  0  0  0  0  0  0
   -6.2595   -1.0835    6.9538 C   0  0  0  0  0  0  0  0  0  0  0  0
   -6.2292   -3.4732    4.7677 C   0  0  0  0  0  0  0  0  0  0  0  0
   -4.7877   -5.5606    2.8247 C   0  0  0  0  0  0  0  0  0  0  0  0
   -3.4665   -5.5273    1.7626 S   0  0  0  0  0  0  0  0  0  0  0  0
   -3.9565   -4.1362    0.9600 C   0  0  0  0  0  0  0  0  0  0  0  0
   -3.2684   -3.1428    0.2563 C   0  0  0  0  0  0  0  0  0  0  0  0
   -1.9375   -2.9651    0.0466 N   0  0  0  0  0  0  0  0  0  0  0  0
   -1.7746   -1.6050   -0.0880 C   0  0  0  0  0  0  0  0  0  0  0  0
   -0.5870   -0.8034   -0.1054 C   0  0  0  0  0  0  0  0  0  0  0  0
    0.6868   -1.0601   -0.5758 N   0  0  0  0  0  0  0  0  0  0  0  0
    1.3400    0.1187   -0.3922 C   0  0  0  0  0  0  0  0  0  0  0  0
    2.5375    0.6381   -0.8663 C   0  0  0  0  0  0  0  0  0  0  0  0
    3.8668    0.0876   -1.7228 S   0  0  0  0  0  0  0  0  0  0  0  0
    1.1415   -2.0894   -1.5234 C   0  0  0  0  0  0  0  0  0  0  0  0
    2.2812   -2.9358   -0.9347 C   0  0  0  0  0  0  0  0  0  0  0  0
   -0.9256   -4.0170    0.2250 C   0  0  0  0  0  0  0  0  0  0  0  0
   -1.0221   -5.0407   -0.9147 C   0  0  0  0  0  0  0  0  0  0  0  0
   -4.7945   -6.3055    4.0913 C   0  0  0  0  0  0  0  0  0  0  0  0
   -3.9503   -6.0208    5.1893 C   0  0  0  0  0  0  0  0  0  0  0  0
   -2.7776   -5.0760    5.1648 C   0  0  0  0  0  0  0  0  0  0  0  0
   -1.4654   -5.8456    5.0772 C   0  0  0  0  0  0  0  0  0  0  0  0
   -4.4506   -6.5998    6.3537 C   0  0  0  0  0  0  0  0  0  0  0  0
   -5.6287   -7.2617    6.2209 C   0  0  0  0  0  0  0  0  0  0  0  0
   -6.1496   -7.1936    4.6370 S   0  0  0  0  0  0  0  0  0  0  0  0
   -6.2555   -7.6250    7.4063 C   0  0  0  0  0  0  0  0  0  0  0  0
   -5.4998   -7.1989    8.5007 C   0  0  0  0  0  0  0  0  0  0  0  0
   -4.0923   -6.3985    7.9817 S   0  0  0  0  0  0  0  0  0  0  0  0
   -5.9442   -7.2147    9.9011 C   0  0  0  0  0  0  0  0  0  0  0  0
   -6.9748   -6.4689   10.3478 C   0  0  0  0  0  0  0  0  0  0  0  0
   -7.6979   -5.4405    9.5573 C   0  0  0  0  0  0  0  0  0  0  0  0
   -7.6659   -5.2712    8.3082 O   0  0  0  0  0  0  0  0  0  0  0  0
   -8.4374   -4.6190   10.4871 C   0  0  0  0  0  0  0  0  0  0  0  0
   -9.2408   -3.4881   10.3713 C   0  0  0  0  0  0  0  0  0  0  0  0
   -9.6990   -3.0754   11.6252 C   0  0  0  0  0  0  0  0  0  0  0  0
   -9.1015   -4.1233   12.8325 S   0  0  0  0  0  0  0  0  0  0  0  0
   -8.2560   -5.0839   11.7449 C   0  0  0  0  0  0  0  0  0  0  0  0
   -7.4017   -6.2808   11.7747 C   0  0  0  0  0  0  0  0  0  0  0  0
   -7.1837   -7.0765   12.8431 C   0  0  0  0  0  0  0  0  0  0  0  0
   -6.5264   -8.3516   12.7345 C   0  0  0  0  0  0  0  0  0  0  0  0
   -6.0132   -9.3852   12.6574 N   0  0  0  0  0  0  0  0  0  0  0  0
   -7.6876   -6.7296   14.1449 C   0  0  0  0  0  0  0  0  0  0  0  0
   -8.0991   -6.4531   15.1919 N   0  0  0  0  0  0  0  0  0  0  0  0
    9.3141    3.3396   -5.2134 H   0  0  0  0  0  0  0  0  0  0  0  0
    8.0752    7.0360   -8.9249 H   0  0  0  0  0  0  0  0  0  0  0  0
    3.7618    4.4290   -8.0924 H   0  0  0  0  0  0  0  0  0  0  0  0
    3.2009    7.7023   -9.0463 H   0  0  0  0  0  0  0  0  0  0  0  0
    2.3259    6.5817  -11.2098 H   0  0  0  0  0  0  0  0  0  0  0  0
    4.1159    4.9029  -12.1912 H   0  0  0  0  0  0  0  0  0  0  0  0
    6.3390    6.2069  -12.5954 H   0  0  0  0  0  0  0  0  0  0  0  0
    5.9371    8.7446  -11.9105 H   0  0  0  0  0  0  0  0  0  0  0  0
    3.3362    9.0508  -11.3962 H   0  0  0  0  0  0  0  0  0  0  0  0
    3.5896    8.1228  -12.9464 H   0  0  0  0  0  0  0  0  0  0  0  0
    5.1910    8.9147   -9.4433 H   0  0  0  0  0  0  0  0  0  0  0  0
    8.9827    1.1284   -3.4654 H   0  0  0  0  0  0  0  0  0  0  0  0
    7.8413   -1.6240   -3.0717 H   0  0  0  0  0  0  0  0  0  0  0  0
    6.0773   -1.2709   -2.9438 H   0  0  0  0  0  0  0  0  0  0  0  0
    6.5017   -3.5825   -2.2316 H   0  0  0  0  0  0  0  0  0  0  0  0
    5.9925   -2.6029   -0.8052 H   0  0  0  0  0  0  0  0  0  0  0  0
    7.7307   -3.0328   -1.0285 H   0  0  0  0  0  0  0  0  0  0  0  0
    3.2055    4.7106   -2.7525 H   0  0  0  0  0  0  0  0  0  0  0  0
    3.6918    7.0896   -2.2706 H   0  0  0  0  0  0  0  0  0  0  0  0
    4.8719    7.7254   -0.1990 H   0  0  0  0  0  0  0  0  0  0  0  0
    6.3114    7.0587    1.6634 H   0  0  0  0  0  0  0  0  0  0  0  0
    6.5887    5.3303    2.0435 H   0  0  0  0  0  0  0  0  0  0  0  0
    5.2745    6.4793    3.8544 H   0  0  0  0  0  0  0  0  0  0  0  0
    4.2976    5.1719    3.0643 H   0  0  0  0  0  0  0  0  0  0  0  0
    4.0010    6.9126    2.6419 H   0  0  0  0  0  0  0  0  0  0  0  0
    5.1385    3.5724    0.9231 H   0  0  0  0  0  0  0  0  0  0  0  0
   -8.3171   -4.3602    2.2266 H   0  0  0  0  0  0  0  0  0  0  0  0
   -9.9952   -3.5884    3.8689 H   0  0  0  0  0  0  0  0  0  0  0  0
   -9.2927   -2.7763    6.0877 H   0  0  0  0  0  0  0  0  0  0  0  0
   -5.8891   -3.1668    7.4190 H   0  0  0  0  0  0  0  0  0  0  0  0
   -7.5460   -2.6056    7.7908 H   0  0  0  0  0  0  0  0  0  0  0  0
   -7.1311   -0.4177    6.7669 H   0  0  0  0  0  0  0  0  0  0  0  0
   -5.7739   -0.7798    7.9065 H   0  0  0  0  0  0  0  0  0  0  0  0
   -5.5268   -0.9605    6.1247 H   0  0  0  0  0  0  0  0  0  0  0  0
   -5.1793   -3.4117    5.0084 H   0  0  0  0  0  0  0  0  0  0  0  0
    0.2960   -2.7312   -1.8288 H   0  0  0  0  0  0  0  0  0  0  0  0
    1.4925   -1.6104   -2.4619 H   0  0  0  0  0  0  0  0  0  0  0  0
    2.3115   -3.9335   -1.4248 H   0  0  0  0  0  0  0  0  0  0  0  0
    3.2712   -2.4528   -1.0749 H   0  0  0  0  0  0  0  0  0  0  0  0
    2.1637   -3.0766    0.1634 H   0  0  0  0  0  0  0  0  0  0  0  0
    0.0697   -3.5799    0.2875 H   0  0  0  0  0  0  0  0  0  0  0  0
   -1.0602   -4.5199    1.1997 H   0  0  0  0  0  0  0  0  0  0  0  0
   -1.0492   -4.5255   -1.9028 H   0  0  0  0  0  0  0  0  0  0  0  0
   -1.9441   -5.6423   -0.8085 H   0  0  0  0  0  0  0  0  0  0  0  0
   -0.1457   -5.7331   -0.8885 H   0  0  0  0  0  0  0  0  0  0  0  0
   -2.7772   -4.4601    6.0929 H   0  0  0  0  0  0  0  0  0  0  0  0
   -2.8586   -4.3667    4.3162 H   0  0  0  0  0  0  0  0  0  0  0  0
   -0.6257   -5.1271    4.9398 H   0  0  0  0  0  0  0  0  0  0  0  0
   -1.4811   -6.5426    4.2134 H   0  0  0  0  0  0  0  0  0  0  0  0
   -1.2967   -6.4076    6.0198 H   0  0  0  0  0  0  0  0  0  0  0  0
   -7.2389   -8.0686    7.4694 H   0  0  0  0  0  0  0  0  0  0  0  0
   -5.3187   -7.7480   10.5991 H   0  0  0  0  0  0  0  0  0  0  0  0
   -9.4882   -3.0047    9.4413 H   0  0  0  0  0  0  0  0  0  0  0  0
  -10.3460   -2.2232   11.7981 H   0  0  0  0  0  0  0  0  0  0  0  0
  1  2  2  3
  2  3  1  0
  3  4  2  0
  3  5  1  0
  5  6  2  0
  6  7  1  0
  7  8  2  0
  8  9  1  0
  9 10  2  0
 10 11  1  0
 11 12  2  3
 12 13  1  0
 13 14  3  0
 12 15  1  0
 15 16  3  0
  8 17  1  0
 17 18  1  0
 18 19  1  0
 19 20  2  0
 20 21  1  0
 21 22  1  0
 21 23  1  0
  1 24  1  0
 24 25  2  0
 25 26  1  0
 26 27  1  0
 27 28  1  0
 28 29  1  0
 26 30  2  0
 30 31  1  0
 30 32  1  0
 32 33  2  0
 33 34  1  0
 34 35  2  0
 35 36  1  0
 36 37  2  0
 37 38  1  0
 38 39  1  0
 39 40  1  0
 38 41  2  0
 33 42  1  0
 42 43  1  0
 43 44  1  0
 44 45  1  0
 45 46  1  0
 46 47  1  0
 47 48  2  0
 48 49  1  0
 49 50  1  0
 47 51  1  0
 51 52  1  0
 52 53  1  0
 53 54  1  0
 54 55  1  0
 55 56  1  0
 56 57  2  0
 57 58  1  0
 58 59  2  0
 59 60  1  0
 60 61  1  0
 61 62  1  0
 60 63  2  0
 55 64  2  0
 64 65  1  0
 65 66  1  0
 66 67  1  0
 67 68  1  0
 68 69  1  0
 69 70  1  0
 70 71  1  0
 71 72  1  0
 72 73  1  0
 73 74  1  0
 71 75  1  0
 75 76  1  0
 68 77  1  0
 77 78  1  0
 64 79  1  0
 79 80  2  0
 80 81  1  0
 81 82  1  0
 80 83  1  0
 83 84  2  0
 84 85  1  0
 84 86  1  0
 86 87  2  0
 87 88  1  0
 87 89  1  0
 89 90  2  3
 90 91  1  0
 91 92  2  0
 91 93  1  0
 93 94  1  0
 94 95  2  0
 95 96  1  0
 96 97  1  0
 97 98  1  0
 98 99  2  3
 99100  1  0
100101  3  0
 99102  1  0
102103  3  0
 11  2  1  0
 23 17  1  0
 31 24  1  0
 74 32  1  0
 85 79  1  0
 98 90  1  0
 10  5  1  0
 22 18  1  0
 41 34  1  0
 73 42  2  0
 88 83  1  0
 97 93  2  0
 23  7  1  0
 72 44  2  0
 70 45  2  0
 50 46  2  0
 69 51  2  0
 67 52  2  0
 66 54  2  0
 63 56  1  0
  1104  1  0
  6105  1  0
  9106  1  0
 17107  1  0
 18108  1  0
 19109  1  0
 20110  1  0
 21111  1  0
 22112  1  0
 22113  1  0
 23114  1  0
 25115  1  0
 28116  1  0
 28117  1  0
 29118  1  0
 29119  1  0
 29120  1  0
 35121  1  0
 36122  1  0
 37123  1  0
 39124  1  0
 39125  1  0
 40126  1  0
 40127  1  0
 40128  1  0
 41129  1  0
 57130  1  0
 58131  1  0
 59132  1  0
 61133  1  0
 61134  1  0
 62135  1  0
 62136  1  0
 62137  1  0
 63138  1  0
 75139  1  0
 75140  1  0
 76141  1  0
 76142  1  0
 76143  1  0
 77144  1  0
 77145  1  0
 78146  1  0
 78147  1  0
 78148  1  0
 81149  1  0
 81150  1  0
 82151  1  0
 82152  1  0
 82153  1  0
 86154  1  0
 89155  1  0
 94156  1  0
 95157  1  0
M  END

