
     RDKit          3D

257287  0  0  0  0  0  0  0  0999 V2000
    0.1147    0.2615   10.2446 C   0  0  0  0  0  0  0  0  0  0  0  0
   -0.6472    1.2692    9.7809 C   0  0  0  0  0  0  0  0  0  0  0  0
   -0.3182    2.6799    9.9913 C   0  0  0  0  0  0  0  0  0  0  0  0
    0.4368    3.1385   10.8875 O   0  0  0  0  0  0  0  0  0  0  0  0
   -0.9233    3.4545    8.9218 C   0  0  0  0  0  0  0  0  0  0  0  0
   -0.7756    4.8422    8.6669 C   0  0  0  0  0  0  0  0  0  0  0  0
   -1.4350    5.2766    7.5278 C   0  0  0  0  0  0  0  0  0  0  0  0
   -2.1965    4.4012    6.6852 C   0  0  0  0  0  0  0  0  0  0  0  0
   -2.3487    3.0513    6.9287 C   0  0  0  0  0  0  0  0  0  0  0  0
   -1.6864    2.5850    8.0945 C   0  0  0  0  0  0  0  0  0  0  0  0
   -1.6547    1.2143    8.6803 C   0  0  0  0  0  0  0  0  0  0  0  0
   -2.6174    0.2708    8.5433 C   0  0  0  0  0  0  0  0  0  0  0  0
   -2.8926   -0.6777    9.5910 C   0  0  0  0  0  0  0  0  0  0  0  0
   -3.1395   -1.4234   10.4438 N   0  0  0  0  0  0  0  0  0  0  0  0
   -3.5686    0.2748    7.4636 C   0  0  0  0  0  0  0  0  0  0  0  0
   -4.3343    0.2534    6.5943 N   0  0  0  0  0  0  0  0  0  0  0  0
   -2.5175    5.5382    5.7632 C   0  0  0  0  0  0  0  0  0  0  0  0
   -1.7727    5.6061    4.3935 C   0  0  0  0  0  0  0  0  0  0  0  0
   -0.3951    4.9985    4.5243 C   0  0  0  0  0  0  0  0  0  0  0  0
    0.3102    5.8149    5.3071 C   0  0  0  0  0  0  0  0  0  0  0  0
   -0.6110    6.9530    5.6859 C   0  0  0  0  0  0  0  0  0  0  0  0
   -1.3826    7.0749    4.3848 C   0  0  0  0  0  0  0  0  0  0  0  0
   -1.7424    6.4375    6.6271 C   0  0  0  0  0  0  0  0  0  0  0  0
    0.2118   -1.0326    9.5520 C   0  0  0  0  0  0  0  0  0  0  0  0
    0.5171   -1.1881    8.2004 C   0  0  0  0  0  0  0  0  0  0  0  0
    0.3175   -2.5003    7.7459 C   0  0  0  0  0  0  0  0  0  0  0  0
    0.4903   -2.9720    6.4266 C   0  0  0  0  0  0  0  0  0  0  0  0
    1.1488   -2.1788    5.3588 C   0  0  0  0  0  0  0  0  0  0  0  0
    0.6631   -0.9224    4.9575 C   0  0  0  0  0  0  0  0  0  0  0  0
    1.3348   -0.1828    3.9768 C   0  0  0  0  0  0  0  0  0  0  0  0
    2.4801   -0.7109    3.3537 C   0  0  0  0  0  0  0  0  0  0  0  0
    3.2312    0.0854    2.3173 C   0  0  0  0  0  0  0  0  0  0  0  0
    4.6565    0.3855    2.7787 C   0  0  0  0  0  0  0  0  0  0  0  0
    2.9292   -1.9903    3.7131 C   0  0  0  0  0  0  0  0  0  0  0  0
    2.2827   -2.7079    4.7177 C   0  0  0  0  0  0  0  0  0  0  0  0
    0.0780   -4.2915    6.1703 C   0  0  0  0  0  0  0  0  0  0  0  0
   -0.4350   -5.1339    7.1580 C   0  0  0  0  0  0  0  0  0  0  0  0
   -0.4975   -4.7032    8.5030 C   0  0  0  0  0  0  0  0  0  0  0  0
   -0.9684   -5.6005    9.5788 C   0  0  0  0  0  0  0  0  0  0  0  0
   -2.0837   -5.2556   10.3601 C   0  0  0  0  0  0  0  0  0  0  0  0
   -2.5203   -6.1028   11.3827 C   0  0  0  0  0  0  0  0  0  0  0  0
   -1.8537   -7.3140   11.6301 C   0  0  0  0  0  0  0  0  0  0  0  0
   -2.2921   -8.2049   12.7596 C   0  0  0  0  0  0  0  0  0  0  0  0
   -1.4765   -7.9185   14.0160 C   0  0  0  0  0  0  0  0  0  0  0  0
   -0.7341   -7.6546   10.8503 C   0  0  0  0  0  0  0  0  0  0  0  0
   -0.2946   -6.8065    9.8308 C   0  0  0  0  0  0  0  0  0  0  0  0
   -0.1246   -3.3657    8.7580 C   0  0  0  0  0  0  0  0  0  0  0  0
   -0.2062   -2.5219   10.2157 S   0  0  0  0  0  0  0  0  0  0  0  0
   -1.0013   -6.3103    6.6409 C   0  0  0  0  0  0  0  0  0  0  0  0
   -0.9322   -6.3986    5.2508 C   0  0  0  0  0  0  0  0  0  0  0  0
   -0.1650   -5.0083    4.6705 S   0  0  0  0  0  0  0  0  0  0  0  0
   -1.9777   -7.0243    4.4482 C   0  0  0  0  0  0  0  0  0  0  0  0
   -1.8401   -8.0427    3.4801 C   0  0  0  0  0  0  0  0  0  0  0  0
   -0.6644   -8.9321    3.3304 C   0  0  0  0  0  0  0  0  0  0  0  0
    0.6515   -8.4365    3.3527 C   0  0  0  0  0  0  0  0  0  0  0  0
    1.7396   -9.3143    3.2718 C   0  0  0  0  0  0  0  0  0  0  0  0
    1.5279  -10.6910    3.1744 C   0  0  0  0  0  0  0  0  0  0  0  0
    0.2208  -11.2035    3.1512 C   0  0  0  0  0  0  0  0  0  0  0  0
   -0.0087  -12.6864    3.0321 C   0  0  0  0  0  0  0  0  0  0  0  0
   -0.0365  -13.1081    1.5666 C   0  0  0  0  0  0  0  0  0  0  0  0
   -0.8694  -10.3171    3.2003 C   0  0  0  0  0  0  0  0  0  0  0  0
   -2.9695   -8.0840    2.6437 C   0  0  0  0  0  0  0  0  0  0  0  0
   -3.0972   -8.5449    1.0121 S   0  0  0  0  0  0  0  0  0  0  0  0
   -4.4229   -7.5205    0.7172 C   0  0  0  0  0  0  0  0  0  0  0  0
   -4.6238   -6.6675   -0.3466 C   0  0  0  0  0  0  0  0  0  0  0  0
   -4.4674   -6.8475   -1.7302 C   0  0  0  0  0  0  0  0  0  0  0  0
   -4.6243   -5.7185   -2.5921 C   0  0  0  0  0  0  0  0  0  0  0  0
   -4.4531   -5.9345   -3.9205 N   0  0  0  0  0  0  0  0  0  0  0  0
   -4.1543   -7.5624   -3.9010 S   0  0  0  0  0  0  0  0  0  0  0  0
   -4.1947   -8.0383   -2.3140 N   0  0  0  0  0  0  0  0  0  0  0  0
   -4.8405   -4.4547   -2.0242 C   0  0  0  0  0  0  0  0  0  0  0  0
   -4.5991   -3.2146   -2.5486 C   0  0  0  0  0  0  0  0  0  0  0  0
   -3.9615   -2.6097   -4.0010 S   0  0  0  0  0  0  0  0  0  0  0  0
   -3.4180   -1.1888   -3.2321 C   0  0  0  0  0  0  0  0  0  0  0  0
   -2.6653   -0.0818   -3.6486 C   0  0  0  0  0  0  0  0  0  0  0  0
   -2.3159    0.2214   -5.0639 C   0  0  0  0  0  0  0  0  0  0  0  0
   -2.4524    1.5324   -5.5441 C   0  0  0  0  0  0  0  0  0  0  0  0
   -2.2268    1.8350   -6.8846 C   0  0  0  0  0  0  0  0  0  0  0  0
   -1.8350    0.8330   -7.7693 C   0  0  0  0  0  0  0  0  0  0  0  0
   -1.6522   -0.4826   -7.3129 C   0  0  0  0  0  0  0  0  0  0  0  0
   -1.2250   -1.5620   -8.2765 C   0  0  0  0  0  0  0  0  0  0  0  0
    0.1886   -1.3184   -8.8028 C   0  0  0  0  0  0  0  0  0  0  0  0
   -1.8987   -0.7838   -5.9556 C   0  0  0  0  0  0  0  0  0  0  0  0
   -2.3511    0.7440   -2.5423 C   0  0  0  0  0  0  0  0  0  0  0  0
   -2.9753    0.0708   -1.1121 S   0  0  0  0  0  0  0  0  0  0  0  0
   -3.6920   -1.2303   -1.8870 C   0  0  0  0  0  0  0  0  0  0  0  0
   -4.3786   -2.3777   -1.5011 C   0  0  0  0  0  0  0  0  0  0  0  0
   -4.5183   -2.9939   -0.2998 N   0  0  0  0  0  0  0  0  0  0  0  0
   -4.8903   -4.2746   -0.6279 C   0  0  0  0  0  0  0  0  0  0  0  0
   -4.9363   -5.4252    0.2001 C   0  0  0  0  0  0  0  0  0  0  0  0
   -5.0940   -5.5221    1.5515 N   0  0  0  0  0  0  0  0  0  0  0  0
   -4.7236   -6.7905    1.8456 C   0  0  0  0  0  0  0  0  0  0  0  0
   -3.9346   -7.1483    2.9295 C   0  0  0  0  0  0  0  0  0  0  0  0
   -3.4435   -6.2101    4.2152 S   0  0  0  0  0  0  0  0  0  0  0  0
   -5.9761   -4.7229    2.4182 C   0  0  0  0  0  0  0  0  0  0  0  0
   -7.3607   -4.5456    1.8012 C   0  0  0  0  0  0  0  0  0  0  0  0
   -3.8508   -2.5507    0.9271 C   0  0  0  0  0  0  0  0  0  0  0  0
   -4.6826   -1.4808    1.6298 C   0  0  0  0  0  0  0  0  0  0  0  0
   -1.3927    1.8551   -2.5727 C   0  0  0  0  0  0  0  0  0  0  0  0
   -1.6934    3.2327   -2.4565 C   0  0  0  0  0  0  0  0  0  0  0  0
   -2.6973    3.7407   -1.5609 N   0  0  0  0  0  0  0  0  0  0  0  0
   -3.6443    4.7443   -1.9941 C   0  0  0  0  0  0  0  0  0  0  0  0
   -3.9984    5.8062   -1.1420 C   0  0  0  0  0  0  0  0  0  0  0  0
   -4.9503    6.7485   -1.5407 C   0  0  0  0  0  0  0  0  0  0  0  0
   -5.5625    6.6509   -2.8003 C   0  0  0  0  0  0  0  0  0  0  0  0
   -6.6331    7.6280   -3.1889 C   0  0  0  0  0  0  0  0  0  0  0  0
   -5.2060    5.5977   -3.6526 C   0  0  0  0  0  0  0  0  0  0  0  0
   -4.2470    4.6636   -3.2588 C   0  0  0  0  0  0  0  0  0  0  0  0
   -2.6313    3.3284   -0.1789 C   0  0  0  0  0  0  0  0  0  0  0  0
   -1.3799    3.1785    0.4502 C   0  0  0  0  0  0  0  0  0  0  0  0
   -1.2839    2.5789    1.7083 C   0  0  0  0  0  0  0  0  0  0  0  0
   -2.4383    2.1509    2.3722 C   0  0  0  0  0  0  0  0  0  0  0  0
   -2.3044    1.3787    3.6506 C   0  0  0  0  0  0  0  0  0  0  0  0
   -3.6963    2.3654    1.7839 C   0  0  0  0  0  0  0  0  0  0  0  0
   -3.7918    2.9574    0.5156 C   0  0  0  0  0  0  0  0  0  0  0  0
   -0.5829    3.9886   -2.8242 C   0  0  0  0  0  0  0  0  0  0  0  0
   -0.2396    5.6372   -2.9057 S   0  0  0  0  0  0  0  0  0  0  0  0
    1.4067    5.3772   -3.2897 C   0  0  0  0  0  0  0  0  0  0  0  0
    1.6886    4.0090   -3.2892 C   0  0  0  0  0  0  0  0  0  0  0  0
    3.0054    3.4873   -3.0601 N   0  0  0  0  0  0  0  0  0  0  0  0
    3.7979    3.1161   -4.1997 C   0  0  0  0  0  0  0  0  0  0  0  0
    3.5408    1.9155   -4.8705 C   0  0  0  0  0  0  0  0  0  0  0  0
    4.4070    1.4718   -5.8744 C   0  0  0  0  0  0  0  0  0  0  0  0
    5.5258    2.2404   -6.2321 C   0  0  0  0  0  0  0  0  0  0  0  0
    6.5279    1.7022   -7.2091 C   0  0  0  0  0  0  0  0  0  0  0  0
    5.7617    3.4605   -5.5849 C   0  0  0  0  0  0  0  0  0  0  0  0
    4.9011    3.8945   -4.5731 C   0  0  0  0  0  0  0  0  0  0  0  0
    3.5692    3.4876   -1.7162 C   0  0  0  0  0  0  0  0  0  0  0  0
    4.8422    2.9346   -1.4616 C   0  0  0  0  0  0  0  0  0  0  0  0
    5.4210    3.0163   -0.1876 C   0  0  0  0  0  0  0  0  0  0  0  0
    4.7289    3.6286    0.8683 C   0  0  0  0  0  0  0  0  0  0  0  0
    5.3574    3.7783    2.2226 C   0  0  0  0  0  0  0  0  0  0  0  0
    3.4422    4.1250    0.6426 C   0  0  0  0  0  0  0  0  0  0  0  0
    2.8635    4.0478   -0.6268 C   0  0  0  0  0  0  0  0  0  0  0  0
    0.5420    3.2695   -3.0772 C   0  0  0  0  0  0  0  0  0  0  0  0
    0.2387    1.6328   -2.9892 S   0  0  0  0  0  0  0  0  0  0  0  0
    2.3278    6.3502   -3.8923 C   0  0  0  0  0  0  0  0  0  0  0  0
    2.3851    6.4677   -5.2359 C   0  0  0  0  0  0  0  0  0  0  0  0
    1.3982    5.8798   -6.1582 C   0  0  0  0  0  0  0  0  0  0  0  0
    0.1819    5.6679   -5.9160 O   0  0  0  0  0  0  0  0  0  0  0  0
    2.0518    5.5726   -7.4044 C   0  0  0  0  0  0  0  0  0  0  0  0
    1.5120    4.8114   -8.4635 C   0  0  0  0  0  0  0  0  0  0  0  0
    2.4301    4.4950   -9.4401 C   0  0  0  0  0  0  0  0  0  0  0  0
    3.8067    4.8935   -9.3836 C   0  0  0  0  0  0  0  0  0  0  0  0
    4.3376    5.6481   -8.3440 C   0  0  0  0  0  0  0  0  0  0  0  0
    3.3999    6.0055   -7.3377 C   0  0  0  0  0  0  0  0  0  0  0  0
    3.6177    6.7129   -6.0407 C   0  0  0  0  0  0  0  0  0  0  0  0
    4.6527    7.5277   -5.7148 C   0  0  0  0  0  0  0  0  0  0  0  0
    5.7462    7.7849   -6.6165 C   0  0  0  0  0  0  0  0  0  0  0  0
    6.6327    8.0061   -7.3264 N   0  0  0  0  0  0  0  0  0  0  0  0
    4.6560    8.3050   -4.5020 C   0  0  0  0  0  0  0  0  0  0  0  0
    4.6678    8.9392   -3.5319 N   0  0  0  0  0  0  0  0  0  0  0  0
    4.0864    4.1438  -10.6498 C   0  0  0  0  0  0  0  0  0  0  0  0
    4.8439    2.7952  -10.4955 C   0  0  0  0  0  0  0  0  0  0  0  0
    4.6695    2.0672  -11.8077 C   0  0  0  0  0  0  0  0  0  0  0  0
    3.3848    1.6945  -11.8660 C   0  0  0  0  0  0  0  0  0  0  0  0
    2.7371    2.1895  -10.5944 C   0  0  0  0  0  0  0  0  0  0  0  0
    3.8998    1.9662   -9.6437 C   0  0  0  0  0  0  0  0  0  0  0  0
    2.6785    3.7400  -10.7121 C   0  0  0  0  0  0  0  0  0  0  0  0
    0.8253    0.4488   11.0350 H   0  0  0  0  0  0  0  0  0  0  0  0
   -0.1904    5.5073    9.2941 H   0  0  0  0  0  0  0  0  0  0  0  0
   -2.9111    2.4336    6.2524 H   0  0  0  0  0  0  0  0  0  0  0  0
   -3.6059    5.7875    5.7166 H   0  0  0  0  0  0  0  0  0  0  0  0
   -2.3590    5.2682    3.5130 H   0  0  0  0  0  0  0  0  0  0  0  0
   -0.0110    4.1213    4.0107 H   0  0  0  0  0  0  0  0  0  0  0  0
    1.3649    5.7154    5.5439 H   0  0  0  0  0  0  0  0  0  0  0  0
   -0.1009    7.8778    6.0267 H   0  0  0  0  0  0  0  0  0  0  0  0
   -0.7424    7.3582    3.5148 H   0  0  0  0  0  0  0  0  0  0  0  0
   -2.2550    7.7635    4.4504 H   0  0  0  0  0  0  0  0  0  0  0  0
   -2.3555    7.2341    7.1074 H   0  0  0  0  0  0  0  0  0  0  0  0
    0.8247   -0.3639    7.5746 H   0  0  0  0  0  0  0  0  0  0  0  0
   -0.2318   -0.5146    5.4047 H   0  0  0  0  0  0  0  0  0  0  0  0
    0.9595    0.7972    3.7005 H   0  0  0  0  0  0  0  0  0  0  0  0
    2.7164    1.0493    2.1105 H   0  0  0  0  0  0  0  0  0  0  0  0
    3.2677   -0.4937    1.3684 H   0  0  0  0  0  0  0  0  0  0  0  0
    5.2208   -0.5515    2.9714 H   0  0  0  0  0  0  0  0  0  0  0  0
    4.6333    0.9961    3.7086 H   0  0  0  0  0  0  0  0  0  0  0  0
    5.1953    0.9451    1.9881 H   0  0  0  0  0  0  0  0  0  0  0  0
    3.7940   -2.4319    3.2277 H   0  0  0  0  0  0  0  0  0  0  0  0
    2.6684   -3.6798    5.0000 H   0  0  0  0  0  0  0  0  0  0  0  0
   -2.6137   -4.3310   10.1762 H   0  0  0  0  0  0  0  0  0  0  0  0
   -3.3752   -5.8137   11.9795 H   0  0  0  0  0  0  0  0  0  0  0  0
   -2.1654   -9.2709   12.4772 H   0  0  0  0  0  0  0  0  0  0  0  0
   -3.3683   -8.0435   12.9802 H   0  0  0  0  0  0  0  0  0  0  0  0
   -1.5822   -6.8484   14.3065 H   0  0  0  0  0  0  0  0  0  0  0  0
   -1.8374   -8.5493   14.8522 H   0  0  0  0  0  0  0  0  0  0  0  0
   -0.4035   -8.1447   13.8316 H   0  0  0  0  0  0  0  0  0  0  0  0
   -0.1941   -8.5708   11.0488 H   0  0  0  0  0  0  0  0  0  0  0  0
    0.5809   -7.0752    9.2528 H   0  0  0  0  0  0  0  0  0  0  0  0
   -1.5843   -6.9981    7.2366 H   0  0  0  0  0  0  0  0  0  0  0  0
    0.8439   -7.3743    3.4062 H   0  0  0  0  0  0  0  0  0  0  0  0
    2.7491   -8.9235    3.2737 H   0  0  0  0  0  0  0  0  0  0  0  0
    2.3802  -11.3590    3.1110 H   0  0  0  0  0  0  0  0  0  0  0  0
    0.7941  -13.2446    3.5608 H   0  0  0  0  0  0  0  0  0  0  0  0
   -0.9721  -12.9623    3.5115 H   0  0  0  0  0  0  0  0  0  0  0  0
   -0.8485  -12.5729    1.0245 H   0  0  0  0  0  0  0  0  0  0  0  0
   -0.2207  -14.1996    1.4972 H   0  0  0  0  0  0  0  0  0  0  0  0
    0.9406  -12.8803    1.0853 H   0  0  0  0  0  0  0  0  0  0  0  0
   -1.8766  -10.7140    3.1643 H   0  0  0  0  0  0  0  0  0  0  0  0
   -2.7696    2.3209   -4.8858 H   0  0  0  0  0  0  0  0  0  0  0  0
   -2.3708    2.8487   -7.2380 H   0  0  0  0  0  0  0  0  0  0  0  0
   -1.6784    1.0828   -8.8130 H   0  0  0  0  0  0  0  0  0  0  0  0
   -1.2522   -2.5581   -7.7829 H   0  0  0  0  0  0  0  0  0  0  0  0
   -1.9318   -1.5930   -9.1336 H   0  0  0  0  0  0  0  0  0  0  0  0
    0.9008   -1.1827   -7.9591 H   0  0  0  0  0  0  0  0  0  0  0  0
    0.2118   -0.4187   -9.4546 H   0  0  0  0  0  0  0  0  0  0  0  0
    0.5163   -2.1915   -9.4055 H   0  0  0  0  0  0  0  0  0  0  0  0
   -1.7679   -1.7966   -5.6056 H   0  0  0  0  0  0  0  0  0  0  0  0
   -6.1051   -5.2364    3.3980 H   0  0  0  0  0  0  0  0  0  0  0  0
   -5.5342   -3.7507    2.6567 H   0  0  0  0  0  0  0  0  0  0  0  0
   -7.3034   -3.9547    0.8606 H   0  0  0  0  0  0  0  0  0  0  0  0
   -7.8095   -5.5363    1.5808 H   0  0  0  0  0  0  0  0  0  0  0  0
   -8.0231   -4.0047    2.5080 H   0  0  0  0  0  0  0  0  0  0  0  0
   -2.8459   -2.1332    0.6882 H   0  0  0  0  0  0  0  0  0  0  0  0
   -3.6387   -3.4040    1.5949 H   0  0  0  0  0  0  0  0  0  0  0  0
   -4.3451   -1.3722    2.6822 H   0  0  0  0  0  0  0  0  0  0  0  0
   -5.7570   -1.7555    1.6051 H   0  0  0  0  0  0  0  0  0  0  0  0
   -4.5700   -0.5071    1.1161 H   0  0  0  0  0  0  0  0  0  0  0  0
   -3.5397    5.9057   -0.1641 H   0  0  0  0  0  0  0  0  0  0  0  0
   -5.2200    7.5510   -0.8630 H   0  0  0  0  0  0  0  0  0  0  0  0
   -6.8767    7.5445   -4.2681 H   0  0  0  0  0  0  0  0  0  0  0  0
   -6.2960    8.6671   -2.9901 H   0  0  0  0  0  0  0  0  0  0  0  0
   -7.5540    7.4270   -2.5993 H   0  0  0  0  0  0  0  0  0  0  0  0
   -5.6875    5.4869   -4.6185 H   0  0  0  0  0  0  0  0  0  0  0  0
   -4.0099    3.8505   -3.9263 H   0  0  0  0  0  0  0  0  0  0  0  0
   -0.4711    3.4858   -0.0465 H   0  0  0  0  0  0  0  0  0  0  0  0
   -0.3088    2.4243    2.1475 H   0  0  0  0  0  0  0  0  0  0  0  0
   -1.9804    0.3414    3.4227 H   0  0  0  0  0  0  0  0  0  0  0  0
   -3.2711    1.3457    4.1925 H   0  0  0  0  0  0  0  0  0  0  0  0
   -1.5386    1.8534    4.2949 H   0  0  0  0  0  0  0  0  0  0  0  0
   -4.5994    2.0324    2.2826 H   0  0  0  0  0  0  0  0  0  0  0  0
   -4.7639    3.0636    0.0519 H   0  0  0  0  0  0  0  0  0  0  0  0
    2.7098    1.2952   -4.5734 H   0  0  0  0  0  0  0  0  0  0  0  0
    4.2231    0.5136   -6.3482 H   0  0  0  0  0  0  0  0  0  0  0  0
    6.0420    1.0305   -7.9425 H   0  0  0  0  0  0  0  0  0  0  0  0
    7.0218    2.5285   -7.7599 H   0  0  0  0  0  0  0  0  0  0  0  0
    7.2981    1.1213   -6.6598 H   0  0  0  0  0  0  0  0  0  0  0  0
    6.6299    4.0635   -5.8335 H   0  0  0  0  0  0  0  0  0  0  0  0
    5.1211    4.8095   -4.0412 H   0  0  0  0  0  0  0  0  0  0  0  0
    5.4047    2.4497   -2.2477 H   0  0  0  0  0  0  0  0  0  0  0  0
    6.4076    2.5948   -0.0275 H   0  0  0  0  0  0  0  0  0  0  0  0
    6.3444    3.2736    2.2675 H   0  0  0  0  0  0  0  0  0  0  0  0
    4.6919    3.3367    2.9888 H   0  0  0  0  0  0  0  0  0  0  0  0
    5.4969    4.8561    2.4441 H   0  0  0  0  0  0  0  0  0  0  0  0
    2.8918    4.5877    1.4563 H   0  0  0  0  0  0  0  0  0  0  0  0
    1.8704    4.4530   -0.7444 H   0  0  0  0  0  0  0  0  0  0  0  0
    3.1845    6.6123   -3.2899 H   0  0  0  0  0  0  0  0  0  0  0  0
    0.4918    4.4501   -8.4766 H   0  0  0  0  0  0  0  0  0  0  0  0
    5.3950    5.8602   -8.3000 H   0  0  0  0  0  0  0  0  0  0  0  0
    4.4166    4.7939  -11.4933 H   0  0  0  0  0  0  0  0  0  0  0  0
    5.8879    2.8717  -10.1314 H   0  0  0  0  0  0  0  0  0  0  0  0
    5.4471    1.7985  -12.5148 H   0  0  0  0  0  0  0  0  0  0  0  0
    2.9375    1.0690  -12.6289 H   0  0  0  0  0  0  0  0  0  0  0  0
    1.7848    1.6905  -10.3179 H   0  0  0  0  0  0  0  0  0  0  0  0
    3.7312    2.3667   -8.6193 H   0  0  0  0  0  0  0  0  0  0  0  0
    4.1981    0.8961   -9.5565 H   0  0  0  0  0  0  0  0  0  0  0  0
    2.1132    4.1341  -11.5847 H   0  0  0  0  0  0  0  0  0  0  0  0
  1  2  2  3
  2  3  1  0
  3  4  2  0
  3  5  1  0
  5  6  2  0
  6  7  1  0
  7  8  2  0
  8  9  1  0
  9 10  2  0
 10 11  1  0
 11 12  2  3
 12 13  1  0
 13 14  3  0
 12 15  1  0
 15 16  3  0
  8 17  1  0
 17 18  1  0
 18 19  1  0
 19 20  2  0
 20 21  1  0
 21 22  1  0
 21 23  1  0
  1 24  1  0
 24 25  2  0
 25 26  1  0
 26 27  2  0
 27 28  1  0
 28 29  2  0
 29 30  1  0
 30 31  2  0
 31 32  1  0
 32 33  1  0
 31 34  1  0
 34 35  2  0
 27 36  1  0
 36 37  2  0
 37 38  1  0
 38 39  1  0
 39 40  2  0
 40 41  1  0
 41 42  2  0
 42 43  1  0
 43 44  1  0
 42 45  1  0
 45 46  2  0
 38 47  2  0
 47 48  1  0
 37 49  1  0
 49 50  2  0
 50 51  1  0
 50 52  1  0
 52 53  2  0
 53 54  1  0
 54 55  2  0
 55 56  1  0
 56 57  2  0
 57 58  1  0
 58 59  1  0
 59 60  1  0
 58 61  2  0
 53 62  1  0
 62 63  1  0
 63 64  1  0
 64 65  1  0
 65 66  1  0
 66 67  1  0
 67 68  2  0
 68 69  1  0
 69 70  1  0
 67 71  1  0
 71 72  1  0
 72 73  1  0
 73 74  1  0
 74 75  1  0
 75 76  1  0
 76 77  2  0
 77 78  1  0
 78 79  2  0
 79 80  1  0
 80 81  1  0
 81 82  1  0
 80 83  2  0
 75 84  2  0
 84 85  1  0
 85 86  1  0
 86 87  1  0
 87 88  1  0
 88 89  1  0
 89 90  1  0
 90 91  1  0
 91 92  1  0
 92 93  1  0
 93 94  1  0
 91 95  1  0
 95 96  1  0
 88 97  1  0
 97 98  1  0
 84 99  1  0
 99100  2  0
100101  1  0
101102  1  0
102103  2  0
103104  1  0
104105  2  0
105106  1  0
105107  1  0
107108  2  0
101109  1  0
109110  2  0
110111  1  0
111112  2  0
112113  1  0
112114  1  0
114115  2  0
100116  1  0
116117  1  0
117118  1  0
118119  2  0
119120  1  0
120121  1  0
121122  2  0
122123  1  0
123124  2  0
124125  1  0
124126  1  0
126127  2  0
120128  1  0
128129  2  0
129130  1  0
130131  2  0
131132  1  0
131133  1  0
133134  2  0
119135  1  0
135136  1  0
118137  1  0
137138  2  3
138139  1  0
139140  2  0
139141  1  0
141142  2  0
142143  1  0
143144  2  0
144145  1  0
145146  2  0
146147  1  0
147148  2  3
148149  1  0
149150  3  0
148151  1  0
151152  3  0
144153  1  0
153154  1  0
154155  1  0
155156  2  0
156157  1  0
157158  1  0
157159  1  0
 11  2  1  0
 23 17  1  0
 48 24  1  0
 94 52  1  0
136 99  1  0
147138  1  0
159153  1  0
 10  5  1  0
 22 18  1  0
 47 26  1  0
 61 54  1  0
 93 62  2  0
108102  1  0
115109  1  0
135116  2  0
146141  1  0
158154  1  0
 23  7  1  0
 35 28  1  0
 51 36  1  0
 92 64  2  0
127121  1  0
134128  1  0
159143  1  0
 46 39  1  0
 90 65  2  0
 70 66  2  0
 89 71  2  0
 87 72  2  0
 86 74  2  0
 83 76  1  0
  1160  1  0
  6161  1  0
  9162  1  0
 17163  1  0
 18164  1  0
 19165  1  0
 20166  1  0
 21167  1  0
 22168  1  0
 22169  1  0
 23170  1  0
 25171  1  0
 29172  1  0
 30173  1  0
 32174  1  0
 32175  1  0
 33176  1  0
 33177  1  0
 33178  1  0
 34179  1  0
 35180  1  0
 40181  1  0
 41182  1  0
 43183  1  0
 43184  1  0
 44185  1  0
 44186  1  0
 44187  1  0
 45188  1  0
 46189  1  0
 49190  1  0
 55191  1  0
 56192  1  0
 57193  1  0
 59194  1  0
 59195  1  0
 60196  1  0
 60197  1  0
 60198  1  0
 61199  1  0
 77200  1  0
 78201  1  0
 79202  1  0
 81203  1  0
 81204  1  0
 82205  1  0
 82206  1  0
 82207  1  0
 83208  1  0
 95209  1  0
 95210  1  0
 96211  1  0
 96212  1  0
 96213  1  0
 97214  1  0
 97215  1  0
 98216  1  0
 98217  1  0
 98218  1  0
103219  1  0
104220  1  0
106221  1  0
106222  1  0
106223  1  0
107224  1  0
108225  1  0
110226  1  0
111227  1  0
113228  1  0
113229  1  0
113230  1  0
114231  1  0
115232  1  0
122233  1  0
123234  1  0
125235  1  0
125236  1  0
125237  1  0
126238  1  0
127239  1  0
129240  1  0
130241  1  0
132242  1  0
132243  1  0
132244  1  0
133245  1  0
134246  1  0
137247  1  0
142248  1  0
145249  1  0
153250  1  0
154251  1  0
155252  1  0
156253  1  0
157254  1  0
158255  1  0
158256  1  0
159257  1  0
M  END

