
     RDKit          3D

207232  0  0  0  0  0  0  0  0999 V2000
   -0.4435    5.9618   -5.3974 C   0  0  0  0  0  0  0  0  0  0  0  0
    0.8443    5.5621   -5.4536 C   0  0  0  0  0  0  0  0  0  0  0  0
    1.3225    4.2041   -5.1565 C   0  0  0  0  0  0  0  0  0  0  0  0
    0.6201    3.1627   -5.0695 O   0  0  0  0  0  0  0  0  0  0  0  0
    2.7531    4.2460   -4.9674 C   0  0  0  0  0  0  0  0  0  0  0  0
    3.5870    3.1688   -4.5947 C   0  0  0  0  0  0  0  0  0  0  0  0
    4.9171    3.5156   -4.4545 C   0  0  0  0  0  0  0  0  0  0  0  0
    5.4047    4.8439   -4.6555 C   0  0  0  0  0  0  0  0  0  0  0  0
    4.5913    5.9082   -5.0133 C   0  0  0  0  0  0  0  0  0  0  0  0
    3.2161    5.5697   -5.1852 C   0  0  0  0  0  0  0  0  0  0  0  0
    2.0605    6.4246   -5.5960 C   0  0  0  0  0  0  0  0  0  0  0  0
    2.1214    7.6513   -6.1790 C   0  0  0  0  0  0  0  0  0  0  0  0
    0.9823    8.2584   -6.8152 C   0  0  0  0  0  0  0  0  0  0  0  0
    0.0708    8.7501   -7.3328 N   0  0  0  0  0  0  0  0  0  0  0  0
    3.3478    8.3923   -6.3123 C   0  0  0  0  0  0  0  0  0  0  0  0
    4.3232    9.0052   -6.4296 N   0  0  0  0  0  0  0  0  0  0  0  0
    6.8039    4.3977   -4.3451 C   0  0  0  0  0  0  0  0  0  0  0  0
    7.7983    4.2497   -5.5396 C   0  0  0  0  0  0  0  0  0  0  0  0
    7.0503    3.8748   -6.7985 C   0  0  0  0  0  0  0  0  0  0  0  0
    6.5949    2.6343   -6.6146 C   0  0  0  0  0  0  0  0  0  0  0  0
    7.0492    2.2063   -5.2383 C   0  0  0  0  0  0  0  0  0  0  0  0
    8.4013    2.8963   -5.2101 C   0  0  0  0  0  0  0  0  0  0  0  0
    6.3046    3.0337   -4.1470 C   0  0  0  0  0  0  0  0  0  0  0  0
   -1.5382    5.0373   -5.0947 C   0  0  0  0  0  0  0  0  0  0  0  0
   -1.7780    4.4966   -3.8356 C   0  0  0  0  0  0  0  0  0  0  0  0
   -2.6760    3.4214   -3.8695 C   0  0  0  0  0  0  0  0  0  0  0  0
   -2.9791    2.5679   -2.7924 C   0  0  0  0  0  0  0  0  0  0  0  0
   -2.3352    2.7214   -1.4704 C   0  0  0  0  0  0  0  0  0  0  0  0
   -2.6092    3.8344   -0.6627 C   0  0  0  0  0  0  0  0  0  0  0  0
   -1.9776    3.9712    0.5792 C   0  0  0  0  0  0  0  0  0  0  0  0
   -2.2632    5.0467    1.3618 F   0  0  0  0  0  0  0  0  0  0  0  0
   -1.0791    2.9933    1.0377 C   0  0  0  0  0  0  0  0  0  0  0  0
   -0.4977    3.1795    2.3052 O   0  0  0  0  0  0  0  0  0  0  0  0
   -0.0459    2.1459    3.1778 C   0  0  0  0  0  0  0  0  0  0  0  0
   -1.2192    1.3101    3.6746 C   0  0  0  0  0  0  0  0  0  0  0  0
   -0.7938    1.8830    0.2115 C   0  0  0  0  0  0  0  0  0  0  0  0
    0.1076    0.9337    0.5666 F   0  0  0  0  0  0  0  0  0  0  0  0
   -1.4162    1.7571   -1.0316 C   0  0  0  0  0  0  0  0  0  0  0  0
   -3.7625    1.4413   -3.0864 C   0  0  0  0  0  0  0  0  0  0  0  0
   -4.1966    1.1262   -4.3764 C   0  0  0  0  0  0  0  0  0  0  0  0
   -3.9109    1.9940   -5.4502 C   0  0  0  0  0  0  0  0  0  0  0  0
   -4.2715    1.6599   -6.8357 C   0  0  0  0  0  0  0  0  0  0  0  0
   -3.4255    0.8485   -7.5977 C   0  0  0  0  0  0  0  0  0  0  0  0
   -3.7307    0.5618   -8.9316 C   0  0  0  0  0  0  0  0  0  0  0  0
   -4.9032    1.0849   -9.5134 C   0  0  0  0  0  0  0  0  0  0  0  0
   -5.2501    0.8273  -10.8467 O   0  0  0  0  0  0  0  0  0  0  0  0
   -5.2904   -0.4808  -11.4192 C   0  0  0  0  0  0  0  0  0  0  0  0
   -6.4122   -1.2975  -10.7955 C   0  0  0  0  0  0  0  0  0  0  0  0
   -5.7433    1.9070   -8.7478 C   0  0  0  0  0  0  0  0  0  0  0  0
   -5.4316    2.1903   -7.4140 C   0  0  0  0  0  0  0  0  0  0  0  0
   -6.8704    2.4235   -9.2993 F   0  0  0  0  0  0  0  0  0  0  0  0
   -2.8433   -0.1541   -9.6660 F   0  0  0  0  0  0  0  0  0  0  0  0
   -3.1440    3.1365   -5.1587 C   0  0  0  0  0  0  0  0  0  0  0  0
   -2.4398    4.2060   -6.2506 S   0  0  0  0  0  0  0  0  0  0  0  0
   -4.7911   -0.1495   -4.4666 C   0  0  0  0  0  0  0  0  0  0  0  0
   -4.8175   -0.8256   -3.2411 C   0  0  0  0  0  0  0  0  0  0  0  0
   -4.1366    0.1719   -2.0649 S   0  0  0  0  0  0  0  0  0  0  0  0
   -5.0258   -2.2650   -3.0013 C   0  0  0  0  0  0  0  0  0  0  0  0
   -4.5126   -3.3112   -3.7999 C   0  0  0  0  0  0  0  0  0  0  0  0
   -4.0202   -3.1518   -5.1785 C   0  0  0  0  0  0  0  0  0  0  0  0
   -4.9260   -3.1536   -6.2468 C   0  0  0  0  0  0  0  0  0  0  0  0
   -4.4608   -3.0416   -7.5600 C   0  0  0  0  0  0  0  0  0  0  0  0
   -3.0911   -2.9386   -7.8142 C   0  0  0  0  0  0  0  0  0  0  0  0
   -2.1721   -2.9585   -6.7532 C   0  0  0  0  0  0  0  0  0  0  0  0
   -0.6940   -2.8584   -7.0227 C   0  0  0  0  0  0  0  0  0  0  0  0
   -0.2405   -1.4030   -7.0526 C   0  0  0  0  0  0  0  0  0  0  0  0
   -2.6442   -3.0496   -5.4325 C   0  0  0  0  0  0  0  0  0  0  0  0
   -4.2696   -4.4638   -3.0413 C   0  0  0  0  0  0  0  0  0  0  0  0
   -3.1909   -5.7465   -3.3052 S   0  0  0  0  0  0  0  0  0  0  0  0
   -3.1741   -6.1718   -1.6637 C   0  0  0  0  0  0  0  0  0  0  0  0
   -2.1704   -6.6386   -0.8580 C   0  0  0  0  0  0  0  0  0  0  0  0
   -0.9040   -7.1418   -1.2071 C   0  0  0  0  0  0  0  0  0  0  0  0
    0.1319   -7.1565   -0.2238 C   0  0  0  0  0  0  0  0  0  0  0  0
    1.3517   -7.5939   -0.6194 N   0  0  0  0  0  0  0  0  0  0  0  0
    1.0321   -7.9171   -2.2119 S   0  0  0  0  0  0  0  0  0  0  0  0
   -0.5640   -7.5455   -2.4558 N   0  0  0  0  0  0  0  0  0  0  0  0
   -0.1646   -6.7141    1.0675 C   0  0  0  0  0  0  0  0  0  0  0  0
    0.6123   -6.5057    2.1666 C   0  0  0  0  0  0  0  0  0  0  0  0
    2.2587   -6.1780    2.4094 S   0  0  0  0  0  0  0  0  0  0  0  0
    1.9113   -5.2841    3.8158 C   0  0  0  0  0  0  0  0  0  0  0  0
    2.6793   -4.3944    4.5713 C   0  0  0  0  0  0  0  0  0  0  0  0
    4.1460   -4.2630    4.4636 C   0  0  0  0  0  0  0  0  0  0  0  0
    4.9618   -5.4020    4.5620 C   0  0  0  0  0  0  0  0  0  0  0  0
    6.3494   -5.2772    4.5055 C   0  0  0  0  0  0  0  0  0  0  0  0
    6.9374   -4.0194    4.3351 C   0  0  0  0  0  0  0  0  0  0  0  0
    6.1339   -2.8713    4.2339 C   0  0  0  0  0  0  0  0  0  0  0  0
    6.7709   -1.5270    3.9982 C   0  0  0  0  0  0  0  0  0  0  0  0
    6.9758   -1.2802    2.5058 C   0  0  0  0  0  0  0  0  0  0  0  0
    4.7379   -2.9997    4.2906 C   0  0  0  0  0  0  0  0  0  0  0  0
    1.8555   -3.5785    5.3699 C   0  0  0  0  0  0  0  0  0  0  0  0
    0.2204   -3.9631    5.1001 S   0  0  0  0  0  0  0  0  0  0  0  0
    0.5550   -5.2061    4.0256 C   0  0  0  0  0  0  0  0  0  0  0  0
   -0.1893   -5.9477    3.1180 C   0  0  0  0  0  0  0  0  0  0  0  0
   -1.4832   -5.8233    2.7239 N   0  0  0  0  0  0  0  0  0  0  0  0
   -1.4270   -6.2278    1.4177 C   0  0  0  0  0  0  0  0  0  0  0  0
   -2.4190   -6.0991    0.4143 C   0  0  0  0  0  0  0  0  0  0  0  0
   -3.4700   -5.2149    0.3711 N   0  0  0  0  0  0  0  0  0  0  0  0
   -3.9264   -5.3088   -0.9085 C   0  0  0  0  0  0  0  0  0  0  0  0
   -4.5783   -4.3665   -1.7072 C   0  0  0  0  0  0  0  0  0  0  0  0
   -5.1862   -2.8393   -1.4114 S   0  0  0  0  0  0  0  0  0  0  0  0
   -3.6341   -4.0214    1.2205 C   0  0  0  0  0  0  0  0  0  0  0  0
   -2.5820   -2.9620    0.8841 C   0  0  0  0  0  0  0  0  0  0  0  0
   -2.5922   -6.2721    3.5866 C   0  0  0  0  0  0  0  0  0  0  0  0
   -2.7764   -5.3907    4.8132 C   0  0  0  0  0  0  0  0  0  0  0  0
    2.3076   -2.6296    6.3908 C   0  0  0  0  0  0  0  0  0  0  0  0
    3.2749   -2.8989    7.3504 C   0  0  0  0  0  0  0  0  0  0  0  0
    3.3457   -1.9222    8.3490 C   0  0  0  0  0  0  0  0  0  0  0  0
    4.4415   -2.0653    9.7646 S   0  0  0  0  0  0  0  0  0  0  0  0
    3.4266   -3.3170   10.6316 C   0  0  0  0  0  0  0  0  0  0  0  0
    2.1646   -2.7088   11.2312 C   0  0  0  0  0  0  0  0  0  0  0  0
    2.4954   -0.8414    8.1293 C   0  0  0  0  0  0  0  0  0  0  0  0
    1.5709   -1.1607    6.7534 S   0  0  0  0  0  0  0  0  0  0  0  0
    2.2875    0.2870    9.0473 C   0  0  0  0  0  0  0  0  0  0  0  0
    2.0919    1.5600    8.6613 C   0  0  0  0  0  0  0  0  0  0  0  0
    1.3063    2.4895    9.4744 C   0  0  0  0  0  0  0  0  0  0  0  0
    0.9847    2.3277   10.6820 O   0  0  0  0  0  0  0  0  0  0  0  0
    0.8734    3.5833    8.6357 C   0  0  0  0  0  0  0  0  0  0  0  0
   -0.0897    4.5666    8.9593 C   0  0  0  0  0  0  0  0  0  0  0  0
   -0.4211    5.3918    7.9030 C   0  0  0  0  0  0  0  0  0  0  0  0
    0.1744    5.2802    6.6042 C   0  0  0  0  0  0  0  0  0  0  0  0
    1.1176    4.3202    6.2798 C   0  0  0  0  0  0  0  0  0  0  0  0
    1.4490    3.4337    7.3451 C   0  0  0  0  0  0  0  0  0  0  0  0
    2.3115    2.2141    7.3330 C   0  0  0  0  0  0  0  0  0  0  0  0
    3.3256    1.9617    6.4622 C   0  0  0  0  0  0  0  0  0  0  0  0
    4.3482    0.9832    6.7288 C   0  0  0  0  0  0  0  0  0  0  0  0
    5.1786    0.2053    6.9302 N   0  0  0  0  0  0  0  0  0  0  0  0
    3.5704    2.7761    5.3057 C   0  0  0  0  0  0  0  0  0  0  0  0
    3.7922    3.4350    4.3765 N   0  0  0  0  0  0  0  0  0  0  0  0
   -0.6917    6.3900    6.0940 C   0  0  0  0  0  0  0  0  0  0  0  0
   -1.8661    5.9573    5.1690 C   0  0  0  0  0  0  0  0  0  0  0  0
   -2.8019    7.1400    5.1076 C   0  0  0  0  0  0  0  0  0  0  0  0
   -3.3757    7.2338    6.3133 C   0  0  0  0  0  0  0  0  0  0  0  0
   -2.8052    6.1137    7.1474 C   0  0  0  0  0  0  0  0  0  0  0  0
   -2.6971    5.0514    6.0659 C   0  0  0  0  0  0  0  0  0  0  0  0
   -1.3138    6.4939    7.4172 C   0  0  0  0  0  0  0  0  0  0  0  0
   -0.7130    7.0012   -5.4761 H   0  0  0  0  0  0  0  0  0  0  0  0
    3.2245    2.1612   -4.4321 H   0  0  0  0  0  0  0  0  0  0  0  0
    5.0062    6.8936   -5.1229 H   0  0  0  0  0  0  0  0  0  0  0  0
    7.2381    4.8505   -3.4281 H   0  0  0  0  0  0  0  0  0  0  0  0
    8.5236    5.0818   -5.6580 H   0  0  0  0  0  0  0  0  0  0  0  0
    6.9755    4.4487   -7.7133 H   0  0  0  0  0  0  0  0  0  0  0  0
    6.0848    2.0315   -7.3553 H   0  0  0  0  0  0  0  0  0  0  0  0
    7.0677    1.1065   -5.0714 H   0  0  0  0  0  0  0  0  0  0  0  0
    9.1065    2.5233   -5.9906 H   0  0  0  0  0  0  0  0  0  0  0  0
    8.8971    2.8607   -4.2117 H   0  0  0  0  0  0  0  0  0  0  0  0
    6.4313    2.6576   -3.1097 H   0  0  0  0  0  0  0  0  0  0  0  0
   -1.2437    4.8152   -2.9511 H   0  0  0  0  0  0  0  0  0  0  0  0
   -3.3140    4.5886   -0.9916 H   0  0  0  0  0  0  0  0  0  0  0  0
    0.4325    2.6174    4.0567 H   0  0  0  0  0  0  0  0  0  0  0  0
    0.7308    1.5135    2.7026 H   0  0  0  0  0  0  0  0  0  0  0  0
   -1.9461    1.9646    4.2045 H   0  0  0  0  0  0  0  0  0  0  0  0
   -0.8523    0.5355    4.3776 H   0  0  0  0  0  0  0  0  0  0  0  0
   -1.7304    0.8120    2.8230 H   0  0  0  0  0  0  0  0  0  0  0  0
   -1.1777    0.9073   -1.6617 H   0  0  0  0  0  0  0  0  0  0  0  0
   -2.5224    0.4547   -7.1565 H   0  0  0  0  0  0  0  0  0  0  0  0
   -5.4809   -0.3820  -12.5069 H   0  0  0  0  0  0  0  0  0  0  0  0
   -4.3228   -1.0061  -11.2998 H   0  0  0  0  0  0  0  0  0  0  0  0
   -6.4364   -2.3103  -11.2474 H   0  0  0  0  0  0  0  0  0  0  0  0
   -6.2532   -1.3958   -9.7009 H   0  0  0  0  0  0  0  0  0  0  0  0
   -7.3889   -0.7979  -10.9730 H   0  0  0  0  0  0  0  0  0  0  0  0
   -6.0955    2.8212   -6.8325 H   0  0  0  0  0  0  0  0  0  0  0  0
   -5.1225   -0.5819   -5.3966 H   0  0  0  0  0  0  0  0  0  0  0  0
   -5.9901   -3.2441   -6.0623 H   0  0  0  0  0  0  0  0  0  0  0  0
   -5.1619   -3.0535   -8.3805 H   0  0  0  0  0  0  0  0  0  0  0  0
   -2.7469   -2.8532   -8.8389 H   0  0  0  0  0  0  0  0  0  0  0  0
   -0.1276   -3.4010   -6.2394 H   0  0  0  0  0  0  0  0  0  0  0  0
   -0.4513   -3.3359   -7.9962 H   0  0  0  0  0  0  0  0  0  0  0  0
   -0.7224   -0.8729   -7.8985 H   0  0  0  0  0  0  0  0  0  0  0  0
   -0.4976   -0.8968   -6.0967 H   0  0  0  0  0  0  0  0  0  0  0  0
    0.8593   -1.3588   -7.1960 H   0  0  0  0  0  0  0  0  0  0  0  0
   -1.9420   -3.0576   -4.6058 H   0  0  0  0  0  0  0  0  0  0  0  0
    4.5213   -6.3811    4.7052 H   0  0  0  0  0  0  0  0  0  0  0  0
    6.9759   -6.1549    4.5874 H   0  0  0  0  0  0  0  0  0  0  0  0
    8.0163   -3.9397    4.2751 H   0  0  0  0  0  0  0  0  0  0  0  0
    7.7538   -1.4812    4.5159 H   0  0  0  0  0  0  0  0  0  0  0  0
    6.1356   -0.7187    4.4212 H   0  0  0  0  0  0  0  0  0  0  0  0
    5.9955   -1.1588    2.0013 H   0  0  0  0  0  0  0  0  0  0  0  0
    7.5246   -2.1266    2.0439 H   0  0  0  0  0  0  0  0  0  0  0  0
    7.5747   -0.3544    2.3654 H   0  0  0  0  0  0  0  0  0  0  0  0
    4.1135   -2.1189    4.1940 H   0  0  0  0  0  0  0  0  0  0  0  0
   -4.6500   -3.6037    1.0963 H   0  0  0  0  0  0  0  0  0  0  0  0
   -3.5673   -4.2598    2.2874 H   0  0  0  0  0  0  0  0  0  0  0  0
   -2.8614   -1.9932    1.3430 H   0  0  0  0  0  0  0  0  0  0  0  0
   -2.5027   -2.8175   -0.2134 H   0  0  0  0  0  0  0  0  0  0  0  0
   -1.5894   -3.2643    1.2762 H   0  0  0  0  0  0  0  0  0  0  0  0
   -3.5454   -6.3072    3.0183 H   0  0  0  0  0  0  0  0  0  0  0  0
   -2.3966   -7.3146    3.9184 H   0  0  0  0  0  0  0  0  0  0  0  0
   -3.7552   -5.6123    5.2822 H   0  0  0  0  0  0  0  0  0  0  0  0
   -2.7466   -4.3147    4.5383 H   0  0  0  0  0  0  0  0  0  0  0  0
   -1.9893   -5.6136    5.5617 H   0  0  0  0  0  0  0  0  0  0  0  0
    3.8541   -3.8107    7.3709 H   0  0  0  0  0  0  0  0  0  0  0  0
    3.1556   -4.1482    9.9415 H   0  0  0  0  0  0  0  0  0  0  0  0
    4.0392   -3.7507   11.4512 H   0  0  0  0  0  0  0  0  0  0  0  0
    2.4306   -1.8523   11.8879 H   0  0  0  0  0  0  0  0  0  0  0  0
    1.4724   -2.3739   10.4324 H   0  0  0  0  0  0  0  0  0  0  0  0
    1.6459   -3.4736   11.8450 H   0  0  0  0  0  0  0  0  0  0  0  0
    2.1275    0.0329   10.0879 H   0  0  0  0  0  0  0  0  0  0  0  0
   -0.5705    4.6313    9.9260 H   0  0  0  0  0  0  0  0  0  0  0  0
    1.4943    4.2429    5.2742 H   0  0  0  0  0  0  0  0  0  0  0  0
   -0.1285    7.2947    5.7741 H   0  0  0  0  0  0  0  0  0  0  0  0
   -1.5704    5.5315    4.1856 H   0  0  0  0  0  0  0  0  0  0  0  0
   -3.0498    7.7405    4.2394 H   0  0  0  0  0  0  0  0  0  0  0  0
   -4.1745    7.9138    6.5770 H   0  0  0  0  0  0  0  0  0  0  0  0
   -3.3998    5.8358    8.0439 H   0  0  0  0  0  0  0  0  0  0  0  0
   -2.1759    4.1236    6.3880 H   0  0  0  0  0  0  0  0  0  0  0  0
   -3.6799    4.7648    5.6210 H   0  0  0  0  0  0  0  0  0  0  0  0
   -1.1493    7.4644    7.9353 H   0  0  0  0  0  0  0  0  0  0  0  0
  1  2  2  3
  2  3  1  0
  3  4  2  0
  3  5  1  0
  5  6  2  0
  6  7  1  0
  7  8  2  0
  8  9  1  0
  9 10  2  0
 10 11  1  0
 11 12  2  3
 12 13  1  0
 13 14  3  0
 12 15  1  0
 15 16  3  0
  8 17  1  0
 17 18  1  0
 18 19  1  0
 19 20  2  0
 20 21  1  0
 21 22  1  0
 21 23  1  0
  1 24  1  0
 24 25  2  0
 25 26  1  0
 26 27  2  0
 27 28  1  0
 28 29  2  0
 29 30  1  0
 30 31  1  0
 30 32  2  0
 32 33  1  0
 33 34  1  0
 34 35  1  0
 32 36  1  0
 36 37  1  0
 36 38  2  0
 27 39  1  0
 39 40  2  0
 40 41  1  0
 41 42  1  0
 42 43  2  0
 43 44  1  0
 44 45  2  0
 45 46  1  0
 46 47  1  0
 47 48  1  0
 45 49  1  0
 49 50  2  0
 49 51  1  0
 44 52  1  0
 41 53  2  0
 53 54  1  0
 40 55  1  0
 55 56  2  0
 56 57  1  0
 56 58  1  0
 58 59  2  0
 59 60  1  0
 60 61  2  0
 61 62  1  0
 62 63  2  0
 63 64  1  0
 64 65  1  0
 65 66  1  0
 64 67  2  0
 59 68  1  0
 68 69  1  0
 69 70  1  0
 70 71  1  0
 71 72  1  0
 72 73  1  0
 73 74  2  0
 74 75  1  0
 75 76  1  0
 73 77  1  0
 77 78  1  0
 78 79  1  0
 79 80  1  0
 80 81  1  0
 81 82  1  0
 82 83  2  0
 83 84  1  0
 84 85  2  0
 85 86  1  0
 86 87  1  0
 87 88  1  0
 86 89  2  0
 81 90  2  0
 90 91  1  0
 91 92  1  0
 92 93  1  0
 93 94  1  0
 94 95  1  0
 95 96  1  0
 96 97  1  0
 97 98  1  0
 98 99  1  0
 99100  1  0
 97101  1  0
101102  1  0
 94103  1  0
103104  1  0
 90105  1  0
105106  2  0
106107  1  0
107108  1  0
108109  1  0
109110  1  0
107111  2  0
111112  1  0
111113  1  0
113114  2  3
114115  1  0
115116  2  0
115117  1  0
117118  2  0
118119  1  0
119120  2  0
120121  1  0
121122  2  0
122123  1  0
123124  2  3
124125  1  0
125126  3  0
124127  1  0
127128  3  0
120129  1  0
129130  1  0
130131  1  0
131132  2  0
132133  1  0
133134  1  0
133135  1  0
 11  2  1  0
 23 17  1  0
 54 24  1  0
100 58  1  0
112105  1  0
123114  1  0
135129  1  0
 10  5  1  0
 22 18  1  0
 53 26  1  0
 67 60  1  0
 99 68  2  0
122117  1  0
134130  1  0
 23  7  1  0
 38 28  1  0
 57 39  1  0
 98 70  2  0
135119  1  0
 50 42  1  0
 96 71  2  0
 76 72  2  0
 95 77  2  0
 93 78  2  0
 92 80  2  0
 89 82  1  0
  1136  1  0
  6137  1  0
  9138  1  0
 17139  1  0
 18140  1  0
 19141  1  0
 20142  1  0
 21143  1  0
 22144  1  0
 22145  1  0
 23146  1  0
 25147  1  0
 29148  1  0
 34149  1  0
 34150  1  0
 35151  1  0
 35152  1  0
 35153  1  0
 38154  1  0
 43155  1  0
 47156  1  0
 47157  1  0
 48158  1  0
 48159  1  0
 48160  1  0
 50161  1  0
 55162  1  0
 61163  1  0
 62164  1  0
 63165  1  0
 65166  1  0
 65167  1  0
 66168  1  0
 66169  1  0
 66170  1  0
 67171  1  0
 83172  1  0
 84173  1  0
 85174  1  0
 87175  1  0
 87176  1  0
 88177  1  0
 88178  1  0
 88179  1  0
 89180  1  0
101181  1  0
101182  1  0
102183  1  0
102184  1  0
102185  1  0
103186  1  0
103187  1  0
104188  1  0
104189  1  0
104190  1  0
106191  1  0
109192  1  0
109193  1  0
110194  1  0
110195  1  0
110196  1  0
113197  1  0
118198  1  0
121199  1  0
129200  1  0
130201  1  0
131202  1  0
132203  1  0
133204  1  0
134205  1  0
134206  1  0
135207  1  0
M  END

