
     RDKit          3D

235262  0  0  0  0  0  0  0  0999 V2000
    8.9049   -5.6853    2.6246 C   0  0  0  0  0  0  0  0  0  0  0  0
    8.9510   -6.6865    1.7232 C   0  0  0  0  0  0  0  0  0  0  0  0
    7.8116   -7.1980    0.9476 C   0  0  0  0  0  0  0  0  0  0  0  0
    6.7157   -6.6088    0.7449 O   0  0  0  0  0  0  0  0  0  0  0  0
    8.1497   -8.5097    0.4430 C   0  0  0  0  0  0  0  0  0  0  0  0
    7.2841   -9.4143   -0.2164 C   0  0  0  0  0  0  0  0  0  0  0  0
    7.8441  -10.6509   -0.4524 C   0  0  0  0  0  0  0  0  0  0  0  0
    9.1801  -10.9920   -0.0583 C   0  0  0  0  0  0  0  0  0  0  0  0
   10.0339  -10.1093    0.5782 C   0  0  0  0  0  0  0  0  0  0  0  0
    9.4842   -8.8174    0.8141 C   0  0  0  0  0  0  0  0  0  0  0  0
   10.0788   -7.6364    1.5035 C   0  0  0  0  0  0  0  0  0  0  0  0
   11.3984   -7.3729    1.6551 C   0  0  0  0  0  0  0  0  0  0  0  0
   11.8773   -6.0594    1.9917 C   0  0  0  0  0  0  0  0  0  0  0  0
   12.2608   -4.9980    2.2444 N   0  0  0  0  0  0  0  0  0  0  0  0
   12.4182   -8.3382    1.3290 C   0  0  0  0  0  0  0  0  0  0  0  0
   13.2448   -9.1050    1.0687 N   0  0  0  0  0  0  0  0  0  0  0  0
    8.9829  -12.3962   -0.5397 C   0  0  0  0  0  0  0  0  0  0  0  0
    8.7695  -13.4816    0.5569 C   0  0  0  0  0  0  0  0  0  0  0  0
    8.2167  -14.6942   -0.1603 C   0  0  0  0  0  0  0  0  0  0  0  0
    6.9738  -14.3730   -0.5343 C   0  0  0  0  0  0  0  0  0  0  0  0
    6.7272  -12.9606   -0.0588 C   0  0  0  0  0  0  0  0  0  0  0  0
    7.4976  -13.0245    1.2508 C   0  0  0  0  0  0  0  0  0  0  0  0
    7.6176  -12.0452   -0.9493 C   0  0  0  0  0  0  0  0  0  0  0  0
    7.6711   -4.9473    2.9083 C   0  0  0  0  0  0  0  0  0  0  0  0
    7.3948   -3.6562    2.4721 C   0  0  0  0  0  0  0  0  0  0  0  0
    6.0443   -3.2985    2.6712 C   0  0  0  0  0  0  0  0  0  0  0  0
    5.4302   -2.0870    2.2934 C   0  0  0  0  0  0  0  0  0  0  0  0
    6.1791   -0.8928    1.8435 C   0  0  0  0  0  0  0  0  0  0  0  0
    7.1467   -0.8163    0.8390 C   0  0  0  0  0  0  0  0  0  0  0  0
    7.6758    0.4742    0.6836 C   0  0  0  0  0  0  0  0  0  0  0  0
    8.9533    0.8301   -0.4766 Cl  0  0  0  0  0  0  0  0  0  0  0  0
    7.1229    1.4200    1.5510 C   0  0  0  0  0  0  0  0  0  0  0  0
    7.5399    3.2176    1.6951 Si  0  0  0  0  0  4  0  0  0  0  0  0
    9.2951    3.3735    2.3632 C   0  0  0  0  0  0  0  0  0  0  0  0
    9.4325    2.6820    3.7136 C   0  0  0  0  0  0  0  0  0  0  0  0
    6.3139    4.0130    2.8811 C   0  0  0  0  0  0  0  0  0  0  0  0
    6.6080    5.4909    3.1066 C   0  0  0  0  0  0  0  0  0  0  0  0
    7.3475    4.0292    0.0116 C   0  0  0  0  0  0  0  0  0  0  0  0
    8.4834    4.9943   -0.2930 C   0  0  0  0  0  0  0  0  0  0  0  0
    5.9999    0.6411    2.5210 S   0  0  0  0  0  0  0  0  0  0  0  0
    4.0438   -2.0073    2.4890 C   0  0  0  0  0  0  0  0  0  0  0  0
    3.2964   -2.9959    3.1434 C   0  0  0  0  0  0  0  0  0  0  0  0
    3.9328   -4.1570    3.6281 C   0  0  0  0  0  0  0  0  0  0  0  0
    3.2464   -5.1267    4.5025 C   0  0  0  0  0  0  0  0  0  0  0  0
    2.5941   -4.7361    5.9992 S   0  0  0  0  0  0  0  0  0  0  0  0
    2.3917   -6.3157    6.5494 C   0  0  0  0  0  0  0  0  0  0  0  0
    1.8406   -6.7443    8.2806 Si  0  0  0  0  0  4  0  0  0  0  0  0
    2.0022   -5.1893    9.3418 C   0  0  0  0  0  0  0  0  0  0  0  0
    3.4493   -4.7364    9.4800 C   0  0  0  0  0  0  0  0  0  0  0  0
    0.0235   -7.2360    8.2432 C   0  0  0  0  0  0  0  0  0  0  0  0
   -0.5818   -7.3600    9.6403 C   0  0  0  0  0  0  0  0  0  0  0  0
    2.9517   -8.0745    9.0451 C   0  0  0  0  0  0  0  0  0  0  0  0
    2.3560   -9.4806    9.0092 C   0  0  0  0  0  0  0  0  0  0  0  0
    2.7979   -7.1753    5.5233 C   0  0  0  0  0  0  0  0  0  0  0  0
    3.2779   -6.5096    4.3855 C   0  0  0  0  0  0  0  0  0  0  0  0
    2.7892   -8.9214    5.5911 Cl  0  0  0  0  0  0  0  0  0  0  0  0
    5.2987   -4.2994    3.3221 C   0  0  0  0  0  0  0  0  0  0  0  0
    6.3029   -5.6152    3.6245 S   0  0  0  0  0  0  0  0  0  0  0  0
    1.9161   -2.7261    3.1714 C   0  0  0  0  0  0  0  0  0  0  0  0
    1.5967   -1.5493    2.4913 C   0  0  0  0  0  0  0  0  0  0  0  0
    3.0030   -0.8332    1.9027 S   0  0  0  0  0  0  0  0  0  0  0  0
    0.2575   -1.0441    2.2032 C   0  0  0  0  0  0  0  0  0  0  0  0
   -0.7779   -0.8269    3.1254 C   0  0  0  0  0  0  0  0  0  0  0  0
   -0.7311   -1.2017    4.5435 C   0  0  0  0  0  0  0  0  0  0  0  0
    0.3140   -0.7475    5.3657 C   0  0  0  0  0  0  0  0  0  0  0  0
    0.4290   -1.2156    6.6733 C   0  0  0  0  0  0  0  0  0  0  0  0
   -0.4804   -2.1590    7.1662 C   0  0  0  0  0  0  0  0  0  0  0  0
   -1.5256   -2.6242    6.3449 C   0  0  0  0  0  0  0  0  0  0  0  0
   -2.4527   -3.7096    6.8319 C   0  0  0  0  0  0  0  0  0  0  0  0
   -2.3081   -4.9781    5.9872 C   0  0  0  0  0  0  0  0  0  0  0  0
   -1.6675   -2.1122    5.0510 C   0  0  0  0  0  0  0  0  0  0  0  0
   -1.8317   -0.1222    2.5370 C   0  0  0  0  0  0  0  0  0  0  0  0
   -3.1168    0.7890    3.1924 S   0  0  0  0  0  0  0  0  0  0  0  0
   -3.4410    1.5191    1.6875 C   0  0  0  0  0  0  0  0  0  0  0  0
   -3.9274    2.7418    1.2898 C   0  0  0  0  0  0  0  0  0  0  0  0
   -4.5181    3.7974    2.0136 C   0  0  0  0  0  0  0  0  0  0  0  0
   -4.5833    5.1016    1.4181 C   0  0  0  0  0  0  0  0  0  0  0  0
   -5.1378    6.0876    2.1567 N   0  0  0  0  0  0  0  0  0  0  0  0
   -5.4902    5.2375    3.5343 S   0  0  0  0  0  0  0  0  0  0  0  0
   -4.9925    3.6800    3.2736 N   0  0  0  0  0  0  0  0  0  0  0  0
   -4.0910    5.2655    0.1199 C   0  0  0  0  0  0  0  0  0  0  0  0
   -4.0856    6.3156   -0.7695 C   0  0  0  0  0  0  0  0  0  0  0  0
   -4.5405    7.9542   -0.9074 S   0  0  0  0  0  0  0  0  0  0  0  0
   -4.1672    7.9560   -2.5863 C   0  0  0  0  0  0  0  0  0  0  0  0
   -4.2016    8.9115   -3.6189 C   0  0  0  0  0  0  0  0  0  0  0  0
   -4.5081   10.3438   -3.4083 C   0  0  0  0  0  0  0  0  0  0  0  0
   -3.6792   11.3273   -3.9701 C   0  0  0  0  0  0  0  0  0  0  0  0
   -3.9118   12.6794   -3.7100 C   0  0  0  0  0  0  0  0  0  0  0  0
   -4.9798   13.0613   -2.8938 C   0  0  0  0  0  0  0  0  0  0  0  0
   -5.8283   12.0911   -2.3360 C   0  0  0  0  0  0  0  0  0  0  0  0
   -7.0101   12.5079   -1.4955 C   0  0  0  0  0  0  0  0  0  0  0  0
   -8.2586   12.6505   -2.3597 C   0  0  0  0  0  0  0  0  0  0  0  0
   -5.5958   10.7295   -2.6062 C   0  0  0  0  0  0  0  0  0  0  0  0
   -3.7576    8.3406   -4.8405 C   0  0  0  0  0  0  0  0  0  0  0  0
   -3.3604    6.6974   -4.6032 S   0  0  0  0  0  0  0  0  0  0  0  0
   -3.7361    6.7214   -2.9819 C   0  0  0  0  0  0  0  0  0  0  0  0
   -3.6695    5.8080   -1.9585 C   0  0  0  0  0  0  0  0  0  0  0  0
   -3.3902    4.4898   -1.9245 N   0  0  0  0  0  0  0  0  0  0  0  0
   -3.5726    4.1888   -0.6074 C   0  0  0  0  0  0  0  0  0  0  0  0
   -3.3722    2.9553    0.0279 C   0  0  0  0  0  0  0  0  0  0  0  0
   -2.4281    2.0191   -0.2808 N   0  0  0  0  0  0  0  0  0  0  0  0
   -2.5479    1.1203    0.7238 C   0  0  0  0  0  0  0  0  0  0  0  0
   -1.6422    0.1911    1.2144 C   0  0  0  0  0  0  0  0  0  0  0  0
   -0.1476   -0.3523    0.7053 S   0  0  0  0  0  0  0  0  0  0  0  0
   -1.1608    2.3031   -0.9776 C   0  0  0  0  0  0  0  0  0  0  0  0
   -0.1889    3.0369   -0.0549 C   0  0  0  0  0  0  0  0  0  0  0  0
   -3.6038    3.5657   -3.0480 C   0  0  0  0  0  0  0  0  0  0  0  0
   -5.0974    3.3600   -3.2997 C   0  0  0  0  0  0  0  0  0  0  0  0
   -3.9406    8.8535   -6.2153 C   0  0  0  0  0  0  0  0  0  0  0  0
   -3.1186    8.3111   -7.2310 C   0  0  0  0  0  0  0  0  0  0  0  0
   -3.6408    8.1757   -8.5135 C   0  0  0  0  0  0  0  0  0  0  0  0
   -3.3178    7.0730   -9.4175 C   0  0  0  0  0  0  0  0  0  0  0  0
   -2.2571    6.3916   -9.4136 O   0  0  0  0  0  0  0  0  0  0  0  0
   -4.5166    6.7912  -10.1851 C   0  0  0  0  0  0  0  0  0  0  0  0
   -5.4705    7.7526   -9.8710 C   0  0  0  0  0  0  0  0  0  0  0  0
   -4.9245    8.6200   -8.8177 C   0  0  0  0  0  0  0  0  0  0  0  0
   -5.6574    9.3522   -7.8830 C   0  0  0  0  0  0  0  0  0  0  0  0
   -5.1564    9.4792   -6.5721 C   0  0  0  0  0  0  0  0  0  0  0  0
   -6.8199    7.5445  -10.1673 C   0  0  0  0  0  0  0  0  0  0  0  0
   -7.2103    6.3059  -10.6969 C   0  0  0  0  0  0  0  0  0  0  0  0
   -6.2569    5.2777  -10.8885 C   0  0  0  0  0  0  0  0  0  0  0  0
   -4.8884    5.5470  -10.6967 C   0  0  0  0  0  0  0  0  0  0  0  0
   -6.7126    3.8847  -10.9887 C   0  0  0  0  0  0  0  0  0  0  0  0
   -6.8707    3.1047   -9.8919 C   0  0  0  0  0  0  0  0  0  0  0  0
   -6.7484    3.5673   -8.4982 C   0  0  0  0  0  0  0  0  0  0  0  0
   -6.3548    4.7020   -8.1196 O   0  0  0  0  0  0  0  0  0  0  0  0
   -7.1857    2.5237   -7.6047 C   0  0  0  0  0  0  0  0  0  0  0  0
   -7.3261    2.6235   -6.2011 C   0  0  0  0  0  0  0  0  0  0  0  0
   -7.8491    1.4931   -5.6093 C   0  0  0  0  0  0  0  0  0  0  0  0
   -8.2187    0.3300   -6.3513 C   0  0  0  0  0  0  0  0  0  0  0  0
   -8.1061    0.2352   -7.7304 C   0  0  0  0  0  0  0  0  0  0  0  0
   -7.5445    1.3833   -8.3640 C   0  0  0  0  0  0  0  0  0  0  0  0
   -7.3035    1.6653   -9.8172 C   0  0  0  0  0  0  0  0  0  0  0  0
   -7.3246    0.7487  -10.8190 C   0  0  0  0  0  0  0  0  0  0  0  0
   -7.0601    1.0710  -12.1989 C   0  0  0  0  0  0  0  0  0  0  0  0
   -6.8585    1.3121  -13.3170 N   0  0  0  0  0  0  0  0  0  0  0  0
   -7.5677   -0.6543  -10.5793 C   0  0  0  0  0  0  0  0  0  0  0  0
   -7.7533   -1.7858  -10.4209 N   0  0  0  0  0  0  0  0  0  0  0  0
   -8.6953   -0.3429   -5.0965 C   0  0  0  0  0  0  0  0  0  0  0  0
  -10.2407   -0.4223   -4.8884 C   0  0  0  0  0  0  0  0  0  0  0  0
  -10.4535   -0.7560   -3.4328 C   0  0  0  0  0  0  0  0  0  0  0  0
  -10.0938    0.3282   -2.7384 C   0  0  0  0  0  0  0  0  0  0  0  0
   -9.6600    1.3622   -3.7502 C   0  0  0  0  0  0  0  0  0  0  0  0
  -10.6528    1.0406   -4.8525 C   0  0  0  0  0  0  0  0  0  0  0  0
   -8.3092    0.8496   -4.3363 C   0  0  0  0  0  0  0  0  0  0  0  0
    9.7567   -5.4507    3.2458 H   0  0  0  0  0  0  0  0  0  0  0  0
    6.2557   -9.1815   -0.4637 H   0  0  0  0  0  0  0  0  0  0  0  0
   10.9998  -10.4373    0.9121 H   0  0  0  0  0  0  0  0  0  0  0  0
    9.6604  -12.6814   -1.3810 H   0  0  0  0  0  0  0  0  0  0  0  0
    9.6411  -13.6770    1.2145 H   0  0  0  0  0  0  0  0  0  0  0  0
    8.6815  -15.6673   -0.2638 H   0  0  0  0  0  0  0  0  0  0  0  0
    6.2611  -15.0496   -0.9876 H   0  0  0  0  0  0  0  0  0  0  0  0
    5.6593  -12.6602    0.0201 H   0  0  0  0  0  0  0  0  0  0  0  0
    7.0896  -13.7732    1.9704 H   0  0  0  0  0  0  0  0  0  0  0  0
    7.5874  -12.0521    1.7773 H   0  0  0  0  0  0  0  0  0  0  0  0
    7.4314  -12.1089   -2.0431 H   0  0  0  0  0  0  0  0  0  0  0  0
    8.1283   -3.0420    1.9756 H   0  0  0  0  0  0  0  0  0  0  0  0
    7.4410   -1.6498    0.2193 H   0  0  0  0  0  0  0  0  0  0  0  0
    9.9974    2.9107    1.6392 H   0  0  0  0  0  0  0  0  0  0  0  0
    9.5569    4.4458    2.4700 H   0  0  0  0  0  0  0  0  0  0  0  0
   10.4861    2.7473    4.0584 H   0  0  0  0  0  0  0  0  0  0  0  0
    8.7793    3.1747    4.4658 H   0  0  0  0  0  0  0  0  0  0  0  0
    9.1558    1.6076    3.6285 H   0  0  0  0  0  0  0  0  0  0  0  0
    6.3509    3.4752    3.8528 H   0  0  0  0  0  0  0  0  0  0  0  0
    5.2942    3.8993    2.4524 H   0  0  0  0  0  0  0  0  0  0  0  0
    7.5888    5.6151    3.6103 H   0  0  0  0  0  0  0  0  0  0  0  0
    5.8206    5.9271    3.7595 H   0  0  0  0  0  0  0  0  0  0  0  0
    6.6093    6.0429    2.1433 H   0  0  0  0  0  0  0  0  0  0  0  0
    6.3824    4.5738   -0.0113 H   0  0  0  0  0  0  0  0  0  0  0  0
    7.3097    3.2445   -0.7683 H   0  0  0  0  0  0  0  0  0  0  0  0
    8.5360    5.7939    0.4784 H   0  0  0  0  0  0  0  0  0  0  0  0
    8.3184    5.4717   -1.2820 H   0  0  0  0  0  0  0  0  0  0  0  0
    9.4528    4.4538   -0.3252 H   0  0  0  0  0  0  0  0  0  0  0  0
    1.3911   -4.3845    8.8872 H   0  0  0  0  0  0  0  0  0  0  0  0
    1.6029   -5.3988   10.3535 H   0  0  0  0  0  0  0  0  0  0  0  0
    3.4842   -3.7902   10.0562 H   0  0  0  0  0  0  0  0  0  0  0  0
    3.9098   -4.5535    8.4903 H   0  0  0  0  0  0  0  0  0  0  0  0
    4.0468   -5.4998   10.0200 H   0  0  0  0  0  0  0  0  0  0  0  0
   -0.5277   -6.4484    7.7014 H   0  0  0  0  0  0  0  0  0  0  0  0
   -0.0930   -8.1898    7.6899 H   0  0  0  0  0  0  0  0  0  0  0  0
   -0.5343   -6.3942   10.1804 H   0  0  0  0  0  0  0  0  0  0  0  0
   -1.6507   -7.6493    9.5603 H   0  0  0  0  0  0  0  0  0  0  0  0
   -0.0595   -8.1337   10.2336 H   0  0  0  0  0  0  0  0  0  0  0  0
    3.9176   -8.0677    8.5022 H   0  0  0  0  0  0  0  0  0  0  0  0
    3.1561   -7.8113   10.1041 H   0  0  0  0  0  0  0  0  0  0  0  0
    3.1598  -10.2222    9.1926 H   0  0  0  0  0  0  0  0  0  0  0  0
    1.6024   -9.6028    9.8095 H   0  0  0  0  0  0  0  0  0  0  0  0
    1.8907   -9.7034    8.0320 H   0  0  0  0  0  0  0  0  0  0  0  0
    3.6923   -7.0203    3.5235 H   0  0  0  0  0  0  0  0  0  0  0  0
    1.1751   -3.3911    3.6001 H   0  0  0  0  0  0  0  0  0  0  0  0
    1.0497   -0.0406    4.9900 H   0  0  0  0  0  0  0  0  0  0  0  0
    1.2391   -0.8741    7.3064 H   0  0  0  0  0  0  0  0  0  0  0  0
   -0.3554   -2.5387    8.1690 H   0  0  0  0  0  0  0  0  0  0  0  0
   -3.5056   -3.3541    6.7837 H   0  0  0  0  0  0  0  0  0  0  0  0
   -2.2333   -3.9650    7.8922 H   0  0  0  0  0  0  0  0  0  0  0  0
   -2.7779   -4.8389    4.9896 H   0  0  0  0  0  0  0  0  0  0  0  0
   -2.7977   -5.8258    6.5031 H   0  0  0  0  0  0  0  0  0  0  0  0
   -1.2342   -5.2284    5.8369 H   0  0  0  0  0  0  0  0  0  0  0  0
   -2.4620   -2.4693    4.4042 H   0  0  0  0  0  0  0  0  0  0  0  0
   -2.8334   11.0520   -4.5830 H   0  0  0  0  0  0  0  0  0  0  0  0
   -3.2566   13.4339   -4.1241 H   0  0  0  0  0  0  0  0  0  0  0  0
   -5.1503   14.1137   -2.6937 H   0  0  0  0  0  0  0  0  0  0  0  0
   -6.7979   13.4734   -0.9902 H   0  0  0  0  0  0  0  0  0  0  0  0
   -7.1951   11.7523   -0.7005 H   0  0  0  0  0  0  0  0  0  0  0  0
   -9.1157   12.9586   -1.7257 H   0  0  0  0  0  0  0  0  0  0  0  0
   -8.0957   13.4219   -3.1432 H   0  0  0  0  0  0  0  0  0  0  0  0
   -8.5046   11.6816   -2.8480 H   0  0  0  0  0  0  0  0  0  0  0  0
   -6.2640    9.9779   -2.1924 H   0  0  0  0  0  0  0  0  0  0  0  0
   -1.3040    2.9499   -1.8600 H   0  0  0  0  0  0  0  0  0  0  0  0
   -0.7200    1.3586   -1.3575 H   0  0  0  0  0  0  0  0  0  0  0  0
   -0.1455    2.5698    0.9477 H   0  0  0  0  0  0  0  0  0  0  0  0
    0.8336    3.0200   -0.4963 H   0  0  0  0  0  0  0  0  0  0  0  0
   -0.5106    4.0948    0.0697 H   0  0  0  0  0  0  0  0  0  0  0  0
   -3.1664    2.5663   -2.8514 H   0  0  0  0  0  0  0  0  0  0  0  0
   -3.1113    3.9587   -3.9644 H   0  0  0  0  0  0  0  0  0  0  0  0
   -5.5426    2.8413   -2.4131 H   0  0  0  0  0  0  0  0  0  0  0  0
   -5.6115    4.3323   -3.4660 H   0  0  0  0  0  0  0  0  0  0  0  0
   -5.2379    2.7154   -4.1884 H   0  0  0  0  0  0  0  0  0  0  0  0
   -2.2171    7.7616   -6.9751 H   0  0  0  0  0  0  0  0  0  0  0  0
   -6.6659    9.6718   -8.1125 H   0  0  0  0  0  0  0  0  0  0  0  0
   -5.8116    9.8852   -5.8137 H   0  0  0  0  0  0  0  0  0  0  0  0
   -7.5766    8.2612   -9.8687 H   0  0  0  0  0  0  0  0  0  0  0  0
   -8.2637    6.0912  -10.8123 H   0  0  0  0  0  0  0  0  0  0  0  0
   -4.1635    4.7459  -10.7622 H   0  0  0  0  0  0  0  0  0  0  0  0
   -6.9309    3.5292  -11.9801 H   0  0  0  0  0  0  0  0  0  0  0  0
   -7.0842    3.5191   -5.6493 H   0  0  0  0  0  0  0  0  0  0  0  0
   -8.4849   -0.6353   -8.2349 H   0  0  0  0  0  0  0  0  0  0  0  0
   -8.1308   -1.2690   -4.8452 H   0  0  0  0  0  0  0  0  0  0  0  0
  -10.7863   -1.0646   -5.6112 H   0  0  0  0  0  0  0  0  0  0  0  0
  -10.8955   -1.6577   -3.0207 H   0  0  0  0  0  0  0  0  0  0  0  0
  -10.2116    0.4575   -1.6664 H   0  0  0  0  0  0  0  0  0  0  0  0
   -9.6597    2.4160   -3.3931 H   0  0  0  0  0  0  0  0  0  0  0  0
  -11.7187    1.1946   -4.5517 H   0  0  0  0  0  0  0  0  0  0  0  0
  -10.4765    1.5908   -5.7991 H   0  0  0  0  0  0  0  0  0  0  0  0
   -7.4861    0.6818   -3.6019 H   0  0  0  0  0  0  0  0  0  0  0  0
  1  2  2  3
  2  3  1  0
  3  4  2  0
  3  5  1  0
  5  6  2  0
  6  7  1  0
  7  8  2  0
  8  9  1  0
  9 10  2  0
 10 11  1  0
 11 12  2  3
 12 13  1  0
 13 14  3  0
 12 15  1  0
 15 16  3  0
  8 17  1  0
 17 18  1  0
 18 19  1  0
 19 20  2  0
 20 21  1  0
 21 22  1  0
 21 23  1  0
  1 24  1  0
 24 25  2  0
 25 26  1  0
 26 27  2  0
 27 28  1  0
 28 29  2  0
 29 30  1  0
 30 31  1  0
 30 32  2  0
 32 33  1  0
 33 34  1  0
 34 35  1  0
 33 36  1  0
 36 37  1  0
 33 38  1  0
 38 39  1  0
 32 40  1  0
 27 41  1  0
 41 42  2  0
 42 43  1  0
 43 44  1  0
 44 45  1  0
 45 46  1  0
 46 47  1  0
 47 48  1  0
 48 49  1  0
 47 50  1  0
 50 51  1  0
 47 52  1  0
 52 53  1  0
 46 54  2  0
 54 55  1  0
 54 56  1  0
 43 57  2  0
 57 58  1  0
 42 59  1  0
 59 60  2  0
 60 61  1  0
 60 62  1  0
 62 63  2  0
 63 64  1  0
 64 65  2  0
 65 66  1  0
 66 67  2  0
 67 68  1  0
 68 69  1  0
 69 70  1  0
 68 71  2  0
 63 72  1  0
 72 73  1  0
 73 74  1  0
 74 75  1  0
 75 76  1  0
 76 77  1  0
 77 78  2  0
 78 79  1  0
 79 80  1  0
 77 81  1  0
 81 82  1  0
 82 83  1  0
 83 84  1  0
 84 85  1  0
 85 86  1  0
 86 87  2  0
 87 88  1  0
 88 89  2  0
 89 90  1  0
 90 91  1  0
 91 92  1  0
 90 93  2  0
 85 94  2  0
 94 95  1  0
 95 96  1  0
 96 97  1  0
 97 98  1  0
 98 99  1  0
 99100  1  0
100101  1  0
101102  1  0
102103  1  0
103104  1  0
101105  1  0
105106  1  0
 98107  1  0
107108  1  0
 94109  1  0
109110  2  0
110111  1  0
111112  1  0
112113  2  0
112114  1  0
114115  2  0
115116  1  0
116117  1  0
117118  2  0
115119  1  0
119120  2  0
120121  1  0
121122  2  0
121123  1  0
123124  2  3
124125  1  0
125126  2  0
125127  1  0
127128  2  0
128129  1  0
129130  2  0
130131  1  0
131132  2  0
132133  1  0
133134  2  3
134135  1  0
135136  3  0
134137  1  0
137138  3  0
130139  1  0
139140  1  0
140141  1  0
141142  2  0
142143  1  0
143144  1  0
143145  1  0
 11  2  1  0
 23 17  1  0
 58 24  1  0
104 62  1  0
118109  1  0
133124  1  0
145139  1  0
 10  5  1  0
 22 18  1  0
 57 26  1  0
 71 64  1  0
103 72  2  0
116111  2  0
132127  1  0
144140  1  0
 23  7  1  0
 40 28  1  0
 61 41  1  0
102 74  2  0
122114  1  0
145129  1  0
 55 44  2  0
100 75  2  0
 80 76  2  0
 99 81  2  0
 97 82  2  0
 96 84  2  0
 93 86  1  0
  1146  1  0
  6147  1  0
  9148  1  0
 17149  1  0
 18150  1  0
 19151  1  0
 20152  1  0
 21153  1  0
 22154  1  0
 22155  1  0
 23156  1  0
 25157  1  0
 29158  1  0
 34159  1  0
 34160  1  0
 35161  1  0
 35162  1  0
 35163  1  0
 36164  1  0
 36165  1  0
 37166  1  0
 37167  1  0
 37168  1  0
 38169  1  0
 38170  1  0
 39171  1  0
 39172  1  0
 39173  1  0
 48174  1  0
 48175  1  0
 49176  1  0
 49177  1  0
 49178  1  0
 50179  1  0
 50180  1  0
 51181  1  0
 51182  1  0
 51183  1  0
 52184  1  0
 52185  1  0
 53186  1  0
 53187  1  0
 53188  1  0
 55189  1  0
 59190  1  0
 65191  1  0
 66192  1  0
 67193  1  0
 69194  1  0
 69195  1  0
 70196  1  0
 70197  1  0
 70198  1  0
 71199  1  0
 87200  1  0
 88201  1  0
 89202  1  0
 91203  1  0
 91204  1  0
 92205  1  0
 92206  1  0
 92207  1  0
 93208  1  0
105209  1  0
105210  1  0
106211  1  0
106212  1  0
106213  1  0
107214  1  0
107215  1  0
108216  1  0
108217  1  0
108218  1  0
110219  1  0
117220  1  0
118221  1  0
119222  1  0
120223  1  0
122224  1  0
123225  1  0
128226  1  0
131227  1  0
139228  1  0
140229  1  0
141230  1  0
142231  1  0
143232  1  0
144233  1  0
144234  1  0
145235  1  0
M  END

