
     RDKit          3D

254284  0  0  0  0  0  0  0  0999 V2000
   -1.5184    5.4378  -10.3967 C   0  0  0  0  0  0  0  0  0  0  0  0
   -2.6097    4.9083  -10.9967 C   0  0  0  0  0  0  0  0  0  0  0  0
   -3.7620    4.3249  -10.2858 C   0  0  0  0  0  0  0  0  0  0  0  0
   -3.8553    4.1178   -9.0473 O   0  0  0  0  0  0  0  0  0  0  0  0
   -4.7192    3.8515  -11.2434 C   0  0  0  0  0  0  0  0  0  0  0  0
   -5.9821    3.2857  -10.9523 C   0  0  0  0  0  0  0  0  0  0  0  0
   -6.6925    2.9064  -12.0700 C   0  0  0  0  0  0  0  0  0  0  0  0
   -6.1883    3.0424  -13.4014 C   0  0  0  0  0  0  0  0  0  0  0  0
   -4.9538    3.5972  -13.6918 C   0  0  0  0  0  0  0  0  0  0  0  0
   -4.2054    4.0209  -12.5534 C   0  0  0  0  0  0  0  0  0  0  0  0
   -2.8622    4.6886  -12.4680 C   0  0  0  0  0  0  0  0  0  0  0  0
   -2.0614    5.0327  -13.5144 C   0  0  0  0  0  0  0  0  0  0  0  0
   -2.3633    4.6976  -14.8802 C   0  0  0  0  0  0  0  0  0  0  0  0
   -2.5826    4.4401  -15.9869 N   0  0  0  0  0  0  0  0  0  0  0  0
   -0.8372    5.7806  -13.3775 C   0  0  0  0  0  0  0  0  0  0  0  0
    0.1536    6.3695  -13.2902 N   0  0  0  0  0  0  0  0  0  0  0  0
   -7.4333    2.4134  -13.9543 C   0  0  0  0  0  0  0  0  0  0  0  0
   -7.3647    0.9319  -14.4319 C   0  0  0  0  0  0  0  0  0  0  0  0
   -6.3351    0.1687  -13.6291 C   0  0  0  0  0  0  0  0  0  0  0  0
   -6.8243    0.0617  -12.3921 C   0  0  0  0  0  0  0  0  0  0  0  0
   -8.1606    0.7652  -12.3931 C   0  0  0  0  0  0  0  0  0  0  0  0
   -8.6271    0.3872  -13.7848 C   0  0  0  0  0  0  0  0  0  0  0  0
   -7.9575    2.2979  -12.5894 C   0  0  0  0  0  0  0  0  0  0  0  0
   -1.3996    5.6356   -8.9443 C   0  0  0  0  0  0  0  0  0  0  0  0
   -2.3507    6.2168   -8.1079 C   0  0  0  0  0  0  0  0  0  0  0  0
   -2.1010    5.9836   -6.7460 C   0  0  0  0  0  0  0  0  0  0  0  0
   -3.0063    6.2182   -5.6823 C   0  0  0  0  0  0  0  0  0  0  0  0
   -4.2269    7.0430   -5.8603 C   0  0  0  0  0  0  0  0  0  0  0  0
   -4.2842    8.2463   -6.5622 C   0  0  0  0  0  0  0  0  0  0  0  0
   -5.5428    8.8601   -6.5126 C   0  0  0  0  0  0  0  0  0  0  0  0
   -5.8001   10.0540   -7.1050 F   0  0  0  0  0  0  0  0  0  0  0  0
   -6.4796    8.1564   -5.7681 C   0  0  0  0  0  0  0  0  0  0  0  0
   -7.8805    8.5943   -5.4620 C   0  0  0  0  0  0  0  0  0  0  0  0
   -8.9042    7.6035   -6.0098 C   0  0  0  0  0  0  0  0  0  0  0  0
   -5.7477    6.7618   -5.1755 S   0  0  0  0  0  0  0  0  0  0  0  0
   -2.6872    5.6112   -4.4499 C   0  0  0  0  0  0  0  0  0  0  0  0
   -1.4821    4.9312   -4.2344 C   0  0  0  0  0  0  0  0  0  0  0  0
   -0.5387    4.7806   -5.2737 C   0  0  0  0  0  0  0  0  0  0  0  0
    0.7444    4.0656   -5.0911 C   0  0  0  0  0  0  0  0  0  0  0  0
    0.9612    2.5210   -4.4415 S   0  0  0  0  0  0  0  0  0  0  0  0
    2.6449    2.5508   -4.4537 C   0  0  0  0  0  0  0  0  0  0  0  0
    3.5307    1.5395   -3.7857 C   0  0  0  0  0  0  0  0  0  0  0  0
    3.3075    0.1358   -4.3540 C   0  0  0  0  0  0  0  0  0  0  0  0
    4.2621   -0.8666   -3.7045 C   0  0  0  0  0  0  0  0  0  0  0  0
    3.0537    3.7768   -4.9677 C   0  0  0  0  0  0  0  0  0  0  0  0
    1.9980    4.6192   -5.3366 C   0  0  0  0  0  0  0  0  0  0  0  0
    4.3533    4.1561   -5.0422 F   0  0  0  0  0  0  0  0  0  0  0  0
   -0.9044    5.2897   -6.5289 C   0  0  0  0  0  0  0  0  0  0  0  0
   -0.1877    4.9366   -8.0108 S   0  0  0  0  0  0  0  0  0  0  0  0
   -1.4065    4.3403   -2.9665 C   0  0  0  0  0  0  0  0  0  0  0  0
   -2.5884    4.4258   -2.2320 C   0  0  0  0  0  0  0  0  0  0  0  0
   -3.6674    5.3877   -3.0986 S   0  0  0  0  0  0  0  0  0  0  0  0
   -2.9513    3.4193   -1.2125 C   0  0  0  0  0  0  0  0  0  0  0  0
   -4.1943    3.2442   -0.5503 C   0  0  0  0  0  0  0  0  0  0  0  0
   -5.2972    4.2263   -0.5594 C   0  0  0  0  0  0  0  0  0  0  0  0
   -5.0999    5.4412    0.1143 C   0  0  0  0  0  0  0  0  0  0  0  0
   -6.0852    6.4296    0.1034 C   0  0  0  0  0  0  0  0  0  0  0  0
   -7.2748    6.2240   -0.5937 C   0  0  0  0  0  0  0  0  0  0  0  0
   -7.4874    5.0234   -1.2725 C   0  0  0  0  0  0  0  0  0  0  0  0
   -6.5128    4.0088   -1.2649 C   0  0  0  0  0  0  0  0  0  0  0  0
   -6.7854    2.7573   -2.0707 C   0  0  0  0  0  0  0  0  0  0  0  0
   -6.4985    2.9791   -3.5529 C   0  0  0  0  0  0  0  0  0  0  0  0
   -4.2511    1.9894    0.0809 C   0  0  0  0  0  0  0  0  0  0  0  0
   -5.4610    1.1020    0.9167 S   0  0  0  0  0  0  0  0  0  0  0  0
   -4.4902   -0.2992    0.9081 C   0  0  0  0  0  0  0  0  0  0  0  0
   -4.4739   -1.6034    1.3370 C   0  0  0  0  0  0  0  0  0  0  0  0
   -5.3098   -2.3246    2.1972 C   0  0  0  0  0  0  0  0  0  0  0  0
   -4.9040   -3.6336    2.6130 C   0  0  0  0  0  0  0  0  0  0  0  0
   -5.7071   -4.2764    3.4926 N   0  0  0  0  0  0  0  0  0  0  0  0
   -6.8826   -3.1232    3.6882 S   0  0  0  0  0  0  0  0  0  0  0  0
   -6.4551   -1.8386    2.7335 N   0  0  0  0  0  0  0  0  0  0  0  0
   -3.7188   -4.1727    2.0901 C   0  0  0  0  0  0  0  0  0  0  0  0
   -3.0351   -5.3345    2.3464 C   0  0  0  0  0  0  0  0  0  0  0  0
   -2.8270   -6.2218    3.7780 S   0  0  0  0  0  0  0  0  0  0  0  0
   -1.1662   -6.4638    3.4882 C   0  0  0  0  0  0  0  0  0  0  0  0
   -0.0901   -6.7834    4.3400 C   0  0  0  0  0  0  0  0  0  0  0  0
   -0.1297   -7.8815    5.3442 C   0  0  0  0  0  0  0  0  0  0  0  0
   -1.0152   -7.9262    6.4617 C   0  0  0  0  0  0  0  0  0  0  0  0
   -1.9151   -6.7659    6.8365 C   0  0  0  0  0  0  0  0  0  0  0  0
   -1.9295   -6.4693    8.3376 C   0  0  0  0  0  0  0  0  0  0  0  0
   -1.0818   -9.1101    7.2253 C   0  0  0  0  0  0  0  0  0  0  0  0
   -0.2495  -10.1928    6.9494 C   0  0  0  0  0  0  0  0  0  0  0  0
    0.6453  -10.1308    5.8880 C   0  0  0  0  0  0  0  0  0  0  0  0
    0.6971   -8.9936    5.0874 C   0  0  0  0  0  0  0  0  0  0  0  0
    1.1147   -6.2826    3.7895 C   0  0  0  0  0  0  0  0  0  0  0  0
    0.8136   -5.5044    2.3122 S   0  0  0  0  0  0  0  0  0  0  0  0
   -0.8174   -5.8307    2.3197 C   0  0  0  0  0  0  0  0  0  0  0  0
   -1.8692   -5.2512    1.6279 C   0  0  0  0  0  0  0  0  0  0  0  0
   -1.8089   -4.1604    0.8261 N   0  0  0  0  0  0  0  0  0  0  0  0
   -2.9101   -3.4544    1.2067 C   0  0  0  0  0  0  0  0  0  0  0  0
   -3.2457   -2.1214    0.8951 C   0  0  0  0  0  0  0  0  0  0  0  0
   -2.4767   -1.1515    0.3036 N   0  0  0  0  0  0  0  0  0  0  0  0
   -3.2937   -0.0771    0.3168 C   0  0  0  0  0  0  0  0  0  0  0  0
   -3.1415    1.2168   -0.1136 C   0  0  0  0  0  0  0  0  0  0  0  0
   -2.0048    2.0155   -1.0159 S   0  0  0  0  0  0  0  0  0  0  0  0
   -1.0102   -1.0621    0.2209 C   0  0  0  0  0  0  0  0  0  0  0  0
   -0.4345   -0.5354    1.5279 C   0  0  0  0  0  0  0  0  0  0  0  0
   -1.4757   -4.3222   -0.6020 C   0  0  0  0  0  0  0  0  0  0  0  0
   -0.0043   -4.6671   -0.8241 C   0  0  0  0  0  0  0  0  0  0  0  0
    2.4584   -6.2587    4.3936 C   0  0  0  0  0  0  0  0  0  0  0  0
    2.7827   -5.7220    5.6586 C   0  0  0  0  0  0  0  0  0  0  0  0
    1.8228   -5.1954    6.5922 N   0  0  0  0  0  0  0  0  0  0  0  0
    1.8636   -5.7246    7.9378 C   0  0  0  0  0  0  0  0  0  0  0  0
    1.8888   -4.8709    9.0577 C   0  0  0  0  0  0  0  0  0  0  0  0
    1.9151   -5.3997   10.3508 C   0  0  0  0  0  0  0  0  0  0  0  0
    1.9333   -6.7892   10.5489 C   0  0  0  0  0  0  0  0  0  0  0  0
    2.0029   -7.3561   11.9332 C   0  0  0  0  0  0  0  0  0  0  0  0
    1.9758   -7.6422    9.4347 C   0  0  0  0  0  0  0  0  0  0  0  0
    1.9480   -7.1137    8.1439 C   0  0  0  0  0  0  0  0  0  0  0  0
    1.0514   -4.0095    6.2482 C   0  0  0  0  0  0  0  0  0  0  0  0
    1.4266   -3.1877    5.1659 C   0  0  0  0  0  0  0  0  0  0  0  0
    0.6691   -2.0677    4.8178 C   0  0  0  0  0  0  0  0  0  0  0  0
   -0.4921   -1.7473    5.5346 C   0  0  0  0  0  0  0  0  0  0  0  0
   -1.3334   -0.5639    5.1590 C   0  0  0  0  0  0  0  0  0  0  0  0
   -0.8665   -2.5466    6.6169 C   0  0  0  0  0  0  0  0  0  0  0  0
   -0.0994   -3.6568    6.9750 C   0  0  0  0  0  0  0  0  0  0  0  0
    4.1289   -5.3467    5.7207 C   0  0  0  0  0  0  0  0  0  0  0  0
    4.9356   -4.2909    6.7427 S   0  0  0  0  0  0  0  0  0  0  0  0
    6.2138   -3.9945    5.6618 C   0  0  0  0  0  0  0  0  0  0  0  0
    6.0012   -4.7199    4.4755 C   0  0  0  0  0  0  0  0  0  0  0  0
    6.7185   -4.4798    3.2448 N   0  0  0  0  0  0  0  0  0  0  0  0
    8.1629   -4.5189    3.2279 C   0  0  0  0  0  0  0  0  0  0  0  0
    8.8635   -5.4396    4.0288 C   0  0  0  0  0  0  0  0  0  0  0  0
   10.2580   -5.4968    3.9899 C   0  0  0  0  0  0  0  0  0  0  0  0
   10.9793   -4.6271    3.1572 C   0  0  0  0  0  0  0  0  0  0  0  0
   12.4715   -4.7279    3.0777 C   0  0  0  0  0  0  0  0  0  0  0  0
   10.2883   -3.7104    2.3532 C   0  0  0  0  0  0  0  0  0  0  0  0
    8.8917   -3.6517    2.3929 C   0  0  0  0  0  0  0  0  0  0  0  0
    5.9859   -4.2481    2.0219 C   0  0  0  0  0  0  0  0  0  0  0  0
    4.8974   -3.3572    1.9966 C   0  0  0  0  0  0  0  0  0  0  0  0
    4.1403   -3.1912    0.8341 C   0  0  0  0  0  0  0  0  0  0  0  0
    4.4733   -3.9007   -0.3310 C   0  0  0  0  0  0  0  0  0  0  0  0
    3.6367   -3.7763   -1.5687 C   0  0  0  0  0  0  0  0  0  0  0  0
    5.5654   -4.7776   -0.3157 C   0  0  0  0  0  0  0  0  0  0  0  0
    6.3193   -4.9487    0.8494 C   0  0  0  0  0  0  0  0  0  0  0  0
    4.8353   -5.4917    4.5678 C   0  0  0  0  0  0  0  0  0  0  0  0
    3.8480   -6.1977    3.4135 S   0  0  0  0  0  0  0  0  0  0  0  0
    7.2204   -2.9419    5.8676 C   0  0  0  0  0  0  0  0  0  0  0  0
    6.9177   -1.6256    5.8619 C   0  0  0  0  0  0  0  0  0  0  0  0
    5.5773   -1.0644    5.6194 C   0  0  0  0  0  0  0  0  0  0  0  0
    4.5661   -1.6861    5.1976 O   0  0  0  0  0  0  0  0  0  0  0  0
    5.5877    0.3380    5.9530 C   0  0  0  0  0  0  0  0  0  0  0  0
    4.4781    1.2157    5.9589 C   0  0  0  0  0  0  0  0  0  0  0  0
    4.7658    2.4760    6.4393 C   0  0  0  0  0  0  0  0  0  0  0  0
    6.0654    2.8567    6.9073 C   0  0  0  0  0  0  0  0  0  0  0  0
    7.1563    2.0028    6.8987 C   0  0  0  0  0  0  0  0  0  0  0  0
    6.8911    0.7076    6.3655 C   0  0  0  0  0  0  0  0  0  0  0  0
    7.8047   -0.4681    6.2177 C   0  0  0  0  0  0  0  0  0  0  0  0
    9.1642   -0.4329    6.2164 C   0  0  0  0  0  0  0  0  0  0  0  0
    9.9817   -1.5832    5.9315 C   0  0  0  0  0  0  0  0  0  0  0  0
   10.6596   -2.4940    5.7037 N   0  0  0  0  0  0  0  0  0  0  0  0
    9.9043    0.7952    6.3449 C   0  0  0  0  0  0  0  0  0  0  0  0
   10.5168    1.7762    6.4297 N   0  0  0  0  0  0  0  0  0  0  0  0
    5.5551    4.2226    7.2552 C   0  0  0  0  0  0  0  0  0  0  0  0
    5.9736    5.3786    6.2991 C   0  0  0  0  0  0  0  0  0  0  0  0
    5.0438    6.5282    6.6128 C   0  0  0  0  0  0  0  0  0  0  0  0
    3.8348    6.1727    6.1640 C   0  0  0  0  0  0  0  0  0  0  0  0
    3.9882    4.7952    5.5631 C   0  0  0  0  0  0  0  0  0  0  0  0
    5.3757    4.9566    4.9670 C   0  0  0  0  0  0  0  0  0  0  0  0
    4.2291    3.8357    6.7658 C   0  0  0  0  0  0  0  0  0  0  0  0
   -0.6263    5.6551  -10.9479 H   0  0  0  0  0  0  0  0  0  0  0  0
   -6.3610    3.1612   -9.9445 H   0  0  0  0  0  0  0  0  0  0  0  0
   -4.6393    3.6819  -14.7150 H   0  0  0  0  0  0  0  0  0  0  0  0
   -8.0282    3.0897  -14.6096 H   0  0  0  0  0  0  0  0  0  0  0  0
   -7.2957    0.7908  -15.5286 H   0  0  0  0  0  0  0  0  0  0  0  0
   -5.4177   -0.2874  -13.9905 H   0  0  0  0  0  0  0  0  0  0  0  0
   -6.3790   -0.5057  -11.5818 H   0  0  0  0  0  0  0  0  0  0  0  0
   -8.8422    0.4828  -11.5611 H   0  0  0  0  0  0  0  0  0  0  0  0
   -9.5565    0.9200  -14.1034 H   0  0  0  0  0  0  0  0  0  0  0  0
   -8.7594   -0.7134  -13.9219 H   0  0  0  0  0  0  0  0  0  0  0  0
   -8.8618    2.9179  -12.4060 H   0  0  0  0  0  0  0  0  0  0  0  0
   -3.2565    6.6689   -8.4886 H   0  0  0  0  0  0  0  0  0  0  0  0
   -3.4372    8.6873   -7.0753 H   0  0  0  0  0  0  0  0  0  0  0  0
   -8.0713    9.5970   -5.9068 H   0  0  0  0  0  0  0  0  0  0  0  0
   -7.9952    8.6793   -4.3591 H   0  0  0  0  0  0  0  0  0  0  0  0
   -9.9279    7.9831   -5.8004 H   0  0  0  0  0  0  0  0  0  0  0  0
   -8.7802    7.4882   -7.1114 H   0  0  0  0  0  0  0  0  0  0  0  0
   -8.7840    6.6140   -5.5138 H   0  0  0  0  0  0  0  0  0  0  0  0
    4.5946    1.8301   -3.9272 H   0  0  0  0  0  0  0  0  0  0  0  0
    3.3145    1.5437   -2.6949 H   0  0  0  0  0  0  0  0  0  0  0  0
    3.4847    0.1404   -5.4526 H   0  0  0  0  0  0  0  0  0  0  0  0
    2.2610   -0.1939   -4.1621 H   0  0  0  0  0  0  0  0  0  0  0  0
    4.0632   -1.8785   -4.1137 H   0  0  0  0  0  0  0  0  0  0  0  0
    4.1092   -0.8831   -2.6029 H   0  0  0  0  0  0  0  0  0  0  0  0
    5.3173   -0.5957   -3.9258 H   0  0  0  0  0  0  0  0  0  0  0  0
    2.1482    5.6166   -5.7323 H   0  0  0  0  0  0  0  0  0  0  0  0
   -0.5648    3.7608   -2.6262 H   0  0  0  0  0  0  0  0  0  0  0  0
   -4.1770    5.6247    0.6519 H   0  0  0  0  0  0  0  0  0  0  0  0
   -5.9222    7.3640    0.6271 H   0  0  0  0  0  0  0  0  0  0  0  0
   -8.0330    6.9973   -0.6087 H   0  0  0  0  0  0  0  0  0  0  0  0
   -8.4119    4.8908   -1.8235 H   0  0  0  0  0  0  0  0  0  0  0  0
   -7.8517    2.4681   -1.9491 H   0  0  0  0  0  0  0  0  0  0  0  0
   -6.1830    1.8934   -1.7272 H   0  0  0  0  0  0  0  0  0  0  0  0
   -6.8324    2.0891   -4.1298 H   0  0  0  0  0  0  0  0  0  0  0  0
   -7.0514    3.8688   -3.9288 H   0  0  0  0  0  0  0  0  0  0  0  0
   -5.4100    3.1169   -3.7220 H   0  0  0  0  0  0  0  0  0  0  0  0
   -2.9531   -6.9965    6.5160 H   0  0  0  0  0  0  0  0  0  0  0  0
   -1.5920   -5.8467    6.3136 H   0  0  0  0  0  0  0  0  0  0  0  0
   -0.8989   -6.4511    8.7459 H   0  0  0  0  0  0  0  0  0  0  0  0
   -2.4070   -5.4818    8.5142 H   0  0  0  0  0  0  0  0  0  0  0  0
   -2.5269   -7.2299    8.8817 H   0  0  0  0  0  0  0  0  0  0  0  0
   -1.7736   -9.2038    8.0508 H   0  0  0  0  0  0  0  0  0  0  0  0
   -0.3063  -11.0899    7.5526 H   0  0  0  0  0  0  0  0  0  0  0  0
    1.2892  -10.9765    5.6678 H   0  0  0  0  0  0  0  0  0  0  0  0
    1.3749   -8.9906    4.2416 H   0  0  0  0  0  0  0  0  0  0  0  0
   -0.7130   -0.3953   -0.6145 H   0  0  0  0  0  0  0  0  0  0  0  0
   -0.5401   -2.0303    0.0243 H   0  0  0  0  0  0  0  0  0  0  0  0
    0.6695   -0.4607    1.4526 H   0  0  0  0  0  0  0  0  0  0  0  0
   -0.6975   -1.2430    2.3418 H   0  0  0  0  0  0  0  0  0  0  0  0
   -0.8505    0.4676    1.7620 H   0  0  0  0  0  0  0  0  0  0  0  0
   -1.7243   -3.4052   -1.1765 H   0  0  0  0  0  0  0  0  0  0  0  0
   -2.1044   -5.1281   -1.0389 H   0  0  0  0  0  0  0  0  0  0  0  0
    0.6561   -3.9910   -0.2372 H   0  0  0  0  0  0  0  0  0  0  0  0
    0.2469   -4.5537   -1.9021 H   0  0  0  0  0  0  0  0  0  0  0  0
    0.1952   -5.7195   -0.5350 H   0  0  0  0  0  0  0  0  0  0  0  0
    1.8921   -3.7974    8.9272 H   0  0  0  0  0  0  0  0  0  0  0  0
    1.9247   -4.7260   11.1996 H   0  0  0  0  0  0  0  0  0  0  0  0
    3.0650   -7.4636   12.2381 H   0  0  0  0  0  0  0  0  0  0  0  0
    1.4805   -6.6940   12.6581 H   0  0  0  0  0  0  0  0  0  0  0  0
    1.5154   -8.3545   11.9714 H   0  0  0  0  0  0  0  0  0  0  0  0
    2.0317   -8.7155    9.5689 H   0  0  0  0  0  0  0  0  0  0  0  0
    1.9867   -7.7884    7.3015 H   0  0  0  0  0  0  0  0  0  0  0  0
    2.3149   -3.3916    4.5873 H   0  0  0  0  0  0  0  0  0  0  0  0
    0.9916   -1.4549    3.9864 H   0  0  0  0  0  0  0  0  0  0  0  0
   -2.3217   -0.9126    4.7811 H   0  0  0  0  0  0  0  0  0  0  0  0
   -1.4930    0.0837    6.0511 H   0  0  0  0  0  0  0  0  0  0  0  0
   -0.8467    0.0547    4.3726 H   0  0  0  0  0  0  0  0  0  0  0  0
   -1.7563   -2.3104    7.1887 H   0  0  0  0  0  0  0  0  0  0  0  0
   -0.4126   -4.2337    7.8249 H   0  0  0  0  0  0  0  0  0  0  0  0
    8.3246   -6.1283    4.6695 H   0  0  0  0  0  0  0  0  0  0  0  0
   10.7766   -6.2216    4.6058 H   0  0  0  0  0  0  0  0  0  0  0  0
   12.9205   -3.7483    2.8036 H   0  0  0  0  0  0  0  0  0  0  0  0
   12.7476   -5.4785    2.3093 H   0  0  0  0  0  0  0  0  0  0  0  0
   12.8971   -5.0386    4.0547 H   0  0  0  0  0  0  0  0  0  0  0  0
   10.8277   -3.0412    1.6923 H   0  0  0  0  0  0  0  0  0  0  0  0
    8.3772   -2.9309    1.7700 H   0  0  0  0  0  0  0  0  0  0  0  0
    4.6264   -2.8042    2.8849 H   0  0  0  0  0  0  0  0  0  0  0  0
    3.2917   -2.5163    0.8435 H   0  0  0  0  0  0  0  0  0  0  0  0
    4.2938   -3.6868   -2.4583 H   0  0  0  0  0  0  0  0  0  0  0  0
    3.0028   -4.6820   -1.6797 H   0  0  0  0  0  0  0  0  0  0  0  0
    2.9777   -2.8810   -1.5271 H   0  0  0  0  0  0  0  0  0  0  0  0
    5.8243   -5.3422   -1.2039 H   0  0  0  0  0  0  0  0  0  0  0  0
    7.1479   -5.6473    0.8447 H   0  0  0  0  0  0  0  0  0  0  0  0
    8.2050   -3.2929    6.1118 H   0  0  0  0  0  0  0  0  0  0  0  0
    3.4877    0.9193    5.6441 H   0  0  0  0  0  0  0  0  0  0  0  0
    8.1008    2.3179    7.3097 H   0  0  0  0  0  0  0  0  0  0  0  0
    5.5971    4.4537    8.3435 H   0  0  0  0  0  0  0  0  0  0  0  0
    7.0546    5.6292    6.2916 H   0  0  0  0  0  0  0  0  0  0  0  0
    5.3075    7.4924    7.0345 H   0  0  0  0  0  0  0  0  0  0  0  0
    2.9494    6.7991    6.1593 H   0  0  0  0  0  0  0  0  0  0  0  0
    3.1874    4.4948    4.8567 H   0  0  0  0  0  0  0  0  0  0  0  0
    5.8056    4.0172    4.5525 H   0  0  0  0  0  0  0  0  0  0  0  0
    5.4337    5.7503    4.1836 H   0  0  0  0  0  0  0  0  0  0  0  0
    3.4291    3.8251    7.5402 H   0  0  0  0  0  0  0  0  0  0  0  0
  1  2  2  3
  2  3  1  0
  3  4  2  0
  3  5  1  0
  5  6  2  0
  6  7  1  0
  7  8  2  0
  8  9  1  0
  9 10  2  0
 10 11  1  0
 11 12  2  3
 12 13  1  0
 13 14  3  0
 12 15  1  0
 15 16  3  0
  8 17  1  0
 17 18  1  0
 18 19  1  0
 19 20  2  0
 20 21  1  0
 21 22  1  0
 21 23  1  0
  1 24  1  0
 24 25  2  0
 25 26  1  0
 26 27  2  0
 27 28  1  0
 28 29  2  0
 29 30  1  0
 30 31  1  0
 30 32  2  0
 32 33  1  0
 33 34  1  0
 32 35  1  0
 27 36  1  0
 36 37  2  0
 37 38  1  0
 38 39  1  0
 39 40  1  0
 40 41  1  0
 41 42  1  0
 42 43  1  0
 43 44  1  0
 41 45  2  0
 45 46  1  0
 45 47  1  0
 38 48  2  0
 48 49  1  0
 37 50  1  0
 50 51  2  0
 51 52  1  0
 51 53  1  0
 53 54  2  0
 54 55  1  0
 55 56  2  0
 56 57  1  0
 57 58  2  0
 58 59  1  0
 59 60  2  0
 60 61  1  0
 61 62  1  0
 54 63  1  0
 63 64  1  0
 64 65  1  0
 65 66  1  0
 66 67  1  0
 67 68  1  0
 68 69  2  0
 69 70  1  0
 70 71  1  0
 68 72  1  0
 72 73  1  0
 73 74  1  0
 74 75  1  0
 75 76  1  0
 76 77  1  0
 77 78  2  0
 78 79  1  0
 79 80  1  0
 78 81  1  0
 81 82  2  0
 82 83  1  0
 83 84  2  0
 76 85  2  0
 85 86  1  0
 86 87  1  0
 87 88  1  0
 88 89  1  0
 89 90  1  0
 90 91  1  0
 91 92  1  0
 92 93  1  0
 93 94  1  0
 94 95  1  0
 92 96  1  0
 96 97  1  0
 89 98  1  0
 98 99  1  0
 85100  1  0
100101  2  0
101102  1  0
102103  1  0
103104  2  0
104105  1  0
105106  2  0
106107  1  0
106108  1  0
108109  2  0
102110  1  0
110111  2  0
111112  1  0
112113  2  0
113114  1  0
113115  1  0
115116  2  0
101117  1  0
117118  1  0
118119  1  0
119120  2  0
120121  1  0
121122  1  0
122123  2  0
123124  1  0
124125  2  0
125126  1  0
125127  1  0
127128  2  0
121129  1  0
129130  2  0
130131  1  0
131132  2  0
132133  1  0
132134  1  0
134135  2  0
120136  1  0
136137  1  0
119138  1  0
138139  2  3
139140  1  0
140141  2  0
140142  1  0
142143  2  0
143144  1  0
144145  2  0
145146  1  0
146147  2  0
147148  1  0
148149  2  3
149150  1  0
150151  3  0
149152  1  0
152153  3  0
145154  1  0
154155  1  0
155156  1  0
156157  2  0
157158  1  0
158159  1  0
158160  1  0
 11  2  1  0
 23 17  1  0
 49 24  1  0
 95 53  1  0
137100  1  0
148139  1  0
160154  1  0
 10  5  1  0
 22 18  1  0
 48 26  1  0
 60 55  1  0
 94 63  2  0
109103  1  0
116110  1  0
136117  2  0
147142  1  0
159155  1  0
 23  7  1  0
 35 28  1  0
 52 36  1  0
 93 65  2  0
128122  1  0
135129  1  0
160144  1  0
 46 39  2  0
 91 66  2  0
 71 67  2  0
 90 72  2  0
 88 73  2  0
 87 75  2  0
 84 77  1  0
  1161  1  0
  6162  1  0
  9163  1  0
 17164  1  0
 18165  1  0
 19166  1  0
 20167  1  0
 21168  1  0
 22169  1  0
 22170  1  0
 23171  1  0
 25172  1  0
 29173  1  0
 33174  1  0
 33175  1  0
 34176  1  0
 34177  1  0
 34178  1  0
 42179  1  0
 42180  1  0
 43181  1  0
 43182  1  0
 44183  1  0
 44184  1  0
 44185  1  0
 46186  1  0
 50187  1  0
 56188  1  0
 57189  1  0
 58190  1  0
 59191  1  0
 61192  1  0
 61193  1  0
 62194  1  0
 62195  1  0
 62196  1  0
 79197  1  0
 79198  1  0
 80199  1  0
 80200  1  0
 80201  1  0
 81202  1  0
 82203  1  0
 83204  1  0
 84205  1  0
 96206  1  0
 96207  1  0
 97208  1  0
 97209  1  0
 97210  1  0
 98211  1  0
 98212  1  0
 99213  1  0
 99214  1  0
 99215  1  0
104216  1  0
105217  1  0
107218  1  0
107219  1  0
107220  1  0
108221  1  0
109222  1  0
111223  1  0
112224  1  0
114225  1  0
114226  1  0
114227  1  0
115228  1  0
116229  1  0
123230  1  0
124231  1  0
126232  1  0
126233  1  0
126234  1  0
127235  1  0
128236  1  0
130237  1  0
131238  1  0
133239  1  0
133240  1  0
133241  1  0
134242  1  0
135243  1  0
138244  1  0
143245  1  0
146246  1  0
154247  1  0
155248  1  0
156249  1  0
157250  1  0
158251  1  0
159252  1  0
159253  1  0
160254  1  0
M  END

