
     RDKit          3D

227254  0  0  0  0  0  0  0  0999 V2000
   -6.5290   -0.3245    2.8673 C   0  0  0  0  0  0  0  0  0  0  0  0
   -5.4571   -0.8711    3.4753 C   0  0  0  0  0  0  0  0  0  0  0  0
   -4.5130   -1.8117    2.8558 C   0  0  0  0  0  0  0  0  0  0  0  0
   -4.4734   -2.1450    1.6406 O   0  0  0  0  0  0  0  0  0  0  0  0
   -3.6794   -2.3822    3.8881 C   0  0  0  0  0  0  0  0  0  0  0  0
   -2.6543   -3.3426    3.7124 C   0  0  0  0  0  0  0  0  0  0  0  0
   -1.9868   -3.6692    4.8741 C   0  0  0  0  0  0  0  0  0  0  0  0
   -2.3124   -3.0986    6.1470 C   0  0  0  0  0  0  0  0  0  0  0  0
   -3.3363   -2.1877    6.3310 C   0  0  0  0  0  0  0  0  0  0  0  0
   -4.0312   -1.8202    5.1416 C   0  0  0  0  0  0  0  0  0  0  0  0
   -5.1229   -0.8199    4.9340 C   0  0  0  0  0  0  0  0  0  0  0  0
   -5.5622    0.1036    5.8290 C   0  0  0  0  0  0  0  0  0  0  0  0
   -6.3568    1.2387    5.4341 C   0  0  0  0  0  0  0  0  0  0  0  0
   -6.9992    2.1514    5.1225 N   0  0  0  0  0  0  0  0  0  0  0  0
   -5.1850    0.0956    7.2202 C   0  0  0  0  0  0  0  0  0  0  0  0
   -4.9006    0.1114    8.3438 N   0  0  0  0  0  0  0  0  0  0  0  0
   -1.2170   -3.8878    6.7982 C   0  0  0  0  0  0  0  0  0  0  0  0
    0.0718   -3.1053    7.1907 C   0  0  0  0  0  0  0  0  0  0  0  0
    1.1288   -4.1527    7.4470 C   0  0  0  0  0  0  0  0  0  0  0  0
    1.4317   -4.6834    6.2547 C   0  0  0  0  0  0  0  0  0  0  0  0
    0.5723   -3.9748    5.2360 C   0  0  0  0  0  0  0  0  0  0  0  0
    0.5815   -2.5880    5.8546 C   0  0  0  0  0  0  0  0  0  0  0  0
   -0.8815   -4.4700    5.4945 C   0  0  0  0  0  0  0  0  0  0  0  0
   -6.6988   -0.2866    1.4049 C   0  0  0  0  0  0  0  0  0  0  0  0
   -7.6646   -0.9282    0.7418 C   0  0  0  0  0  0  0  0  0  0  0  0
   -7.2746   -1.1655   -0.6166 C   0  0  0  0  0  0  0  0  0  0  0  0
   -5.9943   -0.4885   -0.7603 C   0  0  0  0  0  0  0  0  0  0  0  0
   -5.2304   -0.5027   -1.7631 O   0  0  0  0  0  0  0  0  0  0  0  0
   -5.6707    0.1201    0.4834 N   0  0  0  0  0  0  0  0  0  0  0  0
   -4.5370    1.0070    0.7421 C   0  0  0  0  0  0  0  0  0  0  0  0
   -7.7532   -2.3421   -1.0412 C   0  0  0  0  0  0  0  0  0  0  0  0
   -8.6056   -2.9187   -0.0305 N   0  0  0  0  0  0  0  0  0  0  0  0
   -9.7443   -3.7927   -0.2810 C   0  0  0  0  0  0  0  0  0  0  0  0
   -8.5162   -2.0369    1.0919 C   0  0  0  0  0  0  0  0  0  0  0  0
   -9.0985   -2.2140    2.1937 O   0  0  0  0  0  0  0  0  0  0  0  0
   -7.1626   -3.1146   -2.1547 C   0  0  0  0  0  0  0  0  0  0  0  0
   -6.7662   -4.4699   -2.1233 C   0  0  0  0  0  0  0  0  0  0  0  0
   -6.9137   -5.3626   -0.9569 C   0  0  0  0  0  0  0  0  0  0  0  0
   -7.7025   -6.5161   -1.0645 C   0  0  0  0  0  0  0  0  0  0  0  0
   -7.9642   -7.2975    0.0664 C   0  0  0  0  0  0  0  0  0  0  0  0
   -7.4097   -6.9556    1.3018 C   0  0  0  0  0  0  0  0  0  0  0  0
   -6.5667   -5.8379    1.4128 C   0  0  0  0  0  0  0  0  0  0  0  0
   -5.9566   -5.4772    2.7454 C   0  0  0  0  0  0  0  0  0  0  0  0
   -6.7846   -4.4071    3.4477 C   0  0  0  0  0  0  0  0  0  0  0  0
   -6.3314   -5.0363    0.2801 C   0  0  0  0  0  0  0  0  0  0  0  0
   -6.0499   -4.8149   -3.2734 C   0  0  0  0  0  0  0  0  0  0  0  0
   -4.8957   -6.0382   -3.5386 S   0  0  0  0  0  0  0  0  0  0  0  0
   -4.2069   -5.2019   -4.8536 C   0  0  0  0  0  0  0  0  0  0  0  0
   -2.8978   -5.0482   -5.2545 C   0  0  0  0  0  0  0  0  0  0  0  0
   -1.8168   -5.9336   -5.2668 C   0  0  0  0  0  0  0  0  0  0  0  0
   -0.5321   -5.4393   -5.6568 C   0  0  0  0  0  0  0  0  0  0  0  0
    0.4937   -6.3287   -5.6396 N   0  0  0  0  0  0  0  0  0  0  0  0
   -0.3202   -7.6886   -5.1511 S   0  0  0  0  0  0  0  0  0  0  0  0
   -1.9023   -7.2460   -4.9353 N   0  0  0  0  0  0  0  0  0  0  0  0
   -0.3813   -4.0688   -5.9247 C   0  0  0  0  0  0  0  0  0  0  0  0
    0.7550   -3.3028   -5.8733 C   0  0  0  0  0  0  0  0  0  0  0  0
    2.3512   -3.6212   -5.3814 S   0  0  0  0  0  0  0  0  0  0  0  0
    2.5570   -2.0441   -4.7767 C   0  0  0  0  0  0  0  0  0  0  0  0
    3.5034   -1.5152   -3.8772 C   0  0  0  0  0  0  0  0  0  0  0  0
    4.8463   -2.1245   -3.6531 C   0  0  0  0  0  0  0  0  0  0  0  0
    5.4512   -2.1712   -2.3829 C   0  0  0  0  0  0  0  0  0  0  0  0
    6.7426   -2.6826   -2.2236 C   0  0  0  0  0  0  0  0  0  0  0  0
    7.4326   -3.1999   -3.3210 C   0  0  0  0  0  0  0  0  0  0  0  0
    6.8340   -3.2121   -4.5882 C   0  0  0  0  0  0  0  0  0  0  0  0
    7.5684   -3.7981   -5.7675 C   0  0  0  0  0  0  0  0  0  0  0  0
    8.1998   -2.7010   -6.6197 C   0  0  0  0  0  0  0  0  0  0  0  0
    5.5537   -2.6565   -4.7519 C   0  0  0  0  0  0  0  0  0  0  0  0
    2.9912   -0.3500   -3.2533 C   0  0  0  0  0  0  0  0  0  0  0  0
    1.4172   -0.0649   -3.8167 S   0  0  0  0  0  0  0  0  0  0  0  0
    1.3836   -1.3388   -4.8955 C   0  0  0  0  0  0  0  0  0  0  0  0
    0.3618   -2.0395   -5.5429 C   0  0  0  0  0  0  0  0  0  0  0  0
   -0.9919   -1.9144   -5.4641 N   0  0  0  0  0  0  0  0  0  0  0  0
   -1.4540   -3.1720   -5.7769 C   0  0  0  0  0  0  0  0  0  0  0  0
   -2.7552   -3.7030   -5.5919 C   0  0  0  0  0  0  0  0  0  0  0  0
   -3.9540   -3.0577   -5.5231 N   0  0  0  0  0  0  0  0  0  0  0  0
   -4.8102   -3.9852   -5.0362 C   0  0  0  0  0  0  0  0  0  0  0  0
   -5.8713   -3.7881   -4.1678 C   0  0  0  0  0  0  0  0  0  0  0  0
   -6.5934   -2.3970   -3.5882 S   0  0  0  0  0  0  0  0  0  0  0  0
   -4.3513   -1.8501   -6.2610 C   0  0  0  0  0  0  0  0  0  0  0  0
   -5.2681   -2.1971   -7.4339 C   0  0  0  0  0  0  0  0  0  0  0  0
   -1.6747   -0.8799   -4.6705 C   0  0  0  0  0  0  0  0  0  0  0  0
   -1.6369    0.4780   -5.3803 C   0  0  0  0  0  0  0  0  0  0  0  0
    3.4079    0.1900   -1.9605 C   0  0  0  0  0  0  0  0  0  0  0  0
    4.1629    1.3457   -1.7191 C   0  0  0  0  0  0  0  0  0  0  0  0
    4.5785    2.2766   -2.7321 N   0  0  0  0  0  0  0  0  0  0  0  0
    5.8922    2.1950   -3.3457 C   0  0  0  0  0  0  0  0  0  0  0  0
    6.8343    1.2366   -2.9173 C   0  0  0  0  0  0  0  0  0  0  0  0
    8.1137    1.1906   -3.4839 C   0  0  0  0  0  0  0  0  0  0  0  0
    8.4694    2.0867   -4.5011 C   0  0  0  0  0  0  0  0  0  0  0  0
    9.8592    2.0912   -5.0673 C   0  0  0  0  0  0  0  0  0  0  0  0
    7.5355    3.0345   -4.9420 C   0  0  0  0  0  0  0  0  0  0  0  0
    6.2585    3.0838   -4.3776 C   0  0  0  0  0  0  0  0  0  0  0  0
    3.7117    3.3969   -2.9769 C   0  0  0  0  0  0  0  0  0  0  0  0
    2.6923    3.3012   -3.9340 C   0  0  0  0  0  0  0  0  0  0  0  0
    1.8114    4.3672   -4.1351 C   0  0  0  0  0  0  0  0  0  0  0  0
    1.9475    5.5448   -3.3825 C   0  0  0  0  0  0  0  0  0  0  0  0
    1.0163    6.7003   -3.6088 C   0  0  0  0  0  0  0  0  0  0  0  0
    3.0080    5.6606   -2.4675 C   0  0  0  0  0  0  0  0  0  0  0  0
    3.8834    4.5913   -2.2659 C   0  0  0  0  0  0  0  0  0  0  0  0
    4.2639    1.5928   -0.3479 C   0  0  0  0  0  0  0  0  0  0  0  0
    4.9434    2.8026    0.5947 S   0  0  0  0  0  0  0  0  0  0  0  0
    4.3323    2.1896    2.0679 C   0  0  0  0  0  0  0  0  0  0  0  0
    3.6319    0.9964    1.8140 C   0  0  0  0  0  0  0  0  0  0  0  0
    2.9407    0.2074    2.8001 N   0  0  0  0  0  0  0  0  0  0  0  0
    1.5628    0.5040    3.1045 C   0  0  0  0  0  0  0  0  0  0  0  0
    0.5616   -0.4669    2.9311 C   0  0  0  0  0  0  0  0  0  0  0  0
   -0.7708   -0.1693    3.2212 C   0  0  0  0  0  0  0  0  0  0  0  0
   -1.1258    1.0942    3.7075 C   0  0  0  0  0  0  0  0  0  0  0  0
   -2.5418    1.3839    4.1016 C   0  0  0  0  0  0  0  0  0  0  0  0
   -0.1344    2.0675    3.8854 C   0  0  0  0  0  0  0  0  0  0  0  0
    1.1952    1.7783    3.5726 C   0  0  0  0  0  0  0  0  0  0  0  0
    3.5262   -1.0306    3.2445 C   0  0  0  0  0  0  0  0  0  0  0  0
    4.2369   -1.0692    4.4509 C   0  0  0  0  0  0  0  0  0  0  0  0
    4.7848   -2.2709    4.9142 C   0  0  0  0  0  0  0  0  0  0  0  0
    4.6435   -3.4483    4.1619 C   0  0  0  0  0  0  0  0  0  0  0  0
    5.2136   -4.7400    4.6705 C   0  0  0  0  0  0  0  0  0  0  0  0
    3.9218   -3.4144    2.9612 C   0  0  0  0  0  0  0  0  0  0  0  0
    3.3734   -2.2136    2.5029 C   0  0  0  0  0  0  0  0  0  0  0  0
    3.5994    0.7179    0.4501 C   0  0  0  0  0  0  0  0  0  0  0  0
    2.8196   -0.4291   -0.4871 S   0  0  0  0  0  0  0  0  0  0  0  0
    4.5245    2.8263    3.3853 C   0  0  0  0  0  0  0  0  0  0  0  0
    4.1348    4.0902    3.6696 C   0  0  0  0  0  0  0  0  0  0  0  0
    3.4935    5.0237    2.7288 C   0  0  0  0  0  0  0  0  0  0  0  0
    2.8995    4.7200    1.6602 O   0  0  0  0  0  0  0  0  0  0  0  0
    3.5420    6.3563    3.2880 C   0  0  0  0  0  0  0  0  0  0  0  0
    3.0908    7.5525    2.6828 C   0  0  0  0  0  0  0  0  0  0  0  0
    3.2768    8.6778    3.4619 C   0  0  0  0  0  0  0  0  0  0  0  0
    3.8692    8.6388    4.7639 C   0  0  0  0  0  0  0  0  0  0  0  0
    4.3149    7.4714    5.3611 C   0  0  0  0  0  0  0  0  0  0  0  0
    4.1197    6.2925    4.5824 C   0  0  0  0  0  0  0  0  0  0  0  0
    4.4022    4.8665    4.9242 C   0  0  0  0  0  0  0  0  0  0  0  0
    4.5876    4.3548    6.1684 C   0  0  0  0  0  0  0  0  0  0  0  0
    4.7653    5.1792    7.3369 C   0  0  0  0  0  0  0  0  0  0  0  0
    4.9033    5.8225    8.2876 N   0  0  0  0  0  0  0  0  0  0  0  0
    4.4428    2.9536    6.4529 C   0  0  0  0  0  0  0  0  0  0  0  0
    4.3067    1.8310    6.7074 N   0  0  0  0  0  0  0  0  0  0  0  0
    3.6950   10.1231    4.9096 C   0  0  0  0  0  0  0  0  0  0  0  0
    2.5558   10.6364    5.8435 C   0  0  0  0  0  0  0  0  0  0  0  0
    1.4094    9.6517    5.8579 C   0  0  0  0  0  0  0  0  0  0  0  0
    0.8619    9.6896    4.6411 C   0  0  0  0  0  0  0  0  0  0  0  0
    1.6506   10.7019    3.8430 C   0  0  0  0  0  0  0  0  0  0  0  0
    1.9447   11.6993    4.9482 C   0  0  0  0  0  0  0  0  0  0  0  0
    3.0893   10.1650    3.5732 C   0  0  0  0  0  0  0  0  0  0  0  0
   -7.3473    0.0623    3.4492 H   0  0  0  0  0  0  0  0  0  0  0  0
   -2.3961   -3.7732    2.7503 H   0  0  0  0  0  0  0  0  0  0  0  0
   -3.5486   -1.8139    7.3150 H   0  0  0  0  0  0  0  0  0  0  0  0
   -1.5770   -4.6226    7.5500 H   0  0  0  0  0  0  0  0  0  0  0  0
   -0.0463   -2.3440    7.9923 H   0  0  0  0  0  0  0  0  0  0  0  0
    1.6348   -4.3638    8.3850 H   0  0  0  0  0  0  0  0  0  0  0  0
    2.2182   -5.4048    6.0675 H   0  0  0  0  0  0  0  0  0  0  0  0
    0.9352   -4.0416    4.1878 H   0  0  0  0  0  0  0  0  0  0  0  0
    1.6038   -2.1360    5.9066 H   0  0  0  0  0  0  0  0  0  0  0  0
   -0.1067   -1.8634    5.3660 H   0  0  0  0  0  0  0  0  0  0  0  0
   -1.0333   -5.5717    5.4280 H   0  0  0  0  0  0  0  0  0  0  0  0
   -4.5321    1.8299   -0.0039 H   0  0  0  0  0  0  0  0  0  0  0  0
   -3.5893    0.4397    0.6605 H   0  0  0  0  0  0  0  0  0  0  0  0
   -4.6219    1.4511    1.7510 H   0  0  0  0  0  0  0  0  0  0  0  0
   -9.5678   -4.4104   -1.1857 H   0  0  0  0  0  0  0  0  0  0  0  0
  -10.6561   -3.1790   -0.4396 H   0  0  0  0  0  0  0  0  0  0  0  0
   -9.8957   -4.4619    0.5929 H   0  0  0  0  0  0  0  0  0  0  0  0
   -8.1676   -6.7786   -2.0075 H   0  0  0  0  0  0  0  0  0  0  0  0
   -8.6098   -8.1636   -0.0127 H   0  0  0  0  0  0  0  0  0  0  0  0
   -7.6322   -7.5625    2.1718 H   0  0  0  0  0  0  0  0  0  0  0  0
   -5.8936   -6.3738    3.3967 H   0  0  0  0  0  0  0  0  0  0  0  0
   -4.9212   -5.1013    2.5951 H   0  0  0  0  0  0  0  0  0  0  0  0
   -6.3303   -4.1717    4.4323 H   0  0  0  0  0  0  0  0  0  0  0  0
   -6.7982   -3.4800    2.8385 H   0  0  0  0  0  0  0  0  0  0  0  0
   -7.8282   -4.7587    3.6013 H   0  0  0  0  0  0  0  0  0  0  0  0
   -5.7209   -4.1455    0.3673 H   0  0  0  0  0  0  0  0  0  0  0  0
    4.9423   -1.8307   -1.4998 H   0  0  0  0  0  0  0  0  0  0  0  0
    7.2007   -2.6990   -1.2434 H   0  0  0  0  0  0  0  0  0  0  0  0
    8.4275   -3.6062   -3.1755 H   0  0  0  0  0  0  0  0  0  0  0  0
    8.3664   -4.4935   -5.4195 H   0  0  0  0  0  0  0  0  0  0  0  0
    6.8634   -4.3914   -6.3917 H   0  0  0  0  0  0  0  0  0  0  0  0
    8.8791   -2.0704   -6.0056 H   0  0  0  0  0  0  0  0  0  0  0  0
    8.7909   -3.1614   -7.4409 H   0  0  0  0  0  0  0  0  0  0  0  0
    7.4100   -2.0616   -7.0667 H   0  0  0  0  0  0  0  0  0  0  0  0
    5.1169   -2.6324   -5.7424 H   0  0  0  0  0  0  0  0  0  0  0  0
   -4.8733   -1.1395   -5.5803 H   0  0  0  0  0  0  0  0  0  0  0  0
   -3.4562   -1.3526   -6.6862 H   0  0  0  0  0  0  0  0  0  0  0  0
   -5.4918   -1.2756   -8.0104 H   0  0  0  0  0  0  0  0  0  0  0  0
   -6.2249   -2.6238   -7.0653 H   0  0  0  0  0  0  0  0  0  0  0  0
   -4.7666   -2.9272   -8.1057 H   0  0  0  0  0  0  0  0  0  0  0  0
   -2.7173   -1.1530   -4.4422 H   0  0  0  0  0  0  0  0  0  0  0  0
   -1.2009   -0.7976   -3.6712 H   0  0  0  0  0  0  0  0  0  0  0  0
   -2.1736    1.2345   -4.7682 H   0  0  0  0  0  0  0  0  0  0  0  0
   -0.5925    0.8203   -5.5249 H   0  0  0  0  0  0  0  0  0  0  0  0
   -2.1178    0.4191   -6.3781 H   0  0  0  0  0  0  0  0  0  0  0  0
    6.5983    0.5336   -2.1293 H   0  0  0  0  0  0  0  0  0  0  0  0
    8.8274    0.4620   -3.1212 H   0  0  0  0  0  0  0  0  0  0  0  0
   10.4527    2.8968   -4.5865 H   0  0  0  0  0  0  0  0  0  0  0  0
    9.8295    2.2662   -6.1622 H   0  0  0  0  0  0  0  0  0  0  0  0
   10.3643    1.1168   -4.8898 H   0  0  0  0  0  0  0  0  0  0  0  0
    7.7986    3.7458   -5.7150 H   0  0  0  0  0  0  0  0  0  0  0  0
    5.5646    3.8297   -4.7428 H   0  0  0  0  0  0  0  0  0  0  0  0
    2.5916    2.4066   -4.5321 H   0  0  0  0  0  0  0  0  0  0  0  0
    1.0290    4.2762   -4.8762 H   0  0  0  0  0  0  0  0  0  0  0  0
    0.0207    6.3389   -3.9461 H   0  0  0  0  0  0  0  0  0  0  0  0
    0.8725    7.2733   -2.6692 H   0  0  0  0  0  0  0  0  0  0  0  0
    1.4417    7.3713   -4.3836 H   0  0  0  0  0  0  0  0  0  0  0  0
    3.1490    6.5773   -1.9067 H   0  0  0  0  0  0  0  0  0  0  0  0
    4.6880    4.6914   -1.5548 H   0  0  0  0  0  0  0  0  0  0  0  0
    0.7966   -1.4531    2.5627 H   0  0  0  0  0  0  0  0  0  0  0  0
   -1.5214   -0.9266    3.0708 H   0  0  0  0  0  0  0  0  0  0  0  0
   -2.7801    2.4603    3.9697 H   0  0  0  0  0  0  0  0  0  0  0  0
   -3.2342    0.7950    3.4671 H   0  0  0  0  0  0  0  0  0  0  0  0
   -2.6951    1.0967    5.1637 H   0  0  0  0  0  0  0  0  0  0  0  0
   -0.3899    3.0473    4.2687 H   0  0  0  0  0  0  0  0  0  0  0  0
    1.9321    2.5440    3.7234 H   0  0  0  0  0  0  0  0  0  0  0  0
    4.3567   -0.1688    5.0328 H   0  0  0  0  0  0  0  0  0  0  0  0
    5.3167   -2.2842    5.8568 H   0  0  0  0  0  0  0  0  0  0  0  0
    5.3706   -5.4586    3.8383 H   0  0  0  0  0  0  0  0  0  0  0  0
    6.1948   -4.5624    5.1589 H   0  0  0  0  0  0  0  0  0  0  0  0
    4.5195   -5.1890    5.4075 H   0  0  0  0  0  0  0  0  0  0  0  0
    3.7804   -4.3179    2.3781 H   0  0  0  0  0  0  0  0  0  0  0  0
    2.8103   -2.2230    1.5823 H   0  0  0  0  0  0  0  0  0  0  0  0
    5.0326    2.2301    4.1241 H   0  0  0  0  0  0  0  0  0  0  0  0
    2.6378    7.5909    1.7029 H   0  0  0  0  0  0  0  0  0  0  0  0
    4.7713    7.4998    6.3346 H   0  0  0  0  0  0  0  0  0  0  0  0
    4.6542   10.6838    4.9781 H   0  0  0  0  0  0  0  0  0  0  0  0
    2.8859   10.9861    6.8452 H   0  0  0  0  0  0  0  0  0  0  0  0
    1.0406    9.0798    6.7027 H   0  0  0  0  0  0  0  0  0  0  0  0
   -0.0269    9.1517    4.3275 H   0  0  0  0  0  0  0  0  0  0  0  0
    1.1229   11.1140    2.9560 H   0  0  0  0  0  0  0  0  0  0  0  0
    2.6658   12.4992    4.6535 H   0  0  0  0  0  0  0  0  0  0  0  0
    1.0247   12.1693    5.3776 H   0  0  0  0  0  0  0  0  0  0  0  0
    3.6761   10.7557    2.8340 H   0  0  0  0  0  0  0  0  0  0  0  0
  1  2  2  3
  2  3  1  0
  3  4  2  0
  3  5  1  0
  5  6  2  0
  6  7  1  0
  7  8  2  0
  8  9  1  0
  9 10  2  0
 10 11  1  0
 11 12  2  3
 12 13  1  0
 13 14  3  0
 12 15  1  0
 15 16  3  0
  8 17  1  0
 17 18  1  0
 18 19  1  0
 19 20  2  0
 20 21  1  0
 21 22  1  0
 21 23  1  0
  1 24  1  0
 24 25  2  0
 25 26  1  0
 26 27  1  0
 27 28  2  0
 27 29  1  0
 29 30  1  0
 26 31  2  0
 31 32  1  0
 32 33  1  0
 32 34  1  0
 34 35  2  0
 31 36  1  0
 36 37  2  0
 37 38  1  0
 38 39  2  0
 39 40  1  0
 40 41  2  0
 41 42  1  0
 42 43  1  0
 43 44  1  0
 42 45  2  0
 37 46  1  0
 46 47  1  0
 47 48  1  0
 48 49  1  0
 49 50  1  0
 50 51  1  0
 51 52  2  0
 52 53  1  0
 53 54  1  0
 51 55  1  0
 55 56  1  0
 56 57  1  0
 57 58  1  0
 58 59  1  0
 59 60  1  0
 60 61  2  0
 61 62  1  0
 62 63  2  0
 63 64  1  0
 64 65  1  0
 65 66  1  0
 64 67  2  0
 59 68  2  0
 68 69  1  0
 69 70  1  0
 70 71  1  0
 71 72  1  0
 72 73  1  0
 73 74  1  0
 74 75  1  0
 75 76  1  0
 76 77  1  0
 77 78  1  0
 75 79  1  0
 79 80  1  0
 72 81  1  0
 81 82  1  0
 68 83  1  0
 83 84  2  0
 84 85  1  0
 85 86  1  0
 86 87  2  0
 87 88  1  0
 88 89  2  0
 89 90  1  0
 89 91  1  0
 91 92  2  0
 85 93  1  0
 93 94  2  0
 94 95  1  0
 95 96  2  0
 96 97  1  0
 96 98  1  0
 98 99  2  0
 84100  1  0
100101  1  0
101102  1  0
102103  2  0
103104  1  0
104105  1  0
105106  2  0
106107  1  0
107108  2  0
108109  1  0
108110  1  0
110111  2  0
104112  1  0
112113  2  0
113114  1  0
114115  2  0
115116  1  0
115117  1  0
117118  2  0
103119  1  0
119120  1  0
102121  1  0
121122  2  3
122123  1  0
123124  2  0
123125  1  0
125126  2  0
126127  1  0
127128  2  0
128129  1  0
129130  2  0
130131  1  0
131132  2  3
132133  1  0
133134  3  0
132135  1  0
135136  3  0
128137  1  0
137138  1  0
138139  1  0
139140  2  0
140141  1  0
141142  1  0
141143  1  0
 11  2  1  0
 23 17  1  0
 29 24  1  0
 78 36  1  0
120 83  1  0
131122  1  0
143137  1  0
 10  5  1  0
 22 18  1  0
 34 25  1  0
 45 38  1  0
 77 46  2  0
 92 86  1  0
 99 93  1  0
119100  2  0
130125  1  0
142138  1  0
 23  7  1  0
 76 48  2  0
111105  1  0
118112  1  0
143127  1  0
 74 49  2  0
 54 50  2  0
 73 55  2  0
 71 56  2  0
 70 58  2  0
 67 60  1  0
  1144  1  0
  6145  1  0
  9146  1  0
 17147  1  0
 18148  1  0
 19149  1  0
 20150  1  0
 21151  1  0
 22152  1  0
 22153  1  0
 23154  1  0
 30155  1  0
 30156  1  0
 30157  1  0
 33158  1  0
 33159  1  0
 33160  1  0
 39161  1  0
 40162  1  0
 41163  1  0
 43164  1  0
 43165  1  0
 44166  1  0
 44167  1  0
 44168  1  0
 45169  1  0
 61170  1  0
 62171  1  0
 63172  1  0
 65173  1  0
 65174  1  0
 66175  1  0
 66176  1  0
 66177  1  0
 67178  1  0
 79179  1  0
 79180  1  0
 80181  1  0
 80182  1  0
 80183  1  0
 81184  1  0
 81185  1  0
 82186  1  0
 82187  1  0
 82188  1  0
 87189  1  0
 88190  1  0
 90191  1  0
 90192  1  0
 90193  1  0
 91194  1  0
 92195  1  0
 94196  1  0
 95197  1  0
 97198  1  0
 97199  1  0
 97200  1  0
 98201  1  0
 99202  1  0
106203  1  0
107204  1  0
109205  1  0
109206  1  0
109207  1  0
110208  1  0
111209  1  0
113210  1  0
114211  1  0
116212  1  0
116213  1  0
116214  1  0
117215  1  0
118216  1  0
121217  1  0
126218  1  0
129219  1  0
137220  1  0
138221  1  0
139222  1  0
140223  1  0
141224  1  0
142225  1  0
142226  1  0
143227  1  0
M  END

