
     RDKit          3D

194216  0  0  0  0  0  0  0  0999 V2000
    5.3456   -2.5813   -4.7853 C   0  0  0  0  0  0  0  0  0  0  0  0
    4.4874   -1.6887   -5.3446 C   0  0  0  0  0  0  0  0  0  0  0  0
    3.9706   -0.5000   -4.6966 C   0  0  0  0  0  0  0  0  0  0  0  0
    4.2024   -0.0591   -3.5068 O   0  0  0  0  0  0  0  0  0  0  0  0
    3.1056    0.2152   -5.5644 C   0  0  0  0  0  0  0  0  0  0  0  0
    2.4100    1.4163   -5.2849 C   0  0  0  0  0  0  0  0  0  0  0  0
    1.7004    1.8943   -6.3587 C   0  0  0  0  0  0  0  0  0  0  0  0
    1.6255    1.2290   -7.6310 C   0  0  0  0  0  0  0  0  0  0  0  0
    2.2612    0.0133   -7.9084 C   0  0  0  0  0  0  0  0  0  0  0  0
    3.0465   -0.4994   -6.8261 C   0  0  0  0  0  0  0  0  0  0  0  0
    3.9056   -1.7377   -6.7493 C   0  0  0  0  0  0  0  0  0  0  0  0
    4.1106   -2.6366   -7.7230 C   0  0  0  0  0  0  0  0  0  0  0  0
    4.8580   -3.8609   -7.5162 C   0  0  0  0  0  0  0  0  0  0  0  0
    5.4745   -4.8285   -7.3687 N   0  0  0  0  0  0  0  0  0  0  0  0
    3.6131   -2.5118   -9.0698 C   0  0  0  0  0  0  0  0  0  0  0  0
    3.2636   -2.3830  -10.1406 N   0  0  0  0  0  0  0  0  0  0  0  0
    0.6966    2.3018   -8.1638 C   0  0  0  0  0  0  0  0  0  0  0  0
   -0.7920    1.9188   -8.3040 C   0  0  0  0  0  0  0  0  0  0  0  0
   -1.5549    3.2264   -8.4359 C   0  0  0  0  0  0  0  0  0  0  0  0
   -1.4850    3.8102   -7.2068 C   0  0  0  0  0  0  0  0  0  0  0  0
   -0.6992    2.8892   -6.3143 C   0  0  0  0  0  0  0  0  0  0  0  0
   -1.2147    1.5657   -6.8756 C   0  0  0  0  0  0  0  0  0  0  0  0
    0.7720    2.9653   -6.8372 C   0  0  0  0  0  0  0  0  0  0  0  0
    5.7920   -2.3913   -3.4037 C   0  0  0  0  0  0  0  0  0  0  0  0
    7.0043   -1.6962   -3.1721 C   0  0  0  0  0  0  0  0  0  0  0  0
    7.2897   -1.2009   -1.8693 C   0  0  0  0  0  0  0  0  0  0  0  0
    6.4232   -1.3854   -0.7585 C   0  0  0  0  0  0  0  0  0  0  0  0
    5.2367   -2.1292   -1.0023 C   0  0  0  0  0  0  0  0  0  0  0  0
    4.0901   -2.4623   -0.1124 C   0  0  0  0  0  0  0  0  0  0  0  0
    3.9499   -2.2446    1.1747 C   0  0  0  0  0  0  0  0  0  0  0  0
    2.7607   -2.7208    1.8787 C   0  0  0  0  0  0  0  0  0  0  0  0
    1.5379   -2.0696    1.7611 C   0  0  0  0  0  0  0  0  0  0  0  0
    0.5338   -2.7681    2.4233 C   0  0  0  0  0  0  0  0  0  0  0  0
    1.1989   -4.1550    3.1102 S   0  0  0  0  0  0  0  0  0  0  0  0
    2.7554   -3.9178    2.5624 C   0  0  0  0  0  0  0  0  0  0  0  0
    3.1685   -3.1417   -1.0431 C   0  0  0  0  0  0  0  0  0  0  0  0
    2.0739   -3.7062   -0.7036 O   0  0  0  0  0  0  0  0  0  0  0  0
    3.5986   -3.2017   -2.3634 N   0  0  0  0  0  0  0  0  0  0  0  0
    2.9056   -3.9689   -3.4027 C   0  0  0  0  0  0  0  0  0  0  0  0
    3.3742   -5.4253   -3.3913 C   0  0  0  0  0  0  0  0  0  0  0  0
    4.9374   -2.6112   -2.3097 C   0  0  0  0  0  0  0  0  0  0  0  0
    6.6826   -0.6631    0.5120 C   0  0  0  0  0  0  0  0  0  0  0  0
    7.1237   -1.2884    1.7043 C   0  0  0  0  0  0  0  0  0  0  0  0
    7.8290   -2.6319    1.7133 C   0  0  0  0  0  0  0  0  0  0  0  0
    8.8329   -2.9249    0.7821 C   0  0  0  0  0  0  0  0  0  0  0  0
    9.5766   -4.1233    0.8861 C   0  0  0  0  0  0  0  0  0  0  0  0
    9.3022   -5.0134    1.9297 C   0  0  0  0  0  0  0  0  0  0  0  0
    8.2246   -4.7845    2.8223 C   0  0  0  0  0  0  0  0  0  0  0  0
    8.0149   -5.6311    4.0471 C   0  0  0  0  0  0  0  0  0  0  0  0
    8.9691   -5.2350    5.1822 C   0  0  0  0  0  0  0  0  0  0  0  0
    7.5141   -3.5524    2.7208 C   0  0  0  0  0  0  0  0  0  0  0  0
    6.7553   -0.5758    2.8578 C   0  0  0  0  0  0  0  0  0  0  0  0
    6.5441   -1.0531    4.5454 S   0  0  0  0  0  0  0  0  0  0  0  0
    5.6303    0.4247    4.7956 C   0  0  0  0  0  0  0  0  0  0  0  0
    4.7030    0.9319    5.7048 C   0  0  0  0  0  0  0  0  0  0  0  0
    4.1672    0.3155    6.8693 C   0  0  0  0  0  0  0  0  0  0  0  0
    2.8411    0.7235    7.3482 C   0  0  0  0  0  0  0  0  0  0  0  0
    2.2644    0.0799    8.3600 N   0  0  0  0  0  0  0  0  0  0  0  0
    3.5383   -0.9924    8.6651 S   0  0  0  0  0  0  0  0  0  0  0  0
    4.7643   -0.7440    7.5413 N   0  0  0  0  0  0  0  0  0  0  0  0
    2.1656    1.7508    6.5755 C   0  0  0  0  0  0  0  0  0  0  0  0
    0.8069    2.0850    6.5809 C   0  0  0  0  0  0  0  0  0  0  0  0
   -0.6780    1.3194    7.0711 S   0  0  0  0  0  0  0  0  0  0  0  0
   -1.5171    2.3364    5.9656 C   0  0  0  0  0  0  0  0  0  0  0  0
   -2.7794    2.3203    5.5372 C   0  0  0  0  0  0  0  0  0  0  0  0
   -3.7874    1.3980    6.0750 C   0  0  0  0  0  0  0  0  0  0  0  0
   -4.4145    1.6318    7.2826 C   0  0  0  0  0  0  0  0  0  0  0  0
   -5.3069    0.6736    7.8138 C   0  0  0  0  0  0  0  0  0  0  0  0
   -5.5653   -0.5191    7.0971 C   0  0  0  0  0  0  0  0  0  0  0  0
   -5.0615   -0.6932    5.8062 C   0  0  0  0  0  0  0  0  0  0  0  0
   -5.1310   -2.0114    5.1257 C   0  0  0  0  0  0  0  0  0  0  0  0
   -3.9086   -2.8790    5.4685 C   0  0  0  0  0  0  0  0  0  0  0  0
   -4.1360    0.2630    5.3025 C   0  0  0  0  0  0  0  0  0  0  0  0
   -3.0121    3.0993    4.3534 C   0  0  0  0  0  0  0  0  0  0  0  0
   -1.5668    3.9503    4.0304 S   0  0  0  0  0  0  0  0  0  0  0  0
   -0.6968    3.1282    5.2434 C   0  0  0  0  0  0  0  0  0  0  0  0
    0.6390    2.9460    5.5180 C   0  0  0  0  0  0  0  0  0  0  0  0
    1.7970    3.2209    4.8754 N   0  0  0  0  0  0  0  0  0  0  0  0
    2.7603    2.4454    5.4956 C   0  0  0  0  0  0  0  0  0  0  0  0
    4.0362    2.0029    5.0263 C   0  0  0  0  0  0  0  0  0  0  0  0
    4.6287    2.1663    3.8239 N   0  0  0  0  0  0  0  0  0  0  0  0
    5.4737    1.0941    3.6523 C   0  0  0  0  0  0  0  0  0  0  0  0
    6.0841    0.5804    2.5870 C   0  0  0  0  0  0  0  0  0  0  0  0
    5.8703    0.7827    0.9179 S   0  0  0  0  0  0  0  0  0  0  0  0
    4.9232    3.4247    3.1652 C   0  0  0  0  0  0  0  0  0  0  0  0
    6.4022    3.7704    3.2191 C   0  0  0  0  0  0  0  0  0  0  0  0
    1.8204    4.2421    3.8203 C   0  0  0  0  0  0  0  0  0  0  0  0
    1.7052    3.6349    2.4224 C   0  0  0  0  0  0  0  0  0  0  0  0
   -4.3171    3.1333    3.5468 C   0  0  0  0  0  0  0  0  0  0  0  0
   -5.5809    3.0975    4.2498 C   0  0  0  0  0  0  0  0  0  0  0  0
   -6.8688    2.9410    3.6204 C   0  0  0  0  0  0  0  0  0  0  0  0
   -6.8926    2.8105    2.2356 C   0  0  0  0  0  0  0  0  0  0  0  0
   -5.7212    3.1298    1.4982 C   0  0  0  0  0  0  0  0  0  0  0  0
   -5.5636    3.2416    0.0692 C   0  0  0  0  0  0  0  0  0  0  0  0
   -6.4130    3.0864   -0.9260 C   0  0  0  0  0  0  0  0  0  0  0  0
   -7.3826    3.9152   -1.6229 C   0  0  0  0  0  0  0  0  0  0  0  0
   -8.0300    3.4147   -2.8001 C   0  0  0  0  0  0  0  0  0  0  0  0
   -8.8884    4.3416   -3.4259 C   0  0  0  0  0  0  0  0  0  0  0  0
   -8.8126    5.8016   -2.5612 S   0  0  0  0  0  0  0  0  0  0  0  0
   -7.6908    5.2091   -1.3312 C   0  0  0  0  0  0  0  0  0  0  0  0
   -4.2540    3.7051   -0.0779 C   0  0  0  0  0  0  0  0  0  0  0  0
   -3.8621    4.3212   -1.0930 O   0  0  0  0  0  0  0  0  0  0  0  0
   -3.5014    3.5876    1.0957 N   0  0  0  0  0  0  0  0  0  0  0  0
   -2.0582    3.3350    0.9532 C   0  0  0  0  0  0  0  0  0  0  0  0
   -1.6527    1.8458    1.1342 C   0  0  0  0  0  0  0  0  0  0  0  0
   -4.4611    3.2553    2.1096 C   0  0  0  0  0  0  0  0  0  0  0  0
   -8.1224    2.3222    1.5574 C   0  0  0  0  0  0  0  0  0  0  0  0
   -8.0162    1.1941    0.8349 C   0  0  0  0  0  0  0  0  0  0  0  0
   -6.8208    0.2967    0.8153 C   0  0  0  0  0  0  0  0  0  0  0  0
   -5.9165    0.2369    1.6995 O   0  0  0  0  0  0  0  0  0  0  0  0
   -6.7693   -0.3915   -0.4366 C   0  0  0  0  0  0  0  0  0  0  0  0
   -5.6849   -1.1161   -0.8964 C   0  0  0  0  0  0  0  0  0  0  0  0
   -5.7890   -1.6516   -2.2178 C   0  0  0  0  0  0  0  0  0  0  0  0
   -4.6803   -2.3779   -2.8356 C   0  0  0  0  0  0  0  0  0  0  0  0
   -4.8817   -2.9884   -3.9173 O   0  0  0  0  0  0  0  0  0  0  0  0
   -3.4062   -2.4098   -2.2553 O   0  0  0  0  0  0  0  0  0  0  0  0
   -2.2331   -2.9601   -2.8588 C   0  0  0  0  0  0  0  0  0  0  0  0
   -7.0179   -1.4852   -2.9726 C   0  0  0  0  0  0  0  0  0  0  0  0
   -8.0549   -0.6930   -2.4538 C   0  0  0  0  0  0  0  0  0  0  0  0
   -7.8939   -0.1367   -1.1856 C   0  0  0  0  0  0  0  0  0  0  0  0
   -8.8089    0.8186   -0.4079 C   0  0  0  0  0  0  0  0  0  0  0  0
  -10.0199    1.2916   -0.7680 C   0  0  0  0  0  0  0  0  0  0  0  0
  -10.6318    0.8995   -2.0156 C   0  0  0  0  0  0  0  0  0  0  0  0
  -11.1602    0.5957   -3.0064 N   0  0  0  0  0  0  0  0  0  0  0  0
  -10.8416    2.0858    0.0484 C   0  0  0  0  0  0  0  0  0  0  0  0
  -11.5338    2.7608    0.7899 N   0  0  0  0  0  0  0  0  0  0  0  0
    5.7196   -3.4164   -5.2842 H   0  0  0  0  0  0  0  0  0  0  0  0
    2.4700    1.9406   -4.2988 H   0  0  0  0  0  0  0  0  0  0  0  0
    2.1229   -0.4720   -8.9063 H   0  0  0  0  0  0  0  0  0  0  0  0
    1.1410    2.9032   -8.9957 H   0  0  0  0  0  0  0  0  0  0  0  0
   -1.0423    1.1644   -9.0731 H   0  0  0  0  0  0  0  0  0  0  0  0
   -2.0239    3.6547   -9.3335 H   0  0  0  0  0  0  0  0  0  0  0  0
   -2.0117    4.7879   -6.9447 H   0  0  0  0  0  0  0  0  0  0  0  0
   -0.8591    3.0590   -5.2262 H   0  0  0  0  0  0  0  0  0  0  0  0
   -2.3365    1.3941   -6.7339 H   0  0  0  0  0  0  0  0  0  0  0  0
   -0.6954    0.6670   -6.4367 H   0  0  0  0  0  0  0  0  0  0  0  0
    1.2245    3.9702   -6.8469 H   0  0  0  0  0  0  0  0  0  0  0  0
    7.6589   -1.4542   -4.0424 H   0  0  0  0  0  0  0  0  0  0  0  0
    8.2173   -0.6363   -1.7733 H   0  0  0  0  0  0  0  0  0  0  0  0
    4.7140   -1.7492    1.7123 H   0  0  0  0  0  0  0  0  0  0  0  0
    1.3765   -1.1538    1.1671 H   0  0  0  0  0  0  0  0  0  0  0  0
   -0.4651   -2.4548    2.4895 H   0  0  0  0  0  0  0  0  0  0  0  0
    3.5972   -4.5718    2.6893 H   0  0  0  0  0  0  0  0  0  0  0  0
    1.7953   -3.9525   -3.2039 H   0  0  0  0  0  0  0  0  0  0  0  0
    3.0101   -3.5160   -4.4068 H   0  0  0  0  0  0  0  0  0  0  0  0
    2.7332   -6.0203   -2.7422 H   0  0  0  0  0  0  0  0  0  0  0  0
    3.3396   -5.8275   -4.4072 H   0  0  0  0  0  0  0  0  0  0  0  0
    4.4267   -5.5112   -3.0233 H   0  0  0  0  0  0  0  0  0  0  0  0
    9.1008   -2.2188    0.0066 H   0  0  0  0  0  0  0  0  0  0  0  0
   10.3815   -4.3145    0.1837 H   0  0  0  0  0  0  0  0  0  0  0  0
    9.8893   -5.9105    2.0277 H   0  0  0  0  0  0  0  0  0  0  0  0
    6.9468   -5.5524    4.3453 H   0  0  0  0  0  0  0  0  0  0  0  0
    8.1806   -6.6848    3.7098 H   0  0  0  0  0  0  0  0  0  0  0  0
    8.3775   -4.6451    5.9102 H   0  0  0  0  0  0  0  0  0  0  0  0
    9.3404   -6.1433    5.6510 H   0  0  0  0  0  0  0  0  0  0  0  0
    9.8158   -4.6391    4.8277 H   0  0  0  0  0  0  0  0  0  0  0  0
    6.7102   -3.3604    3.4408 H   0  0  0  0  0  0  0  0  0  0  0  0
   -4.1947    2.5304    7.8184 H   0  0  0  0  0  0  0  0  0  0  0  0
   -5.7438    0.8519    8.8040 H   0  0  0  0  0  0  0  0  0  0  0  0
   -6.2127   -1.2469    7.5529 H   0  0  0  0  0  0  0  0  0  0  0  0
   -5.1701   -1.8521    4.0193 H   0  0  0  0  0  0  0  0  0  0  0  0
   -6.0652   -2.5010    5.4187 H   0  0  0  0  0  0  0  0  0  0  0  0
   -3.0970   -2.6716    4.7329 H   0  0  0  0  0  0  0  0  0  0  0  0
   -4.1983   -3.9464    5.4384 H   0  0  0  0  0  0  0  0  0  0  0  0
   -3.5231   -2.6480    6.4800 H   0  0  0  0  0  0  0  0  0  0  0  0
   -3.6559    0.0823    4.3208 H   0  0  0  0  0  0  0  0  0  0  0  0
    4.4951    4.2274    3.7229 H   0  0  0  0  0  0  0  0  0  0  0  0
    4.5194    3.4189    2.1149 H   0  0  0  0  0  0  0  0  0  0  0  0
    6.7888    3.6325    4.2521 H   0  0  0  0  0  0  0  0  0  0  0  0
    6.5402    4.8718    2.9362 H   0  0  0  0  0  0  0  0  0  0  0  0
    6.9583    3.1656    2.4929 H   0  0  0  0  0  0  0  0  0  0  0  0
    0.9786    4.9611    3.9652 H   0  0  0  0  0  0  0  0  0  0  0  0
    2.6191    4.9947    3.9840 H   0  0  0  0  0  0  0  0  0  0  0  0
    1.9323    4.4269    1.6758 H   0  0  0  0  0  0  0  0  0  0  0  0
    0.6338    3.3292    2.2840 H   0  0  0  0  0  0  0  0  0  0  0  0
    2.3539    2.7561    2.2976 H   0  0  0  0  0  0  0  0  0  0  0  0
   -5.6275    3.1147    5.3406 H   0  0  0  0  0  0  0  0  0  0  0  0
   -7.7444    2.7632    4.2210 H   0  0  0  0  0  0  0  0  0  0  0  0
   -6.4492    2.0672   -1.2935 H   0  0  0  0  0  0  0  0  0  0  0  0
   -7.9393    2.3826   -3.2198 H   0  0  0  0  0  0  0  0  0  0  0  0
   -9.5165    4.1713   -4.3242 H   0  0  0  0  0  0  0  0  0  0  0  0
   -7.3582    5.7439   -0.5109 H   0  0  0  0  0  0  0  0  0  0  0  0
   -1.4827    4.0412    1.5576 H   0  0  0  0  0  0  0  0  0  0  0  0
   -1.6301    3.6903   -0.0140 H   0  0  0  0  0  0  0  0  0  0  0  0
   -0.6117    1.7515    0.8042 H   0  0  0  0  0  0  0  0  0  0  0  0
   -2.3068    1.2139    0.4079 H   0  0  0  0  0  0  0  0  0  0  0  0
   -1.7941    1.5073    2.1682 H   0  0  0  0  0  0  0  0  0  0  0  0
   -8.9396    3.0057    1.4991 H   0  0  0  0  0  0  0  0  0  0  0  0
   -4.7802   -1.2441   -0.3200 H   0  0  0  0  0  0  0  0  0  0  0  0
   -1.7354   -2.1508   -3.4551 H   0  0  0  0  0  0  0  0  0  0  0  0
   -2.5375   -3.8051   -3.4998 H   0  0  0  0  0  0  0  0  0  0  0  0
   -1.5777   -3.3399   -2.0291 H   0  0  0  0  0  0  0  0  0  0  0  0
   -7.1250   -1.8862   -3.9540 H   0  0  0  0  0  0  0  0  0  0  0  0
   -8.9083   -0.5283   -3.0665 H   0  0  0  0  0  0  0  0  0  0  0  0
  1  2  2  3
  2  3  1  0
  3  4  2  0
  3  5  1  0
  5  6  2  0
  6  7  1  0
  7  8  2  0
  8  9  1  0
  9 10  2  0
 10 11  1  0
 11 12  2  3
 12 13  1  0
 13 14  3  0
 12 15  1  0
 15 16  3  0
  8 17  1  0
 17 18  1  0
 18 19  1  0
 19 20  2  0
 20 21  1  0
 21 22  1  0
 21 23  1  0
  1 24  1  0
 24 25  2  0
 25 26  1  0
 26 27  2  0
 27 28  1  0
 28 29  1  0
 29 30  2  3
 30 31  1  0
 31 32  1  0
 32 33  2  0
 33 34  1  0
 34 35  1  0
 29 36  1  0
 36 37  2  0
 36 38  1  0
 38 39  1  0
 39 40  1  0
 38 41  1  0
 27 42  1  0
 42 43  2  0
 43 44  1  0
 44 45  2  0
 45 46  1  0
 46 47  2  0
 47 48  1  0
 48 49  1  0
 49 50  1  0
 48 51  2  0
 43 52  1  0
 52 53  1  0
 53 54  1  0
 54 55  1  0
 55 56  1  0
 56 57  1  0
 57 58  2  0
 58 59  1  0
 59 60  1  0
 57 61  1  0
 61 62  1  0
 62 63  1  0
 63 64  1  0
 64 65  1  0
 65 66  1  0
 66 67  2  0
 67 68  1  0
 68 69  2  0
 69 70  1  0
 70 71  1  0
 71 72  1  0
 70 73  2  0
 65 74  2  0
 74 75  1  0
 75 76  1  0
 76 77  1  0
 77 78  1  0
 78 79  1  0
 79 80  1  0
 80 81  1  0
 81 82  1  0
 82 83  1  0
 83 84  1  0
 81 85  1  0
 85 86  1  0
 78 87  1  0
 87 88  1  0
 74 89  1  0
 89 90  2  0
 90 91  1  0
 91 92  2  0
 92 93  1  0
 93 94  1  0
 94 95  2  3
 95 96  1  0
 96 97  1  0
 97 98  2  0
 98 99  1  0
 99100  1  0
 94101  1  0
101102  2  0
101103  1  0
103104  1  0
104105  1  0
103106  1  0
 92107  1  0
107108  2  3
108109  1  0
109110  2  0
109111  1  0
111112  2  0
112113  1  0
113114  1  0
114115  2  0
114116  1  0
116117  1  0
113118  2  0
118119  1  0
119120  2  0
120121  1  0
121122  2  3
122123  1  0
123124  3  0
122125  1  0
125126  3  0
 11  2  1  0
 23 17  1  0
 41 24  1  0
 84 42  1  0
106 89  1  0
121108  1  0
 10  5  1  0
 22 18  1  0
 41 28  2  0
 51 44  1  0
 83 52  2  0
106 93  2  0
120111  1  0
 23  7  1  0
 35 31  2  0
 82 54  2  0
100 96  2  0
 80 55  2  0
 60 56  2  0
 79 61  2  0
 77 62  2  0
 76 64  2  0
 73 66  1  0
  1127  1  0
  6128  1  0
  9129  1  0
 17130  1  0
 18131  1  0
 19132  1  0
 20133  1  0
 21134  1  0
 22135  1  0
 22136  1  0
 23137  1  0
 25138  1  0
 26139  1  0
 30140  1  0
 32141  1  0
 33142  1  0
 35143  1  0
 39144  1  0
 39145  1  0
 40146  1  0
 40147  1  0
 40148  1  0
 45149  1  0
 46150  1  0
 47151  1  0
 49152  1  0
 49153  1  0
 50154  1  0
 50155  1  0
 50156  1  0
 51157  1  0
 67158  1  0
 68159  1  0
 69160  1  0
 71161  1  0
 71162  1  0
 72163  1  0
 72164  1  0
 72165  1  0
 73166  1  0
 85167  1  0
 85168  1  0
 86169  1  0
 86170  1  0
 86171  1  0
 87172  1  0
 87173  1  0
 88174  1  0
 88175  1  0
 88176  1  0
 90177  1  0
 91178  1  0
 95179  1  0
 97180  1  0
 98181  1  0
100182  1  0
104183  1  0
104184  1  0
105185  1  0
105186  1  0
105187  1  0
107188  1  0
112189  1  0
117190  1  0
117191  1  0
117192  1  0
118193  1  0
119194  1  0
M  END

