
     RDKit          3D

243272  0  0  0  0  0  0  0  0999 V2000
    4.8035   -2.8443    4.4864 C   0  0  0  0  0  0  0  0  0  0  0  0
    5.6636   -3.4001    3.6110 C   0  0  0  0  0  0  0  0  0  0  0  0
    5.9761   -2.8103    2.3023 C   0  0  0  0  0  0  0  0  0  0  0  0
    5.3879   -1.8367    1.7709 O   0  0  0  0  0  0  0  0  0  0  0  0
    6.9514   -3.6478    1.6427 C   0  0  0  0  0  0  0  0  0  0  0  0
    7.4635   -3.4850    0.3358 C   0  0  0  0  0  0  0  0  0  0  0  0
    8.3491   -4.4675   -0.0489 C   0  0  0  0  0  0  0  0  0  0  0  0
    8.7136   -5.5727    0.7924 C   0  0  0  0  0  0  0  0  0  0  0  0
    8.2067   -5.7418    2.0732 C   0  0  0  0  0  0  0  0  0  0  0  0
    7.2995   -4.7264    2.4960 C   0  0  0  0  0  0  0  0  0  0  0  0
    6.5587   -4.5897    3.7810 C   0  0  0  0  0  0  0  0  0  0  0  0
    6.8880   -5.1840    4.9547 C   0  0  0  0  0  0  0  0  0  0  0  0
    6.1922   -4.9113    6.1873 C   0  0  0  0  0  0  0  0  0  0  0  0
    5.6617   -4.6459    7.1814 N   0  0  0  0  0  0  0  0  0  0  0  0
    8.1557   -5.8437    5.1376 C   0  0  0  0  0  0  0  0  0  0  0  0
    9.1824   -6.3364    5.3352 N   0  0  0  0  0  0  0  0  0  0  0  0
    9.6127   -6.1073   -0.2801 C   0  0  0  0  0  0  0  0  0  0  0  0
   11.1400   -5.8982   -0.0800 C   0  0  0  0  0  0  0  0  0  0  0  0
   11.7719   -6.1505   -1.4286 C   0  0  0  0  0  0  0  0  0  0  0  0
   11.4195   -5.1251   -2.2133 C   0  0  0  0  0  0  0  0  0  0  0  0
   10.5676   -4.2162   -1.3670 C   0  0  0  0  0  0  0  0  0  0  0  0
   11.2856   -4.3862   -0.0402 C   0  0  0  0  0  0  0  0  0  0  0  0
    9.2317   -4.9842   -1.1396 C   0  0  0  0  0  0  0  0  0  0  0  0
    4.6051   -1.3931    4.5063 C   0  0  0  0  0  0  0  0  0  0  0  0
    3.4456   -0.7029    4.1666 C   0  0  0  0  0  0  0  0  0  0  0  0
    3.6773    0.6782    4.0121 C   0  0  0  0  0  0  0  0  0  0  0  0
    2.7647    1.6213    3.5028 C   0  0  0  0  0  0  0  0  0  0  0  0
    1.3689    1.2972    3.1634 C   0  0  0  0  0  0  0  0  0  0  0  0
    0.9808    1.1913    1.8200 C   0  0  0  0  0  0  0  0  0  0  0  0
   -0.3726    1.0841    1.4864 C   0  0  0  0  0  0  0  0  0  0  0  0
   -1.3381    1.0980    2.4925 C   0  0  0  0  0  0  0  0  0  0  0  0
   -0.9569    1.1786    3.8357 C   0  0  0  0  0  0  0  0  0  0  0  0
   -2.2016    1.1861    5.1235 S   0  0  0  0  0  0  0  0  0  0  0  0
   -2.2914    3.0059    5.2670 C   0  0  0  0  0  0  0  0  0  0  0  0
   -3.1781    3.5954    4.1781 C   0  0  0  0  0  0  0  0  0  0  0  0
    0.3976    1.2701    4.1730 C   0  0  0  0  0  0  0  0  0  0  0  0
    3.2650    2.9081    3.2420 C   0  0  0  0  0  0  0  0  0  0  0  0
    4.5957    3.2743    3.4709 C   0  0  0  0  0  0  0  0  0  0  0  0
    5.4926    2.3469    4.0268 C   0  0  0  0  0  0  0  0  0  0  0  0
    6.9178    2.6821    4.1593 C   0  0  0  0  0  0  0  0  0  0  0  0
    7.4280    3.1852    5.3658 C   0  0  0  0  0  0  0  0  0  0  0  0
    8.7397    3.6589    5.4309 C   0  0  0  0  0  0  0  0  0  0  0  0
    9.5497    3.6312    4.2908 C   0  0  0  0  0  0  0  0  0  0  0  0
    9.0455    3.1308    3.0857 C   0  0  0  0  0  0  0  0  0  0  0  0
   10.0255    3.2231    1.5849 S   0  0  0  0  0  0  0  0  0  0  0  0
    9.5124    4.9299    1.1558 C   0  0  0  0  0  0  0  0  0  0  0  0
    8.7323    4.9318   -0.1494 C   0  0  0  0  0  0  0  0  0  0  0  0
    7.7404    2.6458    3.0256 C   0  0  0  0  0  0  0  0  0  0  0  0
    5.0039    1.0536    4.2665 C   0  0  0  0  0  0  0  0  0  0  0  0
    5.8935   -0.3059    4.6580 S   0  0  0  0  0  0  0  0  0  0  0  0
    4.9334    4.5336    2.9605 C   0  0  0  0  0  0  0  0  0  0  0  0
    3.8626    5.1512    2.3353 C   0  0  0  0  0  0  0  0  0  0  0  0
    2.5051    4.1574    2.4236 S   0  0  0  0  0  0  0  0  0  0  0  0
    3.9413    6.2823    1.4174 C   0  0  0  0  0  0  0  0  0  0  0  0
    3.6998    7.6100    1.7967 C   0  0  0  0  0  0  0  0  0  0  0  0
    3.8994    8.0958    3.1763 C   0  0  0  0  0  0  0  0  0  0  0  0
    5.1750    8.0108    3.7577 C   0  0  0  0  0  0  0  0  0  0  0  0
    5.3775    8.4164    5.0791 C   0  0  0  0  0  0  0  0  0  0  0  0
    4.3061    8.8926    5.8325 C   0  0  0  0  0  0  0  0  0  0  0  0
    3.0254    8.9763    5.2669 C   0  0  0  0  0  0  0  0  0  0  0  0
    1.8580    9.4069    6.1169 C   0  0  0  0  0  0  0  0  0  0  0  0
    1.3736    8.2572    6.9966 C   0  0  0  0  0  0  0  0  0  0  0  0
    2.8271    8.5733    3.9341 C   0  0  0  0  0  0  0  0  0  0  0  0
    3.1225    8.3396    0.7471 C   0  0  0  0  0  0  0  0  0  0  0  0
    2.1647    9.7369    0.7564 S   0  0  0  0  0  0  0  0  0  0  0  0
    1.5268    9.3981   -0.7884 C   0  0  0  0  0  0  0  0  0  0  0  0
    0.2667    9.5692   -1.3020 C   0  0  0  0  0  0  0  0  0  0  0  0
   -0.8051   10.2790   -0.7307 C   0  0  0  0  0  0  0  0  0  0  0  0
   -2.1350    9.9218   -1.0840 C   0  0  0  0  0  0  0  0  0  0  0  0
   -3.1389   10.5511   -0.4264 N   0  0  0  0  0  0  0  0  0  0  0  0
   -2.2534   11.5196    0.5788 S   0  0  0  0  0  0  0  0  0  0  0  0
   -0.6642   11.2081    0.2477 N   0  0  0  0  0  0  0  0  0  0  0  0
   -2.3331    8.9372   -2.0530 C   0  0  0  0  0  0  0  0  0  0  0  0
   -3.4621    8.2707   -2.4455 C   0  0  0  0  0  0  0  0  0  0  0  0
   -4.9239    7.8906   -1.6637 S   0  0  0  0  0  0  0  0  0  0  0  0
   -5.0063    6.3769   -2.4461 C   0  0  0  0  0  0  0  0  0  0  0  0
   -5.7280    5.2175   -2.1558 C   0  0  0  0  0  0  0  0  0  0  0  0
   -6.9707    5.1803   -1.3601 C   0  0  0  0  0  0  0  0  0  0  0  0
   -7.0157    5.7291   -0.0724 C   0  0  0  0  0  0  0  0  0  0  0  0
   -8.2212    5.7639    0.6356 C   0  0  0  0  0  0  0  0  0  0  0  0
   -9.3868    5.2532    0.0557 C   0  0  0  0  0  0  0  0  0  0  0  0
   -9.3512    4.6988   -1.2321 C   0  0  0  0  0  0  0  0  0  0  0  0
  -10.6145    4.1637   -1.8634 C   0  0  0  0  0  0  0  0  0  0  0  0
  -11.0217    2.8350   -1.2364 C   0  0  0  0  0  0  0  0  0  0  0  0
   -8.1395    4.6573   -1.9311 C   0  0  0  0  0  0  0  0  0  0  0  0
   -5.1160    4.0933   -2.7338 C   0  0  0  0  0  0  0  0  0  0  0  0
   -3.7071    4.5644   -3.5677 S   0  0  0  0  0  0  0  0  0  0  0  0
   -3.9151    6.1928   -3.2531 C   0  0  0  0  0  0  0  0  0  0  0  0
   -3.0525    7.2762   -3.2727 C   0  0  0  0  0  0  0  0  0  0  0  0
   -1.7201    7.2886   -3.4983 N   0  0  0  0  0  0  0  0  0  0  0  0
   -1.2613    8.2773   -2.6774 C   0  0  0  0  0  0  0  0  0  0  0  0
    0.0563    8.5023   -2.1955 C   0  0  0  0  0  0  0  0  0  0  0  0
    1.1057    7.6169   -2.1274 N   0  0  0  0  0  0  0  0  0  0  0  0
    1.9936    8.2117   -1.2841 C   0  0  0  0  0  0  0  0  0  0  0  0
    2.9247    7.6382   -0.4173 C   0  0  0  0  0  0  0  0  0  0  0  0
    3.4527    6.0687   -0.1921 S   0  0  0  0  0  0  0  0  0  0  0  0
    1.0579    6.1625   -2.3713 C   0  0  0  0  0  0  0  0  0  0  0  0
    0.2305    5.4419   -1.3073 C   0  0  0  0  0  0  0  0  0  0  0  0
   -1.1073    6.8541   -4.7667 C   0  0  0  0  0  0  0  0  0  0  0  0
   -1.8897    7.3807   -5.9750 C   0  0  0  0  0  0  0  0  0  0  0  0
   -5.4125    2.6992   -2.4249 C   0  0  0  0  0  0  0  0  0  0  0  0
   -6.2546    1.8811   -3.1717 C   0  0  0  0  0  0  0  0  0  0  0  0
   -6.1218    0.5257   -2.8458 C   0  0  0  0  0  0  0  0  0  0  0  0
   -6.7844   -0.5405   -3.4731 C   0  0  0  0  0  0  0  0  0  0  0  0
   -7.9612   -0.3423   -4.3296 C   0  0  0  0  0  0  0  0  0  0  0  0
   -7.9488   -0.7190   -5.6806 C   0  0  0  0  0  0  0  0  0  0  0  0
   -9.1451   -0.7753   -6.3999 C   0  0  0  0  0  0  0  0  0  0  0  0
  -10.3648   -0.5168   -5.7608 C   0  0  0  0  0  0  0  0  0  0  0  0
  -10.3772   -0.1569   -4.4087 C   0  0  0  0  0  0  0  0  0  0  0  0
  -11.9232   -0.0513   -3.5100 S   0  0  0  0  0  0  0  0  0  0  0  0
  -12.0210   -1.8503   -3.1599 C   0  0  0  0  0  0  0  0  0  0  0  0
  -11.0931   -2.2690   -2.0211 C   0  0  0  0  0  0  0  0  0  0  0  0
   -9.1732   -0.0134   -3.7171 C   0  0  0  0  0  0  0  0  0  0  0  0
   -6.4123   -1.8351   -3.0882 C   0  0  0  0  0  0  0  0  0  0  0  0
   -5.4794   -2.0836   -2.0831 C   0  0  0  0  0  0  0  0  0  0  0  0
   -4.8637   -1.0199   -1.4003 C   0  0  0  0  0  0  0  0  0  0  0  0
   -3.9781   -1.2602   -0.2416 C   0  0  0  0  0  0  0  0  0  0  0  0
   -4.4373   -0.9839    1.0533 C   0  0  0  0  0  0  0  0  0  0  0  0
   -3.6728   -1.3454    2.1672 C   0  0  0  0  0  0  0  0  0  0  0  0
   -2.4288   -1.9527    1.9935 C   0  0  0  0  0  0  0  0  0  0  0  0
   -1.9559   -2.2173    0.7024 C   0  0  0  0  0  0  0  0  0  0  0  0
   -0.3564   -2.9965    0.4751 S   0  0  0  0  0  0  0  0  0  0  0  0
   -1.0090   -4.6970    0.3054 C   0  0  0  0  0  0  0  0  0  0  0  0
   -1.4097   -5.2722    1.6585 C   0  0  0  0  0  0  0  0  0  0  0  0
   -2.7283   -1.8771   -0.4117 C   0  0  0  0  0  0  0  0  0  0  0  0
   -5.1879    0.2810   -1.8313 C   0  0  0  0  0  0  0  0  0  0  0  0
   -4.5149    1.7437   -1.3561 S   0  0  0  0  0  0  0  0  0  0  0  0
   -5.2735   -3.4631   -1.8599 C   0  0  0  0  0  0  0  0  0  0  0  0
   -6.0209   -4.2632   -2.7276 C   0  0  0  0  0  0  0  0  0  0  0  0
   -6.9881   -3.2861   -3.6923 S   0  0  0  0  0  0  0  0  0  0  0  0
   -6.0313   -5.7245   -2.8276 C   0  0  0  0  0  0  0  0  0  0  0  0
   -4.9440   -6.4966   -3.0255 C   0  0  0  0  0  0  0  0  0  0  0  0
   -3.5345   -6.0889   -2.9245 C   0  0  0  0  0  0  0  0  0  0  0  0
   -3.0835   -4.9151   -2.8645 O   0  0  0  0  0  0  0  0  0  0  0  0
   -2.7218   -7.2904   -2.8592 C   0  0  0  0  0  0  0  0  0  0  0  0
   -1.3389   -7.3883   -2.5825 C   0  0  0  0  0  0  0  0  0  0  0  0
   -0.8918   -8.6831   -2.4026 C   0  0  0  0  0  0  0  0  0  0  0  0
   -1.7503   -9.8300   -2.4741 C   0  0  0  0  0  0  0  0  0  0  0  0
   -3.0982   -9.7411   -2.7743 C   0  0  0  0  0  0  0  0  0  0  0  0
   -3.5651   -8.4187   -3.0053 C   0  0  0  0  0  0  0  0  0  0  0  0
   -4.9402   -7.9619   -3.2906 C   0  0  0  0  0  0  0  0  0  0  0  0
   -5.8461   -8.6311   -4.0404 C   0  0  0  0  0  0  0  0  0  0  0  0
   -6.9996   -7.9715   -4.5844 C   0  0  0  0  0  0  0  0  0  0  0  0
   -7.9151   -7.4331   -5.0436 N   0  0  0  0  0  0  0  0  0  0  0  0
   -5.4907   -9.8594   -4.7080 C   0  0  0  0  0  0  0  0  0  0  0  0
   -5.2100  -10.8301   -5.2728 N   0  0  0  0  0  0  0  0  0  0  0  0
   -0.6137  -10.7339   -2.0998 C   0  0  0  0  0  0  0  0  0  0  0  0
   -0.0114  -11.6126   -3.2340 C   0  0  0  0  0  0  0  0  0  0  0  0
    1.3375  -12.0760   -2.7379 C   0  0  0  0  0  0  0  0  0  0  0  0
    2.1336  -11.0057   -2.7355 C   0  0  0  0  0  0  0  0  0  0  0  0
    1.2966   -9.8505   -3.2119 C   0  0  0  0  0  0  0  0  0  0  0  0
    0.4561  -10.5834   -4.2441 C   0  0  0  0  0  0  0  0  0  0  0  0
    0.2734   -9.5641   -2.0642 C   0  0  0  0  0  0  0  0  0  0  0  0
    4.4089   -3.4045    5.3188 H   0  0  0  0  0  0  0  0  0  0  0  0
    7.1826   -2.6669   -0.3150 H   0  0  0  0  0  0  0  0  0  0  0  0
    8.4640   -6.6147    2.6605 H   0  0  0  0  0  0  0  0  0  0  0  0
    9.3135   -7.1052   -0.6561 H   0  0  0  0  0  0  0  0  0  0  0  0
   11.6026   -6.4490    0.7613 H   0  0  0  0  0  0  0  0  0  0  0  0
   12.4718   -6.9418   -1.6981 H   0  0  0  0  0  0  0  0  0  0  0  0
   11.7821   -4.9345   -3.2198 H   0  0  0  0  0  0  0  0  0  0  0  0
   10.4674   -3.1657   -1.7279 H   0  0  0  0  0  0  0  0  0  0  0  0
   12.3493   -4.0461   -0.0654 H   0  0  0  0  0  0  0  0  0  0  0  0
   10.7679   -3.9073    0.8212 H   0  0  0  0  0  0  0  0  0  0  0  0
    8.6802   -5.2816   -2.0578 H   0  0  0  0  0  0  0  0  0  0  0  0
    2.5039   -1.1882    3.9479 H   0  0  0  0  0  0  0  0  0  0  0  0
    1.7223    1.2323    1.0331 H   0  0  0  0  0  0  0  0  0  0  0  0
   -0.6729    1.0093    0.4530 H   0  0  0  0  0  0  0  0  0  0  0  0
   -2.3869    1.0684    2.2254 H   0  0  0  0  0  0  0  0  0  0  0  0
   -2.7303    3.2505    6.2576 H   0  0  0  0  0  0  0  0  0  0  0  0
   -1.2781    3.4522    5.2215 H   0  0  0  0  0  0  0  0  0  0  0  0
   -2.6959    3.4903    3.1866 H   0  0  0  0  0  0  0  0  0  0  0  0
   -3.3321    4.6767    4.3774 H   0  0  0  0  0  0  0  0  0  0  0  0
   -4.1665    3.0898    4.1641 H   0  0  0  0  0  0  0  0  0  0  0  0
    0.6875    1.3726    5.2094 H   0  0  0  0  0  0  0  0  0  0  0  0
    6.7986    3.2451    6.2496 H   0  0  0  0  0  0  0  0  0  0  0  0
    9.1218    4.0738    6.3576 H   0  0  0  0  0  0  0  0  0  0  0  0
   10.5562    4.0260    4.3383 H   0  0  0  0  0  0  0  0  0  0  0  0
    8.8906    5.3909    1.9539 H   0  0  0  0  0  0  0  0  0  0  0  0
   10.4263    5.5523    1.0387 H   0  0  0  0  0  0  0  0  0  0  0  0
    7.8013    4.3325   -0.0475 H   0  0  0  0  0  0  0  0  0  0  0  0
    8.4644    5.9746   -0.4220 H   0  0  0  0  0  0  0  0  0  0  0  0
    9.3566    4.5130   -0.9675 H   0  0  0  0  0  0  0  0  0  0  0  0
    7.3352    2.2981    2.0838 H   0  0  0  0  0  0  0  0  0  0  0  0
    5.9355    4.9404    2.9607 H   0  0  0  0  0  0  0  0  0  0  0  0
    6.0140    7.6260    3.1838 H   0  0  0  0  0  0  0  0  0  0  0  0
    6.3664    8.3414    5.5160 H   0  0  0  0  0  0  0  0  0  0  0  0
    4.4771    9.1954    6.8585 H   0  0  0  0  0  0  0  0  0  0  0  0
    2.1542   10.2644    6.7631 H   0  0  0  0  0  0  0  0  0  0  0  0
    1.0186    9.7528    5.4737 H   0  0  0  0  0  0  0  0  0  0  0  0
    0.4375    8.5498    7.5096 H   0  0  0  0  0  0  0  0  0  0  0  0
    2.1393    8.0122    7.7603 H   0  0  0  0  0  0  0  0  0  0  0  0
    1.1786    7.3569    6.3813 H   0  0  0  0  0  0  0  0  0  0  0  0
    1.8334    8.6031    3.5085 H   0  0  0  0  0  0  0  0  0  0  0  0
   -6.1216    6.1290    0.3879 H   0  0  0  0  0  0  0  0  0  0  0  0
   -8.2519    6.1816    1.6336 H   0  0  0  0  0  0  0  0  0  0  0  0
  -10.3196    5.2978    0.6110 H   0  0  0  0  0  0  0  0  0  0  0  0
  -11.4352    4.9019   -1.7346 H   0  0  0  0  0  0  0  0  0  0  0  0
  -10.4713    4.0134   -2.9547 H   0  0  0  0  0  0  0  0  0  0  0  0
  -11.2641    2.9744   -0.1634 H   0  0  0  0  0  0  0  0  0  0  0  0
  -10.1981    2.0946   -1.3324 H   0  0  0  0  0  0  0  0  0  0  0  0
  -11.9282    2.4447   -1.7477 H   0  0  0  0  0  0  0  0  0  0  0  0
   -8.1074    4.2548   -2.9364 H   0  0  0  0  0  0  0  0  0  0  0  0
    2.0834    5.7444   -2.4060 H   0  0  0  0  0  0  0  0  0  0  0  0
    0.6740    5.9117   -3.3618 H   0  0  0  0  0  0  0  0  0  0  0  0
    0.3313    4.3454   -1.4439 H   0  0  0  0  0  0  0  0  0  0  0  0
    0.5718    5.7043   -0.2844 H   0  0  0  0  0  0  0  0  0  0  0  0
   -0.8420    5.7075   -1.4001 H   0  0  0  0  0  0  0  0  0  0  0  0
   -0.0793    7.2517   -4.8571 H   0  0  0  0  0  0  0  0  0  0  0  0
   -1.0895    5.7414   -4.8170 H   0  0  0  0  0  0  0  0  0  0  0  0
   -2.9034    6.9334   -6.0164 H   0  0  0  0  0  0  0  0  0  0  0  0
   -1.3492    7.1058   -6.9071 H   0  0  0  0  0  0  0  0  0  0  0  0
   -1.9765    8.4884   -5.9258 H   0  0  0  0  0  0  0  0  0  0  0  0
   -6.8684    2.2452   -3.9852 H   0  0  0  0  0  0  0  0  0  0  0  0
   -7.0245   -1.0119   -6.1616 H   0  0  0  0  0  0  0  0  0  0  0  0
   -9.1403   -1.0795   -7.4386 H   0  0  0  0  0  0  0  0  0  0  0  0
  -11.2919   -0.6458   -6.2992 H   0  0  0  0  0  0  0  0  0  0  0  0
  -11.7823   -2.4376   -4.0730 H   0  0  0  0  0  0  0  0  0  0  0  0
  -13.0671   -2.0861   -2.8649 H   0  0  0  0  0  0  0  0  0  0  0  0
  -11.1988   -3.3614   -1.8386 H   0  0  0  0  0  0  0  0  0  0  0  0
  -10.0307   -2.0729   -2.2718 H   0  0  0  0  0  0  0  0  0  0  0  0
  -11.3592   -1.7257   -1.0883 H   0  0  0  0  0  0  0  0  0  0  0  0
   -9.1920    0.2315   -2.6627 H   0  0  0  0  0  0  0  0  0  0  0  0
   -5.4118   -0.5302    1.1990 H   0  0  0  0  0  0  0  0  0  0  0  0
   -4.0419   -1.1400    3.1653 H   0  0  0  0  0  0  0  0  0  0  0  0
   -1.8340   -2.2124    2.8581 H   0  0  0  0  0  0  0  0  0  0  0  0
   -0.2078   -5.3334   -0.1308 H   0  0  0  0  0  0  0  0  0  0  0  0
   -1.8756   -4.7133   -0.3882 H   0  0  0  0  0  0  0  0  0  0  0  0
   -1.6691   -6.3450    1.5430 H   0  0  0  0  0  0  0  0  0  0  0  0
   -2.2977   -4.7393    2.0576 H   0  0  0  0  0  0  0  0  0  0  0  0
   -0.5684   -5.1807    2.3795 H   0  0  0  0  0  0  0  0  0  0  0  0
   -2.3733   -2.1145   -1.4073 H   0  0  0  0  0  0  0  0  0  0  0  0
   -4.6195   -3.8639   -1.1021 H   0  0  0  0  0  0  0  0  0  0  0  0
   -7.0149   -6.1705   -2.8421 H   0  0  0  0  0  0  0  0  0  0  0  0
   -0.6982   -6.5242   -2.4513 H   0  0  0  0  0  0  0  0  0  0  0  0
   -3.7370  -10.6111   -2.8044 H   0  0  0  0  0  0  0  0  0  0  0  0
   -0.7446  -11.2357   -1.1169 H   0  0  0  0  0  0  0  0  0  0  0  0
   -0.6705  -12.4168   -3.6225 H   0  0  0  0  0  0  0  0  0  0  0  0
    1.6464  -13.0961   -2.5264 H   0  0  0  0  0  0  0  0  0  0  0  0
    3.1937  -10.9983   -2.5091 H   0  0  0  0  0  0  0  0  0  0  0  0
    1.8621   -8.9663   -3.5789 H   0  0  0  0  0  0  0  0  0  0  0  0
   -0.3632   -9.9773   -4.6824 H   0  0  0  0  0  0  0  0  0  0  0  0
    1.0613  -11.0236   -5.0733 H   0  0  0  0  0  0  0  0  0  0  0  0
    0.7110   -9.3562   -1.0631 H   0  0  0  0  0  0  0  0  0  0  0  0
  1  2  2  3
  2  3  1  0
  3  4  2  0
  3  5  1  0
  5  6  2  0
  6  7  1  0
  7  8  2  0
  8  9  1  0
  9 10  2  0
 10 11  1  0
 11 12  2  3
 12 13  1  0
 13 14  3  0
 12 15  1  0
 15 16  3  0
  8 17  1  0
 17 18  1  0
 18 19  1  0
 19 20  2  0
 20 21  1  0
 21 22  1  0
 21 23  1  0
  1 24  1  0
 24 25  2  0
 25 26  1  0
 26 27  2  0
 27 28  1  0
 28 29  2  0
 29 30  1  0
 30 31  2  0
 31 32  1  0
 32 33  1  0
 33 34  1  0
 34 35  1  0
 32 36  2  0
 27 37  1  0
 37 38  2  0
 38 39  1  0
 39 40  1  0
 40 41  2  0
 41 42  1  0
 42 43  2  0
 43 44  1  0
 44 45  1  0
 45 46  1  0
 46 47  1  0
 44 48  2  0
 39 49  2  0
 49 50  1  0
 38 51  1  0
 51 52  2  0
 52 53  1  0
 52 54  1  0
 54 55  2  0
 55 56  1  0
 56 57  2  0
 57 58  1  0
 58 59  2  0
 59 60  1  0
 60 61  1  0
 61 62  1  0
 60 63  2  0
 55 64  1  0
 64 65  1  0
 65 66  1  0
 66 67  1  0
 67 68  1  0
 68 69  1  0
 69 70  2  0
 70 71  1  0
 71 72  1  0
 69 73  1  0
 73 74  1  0
 74 75  1  0
 75 76  1  0
 76 77  1  0
 77 78  1  0
 78 79  2  0
 79 80  1  0
 80 81  2  0
 81 82  1  0
 82 83  1  0
 83 84  1  0
 82 85  2  0
 77 86  2  0
 86 87  1  0
 87 88  1  0
 88 89  1  0
 89 90  1  0
 90 91  1  0
 91 92  1  0
 92 93  1  0
 93 94  1  0
 94 95  1  0
 95 96  1  0
 93 97  1  0
 97 98  1  0
 90 99  1  0
 99100  1  0
 86101  1  0
101102  2  0
102103  1  0
103104  2  0
104105  1  0
105106  2  0
106107  1  0
107108  2  0
108109  1  0
109110  1  0
110111  1  0
111112  1  0
109113  2  0
104114  1  0
114115  2  0
115116  1  0
116117  1  0
117118  2  0
118119  1  0
119120  2  0
120121  1  0
121122  1  0
122123  1  0
123124  1  0
121125  2  0
116126  2  0
126127  1  0
115128  1  0
128129  2  0
129130  1  0
129131  1  0
131132  2  3
132133  1  0
133134  2  0
133135  1  0
135136  2  0
136137  1  0
137138  2  0
138139  1  0
139140  2  0
140141  1  0
141142  2  3
142143  1  0
143144  3  0
142145  1  0
145146  3  0
138147  1  0
147148  1  0
148149  1  0
149150  2  0
150151  1  0
151152  1  0
151153  1  0
 11  2  1  0
 23 17  1  0
 50 24  1  0
 96 54  1  0
127101  1  0
141132  1  0
153147  1  0
 10  5  1  0
 22 18  1  0
 49 26  1  0
 63 56  1  0
 95 64  2  0
126103  1  0
140135  1  0
152148  1  0
 23  7  1  0
 36 28  1  0
 53 37  1  0
 94 66  2  0
113105  1  0
130114  1  0
153137  1  0
 48 40  1  0
 92 67  2  0
125117  1  0
 72 68  2  0
 91 73  2  0
 89 74  2  0
 88 76  2  0
 85 78  1  0
  1154  1  0
  6155  1  0
  9156  1  0
 17157  1  0
 18158  1  0
 19159  1  0
 20160  1  0
 21161  1  0
 22162  1  0
 22163  1  0
 23164  1  0
 25165  1  0
 29166  1  0
 30167  1  0
 31168  1  0
 34169  1  0
 34170  1  0
 35171  1  0
 35172  1  0
 35173  1  0
 36174  1  0
 41175  1  0
 42176  1  0
 43177  1  0
 46178  1  0
 46179  1  0
 47180  1  0
 47181  1  0
 47182  1  0
 48183  1  0
 51184  1  0
 57185  1  0
 58186  1  0
 59187  1  0
 61188  1  0
 61189  1  0
 62190  1  0
 62191  1  0
 62192  1  0
 63193  1  0
 79194  1  0
 80195  1  0
 81196  1  0
 83197  1  0
 83198  1  0
 84199  1  0
 84200  1  0
 84201  1  0
 85202  1  0
 97203  1  0
 97204  1  0
 98205  1  0
 98206  1  0
 98207  1  0
 99208  1  0
 99209  1  0
100210  1  0
100211  1  0
100212  1  0
102213  1  0
106214  1  0
107215  1  0
108216  1  0
111217  1  0
111218  1  0
112219  1  0
112220  1  0
112221  1  0
113222  1  0
118223  1  0
119224  1  0
120225  1  0
123226  1  0
123227  1  0
124228  1  0
124229  1  0
124230  1  0
125231  1  0
128232  1  0
131233  1  0
136234  1  0
139235  1  0
147236  1  0
148237  1  0
149238  1  0
150239  1  0
151240  1  0
152241  1  0
152242  1  0
153243  1  0
M  END

