
     RDKit          3D

251281  0  0  0  0  0  0  0  0999 V2000
    4.5410   -5.8273   13.7739 C   0  0  0  0  0  0  0  0  0  0  0  0
    5.5243   -5.1510   13.1475 C   0  0  0  0  0  0  0  0  0  0  0  0
    5.4729   -4.5846   11.7840 C   0  0  0  0  0  0  0  0  0  0  0  0
    4.5081   -4.6105   10.9601 O   0  0  0  0  0  0  0  0  0  0  0  0
    6.6962   -3.8830   11.5328 C   0  0  0  0  0  0  0  0  0  0  0  0
    6.9495   -3.0503   10.4169 C   0  0  0  0  0  0  0  0  0  0  0  0
    8.1222   -2.3442   10.5356 C   0  0  0  0  0  0  0  0  0  0  0  0
    8.9991   -2.4409   11.6770 C   0  0  0  0  0  0  0  0  0  0  0  0
    8.7577   -3.2708   12.7774 C   0  0  0  0  0  0  0  0  0  0  0  0
    7.5283   -3.9890   12.6668 C   0  0  0  0  0  0  0  0  0  0  0  0
    6.8273   -4.7389   13.7586 C   0  0  0  0  0  0  0  0  0  0  0  0
    6.8900   -4.2779   15.0258 C   0  0  0  0  0  0  0  0  0  0  0  0
    6.8028   -2.8477   15.1780 C   0  0  0  0  0  0  0  0  0  0  0  0
    6.8390   -1.6802   15.1063 N   0  0  0  0  0  0  0  0  0  0  0  0
    7.9046   -4.8636   15.8767 C   0  0  0  0  0  0  0  0  0  0  0  0
    8.7556   -5.2900   16.5394 N   0  0  0  0  0  0  0  0  0  0  0  0
    9.7923   -1.2721   11.1676 C   0  0  0  0  0  0  0  0  0  0  0  0
    9.5916    0.1086   11.8983 C   0  0  0  0  0  0  0  0  0  0  0  0
   10.1671    1.1640   10.9714 C   0  0  0  0  0  0  0  0  0  0  0  0
    9.3276    1.2370    9.9214 C   0  0  0  0  0  0  0  0  0  0  0  0
    8.2260    0.2270   10.1794 C   0  0  0  0  0  0  0  0  0  0  0  0
    8.1083    0.4059   11.6927 C   0  0  0  0  0  0  0  0  0  0  0  0
    8.8920   -1.1808   10.0142 C   0  0  0  0  0  0  0  0  0  0  0  0
    3.1865   -5.9268   13.2250 C   0  0  0  0  0  0  0  0  0  0  0  0
    2.8685   -6.6552   12.0624 C   0  0  0  0  0  0  0  0  0  0  0  0
    1.8338   -6.0596   11.2992 C   0  0  0  0  0  0  0  0  0  0  0  0
    1.3709   -6.4538   10.0113 C   0  0  0  0  0  0  0  0  0  0  0  0
    1.9292   -7.6107    9.2761 C   0  0  0  0  0  0  0  0  0  0  0  0
    1.1631   -8.5348    8.5556 C   0  0  0  0  0  0  0  0  0  0  0  0
    1.9295   -9.5106    7.9098 C   0  0  0  0  0  0  0  0  0  0  0  0
    1.2982  -10.7247    7.3314 C   0  0  0  0  0  0  0  0  0  0  0  0
    1.5797  -10.8279    5.8361 C   0  0  0  0  0  0  0  0  0  0  0  0
    3.3089   -9.3333    8.0922 C   0  0  0  0  0  0  0  0  0  0  0  0
    4.5987  -10.3141    7.4414 Cl  0  0  0  0  0  0  0  0  0  0  0  0
    3.5540   -7.9746    9.0335 S   0  0  0  0  0  0  0  0  0  0  0  0
    0.3732   -5.6365    9.4134 C   0  0  0  0  0  0  0  0  0  0  0  0
   -0.0997   -4.4794   10.0319 C   0  0  0  0  0  0  0  0  0  0  0  0
    0.3078   -4.1272   11.3341 C   0  0  0  0  0  0  0  0  0  0  0  0
   -0.2988   -2.9788   12.0619 C   0  0  0  0  0  0  0  0  0  0  0  0
   -1.6655   -2.6935   12.0762 C   0  0  0  0  0  0  0  0  0  0  0  0
   -2.0039   -1.6008   12.8936 C   0  0  0  0  0  0  0  0  0  0  0  0
   -3.4145   -1.1952   13.1474 C   0  0  0  0  0  0  0  0  0  0  0  0
   -4.0561   -2.1355   14.1561 C   0  0  0  0  0  0  0  0  0  0  0  0
   -0.8989   -1.0454   13.5357 C   0  0  0  0  0  0  0  0  0  0  0  0
    0.4781   -1.8781   13.0807 S   0  0  0  0  0  0  0  0  0  0  0  0
   -0.8874    0.3040   14.6381 Cl  0  0  0  0  0  0  0  0  0  0  0  0
    1.2935   -4.9157   11.9222 C   0  0  0  0  0  0  0  0  0  0  0  0
    2.1251   -4.6434   13.3654 S   0  0  0  0  0  0  0  0  0  0  0  0
   -0.8560   -3.6683    9.1796 C   0  0  0  0  0  0  0  0  0  0  0  0
   -1.0926   -4.2074    7.9073 C   0  0  0  0  0  0  0  0  0  0  0  0
   -0.2274   -5.6616    7.8218 S   0  0  0  0  0  0  0  0  0  0  0  0
   -1.5733   -3.4158    6.7467 C   0  0  0  0  0  0  0  0  0  0  0  0
   -2.2918   -2.1752    6.8982 C   0  0  0  0  0  0  0  0  0  0  0  0
   -3.5475   -1.9710    7.7131 C   0  0  0  0  0  0  0  0  0  0  0  0
   -3.8305   -2.7807    8.8540 C   0  0  0  0  0  0  0  0  0  0  0  0
   -4.8589   -2.4393    9.7469 C   0  0  0  0  0  0  0  0  0  0  0  0
   -5.6590   -1.3408    9.4910 C   0  0  0  0  0  0  0  0  0  0  0  0
   -5.5260   -0.6412    8.3009 C   0  0  0  0  0  0  0  0  0  0  0  0
   -4.5573   -1.0236    7.3451 C   0  0  0  0  0  0  0  0  0  0  0  0
   -4.8494   -0.6408    5.9060 C   0  0  0  0  0  0  0  0  0  0  0  0
   -6.0696   -1.3618    5.3655 C   0  0  0  0  0  0  0  0  0  0  0  0
   -1.7352   -1.2012    6.0545 C   0  0  0  0  0  0  0  0  0  0  0  0
   -1.8177    0.5055    5.9964 S   0  0  0  0  0  0  0  0  0  0  0  0
   -0.8487    0.5454    4.5954 C   0  0  0  0  0  0  0  0  0  0  0  0
   -0.2131    1.4447    3.7616 C   0  0  0  0  0  0  0  0  0  0  0  0
   -0.1373    2.8474    3.8121 C   0  0  0  0  0  0  0  0  0  0  0  0
    0.6689    3.5344    2.8403 C   0  0  0  0  0  0  0  0  0  0  0  0
    0.7036    4.8898    2.9078 N   0  0  0  0  0  0  0  0  0  0  0  0
   -0.2994    5.1141    4.2033 S   0  0  0  0  0  0  0  0  0  0  0  0
   -0.7883    3.6181    4.7186 N   0  0  0  0  0  0  0  0  0  0  0  0
    1.3002    2.7749    1.8357 C   0  0  0  0  0  0  0  0  0  0  0  0
    1.8524    3.1860    0.6368 C   0  0  0  0  0  0  0  0  0  0  0  0
    1.9094    4.6256   -0.2829 S   0  0  0  0  0  0  0  0  0  0  0  0
    1.9287    3.7629   -1.7686 C   0  0  0  0  0  0  0  0  0  0  0  0
    1.7669    4.1073   -3.1431 C   0  0  0  0  0  0  0  0  0  0  0  0
    2.1214    5.4490   -3.6333 C   0  0  0  0  0  0  0  0  0  0  0  0
    1.5052    6.6542   -3.1947 C   0  0  0  0  0  0  0  0  0  0  0  0
    0.3036    6.7376   -2.2705 C   0  0  0  0  0  0  0  0  0  0  0  0
   -0.7862    5.6504   -2.4496 C   0  0  0  0  0  0  0  0  0  0  0  0
    2.0824    7.8886   -3.5919 C   0  0  0  0  0  0  0  0  0  0  0  0
    3.2006    7.9255   -4.4337 C   0  0  0  0  0  0  0  0  0  0  0  0
    3.7886    6.7405   -4.8670 C   0  0  0  0  0  0  0  0  0  0  0  0
    3.2497    5.5083   -4.4677 C   0  0  0  0  0  0  0  0  0  0  0  0
    1.5192    2.9436   -3.9586 C   0  0  0  0  0  0  0  0  0  0  0  0
    1.5688    1.5916   -2.9150 S   0  0  0  0  0  0  0  0  0  0  0  0
    1.8801    2.4061   -1.5136 C   0  0  0  0  0  0  0  0  0  0  0  0
    1.8994    2.0888   -0.1569 C   0  0  0  0  0  0  0  0  0  0  0  0
    1.5353    0.9540    0.4899 N   0  0  0  0  0  0  0  0  0  0  0  0
    1.1655    1.3680    1.7587 C   0  0  0  0  0  0  0  0  0  0  0  0
    0.4800    0.6783    2.8072 C   0  0  0  0  0  0  0  0  0  0  0  0
    0.3664   -0.6580    3.1305 N   0  0  0  0  0  0  0  0  0  0  0  0
   -0.4645   -0.6959    4.2072 C   0  0  0  0  0  0  0  0  0  0  0  0
   -0.9049   -1.6955    5.0743 C   0  0  0  0  0  0  0  0  0  0  0  0
   -0.5798   -3.3064    5.3621 S   0  0  0  0  0  0  0  0  0  0  0  0
    1.0891   -1.8404    2.6528 C   0  0  0  0  0  0  0  0  0  0  0  0
    2.5912   -1.6634    2.8046 C   0  0  0  0  0  0  0  0  0  0  0  0
    1.3145   -0.3112   -0.2179 C   0  0  0  0  0  0  0  0  0  0  0  0
   -0.1756   -0.5661   -0.4295 C   0  0  0  0  0  0  0  0  0  0  0  0
    1.1857    2.7366   -5.4089 C   0  0  0  0  0  0  0  0  0  0  0  0
    0.3394    3.4999   -6.3005 C   0  0  0  0  0  0  0  0  0  0  0  0
    0.3375    4.9187   -6.4797 N   0  0  0  0  0  0  0  0  0  0  0  0
    1.2424    5.4809   -7.4678 C   0  0  0  0  0  0  0  0  0  0  0  0
    0.8137    6.4942   -8.3520 C   0  0  0  0  0  0  0  0  0  0  0  0
    1.7091    7.0872   -9.2502 C   0  0  0  0  0  0  0  0  0  0  0  0
    3.0338    6.6374   -9.3229 C   0  0  0  0  0  0  0  0  0  0  0  0
    3.9743    7.2537  -10.2999 C   0  0  0  0  0  0  0  0  0  0  0  0
    3.4546    5.5837   -8.4936 C   0  0  0  0  0  0  0  0  0  0  0  0
    2.5593    4.9970   -7.5930 C   0  0  0  0  0  0  0  0  0  0  0  0
   -0.7392    5.7272   -5.9546 C   0  0  0  0  0  0  0  0  0  0  0  0
   -0.4936    7.0725   -5.6083 C   0  0  0  0  0  0  0  0  0  0  0  0
   -1.5324    7.8888   -5.1551 C   0  0  0  0  0  0  0  0  0  0  0  0
   -2.8372    7.3849   -5.0506 C   0  0  0  0  0  0  0  0  0  0  0  0
   -3.9085    8.2663   -4.5002 C   0  0  0  0  0  0  0  0  0  0  0  0
   -3.1008    6.0545   -5.4020 C   0  0  0  0  0  0  0  0  0  0  0  0
   -2.0563    5.2231   -5.8458 C   0  0  0  0  0  0  0  0  0  0  0  0
   -0.2603    2.6764   -7.2686 C   0  0  0  0  0  0  0  0  0  0  0  0
   -1.5140    2.8404   -8.4322 S   0  0  0  0  0  0  0  0  0  0  0  0
   -1.7005    1.1317   -8.6915 C   0  0  0  0  0  0  0  0  0  0  0  0
   -0.6882    0.4953   -7.9731 C   0  0  0  0  0  0  0  0  0  0  0  0
   -0.3566   -0.8939   -8.0597 N   0  0  0  0  0  0  0  0  0  0  0  0
    0.5569   -1.2400   -9.1088 C   0  0  0  0  0  0  0  0  0  0  0  0
    1.8720   -0.7256   -9.1082 C   0  0  0  0  0  0  0  0  0  0  0  0
    2.7188   -0.9167  -10.2107 C   0  0  0  0  0  0  0  0  0  0  0  0
    2.2587   -1.6311  -11.3213 C   0  0  0  0  0  0  0  0  0  0  0  0
    3.1219   -1.7850  -12.5344 C   0  0  0  0  0  0  0  0  0  0  0  0
    0.9634   -2.1875  -11.3187 C   0  0  0  0  0  0  0  0  0  0  0  0
    0.1177   -1.9815  -10.2190 C   0  0  0  0  0  0  0  0  0  0  0  0
   -1.1336   -1.9212   -7.3980 C   0  0  0  0  0  0  0  0  0  0  0  0
   -0.6699   -3.2586   -7.3788 C   0  0  0  0  0  0  0  0  0  0  0  0
   -1.5057   -4.2899   -6.9517 C   0  0  0  0  0  0  0  0  0  0  0  0
   -2.8097   -4.0173   -6.5054 C   0  0  0  0  0  0  0  0  0  0  0  0
   -3.7244   -5.1512   -6.2052 C   0  0  0  0  0  0  0  0  0  0  0  0
   -3.2488   -2.6830   -6.4406 C   0  0  0  0  0  0  0  0  0  0  0  0
   -2.4045   -1.6415   -6.8321 C   0  0  0  0  0  0  0  0  0  0  0  0
    0.0567    1.3638   -7.2118 C   0  0  0  0  0  0  0  0  0  0  0  0
    1.1606    1.1202   -5.9841 S   0  0  0  0  0  0  0  0  0  0  0  0
   -2.8240    0.3542   -9.3101 C   0  0  0  0  0  0  0  0  0  0  0  0
   -3.8399    0.7057  -10.1514 C   0  0  0  0  0  0  0  0  0  0  0  0
   -4.3765   -0.2638  -11.0762 C   0  0  0  0  0  0  0  0  0  0  0  0
   -4.8798   -1.3702  -10.7729 O   0  0  0  0  0  0  0  0  0  0  0  0
   -4.7126    0.4144  -12.3066 C   0  0  0  0  0  0  0  0  0  0  0  0
   -5.2664   -0.2091  -13.4665 C   0  0  0  0  0  0  0  0  0  0  0  0
   -5.6421    0.6980  -14.4403 C   0  0  0  0  0  0  0  0  0  0  0  0
   -5.5629    2.1280  -14.2800 C   0  0  0  0  0  0  0  0  0  0  0  0
   -5.0424    2.7388  -13.1431 C   0  0  0  0  0  0  0  0  0  0  0  0
   -4.5892    1.8199  -12.1462 C   0  0  0  0  0  0  0  0  0  0  0  0
   -4.1346    2.0693  -10.7499 C   0  0  0  0  0  0  0  0  0  0  0  0
   -4.3314    3.2198  -10.0615 C   0  0  0  0  0  0  0  0  0  0  0  0
   -4.5112    3.1885   -8.6347 C   0  0  0  0  0  0  0  0  0  0  0  0
   -4.5829    3.2526   -7.4750 N   0  0  0  0  0  0  0  0  0  0  0  0
   -4.2074    4.5053  -10.6959 C   0  0  0  0  0  0  0  0  0  0  0  0
   -4.0574    5.5442  -11.1766 N   0  0  0  0  0  0  0  0  0  0  0  0
   -6.2583    2.3277  -15.5918 C   0  0  0  0  0  0  0  0  0  0  0  0
   -7.7726    2.7234  -15.5469 C   0  0  0  0  0  0  0  0  0  0  0  0
   -8.3130    2.4728  -16.9402 C   0  0  0  0  0  0  0  0  0  0  0  0
   -8.3252    1.1346  -17.0962 C   0  0  0  0  0  0  0  0  0  0  0  0
   -7.8154    0.5375  -15.8063 C   0  0  0  0  0  0  0  0  0  0  0  0
   -8.4138    1.5416  -14.8305 C   0  0  0  0  0  0  0  0  0  0  0  0
   -6.2989    0.8685  -15.7621 C   0  0  0  0  0  0  0  0  0  0  0  0
    4.6627   -6.1203   14.8040 H   0  0  0  0  0  0  0  0  0  0  0  0
    6.1930   -2.8523    9.6416 H   0  0  0  0  0  0  0  0  0  0  0  0
    9.3832   -3.2569   13.6596 H   0  0  0  0  0  0  0  0  0  0  0  0
   10.8536   -1.5288   10.9148 H   0  0  0  0  0  0  0  0  0  0  0  0
    9.9577    0.1654   12.9477 H   0  0  0  0  0  0  0  0  0  0  0  0
   11.0262    1.8183   11.1387 H   0  0  0  0  0  0  0  0  0  0  0  0
    9.4002    1.9608    9.1082 H   0  0  0  0  0  0  0  0  0  0  0  0
    7.3012    0.3973    9.5920 H   0  0  0  0  0  0  0  0  0  0  0  0
    7.3943   -0.2671   12.2372 H   0  0  0  0  0  0  0  0  0  0  0  0
    7.7905    1.4406   12.0235 H   0  0  0  0  0  0  0  0  0  0  0  0
    9.3730   -1.3856    9.0249 H   0  0  0  0  0  0  0  0  0  0  0  0
    3.5054   -7.4479   11.7618 H   0  0  0  0  0  0  0  0  0  0  0  0
    0.0876   -8.5674    8.6265 H   0  0  0  0  0  0  0  0  0  0  0  0
    0.1946  -10.6713    7.4899 H   0  0  0  0  0  0  0  0  0  0  0  0
    1.6784  -11.6029    7.8842 H   0  0  0  0  0  0  0  0  0  0  0  0
    2.4525  -11.5056    5.6731 H   0  0  0  0  0  0  0  0  0  0  0  0
    1.8147   -9.8295    5.3916 H   0  0  0  0  0  0  0  0  0  0  0  0
    0.6981  -11.2600    5.3151 H   0  0  0  0  0  0  0  0  0  0  0  0
   -2.4103   -3.2858   11.5473 H   0  0  0  0  0  0  0  0  0  0  0  0
   -3.4514   -0.1522   13.5090 H   0  0  0  0  0  0  0  0  0  0  0  0
   -3.9744   -1.2315   12.1892 H   0  0  0  0  0  0  0  0  0  0  0  0
   -5.0651   -1.7582   14.4157 H   0  0  0  0  0  0  0  0  0  0  0  0
   -4.1464   -3.1581   13.7244 H   0  0  0  0  0  0  0  0  0  0  0  0
   -3.4438   -2.1932   15.0864 H   0  0  0  0  0  0  0  0  0  0  0  0
   -1.1701   -2.6620    9.4301 H   0  0  0  0  0  0  0  0  0  0  0  0
   -3.3138   -3.6972    9.0893 H   0  0  0  0  0  0  0  0  0  0  0  0
   -5.0049   -3.0370   10.6404 H   0  0  0  0  0  0  0  0  0  0  0  0
   -6.4495   -1.0916   10.1769 H   0  0  0  0  0  0  0  0  0  0  0  0
   -6.2692    0.1085    8.0460 H   0  0  0  0  0  0  0  0  0  0  0  0
   -4.9808    0.4578    5.8504 H   0  0  0  0  0  0  0  0  0  0  0  0
   -4.0528   -0.8879    5.1820 H   0  0  0  0  0  0  0  0  0  0  0  0
   -5.8542   -2.4582    5.2742 H   0  0  0  0  0  0  0  0  0  0  0  0
   -6.3430   -0.9337    4.3745 H   0  0  0  0  0  0  0  0  0  0  0  0
   -6.9620   -1.2484    6.0180 H   0  0  0  0  0  0  0  0  0  0  0  0
   -0.2209    7.7152   -2.4147 H   0  0  0  0  0  0  0  0  0  0  0  0
    0.6344    6.7633   -1.2188 H   0  0  0  0  0  0  0  0  0  0  0  0
   -1.7836    6.1411   -2.5878 H   0  0  0  0  0  0  0  0  0  0  0  0
   -0.8481    5.0016   -1.5409 H   0  0  0  0  0  0  0  0  0  0  0  0
   -0.6203    5.0200   -3.3355 H   0  0  0  0  0  0  0  0  0  0  0  0
    1.6482    8.8351   -3.2681 H   0  0  0  0  0  0  0  0  0  0  0  0
    3.6038    8.8758   -4.7435 H   0  0  0  0  0  0  0  0  0  0  0  0
    4.6514    6.7716   -5.5141 H   0  0  0  0  0  0  0  0  0  0  0  0
    3.7635    4.5853   -4.7729 H   0  0  0  0  0  0  0  0  0  0  0  0
    0.7445   -2.1128    1.6461 H   0  0  0  0  0  0  0  0  0  0  0  0
    0.7945   -2.7587    3.1926 H   0  0  0  0  0  0  0  0  0  0  0  0
    3.1066   -2.5544    2.3893 H   0  0  0  0  0  0  0  0  0  0  0  0
    2.8161   -1.5891    3.9022 H   0  0  0  0  0  0  0  0  0  0  0  0
    2.9564   -0.7509    2.2973 H   0  0  0  0  0  0  0  0  0  0  0  0
    1.8280   -0.3090   -1.2110 H   0  0  0  0  0  0  0  0  0  0  0  0
    1.8774   -1.1252    0.2427 H   0  0  0  0  0  0  0  0  0  0  0  0
   -0.3207   -1.5645   -0.8825 H   0  0  0  0  0  0  0  0  0  0  0  0
   -0.7413   -0.5111    0.5173 H   0  0  0  0  0  0  0  0  0  0  0  0
   -0.5747    0.2137   -1.1349 H   0  0  0  0  0  0  0  0  0  0  0  0
   -0.1949    6.8708   -8.3317 H   0  0  0  0  0  0  0  0  0  0  0  0
    1.3457    7.9059   -9.8910 H   0  0  0  0  0  0  0  0  0  0  0  0
    4.0692    8.3410  -10.0757 H   0  0  0  0  0  0  0  0  0  0  0  0
    3.5678    7.1289  -11.3288 H   0  0  0  0  0  0  0  0  0  0  0  0
    4.9824    6.7831  -10.2498 H   0  0  0  0  0  0  0  0  0  0  0  0
    4.4788    5.2106   -8.5569 H   0  0  0  0  0  0  0  0  0  0  0  0
    2.9082    4.1878   -6.9559 H   0  0  0  0  0  0  0  0  0  0  0  0
    0.5056    7.4813   -5.7247 H   0  0  0  0  0  0  0  0  0  0  0  0
   -1.3021    8.9038   -4.8800 H   0  0  0  0  0  0  0  0  0  0  0  0
   -4.9145    7.8221   -4.6517 H   0  0  0  0  0  0  0  0  0  0  0  0
   -3.8760    9.2507   -5.0010 H   0  0  0  0  0  0  0  0  0  0  0  0
   -3.7408    8.4130   -3.4106 H   0  0  0  0  0  0  0  0  0  0  0  0
   -4.1105    5.6488   -5.3245 H   0  0  0  0  0  0  0  0  0  0  0  0
   -2.3075    4.2057   -6.1219 H   0  0  0  0  0  0  0  0  0  0  0  0
    2.2562   -0.1516   -8.2762 H   0  0  0  0  0  0  0  0  0  0  0  0
    3.7189   -0.4887  -10.1924 H   0  0  0  0  0  0  0  0  0  0  0  0
    3.2771   -2.8609  -12.7684 H   0  0  0  0  0  0  0  0  0  0  0  0
    4.1290   -1.3272  -12.3847 H   0  0  0  0  0  0  0  0  0  0  0  0
    2.6292   -1.3049  -13.4070 H   0  0  0  0  0  0  0  0  0  0  0  0
    0.6122   -2.7500  -12.1667 H   0  0  0  0  0  0  0  0  0  0  0  0
   -0.8935   -2.3702  -10.2478 H   0  0  0  0  0  0  0  0  0  0  0  0
    0.3184   -3.5089   -7.7529 H   0  0  0  0  0  0  0  0  0  0  0  0
   -1.1393   -5.3095   -7.0149 H   0  0  0  0  0  0  0  0  0  0  0  0
   -4.6525   -4.8058   -5.6895 H   0  0  0  0  0  0  0  0  0  0  0  0
   -4.0041   -5.6731   -7.1473 H   0  0  0  0  0  0  0  0  0  0  0  0
   -3.2023   -5.8771   -5.5293 H   0  0  0  0  0  0  0  0  0  0  0  0
   -4.2542   -2.4448   -6.1047 H   0  0  0  0  0  0  0  0  0  0  0  0
   -2.7689   -0.6261   -6.7655 H   0  0  0  0  0  0  0  0  0  0  0  0
   -2.6395   -0.7057   -9.2523 H   0  0  0  0  0  0  0  0  0  0  0  0
   -5.4016   -1.2855  -13.5483 H   0  0  0  0  0  0  0  0  0  0  0  0
   -5.0254    3.8340  -13.0896 H   0  0  0  0  0  0  0  0  0  0  0  0
   -5.6358    2.8786  -16.3318 H   0  0  0  0  0  0  0  0  0  0  0  0
   -7.9931    3.7118  -15.1087 H   0  0  0  0  0  0  0  0  0  0  0  0
   -8.7273    3.2008  -17.6390 H   0  0  0  0  0  0  0  0  0  0  0  0
   -8.7559    0.5968  -17.9394 H   0  0  0  0  0  0  0  0  0  0  0  0
   -8.0899   -0.5226  -15.6646 H   0  0  0  0  0  0  0  0  0  0  0  0
   -9.5434    1.5662  -14.7997 H   0  0  0  0  0  0  0  0  0  0  0  0
   -8.0815    1.4126  -13.7774 H   0  0  0  0  0  0  0  0  0  0  0  0
   -5.6821    0.4780  -16.6041 H   0  0  0  0  0  0  0  0  0  0  0  0
  1  2  2  3
  2  3  1  0
  3  4  2  0
  3  5  1  0
  5  6  2  0
  6  7  1  0
  7  8  2  0
  8  9  1  0
  9 10  2  0
 10 11  1  0
 11 12  2  3
 12 13  1  0
 13 14  3  0
 12 15  1  0
 15 16  3  0
  8 17  1  0
 17 18  1  0
 18 19  1  0
 19 20  2  0
 20 21  1  0
 21 22  1  0
 21 23  1  0
  1 24  1  0
 24 25  2  0
 25 26  1  0
 26 27  2  0
 27 28  1  0
 28 29  2  0
 29 30  1  0
 30 31  1  0
 31 32  1  0
 30 33  2  0
 33 34  1  0
 33 35  1  0
 27 36  1  0
 36 37  2  0
 37 38  1  0
 38 39  1  0
 39 40  2  0
 40 41  1  0
 41 42  1  0
 42 43  1  0
 41 44  2  0
 44 45  1  0
 44 46  1  0
 38 47  2  0
 47 48  1  0
 37 49  1  0
 49 50  2  0
 50 51  1  0
 50 52  1  0
 52 53  2  0
 53 54  1  0
 54 55  2  0
 55 56  1  0
 56 57  2  0
 57 58  1  0
 58 59  2  0
 59 60  1  0
 60 61  1  0
 53 62  1  0
 62 63  1  0
 63 64  1  0
 64 65  1  0
 65 66  1  0
 66 67  1  0
 67 68  2  0
 68 69  1  0
 69 70  1  0
 67 71  1  0
 71 72  1  0
 72 73  1  0
 73 74  1  0
 74 75  1  0
 75 76  1  0
 76 77  2  0
 77 78  1  0
 78 79  1  0
 77 80  1  0
 80 81  2  0
 81 82  1  0
 82 83  2  0
 75 84  2  0
 84 85  1  0
 85 86  1  0
 86 87  1  0
 87 88  1  0
 88 89  1  0
 89 90  1  0
 90 91  1  0
 91 92  1  0
 92 93  1  0
 93 94  1  0
 91 95  1  0
 95 96  1  0
 88 97  1  0
 97 98  1  0
 84 99  1  0
 99100  2  0
100101  1  0
101102  1  0
102103  2  0
103104  1  0
104105  2  0
105106  1  0
105107  1  0
107108  2  0
101109  1  0
109110  2  0
110111  1  0
111112  2  0
112113  1  0
112114  1  0
114115  2  0
100116  1  0
116117  1  0
117118  1  0
118119  2  0
119120  1  0
120121  1  0
121122  2  0
122123  1  0
123124  2  0
124125  1  0
124126  1  0
126127  2  0
120128  1  0
128129  2  0
129130  1  0
130131  2  0
131132  1  0
131133  1  0
133134  2  0
119135  1  0
135136  1  0
118137  1  0
137138  2  3
138139  1  0
139140  2  0
139141  1  0
141142  2  0
142143  1  0
143144  2  0
144145  1  0
145146  2  0
146147  1  0
147148  2  3
148149  1  0
149150  3  0
148151  1  0
151152  3  0
144153  1  0
153154  1  0
154155  1  0
155156  2  0
156157  1  0
157158  1  0
157159  1  0
 11  2  1  0
 23 17  1  0
 48 24  1  0
 94 52  1  0
136 99  1  0
147138  1  0
159153  1  0
 10  5  1  0
 22 18  1  0
 47 26  1  0
 59 54  1  0
 93 62  2  0
108102  1  0
115109  1  0
135116  2  0
146141  1  0
158154  1  0
 23  7  1  0
 35 28  1  0
 51 36  1  0
 92 64  2  0
127121  1  0
134128  1  0
159143  1  0
 45 39  1  0
 90 65  2  0
 70 66  2  0
 89 71  2  0
 87 72  2  0
 86 74  2  0
 83 76  1  0
  1160  1  0
  6161  1  0
  9162  1  0
 17163  1  0
 18164  1  0
 19165  1  0
 20166  1  0
 21167  1  0
 22168  1  0
 22169  1  0
 23170  1  0
 25171  1  0
 29172  1  0
 31173  1  0
 31174  1  0
 32175  1  0
 32176  1  0
 32177  1  0
 40178  1  0
 42179  1  0
 42180  1  0
 43181  1  0
 43182  1  0
 43183  1  0
 49184  1  0
 55185  1  0
 56186  1  0
 57187  1  0
 58188  1  0
 60189  1  0
 60190  1  0
 61191  1  0
 61192  1  0
 61193  1  0
 78194  1  0
 78195  1  0
 79196  1  0
 79197  1  0
 79198  1  0
 80199  1  0
 81200  1  0
 82201  1  0
 83202  1  0
 95203  1  0
 95204  1  0
 96205  1  0
 96206  1  0
 96207  1  0
 97208  1  0
 97209  1  0
 98210  1  0
 98211  1  0
 98212  1  0
103213  1  0
104214  1  0
106215  1  0
106216  1  0
106217  1  0
107218  1  0
108219  1  0
110220  1  0
111221  1  0
113222  1  0
113223  1  0
113224  1  0
114225  1  0
115226  1  0
122227  1  0
123228  1  0
125229  1  0
125230  1  0
125231  1  0
126232  1  0
127233  1  0
129234  1  0
130235  1  0
132236  1  0
132237  1  0
132238  1  0
133239  1  0
134240  1  0
137241  1  0
142242  1  0
145243  1  0
153244  1  0
154245  1  0
155246  1  0
156247  1  0
157248  1  0
158249  1  0
158250  1  0
159251  1  0
M  END

