
     RDKit          3D

203228  0  0  0  0  0  0  0  0999 V2000
   -1.2745    3.4784   10.3785 C   0  0  0  0  0  0  0  0  0  0  0  0
   -0.0285    3.3279    9.8803 C   0  0  0  0  0  0  0  0  0  0  0  0
    0.2988    2.7434    8.5706 C   0  0  0  0  0  0  0  0  0  0  0  0
   -0.4689    2.6659    7.5733 O   0  0  0  0  0  0  0  0  0  0  0  0
    1.6684    2.3037    8.5872 C   0  0  0  0  0  0  0  0  0  0  0  0
    2.3138    1.4973    7.6228 C   0  0  0  0  0  0  0  0  0  0  0  0
    3.5801    1.0909    7.9907 C   0  0  0  0  0  0  0  0  0  0  0  0
    4.1856    1.4451    9.2382 C   0  0  0  0  0  0  0  0  0  0  0  0
    3.5585    2.2334   10.1899 C   0  0  0  0  0  0  0  0  0  0  0  0
    2.2590    2.6855    9.8200 C   0  0  0  0  0  0  0  0  0  0  0  0
    1.2678    3.4594   10.6159 C   0  0  0  0  0  0  0  0  0  0  0  0
    1.5392    4.2975   11.6478 C   0  0  0  0  0  0  0  0  0  0  0  0
    2.8773    4.5065   12.1335 C   0  0  0  0  0  0  0  0  0  0  0  0
    3.9498    4.6897   12.5257 N   0  0  0  0  0  0  0  0  0  0  0  0
    0.5374    5.1550   12.2284 C   0  0  0  0  0  0  0  0  0  0  0  0
   -0.2602    5.8450   12.7019 N   0  0  0  0  0  0  0  0  0  0  0  0
    5.3936    0.6241    8.9039 C   0  0  0  0  0  0  0  0  0  0  0  0
    5.5299   -0.7404    9.6426 C   0  0  0  0  0  0  0  0  0  0  0  0
    6.5583   -1.5296    8.8710 C   0  0  0  0  0  0  0  0  0  0  0  0
    5.9881   -1.8615    7.7048 C   0  0  0  0  0  0  0  0  0  0  0  0
    4.5958   -1.2817    7.7306 C   0  0  0  0  0  0  0  0  0  0  0  0
    4.2847   -1.4920    9.2032 C   0  0  0  0  0  0  0  0  0  0  0  0
    4.7728    0.2624    7.6255 C   0  0  0  0  0  0  0  0  0  0  0  0
   -2.4603    3.0206    9.6433 C   0  0  0  0  0  0  0  0  0  0  0  0
   -3.3149    3.8375    8.9044 C   0  0  0  0  0  0  0  0  0  0  0  0
   -4.1357    3.1112    8.0197 C   0  0  0  0  0  0  0  0  0  0  0  0
   -5.0083    3.6547    7.0495 C   0  0  0  0  0  0  0  0  0  0  0  0
   -5.2842    5.1114    6.9772 C   0  0  0  0  0  0  0  0  0  0  0  0
   -5.7919    5.7897    8.0995 C   0  0  0  0  0  0  0  0  0  0  0  0
   -6.0717    7.1577    8.0318 C   0  0  0  0  0  0  0  0  0  0  0  0
   -5.8577    7.8592    6.8444 C   0  0  0  0  0  0  0  0  0  0  0  0
   -5.3412    7.1990    5.7233 C   0  0  0  0  0  0  0  0  0  0  0  0
   -5.1307    8.0896    4.1773 S   0  0  0  0  0  0  0  0  0  0  0  0
   -3.4436    8.6913    4.5426 C   0  0  0  0  0  0  0  0  0  0  0  0
   -2.4004    7.6708    4.1074 C   0  0  0  0  0  0  0  0  0  0  0  0
   -5.0466    5.8328    5.7930 C   0  0  0  0  0  0  0  0  0  0  0  0
   -5.5515    2.7484    6.1097 C   0  0  0  0  0  0  0  0  0  0  0  0
   -5.2477    1.3800    6.1186 C   0  0  0  0  0  0  0  0  0  0  0  0
   -4.4212    0.8354    7.1214 C   0  0  0  0  0  0  0  0  0  0  0  0
   -3.9692   -0.5719    7.0759 C   0  0  0  0  0  0  0  0  0  0  0  0
   -4.8855   -1.6197    7.2398 C   0  0  0  0  0  0  0  0  0  0  0  0
   -4.4439   -2.9480    7.2262 C   0  0  0  0  0  0  0  0  0  0  0  0
   -3.0858   -3.2349    7.0458 C   0  0  0  0  0  0  0  0  0  0  0  0
   -2.1681   -2.1939    6.8716 C   0  0  0  0  0  0  0  0  0  0  0  0
   -0.4263   -2.5581    6.6244 S   0  0  0  0  0  0  0  0  0  0  0  0
    0.0904   -2.1372    8.3291 C   0  0  0  0  0  0  0  0  0  0  0  0
   -0.3188   -3.2187    9.3227 C   0  0  0  0  0  0  0  0  0  0  0  0
   -2.6119   -0.8681    6.8629 C   0  0  0  0  0  0  0  0  0  0  0  0
   -3.8950    1.7318    8.0657 C   0  0  0  0  0  0  0  0  0  0  0  0
   -2.7276    1.4081    9.2308 S   0  0  0  0  0  0  0  0  0  0  0  0
   -5.6935    0.7029    4.9728 C   0  0  0  0  0  0  0  0  0  0  0  0
   -6.3458    1.5278    4.0566 C   0  0  0  0  0  0  0  0  0  0  0  0
   -6.3962    3.0916    4.6943 S   0  0  0  0  0  0  0  0  0  0  0  0
   -6.4391    1.2243    2.6149 C   0  0  0  0  0  0  0  0  0  0  0  0
   -7.0594    2.0182    1.6249 C   0  0  0  0  0  0  0  0  0  0  0  0
   -8.1519    2.9698    1.8685 C   0  0  0  0  0  0  0  0  0  0  0  0
   -7.9256    4.3542    1.8492 C   0  0  0  0  0  0  0  0  0  0  0  0
   -8.9875    5.2366    2.0668 C   0  0  0  0  0  0  0  0  0  0  0  0
  -10.2847    4.7441    2.2637 C   0  0  0  0  0  0  0  0  0  0  0  0
  -10.5241    3.3606    2.2653 C   0  0  0  0  0  0  0  0  0  0  0  0
  -11.9274    2.8219    2.4031 C   0  0  0  0  0  0  0  0  0  0  0  0
  -12.6202    2.7725    1.0447 C   0  0  0  0  0  0  0  0  0  0  0  0
   -9.4492    2.4797    2.0733 C   0  0  0  0  0  0  0  0  0  0  0  0
   -6.6041    1.6856    0.3472 C   0  0  0  0  0  0  0  0  0  0  0  0
   -6.6749    2.5065   -1.1356 S   0  0  0  0  0  0  0  0  0  0  0  0
   -5.5342    1.4545   -1.8311 C   0  0  0  0  0  0  0  0  0  0  0  0
   -4.5496    1.6173   -2.7693 C   0  0  0  0  0  0  0  0  0  0  0  0
   -4.2778    2.7253   -3.5860 C   0  0  0  0  0  0  0  0  0  0  0  0
   -2.9680    2.8747   -4.1294 C   0  0  0  0  0  0  0  0  0  0  0  0
   -2.7333    3.9764   -4.8861 N   0  0  0  0  0  0  0  0  0  0  0  0
   -4.2181    4.6979   -4.7884 S   0  0  0  0  0  0  0  0  0  0  0  0
   -5.1675    3.7146   -3.8470 N   0  0  0  0  0  0  0  0  0  0  0  0
   -2.0184    1.8887   -3.8631 C   0  0  0  0  0  0  0  0  0  0  0  0
   -0.7361    1.7299   -4.2900 C   0  0  0  0  0  0  0  0  0  0  0  0
    0.4040    2.5359   -5.2523 S   0  0  0  0  0  0  0  0  0  0  0  0
    1.4414    1.1848   -5.1787 C   0  0  0  0  0  0  0  0  0  0  0  0
    2.6827    0.8976   -5.7480 C   0  0  0  0  0  0  0  0  0  0  0  0
    3.4691    1.8602   -6.5376 C   0  0  0  0  0  0  0  0  0  0  0  0
    4.7012    2.3207   -6.0521 C   0  0  0  0  0  0  0  0  0  0  0  0
    5.4280    3.2713   -6.7696 C   0  0  0  0  0  0  0  0  0  0  0  0
    4.9356    3.7642   -7.9809 C   0  0  0  0  0  0  0  0  0  0  0  0
    3.7156    3.2908   -8.4928 C   0  0  0  0  0  0  0  0  0  0  0  0
    3.1683    3.8353   -9.7843 C   0  0  0  0  0  0  0  0  0  0  0  0
    2.3746    5.1148   -9.5391 C   0  0  0  0  0  0  0  0  0  0  0  0
    2.9770    2.3499   -7.7544 C   0  0  0  0  0  0  0  0  0  0  0  0
    3.0718   -0.4225   -5.4625 C   0  0  0  0  0  0  0  0  0  0  0  0
    1.8748   -1.1976   -4.5233 S   0  0  0  0  0  0  0  0  0  0  0  0
    0.8887    0.1547   -4.4623 C   0  0  0  0  0  0  0  0  0  0  0  0
   -0.3500    0.4835   -3.9328 C   0  0  0  0  0  0  0  0  0  0  0  0
   -1.3154   -0.2105   -3.2795 N   0  0  0  0  0  0  0  0  0  0  0  0
   -2.3195    0.7216   -3.1486 C   0  0  0  0  0  0  0  0  0  0  0  0
   -3.5699    0.6536   -2.4730 C   0  0  0  0  0  0  0  0  0  0  0  0
   -3.8719    0.0192   -1.2952 N   0  0  0  0  0  0  0  0  0  0  0  0
   -5.0831    0.5233   -0.9442 C   0  0  0  0  0  0  0  0  0  0  0  0
   -5.6908    0.6660    0.3003 C   0  0  0  0  0  0  0  0  0  0  0  0
   -5.3625    0.1444    1.8562 S   0  0  0  0  0  0  0  0  0  0  0  0
   -2.9319   -0.5821   -0.3396 C   0  0  0  0  0  0  0  0  0  0  0  0
   -2.1295    0.4888    0.3922 C   0  0  0  0  0  0  0  0  0  0  0  0
   -1.3784   -1.6866   -3.2631 C   0  0  0  0  0  0  0  0  0  0  0  0
   -2.7699   -2.2384   -3.5900 C   0  0  0  0  0  0  0  0  0  0  0  0
    4.1399   -1.1478   -6.1548 C   0  0  0  0  0  0  0  0  0  0  0  0
    3.8259   -1.9661   -7.2472 C   0  0  0  0  0  0  0  0  0  0  0  0
    2.5469   -2.0791   -7.6744 F   0  0  0  0  0  0  0  0  0  0  0  0
    4.8320   -2.6711   -7.9112 C   0  0  0  0  0  0  0  0  0  0  0  0
    6.1607   -2.6051   -7.4625 C   0  0  0  0  0  0  0  0  0  0  0  0
    6.4797   -1.7410   -6.3985 C   0  0  0  0  0  0  0  0  0  0  0  0
    7.7602   -1.6237   -5.9654 F   0  0  0  0  0  0  0  0  0  0  0  0
    5.4707   -1.0256   -5.7435 C   0  0  0  0  0  0  0  0  0  0  0  0
    7.2344   -3.3761   -8.1307 C   0  0  0  0  0  0  0  0  0  0  0  0
    7.0969   -4.6128   -8.6485 C   0  0  0  0  0  0  0  0  0  0  0  0
    7.9700   -5.1191   -9.7079 C   0  0  0  0  0  0  0  0  0  0  0  0
    9.0900   -4.6428  -10.0331 O   0  0  0  0  0  0  0  0  0  0  0  0
    7.2795   -6.1870  -10.4024 C   0  0  0  0  0  0  0  0  0  0  0  0
    7.6584   -6.8058  -11.6178 C   0  0  0  0  0  0  0  0  0  0  0  0
    6.7070   -7.6690  -12.1294 C   0  0  0  0  0  0  0  0  0  0  0  0
    5.4436   -7.9063  -11.4953 C   0  0  0  0  0  0  0  0  0  0  0  0
    5.0666   -7.3016  -10.3071 C   0  0  0  0  0  0  0  0  0  0  0  0
    6.0434   -6.4289   -9.7543 C   0  0  0  0  0  0  0  0  0  0  0  0
    5.9589   -5.5756   -8.5398 C   0  0  0  0  0  0  0  0  0  0  0  0
    5.2808   -5.8847   -7.4044 C   0  0  0  0  0  0  0  0  0  0  0  0
    5.5844   -5.2492   -6.1468 C   0  0  0  0  0  0  0  0  0  0  0  0
    5.8221   -4.7407   -5.1348 N   0  0  0  0  0  0  0  0  0  0  0  0
    4.3849   -7.0081   -7.3255 C   0  0  0  0  0  0  0  0  0  0  0  0
    3.6619   -7.9100   -7.2516 N   0  0  0  0  0  0  0  0  0  0  0  0
    5.0337   -8.8075  -12.6240 C   0  0  0  0  0  0  0  0  0  0  0  0
    3.9964   -8.2583  -13.6499 C   0  0  0  0  0  0  0  0  0  0  0  0
    4.1314   -6.7575  -13.7694 C   0  0  0  0  0  0  0  0  0  0  0  0
    5.3054   -6.5271  -14.3572 C   0  0  0  0  0  0  0  0  0  0  0  0
    5.9303   -7.8783  -14.6193 C   0  0  0  0  0  0  0  0  0  0  0  0
    4.6705   -8.6604  -14.9486 C   0  0  0  0  0  0  0  0  0  0  0  0
    6.3240   -8.5584  -13.2741 C   0  0  0  0  0  0  0  0  0  0  0  0
   -1.4360    3.8065   11.3941 H   0  0  0  0  0  0  0  0  0  0  0  0
    1.8386    1.1753    6.7065 H   0  0  0  0  0  0  0  0  0  0  0  0
    4.0157    2.4145   11.1490 H   0  0  0  0  0  0  0  0  0  0  0  0
    6.3293    1.2220    8.8133 H   0  0  0  0  0  0  0  0  0  0  0  0
    5.7019   -0.6829   10.7365 H   0  0  0  0  0  0  0  0  0  0  0  0
    7.5314   -1.8593    9.2190 H   0  0  0  0  0  0  0  0  0  0  0  0
    6.4189   -2.5040    6.9455 H   0  0  0  0  0  0  0  0  0  0  0  0
    3.8800   -1.7353    7.0136 H   0  0  0  0  0  0  0  0  0  0  0  0
    4.2851   -2.5665    9.5058 H   0  0  0  0  0  0  0  0  0  0  0  0
    3.3313   -1.0280    9.5397 H   0  0  0  0  0  0  0  0  0  0  0  0
    5.3116    0.6278    6.7230 H   0  0  0  0  0  0  0  0  0  0  0  0
   -3.2653    4.9172    8.9319 H   0  0  0  0  0  0  0  0  0  0  0  0
   -5.9800    5.2579    9.0225 H   0  0  0  0  0  0  0  0  0  0  0  0
   -6.4712    7.6716    8.8973 H   0  0  0  0  0  0  0  0  0  0  0  0
   -6.0985    8.9131    6.7931 H   0  0  0  0  0  0  0  0  0  0  0  0
   -3.2848    9.6315    3.9711 H   0  0  0  0  0  0  0  0  0  0  0  0
   -3.3268    8.9244    5.6234 H   0  0  0  0  0  0  0  0  0  0  0  0
   -2.5237    6.7265    4.6751 H   0  0  0  0  0  0  0  0  0  0  0  0
   -1.3841    8.0719    4.3027 H   0  0  0  0  0  0  0  0  0  0  0  0
   -2.4991    7.4642    3.0201 H   0  0  0  0  0  0  0  0  0  0  0  0
   -4.6397    5.3337    4.9237 H   0  0  0  0  0  0  0  0  0  0  0  0
   -5.9374   -1.4106    7.3891 H   0  0  0  0  0  0  0  0  0  0  0  0
   -5.1528   -3.7545    7.3506 H   0  0  0  0  0  0  0  0  0  0  0  0
   -2.7524   -4.2638    7.0353 H   0  0  0  0  0  0  0  0  0  0  0  0
    1.1982   -2.0440    8.3379 H   0  0  0  0  0  0  0  0  0  0  0  0
   -0.3386   -1.1563    8.6335 H   0  0  0  0  0  0  0  0  0  0  0  0
    0.0784   -2.9691   10.3285 H   0  0  0  0  0  0  0  0  0  0  0  0
    0.0925   -4.2019    9.0104 H   0  0  0  0  0  0  0  0  0  0  0  0
   -1.4240   -3.2866    9.3904 H   0  0  0  0  0  0  0  0  0  0  0  0
   -1.8995   -0.0662    6.7085 H   0  0  0  0  0  0  0  0  0  0  0  0
   -5.4452   -0.3254    4.7594 H   0  0  0  0  0  0  0  0  0  0  0  0
   -6.9316    4.7472    1.6776 H   0  0  0  0  0  0  0  0  0  0  0  0
   -8.8086    6.3048    2.0790 H   0  0  0  0  0  0  0  0  0  0  0  0
  -11.1003    5.4407    2.4123 H   0  0  0  0  0  0  0  0  0  0  0  0
  -12.5216    3.4633    3.0910 H   0  0  0  0  0  0  0  0  0  0  0  0
  -11.9090    1.7995    2.8397 H   0  0  0  0  0  0  0  0  0  0  0  0
  -12.7346    3.8008    0.6374 H   0  0  0  0  0  0  0  0  0  0  0  0
  -13.6279    2.3135    1.1506 H   0  0  0  0  0  0  0  0  0  0  0  0
  -12.0303    2.1635    0.3238 H   0  0  0  0  0  0  0  0  0  0  0  0
   -9.6247    1.4113    2.0703 H   0  0  0  0  0  0  0  0  0  0  0  0
    5.0853    1.9675   -5.1039 H   0  0  0  0  0  0  0  0  0  0  0  0
    6.3662    3.6412   -6.3799 H   0  0  0  0  0  0  0  0  0  0  0  0
    5.5017    4.5159   -8.5180 H   0  0  0  0  0  0  0  0  0  0  0  0
    4.0027    4.0460  -10.4888 H   0  0  0  0  0  0  0  0  0  0  0  0
    2.5111    3.0806  -10.2698 H   0  0  0  0  0  0  0  0  0  0  0  0
    1.8926    5.4405  -10.4833 H   0  0  0  0  0  0  0  0  0  0  0  0
    1.5842    4.9404   -8.7796 H   0  0  0  0  0  0  0  0  0  0  0  0
    3.0528    5.9193   -9.1861 H   0  0  0  0  0  0  0  0  0  0  0  0
    2.0226    1.9979   -8.1278 H   0  0  0  0  0  0  0  0  0  0  0  0
   -2.2403   -1.2641   -0.8412 H   0  0  0  0  0  0  0  0  0  0  0  0
   -3.4790   -1.2133    0.3907 H   0  0  0  0  0  0  0  0  0  0  0  0
   -1.4991    0.0138    1.1740 H   0  0  0  0  0  0  0  0  0  0  0  0
   -2.8064    1.2214    0.8782 H   0  0  0  0  0  0  0  0  0  0  0  0
   -1.4686    1.0285   -0.3202 H   0  0  0  0  0  0  0  0  0  0  0  0
   -0.7131   -2.0888   -4.0522 H   0  0  0  0  0  0  0  0  0  0  0  0
   -0.9774   -2.0986   -2.3153 H   0  0  0  0  0  0  0  0  0  0  0  0
   -3.1778   -1.7416   -4.4954 H   0  0  0  0  0  0  0  0  0  0  0  0
   -3.4699   -2.1058   -2.7431 H   0  0  0  0  0  0  0  0  0  0  0  0
   -2.6960   -3.3256   -3.7901 H   0  0  0  0  0  0  0  0  0  0  0  0
    4.5709   -3.2671   -8.7763 H   0  0  0  0  0  0  0  0  0  0  0  0
    5.7218   -0.4019   -4.8891 H   0  0  0  0  0  0  0  0  0  0  0  0
    8.1782   -2.8620   -8.2779 H   0  0  0  0  0  0  0  0  0  0  0  0
    8.5819   -6.5831  -12.1309 H   0  0  0  0  0  0  0  0  0  0  0  0
    4.0809   -7.4542   -9.8897 H   0  0  0  0  0  0  0  0  0  0  0  0
    4.8819   -9.8661  -12.3252 H   0  0  0  0  0  0  0  0  0  0  0  0
    2.9595   -8.6273  -13.5178 H   0  0  0  0  0  0  0  0  0  0  0  0
    3.3906   -6.0088  -13.5210 H   0  0  0  0  0  0  0  0  0  0  0  0
    5.6711   -5.5571  -14.6760 H   0  0  0  0  0  0  0  0  0  0  0  0
    6.7170   -7.8885  -15.4036 H   0  0  0  0  0  0  0  0  0  0  0  0
    4.1454   -8.2879  -15.8598 H   0  0  0  0  0  0  0  0  0  0  0  0
    4.8378   -9.7611  -15.0350 H   0  0  0  0  0  0  0  0  0  0  0  0
    6.9578   -9.4678  -13.3716 H   0  0  0  0  0  0  0  0  0  0  0  0
  1  2  2  3
  2  3  1  0
  3  4  2  0
  3  5  1  0
  5  6  2  0
  6  7  1  0
  7  8  2  0
  8  9  1  0
  9 10  2  0
 10 11  1  0
 11 12  2  3
 12 13  1  0
 13 14  3  0
 12 15  1  0
 15 16  3  0
  8 17  1  0
 17 18  1  0
 18 19  1  0
 19 20  2  0
 20 21  1  0
 21 22  1  0
 21 23  1  0
  1 24  1  0
 24 25  2  0
 25 26  1  0
 26 27  2  0
 27 28  1  0
 28 29  2  0
 29 30  1  0
 30 31  2  0
 31 32  1  0
 32 33  1  0
 33 34  1  0
 34 35  1  0
 32 36  2  0
 27 37  1  0
 37 38  2  0
 38 39  1  0
 39 40  1  0
 40 41  2  0
 41 42  1  0
 42 43  2  0
 43 44  1  0
 44 45  1  0
 45 46  1  0
 46 47  1  0
 44 48  2  0
 39 49  2  0
 49 50  1  0
 38 51  1  0
 51 52  2  0
 52 53  1  0
 52 54  1  0
 54 55  2  0
 55 56  1  0
 56 57  2  0
 57 58  1  0
 58 59  2  0
 59 60  1  0
 60 61  1  0
 61 62  1  0
 60 63  2  0
 55 64  1  0
 64 65  1  0
 65 66  1  0
 66 67  1  0
 67 68  1  0
 68 69  1  0
 69 70  2  0
 70 71  1  0
 71 72  1  0
 69 73  1  0
 73 74  1  0
 74 75  1  0
 75 76  1  0
 76 77  1  0
 77 78  1  0
 78 79  2  0
 79 80  1  0
 80 81  2  0
 81 82  1  0
 82 83  1  0
 83 84  1  0
 82 85  2  0
 77 86  2  0
 86 87  1  0
 87 88  1  0
 88 89  1  0
 89 90  1  0
 90 91  1  0
 91 92  1  0
 92 93  1  0
 93 94  1  0
 94 95  1  0
 95 96  1  0
 93 97  1  0
 97 98  1  0
 90 99  1  0
 99100  1  0
 86101  1  0
101102  2  0
102103  1  0
102104  1  0
104105  2  0
105106  1  0
106107  1  0
106108  2  0
105109  1  0
109110  2  3
110111  1  0
111112  2  0
111113  1  0
113114  2  0
114115  1  0
115116  2  0
116117  1  0
117118  2  0
118119  1  0
119120  2  3
120121  1  0
121122  3  0
120123  1  0
123124  3  0
116125  1  0
125126  1  0
126127  1  0
127128  2  0
128129  1  0
129130  1  0
129131  1  0
 11  2  1  0
 23 17  1  0
 50 24  1  0
 96 54  1  0
108101  1  0
119110  1  0
131125  1  0
 10  5  1  0
 22 18  1  0
 49 26  1  0
 63 56  1  0
 95 64  2  0
118113  1  0
130126  1  0
 23  7  1  0
 36 28  1  0
 53 37  1  0
 94 66  2  0
131115  1  0
 48 40  1  0
 92 67  2  0
 72 68  2  0
 91 73  2  0
 89 74  2  0
 88 76  2  0
 85 78  1  0
  1132  1  0
  6133  1  0
  9134  1  0
 17135  1  0
 18136  1  0
 19137  1  0
 20138  1  0
 21139  1  0
 22140  1  0
 22141  1  0
 23142  1  0
 25143  1  0
 29144  1  0
 30145  1  0
 31146  1  0
 34147  1  0
 34148  1  0
 35149  1  0
 35150  1  0
 35151  1  0
 36152  1  0
 41153  1  0
 42154  1  0
 43155  1  0
 46156  1  0
 46157  1  0
 47158  1  0
 47159  1  0
 47160  1  0
 48161  1  0
 51162  1  0
 57163  1  0
 58164  1  0
 59165  1  0
 61166  1  0
 61167  1  0
 62168  1  0
 62169  1  0
 62170  1  0
 63171  1  0
 79172  1  0
 80173  1  0
 81174  1  0
 83175  1  0
 83176  1  0
 84177  1  0
 84178  1  0
 84179  1  0
 85180  1  0
 97181  1  0
 97182  1  0
 98183  1  0
 98184  1  0
 98185  1  0
 99186  1  0
 99187  1  0
100188  1  0
100189  1  0
100190  1  0
104191  1  0
108192  1  0
109193  1  0
114194  1  0
117195  1  0
125196  1  0
126197  1  0
127198  1  0
128199  1  0
129200  1  0
130201  1  0
130202  1  0
131203  1  0
M  END

