
     RDKit          3D

230256  0  0  0  0  0  0  0  0999 V2000
   -2.5082    0.0433    8.2096 C   0  0  0  0  0  0  0  0  0  0  0  0
   -1.2366   -0.3762    8.3695 C   0  0  0  0  0  0  0  0  0  0  0  0
   -0.0776    0.5341    8.2839 C   0  0  0  0  0  0  0  0  0  0  0  0
   -0.0077    1.6833    8.8036 O   0  0  0  0  0  0  0  0  0  0  0  0
    0.9573   -0.0740    7.4585 C   0  0  0  0  0  0  0  0  0  0  0  0
    2.0712    0.5560    6.8590 C   0  0  0  0  0  0  0  0  0  0  0  0
    2.6415   -0.1693    5.8272 C   0  0  0  0  0  0  0  0  0  0  0  0
    2.1461   -1.4473    5.4058 C   0  0  0  0  0  0  0  0  0  0  0  0
    1.0942   -2.1049    6.0350 C   0  0  0  0  0  0  0  0  0  0  0  0
    0.5147   -1.3713    7.1059 C   0  0  0  0  0  0  0  0  0  0  0  0
   -0.7789   -1.6617    7.7622 C   0  0  0  0  0  0  0  0  0  0  0  0
   -1.1862   -2.8686    8.1773 C   0  0  0  0  0  0  0  0  0  0  0  0
   -2.4736   -3.3368    7.7056 C   0  0  0  0  0  0  0  0  0  0  0  0
   -3.4397   -3.7732    7.2203 N   0  0  0  0  0  0  0  0  0  0  0  0
   -0.1887   -3.9094    8.3403 C   0  0  0  0  0  0  0  0  0  0  0  0
    0.6886   -4.6678    8.3947 N   0  0  0  0  0  0  0  0  0  0  0  0
    3.1334   -1.4639    4.2784 C   0  0  0  0  0  0  0  0  0  0  0  0
    4.3418   -2.4319    4.4362 C   0  0  0  0  0  0  0  0  0  0  0  0
    5.3411   -1.9910    3.3913 C   0  0  0  0  0  0  0  0  0  0  0  0
    5.8274   -0.8198    3.7926 C   0  0  0  0  0  0  0  0  0  0  0  0
    5.1344   -0.4884    5.0955 C   0  0  0  0  0  0  0  0  0  0  0  0
    5.0421   -1.8911    5.6701 C   0  0  0  0  0  0  0  0  0  0  0  0
    3.6564   -0.1718    4.7144 C   0  0  0  0  0  0  0  0  0  0  0  0
   -2.7249    1.1876    7.3166 C   0  0  0  0  0  0  0  0  0  0  0  0
   -2.7285    2.5376    7.6768 C   0  0  0  0  0  0  0  0  0  0  0  0
   -2.4007    3.3951    6.5919 C   0  0  0  0  0  0  0  0  0  0  0  0
   -2.3257    4.8139    6.5906 C   0  0  0  0  0  0  0  0  0  0  0  0
   -2.9180    5.6222    7.6787 C   0  0  0  0  0  0  0  0  0  0  0  0
   -2.5116    5.4557    9.0085 C   0  0  0  0  0  0  0  0  0  0  0  0
   -3.2318    6.0608   10.0457 C   0  0  0  0  0  0  0  0  0  0  0  0
   -4.3211    6.8772    9.7538 C   0  0  0  0  0  0  0  0  0  0  0  0
   -4.6803    7.1203    8.4243 C   0  0  0  0  0  0  0  0  0  0  0  0
   -6.0916    8.1669    8.0370 S   0  0  0  0  0  0  0  0  0  0  0  0
   -7.2833    6.7970    7.8070 C   0  0  0  0  0  0  0  0  0  0  0  0
   -7.6476    6.6656    6.3358 C   0  0  0  0  0  0  0  0  0  0  0  0
   -3.9963    6.4850    7.3889 C   0  0  0  0  0  0  0  0  0  0  0  0
   -1.8751    5.4131    5.3928 C   0  0  0  0  0  0  0  0  0  0  0  0
   -1.5746    4.6648    4.2519 C   0  0  0  0  0  0  0  0  0  0  0  0
   -1.7690    3.2783    4.2328 C   0  0  0  0  0  0  0  0  0  0  0  0
   -1.7983    2.5079    2.9691 C   0  0  0  0  0  0  0  0  0  0  0  0
   -3.0047    2.4253    2.2495 C   0  0  0  0  0  0  0  0  0  0  0  0
   -3.0609    1.6767    1.0776 C   0  0  0  0  0  0  0  0  0  0  0  0
   -1.9252    1.0230    0.6016 C   0  0  0  0  0  0  0  0  0  0  0  0
   -0.7250    1.0961    1.3169 C   0  0  0  0  0  0  0  0  0  0  0  0
    0.7661    0.3181    0.6706 S   0  0  0  0  0  0  0  0  0  0  0  0
    0.2015   -1.4162    0.8856 C   0  0  0  0  0  0  0  0  0  0  0  0
   -0.3375   -1.9837   -0.4345 C   0  0  0  0  0  0  0  0  0  0  0  0
   -0.6656    1.8219    2.5174 C   0  0  0  0  0  0  0  0  0  0  0  0
   -2.1450    2.6789    5.4198 C   0  0  0  0  0  0  0  0  0  0  0  0
   -2.3482    1.0377    5.6850 S   0  0  0  0  0  0  0  0  0  0  0  0
   -1.2404    5.4341    3.1356 C   0  0  0  0  0  0  0  0  0  0  0  0
   -1.3080    6.8040    3.3566 C   0  0  0  0  0  0  0  0  0  0  0  0
   -1.8034    7.0565    4.9539 S   0  0  0  0  0  0  0  0  0  0  0  0
   -1.5099    7.7252    2.2317 C   0  0  0  0  0  0  0  0  0  0  0  0
   -0.5008    8.4485    1.5515 C   0  0  0  0  0  0  0  0  0  0  0  0
    0.7154    9.0237    2.1870 C   0  0  0  0  0  0  0  0  0  0  0  0
    1.0848   10.3450    1.8810 C   0  0  0  0  0  0  0  0  0  0  0  0
    2.1520   10.9558    2.5350 C   0  0  0  0  0  0  0  0  0  0  0  0
    2.8821   10.2493    3.4982 C   0  0  0  0  0  0  0  0  0  0  0  0
    2.5494    8.9218    3.7900 C   0  0  0  0  0  0  0  0  0  0  0  0
    3.3121    8.1619    4.8466 C   0  0  0  0  0  0  0  0  0  0  0  0
    2.5456    8.1800    6.1684 C   0  0  0  0  0  0  0  0  0  0  0  0
    1.4745    8.3056    3.1277 C   0  0  0  0  0  0  0  0  0  0  0  0
   -0.8144    8.6066    0.1820 C   0  0  0  0  0  0  0  0  0  0  0  0
    0.1930    8.8358   -1.1813 S   0  0  0  0  0  0  0  0  0  0  0  0
   -0.9854    8.1999   -2.2324 C   0  0  0  0  0  0  0  0  0  0  0  0
   -0.9270    7.4872   -3.4069 C   0  0  0  0  0  0  0  0  0  0  0  0
   -0.0505    7.4889   -4.5000 C   0  0  0  0  0  0  0  0  0  0  0  0
   -0.3002    6.5803   -5.5896 C   0  0  0  0  0  0  0  0  0  0  0  0
    0.5772    6.6213   -6.6247 N   0  0  0  0  0  0  0  0  0  0  0  0
    1.5903    7.8203   -6.0922 S   0  0  0  0  0  0  0  0  0  0  0  0
    1.0211    8.3108   -4.6166 N   0  0  0  0  0  0  0  0  0  0  0  0
   -1.3560    5.6565   -5.4786 C   0  0  0  0  0  0  0  0  0  0  0  0
   -1.5470    4.4567   -6.1162 C   0  0  0  0  0  0  0  0  0  0  0  0
   -0.6585    3.5480   -7.2541 S   0  0  0  0  0  0  0  0  0  0  0  0
   -1.2505    2.0821   -6.6170 C   0  0  0  0  0  0  0  0  0  0  0  0
   -0.8349    0.7612   -6.7704 C   0  0  0  0  0  0  0  0  0  0  0  0
   -0.3485    0.1957   -8.0326 C   0  0  0  0  0  0  0  0  0  0  0  0
    1.0107   -0.0593   -8.2597 C   0  0  0  0  0  0  0  0  0  0  0  0
    1.4103   -0.7106   -9.4301 C   0  0  0  0  0  0  0  0  0  0  0  0
    0.4578   -1.1273  -10.3660 C   0  0  0  0  0  0  0  0  0  0  0  0
   -0.9027   -0.8694  -10.1535 C   0  0  0  0  0  0  0  0  0  0  0  0
   -1.9527   -1.3496  -11.1233 C   0  0  0  0  0  0  0  0  0  0  0  0
   -2.6246   -2.6247  -10.6134 C   0  0  0  0  0  0  0  0  0  0  0  0
   -1.2957   -0.2005   -8.9874 C   0  0  0  0  0  0  0  0  0  0  0  0
   -1.2793   -0.0533   -5.7141 C   0  0  0  0  0  0  0  0  0  0  0  0
   -2.1745    0.8857   -4.6176 S   0  0  0  0  0  0  0  0  0  0  0  0
   -2.0309    2.3052   -5.5128 C   0  0  0  0  0  0  0  0  0  0  0  0
   -2.2412    3.6594   -5.2555 C   0  0  0  0  0  0  0  0  0  0  0  0
   -2.5850    4.3021   -4.1155 N   0  0  0  0  0  0  0  0  0  0  0  0
   -2.1151    5.5751   -4.3020 C   0  0  0  0  0  0  0  0  0  0  0  0
   -1.9956    6.5929   -3.3272 C   0  0  0  0  0  0  0  0  0  0  0  0
   -2.7594    6.7939   -2.2171 N   0  0  0  0  0  0  0  0  0  0  0  0
   -2.0971    7.7846   -1.5657 C   0  0  0  0  0  0  0  0  0  0  0  0
   -2.0089    8.0435   -0.2004 C   0  0  0  0  0  0  0  0  0  0  0  0
   -2.7220    7.3250    1.1168 S   0  0  0  0  0  0  0  0  0  0  0  0
   -4.2280    6.6508   -2.2088 C   0  0  0  0  0  0  0  0  0  0  0  0
   -4.7761    6.0229   -0.9224 C   0  0  0  0  0  0  0  0  0  0  0  0
   -2.7189    3.6175   -2.8185 C   0  0  0  0  0  0  0  0  0  0  0  0
   -1.3377    3.3632   -2.2088 C   0  0  0  0  0  0  0  0  0  0  0  0
   -0.6340   -1.3042   -5.3258 C   0  0  0  0  0  0  0  0  0  0  0  0
    0.6351   -1.3650   -4.7620 C   0  0  0  0  0  0  0  0  0  0  0  0
    1.0041   -2.6659   -4.3779 C   0  0  0  0  0  0  0  0  0  0  0  0
    2.2348   -3.0597   -3.8001 C   0  0  0  0  0  0  0  0  0  0  0  0
    3.3784   -2.1127   -3.6550 C   0  0  0  0  0  0  0  0  0  0  0  0
    3.2339   -0.9074   -2.9342 C   0  0  0  0  0  0  0  0  0  0  0  0
    4.2863    0.0130   -2.8985 C   0  0  0  0  0  0  0  0  0  0  0  0
    5.5083   -0.2867   -3.5245 C   0  0  0  0  0  0  0  0  0  0  0  0
    5.6588   -1.4984   -4.1929 C   0  0  0  0  0  0  0  0  0  0  0  0
    7.2096   -1.8800   -5.0190 S   0  0  0  0  0  0  0  0  0  0  0  0
    6.5859   -1.3767   -6.6562 C   0  0  0  0  0  0  0  0  0  0  0  0
    7.6981   -1.4474   -7.6860 C   0  0  0  0  0  0  0  0  0  0  0  0
    4.5953   -2.4070   -4.2615 C   0  0  0  0  0  0  0  0  0  0  0  0
    2.3877   -4.4277   -3.5156 C   0  0  0  0  0  0  0  0  0  0  0  0
    1.4175   -5.3815   -3.8378 C   0  0  0  0  0  0  0  0  0  0  0  0
    0.2039   -4.9938   -4.4555 C   0  0  0  0  0  0  0  0  0  0  0  0
   -0.7142   -5.9885   -5.0484 C   0  0  0  0  0  0  0  0  0  0  0  0
   -1.4018   -6.9126   -4.2488 C   0  0  0  0  0  0  0  0  0  0  0  0
   -2.1919   -7.9036   -4.8400 C   0  0  0  0  0  0  0  0  0  0  0  0
   -2.2923   -7.9756   -6.2349 C   0  0  0  0  0  0  0  0  0  0  0  0
   -1.6212   -7.0415   -7.0336 C   0  0  0  0  0  0  0  0  0  0  0  0
   -1.7541   -7.1178   -8.8245 S   0  0  0  0  0  0  0  0  0  0  0  0
   -0.1533   -7.9643   -9.0882 C   0  0  0  0  0  0  0  0  0  0  0  0
   -0.2581   -9.4491   -8.7708 C   0  0  0  0  0  0  0  0  0  0  0  0
   -0.8529   -6.0405   -6.4412 C   0  0  0  0  0  0  0  0  0  0  0  0
    0.0157   -3.6186   -4.6748 C   0  0  0  0  0  0  0  0  0  0  0  0
   -1.3176   -2.8444   -5.3622 S   0  0  0  0  0  0  0  0  0  0  0  0
    1.8236   -6.6981   -3.5576 C   0  0  0  0  0  0  0  0  0  0  0  0
    3.0885   -6.7607   -2.9696 C   0  0  0  0  0  0  0  0  0  0  0  0
    3.7350   -5.2085   -2.8710 S   0  0  0  0  0  0  0  0  0  0  0  0
    3.8157   -8.0003   -2.6993 C   0  0  0  0  0  0  0  0  0  0  0  0
    3.7307   -8.6369   -1.5195 C   0  0  0  0  0  0  0  0  0  0  0  0
    4.2396   -9.9789   -1.2895 C   0  0  0  0  0  0  0  0  0  0  0  0
    4.9286  -10.6550   -2.0970 O   0  0  0  0  0  0  0  0  0  0  0  0
    3.7825  -10.4120    0.0181 C   0  0  0  0  0  0  0  0  0  0  0  0
    4.0027  -11.6335    0.6711 C   0  0  0  0  0  0  0  0  0  0  0  0
    4.9750  -12.8912   -0.0963 Cl  0  0  0  0  0  0  0  0  0  0  0  0
    3.4671  -11.8128    1.9538 C   0  0  0  0  0  0  0  0  0  0  0  0
    3.7378  -13.3324    2.8148 Cl  0  0  0  0  0  0  0  0  0  0  0  0
    2.7129  -10.7828    2.5592 C   0  0  0  0  0  0  0  0  0  0  0  0
    2.0523  -11.0141    4.1760 Cl  0  0  0  0  0  0  0  0  0  0  0  0
    2.4938   -9.5601    1.8853 C   0  0  0  0  0  0  0  0  0  0  0  0
    1.5285   -8.3002    2.6502 Cl  0  0  0  0  0  0  0  0  0  0  0  0
    3.0420   -9.3886    0.5960 C   0  0  0  0  0  0  0  0  0  0  0  0
    2.9855   -8.2056   -0.3013 C   0  0  0  0  0  0  0  0  0  0  0  0
    3.1104   -6.9610    0.2012 C   0  0  0  0  0  0  0  0  0  0  0  0
    4.3942   -6.2998    0.2296 C   0  0  0  0  0  0  0  0  0  0  0  0
    5.4166   -5.7566    0.2526 N   0  0  0  0  0  0  0  0  0  0  0  0
    1.9326   -6.1573    0.3834 C   0  0  0  0  0  0  0  0  0  0  0  0
    0.9891   -5.4980    0.5376 N   0  0  0  0  0  0  0  0  0  0  0  0
   -3.2815   -0.7114    8.1418 H   0  0  0  0  0  0  0  0  0  0  0  0
    2.3826    1.5636    7.1049 H   0  0  0  0  0  0  0  0  0  0  0  0
    0.6888   -3.0316    5.6653 H   0  0  0  0  0  0  0  0  0  0  0  0
    2.6439   -1.4483    3.2871 H   0  0  0  0  0  0  0  0  0  0  0  0
    4.0961   -3.5148    4.4333 H   0  0  0  0  0  0  0  0  0  0  0  0
    5.6731   -2.5421    2.5125 H   0  0  0  0  0  0  0  0  0  0  0  0
    6.6158   -0.2359    3.3105 H   0  0  0  0  0  0  0  0  0  0  0  0
    5.6519    0.2589    5.7325 H   0  0  0  0  0  0  0  0  0  0  0  0
    6.0316   -2.3718    5.8679 H   0  0  0  0  0  0  0  0  0  0  0  0
    4.4359   -1.9668    6.5942 H   0  0  0  0  0  0  0  0  0  0  0  0
    3.5206    0.6603    3.9867 H   0  0  0  0  0  0  0  0  0  0  0  0
   -2.8665    2.8649    8.6872 H   0  0  0  0  0  0  0  0  0  0  0  0
   -1.6703    4.8125    9.2518 H   0  0  0  0  0  0  0  0  0  0  0  0
   -2.9631    5.8578   11.0742 H   0  0  0  0  0  0  0  0  0  0  0  0
   -4.9011    7.3118   10.5626 H   0  0  0  0  0  0  0  0  0  0  0  0
   -6.8767    5.8325    8.1783 H   0  0  0  0  0  0  0  0  0  0  0  0
   -8.2066    7.0223    8.3830 H   0  0  0  0  0  0  0  0  0  0  0  0
   -8.3252    5.7978    6.1963 H   0  0  0  0  0  0  0  0  0  0  0  0
   -6.7299    6.5281    5.7267 H   0  0  0  0  0  0  0  0  0  0  0  0
   -8.1734    7.5816    5.9922 H   0  0  0  0  0  0  0  0  0  0  0  0
   -4.3222    6.6247    6.3679 H   0  0  0  0  0  0  0  0  0  0  0  0
   -3.8870    2.9324    2.6070 H   0  0  0  0  0  0  0  0  0  0  0  0
   -3.9860    1.6097    0.5215 H   0  0  0  0  0  0  0  0  0  0  0  0
   -1.9851    0.4677   -0.3260 H   0  0  0  0  0  0  0  0  0  0  0  0
   -0.5676   -1.4899    1.6838 H   0  0  0  0  0  0  0  0  0  0  0  0
    1.0739   -2.0150    1.2186 H   0  0  0  0  0  0  0  0  0  0  0  0
   -0.1045   -1.3040   -1.2893 H   0  0  0  0  0  0  0  0  0  0  0  0
    0.1087   -2.9769   -0.6449 H   0  0  0  0  0  0  0  0  0  0  0  0
   -1.4393   -2.1099   -0.3705 H   0  0  0  0  0  0  0  0  0  0  0  0
    0.2706    1.8789    3.0688 H   0  0  0  0  0  0  0  0  0  0  0  0
   -1.0554    5.0065    2.1500 H   0  0  0  0  0  0  0  0  0  0  0  0
    0.5159   10.9199    1.1696 H   0  0  0  0  0  0  0  0  0  0  0  0
    2.4129   11.9868    2.3118 H   0  0  0  0  0  0  0  0  0  0  0  0
    3.7012   10.7317    3.9949 H   0  0  0  0  0  0  0  0  0  0  0  0
    4.3179    8.6159    5.0050 H   0  0  0  0  0  0  0  0  0  0  0  0
    3.4631    7.1134    4.5174 H   0  0  0  0  0  0  0  0  0  0  0  0
    1.5630    7.6651    6.0589 H   0  0  0  0  0  0  0  0  0  0  0  0
    3.1305    7.6512    6.9483 H   0  0  0  0  0  0  0  0  0  0  0  0
    2.3838    9.2246    6.5049 H   0  0  0  0  0  0  0  0  0  0  0  0
    1.2415    7.2764    3.3511 H   0  0  0  0  0  0  0  0  0  0  0  0
    1.7433    0.2237   -7.5239 H   0  0  0  0  0  0  0  0  0  0  0  0
    2.4639   -0.9072   -9.6069 H   0  0  0  0  0  0  0  0  0  0  0  0
    0.7822   -1.6402  -11.2546 H   0  0  0  0  0  0  0  0  0  0  0  0
   -2.7214   -0.5634  -11.2604 H   0  0  0  0  0  0  0  0  0  0  0  0
   -1.5027   -1.5539  -12.1154 H   0  0  0  0  0  0  0  0  0  0  0  0
   -3.4451   -2.9119  -11.3031 H   0  0  0  0  0  0  0  0  0  0  0  0
   -1.8847   -3.4508  -10.5629 H   0  0  0  0  0  0  0  0  0  0  0  0
   -3.0591   -2.4608   -9.6030 H   0  0  0  0  0  0  0  0  0  0  0  0
   -2.3480   -0.0232   -8.7972 H   0  0  0  0  0  0  0  0  0  0  0  0
   -4.5598    6.0363   -3.0760 H   0  0  0  0  0  0  0  0  0  0  0  0
   -4.6996    7.6513   -2.3530 H   0  0  0  0  0  0  0  0  0  0  0  0
   -5.1420    6.8208   -0.2449 H   0  0  0  0  0  0  0  0  0  0  0  0
   -5.6430    5.3667   -1.1659 H   0  0  0  0  0  0  0  0  0  0  0  0
   -4.0145    5.4119   -0.4039 H   0  0  0  0  0  0  0  0  0  0  0  0
   -3.2782    2.6746   -2.9292 H   0  0  0  0  0  0  0  0  0  0  0  0
   -3.3092    4.2117   -2.1158 H   0  0  0  0  0  0  0  0  0  0  0  0
   -1.0404    4.2182   -1.5612 H   0  0  0  0  0  0  0  0  0  0  0  0
   -1.3636    2.4457   -1.5912 H   0  0  0  0  0  0  0  0  0  0  0  0
   -0.5608    3.2217   -2.9952 H   0  0  0  0  0  0  0  0  0  0  0  0
    1.2604   -0.4932   -4.6464 H   0  0  0  0  0  0  0  0  0  0  0  0
    2.3075   -0.6694   -2.4337 H   0  0  0  0  0  0  0  0  0  0  0  0
    4.1621    0.9624   -2.3890 H   0  0  0  0  0  0  0  0  0  0  0  0
    6.3108    0.4355   -3.4943 H   0  0  0  0  0  0  0  0  0  0  0  0
    5.7635   -2.0615   -6.9540 H   0  0  0  0  0  0  0  0  0  0  0  0
    6.1864   -0.3408   -6.6099 H   0  0  0  0  0  0  0  0  0  0  0  0
    7.2717   -1.2558   -8.6962 H   0  0  0  0  0  0  0  0  0  0  0  0
    8.1677   -2.4549   -7.6719 H   0  0  0  0  0  0  0  0  0  0  0  0
    8.4615   -0.6688   -7.4611 H   0  0  0  0  0  0  0  0  0  0  0  0
    4.7164   -3.3119   -4.8511 H   0  0  0  0  0  0  0  0  0  0  0  0
   -1.3091   -6.8823   -3.1689 H   0  0  0  0  0  0  0  0  0  0  0  0
   -2.7150   -8.6228   -4.2259 H   0  0  0  0  0  0  0  0  0  0  0  0
   -2.8824   -8.7614   -6.6925 H   0  0  0  0  0  0  0  0  0  0  0  0
    0.6440   -7.4965   -8.4787 H   0  0  0  0  0  0  0  0  0  0  0  0
    0.1258   -7.8488  -10.1558 H   0  0  0  0  0  0  0  0  0  0  0  0
   -1.0962   -9.9062   -9.3371 H   0  0  0  0  0  0  0  0  0  0  0  0
    0.6899   -9.9603   -9.0511 H   0  0  0  0  0  0  0  0  0  0  0  0
   -0.4266   -9.6023   -7.6874 H   0  0  0  0  0  0  0  0  0  0  0  0
   -0.3186   -5.3377   -7.0660 H   0  0  0  0  0  0  0  0  0  0  0  0
    1.2423   -7.5827   -3.7815 H   0  0  0  0  0  0  0  0  0  0  0  0
    4.3483   -8.4677   -3.5152 H   0  0  0  0  0  0  0  0  0  0  0  0
  1  2  2  3
  2  3  1  0
  3  4  2  0
  3  5  1  0
  5  6  2  0
  6  7  1  0
  7  8  2  0
  8  9  1  0
  9 10  2  0
 10 11  1  0
 11 12  2  3
 12 13  1  0
 13 14  3  0
 12 15  1  0
 15 16  3  0
  8 17  1  0
 17 18  1  0
 18 19  1  0
 19 20  2  0
 20 21  1  0
 21 22  1  0
 21 23  1  0
  1 24  1  0
 24 25  2  0
 25 26  1  0
 26 27  2  0
 27 28  1  0
 28 29  2  0
 29 30  1  0
 30 31  2  0
 31 32  1  0
 32 33  1  0
 33 34  1  0
 34 35  1  0
 32 36  2  0
 27 37  1  0
 37 38  2  0
 38 39  1  0
 39 40  1  0
 40 41  2  0
 41 42  1  0
 42 43  2  0
 43 44  1  0
 44 45  1  0
 45 46  1  0
 46 47  1  0
 44 48  2  0
 39 49  2  0
 49 50  1  0
 38 51  1  0
 51 52  2  0
 52 53  1  0
 52 54  1  0
 54 55  2  0
 55 56  1  0
 56 57  2  0
 57 58  1  0
 58 59  2  0
 59 60  1  0
 60 61  1  0
 61 62  1  0
 60 63  2  0
 55 64  1  0
 64 65  1  0
 65 66  1  0
 66 67  1  0
 67 68  1  0
 68 69  1  0
 69 70  2  0
 70 71  1  0
 71 72  1  0
 69 73  1  0
 73 74  1  0
 74 75  1  0
 75 76  1  0
 76 77  1  0
 77 78  1  0
 78 79  2  0
 79 80  1  0
 80 81  2  0
 81 82  1  0
 82 83  1  0
 83 84  1  0
 82 85  2  0
 77 86  2  0
 86 87  1  0
 87 88  1  0
 88 89  1  0
 89 90  1  0
 90 91  1  0
 91 92  1  0
 92 93  1  0
 93 94  1  0
 94 95  1  0
 95 96  1  0
 93 97  1  0
 97 98  1  0
 90 99  1  0
 99100  1  0
 86101  1  0
101102  2  0
102103  1  0
103104  2  0
104105  1  0
105106  2  0
106107  1  0
107108  2  0
108109  1  0
109110  1  0
110111  1  0
111112  1  0
109113  2  0
104114  1  0
114115  2  0
115116  1  0
116117  1  0
117118  2  0
118119  1  0
119120  2  0
120121  1  0
121122  1  0
122123  1  0
123124  1  0
121125  2  0
116126  2  0
126127  1  0
115128  1  0
128129  2  0
129130  1  0
129131  1  0
131132  2  3
132133  1  0
133134  2  0
133135  1  0
135136  2  0
136137  1  0
136138  1  0
138139  1  0
138140  2  0
140141  1  0
140142  1  0
142143  1  0
142144  2  0
144145  1  0
145146  2  3
146147  1  0
147148  3  0
146149  1  0
149150  3  0
 11  2  1  0
 23 17  1  0
 50 24  1  0
 96 54  1  0
127101  1  0
145132  1  0
 10  5  1  0
 22 18  1  0
 49 26  1  0
 63 56  1  0
 95 64  2  0
126103  1  0
144135  1  0
 23  7  1  0
 36 28  1  0
 53 37  1  0
 94 66  2  0
113105  1  0
130114  1  0
 48 40  1  0
 92 67  2  0
125117  1  0
 72 68  2  0
 91 73  2  0
 89 74  2  0
 88 76  2  0
 85 78  1  0
  1151  1  0
  6152  1  0
  9153  1  0
 17154  1  0
 18155  1  0
 19156  1  0
 20157  1  0
 21158  1  0
 22159  1  0
 22160  1  0
 23161  1  0
 25162  1  0
 29163  1  0
 30164  1  0
 31165  1  0
 34166  1  0
 34167  1  0
 35168  1  0
 35169  1  0
 35170  1  0
 36171  1  0
 41172  1  0
 42173  1  0
 43174  1  0
 46175  1  0
 46176  1  0
 47177  1  0
 47178  1  0
 47179  1  0
 48180  1  0
 51181  1  0
 57182  1  0
 58183  1  0
 59184  1  0
 61185  1  0
 61186  1  0
 62187  1  0
 62188  1  0
 62189  1  0
 63190  1  0
 79191  1  0
 80192  1  0
 81193  1  0
 83194  1  0
 83195  1  0
 84196  1  0
 84197  1  0
 84198  1  0
 85199  1  0
 97200  1  0
 97201  1  0
 98202  1  0
 98203  1  0
 98204  1  0
 99205  1  0
 99206  1  0
100207  1  0
100208  1  0
100209  1  0
102210  1  0
106211  1  0
107212  1  0
108213  1  0
111214  1  0
111215  1  0
112216  1  0
112217  1  0
112218  1  0
113219  1  0
118220  1  0
119221  1  0
120222  1  0
123223  1  0
123224  1  0
124225  1  0
124226  1  0
124227  1  0
125228  1  0
128229  1  0
131230  1  0
M  END

