
     RDKit          3D

236263  0  0  0  0  0  0  0  0999 V2000
    6.6267    3.4930    5.0802 C   0  0  0  0  0  0  0  0  0  0  0  0
    6.7053    2.3147    5.7261 C   0  0  0  0  0  0  0  0  0  0  0  0
    7.6742    2.0857    6.7985 C   0  0  0  0  0  0  0  0  0  0  0  0
    8.6372    2.8433    7.0983 O   0  0  0  0  0  0  0  0  0  0  0  0
    7.2633    0.9247    7.5568 C   0  0  0  0  0  0  0  0  0  0  0  0
    7.8564    0.4098    8.7317 C   0  0  0  0  0  0  0  0  0  0  0  0
    7.2064   -0.6970    9.2451 C   0  0  0  0  0  0  0  0  0  0  0  0
    6.0234   -1.2538    8.6613 C   0  0  0  0  0  0  0  0  0  0  0  0
    5.4204   -0.7350    7.5283 C   0  0  0  0  0  0  0  0  0  0  0  0
    6.0992    0.3764    6.9555 C   0  0  0  0  0  0  0  0  0  0  0  0
    5.7818    1.1345    5.7114 C   0  0  0  0  0  0  0  0  0  0  0  0
    5.1715    0.6114    4.6175 C   0  0  0  0  0  0  0  0  0  0  0  0
    5.3070    1.1886    3.3095 C   0  0  0  0  0  0  0  0  0  0  0  0
    5.3882    1.6246    2.2364 N   0  0  0  0  0  0  0  0  0  0  0  0
    4.5808   -0.7047    4.6218 C   0  0  0  0  0  0  0  0  0  0  0  0
    4.1225   -1.7701    4.6016 N   0  0  0  0  0  0  0  0  0  0  0  0
    5.9722   -2.3107    9.7265 C   0  0  0  0  0  0  0  0  0  0  0  0
    4.8955   -2.1776   10.8445 C   0  0  0  0  0  0  0  0  0  0  0  0
    4.5857   -0.7186   11.0824 C   0  0  0  0  0  0  0  0  0  0  0  0
    5.6764   -0.1820   11.6344 C   0  0  0  0  0  0  0  0  0  0  0  0
    6.6929   -1.2971   11.7480 C   0  0  0  0  0  0  0  0  0  0  0  0
    5.7514   -2.4452   12.0688 C   0  0  0  0  0  0  0  0  0  0  0  0
    7.1749   -1.7313   10.3316 C   0  0  0  0  0  0  0  0  0  0  0  0
    5.4388    3.9966    4.3811 C   0  0  0  0  0  0  0  0  0  0  0  0
    5.4448    4.5234    3.0929 C   0  0  0  0  0  0  0  0  0  0  0  0
    4.1945    5.0274    2.7043 C   0  0  0  0  0  0  0  0  0  0  0  0
    3.8537    5.5258    1.4290 C   0  0  0  0  0  0  0  0  0  0  0  0
    4.7836    5.4580    0.2866 C   0  0  0  0  0  0  0  0  0  0  0  0
    5.2191    6.6311   -0.3509 C   0  0  0  0  0  0  0  0  0  0  0  0
    6.0492    6.5490   -1.4722 C   0  0  0  0  0  0  0  0  0  0  0  0
    6.4265    5.3027   -1.9773 C   0  0  0  0  0  0  0  0  0  0  0  0
    5.9894    4.1308   -1.3482 C   0  0  0  0  0  0  0  0  0  0  0  0
    6.4755    2.5218   -1.9820 S   0  0  0  0  0  0  0  0  0  0  0  0
    4.9065    2.2589   -2.8756 C   0  0  0  0  0  0  0  0  0  0  0  0
    4.8705    0.8578   -3.4660 C   0  0  0  0  0  0  0  0  0  0  0  0
    5.1758    4.2118   -0.2142 C   0  0  0  0  0  0  0  0  0  0  0  0
    2.5231    5.9326    1.2443 C   0  0  0  0  0  0  0  0  0  0  0  0
    1.5736    5.9047    2.2680 C   0  0  0  0  0  0  0  0  0  0  0  0
    1.9351    5.4668    3.5594 C   0  0  0  0  0  0  0  0  0  0  0  0
    1.0391    5.6271    4.7157 C   0  0  0  0  0  0  0  0  0  0  0  0
    0.3534    4.5319    5.2575 C   0  0  0  0  0  0  0  0  0  0  0  0
   -0.4057    4.6890    6.4215 C   0  0  0  0  0  0  0  0  0  0  0  0
   -0.4638    5.9314    7.0616 C   0  0  0  0  0  0  0  0  0  0  0  0
    0.2220    7.0262    6.5256 C   0  0  0  0  0  0  0  0  0  0  0  0
    0.1731    8.6176    7.3615 S   0  0  0  0  0  0  0  0  0  0  0  0
    1.7838    8.4185    8.2052 C   0  0  0  0  0  0  0  0  0  0  0  0
    1.6662    7.5235    9.4315 C   0  0  0  0  0  0  0  0  0  0  0  0
    0.9529    6.8800    5.3413 C   0  0  0  0  0  0  0  0  0  0  0  0
    3.2450    4.9857    3.7286 C   0  0  0  0  0  0  0  0  0  0  0  0
    3.9264    4.2542    5.0863 S   0  0  0  0  0  0  0  0  0  0  0  0
    0.2775    6.2228    1.8363 C   0  0  0  0  0  0  0  0  0  0  0  0
    0.2057    6.4740    0.4589 C   0  0  0  0  0  0  0  0  0  0  0  0
    1.7542    6.3260   -0.1959 S   0  0  0  0  0  0  0  0  0  0  0  0
   -1.0204    6.4935   -0.3636 C   0  0  0  0  0  0  0  0  0  0  0  0
   -2.3338    6.7942    0.0545 C   0  0  0  0  0  0  0  0  0  0  0  0
   -2.6865    7.3404    1.3791 C   0  0  0  0  0  0  0  0  0  0  0  0
   -2.0907    8.5269    1.8292 C   0  0  0  0  0  0  0  0  0  0  0  0
   -2.3352    8.9901    3.1242 C   0  0  0  0  0  0  0  0  0  0  0  0
   -3.1817    8.2752    3.9770 C   0  0  0  0  0  0  0  0  0  0  0  0
   -3.8000    7.0974    3.5321 C   0  0  0  0  0  0  0  0  0  0  0  0
   -4.6637    6.2937    4.4661 C   0  0  0  0  0  0  0  0  0  0  0  0
   -3.8088    5.3445    5.3004 C   0  0  0  0  0  0  0  0  0  0  0  0
   -3.5466    6.6317    2.2327 C   0  0  0  0  0  0  0  0  0  0  0  0
   -3.2705    6.4305   -0.9241 C   0  0  0  0  0  0  0  0  0  0  0  0
   -4.9672    6.2682   -0.9105 S   0  0  0  0  0  0  0  0  0  0  0  0
   -4.9533    5.5263   -2.4431 C   0  0  0  0  0  0  0  0  0  0  0  0
   -5.7512    4.6031   -3.0659 C   0  0  0  0  0  0  0  0  0  0  0  0
   -6.9931    4.0846   -2.6689 C   0  0  0  0  0  0  0  0  0  0  0  0
   -7.4601    2.8734   -3.2635 C   0  0  0  0  0  0  0  0  0  0  0  0
   -8.6331    2.3716   -2.8072 N   0  0  0  0  0  0  0  0  0  0  0  0
   -8.9984    3.5143   -1.6641 S   0  0  0  0  0  0  0  0  0  0  0  0
   -7.7637    4.6186   -1.6890 N   0  0  0  0  0  0  0  0  0  0  0  0
   -6.6816    2.2714   -4.2538 C   0  0  0  0  0  0  0  0  0  0  0  0
   -6.8163    1.0852   -4.9223 C   0  0  0  0  0  0  0  0  0  0  0  0
   -7.6501   -0.3755   -4.7370 S   0  0  0  0  0  0  0  0  0  0  0  0
   -6.5651   -1.2035   -5.7800 C   0  0  0  0  0  0  0  0  0  0  0  0
   -6.2751   -2.5788   -5.9341 C   0  0  0  0  0  0  0  0  0  0  0  0
   -7.3086   -3.6801   -5.8336 C   0  0  0  0  0  0  0  0  0  0  0  0
   -8.6839   -3.3607   -5.7358 C   0  0  0  0  0  0  0  0  0  0  0  0
   -9.6632   -4.3538   -5.6970 C   0  0  0  0  0  0  0  0  0  0  0  0
   -9.3077   -5.6935   -5.7871 C   0  0  0  0  0  0  0  0  0  0  0  0
   -7.9634   -6.0550   -5.9352 C   0  0  0  0  0  0  0  0  0  0  0  0
   -7.5885   -7.5107   -6.0667 C   0  0  0  0  0  0  0  0  0  0  0  0
   -7.8073   -8.2607   -4.7558 C   0  0  0  0  0  0  0  0  0  0  0  0
   -6.9804   -5.0512   -5.9870 C   0  0  0  0  0  0  0  0  0  0  0  0
   -4.9117   -2.7255   -6.3322 C   0  0  0  0  0  0  0  0  0  0  0  0
   -4.2101   -1.2010   -6.6066 S   0  0  0  0  0  0  0  0  0  0  0  0
   -5.5670   -0.3421   -6.1829 C   0  0  0  0  0  0  0  0  0  0  0  0
   -5.7294    0.9494   -5.7095 C   0  0  0  0  0  0  0  0  0  0  0  0
   -4.8880    2.0050   -5.6353 N   0  0  0  0  0  0  0  0  0  0  0  0
   -5.4494    2.8028   -4.6735 C   0  0  0  0  0  0  0  0  0  0  0  0
   -4.9260    3.9450   -3.9993 C   0  0  0  0  0  0  0  0  0  0  0  0
   -3.6239    4.3736   -3.8692 N   0  0  0  0  0  0  0  0  0  0  0  0
   -3.6950    5.3570   -2.9309 C   0  0  0  0  0  0  0  0  0  0  0  0
   -2.7391    5.8829   -2.0641 C   0  0  0  0  0  0  0  0  0  0  0  0
   -1.0770    5.7898   -1.9137 S   0  0  0  0  0  0  0  0  0  0  0  0
   -2.3891    3.6461   -4.1930 C   0  0  0  0  0  0  0  0  0  0  0  0
   -1.5204    4.4440   -5.1703 C   0  0  0  0  0  0  0  0  0  0  0  0
   -3.9728    2.4008   -6.7166 C   0  0  0  0  0  0  0  0  0  0  0  0
   -4.6699    2.3957   -8.0773 C   0  0  0  0  0  0  0  0  0  0  0  0
   -4.0274   -3.8543   -6.0082 C   0  0  0  0  0  0  0  0  0  0  0  0
   -4.0042   -4.5062   -4.7788 C   0  0  0  0  0  0  0  0  0  0  0  0
   -2.9557   -5.4316   -4.6600 C   0  0  0  0  0  0  0  0  0  0  0  0
   -2.6657   -6.2098   -3.5231 C   0  0  0  0  0  0  0  0  0  0  0  0
   -3.4618   -6.1003   -2.2837 C   0  0  0  0  0  0  0  0  0  0  0  0
   -2.8860   -5.5854   -1.1110 C   0  0  0  0  0  0  0  0  0  0  0  0
   -3.6664   -5.4115    0.0346 C   0  0  0  0  0  0  0  0  0  0  0  0
   -5.0265   -5.7365    0.0144 C   0  0  0  0  0  0  0  0  0  0  0  0
   -5.6018   -6.2552   -1.1512 C   0  0  0  0  0  0  0  0  0  0  0  0
   -7.3505   -6.6463   -1.1957 S   0  0  0  0  0  0  0  0  0  0  0  0
   -7.7978   -5.0864   -2.0266 C   0  0  0  0  0  0  0  0  0  0  0  0
   -9.2907   -5.0571   -2.2985 C   0  0  0  0  0  0  0  0  0  0  0  0
   -4.8166   -6.4533   -2.2907 C   0  0  0  0  0  0  0  0  0  0  0  0
   -1.5557   -7.0625   -3.6030 C   0  0  0  0  0  0  0  0  0  0  0  0
   -0.7305   -7.1249   -4.7315 C   0  0  0  0  0  0  0  0  0  0  0  0
   -0.9691   -6.2846   -5.8474 C   0  0  0  0  0  0  0  0  0  0  0  0
    0.0031   -6.1683   -6.9651 C   0  0  0  0  0  0  0  0  0  0  0  0
   -0.4138   -6.2788   -8.3021 C   0  0  0  0  0  0  0  0  0  0  0  0
    0.5099   -6.1367   -9.3427 C   0  0  0  0  0  0  0  0  0  0  0  0
    1.8601   -5.9142   -9.0575 C   0  0  0  0  0  0  0  0  0  0  0  0
    2.2896   -5.8171   -7.7304 C   0  0  0  0  0  0  0  0  0  0  0  0
    4.0368   -5.6333   -7.3500 S   0  0  0  0  0  0  0  0  0  0  0  0
    4.0334   -3.8057   -7.3058 C   0  0  0  0  0  0  0  0  0  0  0  0
    4.6855   -3.3221   -6.0173 C   0  0  0  0  0  0  0  0  0  0  0  0
    1.3600   -5.9188   -6.6893 C   0  0  0  0  0  0  0  0  0  0  0  0
   -2.1232   -5.4728   -5.7862 C   0  0  0  0  0  0  0  0  0  0  0  0
   -2.6906   -4.3497   -6.9123 S   0  0  0  0  0  0  0  0  0  0  0  0
    0.3192   -8.0508   -4.5866 C   0  0  0  0  0  0  0  0  0  0  0  0
    0.3161   -8.6772   -3.3437 C   0  0  0  0  0  0  0  0  0  0  0  0
   -0.9799   -8.1160   -2.4250 S   0  0  0  0  0  0  0  0  0  0  0  0
    1.4138   -9.4865   -2.8102 C   0  0  0  0  0  0  0  0  0  0  0  0
    2.4066   -8.9435   -2.0819 C   0  0  0  0  0  0  0  0  0  0  0  0
    2.6395   -7.5048   -1.8992 C   0  0  0  0  0  0  0  0  0  0  0  0
    1.8219   -6.5904   -2.1801 O   0  0  0  0  0  0  0  0  0  0  0  0
    3.9904   -7.3077   -1.3900 C   0  0  0  0  0  0  0  0  0  0  0  0
    4.5710   -8.5569   -1.2037 C   0  0  0  0  0  0  0  0  0  0  0  0
    5.9282   -8.6608   -0.8694 C   0  0  0  0  0  0  0  0  0  0  0  0
    6.6727   -7.4931   -0.6524 C   0  0  0  0  0  0  0  0  0  0  0  0
    6.0795   -6.2240   -0.7985 C   0  0  0  0  0  0  0  0  0  0  0  0
    6.8414   -5.0623   -0.5895 C   0  0  0  0  0  0  0  0  0  0  0  0
    6.2605   -3.8020   -0.7544 C   0  0  0  0  0  0  0  0  0  0  0  0
    4.9204   -3.6902   -1.1268 C   0  0  0  0  0  0  0  0  0  0  0  0
    4.1484   -4.8341   -1.3402 C   0  0  0  0  0  0  0  0  0  0  0  0
    4.7154   -6.1155   -1.1813 C   0  0  0  0  0  0  0  0  0  0  0  0
    3.5900   -9.6378   -1.5027 C   0  0  0  0  0  0  0  0  0  0  0  0
    3.6434  -10.9252   -1.0709 C   0  0  0  0  0  0  0  0  0  0  0  0
    4.7305  -11.4243   -0.2681 C   0  0  0  0  0  0  0  0  0  0  0  0
    5.5901  -11.8315    0.3898 N   0  0  0  0  0  0  0  0  0  0  0  0
    2.5399  -11.8394   -1.2257 C   0  0  0  0  0  0  0  0  0  0  0  0
    1.6579  -12.5811   -1.3403 N   0  0  0  0  0  0  0  0  0  0  0  0
    7.4490    4.1935    5.1695 H   0  0  0  0  0  0  0  0  0  0  0  0
    8.7392    0.8375    9.1886 H   0  0  0  0  0  0  0  0  0  0  0  0
    4.4997   -1.1483    7.1519 H   0  0  0  0  0  0  0  0  0  0  0  0
    6.1203   -3.3436    9.3403 H   0  0  0  0  0  0  0  0  0  0  0  0
    4.0072   -2.8352   10.7266 H   0  0  0  0  0  0  0  0  0  0  0  0
    3.6369   -0.2131   10.9397 H   0  0  0  0  0  0  0  0  0  0  0  0
    5.7616    0.8293   12.0164 H   0  0  0  0  0  0  0  0  0  0  0  0
    7.4986   -1.1218   12.4908 H   0  0  0  0  0  0  0  0  0  0  0  0
    6.2495   -3.4448   12.0563 H   0  0  0  0  0  0  0  0  0  0  0  0
    5.2024   -2.3139   13.0288 H   0  0  0  0  0  0  0  0  0  0  0  0
    8.0477   -2.4194   10.3235 H   0  0  0  0  0  0  0  0  0  0  0  0
    6.3216    4.5139    2.4563 H   0  0  0  0  0  0  0  0  0  0  0  0
    4.9129    7.5989    0.0237 H   0  0  0  0  0  0  0  0  0  0  0  0
    6.3917    7.4526   -1.9530 H   0  0  0  0  0  0  0  0  0  0  0  0
    7.0627    5.2463   -2.8499 H   0  0  0  0  0  0  0  0  0  0  0  0
    4.0496    2.3769   -2.1777 H   0  0  0  0  0  0  0  0  0  0  0  0
    4.8148    3.0067   -3.6928 H   0  0  0  0  0  0  0  0  0  0  0  0
    3.9087    0.7048   -3.9999 H   0  0  0  0  0  0  0  0  0  0  0  0
    5.7050    0.7262   -4.1855 H   0  0  0  0  0  0  0  0  0  0  0  0
    4.9573    0.1004   -2.6589 H   0  0  0  0  0  0  0  0  0  0  0  0
    4.8268    3.3008    0.2590 H   0  0  0  0  0  0  0  0  0  0  0  0
    0.4160    3.5594    4.7855 H   0  0  0  0  0  0  0  0  0  0  0  0
   -0.9380    3.8454    6.8405 H   0  0  0  0  0  0  0  0  0  0  0  0
   -1.0389    6.0416    7.9725 H   0  0  0  0  0  0  0  0  0  0  0  0
    2.1289    9.4214    8.5302 H   0  0  0  0  0  0  0  0  0  0  0  0
    2.5426    8.0031    7.5073 H   0  0  0  0  0  0  0  0  0  0  0  0
    0.8887    7.9157   10.1236 H   0  0  0  0  0  0  0  0  0  0  0  0
    1.4095    6.4859    9.1351 H   0  0  0  0  0  0  0  0  0  0  0  0
    2.6413    7.5005    9.9665 H   0  0  0  0  0  0  0  0  0  0  0  0
    1.4974    7.7285    4.9392 H   0  0  0  0  0  0  0  0  0  0  0  0
   -0.5865    6.1507    2.4825 H   0  0  0  0  0  0  0  0  0  0  0  0
   -1.4222    9.0854    1.1831 H   0  0  0  0  0  0  0  0  0  0  0  0
   -1.8636    9.9013    3.4704 H   0  0  0  0  0  0  0  0  0  0  0  0
   -3.3478    8.6372    4.9852 H   0  0  0  0  0  0  0  0  0  0  0  0
   -5.2243    6.9734    5.1438 H   0  0  0  0  0  0  0  0  0  0  0  0
   -5.4111    5.7048    3.8921 H   0  0  0  0  0  0  0  0  0  0  0  0
   -3.2491    4.6436    4.6427 H   0  0  0  0  0  0  0  0  0  0  0  0
   -3.0871    5.9235    5.9137 H   0  0  0  0  0  0  0  0  0  0  0  0
   -4.4586    4.7554    5.9809 H   0  0  0  0  0  0  0  0  0  0  0  0
   -3.9867    5.6999    1.9007 H   0  0  0  0  0  0  0  0  0  0  0  0
   -9.0315   -2.3441   -5.7357 H   0  0  0  0  0  0  0  0  0  0  0  0
  -10.7084   -4.0772   -5.6146 H   0  0  0  0  0  0  0  0  0  0  0  0
  -10.0813   -6.4507   -5.7595 H   0  0  0  0  0  0  0  0  0  0  0  0
   -8.2043   -7.9822   -6.8629 H   0  0  0  0  0  0  0  0  0  0  0  0
   -6.5217   -7.6189   -6.3627 H   0  0  0  0  0  0  0  0  0  0  0  0
   -7.2447   -7.7749   -3.9365 H   0  0  0  0  0  0  0  0  0  0  0  0
   -7.4502   -9.3066   -4.8584 H   0  0  0  0  0  0  0  0  0  0  0  0
   -8.8853   -8.2777   -4.4902 H   0  0  0  0  0  0  0  0  0  0  0  0
   -5.9747   -5.3683   -6.1861 H   0  0  0  0  0  0  0  0  0  0  0  0
   -2.6064    2.6412   -4.5888 H   0  0  0  0  0  0  0  0  0  0  0  0
   -1.8142    3.4449   -3.2673 H   0  0  0  0  0  0  0  0  0  0  0  0
   -0.7752    3.7715   -5.6435 H   0  0  0  0  0  0  0  0  0  0  0  0
   -2.1292    4.9210   -5.9634 H   0  0  0  0  0  0  0  0  0  0  0  0
   -0.9767    5.2519   -4.6448 H   0  0  0  0  0  0  0  0  0  0  0  0
   -3.6386    3.4383   -6.5572 H   0  0  0  0  0  0  0  0  0  0  0  0
   -3.0952    1.7227   -6.7408 H   0  0  0  0  0  0  0  0  0  0  0  0
   -4.9816    1.3677   -8.3594 H   0  0  0  0  0  0  0  0  0  0  0  0
   -5.5606    3.0591   -8.0566 H   0  0  0  0  0  0  0  0  0  0  0  0
   -3.9664    2.7696   -8.8533 H   0  0  0  0  0  0  0  0  0  0  0  0
   -4.7094   -4.2860   -3.9880 H   0  0  0  0  0  0  0  0  0  0  0  0
   -1.8421   -5.2972   -1.0964 H   0  0  0  0  0  0  0  0  0  0  0  0
   -3.2180   -5.0165    0.9372 H   0  0  0  0  0  0  0  0  0  0  0  0
   -5.6296   -5.5812    0.9001 H   0  0  0  0  0  0  0  0  0  0  0  0
   -7.2536   -5.0035   -2.9917 H   0  0  0  0  0  0  0  0  0  0  0  0
   -7.5224   -4.2260   -1.3823 H   0  0  0  0  0  0  0  0  0  0  0  0
   -9.8555   -5.1250   -1.3467 H   0  0  0  0  0  0  0  0  0  0  0  0
   -9.5584   -4.1068   -2.8057 H   0  0  0  0  0  0  0  0  0  0  0  0
   -9.5748   -5.9100   -2.9492 H   0  0  0  0  0  0  0  0  0  0  0  0
   -5.2633   -6.8430   -3.1951 H   0  0  0  0  0  0  0  0  0  0  0  0
   -1.4525   -6.4726   -8.5387 H   0  0  0  0  0  0  0  0  0  0  0  0
    0.1814   -6.2077  -10.3698 H   0  0  0  0  0  0  0  0  0  0  0  0
    2.5709   -5.8214   -9.8690 H   0  0  0  0  0  0  0  0  0  0  0  0
    3.0075   -3.3886   -7.3715 H   0  0  0  0  0  0  0  0  0  0  0  0
    4.6156   -3.4325   -8.1741 H   0  0  0  0  0  0  0  0  0  0  0  0
    4.0690   -3.6252   -5.1452 H   0  0  0  0  0  0  0  0  0  0  0  0
    5.7024   -3.7624   -5.9126 H   0  0  0  0  0  0  0  0  0  0  0  0
    4.7773   -2.2158   -6.0276 H   0  0  0  0  0  0  0  0  0  0  0  0
    1.7011   -5.8137   -5.6671 H   0  0  0  0  0  0  0  0  0  0  0  0
    1.0753   -8.2444   -5.3357 H   0  0  0  0  0  0  0  0  0  0  0  0
    1.4286  -10.5294   -3.0805 H   0  0  0  0  0  0  0  0  0  0  0  0
    6.4349   -9.6103   -0.8119 H   0  0  0  0  0  0  0  0  0  0  0  0
    7.7204   -7.5808   -0.3856 H   0  0  0  0  0  0  0  0  0  0  0  0
    7.8843   -5.1288   -0.3011 H   0  0  0  0  0  0  0  0  0  0  0  0
    6.8520   -2.9094   -0.5957 H   0  0  0  0  0  0  0  0  0  0  0  0
    4.4770   -2.7098   -1.2484 H   0  0  0  0  0  0  0  0  0  0  0  0
    3.1158   -4.6965   -1.6172 H   0  0  0  0  0  0  0  0  0  0  0  0
  1  2  2  3
  2  3  1  0
  3  4  2  0
  3  5  1  0
  5  6  2  0
  6  7  1  0
  7  8  2  0
  8  9  1  0
  9 10  2  0
 10 11  1  0
 11 12  2  3
 12 13  1  0
 13 14  3  0
 12 15  1  0
 15 16  3  0
  8 17  1  0
 17 18  1  0
 18 19  1  0
 19 20  2  0
 20 21  1  0
 21 22  1  0
 21 23  1  0
  1 24  1  0
 24 25  2  0
 25 26  1  0
 26 27  2  0
 27 28  1  0
 28 29  2  0
 29 30  1  0
 30 31  2  0
 31 32  1  0
 32 33  1  0
 33 34  1  0
 34 35  1  0
 32 36  2  0
 27 37  1  0
 37 38  2  0
 38 39  1  0
 39 40  1  0
 40 41  2  0
 41 42  1  0
 42 43  2  0
 43 44  1  0
 44 45  1  0
 45 46  1  0
 46 47  1  0
 44 48  2  0
 39 49  2  0
 49 50  1  0
 38 51  1  0
 51 52  2  0
 52 53  1  0
 52 54  1  0
 54 55  2  0
 55 56  1  0
 56 57  2  0
 57 58  1  0
 58 59  2  0
 59 60  1  0
 60 61  1  0
 61 62  1  0
 60 63  2  0
 55 64  1  0
 64 65  1  0
 65 66  1  0
 66 67  1  0
 67 68  1  0
 68 69  1  0
 69 70  2  0
 70 71  1  0
 71 72  1  0
 69 73  1  0
 73 74  1  0
 74 75  1  0
 75 76  1  0
 76 77  1  0
 77 78  1  0
 78 79  2  0
 79 80  1  0
 80 81  2  0
 81 82  1  0
 82 83  1  0
 83 84  1  0
 82 85  2  0
 77 86  2  0
 86 87  1  0
 87 88  1  0
 88 89  1  0
 89 90  1  0
 90 91  1  0
 91 92  1  0
 92 93  1  0
 93 94  1  0
 94 95  1  0
 95 96  1  0
 93 97  1  0
 97 98  1  0
 90 99  1  0
 99100  1  0
 86101  1  0
101102  2  0
102103  1  0
103104  2  0
104105  1  0
105106  2  0
106107  1  0
107108  2  0
108109  1  0
109110  1  0
110111  1  0
111112  1  0
109113  2  0
104114  1  0
114115  2  0
115116  1  0
116117  1  0
117118  2  0
118119  1  0
119120  2  0
120121  1  0
121122  1  0
122123  1  0
123124  1  0
121125  2  0
116126  2  0
126127  1  0
115128  1  0
128129  2  0
129130  1  0
129131  1  0
131132  2  3
132133  1  0
133134  2  0
133135  1  0
135136  2  0
136137  1  0
137138  2  0
138139  1  0
139140  2  0
140141  1  0
141142  2  0
142143  1  0
143144  2  0
136145  1  0
145146  2  3
146147  1  0
147148  3  0
146149  1  0
149150  3  0
 11  2  1  0
 23 17  1  0
 50 24  1  0
 96 54  1  0
127101  1  0
145132  1  0
 10  5  1  0
 22 18  1  0
 49 26  1  0
 63 56  1  0
 95 64  2  0
126103  1  0
144135  1  0
 23  7  1  0
 36 28  1  0
 53 37  1  0
 94 66  2  0
113105  1  0
130114  1  0
144139  1  0
 48 40  1  0
 92 67  2  0
125117  1  0
 72 68  2  0
 91 73  2  0
 89 74  2  0
 88 76  2  0
 85 78  1  0
  1151  1  0
  6152  1  0
  9153  1  0
 17154  1  0
 18155  1  0
 19156  1  0
 20157  1  0
 21158  1  0
 22159  1  0
 22160  1  0
 23161  1  0
 25162  1  0
 29163  1  0
 30164  1  0
 31165  1  0
 34166  1  0
 34167  1  0
 35168  1  0
 35169  1  0
 35170  1  0
 36171  1  0
 41172  1  0
 42173  1  0
 43174  1  0
 46175  1  0
 46176  1  0
 47177  1  0
 47178  1  0
 47179  1  0
 48180  1  0
 51181  1  0
 57182  1  0
 58183  1  0
 59184  1  0
 61185  1  0
 61186  1  0
 62187  1  0
 62188  1  0
 62189  1  0
 63190  1  0
 79191  1  0
 80192  1  0
 81193  1  0
 83194  1  0
 83195  1  0
 84196  1  0
 84197  1  0
 84198  1  0
 85199  1  0
 97200  1  0
 97201  1  0
 98202  1  0
 98203  1  0
 98204  1  0
 99205  1  0
 99206  1  0
100207  1  0
100208  1  0
100209  1  0
102210  1  0
106211  1  0
107212  1  0
108213  1  0
111214  1  0
111215  1  0
112216  1  0
112217  1  0
112218  1  0
113219  1  0
118220  1  0
119221  1  0
120222  1  0
123223  1  0
123224  1  0
124225  1  0
124226  1  0
124227  1  0
125228  1  0
128229  1  0
131230  1  0
137231  1  0
138232  1  0
140233  1  0
141234  1  0
142235  1  0
143236  1  0
M  END

