
     RDKit          3D

236263  0  0  0  0  0  0  0  0999 V2000
   -8.5434   -4.1814    3.1184 C   0  0  0  0  0  0  0  0  0  0  0  0
   -9.1476   -2.9736    3.1412 C   0  0  0  0  0  0  0  0  0  0  0  0
   -8.4341   -1.7000    3.3237 C   0  0  0  0  0  0  0  0  0  0  0  0
   -7.1980   -1.5503    3.5223 O   0  0  0  0  0  0  0  0  0  0  0  0
   -9.3460   -0.6122    3.1068 C   0  0  0  0  0  0  0  0  0  0  0  0
   -9.0559    0.7622    3.2437 C   0  0  0  0  0  0  0  0  0  0  0  0
  -10.1482    1.5827    3.0687 C   0  0  0  0  0  0  0  0  0  0  0  0
  -11.4660    1.0908    2.7860 C   0  0  0  0  0  0  0  0  0  0  0  0
  -11.7503   -0.2599    2.6356 C   0  0  0  0  0  0  0  0  0  0  0  0
  -10.6274   -1.1309    2.7880 C   0  0  0  0  0  0  0  0  0  0  0  0
  -10.5653   -2.6291    2.7834 C   0  0  0  0  0  0  0  0  0  0  0  0
  -11.6022   -3.4900    2.5926 C   0  0  0  0  0  0  0  0  0  0  0  0
  -11.4981   -4.9063    2.8515 C   0  0  0  0  0  0  0  0  0  0  0  0
  -11.4271   -6.0438    3.0518 N   0  0  0  0  0  0  0  0  0  0  0  0
  -12.8916   -3.0664    2.1135 C   0  0  0  0  0  0  0  0  0  0  0  0
  -13.9313   -2.7409    1.7237 N   0  0  0  0  0  0  0  0  0  0  0  0
  -12.0114    2.4908    2.8369 C   0  0  0  0  0  0  0  0  0  0  0  0
  -12.8104    2.8818    4.1174 C   0  0  0  0  0  0  0  0  0  0  0  0
  -12.8976    4.3901    4.1015 C   0  0  0  0  0  0  0  0  0  0  0  0
  -11.6609    4.8440    4.3571 C   0  0  0  0  0  0  0  0  0  0  0  0
  -10.7862    3.6242    4.5302 C   0  0  0  0  0  0  0  0  0  0  0  0
  -11.7864    2.7172    5.2288 C   0  0  0  0  0  0  0  0  0  0  0  0
  -10.6591    2.9886    3.1149 C   0  0  0  0  0  0  0  0  0  0  0  0
   -7.2007   -4.4084    3.6803 C   0  0  0  0  0  0  0  0  0  0  0  0
   -6.7655   -3.9630    4.9269 C   0  0  0  0  0  0  0  0  0  0  0  0
   -5.3918   -4.1538    5.1280 C   0  0  0  0  0  0  0  0  0  0  0  0
   -4.6367   -3.6462    6.2038 C   0  0  0  0  0  0  0  0  0  0  0  0
   -5.2516   -2.8439    7.2775 C   0  0  0  0  0  0  0  0  0  0  0  0
   -6.1771   -3.4268    8.1585 C   0  0  0  0  0  0  0  0  0  0  0  0
   -6.7711   -2.6562    9.1606 C   0  0  0  0  0  0  0  0  0  0  0  0
   -6.4457   -1.2981    9.2886 C   0  0  0  0  0  0  0  0  0  0  0  0
   -5.5125   -0.7144    8.4205 C   0  0  0  0  0  0  0  0  0  0  0  0
   -5.0093    0.9936    8.6600 S   0  0  0  0  0  0  0  0  0  0  0  0
   -6.1100    1.6980    7.3799 C   0  0  0  0  0  0  0  0  0  0  0  0
   -5.2981    2.1126    6.1577 C   0  0  0  0  0  0  0  0  0  0  0  0
   -4.9208   -1.4852    7.4190 C   0  0  0  0  0  0  0  0  0  0  0  0
   -3.2472   -3.8142    6.1331 C   0  0  0  0  0  0  0  0  0  0  0  0
   -2.6099   -4.4346    5.0567 C   0  0  0  0  0  0  0  0  0  0  0  0
   -3.3633   -4.9449    3.9786 C   0  0  0  0  0  0  0  0  0  0  0  0
   -2.7261   -5.4755    2.7532 C   0  0  0  0  0  0  0  0  0  0  0  0
   -1.8882   -4.6563    1.9765 C   0  0  0  0  0  0  0  0  0  0  0  0
   -1.2834   -5.1636    0.8226 C   0  0  0  0  0  0  0  0  0  0  0  0
   -1.5296   -6.4784    0.4220 C   0  0  0  0  0  0  0  0  0  0  0  0
   -2.3886   -7.2925    1.1727 C   0  0  0  0  0  0  0  0  0  0  0  0
   -2.7410   -8.9667    0.6377 S   0  0  0  0  0  0  0  0  0  0  0  0
   -4.1482   -8.4973   -0.4362 C   0  0  0  0  0  0  0  0  0  0  0  0
   -5.4450   -8.4287    0.3576 C   0  0  0  0  0  0  0  0  0  0  0  0
   -2.9748   -6.7947    2.3421 C   0  0  0  0  0  0  0  0  0  0  0  0
   -4.7641   -4.7966    4.0541 C   0  0  0  0  0  0  0  0  0  0  0  0
   -5.9073   -5.0965    2.8455 S   0  0  0  0  0  0  0  0  0  0  0  0
   -1.2058   -4.3413    5.1191 C   0  0  0  0  0  0  0  0  0  0  0  0
   -0.7450   -3.5847    6.2042 C   0  0  0  0  0  0  0  0  0  0  0  0
   -2.0832   -3.1313    7.1242 S   0  0  0  0  0  0  0  0  0  0  0  0
    0.5195   -2.8187    6.1772 C   0  0  0  0  0  0  0  0  0  0  0  0
    0.8080   -1.7199    7.0182 C   0  0  0  0  0  0  0  0  0  0  0  0
    0.3782   -1.6263    8.4327 C   0  0  0  0  0  0  0  0  0  0  0  0
    0.6069   -2.7170    9.2898 C   0  0  0  0  0  0  0  0  0  0  0  0
    0.2732   -2.6339   10.6416 C   0  0  0  0  0  0  0  0  0  0  0  0
   -0.2918   -1.4655   11.1554 C   0  0  0  0  0  0  0  0  0  0  0  0
   -0.5627   -0.3814   10.3101 C   0  0  0  0  0  0  0  0  0  0  0  0
   -1.1717    0.8768   10.8767 C   0  0  0  0  0  0  0  0  0  0  0  0
   -0.0941    1.7806   11.4739 C   0  0  0  0  0  0  0  0  0  0  0  0
   -0.2071   -0.4558    8.9534 C   0  0  0  0  0  0  0  0  0  0  0  0
    1.6349   -0.7878    6.3776 C   0  0  0  0  0  0  0  0  0  0  0  0
    1.7371    0.9010    6.5544 S   0  0  0  0  0  0  0  0  0  0  0  0
    2.4535    1.0900    5.0278 C   0  0  0  0  0  0  0  0  0  0  0  0
    2.3386    2.0575    4.0568 C   0  0  0  0  0  0  0  0  0  0  0  0
    1.6435    3.2838    4.0842 C   0  0  0  0  0  0  0  0  0  0  0  0
    1.2664    3.8961    2.8462 C   0  0  0  0  0  0  0  0  0  0  0  0
    0.5688    5.0569    2.9205 N   0  0  0  0  0  0  0  0  0  0  0  0
    0.4561    5.2080    4.5679 S   0  0  0  0  0  0  0  0  0  0  0  0
    1.2386    3.9044    5.2223 N   0  0  0  0  0  0  0  0  0  0  0  0
    1.6653    3.2908    1.6486 C   0  0  0  0  0  0  0  0  0  0  0  0
    1.6032    3.6879    0.3366 C   0  0  0  0  0  0  0  0  0  0  0  0
    0.9606    4.9106   -0.6642 S   0  0  0  0  0  0  0  0  0  0  0  0
    1.7853    4.2830   -2.0343 C   0  0  0  0  0  0  0  0  0  0  0  0
    1.8133    4.5745   -3.4083 C   0  0  0  0  0  0  0  0  0  0  0  0
    0.9038    5.5264   -4.0884 C   0  0  0  0  0  0  0  0  0  0  0  0
    0.1524    5.1096   -5.2024 C   0  0  0  0  0  0  0  0  0  0  0  0
   -0.7226    5.9927   -5.8371 C   0  0  0  0  0  0  0  0  0  0  0  0
   -0.8611    7.3001   -5.3719 C   0  0  0  0  0  0  0  0  0  0  0  0
   -0.1187    7.7355   -4.2643 C   0  0  0  0  0  0  0  0  0  0  0  0
   -0.3171    9.1335   -3.7386 C   0  0  0  0  0  0  0  0  0  0  0  0
   -1.4834    9.1755   -2.7574 C   0  0  0  0  0  0  0  0  0  0  0  0
    0.7507    6.8404   -3.6153 C   0  0  0  0  0  0  0  0  0  0  0  0
    2.7094    3.7036   -4.0648 C   0  0  0  0  0  0  0  0  0  0  0  0
    3.3588    2.5657   -2.9761 S   0  0  0  0  0  0  0  0  0  0  0  0
    2.5448    3.2001   -1.6738 C   0  0  0  0  0  0  0  0  0  0  0  0
    2.3970    2.8387   -0.3549 C   0  0  0  0  0  0  0  0  0  0  0  0
    2.9510    1.8699    0.4112 N   0  0  0  0  0  0  0  0  0  0  0  0
    2.4236    2.1120    1.6452 C   0  0  0  0  0  0  0  0  0  0  0  0
    2.6230    1.4100    2.8491 C   0  0  0  0  0  0  0  0  0  0  0  0
    2.7068    0.0540    3.0268 N   0  0  0  0  0  0  0  0  0  0  0  0
    2.5979   -0.1050    4.3733 C   0  0  0  0  0  0  0  0  0  0  0  0
    2.0902   -1.1612    5.1342 C   0  0  0  0  0  0  0  0  0  0  0  0
    1.3855   -2.6220    4.7284 S   0  0  0  0  0  0  0  0  0  0  0  0
    2.4206   -0.9925    2.0278 C   0  0  0  0  0  0  0  0  0  0  0  0
    3.4975   -2.0823    2.0366 C   0  0  0  0  0  0  0  0  0  0  0  0
    4.1875    1.1368    0.0998 C   0  0  0  0  0  0  0  0  0  0  0  0
    5.3882    2.0823    0.0777 C   0  0  0  0  0  0  0  0  0  0  0  0
    3.0213    3.6141   -5.4893 C   0  0  0  0  0  0  0  0  0  0  0  0
    4.3328    3.7808   -5.9388 C   0  0  0  0  0  0  0  0  0  0  0  0
    4.6917    2.8998   -6.9699 C   0  0  0  0  0  0  0  0  0  0  0  0
    5.9882    2.6959   -7.4895 C   0  0  0  0  0  0  0  0  0  0  0  0
    7.1442    3.5181   -7.0829 C   0  0  0  0  0  0  0  0  0  0  0  0
    7.5734    3.5368   -5.7450 C   0  0  0  0  0  0  0  0  0  0  0  0
    8.6553    4.3351   -5.3672 C   0  0  0  0  0  0  0  0  0  0  0  0
    9.3188    5.1093   -6.3217 C   0  0  0  0  0  0  0  0  0  0  0  0
    8.9033    5.0870   -7.6571 C   0  0  0  0  0  0  0  0  0  0  0  0
    9.7322    6.1077   -8.8791 S   0  0  0  0  0  0  0  0  0  0  0  0
    8.5378    7.4877   -8.7616 C   0  0  0  0  0  0  0  0  0  0  0  0
    8.8601    8.3894   -7.5784 C   0  0  0  0  0  0  0  0  0  0  0  0
    7.8240    4.2820   -8.0402 C   0  0  0  0  0  0  0  0  0  0  0  0
    6.1627    1.5924   -8.3457 C   0  0  0  0  0  0  0  0  0  0  0  0
    5.1114    0.7435   -8.7052 C   0  0  0  0  0  0  0  0  0  0  0  0
    3.8072    0.9922   -8.2377 C   0  0  0  0  0  0  0  0  0  0  0  0
    2.6778    0.0857   -8.5424 C   0  0  0  0  0  0  0  0  0  0  0  0
    2.0623   -0.6488   -7.5172 C   0  0  0  0  0  0  0  0  0  0  0  0
    0.9376   -1.4302   -7.7907 C   0  0  0  0  0  0  0  0  0  0  0  0
    0.4431   -1.5142   -9.0986 C   0  0  0  0  0  0  0  0  0  0  0  0
    1.0868   -0.8247  -10.1320 C   0  0  0  0  0  0  0  0  0  0  0  0
    0.4775   -0.9598  -11.8161 S   0  0  0  0  0  0  0  0  0  0  0  0
    1.4720   -2.4378  -12.2340 C   0  0  0  0  0  0  0  0  0  0  0  0
    2.9243   -2.0653  -12.5160 C   0  0  0  0  0  0  0  0  0  0  0  0
    2.1905   -0.0082   -9.8506 C   0  0  0  0  0  0  0  0  0  0  0  0
    3.6408    2.0743   -7.3613 C   0  0  0  0  0  0  0  0  0  0  0  0
    2.2986    2.4129   -6.4156 S   0  0  0  0  0  0  0  0  0  0  0  0
    5.5395   -0.4154   -9.3627 C   0  0  0  0  0  0  0  0  0  0  0  0
    6.9287   -0.4816   -9.5019 C   0  0  0  0  0  0  0  0  0  0  0  0
    7.6207    0.8951   -8.8253 S   0  0  0  0  0  0  0  0  0  0  0  0
    7.6577   -1.7424   -9.6955 C   0  0  0  0  0  0  0  0  0  0  0  0
    7.7816   -2.6430   -8.7013 C   0  0  0  0  0  0  0  0  0  0  0  0
    7.1504   -2.5415   -7.3748 C   0  0  0  0  0  0  0  0  0  0  0  0
    6.7611   -1.4877   -6.8061 O   0  0  0  0  0  0  0  0  0  0  0  0
    7.0274   -3.8706   -6.8261 C   0  0  0  0  0  0  0  0  0  0  0  0
    6.3160   -4.2645   -5.6959 C   0  0  0  0  0  0  0  0  0  0  0  0
    6.1445   -5.6389   -5.4496 C   0  0  0  0  0  0  0  0  0  0  0  0
    5.4113   -6.0727   -4.3384 C   0  0  0  0  0  0  0  0  0  0  0  0
    5.2035   -7.4371   -4.1276 C   0  0  0  0  0  0  0  0  0  0  0  0
    5.7406   -8.3758   -5.0125 C   0  0  0  0  0  0  0  0  0  0  0  0
    5.5304   -9.7012   -4.7950 F   0  0  0  0  0  0  0  0  0  0  0  0
    6.4778   -7.9596   -6.1235 C   0  0  0  0  0  0  0  0  0  0  0  0
    6.6918   -6.5913   -6.3547 C   0  0  0  0  0  0  0  0  0  0  0  0
    7.4188   -6.1587   -7.4866 C   0  0  0  0  0  0  0  0  0  0  0  0
    7.6011   -4.7813   -7.6960 C   0  0  0  0  0  0  0  0  0  0  0  0
    8.2340   -4.0580   -8.8305 C   0  0  0  0  0  0  0  0  0  0  0  0
    9.2305   -4.5123   -9.6251 C   0  0  0  0  0  0  0  0  0  0  0  0
    9.9597   -3.6360  -10.5116 C   0  0  0  0  0  0  0  0  0  0  0  0
   10.5505   -2.9342  -11.2198 N   0  0  0  0  0  0  0  0  0  0  0  0
    9.7186   -5.8644   -9.5466 C   0  0  0  0  0  0  0  0  0  0  0  0
   10.0984   -6.9583   -9.4979 N   0  0  0  0  0  0  0  0  0  0  0  0
   -9.0211   -5.0367    2.6715 H   0  0  0  0  0  0  0  0  0  0  0  0
   -8.0802    1.1414    3.5103 H   0  0  0  0  0  0  0  0  0  0  0  0
  -12.7616   -0.5763    2.4534 H   0  0  0  0  0  0  0  0  0  0  0  0
  -12.4440    2.8326    1.8701 H   0  0  0  0  0  0  0  0  0  0  0  0
  -13.7763    2.3524    4.2623 H   0  0  0  0  0  0  0  0  0  0  0  0
  -13.7948    4.9972    4.0270 H   0  0  0  0  0  0  0  0  0  0  0  0
  -11.3811    5.8799    4.5233 H   0  0  0  0  0  0  0  0  0  0  0  0
   -9.8309    3.7948    5.0670 H   0  0  0  0  0  0  0  0  0  0  0  0
  -12.1335    3.1109    6.2149 H   0  0  0  0  0  0  0  0  0  0  0  0
  -11.4348    1.6717    5.3729 H   0  0  0  0  0  0  0  0  0  0  0  0
  -10.2339    3.6418    2.3200 H   0  0  0  0  0  0  0  0  0  0  0  0
   -7.4132   -3.4423    5.6223 H   0  0  0  0  0  0  0  0  0  0  0  0
   -6.4367   -4.4775    8.0687 H   0  0  0  0  0  0  0  0  0  0  0  0
   -7.4755   -3.1109    9.8526 H   0  0  0  0  0  0  0  0  0  0  0  0
   -6.8963   -0.7150   10.0828 H   0  0  0  0  0  0  0  0  0  0  0  0
   -6.6046    2.5962    7.8045 H   0  0  0  0  0  0  0  0  0  0  0  0
   -6.9051    0.9829    7.0696 H   0  0  0  0  0  0  0  0  0  0  0  0
   -5.9697    2.5532    5.3946 H   0  0  0  0  0  0  0  0  0  0  0  0
   -4.7867    1.2318    5.7181 H   0  0  0  0  0  0  0  0  0  0  0  0
   -4.5355    2.8705    6.4413 H   0  0  0  0  0  0  0  0  0  0  0  0
   -4.2030   -1.0318    6.7532 H   0  0  0  0  0  0  0  0  0  0  0  0
   -1.7035   -3.6283    2.2638 H   0  0  0  0  0  0  0  0  0  0  0  0
   -0.6354   -4.5280    0.2287 H   0  0  0  0  0  0  0  0  0  0  0  0
   -1.0585   -6.8612   -0.4756 H   0  0  0  0  0  0  0  0  0  0  0  0
   -3.9605   -7.5260   -0.9407 H   0  0  0  0  0  0  0  0  0  0  0  0
   -4.2510   -9.2722   -1.2252 H   0  0  0  0  0  0  0  0  0  0  0  0
   -5.6567   -9.4093    0.8373 H   0  0  0  0  0  0  0  0  0  0  0  0
   -5.3834   -7.6445    1.1359 H   0  0  0  0  0  0  0  0  0  0  0  0
   -6.2815   -8.1758   -0.3234 H   0  0  0  0  0  0  0  0  0  0  0  0
   -3.6236   -7.4308    2.9329 H   0  0  0  0  0  0  0  0  0  0  0  0
   -0.5493   -4.6960    4.3364 H   0  0  0  0  0  0  0  0  0  0  0  0
    1.0608   -3.6264    8.9131 H   0  0  0  0  0  0  0  0  0  0  0  0
    0.4647   -3.4748   11.2970 H   0  0  0  0  0  0  0  0  0  0  0  0
   -0.5292   -1.4116   12.2133 H   0  0  0  0  0  0  0  0  0  0  0  0
   -1.9037    0.6147   11.6717 H   0  0  0  0  0  0  0  0  0  0  0  0
   -1.7197    1.4283   10.0864 H   0  0  0  0  0  0  0  0  0  0  0  0
   -0.5702    2.6892   11.9024 H   0  0  0  0  0  0  0  0  0  0  0  0
    0.6266    2.0897   10.6884 H   0  0  0  0  0  0  0  0  0  0  0  0
    0.4464    1.2531   12.2870 H   0  0  0  0  0  0  0  0  0  0  0  0
   -0.4122    0.3824    8.3013 H   0  0  0  0  0  0  0  0  0  0  0  0
    0.2101    4.0918   -5.5568 H   0  0  0  0  0  0  0  0  0  0  0  0
   -1.2997    5.6539   -6.6902 H   0  0  0  0  0  0  0  0  0  0  0  0
   -1.5562    7.9635   -5.8708 H   0  0  0  0  0  0  0  0  0  0  0  0
   -0.5215    9.8289   -4.5814 H   0  0  0  0  0  0  0  0  0  0  0  0
    0.6030    9.4920   -3.2325 H   0  0  0  0  0  0  0  0  0  0  0  0
   -1.6493   10.2186   -2.4219 H   0  0  0  0  0  0  0  0  0  0  0  0
   -2.4118    8.8060   -3.2395 H   0  0  0  0  0  0  0  0  0  0  0  0
   -1.2619    8.5470   -1.8696 H   0  0  0  0  0  0  0  0  0  0  0  0
    1.3130    7.1731   -2.7512 H   0  0  0  0  0  0  0  0  0  0  0  0
    1.4262   -1.4426    2.2289 H   0  0  0  0  0  0  0  0  0  0  0  0
    2.3468   -0.5763    1.0073 H   0  0  0  0  0  0  0  0  0  0  0  0
    3.2594   -2.8456    1.2680 H   0  0  0  0  0  0  0  0  0  0  0  0
    3.5523   -2.5840    3.0224 H   0  0  0  0  0  0  0  0  0  0  0  0
    4.4954   -1.6640    1.8063 H   0  0  0  0  0  0  0  0  0  0  0  0
    4.3946    0.3742    0.8697 H   0  0  0  0  0  0  0  0  0  0  0  0
    4.0800    0.6215   -0.8740 H   0  0  0  0  0  0  0  0  0  0  0  0
    6.3148    1.5078   -0.1293 H   0  0  0  0  0  0  0  0  0  0  0  0
    5.2653    2.8494   -0.7156 H   0  0  0  0  0  0  0  0  0  0  0  0
    5.4992    2.5924    1.0579 H   0  0  0  0  0  0  0  0  0  0  0  0
    5.0425    4.4052   -5.4026 H   0  0  0  0  0  0  0  0  0  0  0  0
    7.0740    2.9297   -4.9940 H   0  0  0  0  0  0  0  0  0  0  0  0
    8.9716    4.3722   -4.3333 H   0  0  0  0  0  0  0  0  0  0  0  0
   10.1469    5.7415   -6.0289 H   0  0  0  0  0  0  0  0  0  0  0  0
    7.4938    7.1155   -8.6826 H   0  0  0  0  0  0  0  0  0  0  0  0
    8.6155    8.0847   -9.6958 H   0  0  0  0  0  0  0  0  0  0  0  0
    8.7341    7.8401   -6.6275 H   0  0  0  0  0  0  0  0  0  0  0  0
    8.1765    9.2653   -7.5779 H   0  0  0  0  0  0  0  0  0  0  0  0
    9.9096    8.7394   -7.6539 H   0  0  0  0  0  0  0  0  0  0  0  0
    7.4981    4.2683   -9.0740 H   0  0  0  0  0  0  0  0  0  0  0  0
    2.4381   -0.5941   -6.5010 H   0  0  0  0  0  0  0  0  0  0  0  0
    0.4518   -1.9771   -6.9899 H   0  0  0  0  0  0  0  0  0  0  0  0
   -0.4331   -2.1237   -9.3037 H   0  0  0  0  0  0  0  0  0  0  0  0
    1.0411   -2.8963  -13.1489 H   0  0  0  0  0  0  0  0  0  0  0  0
    1.4187   -3.1882  -11.4143 H   0  0  0  0  0  0  0  0  0  0  0  0
    3.4463   -1.7833  -11.5778 H   0  0  0  0  0  0  0  0  0  0  0  0
    3.4568   -2.9321  -12.9576 H   0  0  0  0  0  0  0  0  0  0  0  0
    2.9728   -1.2152  -13.2279 H   0  0  0  0  0  0  0  0  0  0  0  0
    2.6592    0.5541  -10.6514 H   0  0  0  0  0  0  0  0  0  0  0  0
    4.8839   -1.2444   -9.6078 H   0  0  0  0  0  0  0  0  0  0  0  0
    7.9929   -1.9709  -10.6961 H   0  0  0  0  0  0  0  0  0  0  0  0
    5.8673   -3.5200   -5.0464 H   0  0  0  0  0  0  0  0  0  0  0  0
    4.9903   -5.3542   -3.6415 H   0  0  0  0  0  0  0  0  0  0  0  0
    4.6132   -7.7625   -3.2802 H   0  0  0  0  0  0  0  0  0  0  0  0
    6.8829   -8.7032   -6.7993 H   0  0  0  0  0  0  0  0  0  0  0  0
    7.7773   -6.8852   -8.1987 H   0  0  0  0  0  0  0  0  0  0  0  0
  1  2  2  3
  2  3  1  0
  3  4  2  0
  3  5  1  0
  5  6  2  0
  6  7  1  0
  7  8  2  0
  8  9  1  0
  9 10  2  0
 10 11  1  0
 11 12  2  3
 12 13  1  0
 13 14  3  0
 12 15  1  0
 15 16  3  0
  8 17  1  0
 17 18  1  0
 18 19  1  0
 19 20  2  0
 20 21  1  0
 21 22  1  0
 21 23  1  0
  1 24  1  0
 24 25  2  0
 25 26  1  0
 26 27  2  0
 27 28  1  0
 28 29  2  0
 29 30  1  0
 30 31  2  0
 31 32  1  0
 32 33  1  0
 33 34  1  0
 34 35  1  0
 32 36  2  0
 27 37  1  0
 37 38  2  0
 38 39  1  0
 39 40  1  0
 40 41  2  0
 41 42  1  0
 42 43  2  0
 43 44  1  0
 44 45  1  0
 45 46  1  0
 46 47  1  0
 44 48  2  0
 39 49  2  0
 49 50  1  0
 38 51  1  0
 51 52  2  0
 52 53  1  0
 52 54  1  0
 54 55  2  0
 55 56  1  0
 56 57  2  0
 57 58  1  0
 58 59  2  0
 59 60  1  0
 60 61  1  0
 61 62  1  0
 60 63  2  0
 55 64  1  0
 64 65  1  0
 65 66  1  0
 66 67  1  0
 67 68  1  0
 68 69  1  0
 69 70  2  0
 70 71  1  0
 71 72  1  0
 69 73  1  0
 73 74  1  0
 74 75  1  0
 75 76  1  0
 76 77  1  0
 77 78  1  0
 78 79  2  0
 79 80  1  0
 80 81  2  0
 81 82  1  0
 82 83  1  0
 83 84  1  0
 82 85  2  0
 77 86  2  0
 86 87  1  0
 87 88  1  0
 88 89  1  0
 89 90  1  0
 90 91  1  0
 91 92  1  0
 92 93  1  0
 93 94  1  0
 94 95  1  0
 95 96  1  0
 93 97  1  0
 97 98  1  0
 90 99  1  0
 99100  1  0
 86101  1  0
101102  2  0
102103  1  0
103104  2  0
104105  1  0
105106  2  0
106107  1  0
107108  2  0
108109  1  0
109110  1  0
110111  1  0
111112  1  0
109113  2  0
104114  1  0
114115  2  0
115116  1  0
116117  1  0
117118  2  0
118119  1  0
119120  2  0
120121  1  0
121122  1  0
122123  1  0
123124  1  0
121125  2  0
116126  2  0
126127  1  0
115128  1  0
128129  2  0
129130  1  0
129131  1  0
131132  2  3
132133  1  0
133134  2  0
133135  1  0
135136  2  0
136137  1  0
137138  2  0
138139  1  0
139140  2  0
140141  1  0
140142  1  0
142143  2  0
143144  1  0
144145  2  0
145146  1  0
146147  2  3
147148  1  0
148149  3  0
147150  1  0
150151  3  0
 11  2  1  0
 23 17  1  0
 50 24  1  0
 96 54  1  0
127101  1  0
146132  1  0
 10  5  1  0
 22 18  1  0
 49 26  1  0
 63 56  1  0
 95 64  2  0
126103  1  0
145135  1  0
 23  7  1  0
 36 28  1  0
 53 37  1  0
 94 66  2  0
113105  1  0
130114  1  0
143137  1  0
 48 40  1  0
 92 67  2  0
125117  1  0
 72 68  2  0
 91 73  2  0
 89 74  2  0
 88 76  2  0
 85 78  1  0
  1152  1  0
  6153  1  0
  9154  1  0
 17155  1  0
 18156  1  0
 19157  1  0
 20158  1  0
 21159  1  0
 22160  1  0
 22161  1  0
 23162  1  0
 25163  1  0
 29164  1  0
 30165  1  0
 31166  1  0
 34167  1  0
 34168  1  0
 35169  1  0
 35170  1  0
 35171  1  0
 36172  1  0
 41173  1  0
 42174  1  0
 43175  1  0
 46176  1  0
 46177  1  0
 47178  1  0
 47179  1  0
 47180  1  0
 48181  1  0
 51182  1  0
 57183  1  0
 58184  1  0
 59185  1  0
 61186  1  0
 61187  1  0
 62188  1  0
 62189  1  0
 62190  1  0
 63191  1  0
 79192  1  0
 80193  1  0
 81194  1  0
 83195  1  0
 83196  1  0
 84197  1  0
 84198  1  0
 84199  1  0
 85200  1  0
 97201  1  0
 97202  1  0
 98203  1  0
 98204  1  0
 98205  1  0
 99206  1  0
 99207  1  0
100208  1  0
100209  1  0
100210  1  0
102211  1  0
106212  1  0
107213  1  0
108214  1  0
111215  1  0
111216  1  0
112217  1  0
112218  1  0
112219  1  0
113220  1  0
118221  1  0
119222  1  0
120223  1  0
123224  1  0
123225  1  0
124226  1  0
124227  1  0
124228  1  0
125229  1  0
128230  1  0
131231  1  0
136232  1  0
138233  1  0
139234  1  0
142235  1  0
144236  1  0
M  END

