
     RDKit          3D

259290  0  0  0  0  0  0  0  0999 V2000
    6.2060    8.1899    2.8289 C   0  0  0  0  0  0  0  0  0  0  0  0
    6.4220    8.6107    1.5724 C   0  0  0  0  0  0  0  0  0  0  0  0
    5.4022    9.3996    0.8728 C   0  0  0  0  0  0  0  0  0  0  0  0
    4.5095   10.1087    1.4199 O   0  0  0  0  0  0  0  0  0  0  0  0
    5.4692    9.0938   -0.5409 C   0  0  0  0  0  0  0  0  0  0  0  0
    4.5999    9.5524   -1.5568 C   0  0  0  0  0  0  0  0  0  0  0  0
    4.9246    9.0941   -2.8176 C   0  0  0  0  0  0  0  0  0  0  0  0
    6.0354    8.2247   -3.0728 C   0  0  0  0  0  0  0  0  0  0  0  0
    6.8715    7.7417   -2.0787 C   0  0  0  0  0  0  0  0  0  0  0  0
    6.5582    8.2094   -0.7677 C   0  0  0  0  0  0  0  0  0  0  0  0
    7.2446    7.9423    0.5293 C   0  0  0  0  0  0  0  0  0  0  0  0
    8.5285    7.5419    0.6976 C   0  0  0  0  0  0  0  0  0  0  0  0
    9.3290    7.0221   -0.3805 C   0  0  0  0  0  0  0  0  0  0  0  0
    9.9896    6.6108   -1.2411 N   0  0  0  0  0  0  0  0  0  0  0  0
    9.2291    7.7925    1.9333 C   0  0  0  0  0  0  0  0  0  0  0  0
    9.7945    8.0016    2.9236 N   0  0  0  0  0  0  0  0  0  0  0  0
    5.7363    8.2424   -4.5404 C   0  0  0  0  0  0  0  0  0  0  0  0
    5.0976    6.9528   -5.1317 C   0  0  0  0  0  0  0  0  0  0  0  0
    4.5338    7.3484   -6.4766 C   0  0  0  0  0  0  0  0  0  0  0  0
    3.4740    8.1297   -6.2258 C   0  0  0  0  0  0  0  0  0  0  0  0
    3.3691    8.2396   -4.7219 C   0  0  0  0  0  0  0  0  0  0  0  0
    3.7967    6.8285   -4.3575 C   0  0  0  0  0  0  0  0  0  0  0  0
    4.5821    9.1100   -4.2779 C   0  0  0  0  0  0  0  0  0  0  0  0
    6.1157    6.7621    3.1673 C   0  0  0  0  0  0  0  0  0  0  0  0
    4.9060    6.1669    3.4923 C   0  0  0  0  0  0  0  0  0  0  0  0
    5.0412    4.8584    3.9636 C   0  0  0  0  0  0  0  0  0  0  0  0
    3.9928    4.0440    4.4246 C   0  0  0  0  0  0  0  0  0  0  0  0
    2.5821    4.4586    4.2769 C   0  0  0  0  0  0  0  0  0  0  0  0
    1.7659    4.6562    5.3995 C   0  0  0  0  0  0  0  0  0  0  0  0
    0.4563    5.1237    5.2411 C   0  0  0  0  0  0  0  0  0  0  0  0
   -0.0441    5.3963    3.9656 C   0  0  0  0  0  0  0  0  0  0  0  0
    0.7616    5.1920    2.8386 C   0  0  0  0  0  0  0  0  0  0  0  0
    0.1143    5.5130    1.1911 S   0  0  0  0  0  0  0  0  0  0  0  0
    1.0357    7.0736    0.9366 C   0  0  0  0  0  0  0  0  0  0  0  0
    0.4489    8.2128    1.7607 C   0  0  0  0  0  0  0  0  0  0  0  0
    2.0627    4.7025    2.9949 C   0  0  0  0  0  0  0  0  0  0  0  0
    4.3475    2.8145    4.9930 C   0  0  0  0  0  0  0  0  0  0  0  0
    5.6699    2.3571    5.0560 C   0  0  0  0  0  0  0  0  0  0  0  0
    6.7202    3.1623    4.5521 C   0  0  0  0  0  0  0  0  0  0  0  0
    8.1269    2.7383    4.6260 C   0  0  0  0  0  0  0  0  0  0  0  0
    8.7781    2.2305    3.4885 C   0  0  0  0  0  0  0  0  0  0  0  0
   10.1216    1.8417    3.5624 C   0  0  0  0  0  0  0  0  0  0  0  0
   10.8195    1.9562    4.7669 C   0  0  0  0  0  0  0  0  0  0  0  0
   10.1778    2.4631    5.9027 C   0  0  0  0  0  0  0  0  0  0  0  0
   11.1032    2.6562    7.4306 S   0  0  0  0  0  0  0  0  0  0  0  0
   10.7130    0.9918    8.0812 C   0  0  0  0  0  0  0  0  0  0  0  0
    9.3666    0.9932    8.7927 C   0  0  0  0  0  0  0  0  0  0  0  0
    8.8375    2.8579    5.8284 C   0  0  0  0  0  0  0  0  0  0  0  0
    6.3669    4.4166    4.0212 C   0  0  0  0  0  0  0  0  0  0  0  0
    7.3694    5.6629    3.4841 S   0  0  0  0  0  0  0  0  0  0  0  0
    5.7797    1.0696    5.6271 C   0  0  0  0  0  0  0  0  0  0  0  0
    4.5432    0.5640    6.0363 C   0  0  0  0  0  0  0  0  0  0  0  0
    3.3243    1.6632    5.6465 S   0  0  0  0  0  0  0  0  0  0  0  0
    4.2504   -0.7819    6.5369 C   0  0  0  0  0  0  0  0  0  0  0  0
    3.5363   -1.0248    7.7239 C   0  0  0  0  0  0  0  0  0  0  0  0
    3.4102   -0.0750    8.8438 C   0  0  0  0  0  0  0  0  0  0  0  0
    2.2376    0.6738    9.0131 C   0  0  0  0  0  0  0  0  0  0  0  0
    2.0990    1.5080   10.1259 C   0  0  0  0  0  0  0  0  0  0  0  0
    3.1191    1.5856   11.0792 C   0  0  0  0  0  0  0  0  0  0  0  0
    4.2921    0.8266   10.9271 C   0  0  0  0  0  0  0  0  0  0  0  0
    5.3680    0.8622   11.9798 C   0  0  0  0  0  0  0  0  0  0  0  0
    6.5730    1.6714   11.5148 C   0  0  0  0  0  0  0  0  0  0  0  0
    4.4384    0.0096    9.7931 C   0  0  0  0  0  0  0  0  0  0  0  0
    2.8644   -2.2455    7.6823 C   0  0  0  0  0  0  0  0  0  0  0  0
    1.5805   -2.8616    8.6164 S   0  0  0  0  0  0  0  0  0  0  0  0
    1.3072   -4.1027    7.4963 C   0  0  0  0  0  0  0  0  0  0  0  0
    0.2020   -4.8083    7.1040 C   0  0  0  0  0  0  0  0  0  0  0  0
   -1.1157   -4.7832    7.5996 C   0  0  0  0  0  0  0  0  0  0  0  0
   -2.1706   -5.3046    6.7810 C   0  0  0  0  0  0  0  0  0  0  0  0
   -3.4326   -5.2210    7.2734 N   0  0  0  0  0  0  0  0  0  0  0  0
   -3.1143   -4.4636    8.7135 S   0  0  0  0  0  0  0  0  0  0  0  0
   -1.4761   -4.2260    8.7794 N   0  0  0  0  0  0  0  0  0  0  0  0
   -1.8372   -5.8934    5.5563 C   0  0  0  0  0  0  0  0  0  0  0  0
   -2.5938   -6.4877    4.5818 C   0  0  0  0  0  0  0  0  0  0  0  0
   -4.1264   -6.1707    3.9283 S   0  0  0  0  0  0  0  0  0  0  0  0
   -3.6458   -6.7324    2.3850 C   0  0  0  0  0  0  0  0  0  0  0  0
   -4.1411   -6.4163    1.1145 C   0  0  0  0  0  0  0  0  0  0  0  0
   -5.3903   -5.6502    0.9249 C   0  0  0  0  0  0  0  0  0  0  0  0
   -5.3405   -4.2803    0.6231 C   0  0  0  0  0  0  0  0  0  0  0  0
   -6.5179   -3.5469    0.4881 C   0  0  0  0  0  0  0  0  0  0  0  0
   -7.7552   -4.1707    0.6655 C   0  0  0  0  0  0  0  0  0  0  0  0
   -7.8205   -5.5432    0.9585 C   0  0  0  0  0  0  0  0  0  0  0  0
   -9.1514   -6.2115    1.1822 C   0  0  0  0  0  0  0  0  0  0  0  0
   -9.5231   -6.1684    2.6612 C   0  0  0  0  0  0  0  0  0  0  0  0
   -6.6322   -6.2763    1.0994 C   0  0  0  0  0  0  0  0  0  0  0  0
   -3.1525   -6.5895    0.1217 C   0  0  0  0  0  0  0  0  0  0  0  0
   -1.7067   -7.0950    0.8603 S   0  0  0  0  0  0  0  0  0  0  0  0
   -2.3274   -7.1231    2.4048 C   0  0  0  0  0  0  0  0  0  0  0  0
   -1.7227   -6.9334    3.6347 C   0  0  0  0  0  0  0  0  0  0  0  0
   -0.4324   -6.6391    3.9277 N   0  0  0  0  0  0  0  0  0  0  0  0
   -0.5203   -5.9426    5.0960 C   0  0  0  0  0  0  0  0  0  0  0  0
    0.4863   -5.2612    5.8122 C   0  0  0  0  0  0  0  0  0  0  0  0
    1.6327   -4.6775    5.3295 N   0  0  0  0  0  0  0  0  0  0  0  0
    2.1342   -4.0262    6.4133 C   0  0  0  0  0  0  0  0  0  0  0  0
    3.0244   -2.9570    6.5211 C   0  0  0  0  0  0  0  0  0  0  0  0
    3.9941   -2.0851    5.4643 S   0  0  0  0  0  0  0  0  0  0  0  0
    1.8283   -4.2177    3.9468 C   0  0  0  0  0  0  0  0  0  0  0  0
    0.9971   -2.9614    3.6703 C   0  0  0  0  0  0  0  0  0  0  0  0
    0.7332   -7.3740    3.4195 C   0  0  0  0  0  0  0  0  0  0  0  0
    0.5700   -8.8708    3.6700 C   0  0  0  0  0  0  0  0  0  0  0  0
   -3.1428   -5.9573   -1.2064 C   0  0  0  0  0  0  0  0  0  0  0  0
   -4.2284   -5.6886   -2.0451 C   0  0  0  0  0  0  0  0  0  0  0  0
   -3.9124   -4.7767   -3.0801 C   0  0  0  0  0  0  0  0  0  0  0  0
   -4.8143   -4.2056   -4.0102 C   0  0  0  0  0  0  0  0  0  0  0  0
   -6.1790   -4.7577   -4.2114 C   0  0  0  0  0  0  0  0  0  0  0  0
   -6.5095   -6.1138   -4.2235 C   0  0  0  0  0  0  0  0  0  0  0  0
   -7.8492   -6.3696   -4.5420 C   0  0  0  0  0  0  0  0  0  0  0  0
   -8.5691   -5.2162   -4.8132 C   0  0  0  0  0  0  0  0  0  0  0  0
   -9.9472   -5.1724   -5.3241 C   0  0  0  0  0  0  0  0  0  0  0  0
  -10.2915   -4.5507   -6.4594 C   0  0  0  0  0  0  0  0  0  0  0  0
   -9.3226   -4.0182   -7.4397 C   0  0  0  0  0  0  0  0  0  0  0  0
   -8.1289   -4.6204   -7.8361 C   0  0  0  0  0  0  0  0  0  0  0  0
   -7.4370   -3.8906   -8.8078 C   0  0  0  0  0  0  0  0  0  0  0  0
   -8.0977   -2.7348   -9.1907 C   0  0  0  0  0  0  0  0  0  0  0  0
   -7.5361   -1.5839  -10.4411 S   0  0  0  0  0  0  0  0  0  0  0  0
   -6.4999   -0.5986   -9.3047 C   0  0  0  0  0  0  0  0  0  0  0  0
   -7.3570    0.3640   -8.4960 C   0  0  0  0  0  0  0  0  0  0  0  0
   -9.5444   -2.6170   -8.3403 S   0  0  0  0  0  0  0  0  0  0  0  0
   -7.5619   -3.8841   -4.6154 S   0  0  0  0  0  0  0  0  0  0  0  0
   -4.3234   -3.1020   -4.7560 C   0  0  0  0  0  0  0  0  0  0  0  0
   -3.0029   -2.6333   -4.6451 C   0  0  0  0  0  0  0  0  0  0  0  0
   -2.0907   -3.2811   -3.8002 C   0  0  0  0  0  0  0  0  0  0  0  0
   -0.7105   -2.8025   -3.5901 C   0  0  0  0  0  0  0  0  0  0  0  0
   -0.3919   -1.6416   -2.8907 C   0  0  0  0  0  0  0  0  0  0  0  0
    0.9067   -1.6484   -2.3591 C   0  0  0  0  0  0  0  0  0  0  0  0
    1.6104   -2.8174   -2.6295 C   0  0  0  0  0  0  0  0  0  0  0  0
    2.8374   -3.2389   -1.9268 C   0  0  0  0  0  0  0  0  0  0  0  0
    3.3170   -4.4837   -2.0373 C   0  0  0  0  0  0  0  0  0  0  0  0
    4.3369   -5.0501   -1.1409 C   0  0  0  0  0  0  0  0  0  0  0  0
    4.9785   -4.4332   -0.0667 C   0  0  0  0  0  0  0  0  0  0  0  0
    5.7824   -5.3094    0.6728 C   0  0  0  0  0  0  0  0  0  0  0  0
    5.7627   -6.6103    0.1853 C   0  0  0  0  0  0  0  0  0  0  0  0
    6.6124   -8.0159    0.8915 S   0  0  0  0  0  0  0  0  0  0  0  0
    5.2731   -8.4554    2.0567 C   0  0  0  0  0  0  0  0  0  0  0  0
    4.1604   -9.2372    1.3653 C   0  0  0  0  0  0  0  0  0  0  0  0
    4.7744   -6.6721   -1.1704 S   0  0  0  0  0  0  0  0  0  0  0  0
    0.6288   -3.8180   -3.5541 S   0  0  0  0  0  0  0  0  0  0  0  0
   -2.5871   -4.3350   -3.0224 C   0  0  0  0  0  0  0  0  0  0  0  0
   -1.8161   -5.0823   -1.7374 S   0  0  0  0  0  0  0  0  0  0  0  0
   -2.7434   -1.4747   -5.3900 C   0  0  0  0  0  0  0  0  0  0  0  0
   -3.8535   -1.0323   -6.0933 C   0  0  0  0  0  0  0  0  0  0  0  0
   -5.1458   -2.0772   -5.8143 S   0  0  0  0  0  0  0  0  0  0  0  0
   -3.9770    0.2806   -6.7269 C   0  0  0  0  0  0  0  0  0  0  0  0
   -4.3823    1.3677   -6.0426 C   0  0  0  0  0  0  0  0  0  0  0  0
   -4.8342    1.3719   -4.6410 C   0  0  0  0  0  0  0  0  0  0  0  0
   -4.5723    0.5063   -3.7670 O   0  0  0  0  0  0  0  0  0  0  0  0
   -5.6701    2.5347   -4.4309 C   0  0  0  0  0  0  0  0  0  0  0  0
   -6.4658    2.8119   -3.2938 C   0  0  0  0  0  0  0  0  0  0  0  0
   -7.3498    3.8632   -3.4745 C   0  0  0  0  0  0  0  0  0  0  0  0
   -7.4565    4.5867   -4.7034 C   0  0  0  0  0  0  0  0  0  0  0  0
   -6.6611    4.3350   -5.8120 C   0  0  0  0  0  0  0  0  0  0  0  0
   -5.7233    3.2814   -5.6330 C   0  0  0  0  0  0  0  0  0  0  0  0
   -4.7926    2.6741   -6.6244 C   0  0  0  0  0  0  0  0  0  0  0  0
   -4.2370    3.2918   -7.6964 C   0  0  0  0  0  0  0  0  0  0  0  0
   -3.1601    2.6923   -8.4427 C   0  0  0  0  0  0  0  0  0  0  0  0
   -2.2976    2.2127   -9.0441 N   0  0  0  0  0  0  0  0  0  0  0  0
   -4.5794    4.6403   -8.0705 C   0  0  0  0  0  0  0  0  0  0  0  0
   -4.8473    5.7243   -8.3748 N   0  0  0  0  0  0  0  0  0  0  0  0
   -8.6153    5.3679   -4.1645 C   0  0  0  0  0  0  0  0  0  0  0  0
  -10.0379    4.9788   -4.6684 C   0  0  0  0  0  0  0  0  0  0  0  0
  -10.0948    3.5032   -4.9920 C   0  0  0  0  0  0  0  0  0  0  0  0
   -9.9945    2.8531   -3.8329 C   0  0  0  0  0  0  0  0  0  0  0  0
   -9.8686    3.9096   -2.7601 C   0  0  0  0  0  0  0  0  0  0  0  0
  -10.7872    4.9609   -3.3497 C   0  0  0  0  0  0  0  0  0  0  0  0
   -8.4960    4.6418   -2.8968 C   0  0  0  0  0  0  0  0  0  0  0  0
    5.5453    8.8045    3.4295 H   0  0  0  0  0  0  0  0  0  0  0  0
    3.7688   10.2199   -1.3749 H   0  0  0  0  0  0  0  0  0  0  0  0
    7.6632    7.0489   -2.3142 H   0  0  0  0  0  0  0  0  0  0  0  0
    6.5346    8.7143   -5.1628 H   0  0  0  0  0  0  0  0  0  0  0  0
    5.7510    6.0519   -5.1376 H   0  0  0  0  0  0  0  0  0  0  0  0
    4.8509    7.0045   -7.4574 H   0  0  0  0  0  0  0  0  0  0  0  0
    2.7803    8.5263   -6.9591 H   0  0  0  0  0  0  0  0  0  0  0  0
    2.3757    8.5630   -4.3377 H   0  0  0  0  0  0  0  0  0  0  0  0
    3.1196    6.0374   -4.7731 H   0  0  0  0  0  0  0  0  0  0  0  0
    3.9272    6.6544   -3.2657 H   0  0  0  0  0  0  0  0  0  0  0  0
    4.6561   10.1181   -4.7482 H   0  0  0  0  0  0  0  0  0  0  0  0
    3.9629    6.6951    3.4437 H   0  0  0  0  0  0  0  0  0  0  0  0
    2.1477    4.4708    6.3940 H   0  0  0  0  0  0  0  0  0  0  0  0
   -0.1688    5.2798    6.1098 H   0  0  0  0  0  0  0  0  0  0  0  0
   -1.0575    5.7666    3.8501 H   0  0  0  0  0  0  0  0  0  0  0  0
    0.9714    7.3379   -0.1395 H   0  0  0  0  0  0  0  0  0  0  0  0
    2.1079    6.9406    1.1912 H   0  0  0  0  0  0  0  0  0  0  0  0
   -0.6369    8.3237    1.5513 H   0  0  0  0  0  0  0  0  0  0  0  0
    0.5999    8.0228    2.8459 H   0  0  0  0  0  0  0  0  0  0  0  0
    0.9614    9.1635    1.4977 H   0  0  0  0  0  0  0  0  0  0  0  0
    2.6835    4.5441    2.1198 H   0  0  0  0  0  0  0  0  0  0  0  0
    8.2471    2.1390    2.5510 H   0  0  0  0  0  0  0  0  0  0  0  0
   10.6236    1.4562    2.6804 H   0  0  0  0  0  0  0  0  0  0  0  0
   11.8612    1.6578    4.8145 H   0  0  0  0  0  0  0  0  0  0  0  0
   11.5005    0.7148    8.8117 H   0  0  0  0  0  0  0  0  0  0  0  0
   10.7109    0.2329    7.2683 H   0  0  0  0  0  0  0  0  0  0  0  0
    8.5417    1.1307    8.0638 H   0  0  0  0  0  0  0  0  0  0  0  0
    9.2141    0.0215    9.3077 H   0  0  0  0  0  0  0  0  0  0  0  0
    9.3270    1.8067    9.5504 H   0  0  0  0  0  0  0  0  0  0  0  0
    8.3530    3.2663    6.7032 H   0  0  0  0  0  0  0  0  0  0  0  0
    6.7113    0.5314    5.7304 H   0  0  0  0  0  0  0  0  0  0  0  0
    1.4307    0.5986    8.2924 H   0  0  0  0  0  0  0  0  0  0  0  0
    1.1905    2.0773   10.2546 H   0  0  0  0  0  0  0  0  0  0  0  0
    2.9832    2.2241   11.9473 H   0  0  0  0  0  0  0  0  0  0  0  0
    4.9785    1.3028   12.9233 H   0  0  0  0  0  0  0  0  0  0  0  0
    5.6938   -0.1757   12.2119 H   0  0  0  0  0  0  0  0  0  0  0  0
    6.2723    2.7129   11.2694 H   0  0  0  0  0  0  0  0  0  0  0  0
    7.0334    1.1979   10.6228 H   0  0  0  0  0  0  0  0  0  0  0  0
    7.3326    1.7041   12.3250 H   0  0  0  0  0  0  0  0  0  0  0  0
    5.3344   -0.5884    9.6728 H   0  0  0  0  0  0  0  0  0  0  0  0
   -4.3849   -3.7869    0.4928 H   0  0  0  0  0  0  0  0  0  0  0  0
   -6.4699   -2.4887    0.2667 H   0  0  0  0  0  0  0  0  0  0  0  0
   -8.6659   -3.5860    0.5758 H   0  0  0  0  0  0  0  0  0  0  0  0
   -9.1080   -7.2680    0.8460 H   0  0  0  0  0  0  0  0  0  0  0  0
   -9.9439   -5.7067    0.5875 H   0  0  0  0  0  0  0  0  0  0  0  0
   -8.7326   -6.6497    3.2754 H   0  0  0  0  0  0  0  0  0  0  0  0
   -9.6540   -5.1159    2.9934 H   0  0  0  0  0  0  0  0  0  0  0  0
  -10.4754   -6.7162    2.8188 H   0  0  0  0  0  0  0  0  0  0  0  0
   -6.6697   -7.3271    1.3560 H   0  0  0  0  0  0  0  0  0  0  0  0
    1.5289   -4.9735    3.2063 H   0  0  0  0  0  0  0  0  0  0  0  0
    2.9042   -4.0098    3.7615 H   0  0  0  0  0  0  0  0  0  0  0  0
    1.1668   -2.6167    2.6267 H   0  0  0  0  0  0  0  0  0  0  0  0
    1.2725   -2.1395    4.3619 H   0  0  0  0  0  0  0  0  0  0  0  0
   -0.0843   -3.1835    3.7999 H   0  0  0  0  0  0  0  0  0  0  0  0
    1.6574   -7.0493    3.9343 H   0  0  0  0  0  0  0  0  0  0  0  0
    0.8528   -7.1939    2.3309 H   0  0  0  0  0  0  0  0  0  0  0  0
    1.4895   -9.4104    3.3605 H   0  0  0  0  0  0  0  0  0  0  0  0
    0.4001   -9.0617    4.7509 H   0  0  0  0  0  0  0  0  0  0  0  0
   -0.2792   -9.2801    3.0868 H   0  0  0  0  0  0  0  0  0  0  0  0
   -5.2215   -6.0602   -1.8475 H   0  0  0  0  0  0  0  0  0  0  0  0
   -5.7940   -6.9066   -4.0565 H   0  0  0  0  0  0  0  0  0  0  0  0
   -8.2601   -7.3678   -4.6294 H   0  0  0  0  0  0  0  0  0  0  0  0
  -10.7188   -5.6424   -4.7286 H   0  0  0  0  0  0  0  0  0  0  0  0
  -11.3450   -4.4574   -6.6960 H   0  0  0  0  0  0  0  0  0  0  0  0
   -7.7707   -5.5671   -7.4500 H   0  0  0  0  0  0  0  0  0  0  0  0
   -6.4973   -4.2121   -9.2339 H   0  0  0  0  0  0  0  0  0  0  0  0
   -5.9214   -1.2630   -8.6313 H   0  0  0  0  0  0  0  0  0  0  0  0
   -5.7779   -0.0137   -9.9115 H   0  0  0  0  0  0  0  0  0  0  0  0
   -8.0128    0.9520   -9.1707 H   0  0  0  0  0  0  0  0  0  0  0  0
   -6.7070    1.0670   -7.9363 H   0  0  0  0  0  0  0  0  0  0  0  0
   -7.9761   -0.1946   -7.7630 H   0  0  0  0  0  0  0  0  0  0  0  0
   -1.1123   -0.8655   -2.6698 H   0  0  0  0  0  0  0  0  0  0  0  0
    1.2790   -0.8650   -1.7129 H   0  0  0  0  0  0  0  0  0  0  0  0
    3.2744   -2.5487   -1.2170 H   0  0  0  0  0  0  0  0  0  0  0  0
    2.8670   -5.1721   -2.7422 H   0  0  0  0  0  0  0  0  0  0  0  0
    4.8572   -3.3954    0.2039 H   0  0  0  0  0  0  0  0  0  0  0  0
    6.3339   -5.0064    1.5520 H   0  0  0  0  0  0  0  0  0  0  0  0
    5.7106   -9.0909    2.8556 H   0  0  0  0  0  0  0  0  0  0  0  0
    4.8511   -7.5429    2.5327 H   0  0  0  0  0  0  0  0  0  0  0  0
    3.4941   -9.6779    2.1350 H   0  0  0  0  0  0  0  0  0  0  0  0
    4.5818  -10.0627    0.7567 H   0  0  0  0  0  0  0  0  0  0  0  0
    3.5520   -8.5709    0.7228 H   0  0  0  0  0  0  0  0  0  0  0  0
   -1.8037   -0.9312   -5.3659 H   0  0  0  0  0  0  0  0  0  0  0  0
   -3.8676    0.3147   -7.8007 H   0  0  0  0  0  0  0  0  0  0  0  0
   -6.4579    2.2007   -2.4009 H   0  0  0  0  0  0  0  0  0  0  0  0
   -6.8135    4.8645   -6.7400 H   0  0  0  0  0  0  0  0  0  0  0  0
   -8.4274    6.4613   -4.0799 H   0  0  0  0  0  0  0  0  0  0  0  0
  -10.4610    5.6411   -5.4494 H   0  0  0  0  0  0  0  0  0  0  0  0
  -10.2474    3.0498   -5.9664 H   0  0  0  0  0  0  0  0  0  0  0  0
  -10.0446    1.7795   -3.6957 H   0  0  0  0  0  0  0  0  0  0  0  0
  -10.1268    3.5724   -1.7347 H   0  0  0  0  0  0  0  0  0  0  0  0
  -11.8458    4.6261   -3.4444 H   0  0  0  0  0  0  0  0  0  0  0  0
  -10.7559    5.9354   -2.8089 H   0  0  0  0  0  0  0  0  0  0  0  0
   -8.2202    5.2872   -2.0345 H   0  0  0  0  0  0  0  0  0  0  0  0
  1  2  2  3
  2  3  1  0
  3  4  2  0
  3  5  1  0
  5  6  2  0
  6  7  1  0
  7  8  2  0
  8  9  1  0
  9 10  2  0
 10 11  1  0
 11 12  2  3
 12 13  1  0
 13 14  3  0
 12 15  1  0
 15 16  3  0
  8 17  1  0
 17 18  1  0
 18 19  1  0
 19 20  2  0
 20 21  1  0
 21 22  1  0
 21 23  1  0
  1 24  1  0
 24 25  2  0
 25 26  1  0
 26 27  2  0
 27 28  1  0
 28 29  2  0
 29 30  1  0
 30 31  2  0
 31 32  1  0
 32 33  1  0
 33 34  1  0
 34 35  1  0
 32 36  2  0
 27 37  1  0
 37 38  2  0
 38 39  1  0
 39 40  1  0
 40 41  2  0
 41 42  1  0
 42 43  2  0
 43 44  1  0
 44 45  1  0
 45 46  1  0
 46 47  1  0
 44 48  2  0
 39 49  2  0
 49 50  1  0
 38 51  1  0
 51 52  2  0
 52 53  1  0
 52 54  1  0
 54 55  2  0
 55 56  1  0
 56 57  2  0
 57 58  1  0
 58 59  2  0
 59 60  1  0
 60 61  1  0
 61 62  1  0
 60 63  2  0
 55 64  1  0
 64 65  1  0
 65 66  1  0
 66 67  1  0
 67 68  1  0
 68 69  1  0
 69 70  2  0
 70 71  1  0
 71 72  1  0
 69 73  1  0
 73 74  1  0
 74 75  1  0
 75 76  1  0
 76 77  1  0
 77 78  1  0
 78 79  2  0
 79 80  1  0
 80 81  2  0
 81 82  1  0
 82 83  1  0
 83 84  1  0
 82 85  2  0
 77 86  2  0
 86 87  1  0
 87 88  1  0
 88 89  1  0
 89 90  1  0
 90 91  1  0
 91 92  1  0
 92 93  1  0
 93 94  1  0
 94 95  1  0
 95 96  1  0
 93 97  1  0
 97 98  1  0
 90 99  1  0
 99100  1  0
 86101  1  0
101102  2  0
102103  1  0
103104  2  0
104105  1  0
105106  2  0
106107  1  0
107108  2  0
108109  1  0
109110  2  3
110111  1  0
111112  2  0
112113  1  0
113114  2  0
114115  1  0
115116  1  0
116117  1  0
114118  1  0
108119  1  0
104120  1  0
120121  2  0
121122  1  0
122123  1  0
123124  2  0
124125  1  0
125126  2  0
126127  1  0
127128  2  3
128129  1  0
129130  2  0
130131  1  0
131132  2  0
132133  1  0
133134  1  0
134135  1  0
132136  1  0
126137  1  0
122138  2  0
138139  1  0
121140  1  0
140141  2  0
141142  1  0
141143  1  0
143144  2  3
144145  1  0
145146  2  0
145147  1  0
147148  2  0
148149  1  0
149150  2  0
150151  1  0
151152  2  0
152153  1  0
153154  2  3
154155  1  0
155156  3  0
154157  1  0
157158  3  0
150159  1  0
159160  1  0
160161  1  0
161162  2  0
162163  1  0
163164  1  0
163165  1  0
 11  2  1  0
 23 17  1  0
 50 24  1  0
 96 54  1  0
139101  1  0
153144  1  0
165159  1  0
 10  5  1  0
 22 18  1  0
 49 26  1  0
 63 56  1  0
 95 64  2  0
138103  1  0
152147  1  0
164160  1  0
 23  7  1  0
 36 28  1  0
 53 37  1  0
 94 66  2  0
119105  1  0
142120  1  0
165149  1  0
 48 40  1  0
 92 67  2  0
118111  1  0
137123  1  0
 72 68  2  0
 91 73  2  0
136129  1  0
 89 74  2  0
 88 76  2  0
 85 78  1  0
  1166  1  0
  6167  1  0
  9168  1  0
 17169  1  0
 18170  1  0
 19171  1  0
 20172  1  0
 21173  1  0
 22174  1  0
 22175  1  0
 23176  1  0
 25177  1  0
 29178  1  0
 30179  1  0
 31180  1  0
 34181  1  0
 34182  1  0
 35183  1  0
 35184  1  0
 35185  1  0
 36186  1  0
 41187  1  0
 42188  1  0
 43189  1  0
 46190  1  0
 46191  1  0
 47192  1  0
 47193  1  0
 47194  1  0
 48195  1  0
 51196  1  0
 57197  1  0
 58198  1  0
 59199  1  0
 61200  1  0
 61201  1  0
 62202  1  0
 62203  1  0
 62204  1  0
 63205  1  0
 79206  1  0
 80207  1  0
 81208  1  0
 83209  1  0
 83210  1  0
 84211  1  0
 84212  1  0
 84213  1  0
 85214  1  0
 97215  1  0
 97216  1  0
 98217  1  0
 98218  1  0
 98219  1  0
 99220  1  0
 99221  1  0
100222  1  0
100223  1  0
100224  1  0
102225  1  0
106226  1  0
107227  1  0
109228  1  0
110229  1  0
112230  1  0
113231  1  0
116232  1  0
116233  1  0
117234  1  0
117235  1  0
117236  1  0
124237  1  0
125238  1  0
127239  1  0
128240  1  0
130241  1  0
131242  1  0
134243  1  0
134244  1  0
135245  1  0
135246  1  0
135247  1  0
140248  1  0
143249  1  0
148250  1  0
151251  1  0
159252  1  0
160253  1  0
161254  1  0
162255  1  0
163256  1  0
164257  1  0
164258  1  0
165259  1  0
M  END

