
     RDKit          3D

216243  0  0  0  0  0  0  0  0999 V2000
    2.9084   -4.3618   -4.2560 C   0  0  0  0  0  0  0  0  0  0  0  0
    3.0048   -3.0518   -4.5714 C   0  0  0  0  0  0  0  0  0  0  0  0
    1.9560   -2.0443   -4.3534 C   0  0  0  0  0  0  0  0  0  0  0  0
    0.7405   -2.2663   -4.0973 O   0  0  0  0  0  0  0  0  0  0  0  0
    2.5411   -0.7282   -4.4419 C   0  0  0  0  0  0  0  0  0  0  0  0
    1.8909    0.5051   -4.1993 C   0  0  0  0  0  0  0  0  0  0  0  0
    2.7285    1.6004   -4.2853 C   0  0  0  0  0  0  0  0  0  0  0  0
    4.1247    1.4965   -4.5842 C   0  0  0  0  0  0  0  0  0  0  0  0
    4.7694    0.2939   -4.8158 C   0  0  0  0  0  0  0  0  0  0  0  0
    3.9210   -0.8518   -4.7557 C   0  0  0  0  0  0  0  0  0  0  0  0
    4.2457   -2.2986   -4.9477 C   0  0  0  0  0  0  0  0  0  0  0  0
    5.3495   -2.8084   -5.5544 C   0  0  0  0  0  0  0  0  0  0  0  0
    6.4601   -1.9932   -5.9686 C   0  0  0  0  0  0  0  0  0  0  0  0
    7.3610   -1.3500   -6.3096 N   0  0  0  0  0  0  0  0  0  0  0  0
    5.4343   -4.1859   -5.9583 C   0  0  0  0  0  0  0  0  0  0  0  0
    5.5048   -5.2944   -6.2908 N   0  0  0  0  0  0  0  0  0  0  0  0
    4.2770    2.9838   -4.4619 C   0  0  0  0  0  0  0  0  0  0  0  0
    4.9620    3.5091   -3.1666 C   0  0  0  0  0  0  0  0  0  0  0  0
    4.6454    4.9828   -3.0915 C   0  0  0  0  0  0  0  0  0  0  0  0
    3.3401    5.0799   -2.8162 C   0  0  0  0  0  0  0  0  0  0  0  0
    2.8223    3.6661   -2.7091 C   0  0  0  0  0  0  0  0  0  0  0  0
    4.0360    3.0211   -2.0657 C   0  0  0  0  0  0  0  0  0  0  0  0
    2.8448    3.0891   -4.1544 C   0  0  0  0  0  0  0  0  0  0  0  0
    1.6558   -4.9560   -3.7758 C   0  0  0  0  0  0  0  0  0  0  0  0
    0.5418   -5.1873   -4.5760 C   0  0  0  0  0  0  0  0  0  0  0  0
   -0.6479   -5.2861   -3.8345 C   0  0  0  0  0  0  0  0  0  0  0  0
   -1.9593   -5.3224   -4.3604 C   0  0  0  0  0  0  0  0  0  0  0  0
   -2.2338   -5.3893   -5.8104 C   0  0  0  0  0  0  0  0  0  0  0  0
   -2.8690   -6.5209   -6.3529 C   0  0  0  0  0  0  0  0  0  0  0  0
   -3.1883   -6.5650   -7.7114 C   0  0  0  0  0  0  0  0  0  0  0  0
   -2.8966   -5.4710   -8.5342 C   0  0  0  0  0  0  0  0  0  0  0  0
   -2.2893   -4.3278   -7.9954 C   0  0  0  0  0  0  0  0  0  0  0  0
   -1.9452   -2.9096   -9.0439 S   0  0  0  0  0  0  0  0  0  0  0  0
   -3.6325   -2.2050   -8.9422 C   0  0  0  0  0  0  0  0  0  0  0  0
   -3.8530   -1.4716   -7.6246 C   0  0  0  0  0  0  0  0  0  0  0  0
   -1.9431   -4.2960   -6.6397 C   0  0  0  0  0  0  0  0  0  0  0  0
   -3.0139   -5.1254   -3.4528 C   0  0  0  0  0  0  0  0  0  0  0  0
   -2.8056   -4.9624   -2.0816 C   0  0  0  0  0  0  0  0  0  0  0  0
   -1.5082   -5.0246   -1.5439 C   0  0  0  0  0  0  0  0  0  0  0  0
   -1.2461   -4.7643   -0.1141 C   0  0  0  0  0  0  0  0  0  0  0  0
   -1.3076   -3.4559    0.3916 C   0  0  0  0  0  0  0  0  0  0  0  0
   -1.0766   -3.2191    1.7478 C   0  0  0  0  0  0  0  0  0  0  0  0
   -0.7566   -4.2803    2.6030 C   0  0  0  0  0  0  0  0  0  0  0  0
   -0.6821   -5.5855    2.1030 C   0  0  0  0  0  0  0  0  0  0  0  0
   -0.2910   -6.9568    3.1966 S   0  0  0  0  0  0  0  0  0  0  0  0
    1.4912   -7.0064    2.7656 C   0  0  0  0  0  0  0  0  0  0  0  0
    2.3034   -6.2202    3.7814 C   0  0  0  0  0  0  0  0  0  0  0  0
   -0.9355   -5.8269    0.7453 C   0  0  0  0  0  0  0  0  0  0  0  0
   -0.4486   -5.1638   -2.4538 C   0  0  0  0  0  0  0  0  0  0  0  0
    1.1881   -4.9173   -2.1531 S   0  0  0  0  0  0  0  0  0  0  0  0
   -3.9516   -4.5368   -1.3950 C   0  0  0  0  0  0  0  0  0  0  0  0
   -5.0418   -4.3075   -2.2319 C   0  0  0  0  0  0  0  0  0  0  0  0
   -4.5959   -4.6829   -3.8158 S   0  0  0  0  0  0  0  0  0  0  0  0
   -6.1087   -3.3522   -1.9066 C   0  0  0  0  0  0  0  0  0  0  0  0
   -6.7794   -3.2517   -0.6722 C   0  0  0  0  0  0  0  0  0  0  0  0
   -6.6695   -4.2527    0.4040 C   0  0  0  0  0  0  0  0  0  0  0  0
   -7.1874   -5.5400    0.2080 C   0  0  0  0  0  0  0  0  0  0  0  0
   -7.0025   -6.5269    1.1811 C   0  0  0  0  0  0  0  0  0  0  0  0
   -6.2693   -6.2427    2.3368 C   0  0  0  0  0  0  0  0  0  0  0  0
   -5.7153   -4.9635    2.5286 C   0  0  0  0  0  0  0  0  0  0  0  0
   -4.9010   -4.6703    3.7593 C   0  0  0  0  0  0  0  0  0  0  0  0
   -5.8041   -4.3078    4.9334 C   0  0  0  0  0  0  0  0  0  0  0  0
   -5.9446   -3.9609    1.5697 C   0  0  0  0  0  0  0  0  0  0  0  0
   -7.3969   -2.0023   -0.5318 C   0  0  0  0  0  0  0  0  0  0  0  0
   -7.9404   -1.1438    0.8311 S   0  0  0  0  0  0  0  0  0  0  0  0
   -7.9385    0.3356   -0.0112 C   0  0  0  0  0  0  0  0  0  0  0  0
   -7.5659    1.5929    0.3945 C   0  0  0  0  0  0  0  0  0  0  0  0
   -7.7432    2.2814    1.5961 C   0  0  0  0  0  0  0  0  0  0  0  0
   -7.1117    3.5557    1.7551 C   0  0  0  0  0  0  0  0  0  0  0  0
   -7.2945    4.1817    2.9476 N   0  0  0  0  0  0  0  0  0  0  0  0
   -8.2703    3.0754    3.7008 S   0  0  0  0  0  0  0  0  0  0  0  0
   -8.4843    1.8227    2.6365 N   0  0  0  0  0  0  0  0  0  0  0  0
   -6.2449    4.0203    0.7423 C   0  0  0  0  0  0  0  0  0  0  0  0
   -5.1742    4.8682    0.8661 C   0  0  0  0  0  0  0  0  0  0  0  0
   -4.4667    5.5800    2.2346 S   0  0  0  0  0  0  0  0  0  0  0  0
   -2.9041    5.4108    1.5999 C   0  0  0  0  0  0  0  0  0  0  0  0
   -1.6744    5.3737    2.2628 C   0  0  0  0  0  0  0  0  0  0  0  0
   -1.4762    5.8708    3.6354 C   0  0  0  0  0  0  0  0  0  0  0  0
   -1.1327    4.9953    4.6758 C   0  0  0  0  0  0  0  0  0  0  0  0
   -0.8551    5.4949    5.9502 C   0  0  0  0  0  0  0  0  0  0  0  0
   -0.9215    6.8677    6.1973 C   0  0  0  0  0  0  0  0  0  0  0  0
   -1.2840    7.7530    5.1689 C   0  0  0  0  0  0  0  0  0  0  0  0
   -1.2691    9.2391    5.4101 C   0  0  0  0  0  0  0  0  0  0  0  0
    0.1209    9.8097    5.1493 C   0  0  0  0  0  0  0  0  0  0  0  0
   -1.5617    7.2479    3.8878 C   0  0  0  0  0  0  0  0  0  0  0  0
   -0.7168    4.6576    1.5237 C   0  0  0  0  0  0  0  0  0  0  0  0
   -1.4209    4.1156    0.0745 S   0  0  0  0  0  0  0  0  0  0  0  0
   -2.9376    4.7721    0.3824 C   0  0  0  0  0  0  0  0  0  0  0  0
   -4.2340    4.4587   -0.0440 C   0  0  0  0  0  0  0  0  0  0  0  0
   -4.6785    3.4174   -0.8046 N   0  0  0  0  0  0  0  0  0  0  0  0
   -5.9718    3.2326   -0.3858 C   0  0  0  0  0  0  0  0  0  0  0  0
   -6.7848    2.1064   -0.6350 C   0  0  0  0  0  0  0  0  0  0  0  0
   -6.7671    1.2684   -1.7057 N   0  0  0  0  0  0  0  0  0  0  0  0
   -7.4576    0.1807   -1.2873 C   0  0  0  0  0  0  0  0  0  0  0  0
   -7.2030   -1.1465   -1.5891 C   0  0  0  0  0  0  0  0  0  0  0  0
   -6.2412   -1.8765   -2.7413 S   0  0  0  0  0  0  0  0  0  0  0  0
   -6.5855    1.6583   -3.1127 C   0  0  0  0  0  0  0  0  0  0  0  0
   -7.9298    1.9509   -3.7698 C   0  0  0  0  0  0  0  0  0  0  0  0
   -3.7959    2.3465   -1.3032 C   0  0  0  0  0  0  0  0  0  0  0  0
   -3.4361    1.3628   -0.1891 C   0  0  0  0  0  0  0  0  0  0  0  0
    0.5351    4.1135    2.0771 C   0  0  0  0  0  0  0  0  0  0  0  0
    0.6831    2.7325    2.2960 C   0  0  0  0  0  0  0  0  0  0  0  0
    1.8304    2.2213    2.9836 C   0  0  0  0  0  0  0  0  0  0  0  0
    1.8725    0.8732    3.1733 N   0  0  0  0  0  0  0  0  0  0  0  0
    0.4517    0.4229    2.4554 S   0  0  0  0  0  0  0  0  0  0  0  0
   -0.2492    1.8178    1.9163 N   0  0  0  0  0  0  0  0  0  0  0  0
    2.8442    3.0840    3.4424 C   0  0  0  0  0  0  0  0  0  0  0  0
    2.6795    4.4639    3.2253 C   0  0  0  0  0  0  0  0  0  0  0  0
    3.5628    5.4844    3.6232 C   0  0  0  0  0  0  0  0  0  0  0  0
    3.1220    6.7563    3.2552 C   0  0  0  0  0  0  0  0  0  0  0  0
    3.8052    8.0220    3.5381 C   0  0  0  0  0  0  0  0  0  0  0  0
    3.3520    9.0947    3.0546 O   0  0  0  0  0  0  0  0  0  0  0  0
    4.9522    8.0312    4.3402 O   0  0  0  0  0  0  0  0  0  0  0  0
    5.6554    9.2348    4.6413 C   0  0  0  0  0  0  0  0  0  0  0  0
    6.8181    8.9265    5.5691 C   0  0  0  0  0  0  0  0  0  0  0  0
    1.6541    6.6242    2.4377 S   0  0  0  0  0  0  0  0  0  0  0  0
    1.5529    4.9490    2.5507 C   0  0  0  0  0  0  0  0  0  0  0  0
    4.0469    2.5326    4.0875 C   0  0  0  0  0  0  0  0  0  0  0  0
    4.9621    1.8307    3.3884 C   0  0  0  0  0  0  0  0  0  0  0  0
    4.9162    1.6206    1.9371 C   0  0  0  0  0  0  0  0  0  0  0  0
    4.2342    2.2824    1.1131 O   0  0  0  0  0  0  0  0  0  0  0  0
    5.7563    0.4990    1.5956 C   0  0  0  0  0  0  0  0  0  0  0  0
    5.8742   -0.1092    0.3259 C   0  0  0  0  0  0  0  0  0  0  0  0
    6.6235   -1.2715    0.3343 C   0  0  0  0  0  0  0  0  0  0  0  0
    7.2165   -1.8129    1.5212 C   0  0  0  0  0  0  0  0  0  0  0  0
    7.1085   -1.2083    2.7696 C   0  0  0  0  0  0  0  0  0  0  0  0
    6.3733    0.0102    2.7753 C   0  0  0  0  0  0  0  0  0  0  0  0
    6.0067    0.8995    3.9210 C   0  0  0  0  0  0  0  0  0  0  0  0
    6.6177    0.9656    5.1318 C   0  0  0  0  0  0  0  0  0  0  0  0
    6.3234    1.9948    6.0926 C   0  0  0  0  0  0  0  0  0  0  0  0
    6.0991    2.8191    6.8761 N   0  0  0  0  0  0  0  0  0  0  0  0
    7.7082    0.0966    5.4903 C   0  0  0  0  0  0  0  0  0  0  0  0
    8.5862   -0.5913    5.7922 N   0  0  0  0  0  0  0  0  0  0  0  0
    7.7104   -3.0015    0.7444 C   0  0  0  0  0  0  0  0  0  0  0  0
    6.9555   -4.3534    0.9232 C   0  0  0  0  0  0  0  0  0  0  0  0
    5.4976   -4.0988    1.2309 C   0  0  0  0  0  0  0  0  0  0  0  0
    4.9584   -3.5813    0.1281 C   0  0  0  0  0  0  0  0  0  0  0  0
    6.0662   -3.5063   -0.8981 C   0  0  0  0  0  0  0  0  0  0  0  0
    6.8174   -4.7719   -0.5276 C   0  0  0  0  0  0  0  0  0  0  0  0
    7.1159   -2.4354   -0.4707 C   0  0  0  0  0  0  0  0  0  0  0  0
    3.7838   -4.9969   -4.2378 H   0  0  0  0  0  0  0  0  0  0  0  0
    0.8441    0.5881   -3.9435 H   0  0  0  0  0  0  0  0  0  0  0  0
    5.8328    0.2651   -4.9723 H   0  0  0  0  0  0  0  0  0  0  0  0
    4.5859    3.4856   -5.4104 H   0  0  0  0  0  0  0  0  0  0  0  0
    6.0349    3.2388   -3.0515 H   0  0  0  0  0  0  0  0  0  0  0  0
    5.3472    5.8053   -3.1358 H   0  0  0  0  0  0  0  0  0  0  0  0
    2.8029    5.9954   -2.5939 H   0  0  0  0  0  0  0  0  0  0  0  0
    1.8653    3.5478   -2.1608 H   0  0  0  0  0  0  0  0  0  0  0  0
    4.2847    3.4619   -1.0729 H   0  0  0  0  0  0  0  0  0  0  0  0
    3.9725    1.9134   -1.9707 H   0  0  0  0  0  0  0  0  0  0  0  0
    2.2515    3.6535   -4.9097 H   0  0  0  0  0  0  0  0  0  0  0  0
    0.5749   -5.1555   -5.6538 H   0  0  0  0  0  0  0  0  0  0  0  0
   -3.1228   -7.3620   -5.7162 H   0  0  0  0  0  0  0  0  0  0  0  0
   -3.6757   -7.4360   -8.1237 H   0  0  0  0  0  0  0  0  0  0  0  0
   -3.1550   -5.5034   -9.5826 H   0  0  0  0  0  0  0  0  0  0  0  0
   -3.7532   -1.4852   -9.7761 H   0  0  0  0  0  0  0  0  0  0  0  0
   -4.3993   -2.9990   -9.0657 H   0  0  0  0  0  0  0  0  0  0  0  0
   -3.0862   -0.6799   -7.4916 H   0  0  0  0  0  0  0  0  0  0  0  0
   -3.8050   -2.1787   -6.7722 H   0  0  0  0  0  0  0  0  0  0  0  0
   -4.8564   -0.9963   -7.6289 H   0  0  0  0  0  0  0  0  0  0  0  0
   -1.4762   -3.4090   -6.2227 H   0  0  0  0  0  0  0  0  0  0  0  0
   -1.5438   -2.6244   -0.2651 H   0  0  0  0  0  0  0  0  0  0  0  0
   -1.1541   -2.2138    2.1371 H   0  0  0  0  0  0  0  0  0  0  0  0
   -0.5713   -4.0848    3.6512 H   0  0  0  0  0  0  0  0  0  0  0  0
    1.6677   -6.6220    1.7346 H   0  0  0  0  0  0  0  0  0  0  0  0
    1.8247   -8.0686    2.7914 H   0  0  0  0  0  0  0  0  0  0  0  0
    1.9067   -5.1894    3.8989 H   0  0  0  0  0  0  0  0  0  0  0  0
    2.2515   -6.7434    4.7592 H   0  0  0  0  0  0  0  0  0  0  0  0
    3.3648   -6.1631    3.4579 H   0  0  0  0  0  0  0  0  0  0  0  0
   -0.8947   -6.8414    0.3611 H   0  0  0  0  0  0  0  0  0  0  0  0
   -3.9379   -4.2353   -0.3608 H   0  0  0  0  0  0  0  0  0  0  0  0
   -7.7342   -5.7807   -0.6995 H   0  0  0  0  0  0  0  0  0  0  0  0
   -7.4102   -7.5173    1.0330 H   0  0  0  0  0  0  0  0  0  0  0  0
   -6.1139   -7.0203    3.0721 H   0  0  0  0  0  0  0  0  0  0  0  0
   -4.2018   -3.8307    3.5651 H   0  0  0  0  0  0  0  0  0  0  0  0
   -4.2873   -5.5572    4.0248 H   0  0  0  0  0  0  0  0  0  0  0  0
   -5.1867   -4.1540    5.8421 H   0  0  0  0  0  0  0  0  0  0  0  0
   -6.5288   -5.1266    5.1320 H   0  0  0  0  0  0  0  0  0  0  0  0
   -6.3605   -3.3699    4.7134 H   0  0  0  0  0  0  0  0  0  0  0  0
   -5.5173   -2.9765    1.7077 H   0  0  0  0  0  0  0  0  0  0  0  0
   -1.0668    3.9256    4.4967 H   0  0  0  0  0  0  0  0  0  0  0  0
   -0.5746    4.8170    6.7409 H   0  0  0  0  0  0  0  0  0  0  0  0
   -0.6807    7.2448    7.1839 H   0  0  0  0  0  0  0  0  0  0  0  0
   -1.5681    9.4600    6.4570 H   0  0  0  0  0  0  0  0  0  0  0  0
   -2.0021    9.7473    4.7443 H   0  0  0  0  0  0  0  0  0  0  0  0
    0.8695    9.3249    5.8171 H   0  0  0  0  0  0  0  0  0  0  0  0
    0.4198    9.6436    4.0895 H   0  0  0  0  0  0  0  0  0  0  0  0
    0.1184   10.8993    5.3547 H   0  0  0  0  0  0  0  0  0  0  0  0
   -1.7950    7.9288    3.0758 H   0  0  0  0  0  0  0  0  0  0  0  0
   -6.0662    0.8476   -3.6661 H   0  0  0  0  0  0  0  0  0  0  0  0
   -5.9790    2.5827   -3.1890 H   0  0  0  0  0  0  0  0  0  0  0  0
   -8.5944    1.0609   -3.7157 H   0  0  0  0  0  0  0  0  0  0  0  0
   -8.4286    2.8060   -3.2614 H   0  0  0  0  0  0  0  0  0  0  0  0
   -7.7710    2.2055   -4.8383 H   0  0  0  0  0  0  0  0  0  0  0  0
   -2.8775    2.7856   -1.7478 H   0  0  0  0  0  0  0  0  0  0  0  0
   -4.2568    1.7737   -2.1211 H   0  0  0  0  0  0  0  0  0  0  0  0
   -4.3202    0.7472    0.0888 H   0  0  0  0  0  0  0  0  0  0  0  0
   -2.6299    0.6805   -0.5279 H   0  0  0  0  0  0  0  0  0  0  0  0
   -3.0880    1.8958    0.7201 H   0  0  0  0  0  0  0  0  0  0  0  0
    4.4849    5.2995    4.1560 H   0  0  0  0  0  0  0  0  0  0  0  0
    4.9729    9.9519    5.1432 H   0  0  0  0  0  0  0  0  0  0  0  0
    6.0453    9.6896    3.7057 H   0  0  0  0  0  0  0  0  0  0  0  0
    6.4375    8.5310    6.5337 H   0  0  0  0  0  0  0  0  0  0  0  0
    7.3972    9.8538    5.7634 H   0  0  0  0  0  0  0  0  0  0  0  0
    7.4864    8.1757    5.0982 H   0  0  0  0  0  0  0  0  0  0  0  0
    4.0529    2.5494    5.1632 H   0  0  0  0  0  0  0  0  0  0  0  0
    5.3775    0.2559   -0.5602 H   0  0  0  0  0  0  0  0  0  0  0  0
    7.5136   -1.6830    3.6401 H   0  0  0  0  0  0  0  0  0  0  0  0
    8.8187   -3.0816    0.6988 H   0  0  0  0  0  0  0  0  0  0  0  0
    7.4517   -5.0933    1.5903 H   0  0  0  0  0  0  0  0  0  0  0  0
    4.9653   -4.3446    2.1450 H   0  0  0  0  0  0  0  0  0  0  0  0
    3.9130   -3.3293   -0.0066 H   0  0  0  0  0  0  0  0  0  0  0  0
    5.7246   -3.4425   -1.9503 H   0  0  0  0  0  0  0  0  0  0  0  0
    6.2146   -5.7039   -0.6685 H   0  0  0  0  0  0  0  0  0  0  0  0
    7.7946   -4.8867   -1.0550 H   0  0  0  0  0  0  0  0  0  0  0  0
    7.8566   -2.1648   -1.2530 H   0  0  0  0  0  0  0  0  0  0  0  0
  1  2  2  3
  2  3  1  0
  3  4  2  0
  3  5  1  0
  5  6  2  0
  6  7  1  0
  7  8  2  0
  8  9  1  0
  9 10  2  0
 10 11  1  0
 11 12  2  3
 12 13  1  0
 13 14  3  0
 12 15  1  0
 15 16  3  0
  8 17  1  0
 17 18  1  0
 18 19  1  0
 19 20  2  0
 20 21  1  0
 21 22  1  0
 21 23  1  0
  1 24  1  0
 24 25  2  0
 25 26  1  0
 26 27  2  0
 27 28  1  0
 28 29  2  0
 29 30  1  0
 30 31  2  0
 31 32  1  0
 32 33  1  0
 33 34  1  0
 34 35  1  0
 32 36  2  0
 27 37  1  0
 37 38  2  0
 38 39  1  0
 39 40  1  0
 40 41  2  0
 41 42  1  0
 42 43  2  0
 43 44  1  0
 44 45  1  0
 45 46  1  0
 46 47  1  0
 44 48  2  0
 39 49  2  0
 49 50  1  0
 38 51  1  0
 51 52  2  0
 52 53  1  0
 52 54  1  0
 54 55  2  0
 55 56  1  0
 56 57  2  0
 57 58  1  0
 58 59  2  0
 59 60  1  0
 60 61  1  0
 61 62  1  0
 60 63  2  0
 55 64  1  0
 64 65  1  0
 65 66  1  0
 66 67  1  0
 67 68  1  0
 68 69  1  0
 69 70  2  0
 70 71  1  0
 71 72  1  0
 69 73  1  0
 73 74  1  0
 74 75  1  0
 75 76  1  0
 76 77  1  0
 77 78  1  0
 78 79  2  0
 79 80  1  0
 80 81  2  0
 81 82  1  0
 82 83  1  0
 83 84  1  0
 82 85  2  0
 77 86  2  0
 86 87  1  0
 87 88  1  0
 88 89  1  0
 89 90  1  0
 90 91  1  0
 91 92  1  0
 92 93  1  0
 93 94  1  0
 94 95  1  0
 95 96  1  0
 93 97  1  0
 97 98  1  0
 90 99  1  0
 99100  1  0
 86101  1  0
101102  1  0
102103  1  0
103104  2  0
104105  1  0
105106  1  0
103107  1  0
107108  2  0
108109  1  0
109110  2  0
110111  1  0
111112  2  0
111113  1  0
113114  1  0
114115  1  0
110116  1  0
116117  1  0
107118  1  0
118119  2  3
119120  1  0
120121  2  0
120122  1  0
122123  2  0
123124  1  0
124125  2  0
125126  1  0
126127  2  0
127128  1  0
128129  2  3
129130  1  0
130131  3  0
129132  1  0
132133  3  0
125134  1  0
134135  1  0
135136  1  0
136137  2  0
137138  1  0
138139  1  0
138140  1  0
 11  2  1  0
 23 17  1  0
 50 24  1  0
 96 54  1  0
117101  2  0
128119  1  0
140134  1  0
 10  5  1  0
 22 18  1  0
 49 26  1  0
 63 56  1  0
 95 64  2  0
106102  2  0
117108  1  0
127122  1  0
139135  1  0
 23  7  1  0
 36 28  1  0
 53 37  1  0
 94 66  2  0
140124  1  0
 48 40  1  0
 92 67  2  0
 72 68  2  0
 91 73  2  0
 89 74  2  0
 88 76  2  0
 85 78  1  0
  1141  1  0
  6142  1  0
  9143  1  0
 17144  1  0
 18145  1  0
 19146  1  0
 20147  1  0
 21148  1  0
 22149  1  0
 22150  1  0
 23151  1  0
 25152  1  0
 29153  1  0
 30154  1  0
 31155  1  0
 34156  1  0
 34157  1  0
 35158  1  0
 35159  1  0
 35160  1  0
 36161  1  0
 41162  1  0
 42163  1  0
 43164  1  0
 46165  1  0
 46166  1  0
 47167  1  0
 47168  1  0
 47169  1  0
 48170  1  0
 51171  1  0
 57172  1  0
 58173  1  0
 59174  1  0
 61175  1  0
 61176  1  0
 62177  1  0
 62178  1  0
 62179  1  0
 63180  1  0
 79181  1  0
 80182  1  0
 81183  1  0
 83184  1  0
 83185  1  0
 84186  1  0
 84187  1  0
 84188  1  0
 85189  1  0
 97190  1  0
 97191  1  0
 98192  1  0
 98193  1  0
 98194  1  0
 99195  1  0
 99196  1  0
100197  1  0
100198  1  0
100199  1  0
109200  1  0
114201  1  0
114202  1  0
115203  1  0
115204  1  0
115205  1  0
118206  1  0
123207  1  0
126208  1  0
134209  1  0
135210  1  0
136211  1  0
137212  1  0
138213  1  0
139214  1  0
139215  1  0
140216  1  0
M  END

