
     RDKit          3D

214240  0  0  0  0  0  0  0  0999 V2000
   -7.4501    5.9318   -7.8916 C   0  0  0  0  0  0  0  0  0  0  0  0
   -7.1406    4.7390   -8.4323 C   0  0  0  0  0  0  0  0  0  0  0  0
   -5.8160    4.4998   -9.0138 C   0  0  0  0  0  0  0  0  0  0  0  0
   -5.1095    5.3506   -9.6157 O   0  0  0  0  0  0  0  0  0  0  0  0
   -5.3942    3.1547   -8.6524 C   0  0  0  0  0  0  0  0  0  0  0  0
   -4.1080    2.5826   -8.7895 C   0  0  0  0  0  0  0  0  0  0  0  0
   -3.9737    1.3535   -8.1681 C   0  0  0  0  0  0  0  0  0  0  0  0
   -5.0342    0.7247   -7.4362 C   0  0  0  0  0  0  0  0  0  0  0  0
   -6.2962    1.2738   -7.3056 C   0  0  0  0  0  0  0  0  0  0  0  0
   -6.4589    2.5186   -7.9654 C   0  0  0  0  0  0  0  0  0  0  0  0
   -7.6336    3.4121   -7.9762 C   0  0  0  0  0  0  0  0  0  0  0  0
   -8.9215    3.0043   -8.0568 C   0  0  0  0  0  0  0  0  0  0  0  0
   -9.3038    1.6311   -7.8448 C   0  0  0  0  0  0  0  0  0  0  0  0
   -9.6123    0.5299   -7.6866 N   0  0  0  0  0  0  0  0  0  0  0  0
   -9.9530    3.8920   -8.5390 C   0  0  0  0  0  0  0  0  0  0  0  0
  -10.7824    4.6016   -8.9286 N   0  0  0  0  0  0  0  0  0  0  0  0
   -4.1361   -0.4232   -7.0852 C   0  0  0  0  0  0  0  0  0  0  0  0
   -4.3856   -1.7552   -7.8503 C   0  0  0  0  0  0  0  0  0  0  0  0
   -3.1528   -2.5989   -7.6269 C   0  0  0  0  0  0  0  0  0  0  0  0
   -2.1660   -2.0183   -8.3183 C   0  0  0  0  0  0  0  0  0  0  0  0
   -2.7674   -0.8027   -8.9848 C   0  0  0  0  0  0  0  0  0  0  0  0
   -4.1415   -1.3687   -9.2972 C   0  0  0  0  0  0  0  0  0  0  0  0
   -3.0562    0.2142   -7.8412 C   0  0  0  0  0  0  0  0  0  0  0  0
   -8.0907    6.0539   -6.5700 C   0  0  0  0  0  0  0  0  0  0  0  0
   -9.1423    5.3233   -6.1535 N   0  0  0  0  0  0  0  0  0  0  0  0
   -9.3435    5.3770   -4.8379 N   0  0  0  0  0  0  0  0  0  0  0  0
   -8.4493    6.1497   -4.1820 C   0  0  0  0  0  0  0  0  0  0  0  0
   -7.3395    6.8061   -5.2662 S   0  0  0  0  0  0  0  0  0  0  0  0
   -8.2621    6.1016   -2.7185 C   0  0  0  0  0  0  0  0  0  0  0  0
   -9.0911    5.4045   -1.8089 C   0  0  0  0  0  0  0  0  0  0  0  0
  -10.3842    4.7930   -2.1610 C   0  0  0  0  0  0  0  0  0  0  0  0
  -11.4759    5.6100   -2.4907 C   0  0  0  0  0  0  0  0  0  0  0  0
  -12.6865    5.0355   -2.8818 C   0  0  0  0  0  0  0  0  0  0  0  0
  -12.8139    3.6448   -2.9533 C   0  0  0  0  0  0  0  0  0  0  0  0
  -11.7294    2.8174   -2.6223 C   0  0  0  0  0  0  0  0  0  0  0  0
  -11.8397    1.3240   -2.7644 C   0  0  0  0  0  0  0  0  0  0  0  0
  -11.3303    0.8715   -4.1315 C   0  0  0  0  0  0  0  0  0  0  0  0
  -10.5151    3.3987   -2.2259 C   0  0  0  0  0  0  0  0  0  0  0  0
   -8.4485    5.2091   -0.5861 C   0  0  0  0  0  0  0  0  0  0  0  0
   -8.7387    4.1119    0.6929 S   0  0  0  0  0  0  0  0  0  0  0  0
   -7.1851    4.3787    1.3179 C   0  0  0  0  0  0  0  0  0  0  0  0
   -6.2903    3.6718    2.0744 C   0  0  0  0  0  0  0  0  0  0  0  0
   -6.4486    2.6420    3.0072 C   0  0  0  0  0  0  0  0  0  0  0  0
   -5.2802    2.0621    3.5889 C   0  0  0  0  0  0  0  0  0  0  0  0
   -5.4744    1.0484    4.4677 N   0  0  0  0  0  0  0  0  0  0  0  0
   -7.1299    0.9848    4.4628 S   0  0  0  0  0  0  0  0  0  0  0  0
   -7.6489    2.1479    3.4041 N   0  0  0  0  0  0  0  0  0  0  0  0
   -4.0195    2.4952    3.1496 C   0  0  0  0  0  0  0  0  0  0  0  0
   -2.8002    1.8829    3.2519 C   0  0  0  0  0  0  0  0  0  0  0  0
   -2.2428    0.3957    3.8533 S   0  0  0  0  0  0  0  0  0  0  0  0
   -0.9207    0.4200    2.7841 C   0  0  0  0  0  0  0  0  0  0  0  0
    0.0768   -0.5033    2.4783 C   0  0  0  0  0  0  0  0  0  0  0  0
    0.3591   -1.7024    3.2877 C   0  0  0  0  0  0  0  0  0  0  0  0
    0.3044   -2.9815    2.7114 C   0  0  0  0  0  0  0  0  0  0  0  0
    0.5879   -4.1091    3.4837 C   0  0  0  0  0  0  0  0  0  0  0  0
    0.9415   -3.9722    4.8289 C   0  0  0  0  0  0  0  0  0  0  0  0
    1.0015   -2.6983    5.4166 C   0  0  0  0  0  0  0  0  0  0  0  0
    1.3559   -2.5487    6.8711 C   0  0  0  0  0  0  0  0  0  0  0  0
    0.1013   -2.5056    7.7311 C   0  0  0  0  0  0  0  0  0  0  0  0
    0.6857   -1.5679    4.6446 C   0  0  0  0  0  0  0  0  0  0  0  0
    0.8184   -0.0857    1.3601 C   0  0  0  0  0  0  0  0  0  0  0  0
    0.2354    1.4064    0.7908 S   0  0  0  0  0  0  0  0  0  0  0  0
   -0.9652    1.5123    1.9588 C   0  0  0  0  0  0  0  0  0  0  0  0
   -2.0303    2.3610    2.2372 C   0  0  0  0  0  0  0  0  0  0  0  0
   -2.6725    3.2851    1.4763 N   0  0  0  0  0  0  0  0  0  0  0  0
   -3.8779    3.4375    2.1151 C   0  0  0  0  0  0  0  0  0  0  0  0
   -5.0297    4.1269    1.6702 C   0  0  0  0  0  0  0  0  0  0  0  0
   -5.1336    5.1539    0.7768 N   0  0  0  0  0  0  0  0  0  0  0  0
   -6.4656    5.2466    0.5607 C   0  0  0  0  0  0  0  0  0  0  0  0
   -7.1846    5.7380   -0.5115 C   0  0  0  0  0  0  0  0  0  0  0  0
   -6.7644    6.4411   -1.9729 S   0  0  0  0  0  0  0  0  0  0  0  0
   -4.1843    6.2631    0.5934 C   0  0  0  0  0  0  0  0  0  0  0  0
   -4.6512    7.5138    1.3359 C   0  0  0  0  0  0  0  0  0  0  0  0
   -2.4253    3.4380    0.0309 C   0  0  0  0  0  0  0  0  0  0  0  0
   -3.0380    2.2795   -0.7518 C   0  0  0  0  0  0  0  0  0  0  0  0
    2.0391   -0.7277    0.8700 C   0  0  0  0  0  0  0  0  0  0  0  0
    3.3382   -0.3398    1.2083 C   0  0  0  0  0  0  0  0  0  0  0  0
    3.6676    0.9082    1.8303 N   0  0  0  0  0  0  0  0  0  0  0  0
    3.4172    1.0899    3.2372 C   0  0  0  0  0  0  0  0  0  0  0  0
    2.8257    2.2750    3.7043 C   0  0  0  0  0  0  0  0  0  0  0  0
    2.6016    2.4611    5.0713 C   0  0  0  0  0  0  0  0  0  0  0  0
    2.9752    1.4723    5.9909 C   0  0  0  0  0  0  0  0  0  0  0  0
    2.7038    1.6678    7.4519 C   0  0  0  0  0  0  0  0  0  0  0  0
    3.5445    0.2781    5.5225 C   0  0  0  0  0  0  0  0  0  0  0  0
    3.7555    0.0840    4.1564 C   0  0  0  0  0  0  0  0  0  0  0  0
    4.1696    1.9853    1.0069 C   0  0  0  0  0  0  0  0  0  0  0  0
    5.1338    2.8756    1.5070 C   0  0  0  0  0  0  0  0  0  0  0  0
    5.6219    3.9130    0.7050 C   0  0  0  0  0  0  0  0  0  0  0  0
    5.1404    4.0899   -0.6025 C   0  0  0  0  0  0  0  0  0  0  0  0
    5.6884    5.1795   -1.4746 C   0  0  0  0  0  0  0  0  0  0  0  0
    4.1953    3.1881   -1.1121 C   0  0  0  0  0  0  0  0  0  0  0  0
    3.7118    2.1480   -0.3167 C   0  0  0  0  0  0  0  0  0  0  0  0
    4.2755   -1.2040    0.6606 C   0  0  0  0  0  0  0  0  0  0  0  0
    5.9239   -1.4022    0.8393 S   0  0  0  0  0  0  0  0  0  0  0  0
    6.0185   -2.7887   -0.1586 C   0  0  0  0  0  0  0  0  0  0  0  0
    4.7185   -3.0835   -0.6250 C   0  0  0  0  0  0  0  0  0  0  0  0
    4.3909   -4.1797   -1.5023 N   0  0  0  0  0  0  0  0  0  0  0  0
    3.2786   -5.0407   -1.1688 C   0  0  0  0  0  0  0  0  0  0  0  0
    3.0872   -5.4601    0.1580 C   0  0  0  0  0  0  0  0  0  0  0  0
    1.9690   -6.2260    0.5036 C   0  0  0  0  0  0  0  0  0  0  0  0
    1.0363   -6.5955   -0.4729 C   0  0  0  0  0  0  0  0  0  0  0  0
   -0.2032   -7.3452   -0.0816 C   0  0  0  0  0  0  0  0  0  0  0  0
    1.2267   -6.1811   -1.8004 C   0  0  0  0  0  0  0  0  0  0  0  0
    2.3459   -5.4201   -2.1477 C   0  0  0  0  0  0  0  0  0  0  0  0
    5.1342   -4.3555   -2.7309 C   0  0  0  0  0  0  0  0  0  0  0  0
    5.6526   -3.2426   -3.4209 C   0  0  0  0  0  0  0  0  0  0  0  0
    6.4402   -3.4151   -4.5614 C   0  0  0  0  0  0  0  0  0  0  0  0
    6.7304   -4.7026   -5.0338 C   0  0  0  0  0  0  0  0  0  0  0  0
    7.5681   -4.8818   -6.2626 C   0  0  0  0  0  0  0  0  0  0  0  0
    6.1887   -5.8161   -4.3723 C   0  0  0  0  0  0  0  0  0  0  0  0
    5.4074   -5.6453   -3.2247 C   0  0  0  0  0  0  0  0  0  0  0  0
    3.7731   -2.1951   -0.1108 C   0  0  0  0  0  0  0  0  0  0  0  0
    2.0927   -2.0965   -0.1434 S   0  0  0  0  0  0  0  0  0  0  0  0
    7.1557   -3.7432   -0.2686 C   0  0  0  0  0  0  0  0  0  0  0  0
    8.2608   -3.7515    0.4982 C   0  0  0  0  0  0  0  0  0  0  0  0
    8.8169   -5.0166    0.9907 C   0  0  0  0  0  0  0  0  0  0  0  0
    8.7212   -6.1363    0.4243 O   0  0  0  0  0  0  0  0  0  0  0  0
    9.3532   -4.7920    2.3197 C   0  0  0  0  0  0  0  0  0  0  0  0
    9.6993   -5.7709    3.2801 C   0  0  0  0  0  0  0  0  0  0  0  0
    9.9415   -5.2547    4.5407 C   0  0  0  0  0  0  0  0  0  0  0  0
    9.8693   -3.8557    4.8431 C   0  0  0  0  0  0  0  0  0  0  0  0
    9.5400   -2.8909    3.9056 C   0  0  0  0  0  0  0  0  0  0  0  0
    9.2861   -3.4055    2.6051 C   0  0  0  0  0  0  0  0  0  0  0  0
    8.7655   -2.6950    1.4137 C   0  0  0  0  0  0  0  0  0  0  0  0
    9.1200   -1.4492    1.0227 C   0  0  0  0  0  0  0  0  0  0  0  0
    8.8891   -0.9962   -0.3293 C   0  0  0  0  0  0  0  0  0  0  0  0
    8.6956   -0.6399   -1.4120 N   0  0  0  0  0  0  0  0  0  0  0  0
    9.8494   -0.5576    1.8813 C   0  0  0  0  0  0  0  0  0  0  0  0
   10.4370    0.1678    2.5660 N   0  0  0  0  0  0  0  0  0  0  0  0
   10.2028   -4.1325    6.2791 C   0  0  0  0  0  0  0  0  0  0  0  0
   11.6546   -3.8004    6.7375 C   0  0  0  0  0  0  0  0  0  0  0  0
   11.8420   -4.5096    8.0566 C   0  0  0  0  0  0  0  0  0  0  0  0
   11.8877   -5.8174    7.7807 C   0  0  0  0  0  0  0  0  0  0  0  0
   11.7340   -5.9487    6.2825 C   0  0  0  0  0  0  0  0  0  0  0  0
   12.5051   -4.7073    5.8633 C   0  0  0  0  0  0  0  0  0  0  0  0
   10.2590   -5.5657    5.9709 C   0  0  0  0  0  0  0  0  0  0  0  0
   -6.8609    6.7869   -8.2033 H   0  0  0  0  0  0  0  0  0  0  0  0
   -3.2902    3.0777   -9.2932 H   0  0  0  0  0  0  0  0  0  0  0  0
   -7.0590    0.7973   -6.7092 H   0  0  0  0  0  0  0  0  0  0  0  0
   -3.9423   -0.5199   -5.9939 H   0  0  0  0  0  0  0  0  0  0  0  0
   -5.3513   -2.2599   -7.6350 H   0  0  0  0  0  0  0  0  0  0  0  0
   -3.0893   -3.5457   -7.0952 H   0  0  0  0  0  0  0  0  0  0  0  0
   -1.1613   -2.4085   -8.4462 H   0  0  0  0  0  0  0  0  0  0  0  0
   -2.1996   -0.4041   -9.8515 H   0  0  0  0  0  0  0  0  0  0  0  0
   -4.8584   -0.6171   -9.6979 H   0  0  0  0  0  0  0  0  0  0  0  0
   -4.1163   -2.2429   -9.9885 H   0  0  0  0  0  0  0  0  0  0  0  0
   -2.1777    0.5126   -7.2262 H   0  0  0  0  0  0  0  0  0  0  0  0
  -11.3865    6.6897   -2.4476 H   0  0  0  0  0  0  0  0  0  0  0  0
  -13.5261    5.6673   -3.1390 H   0  0  0  0  0  0  0  0  0  0  0  0
  -13.7580    3.2134   -3.2616 H   0  0  0  0  0  0  0  0  0  0  0  0
  -12.8978    1.0065   -2.6472 H   0  0  0  0  0  0  0  0  0  0  0  0
  -11.2490    0.8227   -1.9695 H   0  0  0  0  0  0  0  0  0  0  0  0
  -10.2571    1.1339   -4.2511 H   0  0  0  0  0  0  0  0  0  0  0  0
  -11.9136    1.3585   -4.9432 H   0  0  0  0  0  0  0  0  0  0  0  0
  -11.4396   -0.2300   -4.2243 H   0  0  0  0  0  0  0  0  0  0  0  0
   -9.6623    2.7692   -1.9999 H   0  0  0  0  0  0  0  0  0  0  0  0
    0.0199   -3.1086    1.6775 H   0  0  0  0  0  0  0  0  0  0  0  0
    0.5358   -5.0956    3.0418 H   0  0  0  0  0  0  0  0  0  0  0  0
    1.1588   -4.8564    5.4126 H   0  0  0  0  0  0  0  0  0  0  0  0
    1.9297   -1.6120    7.0291 H   0  0  0  0  0  0  0  0  0  0  0  0
    2.0035   -3.3915    7.1987 H   0  0  0  0  0  0  0  0  0  0  0  0
   -0.5337   -1.6429    7.4419 H   0  0  0  0  0  0  0  0  0  0  0  0
    0.3906   -2.3922    8.7977 H   0  0  0  0  0  0  0  0  0  0  0  0
   -0.4786   -3.4452    7.6167 H   0  0  0  0  0  0  0  0  0  0  0  0
    0.7156   -0.5809    5.0976 H   0  0  0  0  0  0  0  0  0  0  0  0
   -4.0760    6.4910   -0.4894 H   0  0  0  0  0  0  0  0  0  0  0  0
   -3.1901    6.0015    1.0112 H   0  0  0  0  0  0  0  0  0  0  0  0
   -5.5922    7.8988    0.8918 H   0  0  0  0  0  0  0  0  0  0  0  0
   -3.8729    8.3030    1.2577 H   0  0  0  0  0  0  0  0  0  0  0  0
   -4.8192    7.2825    2.4083 H   0  0  0  0  0  0  0  0  0  0  0  0
   -2.8511    4.3640   -0.3668 H   0  0  0  0  0  0  0  0  0  0  0  0
   -1.3342    3.4940   -0.1645 H   0  0  0  0  0  0  0  0  0  0  0  0
   -4.1383    2.2620   -0.6053 H   0  0  0  0  0  0  0  0  0  0  0  0
   -2.6106    1.3087   -0.4171 H   0  0  0  0  0  0  0  0  0  0  0  0
   -2.8271    2.4046   -1.8350 H   0  0  0  0  0  0  0  0  0  0  0  0
    2.5285    3.0518    3.0110 H   0  0  0  0  0  0  0  0  0  0  0  0
    2.1404    3.3810    5.4145 H   0  0  0  0  0  0  0  0  0  0  0  0
    3.3553    1.0147    8.0690 H   0  0  0  0  0  0  0  0  0  0  0  0
    1.6409    1.4304    7.6702 H   0  0  0  0  0  0  0  0  0  0  0  0
    2.9061    2.7211    7.7406 H   0  0  0  0  0  0  0  0  0  0  0  0
    3.8311   -0.5021    6.2155 H   0  0  0  0  0  0  0  0  0  0  0  0
    4.1989   -0.8438    3.8166 H   0  0  0  0  0  0  0  0  0  0  0  0
    5.5188    2.7555    2.5125 H   0  0  0  0  0  0  0  0  0  0  0  0
    6.3750    4.5818    1.1068 H   0  0  0  0  0  0  0  0  0  0  0  0
    6.5696    4.7977   -2.0292 H   0  0  0  0  0  0  0  0  0  0  0  0
    5.9956    6.0579   -0.8684 H   0  0  0  0  0  0  0  0  0  0  0  0
    4.9247    5.5204   -2.2056 H   0  0  0  0  0  0  0  0  0  0  0  0
    3.8235    3.2975   -2.1241 H   0  0  0  0  0  0  0  0  0  0  0  0
    2.9722    1.4797   -0.7337 H   0  0  0  0  0  0  0  0  0  0  0  0
    3.7919   -5.1788    0.9299 H   0  0  0  0  0  0  0  0  0  0  0  0
    1.8315   -6.5264    1.5361 H   0  0  0  0  0  0  0  0  0  0  0  0
   -0.6284   -7.8906   -0.9513 H   0  0  0  0  0  0  0  0  0  0  0  0
   -0.9612   -6.6283    0.2972 H   0  0  0  0  0  0  0  0  0  0  0  0
    0.0239   -8.0833    0.7155 H   0  0  0  0  0  0  0  0  0  0  0  0
    0.5007   -6.4363   -2.5622 H   0  0  0  0  0  0  0  0  0  0  0  0
    2.4621   -5.0894   -3.1713 H   0  0  0  0  0  0  0  0  0  0  0  0
    5.4570   -2.2380   -3.0706 H   0  0  0  0  0  0  0  0  0  0  0  0
    6.8335   -2.5444   -5.0712 H   0  0  0  0  0  0  0  0  0  0  0  0
    6.9211   -4.8466   -7.1643 H   0  0  0  0  0  0  0  0  0  0  0  0
    8.3318   -4.0785   -6.3306 H   0  0  0  0  0  0  0  0  0  0  0  0
    8.0998   -5.8574   -6.2372 H   0  0  0  0  0  0  0  0  0  0  0  0
    6.3874   -6.8207   -4.7311 H   0  0  0  0  0  0  0  0  0  0  0  0
    5.0318   -6.5213   -2.7102 H   0  0  0  0  0  0  0  0  0  0  0  0
    6.9404   -4.6616   -0.7968 H   0  0  0  0  0  0  0  0  0  0  0  0
    9.7070   -6.8338    3.0721 H   0  0  0  0  0  0  0  0  0  0  0  0
    9.4159   -1.8544    4.1799 H   0  0  0  0  0  0  0  0  0  0  0  0
    9.3975   -3.8382    6.9876 H   0  0  0  0  0  0  0  0  0  0  0  0
   11.9263   -2.7262    6.7339 H   0  0  0  0  0  0  0  0  0  0  0  0
   11.9969   -4.0571    9.0317 H   0  0  0  0  0  0  0  0  0  0  0  0
   12.0876   -6.6113    8.4936 H   0  0  0  0  0  0  0  0  0  0  0  0
   12.0833   -6.9103    5.8507 H   0  0  0  0  0  0  0  0  0  0  0  0
   12.4479   -4.4746    4.7776 H   0  0  0  0  0  0  0  0  0  0  0  0
   13.5784   -4.7322    6.1652 H   0  0  0  0  0  0  0  0  0  0  0  0
    9.4795   -6.1785    6.4768 H   0  0  0  0  0  0  0  0  0  0  0  0
  1  2  2  3
  2  3  1  0
  3  4  2  0
  3  5  1  0
  5  6  2  0
  6  7  1  0
  7  8  2  0
  8  9  1  0
  9 10  2  0
 10 11  1  0
 11 12  2  3
 12 13  1  0
 13 14  3  0
 12 15  1  0
 15 16  3  0
  8 17  1  0
 17 18  1  0
 18 19  1  0
 19 20  2  0
 20 21  1  0
 21 22  1  0
 21 23  1  0
  1 24  1  0
 24 25  2  0
 25 26  1  0
 26 27  2  0
 27 28  1  0
 27 29  1  0
 29 30  2  0
 30 31  1  0
 31 32  2  0
 32 33  1  0
 33 34  2  0
 34 35  1  0
 35 36  1  0
 36 37  1  0
 35 38  2  0
 30 39  1  0
 39 40  1  0
 40 41  1  0
 41 42  1  0
 42 43  1  0
 43 44  1  0
 44 45  2  0
 45 46  1  0
 46 47  1  0
 44 48  1  0
 48 49  1  0
 49 50  1  0
 50 51  1  0
 51 52  1  0
 52 53  1  0
 53 54  2  0
 54 55  1  0
 55 56  2  0
 56 57  1  0
 57 58  1  0
 58 59  1  0
 57 60  2  0
 52 61  2  0
 61 62  1  0
 62 63  1  0
 63 64  1  0
 64 65  1  0
 65 66  1  0
 66 67  1  0
 67 68  1  0
 68 69  1  0
 69 70  1  0
 70 71  1  0
 68 72  1  0
 72 73  1  0
 65 74  1  0
 74 75  1  0
 61 76  1  0
 76 77  2  0
 77 78  1  0
 78 79  1  0
 79 80  2  0
 80 81  1  0
 81 82  2  0
 82 83  1  0
 82 84  1  0
 84 85  2  0
 78 86  1  0
 86 87  2  0
 87 88  1  0
 88 89  2  0
 89 90  1  0
 89 91  1  0
 91 92  2  0
 77 93  1  0
 93 94  1  0
 94 95  1  0
 95 96  2  0
 96 97  1  0
 97 98  1  0
 98 99  2  0
 99100  1  0
100101  2  0
101102  1  0
101103  1  0
103104  2  0
 97105  1  0
105106  2  0
106107  1  0
107108  2  0
108109  1  0
108110  1  0
110111  2  0
 96112  1  0
112113  1  0
 95114  1  0
114115  2  3
115116  1  0
116117  2  0
116118  1  0
118119  2  0
119120  1  0
120121  2  0
121122  1  0
122123  2  0
123124  1  0
124125  2  3
125126  1  0
126127  3  0
125128  1  0
128129  3  0
121130  1  0
130131  1  0
131132  1  0
132133  2  0
133134  1  0
134135  1  0
134136  1  0
 11  2  1  0
 23 17  1  0
 28 24  1  0
 71 29  1  0
113 76  1  0
124115  1  0
136130  1  0
 10  5  1  0
 22 18  1  0
 38 31  1  0
 70 39  2  0
 85 79  1  0
 92 86  1  0
112 93  2  0
123118  1  0
135131  1  0
 23  7  1  0
 69 41  2  0
104 98  1  0
111105  1  0
136120  1  0
 67 42  2  0
 47 43  2  0
 66 48  2  0
 64 49  2  0
 63 51  2  0
 60 53  1  0
  1137  1  0
  6138  1  0
  9139  1  0
 17140  1  0
 18141  1  0
 19142  1  0
 20143  1  0
 21144  1  0
 22145  1  0
 22146  1  0
 23147  1  0
 32148  1  0
 33149  1  0
 34150  1  0
 36151  1  0
 36152  1  0
 37153  1  0
 37154  1  0
 37155  1  0
 38156  1  0
 54157  1  0
 55158  1  0
 56159  1  0
 58160  1  0
 58161  1  0
 59162  1  0
 59163  1  0
 59164  1  0
 60165  1  0
 72166  1  0
 72167  1  0
 73168  1  0
 73169  1  0
 73170  1  0
 74171  1  0
 74172  1  0
 75173  1  0
 75174  1  0
 75175  1  0
 80176  1  0
 81177  1  0
 83178  1  0
 83179  1  0
 83180  1  0
 84181  1  0
 85182  1  0
 87183  1  0
 88184  1  0
 90185  1  0
 90186  1  0
 90187  1  0
 91188  1  0
 92189  1  0
 99190  1  0
100191  1  0
102192  1  0
102193  1  0
102194  1  0
103195  1  0
104196  1  0
106197  1  0
107198  1  0
109199  1  0
109200  1  0
109201  1  0
110202  1  0
111203  1  0
114204  1  0
119205  1  0
122206  1  0
130207  1  0
131208  1  0
132209  1  0
133210  1  0
134211  1  0
135212  1  0
135213  1  0
136214  1  0
M  END

