
     RDKit          3D

140158  0  0  0  0  0  0  0  0999 V2000
   -3.8237    8.5872   -0.9569 C   0  0  0  0  0  0  0  0  0  0  0  0
   -3.2365    9.3502   -0.0056 C   0  0  0  0  0  0  0  0  0  0  0  0
   -3.3252    9.0699    1.4316 C   0  0  0  0  0  0  0  0  0  0  0  0
   -4.3896    9.0298    2.0877 O   0  0  0  0  0  0  0  0  0  0  0  0
   -2.0101    9.2305    2.0143 C   0  0  0  0  0  0  0  0  0  0  0  0
   -1.5598    8.6503    3.2260 C   0  0  0  0  0  0  0  0  0  0  0  0
   -0.1943    8.7404    3.4119 C   0  0  0  0  0  0  0  0  0  0  0  0
    0.6856    9.3826    2.4781 C   0  0  0  0  0  0  0  0  0  0  0  0
    0.2485    9.9512    1.2892 C   0  0  0  0  0  0  0  0  0  0  0  0
   -1.1536    9.8336    1.0597 C   0  0  0  0  0  0  0  0  0  0  0  0
   -1.9328   10.0702   -0.1929 C   0  0  0  0  0  0  0  0  0  0  0  0
   -1.5813   10.8266   -1.2528 C   0  0  0  0  0  0  0  0  0  0  0  0
   -0.3312   11.5454   -1.3040 C   0  0  0  0  0  0  0  0  0  0  0  0
    0.6656   12.1309   -1.3543 N   0  0  0  0  0  0  0  0  0  0  0  0
   -2.4948   11.0687   -2.3411 C   0  0  0  0  0  0  0  0  0  0  0  0
   -3.2175   11.2673   -3.2204 N   0  0  0  0  0  0  0  0  0  0  0  0
    1.8730    9.0318    3.3319 C   0  0  0  0  0  0  0  0  0  0  0  0
    2.5243   10.1548    4.1946 C   0  0  0  0  0  0  0  0  0  0  0  0
    1.4785   11.1723    4.5962 C   0  0  0  0  0  0  0  0  0  0  0  0
    0.6624   10.5594    5.4536 C   0  0  0  0  0  0  0  0  0  0  0  0
    1.1758    9.1453    5.6061 C   0  0  0  0  0  0  0  0  0  0  0  0
    2.6637    9.4216    5.5182 C   0  0  0  0  0  0  0  0  0  0  0  0
    0.9676    8.3611    4.2773 C   0  0  0  0  0  0  0  0  0  0  0  0
   -4.4555    7.2783   -0.6793 C   0  0  0  0  0  0  0  0  0  0  0  0
   -4.3009    6.6471    0.5032 N   0  0  0  0  0  0  0  0  0  0  0  0
   -4.3523    5.3250    0.4383 N   0  0  0  0  0  0  0  0  0  0  0  0
   -4.5168    4.8348   -0.8092 C   0  0  0  0  0  0  0  0  0  0  0  0
   -4.7022    6.1297   -1.8840 S   0  0  0  0  0  0  0  0  0  0  0  0
   -3.7286    3.6463   -1.1713 C   0  0  0  0  0  0  0  0  0  0  0  0
   -2.3521    3.7725   -1.4672 C   0  0  0  0  0  0  0  0  0  0  0  0
   -1.6979    5.0342   -1.8381 C   0  0  0  0  0  0  0  0  0  0  0  0
   -1.1084    5.8379   -0.8528 C   0  0  0  0  0  0  0  0  0  0  0  0
   -0.5224    7.0560   -1.2059 C   0  0  0  0  0  0  0  0  0  0  0  0
   -0.5266    7.4810   -2.5359 C   0  0  0  0  0  0  0  0  0  0  0  0
   -1.1092    6.6830   -3.5312 C   0  0  0  0  0  0  0  0  0  0  0  0
   -1.1578    7.1636   -4.9585 C   0  0  0  0  0  0  0  0  0  0  0  0
   -2.4283    7.9670   -5.2187 C   0  0  0  0  0  0  0  0  0  0  0  0
   -1.6897    5.4495   -3.1760 C   0  0  0  0  0  0  0  0  0  0  0  0
   -1.6299    2.6523   -1.0798 C   0  0  0  0  0  0  0  0  0  0  0  0
    0.0408    2.4257   -0.8335 S   0  0  0  0  0  0  0  0  0  0  0  0
   -0.2623    0.9518   -0.0663 C   0  0  0  0  0  0  0  0  0  0  0  0
    0.4317   -0.0644    0.5042 C   0  0  0  0  0  0  0  0  0  0  0  0
    1.8067   -0.1947    0.6725 C   0  0  0  0  0  0  0  0  0  0  0  0
    2.3099   -1.4057    1.1928 C   0  0  0  0  0  0  0  0  0  0  0  0
    3.6550   -1.5045    1.3202 N   0  0  0  0  0  0  0  0  0  0  0  0
    4.1091   -0.0135    0.7569 S   0  0  0  0  0  0  0  0  0  0  0  0
    2.7076    0.7656    0.3495 N   0  0  0  0  0  0  0  0  0  0  0  0
    1.4150   -2.4277    1.5054 C   0  0  0  0  0  0  0  0  0  0  0  0
    1.6883   -3.7318    1.7923 C   0  0  0  0  0  0  0  0  0  0  0  0
    3.0284   -4.7379    1.5542 S   0  0  0  0  0  0  0  0  0  0  0  0
    2.0272   -6.1005    1.4102 C   0  0  0  0  0  0  0  0  0  0  0  0
    2.2671   -7.3758    0.8922 C   0  0  0  0  0  0  0  0  0  0  0  0
    3.6096   -7.9382    0.6550 C   0  0  0  0  0  0  0  0  0  0  0  0
    4.5675   -7.2382   -0.0911 C   0  0  0  0  0  0  0  0  0  0  0  0
    5.8451   -7.7756   -0.2776 C   0  0  0  0  0  0  0  0  0  0  0  0
    6.1769   -9.0106    0.2860 C   0  0  0  0  0  0  0  0  0  0  0  0
    5.2279   -9.7169    1.0421 C   0  0  0  0  0  0  0  0  0  0  0  0
    5.5834  -11.0445    1.6654 C   0  0  0  0  0  0  0  0  0  0  0  0
    5.1024  -12.1959    0.7884 C   0  0  0  0  0  0  0  0  0  0  0  0
    3.9389   -9.1840    1.2064 C   0  0  0  0  0  0  0  0  0  0  0  0
    1.0667   -8.0290    0.5649 C   0  0  0  0  0  0  0  0  0  0  0  0
   -0.2492   -6.9969    0.9127 S   0  0  0  0  0  0  0  0  0  0  0  0
    0.7023   -5.7570    1.5264 C   0  0  0  0  0  0  0  0  0  0  0  0
    0.5160   -4.3973    1.7571 C   0  0  0  0  0  0  0  0  0  0  0  0
   -0.5458   -3.5790    1.5302 N   0  0  0  0  0  0  0  0  0  0  0  0
    0.0106   -2.3242    1.3458 C   0  0  0  0  0  0  0  0  0  0  0  0
   -0.5144   -1.0605    0.8501 C   0  0  0  0  0  0  0  0  0  0  0  0
   -1.7858   -0.5938    0.5409 N   0  0  0  0  0  0  0  0  0  0  0  0
   -1.5674    0.6319   -0.0082 C   0  0  0  0  0  0  0  0  0  0  0  0
   -2.3725    1.6240   -0.5664 C   0  0  0  0  0  0  0  0  0  0  0  0
   -3.9861    2.1017   -0.4680 S   0  0  0  0  0  0  0  0  0  0  0  0
   -3.1054   -1.2199    0.5493 C   0  0  0  0  0  0  0  0  0  0  0  0
   -3.3342   -1.9903   -0.7512 C   0  0  0  0  0  0  0  0  0  0  0  0
   -1.9126   -3.9979    1.8431 C   0  0  0  0  0  0  0  0  0  0  0  0
   -2.3302   -3.4827    3.2233 C   0  0  0  0  0  0  0  0  0  0  0  0
    0.9737   -9.1069   -0.4255 C   0  0  0  0  0  0  0  0  0  0  0  0
    0.0760  -10.1135   -0.3663 N   0  0  0  0  0  0  0  0  0  0  0  0
   -0.0279  -10.7953   -1.5072 N   0  0  0  0  0  0  0  0  0  0  0  0
    0.7329  -10.2960   -2.5025 C   0  0  0  0  0  0  0  0  0  0  0  0
    1.6620   -9.0121   -1.9552 S   0  0  0  0  0  0  0  0  0  0  0  0
    0.7179  -10.7831   -3.8866 C   0  0  0  0  0  0  0  0  0  0  0  0
    0.7142   -9.9605   -4.9585 C   0  0  0  0  0  0  0  0  0  0  0  0
    1.4751  -10.2731   -6.1675 C   0  0  0  0  0  0  0  0  0  0  0  0
    1.8720  -11.4198   -6.4994 O   0  0  0  0  0  0  0  0  0  0  0  0
    1.7424   -9.0323   -6.8917 C   0  0  0  0  0  0  0  0  0  0  0  0
    2.4535   -8.8581   -8.0851 C   0  0  0  0  0  0  0  0  0  0  0  0
    3.3241  -10.1999   -8.8340 Cl  0  0  0  0  0  0  0  0  0  0  0  0
    2.4695   -7.5780   -8.6702 C   0  0  0  0  0  0  0  0  0  0  0  0
    3.3981   -7.3004  -10.1484 Cl  0  0  0  0  0  0  0  0  0  0  0  0
    1.6857   -6.5377   -8.1243 C   0  0  0  0  0  0  0  0  0  0  0  0
    1.6107   -4.9792   -8.9541 Cl  0  0  0  0  0  0  0  0  0  0  0  0
    0.9346   -6.7509   -6.9484 C   0  0  0  0  0  0  0  0  0  0  0  0
   -0.3101   -5.5698   -6.5426 Cl  0  0  0  0  0  0  0  0  0  0  0  0
    1.0904   -7.9791   -6.2570 C   0  0  0  0  0  0  0  0  0  0  0  0
    0.4429   -8.4911   -5.0129 C   0  0  0  0  0  0  0  0  0  0  0  0
   -0.3301   -7.7894   -4.1546 C   0  0  0  0  0  0  0  0  0  0  0  0
   -1.4061   -8.4028   -3.4195 C   0  0  0  0  0  0  0  0  0  0  0  0
   -2.2981   -8.8750   -2.8489 N   0  0  0  0  0  0  0  0  0  0  0  0
    0.0573   -6.4615   -3.7460 C   0  0  0  0  0  0  0  0  0  0  0  0
    0.3767   -5.4007   -3.4000 N   0  0  0  0  0  0  0  0  0  0  0  0
   -3.5665    8.7517   -1.9918 H   0  0  0  0  0  0  0  0  0  0  0  0
   -2.2106    8.1232    3.9135 H   0  0  0  0  0  0  0  0  0  0  0  0
    0.9580   10.3724    0.5891 H   0  0  0  0  0  0  0  0  0  0  0  0
    2.5910    8.3361    2.8418 H   0  0  0  0  0  0  0  0  0  0  0  0
    3.4638   10.5799    3.7819 H   0  0  0  0  0  0  0  0  0  0  0  0
    1.4503   12.2243    4.3245 H   0  0  0  0  0  0  0  0  0  0  0  0
   -0.1454   11.0290    5.9985 H   0  0  0  0  0  0  0  0  0  0  0  0
    0.8394    8.6239    6.5253 H   0  0  0  0  0  0  0  0  0  0  0  0
    3.0444   10.0702    6.3447 H   0  0  0  0  0  0  0  0  0  0  0  0
    3.2877    8.4940    5.4577 H   0  0  0  0  0  0  0  0  0  0  0  0
    1.1305    7.2658    4.3516 H   0  0  0  0  0  0  0  0  0  0  0  0
   -1.1365    5.5440    0.1933 H   0  0  0  0  0  0  0  0  0  0  0  0
   -0.0772    7.6806   -0.4412 H   0  0  0  0  0  0  0  0  0  0  0  0
   -0.0856    8.4390   -2.7862 H   0  0  0  0  0  0  0  0  0  0  0  0
   -1.1227    6.2957   -5.6549 H   0  0  0  0  0  0  0  0  0  0  0  0
   -0.2706    7.7971   -5.1798 H   0  0  0  0  0  0  0  0  0  0  0  0
   -2.4745    8.8328   -4.5300 H   0  0  0  0  0  0  0  0  0  0  0  0
   -2.4262    8.3442   -6.2669 H   0  0  0  0  0  0  0  0  0  0  0  0
   -3.3267    7.3341   -5.0627 H   0  0  0  0  0  0  0  0  0  0  0  0
   -2.1694    4.8421   -3.9355 H   0  0  0  0  0  0  0  0  0  0  0  0
    4.3279   -6.2884   -0.5533 H   0  0  0  0  0  0  0  0  0  0  0  0
    6.5776   -7.2395   -0.8681 H   0  0  0  0  0  0  0  0  0  0  0  0
    7.1746   -9.4153    0.1400 H   0  0  0  0  0  0  0  0  0  0  0  0
    5.1239  -11.1257    2.6731 H   0  0  0  0  0  0  0  0  0  0  0  0
    6.6853  -11.1244    1.7991 H   0  0  0  0  0  0  0  0  0  0  0  0
    3.9932  -12.1840    0.7126 H   0  0  0  0  0  0  0  0  0  0  0  0
    5.5383  -12.1166   -0.2309 H   0  0  0  0  0  0  0  0  0  0  0  0
    5.4166  -13.1645    1.2336 H   0  0  0  0  0  0  0  0  0  0  0  0
    3.1983   -9.7320    1.7781 H   0  0  0  0  0  0  0  0  0  0  0  0
   -3.2602   -1.8097    1.4564 H   0  0  0  0  0  0  0  0  0  0  0  0
   -3.8903   -0.4401    0.6222 H   0  0  0  0  0  0  0  0  0  0  0  0
   -3.4328   -1.2786   -1.5990 H   0  0  0  0  0  0  0  0  0  0  0  0
   -4.2662   -2.5911   -0.6717 H   0  0  0  0  0  0  0  0  0  0  0  0
   -2.4798   -2.6689   -0.9705 H   0  0  0  0  0  0  0  0  0  0  0  0
   -2.6098   -3.7461    1.0410 H   0  0  0  0  0  0  0  0  0  0  0  0
   -1.9844   -5.1053    1.8878 H   0  0  0  0  0  0  0  0  0  0  0  0
   -1.7562   -4.0135    4.0117 H   0  0  0  0  0  0  0  0  0  0  0  0
   -3.4166   -3.6706    3.3780 H   0  0  0  0  0  0  0  0  0  0  0  0
   -2.1324   -2.3952    3.3256 H   0  0  0  0  0  0  0  0  0  0  0  0
    0.9337  -11.8316   -4.0178 H   0  0  0  0  0  0  0  0  0  0  0  0
  1  2  2  3
  2  3  1  0
  3  4  2  0
  3  5  1  0
  5  6  2  0
  6  7  1  0
  7  8  2  0
  8  9  1  0
  9 10  2  0
 10 11  1  0
 11 12  2  3
 12 13  1  0
 13 14  3  0
 12 15  1  0
 15 16  3  0
  8 17  1  0
 17 18  1  0
 18 19  1  0
 19 20  2  0
 20 21  1  0
 21 22  1  0
 21 23  1  0
  1 24  1  0
 24 25  2  0
 25 26  1  0
 26 27  2  0
 27 28  1  0
 27 29  1  0
 29 30  2  0
 30 31  1  0
 31 32  2  0
 32 33  1  0
 33 34  2  0
 34 35  1  0
 35 36  1  0
 36 37  1  0
 35 38  2  0
 30 39  1  0
 39 40  1  0
 40 41  1  0
 41 42  1  0
 42 43  1  0
 43 44  1  0
 44 45  2  0
 45 46  1  0
 46 47  1  0
 44 48  1  0
 48 49  1  0
 49 50  1  0
 50 51  1  0
 51 52  1  0
 52 53  1  0
 53 54  2  0
 54 55  1  0
 55 56  2  0
 56 57  1  0
 57 58  1  0
 58 59  1  0
 57 60  2  0
 52 61  2  0
 61 62  1  0
 62 63  1  0
 63 64  1  0
 64 65  1  0
 65 66  1  0
 66 67  1  0
 67 68  1  0
 68 69  1  0
 69 70  1  0
 70 71  1  0
 68 72  1  0
 72 73  1  0
 65 74  1  0
 74 75  1  0
 61 76  1  0
 76 77  2  0
 77 78  1  0
 78 79  2  0
 79 80  1  0
 79 81  1  0
 81 82  2  3
 82 83  1  0
 83 84  2  0
 83 85  1  0
 85 86  2  0
 86 87  1  0
 86 88  1  0
 88 89  1  0
 88 90  2  0
 90 91  1  0
 90 92  1  0
 92 93  1  0
 92 94  2  0
 94 95  1  0
 95 96  2  3
 96 97  1  0
 97 98  3  0
 96 99  1  0
 99100  3  0
 11  2  1  0
 23 17  1  0
 28 24  1  0
 71 29  1  0
 80 76  1  0
 95 82  1  0
 10  5  1  0
 22 18  1  0
 38 31  1  0
 70 39  2  0
 94 85  1  0
 23  7  1  0
 69 41  2  0
 67 42  2  0
 47 43  2  0
 66 48  2  0
 64 49  2  0
 63 51  2  0
 60 53  1  0
  1101  1  0
  6102  1  0
  9103  1  0
 17104  1  0
 18105  1  0
 19106  1  0
 20107  1  0
 21108  1  0
 22109  1  0
 22110  1  0
 23111  1  0
 32112  1  0
 33113  1  0
 34114  1  0
 36115  1  0
 36116  1  0
 37117  1  0
 37118  1  0
 37119  1  0
 38120  1  0
 54121  1  0
 55122  1  0
 56123  1  0
 58124  1  0
 58125  1  0
 59126  1  0
 59127  1  0
 59128  1  0
 60129  1  0
 72130  1  0
 72131  1  0
 73132  1  0
 73133  1  0
 73134  1  0
 74135  1  0
 74136  1  0
 75137  1  0
 75138  1  0
 75139  1  0
 81140  1  0
M  END

