
     RDKit          3D

208230  0  0  0  0  0  0  0  0999 V2000
    4.1228   -7.9291    6.3885 C   0  0  0  0  0  0  0  0  0  0  0  0
    4.2924   -6.6564    6.9037 C   0  0  0  0  0  0  0  0  0  0  0  0
    5.2363   -6.2723    7.9333 C   0  0  0  0  0  0  0  0  0  0  0  0
    6.1428   -7.0114    8.3811 O   0  0  0  0  0  0  0  0  0  0  0  0
    4.9152   -4.9025    8.3083 C   0  0  0  0  0  0  0  0  0  0  0  0
    5.5643   -4.0127    9.1841 C   0  0  0  0  0  0  0  0  0  0  0  0
    5.1499   -2.6981    9.3165 C   0  0  0  0  0  0  0  0  0  0  0  0
    4.0878   -2.2669    8.6162 C   0  0  0  0  0  0  0  0  0  0  0  0
    3.4055   -3.1236    7.7525 C   0  0  0  0  0  0  0  0  0  0  0  0
    3.8219   -4.4052    7.6008 C   0  0  0  0  0  0  0  0  0  0  0  0
    3.4334   -5.5575    6.6648 C   0  0  0  0  0  0  0  0  0  0  0  0
    2.8140   -5.1330    5.5044 C   0  0  0  0  0  0  0  0  0  0  0  0
    1.8679   -3.9874    5.5135 C   0  0  0  0  0  0  0  0  0  0  0  0
    1.0915   -3.0604    5.5167 N   0  0  0  0  0  0  0  0  0  0  0  0
    3.1441   -5.3842    4.3044 C   0  0  0  0  0  0  0  0  0  0  0  0
    3.5221   -5.6605    3.0158 N   0  0  0  0  0  0  0  0  0  0  0  0
    4.2175   -0.8354    9.1589 C   0  0  0  0  0  0  0  0  0  0  0  0
    4.8521    0.0326    8.0545 C   0  0  0  0  0  0  0  0  0  0  0  0
    5.3666    1.2726    8.6929 C   0  0  0  0  0  0  0  0  0  0  0  0
    6.2826    0.8836    9.5625 C   0  0  0  0  0  0  0  0  0  0  0  0
    6.5598   -0.5755    9.3852 C   0  0  0  0  0  0  0  0  0  0  0  0
    6.2033   -0.7271    7.9111 C   0  0  0  0  0  0  0  0  0  0  0  0
    5.3835   -1.3478    9.9535 C   0  0  0  0  0  0  0  0  0  0  0  0
    3.0800   -8.1257    5.3765 C   0  0  0  0  0  0  0  0  0  0  0  0
    3.0666   -8.6917    4.1323 C   0  0  0  0  0  0  0  0  0  0  0  0
    2.0041   -8.5102    3.3541 C   0  0  0  0  0  0  0  0  0  0  0  0
    1.8955   -8.7516    1.9485 C   0  0  0  0  0  0  0  0  0  0  0  0
    2.6491   -9.7796    1.2534 C   0  0  0  0  0  0  0  0  0  0  0  0
    3.8890  -10.0952    1.0900 C   0  0  0  0  0  0  0  0  0  0  0  0
    4.4591  -11.0915    0.3431 C   0  0  0  0  0  0  0  0  0  0  0  0
    3.5105  -11.9440   -0.3904 C   0  0  0  0  0  0  0  0  0  0  0  0
    4.1203  -13.2338   -1.4148 S   0  0  0  0  0  0  0  0  0  0  0  0
    4.3052  -14.8351   -0.5463 C   0  0  0  0  0  0  0  0  0  0  0  0
    4.3829  -15.9003   -1.6139 C   0  0  0  0  0  0  0  0  0  0  0  0
    2.2321  -11.6513   -0.2444 C   0  0  0  0  0  0  0  0  0  0  0  0
    1.3125  -12.4714   -0.9294 F   0  0  0  0  0  0  0  0  0  0  0  0
    1.6909  -10.6516    0.5039 C   0  0  0  0  0  0  0  0  0  0  0  0
    0.8262   -8.2109    1.2145 C   0  0  0  0  0  0  0  0  0  0  0  0
   -0.1728   -7.4562    1.7341 C   0  0  0  0  0  0  0  0  0  0  0  0
   -0.0986   -7.2427    3.1205 C   0  0  0  0  0  0  0  0  0  0  0  0
   -1.1529   -6.6004    3.8532 C   0  0  0  0  0  0  0  0  0  0  0  0
   -2.0450   -7.3873    4.6060 C   0  0  0  0  0  0  0  0  0  0  0  0
   -3.0775   -6.7476    5.2384 C   0  0  0  0  0  0  0  0  0  0  0  0
   -3.2759   -5.3943    5.1800 C   0  0  0  0  0  0  0  0  0  0  0  0
   -4.6908   -4.6271    5.9805 S   0  0  0  0  0  0  0  0  0  0  0  0
   -4.8548   -2.8856    5.6287 C   0  0  0  0  0  0  0  0  0  0  0  0
   -6.1501   -2.4008    6.2741 C   0  0  0  0  0  0  0  0  0  0  0  0
   -2.4215   -4.5949    4.4700 C   0  0  0  0  0  0  0  0  0  0  0  0
   -1.3633   -5.2295    3.8023 C   0  0  0  0  0  0  0  0  0  0  0  0
   -2.5590   -3.2631    4.3924 F   0  0  0  0  0  0  0  0  0  0  0  0
    0.9768   -7.7761    3.8437 C   0  0  0  0  0  0  0  0  0  0  0  0
    1.5221   -7.3548    5.4303 S   0  0  0  0  0  0  0  0  0  0  0  0
   -0.9917   -6.8930    0.8561 C   0  0  0  0  0  0  0  0  0  0  0  0
   -0.7891   -7.1026   -0.4855 C   0  0  0  0  0  0  0  0  0  0  0  0
    0.5414   -8.1038   -0.5075 S   0  0  0  0  0  0  0  0  0  0  0  0
   -1.5694   -6.3690   -1.5366 C   0  0  0  0  0  0  0  0  0  0  0  0
   -2.8601   -6.3133   -1.7605 C   0  0  0  0  0  0  0  0  0  0  0  0
   -3.7852   -7.2729   -1.1317 C   0  0  0  0  0  0  0  0  0  0  0  0
   -4.2470   -7.1242    0.1727 C   0  0  0  0  0  0  0  0  0  0  0  0
   -5.1057   -8.0959    0.7247 C   0  0  0  0  0  0  0  0  0  0  0  0
   -5.4766   -9.1755   -0.0179 C   0  0  0  0  0  0  0  0  0  0  0  0
   -5.0144   -9.3431   -1.3235 C   0  0  0  0  0  0  0  0  0  0  0  0
   -5.4821  -10.5014   -2.1239 C   0  0  0  0  0  0  0  0  0  0  0  0
   -6.7704  -10.1200   -2.8326 C   0  0  0  0  0  0  0  0  0  0  0  0
   -4.1643   -8.3650   -1.8651 C   0  0  0  0  0  0  0  0  0  0  0  0
   -3.3508   -5.3739   -2.6519 C   0  0  0  0  0  0  0  0  0  0  0  0
   -4.9118   -4.7299   -3.0591 S   0  0  0  0  0  0  0  0  0  0  0  0
   -4.3819   -3.4340   -4.0015 C   0  0  0  0  0  0  0  0  0  0  0  0
   -4.7706   -2.2280   -4.6306 C   0  0  0  0  0  0  0  0  0  0  0  0
   -6.0641   -1.6844   -4.4601 C   0  0  0  0  0  0  0  0  0  0  0  0
   -6.0802   -0.3313   -4.6811 C   0  0  0  0  0  0  0  0  0  0  0  0
   -7.3021    0.2575   -4.5141 N   0  0  0  0  0  0  0  0  0  0  0  0
   -8.3177   -1.0174   -4.0986 S   0  0  0  0  0  0  0  0  0  0  0  0
   -7.2024   -2.2650   -4.1361 N   0  0  0  0  0  0  0  0  0  0  0  0
   -4.9460    0.3223   -5.0884 C   0  0  0  0  0  0  0  0  0  0  0  0
   -4.6912    1.6899   -5.3183 C   0  0  0  0  0  0  0  0  0  0  0  0
   -5.3291    3.2432   -5.0068 S   0  0  0  0  0  0  0  0  0  0  0  0
   -3.9241    4.2042   -5.3708 C   0  0  0  0  0  0  0  0  0  0  0  0
   -3.3998    5.4584   -5.4444 C   0  0  0  0  0  0  0  0  0  0  0  0
   -4.3912    6.5251   -4.9105 C   0  0  0  0  0  0  0  0  0  0  0  0
   -5.0288    7.3995   -5.6917 C   0  0  0  0  0  0  0  0  0  0  0  0
   -5.9513    8.3169   -5.1521 C   0  0  0  0  0  0  0  0  0  0  0  0
   -6.1786    8.2913   -3.8075 C   0  0  0  0  0  0  0  0  0  0  0  0
   -5.5371    7.4106   -2.9662 C   0  0  0  0  0  0  0  0  0  0  0  0
   -5.7816    7.4663   -1.4864 C   0  0  0  0  0  0  0  0  0  0  0  0
   -7.0601    6.7975   -1.0696 C   0  0  0  0  0  0  0  0  0  0  0  0
   -4.6514    6.5455   -3.5606 C   0  0  0  0  0  0  0  0  0  0  0  0
   -2.2436    5.7770   -5.8395 C   0  0  0  0  0  0  0  0  0  0  0  0
   -1.6249    4.1983   -6.1835 S   0  0  0  0  0  0  0  0  0  0  0  0
   -3.0143    3.2189   -5.7438 C   0  0  0  0  0  0  0  0  0  0  0  0
   -3.4517    1.9151   -5.6986 C   0  0  0  0  0  0  0  0  0  0  0  0
   -2.8326    0.6427   -5.6968 N   0  0  0  0  0  0  0  0  0  0  0  0
   -3.7057   -0.2592   -5.3198 C   0  0  0  0  0  0  0  0  0  0  0  0
   -3.6491   -1.6147   -5.0214 C   0  0  0  0  0  0  0  0  0  0  0  0
   -2.5238   -2.3668   -4.6601 N   0  0  0  0  0  0  0  0  0  0  0  0
   -3.0428   -3.5127   -4.0057 C   0  0  0  0  0  0  0  0  0  0  0  0
   -2.5199   -4.5700   -3.2636 C   0  0  0  0  0  0  0  0  0  0  0  0
   -0.9664   -5.1129   -2.5862 S   0  0  0  0  0  0  0  0  0  0  0  0
   -1.1449   -2.1273   -4.7476 C   0  0  0  0  0  0  0  0  0  0  0  0
   -0.6210   -1.5053   -3.4479 C   0  0  0  0  0  0  0  0  0  0  0  0
   -1.5578    0.4734   -6.3046 C   0  0  0  0  0  0  0  0  0  0  0  0
   -0.4201    1.0552   -5.5477 C   0  0  0  0  0  0  0  0  0  0  0  0
   -1.6031    7.1023   -5.8857 C   0  0  0  0  0  0  0  0  0  0  0  0
   -1.7634    8.2854   -6.2292 C   0  0  0  0  0  0  0  0  0  0  0  0
   -1.1670    9.4452   -6.0661 C   0  0  0  0  0  0  0  0  0  0  0  0
   -1.4157   10.7915   -6.6328 C   0  0  0  0  0  0  0  0  0  0  0  0
   -1.9187   11.8396   -5.7099 C   0  0  0  0  0  0  0  0  0  0  0  0
    0.0162    9.3249   -5.2350 C   0  0  0  0  0  0  0  0  0  0  0  0
    0.0753    7.4730   -4.8370 Se  0  0  0  0  0  2  0  0  0  0  0  0
    0.7027   10.4507   -4.5420 C   0  0  0  0  0  0  0  0  0  0  0  0
   -0.0615   10.4175   -3.2058 C   0  0  0  0  0  0  0  0  0  0  0  0
    0.4505   10.6671   -2.0976 C   0  0  0  0  0  0  0  0  0  0  0  0
    1.8828   11.0178   -1.9006 C   0  0  0  0  0  0  0  0  0  0  0  0
    2.5418   10.6585   -0.8719 C   0  0  0  0  0  0  0  0  0  0  0  0
    4.0165   11.0958   -0.6261 C   0  0  0  0  0  0  0  0  0  0  0  0
    4.4935   11.9356   -1.3032 O   0  0  0  0  0  0  0  0  0  0  0  0
    4.5599   10.3545    0.4559 N   0  0  0  0  0  0  0  0  0  0  0  0
    5.9809   10.8741    0.8363 C   0  0  0  0  0  0  0  0  0  0  0  0
    7.0079   10.2640    0.0045 C   0  0  0  0  0  0  0  0  0  0  0  0
    4.0911    9.4265    1.2500 C   0  0  0  0  0  0  0  0  0  0  0  0
    4.9095    8.7187    2.4759 S   0  0  0  0  0  0  0  0  0  0  0  0
    2.6636    8.9331    1.0803 N   0  0  0  0  0  0  0  0  0  0  0  0
    2.0681    9.6362    0.0145 C   0  0  0  0  0  0  0  0  0  0  0  0
    0.8129    9.2565   -0.1839 O   0  0  0  0  0  0  0  0  0  0  0  0
    2.1674    7.9707    1.9467 C   0  0  0  0  0  0  0  0  0  0  0  0
    2.3749    6.5361    1.4329 C   0  0  0  0  0  0  0  0  0  0  0  0
    2.4859   11.5080   -3.1929 C   0  0  0  0  0  0  0  0  0  0  0  0
    2.0984   10.3266   -4.1908 C   0  0  0  0  0  0  0  0  0  0  0  0
    4.7007   -8.7507    6.7297 H   0  0  0  0  0  0  0  0  0  0  0  0
    6.4101   -4.4324    9.7456 H   0  0  0  0  0  0  0  0  0  0  0  0
    2.5749   -2.7281    7.2414 H   0  0  0  0  0  0  0  0  0  0  0  0
    3.3417   -0.4169    9.6188 H   0  0  0  0  0  0  0  0  0  0  0  0
    4.2845    0.1147    7.1545 H   0  0  0  0  0  0  0  0  0  0  0  0
    5.0680    2.3050    8.4961 H   0  0  0  0  0  0  0  0  0  0  0  0
    6.7445    1.5608   10.2791 H   0  0  0  0  0  0  0  0  0  0  0  0
    7.5504   -0.9293    9.6414 H   0  0  0  0  0  0  0  0  0  0  0  0
    6.9281   -0.1891    7.3004 H   0  0  0  0  0  0  0  0  0  0  0  0
    6.0651   -1.7674    7.6302 H   0  0  0  0  0  0  0  0  0  0  0  0
    5.3494   -1.3421   11.0424 H   0  0  0  0  0  0  0  0  0  0  0  0
    3.9525   -9.2983    3.8595 H   0  0  0  0  0  0  0  0  0  0  0  0
    4.6299   -9.3909    1.6496 H   0  0  0  0  0  0  0  0  0  0  0  0
    5.4593  -11.3085    0.2630 H   0  0  0  0  0  0  0  0  0  0  0  0
    5.2457  -14.8586    0.0381 H   0  0  0  0  0  0  0  0  0  0  0  0
    3.4055  -15.0324    0.0660 H   0  0  0  0  0  0  0  0  0  0  0  0
    4.1303  -16.9149   -1.2403 H   0  0  0  0  0  0  0  0  0  0  0  0
    5.3931  -16.0496   -2.0559 H   0  0  0  0  0  0  0  0  0  0  0  0
    3.6601  -15.7021   -2.4638 H   0  0  0  0  0  0  0  0  0  0  0  0
    0.6619  -10.4764    0.5899 H   0  0  0  0  0  0  0  0  0  0  0  0
   -1.8032   -8.4181    4.6062 H   0  0  0  0  0  0  0  0  0  0  0  0
   -3.7773   -7.3559    5.8336 H   0  0  0  0  0  0  0  0  0  0  0  0
   -4.9546   -2.6212    4.5697 H   0  0  0  0  0  0  0  0  0  0  0  0
   -4.0072   -2.2479    6.0529 H   0  0  0  0  0  0  0  0  0  0  0  0
   -6.0562   -1.3238    6.4235 H   0  0  0  0  0  0  0  0  0  0  0  0
   -6.9739   -2.5270    5.5096 H   0  0  0  0  0  0  0  0  0  0  0  0
   -6.4391   -3.0032    7.1573 H   0  0  0  0  0  0  0  0  0  0  0  0
   -0.7037   -4.6045    3.2435 H   0  0  0  0  0  0  0  0  0  0  0  0
   -1.8199   -6.2438    1.1713 H   0  0  0  0  0  0  0  0  0  0  0  0
   -4.0189   -6.2713    0.7316 H   0  0  0  0  0  0  0  0  0  0  0  0
   -5.4843   -7.9802    1.7604 H   0  0  0  0  0  0  0  0  0  0  0  0
   -6.1363   -9.9599    0.3605 H   0  0  0  0  0  0  0  0  0  0  0  0
   -5.6953  -11.3230   -1.3540 H   0  0  0  0  0  0  0  0  0  0  0  0
   -4.7280  -10.8838   -2.8048 H   0  0  0  0  0  0  0  0  0  0  0  0
   -6.5079   -9.6147   -3.7988 H   0  0  0  0  0  0  0  0  0  0  0  0
   -7.3131   -9.3845   -2.2365 H   0  0  0  0  0  0  0  0  0  0  0  0
   -7.3576  -10.9931   -3.0332 H   0  0  0  0  0  0  0  0  0  0  0  0
   -3.8489   -8.5041   -2.8655 H   0  0  0  0  0  0  0  0  0  0  0  0
   -4.9189    7.4643   -6.7703 H   0  0  0  0  0  0  0  0  0  0  0  0
   -6.4877    8.9827   -5.7962 H   0  0  0  0  0  0  0  0  0  0  0  0
   -6.8960    8.9633   -3.3365 H   0  0  0  0  0  0  0  0  0  0  0  0
   -5.7613    8.5101   -1.1864 H   0  0  0  0  0  0  0  0  0  0  0  0
   -4.9005    6.9578   -0.9626 H   0  0  0  0  0  0  0  0  0  0  0  0
   -7.2776    5.8729   -1.6208 H   0  0  0  0  0  0  0  0  0  0  0  0
   -7.9191    7.4800   -1.1916 H   0  0  0  0  0  0  0  0  0  0  0  0
   -6.9252    6.5094    0.0016 H   0  0  0  0  0  0  0  0  0  0  0  0
   -4.1912    5.8454   -2.8275 H   0  0  0  0  0  0  0  0  0  0  0  0
   -0.6738   -3.2173   -4.6737 H   0  0  0  0  0  0  0  0  0  0  0  0
   -0.6492   -1.7357   -5.5729 H   0  0  0  0  0  0  0  0  0  0  0  0
   -0.9065   -0.4650   -3.3218 H   0  0  0  0  0  0  0  0  0  0  0  0
   -1.1881   -2.0280   -2.6301 H   0  0  0  0  0  0  0  0  0  0  0  0
    0.4888   -1.6187   -3.3491 H   0  0  0  0  0  0  0  0  0  0  0  0
   -1.5847    1.1779   -7.2667 H   0  0  0  0  0  0  0  0  0  0  0  0
   -1.3984   -0.4600   -6.8726 H   0  0  0  0  0  0  0  0  0  0  0  0
    0.1661    1.8015   -6.1600 H   0  0  0  0  0  0  0  0  0  0  0  0
   -0.7645    1.6458   -4.6669 H   0  0  0  0  0  0  0  0  0  0  0  0
    0.2732    0.3135   -5.2300 H   0  0  0  0  0  0  0  0  0  0  0  0
   -2.7424    8.4309   -6.9725 H   0  0  0  0  0  0  0  0  0  0  0  0
   -0.4426   11.1992   -7.0994 H   0  0  0  0  0  0  0  0  0  0  0  0
   -2.1108   10.7553   -7.5154 H   0  0  0  0  0  0  0  0  0  0  0  0
   -2.3200   11.4527   -4.7452 H   0  0  0  0  0  0  0  0  0  0  0  0
   -1.2248   12.7246   -5.5960 H   0  0  0  0  0  0  0  0  0  0  0  0
   -2.8024   12.4157   -6.1676 H   0  0  0  0  0  0  0  0  0  0  0  0
    0.4225   11.4486   -4.9761 H   0  0  0  0  0  0  0  0  0  0  0  0
   -1.1456   10.1474   -3.2515 H   0  0  0  0  0  0  0  0  0  0  0  0
   -0.1350   10.6855   -1.1385 H   0  0  0  0  0  0  0  0  0  0  0  0
    6.0691   10.7762    1.9540 H   0  0  0  0  0  0  0  0  0  0  0  0
    5.8804   11.9449    0.7120 H   0  0  0  0  0  0  0  0  0  0  0  0
    8.0235   10.5772    0.4617 H   0  0  0  0  0  0  0  0  0  0  0  0
    6.9800   10.6775   -1.0178 H   0  0  0  0  0  0  0  0  0  0  0  0
    6.9962    9.1552    0.0028 H   0  0  0  0  0  0  0  0  0  0  0  0
    2.7006    7.9477    2.9564 H   0  0  0  0  0  0  0  0  0  0  0  0
    1.0717    8.0153    2.2056 H   0  0  0  0  0  0  0  0  0  0  0  0
    1.5473    5.8850    1.6860 H   0  0  0  0  0  0  0  0  0  0  0  0
    3.3247    6.0941    1.7609 H   0  0  0  0  0  0  0  0  0  0  0  0
    2.4347    6.5909    0.3262 H   0  0  0  0  0  0  0  0  0  0  0  0
    1.9415   12.3896   -3.5200 H   0  0  0  0  0  0  0  0  0  0  0  0
    3.5330   11.6181   -3.2523 H   0  0  0  0  0  0  0  0  0  0  0  0
    2.7471   10.6183   -5.0886 H   0  0  0  0  0  0  0  0  0  0  0  0
    2.4963    9.3891   -3.8629 H   0  0  0  0  0  0  0  0  0  0  0  0
  1  2  2  3
  2  3  1  0
  3  4  2  0
  3  5  1  0
  5  6  2  0
  6  7  1  0
  7  8  2  0
  8  9  1  0
  9 10  2  0
 10 11  1  0
 11 12  2  3
 12 13  1  0
 13 14  3  0
 12 15  1  0
 15 16  3  0
  8 17  1  0
 17 18  1  0
 18 19  1  0
 19 20  2  0
 20 21  1  0
 21 22  1  0
 21 23  1  0
  1 24  1  0
 24 25  2  0
 25 26  1  0
 26 27  2  0
 27 28  1  0
 28 29  2  0
 29 30  1  0
 30 31  2  0
 31 32  1  0
 32 33  1  0
 33 34  1  0
 31 35  1  0
 35 36  1  0
 35 37  2  0
 27 38  1  0
 38 39  2  0
 39 40  1  0
 40 41  1  0
 41 42  2  0
 42 43  1  0
 43 44  2  0
 44 45  1  0
 45 46  1  0
 46 47  1  0
 44 48  1  0
 48 49  2  0
 48 50  1  0
 40 51  2  0
 51 52  1  0
 39 53  1  0
 53 54  2  0
 54 55  1  0
 54 56  1  0
 56 57  2  0
 57 58  1  0
 58 59  2  0
 59 60  1  0
 60 61  2  0
 61 62  1  0
 62 63  1  0
 63 64  1  0
 62 65  2  0
 57 66  1  0
 66 67  1  0
 67 68  1  0
 68 69  1  0
 69 70  1  0
 70 71  1  0
 71 72  2  0
 72 73  1  0
 73 74  1  0
 71 75  1  0
 75 76  1  0
 76 77  1  0
 77 78  1  0
 78 79  1  0
 79 80  1  0
 80 81  2  0
 81 82  1  0
 82 83  2  0
 83 84  1  0
 84 85  1  0
 85 86  1  0
 84 87  2  0
 79 88  2  0
 88 89  1  0
 89 90  1  0
 90 91  1  0
 91 92  1  0
 92 93  1  0
 93 94  1  0
 94 95  1  0
 95 96  1  0
 96 97  1  0
 97 98  1  0
 95 99  1  0
 99100  1  0
 92101  1  0
101102  1  0
 88103  1  0
103104  2  0
104105  1  0
105106  1  0
106107  1  0
105108  2  0
108109  1  0
108110  1  0
110111  1  0
111112  2  0
112113  1  0
113114  2  3
114115  1  0
115116  2  0
115117  1  0
117118  1  0
118119  1  0
117120  1  0
120121  2  0
120122  1  0
122123  1  0
123124  2  0
122125  1  0
125126  1  0
113127  1  0
127128  1  0
 11  2  1  0
 23 17  1  0
 52 24  1  0
 98 56  1  0
109103  1  0
128110  1  0
 10  5  1  0
 22 18  1  0
 51 26  1  0
 65 58  1  0
 97 66  2  0
123114  1  0
 23  7  1  0
 37 28  1  0
 55 38  1  0
 96 68  2  0
 49 41  1  0
 94 69  2  0
 74 70  2  0
 93 75  2  0
 91 76  2  0
 90 78  2  0
 87 80  1  0
  1129  1  0
  6130  1  0
  9131  1  0
 17132  1  0
 18133  1  0
 19134  1  0
 20135  1  0
 21136  1  0
 22137  1  0
 22138  1  0
 23139  1  0
 25140  1  0
 29141  1  0
 30142  1  0
 33143  1  0
 33144  1  0
 34145  1  0
 34146  1  0
 34147  1  0
 37148  1  0
 42149  1  0
 43150  1  0
 46151  1  0
 46152  1  0
 47153  1  0
 47154  1  0
 47155  1  0
 49156  1  0
 53157  1  0
 59158  1  0
 60159  1  0
 61160  1  0
 63161  1  0
 63162  1  0
 64163  1  0
 64164  1  0
 64165  1  0
 65166  1  0
 81167  1  0
 82168  1  0
 83169  1  0
 85170  1  0
 85171  1  0
 86172  1  0
 86173  1  0
 86174  1  0
 87175  1  0
 99176  1  0
 99177  1  0
100178  1  0
100179  1  0
100180  1  0
101181  1  0
101182  1  0
102183  1  0
102184  1  0
102185  1  0
104186  1  0
106187  1  0
106188  1  0
107189  1  0
107190  1  0
107191  1  0
110192  1  0
111193  1  0
112194  1  0
118195  1  0
118196  1  0
119197  1  0
119198  1  0
119199  1  0
125200  1  0
125201  1  0
126202  1  0
126203  1  0
126204  1  0
127205  1  0
127206  1  0
128207  1  0
128208  1  0
M  END

