
     RDKit          3D

287316  0  0  0  0  0  0  0  0999 V2000
   -3.4425   -6.8972   -2.6981 C   0  0  0  0  0  0  0  0  0  0  0  0
   -4.0265   -7.9333   -2.0723 C   0  0  0  0  0  0  0  0  0  0  0  0
   -3.3495   -9.1804   -1.6863 C   0  0  0  0  0  0  0  0  0  0  0  0
   -2.1056   -9.3790   -1.6530 O   0  0  0  0  0  0  0  0  0  0  0  0
   -4.3549  -10.2028   -1.4893 C   0  0  0  0  0  0  0  0  0  0  0  0
   -4.1339  -11.5882   -1.3005 C   0  0  0  0  0  0  0  0  0  0  0  0
   -5.2894  -12.3460   -1.3067 C   0  0  0  0  0  0  0  0  0  0  0  0
   -6.5929  -11.7806   -1.4939 C   0  0  0  0  0  0  0  0  0  0  0  0
   -6.8172  -10.4296   -1.6987 C   0  0  0  0  0  0  0  0  0  0  0  0
   -5.6424   -9.6298   -1.6731 C   0  0  0  0  0  0  0  0  0  0  0  0
   -5.4923   -8.1753   -1.9377 C   0  0  0  0  0  0  0  0  0  0  0  0
   -6.4502   -7.2241   -1.7762 C   0  0  0  0  0  0  0  0  0  0  0  0
   -6.1488   -5.8178   -1.8137 C   0  0  0  0  0  0  0  0  0  0  0  0
   -5.9098   -4.6830   -1.8391 N   0  0  0  0  0  0  0  0  0  0  0  0
   -7.7998   -7.5448   -1.3967 C   0  0  0  0  0  0  0  0  0  0  0  0
   -8.8878   -7.7874   -1.0907 N   0  0  0  0  0  0  0  0  0  0  0  0
   -7.2137  -13.1423   -1.4332 C   0  0  0  0  0  0  0  0  0  0  0  0
   -7.6907  -13.7412   -2.7891 C   0  0  0  0  0  0  0  0  0  0  0  0
   -7.8961  -15.2143   -2.5368 C   0  0  0  0  0  0  0  0  0  0  0  0
   -6.6793  -15.7472   -2.3678 C   0  0  0  0  0  0  0  0  0  0  0  0
   -5.6924  -14.6129   -2.5126 C   0  0  0  0  0  0  0  0  0  0  0  0
   -6.4047  -13.8207   -3.5985 C   0  0  0  0  0  0  0  0  0  0  0  0
   -5.8797  -13.7236   -1.2462 C   0  0  0  0  0  0  0  0  0  0  0  0
   -1.9991   -6.6452   -2.6436 C   0  0  0  0  0  0  0  0  0  0  0  0
   -1.2158   -6.2060   -3.7049 C   0  0  0  0  0  0  0  0  0  0  0  0
    0.0395   -6.0138   -3.1560 C   0  0  0  0  0  0  0  0  0  0  0  0
    1.2477   -5.5377   -3.7136 C   0  0  0  0  0  0  0  0  0  0  0  0
    1.4143   -5.1739   -5.1399 C   0  0  0  0  0  0  0  0  0  0  0  0
    2.5905   -5.3146   -5.8742 C   0  0  0  0  0  0  0  0  0  0  0  0
    2.4796   -4.8828   -7.2015 C   0  0  0  0  0  0  0  0  0  0  0  0
    1.2241   -4.3842   -7.5170 C   0  0  0  0  0  0  0  0  0  0  0  0
    0.6542   -3.8291   -9.1853 Si  0  0  0  0  0  4  0  0  0  0  0  0
   -0.1312   -5.2958  -10.0661 C   0  0  0  0  0  0  0  0  0  0  0  0
   -1.3882   -5.7769   -9.3525 C   0  0  0  0  0  0  0  0  0  0  0  0
    2.1167   -3.1638  -10.1677 C   0  0  0  0  0  0  0  0  0  0  0  0
    2.8268   -4.2607  -10.9551 C   0  0  0  0  0  0  0  0  0  0  0  0
   -0.6054   -2.4464   -8.9480 C   0  0  0  0  0  0  0  0  0  0  0  0
   -1.2606   -2.0273  -10.2597 C   0  0  0  0  0  0  0  0  0  0  0  0
    0.2470   -4.5001   -6.1496 S   0  0  0  0  0  0  0  0  0  0  0  0
    2.3045   -5.3785   -2.7970 C   0  0  0  0  0  0  0  0  0  0  0  0
    2.2003   -5.7468   -1.4660 C   0  0  0  0  0  0  0  0  0  0  0  0
    1.0063   -6.2465   -0.9168 C   0  0  0  0  0  0  0  0  0  0  0  0
    0.8414   -6.5049    0.5282 C   0  0  0  0  0  0  0  0  0  0  0  0
    1.7875   -7.0651    1.3826 C   0  0  0  0  0  0  0  0  0  0  0  0
    1.3732   -7.1030    2.7202 C   0  0  0  0  0  0  0  0  0  0  0  0
    0.0922   -6.5937    2.9111 C   0  0  0  0  0  0  0  0  0  0  0  0
   -0.7930   -6.4288    4.5212 Si  0  0  0  0  0  4  0  0  0  0  0  0
   -0.6219   -4.6458    5.0967 C   0  0  0  0  0  0  0  0  0  0  0  0
   -1.8624   -4.1500    5.8275 C   0  0  0  0  0  0  0  0  0  0  0  0
    0.0110   -7.5793    5.7779 C   0  0  0  0  0  0  0  0  0  0  0  0
   -0.7395   -7.5987    7.1029 C   0  0  0  0  0  0  0  0  0  0  0  0
   -2.5953   -6.8914    4.2450 C   0  0  0  0  0  0  0  0  0  0  0  0
   -2.7266   -8.2851    3.6425 C   0  0  0  0  0  0  0  0  0  0  0  0
   -0.5077   -6.0676    1.4324 S   0  0  0  0  0  0  0  0  0  0  0  0
   -0.0688   -6.3515   -1.8141 C   0  0  0  0  0  0  0  0  0  0  0  0
   -1.2896   -6.7334   -1.5369 O   0  0  0  0  0  0  0  0  0  0  0  0
    3.3659   -5.3386   -0.8538 C   0  0  0  0  0  0  0  0  0  0  0  0
    4.0993   -4.7258   -1.8606 C   0  0  0  0  0  0  0  0  0  0  0  0
    3.4520   -4.7792   -3.0091 O   0  0  0  0  0  0  0  0  0  0  0  0
    5.3246   -3.9437   -1.6684 C   0  0  0  0  0  0  0  0  0  0  0  0
    6.2762   -4.0866   -0.6360 C   0  0  0  0  0  0  0  0  0  0  0  0
    6.3778   -5.2622    0.2570 C   0  0  0  0  0  0  0  0  0  0  0  0
    6.3631   -6.5589   -0.2869 C   0  0  0  0  0  0  0  0  0  0  0  0
    6.4242   -7.6761    0.5483 C   0  0  0  0  0  0  0  0  0  0  0  0
    6.4899   -7.5147    1.9335 C   0  0  0  0  0  0  0  0  0  0  0  0
    6.4830   -6.2286    2.4972 C   0  0  0  0  0  0  0  0  0  0  0  0
    6.5836   -6.0581    3.9887 C   0  0  0  0  0  0  0  0  0  0  0  0
    8.0444   -6.0002    4.4290 C   0  0  0  0  0  0  0  0  0  0  0  0
    6.4414   -5.1039    1.6533 C   0  0  0  0  0  0  0  0  0  0  0  0
    7.0931   -2.9487   -0.5569 C   0  0  0  0  0  0  0  0  0  0  0  0
    8.2121   -2.3907    0.5984 S   0  0  0  0  0  0  0  0  0  0  0  0
    8.3075   -0.8671   -0.1483 C   0  0  0  0  0  0  0  0  0  0  0  0
    8.5516    0.4020    0.2986 C   0  0  0  0  0  0  0  0  0  0  0  0
    9.0179    0.8132    1.5505 C   0  0  0  0  0  0  0  0  0  0  0  0
    8.8393    2.1667    1.9418 C   0  0  0  0  0  0  0  0  0  0  0  0
    9.2349    2.5044    3.1945 N   0  0  0  0  0  0  0  0  0  0  0  0
    9.7871    1.0357    3.7238 S   0  0  0  0  0  0  0  0  0  0  0  0
    9.5571   -0.0249    2.4728 N   0  0  0  0  0  0  0  0  0  0  0  0
    8.2486    3.0543    1.0443 C   0  0  0  0  0  0  0  0  0  0  0  0
    7.8134    4.3367    1.2410 C   0  0  0  0  0  0  0  0  0  0  0  0
    7.2717    5.1798    2.6119 S   0  0  0  0  0  0  0  0  0  0  0  0
    6.1095    6.0184    1.6967 C   0  0  0  0  0  0  0  0  0  0  0  0
    4.9241    6.6258    2.1052 C   0  0  0  0  0  0  0  0  0  0  0  0
    4.8320    7.3993    3.3521 C   0  0  0  0  0  0  0  0  0  0  0  0
    4.1305    6.9281    4.4735 C   0  0  0  0  0  0  0  0  0  0  0  0
    4.0998    7.6914    5.6449 C   0  0  0  0  0  0  0  0  0  0  0  0
    4.7962    8.9039    5.7186 C   0  0  0  0  0  0  0  0  0  0  0  0
    5.5322    9.3616    4.6110 C   0  0  0  0  0  0  0  0  0  0  0  0
    6.3758   10.6035    4.7138 C   0  0  0  0  0  0  0  0  0  0  0  0
    7.7842   10.2586    5.1929 C   0  0  0  0  0  0  0  0  0  0  0  0
    5.5466    8.6036    3.4342 C   0  0  0  0  0  0  0  0  0  0  0  0
    3.9793    6.6459    1.0620 C   0  0  0  0  0  0  0  0  0  0  0  0
    4.6422    5.9113   -0.3230 S   0  0  0  0  0  0  0  0  0  0  0  0
    6.1291    5.6133    0.3873 C   0  0  0  0  0  0  0  0  0  0  0  0
    7.1161    4.6762    0.1248 C   0  0  0  0  0  0  0  0  0  0  0  0
    7.1298    3.7129   -0.8220 N   0  0  0  0  0  0  0  0  0  0  0  0
    7.7829    2.6595   -0.2261 C   0  0  0  0  0  0  0  0  0  0  0  0
    7.8719    1.2735   -0.5824 C   0  0  0  0  0  0  0  0  0  0  0  0
    7.1677    0.5327   -1.5113 N   0  0  0  0  0  0  0  0  0  0  0  0
    7.4679   -0.7597   -1.2099 C   0  0  0  0  0  0  0  0  0  0  0  0
    6.7932   -1.9552   -1.4566 C   0  0  0  0  0  0  0  0  0  0  0  0
    5.5066   -2.4306   -2.4124 S   0  0  0  0  0  0  0  0  0  0  0  0
    6.0302    0.9212   -2.3507 C   0  0  0  0  0  0  0  0  0  0  0  0
    4.8112    1.2834   -1.5045 C   0  0  0  0  0  0  0  0  0  0  0  0
    6.9434    4.0499   -2.2405 C   0  0  0  0  0  0  0  0  0  0  0  0
    8.1642    3.6686   -3.0845 C   0  0  0  0  0  0  0  0  0  0  0  0
    2.5389    6.8995    1.1765 C   0  0  0  0  0  0  0  0  0  0  0  0
    1.7117    6.3837    2.1671 C   0  0  0  0  0  0  0  0  0  0  0  0
    0.4275    6.6678    1.7544 C   0  0  0  0  0  0  0  0  0  0  0  0
   -0.8285    6.2440    2.2583 C   0  0  0  0  0  0  0  0  0  0  0  0
   -0.9880    5.5368    3.5644 C   0  0  0  0  0  0  0  0  0  0  0  0
   -2.0794    4.7654    3.9763 C   0  0  0  0  0  0  0  0  0  0  0  0
   -1.9893    4.2990    5.2954 C   0  0  0  0  0  0  0  0  0  0  0  0
   -0.8169    4.6743    5.9398 C   0  0  0  0  0  0  0  0  0  0  0  0
   -0.2965    4.1651    7.6464 Si  0  0  0  0  0  4  0  0  0  0  0  0
   -1.5608    4.7666    8.9103 C   0  0  0  0  0  0  0  0  0  0  0  0
   -1.2439    4.2567   10.3138 C   0  0  0  0  0  0  0  0  0  0  0  0
   -0.1494    2.2885    7.7524 C   0  0  0  0  0  0  0  0  0  0  0  0
   -1.4699    1.5800    7.4656 C   0  0  0  0  0  0  0  0  0  0  0  0
    1.4075    4.8488    8.0635 C   0  0  0  0  0  0  0  0  0  0  0  0
    1.3844    6.3436    8.3597 C   0  0  0  0  0  0  0  0  0  0  0  0
    0.0758    5.6228    4.8756 S   0  0  0  0  0  0  0  0  0  0  0  0
   -1.9202    6.5057    1.3973 C   0  0  0  0  0  0  0  0  0  0  0  0
   -1.7855    7.2290    0.2216 C   0  0  0  0  0  0  0  0  0  0  0  0
   -0.5419    7.6827   -0.2496 C   0  0  0  0  0  0  0  0  0  0  0  0
   -0.3989    8.3658   -1.5510 C   0  0  0  0  0  0  0  0  0  0  0  0
   -1.2443    9.3533   -2.0461 C   0  0  0  0  0  0  0  0  0  0  0  0
   -0.9478    9.7355   -3.3564 C   0  0  0  0  0  0  0  0  0  0  0  0
    0.1221    9.0380   -3.8977 C   0  0  0  0  0  0  0  0  0  0  0  0
    0.7807    9.2461   -5.6098 Si  0  0  0  0  0  4  0  0  0  0  0  0
    1.3819    7.5862   -6.2594 C   0  0  0  0  0  0  0  0  0  0  0  0
    0.2467    6.5727   -6.3497 C   0  0  0  0  0  0  0  0  0  0  0  0
   -0.6006    9.9151   -6.7030 C   0  0  0  0  0  0  0  0  0  0  0  0
   -0.1637   10.0423   -8.1569 C   0  0  0  0  0  0  0  0  0  0  0  0
    2.1910   10.4836   -5.5962 C   0  0  0  0  0  0  0  0  0  0  0  0
    3.2807   10.0853   -4.6093 C   0  0  0  0  0  0  0  0  0  0  0  0
    0.7246    7.9706   -2.7395 S   0  0  0  0  0  0  0  0  0  0  0  0
    0.5628    7.3277    0.5383 C   0  0  0  0  0  0  0  0  0  0  0  0
    1.8287    7.4662    0.2246 O   0  0  0  0  0  0  0  0  0  0  0  0
   -3.0133    7.1971   -0.4064 C   0  0  0  0  0  0  0  0  0  0  0  0
   -3.8193    6.4370    0.4258 C   0  0  0  0  0  0  0  0  0  0  0  0
   -3.1496    6.0601    1.5002 O   0  0  0  0  0  0  0  0  0  0  0  0
   -5.1599    5.9534    0.0445 C   0  0  0  0  0  0  0  0  0  0  0  0
   -5.9411    5.1813    0.8203 C   0  0  0  0  0  0  0  0  0  0  0  0
   -5.9750    5.1996    2.2873 C   0  0  0  0  0  0  0  0  0  0  0  0
   -5.2498    5.8972    3.0462 O   0  0  0  0  0  0  0  0  0  0  0  0
   -7.1110    4.4271    2.7293 C   0  0  0  0  0  0  0  0  0  0  0  0
   -7.4939    4.1857    4.0692 C   0  0  0  0  0  0  0  0  0  0  0  0
   -8.6101    3.3850    4.1915 C   0  0  0  0  0  0  0  0  0  0  0  0
   -9.3198    2.8506    3.0679 C   0  0  0  0  0  0  0  0  0  0  0  0
   -8.9605    3.0946    1.7548 C   0  0  0  0  0  0  0  0  0  0  0  0
   -7.8052    3.9143    1.6003 C   0  0  0  0  0  0  0  0  0  0  0  0
   -7.0762    4.3172    0.3623 C   0  0  0  0  0  0  0  0  0  0  0  0
   -7.2452    3.7996   -0.8855 C   0  0  0  0  0  0  0  0  0  0  0  0
   -6.2557    3.9552   -1.9220 C   0  0  0  0  0  0  0  0  0  0  0  0
   -5.4636    4.0687   -2.7557 N   0  0  0  0  0  0  0  0  0  0  0  0
   -8.3650    2.9737   -1.2547 C   0  0  0  0  0  0  0  0  0  0  0  0
   -9.2557    2.3087   -1.5748 N   0  0  0  0  0  0  0  0  0  0  0  0
  -10.2571    2.1215    3.9839 C   0  0  0  0  0  0  0  0  0  0  0  0
  -10.0335    0.5832    4.1195 C   0  0  0  0  0  0  0  0  0  0  0  0
  -10.7972    0.1623    5.3515 C   0  0  0  0  0  0  0  0  0  0  0  0
  -10.1368    0.6699    6.4004 C   0  0  0  0  0  0  0  0  0  0  0  0
   -8.9481    1.4151    5.8400 C   0  0  0  0  0  0  0  0  0  0  0  0
   -8.6224    0.4878    4.6793 C   0  0  0  0  0  0  0  0  0  0  0  0
   -9.5308    2.6748    5.1340 C   0  0  0  0  0  0  0  0  0  0  0  0
   -4.0441   -6.1848   -3.2463 H   0  0  0  0  0  0  0  0  0  0  0  0
   -3.1499  -12.0291   -1.2102 H   0  0  0  0  0  0  0  0  0  0  0  0
   -7.8027  -10.0599   -1.9285 H   0  0  0  0  0  0  0  0  0  0  0  0
   -7.9059  -13.2768   -0.5719 H   0  0  0  0  0  0  0  0  0  0  0  0
   -8.5415  -13.2195   -3.2777 H   0  0  0  0  0  0  0  0  0  0  0  0
   -8.8297  -15.7677   -2.5886 H   0  0  0  0  0  0  0  0  0  0  0  0
   -6.4566  -16.8054   -2.2653 H   0  0  0  0  0  0  0  0  0  0  0  0
   -4.6462  -14.9127   -2.7447 H   0  0  0  0  0  0  0  0  0  0  0  0
   -5.9415  -12.8318   -3.8222 H   0  0  0  0  0  0  0  0  0  0  0  0
   -6.5177  -14.3884   -4.5556 H   0  0  0  0  0  0  0  0  0  0  0  0
   -5.7251  -14.2285   -0.2691 H   0  0  0  0  0  0  0  0  0  0  0  0
   -1.5467   -6.0379   -4.7203 H   0  0  0  0  0  0  0  0  0  0  0  0
    3.5046   -5.7344   -5.4744 H   0  0  0  0  0  0  0  0  0  0  0  0
    3.3015   -4.9455   -7.9046 H   0  0  0  0  0  0  0  0  0  0  0  0
   -0.3806   -4.9981  -11.1055 H   0  0  0  0  0  0  0  0  0  0  0  0
    0.6083   -6.1237  -10.1022 H   0  0  0  0  0  0  0  0  0  0  0  0
   -1.1523   -6.0881   -8.3149 H   0  0  0  0  0  0  0  0  0  0  0  0
   -2.1547   -4.9733   -9.3345 H   0  0  0  0  0  0  0  0  0  0  0  0
   -1.8064   -6.6496   -9.8969 H   0  0  0  0  0  0  0  0  0  0  0  0
    1.7561   -2.3883  -10.8744 H   0  0  0  0  0  0  0  0  0  0  0  0
    2.8281   -2.6899   -9.4596 H   0  0  0  0  0  0  0  0  0  0  0  0
    3.1717   -5.0721  -10.2786 H   0  0  0  0  0  0  0  0  0  0  0  0
    3.7118   -3.8247  -11.4686 H   0  0  0  0  0  0  0  0  0  0  0  0
    2.1464   -4.6840  -11.7281 H   0  0  0  0  0  0  0  0  0  0  0  0
   -0.0940   -1.5731   -8.4904 H   0  0  0  0  0  0  0  0  0  0  0  0
   -1.3931   -2.7985   -8.2486 H   0  0  0  0  0  0  0  0  0  0  0  0
   -1.9783   -1.2063  -10.0649 H   0  0  0  0  0  0  0  0  0  0  0  0
   -1.8158   -2.8769  -10.7083 H   0  0  0  0  0  0  0  0  0  0  0  0
   -0.5042   -1.6639  -10.9833 H   0  0  0  0  0  0  0  0  0  0  0  0
    2.7502   -7.4404    1.0545 H   0  0  0  0  0  0  0  0  0  0  0  0
    1.9913   -7.4918    3.5199 H   0  0  0  0  0  0  0  0  0  0  0  0
   -0.4403   -4.0017    4.2120 H   0  0  0  0  0  0  0  0  0  0  0  0
    0.2597   -4.5726    5.7686 H   0  0  0  0  0  0  0  0  0  0  0  0
   -2.1062   -4.8061    6.6881 H   0  0  0  0  0  0  0  0  0  0  0  0
   -2.7292   -4.1133    5.1359 H   0  0  0  0  0  0  0  0  0  0  0  0
   -1.6811   -3.1233    6.2090 H   0  0  0  0  0  0  0  0  0  0  0  0
    1.0569   -7.2483    5.9461 H   0  0  0  0  0  0  0  0  0  0  0  0
    0.0346   -8.6058    5.3541 H   0  0  0  0  0  0  0  0  0  0  0  0
   -1.7820   -7.9422    6.9488 H   0  0  0  0  0  0  0  0  0  0  0  0
   -0.7395   -6.5926    7.5679 H   0  0  0  0  0  0  0  0  0  0  0  0
   -0.2404   -8.3033    7.7953 H   0  0  0  0  0  0  0  0  0  0  0  0
   -3.1266   -6.8619    5.2159 H   0  0  0  0  0  0  0  0  0  0  0  0
   -3.0563   -6.1466    3.5641 H   0  0  0  0  0  0  0  0  0  0  0  0
   -3.8026   -8.5236    3.4926 H   0  0  0  0  0  0  0  0  0  0  0  0
   -2.2151   -8.3417    2.6565 H   0  0  0  0  0  0  0  0  0  0  0  0
   -2.2913   -9.0440    4.3288 H   0  0  0  0  0  0  0  0  0  0  0  0
    3.5925   -5.3457    0.2004 H   0  0  0  0  0  0  0  0  0  0  0  0
    6.3162   -6.7025   -1.3592 H   0  0  0  0  0  0  0  0  0  0  0  0
    6.4141   -8.6709    0.1220 H   0  0  0  0  0  0  0  0  0  0  0  0
    6.5366   -8.3948    2.5686 H   0  0  0  0  0  0  0  0  0  0  0  0
    6.0675   -5.1257    4.3024 H   0  0  0  0  0  0  0  0  0  0  0  0
    6.0770   -6.9035    4.5037 H   0  0  0  0  0  0  0  0  0  0  0  0
    8.0961   -5.8324    5.5263 H   0  0  0  0  0  0  0  0  0  0  0  0
    8.5557   -6.9559    4.1866 H   0  0  0  0  0  0  0  0  0  0  0  0
    8.5638   -5.1636    3.9150 H   0  0  0  0  0  0  0  0  0  0  0  0
    6.4292   -4.1119    2.0904 H   0  0  0  0  0  0  0  0  0  0  0  0
    3.6415    5.9608    4.4598 H   0  0  0  0  0  0  0  0  0  0  0  0
    3.5630    7.3292    6.5078 H   0  0  0  0  0  0  0  0  0  0  0  0
    4.7856    9.4734    6.6435 H   0  0  0  0  0  0  0  0  0  0  0  0
    5.9105   11.3276    5.4197 H   0  0  0  0  0  0  0  0  0  0  0  0
    6.4381   11.1014    3.7217 H   0  0  0  0  0  0  0  0  0  0  0  0
    7.7438    9.7912    6.2019 H   0  0  0  0  0  0  0  0  0  0  0  0
    8.3929   11.1864    5.2526 H   0  0  0  0  0  0  0  0  0  0  0  0
    8.2731    9.5606    4.4812 H   0  0  0  0  0  0  0  0  0  0  0  0
    6.1298    8.9406    2.5823 H   0  0  0  0  0  0  0  0  0  0  0  0
    6.3130    1.6907   -3.0722 H   0  0  0  0  0  0  0  0  0  0  0  0
    5.7481    0.0988   -3.0280 H   0  0  0  0  0  0  0  0  0  0  0  0
    5.0091    2.1653   -0.8658 H   0  0  0  0  0  0  0  0  0  0  0  0
    4.5400    0.4296   -0.8480 H   0  0  0  0  0  0  0  0  0  0  0  0
    3.9485    1.5062   -2.1651 H   0  0  0  0  0  0  0  0  0  0  0  0
    5.9830    3.6666   -2.6244 H   0  0  0  0  0  0  0  0  0  0  0  0
    6.8401    5.1564   -2.3469 H   0  0  0  0  0  0  0  0  0  0  0  0
    7.9836    3.9383   -4.1453 H   0  0  0  0  0  0  0  0  0  0  0  0
    8.3908    2.5879   -3.0258 H   0  0  0  0  0  0  0  0  0  0  0  0
    9.0544    4.2326   -2.7222 H   0  0  0  0  0  0  0  0  0  0  0  0
    2.0102    5.7352    2.9710 H   0  0  0  0  0  0  0  0  0  0  0  0
   -2.9200    4.5107    3.3458 H   0  0  0  0  0  0  0  0  0  0  0  0
   -2.7635    3.6984    5.7594 H   0  0  0  0  0  0  0  0  0  0  0  0
   -2.5697    4.4140    8.6067 H   0  0  0  0  0  0  0  0  0  0  0  0
   -1.5666    5.8781    8.9090 H   0  0  0  0  0  0  0  0  0  0  0  0
   -1.9829    4.6704   11.0303 H   0  0  0  0  0  0  0  0  0  0  0  0
   -1.3101    3.1488   10.3472 H   0  0  0  0  0  0  0  0  0  0  0  0
   -0.2277    4.5760   10.6278 H   0  0  0  0  0  0  0  0  0  0  0  0
    0.6231    1.9446    7.0310 H   0  0  0  0  0  0  0  0  0  0  0  0
    0.1915    2.0233    8.7774 H   0  0  0  0  0  0  0  0  0  0  0  0
   -1.7250    1.6634    6.3897 H   0  0  0  0  0  0  0  0  0  0  0  0
   -2.2916    2.0025    8.0847 H   0  0  0  0  0  0  0  0  0  0  0  0
   -1.3685    0.5026    7.7145 H   0  0  0  0  0  0  0  0  0  0  0  0
    2.0922    4.6476    7.2142 H   0  0  0  0  0  0  0  0  0  0  0  0
    1.7916    4.3105    8.9551 H   0  0  0  0  0  0  0  0  0  0  0  0
    0.7413    6.5591    9.2385 H   0  0  0  0  0  0  0  0  0  0  0  0
    1.0173    6.9127    7.4790 H   0  0  0  0  0  0  0  0  0  0  0  0
    2.4136    6.6835    8.6008 H   0  0  0  0  0  0  0  0  0  0  0  0
   -2.0629    9.7800   -1.4810 H   0  0  0  0  0  0  0  0  0  0  0  0
   -1.5156   10.4868   -3.8957 H   0  0  0  0  0  0  0  0  0  0  0  0
    1.8296    7.7336   -7.2645 H   0  0  0  0  0  0  0  0  0  0  0  0
    2.1683    7.1993   -5.5776 H   0  0  0  0  0  0  0  0  0  0  0  0
   -0.5331    6.9250   -7.0584 H   0  0  0  0  0  0  0  0  0  0  0  0
    0.6478    5.6054   -6.7206 H   0  0  0  0  0  0  0  0  0  0  0  0
   -0.2082    6.4075   -5.3489 H   0  0  0  0  0  0  0  0  0  0  0  0
   -1.4757    9.2337   -6.6368 H   0  0  0  0  0  0  0  0  0  0  0  0
   -0.9023   10.9137   -6.3222 H   0  0  0  0  0  0  0  0  0  0  0  0
    0.7149   10.7175   -8.2414 H   0  0  0  0  0  0  0  0  0  0  0  0
   -0.9945   10.4732   -8.7542 H   0  0  0  0  0  0  0  0  0  0  0  0
    0.0920    9.0476   -8.5758 H   0  0  0  0  0  0  0  0  0  0  0  0
    2.6230   10.5411   -6.6159 H   0  0  0  0  0  0  0  0  0  0  0  0
    1.7869   11.4782   -5.3191 H   0  0  0  0  0  0  0  0  0  0  0  0
    3.7062    9.0936   -4.8748 H   0  0  0  0  0  0  0  0  0  0  0  0
    2.8793   10.0509   -3.5743 H   0  0  0  0  0  0  0  0  0  0  0  0
    4.0974   10.8372   -4.6422 H   0  0  0  0  0  0  0  0  0  0  0  0
   -3.2609    7.5653   -1.3941 H   0  0  0  0  0  0  0  0  0  0  0  0
   -5.4466    6.1356   -0.9798 H   0  0  0  0  0  0  0  0  0  0  0  0
   -6.9499    4.5621    4.9244 H   0  0  0  0  0  0  0  0  0  0  0  0
   -9.5317    2.6669    0.9530 H   0  0  0  0  0  0  0  0  0  0  0  0
  -11.3185    2.4513    3.8938 H   0  0  0  0  0  0  0  0  0  0  0  0
  -10.2327   -0.0197    3.2056 H   0  0  0  0  0  0  0  0  0  0  0  0
  -11.6528   -0.5024    5.3999 H   0  0  0  0  0  0  0  0  0  0  0  0
  -10.3693    0.4917    7.4449 H   0  0  0  0  0  0  0  0  0  0  0  0
   -8.1205    1.6030    6.5594 H   0  0  0  0  0  0  0  0  0  0  0  0
   -7.8309    0.8664    3.9950 H   0  0  0  0  0  0  0  0  0  0  0  0
   -8.3415   -0.5444    4.9997 H   0  0  0  0  0  0  0  0  0  0  0  0
  -10.1265    3.3609    5.7777 H   0  0  0  0  0  0  0  0  0  0  0  0
  1  2  2  3
  2  3  1  0
  3  4  2  0
  3  5  1  0
  5  6  2  0
  6  7  1  0
  7  8  2  0
  8  9  1  0
  9 10  2  0
 10 11  1  0
 11 12  2  3
 12 13  1  0
 13 14  3  0
 12 15  1  0
 15 16  3  0
  8 17  1  0
 17 18  1  0
 18 19  1  0
 19 20  2  0
 20 21  1  0
 21 22  1  0
 21 23  1  0
  1 24  1  0
 24 25  2  0
 25 26  1  0
 26 27  2  0
 27 28  1  0
 28 29  2  0
 29 30  1  0
 30 31  2  0
 31 32  1  0
 32 33  1  0
 33 34  1  0
 32 35  1  0
 35 36  1  0
 32 37  1  0
 37 38  1  0
 31 39  1  0
 27 40  1  0
 40 41  2  0
 41 42  1  0
 42 43  1  0
 43 44  2  0
 44 45  1  0
 45 46  2  0
 46 47  1  0
 47 48  1  0
 48 49  1  0
 47 50  1  0
 50 51  1  0
 47 52  1  0
 52 53  1  0
 46 54  1  0
 42 55  2  0
 55 56  1  0
 41 57  1  0
 57 58  2  0
 58 59  1  0
 58 60  1  0
 60 61  2  0
 61 62  1  0
 62 63  2  0
 63 64  1  0
 64 65  2  0
 65 66  1  0
 66 67  1  0
 67 68  1  0
 66 69  2  0
 61 70  1  0
 70 71  1  0
 71 72  1  0
 72 73  1  0
 73 74  1  0
 74 75  1  0
 75 76  2  0
 76 77  1  0
 77 78  1  0
 75 79  1  0
 79 80  1  0
 80 81  1  0
 81 82  1  0
 82 83  1  0
 83 84  1  0
 84 85  2  0
 85 86  1  0
 86 87  2  0
 87 88  1  0
 88 89  1  0
 89 90  1  0
 88 91  2  0
 83 92  2  0
 92 93  1  0
 93 94  1  0
 94 95  1  0
 95 96  1  0
 96 97  1  0
 97 98  1  0
 98 99  1  0
 99100  1  0
100101  1  0
101102  1  0
 99103  1  0
103104  1  0
 96105  1  0
105106  1  0
 92107  1  0
107108  2  0
108109  1  0
109110  2  0
110111  1  0
111112  2  0
112113  1  0
113114  2  0
114115  1  0
115116  1  0
116117  1  0
115118  1  0
118119  1  0
115120  1  0
120121  1  0
114122  1  0
110123  1  0
123124  2  0
124125  1  0
125126  1  0
126127  2  0
127128  1  0
128129  2  0
129130  1  0
130131  1  0
131132  1  0
130133  1  0
133134  1  0
130135  1  0
135136  1  0
129137  1  0
125138  2  0
138139  1  0
124140  1  0
140141  2  0
141142  1  0
141143  1  0
143144  2  3
144145  1  0
145146  2  0
145147  1  0
147148  2  0
148149  1  0
149150  2  0
150151  1  0
151152  2  0
152153  1  0
153154  2  3
154155  1  0
155156  3  0
154157  1  0
157158  3  0
150159  1  0
159160  1  0
160161  1  0
161162  2  0
162163  1  0
163164  1  0
163165  1  0
 11  2  1  0
 23 17  1  0
 56 24  1  0
102 60  1  0
139107  1  0
153144  1  0
165159  1  0
 10  5  1  0
 22 18  1  0
 55 26  1  0
 69 62  1  0
101 70  2  0
138109  1  0
152147  1  0
164160  1  0
 23  7  1  0
 39 28  1  0
 59 40  1  0
100 72  2  0
122111  1  0
142123  1  0
165149  1  0
 54 43  1  0
 98 73  2  0
137126  1  0
 78 74  2  0
 97 79  2  0
 95 80  2  0
 94 82  2  0
 91 84  1  0
  1166  1  0
  6167  1  0
  9168  1  0
 17169  1  0
 18170  1  0
 19171  1  0
 20172  1  0
 21173  1  0
 22174  1  0
 22175  1  0
 23176  1  0
 25177  1  0
 29178  1  0
 30179  1  0
 33180  1  0
 33181  1  0
 34182  1  0
 34183  1  0
 34184  1  0
 35185  1  0
 35186  1  0
 36187  1  0
 36188  1  0
 36189  1  0
 37190  1  0
 37191  1  0
 38192  1  0
 38193  1  0
 38194  1  0
 44195  1  0
 45196  1  0
 48197  1  0
 48198  1  0
 49199  1  0
 49200  1  0
 49201  1  0
 50202  1  0
 50203  1  0
 51204  1  0
 51205  1  0
 51206  1  0
 52207  1  0
 52208  1  0
 53209  1  0
 53210  1  0
 53211  1  0
 57212  1  0
 63213  1  0
 64214  1  0
 65215  1  0
 67216  1  0
 67217  1  0
 68218  1  0
 68219  1  0
 68220  1  0
 69221  1  0
 85222  1  0
 86223  1  0
 87224  1  0
 89225  1  0
 89226  1  0
 90227  1  0
 90228  1  0
 90229  1  0
 91230  1  0
103231  1  0
103232  1  0
104233  1  0
104234  1  0
104235  1  0
105236  1  0
105237  1  0
106238  1  0
106239  1  0
106240  1  0
108241  1  0
112242  1  0
113243  1  0
116244  1  0
116245  1  0
117246  1  0
117247  1  0
117248  1  0
118249  1  0
118250  1  0
119251  1  0
119252  1  0
119253  1  0
120254  1  0
120255  1  0
121256  1  0
121257  1  0
121258  1  0
127259  1  0
128260  1  0
131261  1  0
131262  1  0
132263  1  0
132264  1  0
132265  1  0
133266  1  0
133267  1  0
134268  1  0
134269  1  0
134270  1  0
135271  1  0
135272  1  0
136273  1  0
136274  1  0
136275  1  0
140276  1  0
143277  1  0
148278  1  0
151279  1  0
159280  1  0
160281  1  0
161282  1  0
162283  1  0
163284  1  0
164285  1  0
164286  1  0
165287  1  0
M  END

