
     RDKit          3D

259289  0  0  0  0  0  0  0  0999 V2000
  -10.7981   -0.3815   -5.5929 C   0  0  0  0  0  0  0  0  0  0  0  0
  -11.4758    0.6683   -5.0875 C   0  0  0  0  0  0  0  0  0  0  0  0
  -10.8562    1.9005   -4.5631 C   0  0  0  0  0  0  0  0  0  0  0  0
   -9.6233    2.1060   -4.3803 O   0  0  0  0  0  0  0  0  0  0  0  0
  -11.8856    2.8796   -4.3293 C   0  0  0  0  0  0  0  0  0  0  0  0
  -11.6936    4.2058   -3.8735 C   0  0  0  0  0  0  0  0  0  0  0  0
  -12.8634    4.9203   -3.7138 C   0  0  0  0  0  0  0  0  0  0  0  0
  -14.1568    4.3647   -3.9761 C   0  0  0  0  0  0  0  0  0  0  0  0
  -14.3525    3.0702   -4.4359 C   0  0  0  0  0  0  0  0  0  0  0  0
  -13.1560    2.3131   -4.6241 C   0  0  0  0  0  0  0  0  0  0  0  0
  -12.9624    0.8919   -5.0661 C   0  0  0  0  0  0  0  0  0  0  0  0
  -13.9326   -0.0548   -5.1972 C   0  0  0  0  0  0  0  0  0  0  0  0
  -13.6317   -1.4565   -5.3525 C   0  0  0  0  0  0  0  0  0  0  0  0
  -13.3986   -2.5869   -5.4726 N   0  0  0  0  0  0  0  0  0  0  0  0
  -15.3365    0.2317   -5.0682 C   0  0  0  0  0  0  0  0  0  0  0  0
  -16.4705    0.4428   -4.9570 N   0  0  0  0  0  0  0  0  0  0  0  0
  -14.8107    5.6414   -3.5422 C   0  0  0  0  0  0  0  0  0  0  0  0
  -15.4762    5.6394   -2.1329 C   0  0  0  0  0  0  0  0  0  0  0  0
  -15.7012    7.0899   -1.7813 C   0  0  0  0  0  0  0  0  0  0  0  0
  -14.4945    7.6197   -1.5598 C   0  0  0  0  0  0  0  0  0  0  0  0
  -13.4938    6.5093   -1.7625 C   0  0  0  0  0  0  0  0  0  0  0  0
  -14.3102    5.3556   -1.1995 C   0  0  0  0  0  0  0  0  0  0  0  0
  -13.4852    6.2174   -3.2909 C   0  0  0  0  0  0  0  0  0  0  0  0
   -9.3853   -0.5930   -5.2646 C   0  0  0  0  0  0  0  0  0  0  0  0
   -8.3108   -0.0341   -5.9581 C   0  0  0  0  0  0  0  0  0  0  0  0
   -7.1586    0.1003   -5.1607 C   0  0  0  0  0  0  0  0  0  0  0  0
   -5.9740    0.7804   -5.5028 C   0  0  0  0  0  0  0  0  0  0  0  0
   -5.6926    1.2700   -6.8704 C   0  0  0  0  0  0  0  0  0  0  0  0
   -4.5499    0.8073   -7.5401 C   0  0  0  0  0  0  0  0  0  0  0  0
   -4.2194    1.3124   -8.8031 C   0  0  0  0  0  0  0  0  0  0  0  0
   -5.0335    2.2752   -9.4101 C   0  0  0  0  0  0  0  0  0  0  0  0
   -4.5708    2.9578  -11.0083 S   0  0  0  0  0  0  0  0  0  0  0  0
   -5.3665    1.6557  -12.0170 C   0  0  0  0  0  0  0  0  0  0  0  0
   -4.3061    0.7913  -12.6860 C   0  0  0  0  0  0  0  0  0  0  0  0
   -6.1843    2.7364   -8.7503 C   0  0  0  0  0  0  0  0  0  0  0  0
   -6.9729    3.6818   -9.3280 F   0  0  0  0  0  0  0  0  0  0  0  0
   -6.5098    2.2413   -7.4814 C   0  0  0  0  0  0  0  0  0  0  0  0
   -5.0543    1.0029   -4.4629 C   0  0  0  0  0  0  0  0  0  0  0  0
   -5.2338    0.5251   -3.1561 C   0  0  0  0  0  0  0  0  0  0  0  0
   -6.3585   -0.2743   -2.8523 C   0  0  0  0  0  0  0  0  0  0  0  0
   -6.5515   -0.9840   -1.5613 C   0  0  0  0  0  0  0  0  0  0  0  0
   -6.5998   -0.2989   -0.3367 C   0  0  0  0  0  0  0  0  0  0  0  0
   -6.9011   -0.9919    0.8440 C   0  0  0  0  0  0  0  0  0  0  0  0
   -7.1766   -2.3677    0.8070 C   0  0  0  0  0  0  0  0  0  0  0  0
   -7.6348   -3.2453    2.3164 S   0  0  0  0  0  0  0  0  0  0  0  0
   -6.0799   -4.2027    2.4337 C   0  0  0  0  0  0  0  0  0  0  0  0
   -6.0062   -4.9278    3.7708 C   0  0  0  0  0  0  0  0  0  0  0  0
   -7.1600   -3.0445   -0.4171 C   0  0  0  0  0  0  0  0  0  0  0  0
   -6.8207   -2.3645   -1.5855 C   0  0  0  0  0  0  0  0  0  0  0  0
   -7.4987   -4.3567   -0.4828 F   0  0  0  0  0  0  0  0  0  0  0  0
   -7.3209   -0.4181   -3.8711 C   0  0  0  0  0  0  0  0  0  0  0  0
   -8.8910   -0.9916   -3.7065 S   0  0  0  0  0  0  0  0  0  0  0  0
   -4.2382    0.9819   -2.2657 C   0  0  0  0  0  0  0  0  0  0  0  0
   -3.3177    1.8535   -2.8676 C   0  0  0  0  0  0  0  0  0  0  0  0
   -3.6917    1.9688   -4.5076 S   0  0  0  0  0  0  0  0  0  0  0  0
   -2.2296    2.5886   -2.1807 C   0  0  0  0  0  0  0  0  0  0  0  0
   -1.3617    3.5621   -2.7394 C   0  0  0  0  0  0  0  0  0  0  0  0
   -1.4756    4.1657   -4.0813 C   0  0  0  0  0  0  0  0  0  0  0  0
   -2.5917    4.9487   -4.4102 C   0  0  0  0  0  0  0  0  0  0  0  0
   -2.7101    5.5042   -5.6846 C   0  0  0  0  0  0  0  0  0  0  0  0
   -1.7011    5.3125   -6.6309 C   0  0  0  0  0  0  0  0  0  0  0  0
   -0.5562    4.5683   -6.3020 C   0  0  0  0  0  0  0  0  0  0  0  0
    0.5296    4.3585   -7.3243 C   0  0  0  0  0  0  0  0  0  0  0  0
    0.2488    3.1184   -8.1653 C   0  0  0  0  0  0  0  0  0  0  0  0
   -0.4524    3.9894   -5.0275 C   0  0  0  0  0  0  0  0  0  0  0  0
   -0.3701    3.9351   -1.8306 C   0  0  0  0  0  0  0  0  0  0  0  0
    1.0336    4.9057   -1.9545 S   0  0  0  0  0  0  0  0  0  0  0  0
    1.4933    4.4807   -0.3793 C   0  0  0  0  0  0  0  0  0  0  0  0
    2.5333    4.6428    0.4977 C   0  0  0  0  0  0  0  0  0  0  0  0
    3.7105    5.3927    0.4408 C   0  0  0  0  0  0  0  0  0  0  0  0
    4.6317    5.2976    1.5315 C   0  0  0  0  0  0  0  0  0  0  0  0
    5.7780    6.0120    1.4202 N   0  0  0  0  0  0  0  0  0  0  0  0
    5.5258    6.7313   -0.0521 S   0  0  0  0  0  0  0  0  0  0  0  0
    4.0535    6.1988   -0.5916 N   0  0  0  0  0  0  0  0  0  0  0  0
    4.3482    4.4212    2.5920 C   0  0  0  0  0  0  0  0  0  0  0  0
    5.2101    3.8526    3.4959 C   0  0  0  0  0  0  0  0  0  0  0  0
    6.9038    3.7803    3.5447 S   0  0  0  0  0  0  0  0  0  0  0  0
    6.9121    2.1890    4.1402 C   0  0  0  0  0  0  0  0  0  0  0  0
    7.9088    1.1887    4.1890 C   0  0  0  0  0  0  0  0  0  0  0  0
    9.3714    1.4284    4.0813 C   0  0  0  0  0  0  0  0  0  0  0  0
    9.8921    2.4149    3.2227 C   0  0  0  0  0  0  0  0  0  0  0  0
   11.2623    2.6882    3.2006 C   0  0  0  0  0  0  0  0  0  0  0  0
   12.1353    1.9535    3.9990 C   0  0  0  0  0  0  0  0  0  0  0  0
   11.6441    0.9342    4.8245 C   0  0  0  0  0  0  0  0  0  0  0  0
   12.5915    0.1244    5.6678 C   0  0  0  0  0  0  0  0  0  0  0  0
   12.8299    0.7958    7.0171 C   0  0  0  0  0  0  0  0  0  0  0  0
   10.2624    0.6925    4.8828 C   0  0  0  0  0  0  0  0  0  0  0  0
    7.3230   -0.0841    4.3818 C   0  0  0  0  0  0  0  0  0  0  0  0
    5.6350    0.0890    4.4810 S   0  0  0  0  0  0  0  0  0  0  0  0
    5.6182    1.7452    4.2832 C   0  0  0  0  0  0  0  0  0  0  0  0
    4.6459    2.6760    3.8976 C   0  0  0  0  0  0  0  0  0  0  0  0
    3.4107    2.4816    3.3483 N   0  0  0  0  0  0  0  0  0  0  0  0
    3.2048    3.6073    2.5891 C   0  0  0  0  0  0  0  0  0  0  0  0
    2.2254    3.8189    1.5887 C   0  0  0  0  0  0  0  0  0  0  0  0
    0.9818    3.2707    1.4579 N   0  0  0  0  0  0  0  0  0  0  0  0
    0.6033    3.6494    0.2179 C   0  0  0  0  0  0  0  0  0  0  0  0
   -0.4657    3.3385   -0.6026 C   0  0  0  0  0  0  0  0  0  0  0  0
   -1.7561    2.2714   -0.5689 S   0  0  0  0  0  0  0  0  0  0  0  0
    0.0652    2.9208    2.5558 C   0  0  0  0  0  0  0  0  0  0  0  0
   -0.9561    4.0361    2.7988 C   0  0  0  0  0  0  0  0  0  0  0  0
    2.8276    1.1522    3.0960 C   0  0  0  0  0  0  0  0  0  0  0  0
    2.2321    0.5410    4.3645 C   0  0  0  0  0  0  0  0  0  0  0  0
    7.8821   -1.4067    4.0355 C   0  0  0  0  0  0  0  0  0  0  0  0
    8.1993   -1.7731    2.7067 C   0  0  0  0  0  0  0  0  0  0  0  0
    8.7843   -0.8947    1.7277 N   0  0  0  0  0  0  0  0  0  0  0  0
   10.2307   -0.7442    1.6839 C   0  0  0  0  0  0  0  0  0  0  0  0
   11.0758   -1.5725    2.4571 C   0  0  0  0  0  0  0  0  0  0  0  0
   12.4611   -1.3877    2.4468 C   0  0  0  0  0  0  0  0  0  0  0  0
   13.0385   -0.3877    1.6563 C   0  0  0  0  0  0  0  0  0  0  0  0
   14.5178   -0.1434    1.7108 C   0  0  0  0  0  0  0  0  0  0  0  0
   12.2116    0.4395    0.8862 C   0  0  0  0  0  0  0  0  0  0  0  0
   10.8241    0.2653    0.8982 C   0  0  0  0  0  0  0  0  0  0  0  0
    7.9632   -0.4691    0.6179 C   0  0  0  0  0  0  0  0  0  0  0  0
    8.2926   -0.8433   -0.6973 C   0  0  0  0  0  0  0  0  0  0  0  0
    7.5008   -0.4210   -1.7713 C   0  0  0  0  0  0  0  0  0  0  0  0
    6.3625    0.3679   -1.5410 C   0  0  0  0  0  0  0  0  0  0  0  0
    5.5438    0.8751   -2.6924 C   0  0  0  0  0  0  0  0  0  0  0  0
    6.0340    0.7449   -0.2330 C   0  0  0  0  0  0  0  0  0  0  0  0
    6.8213    0.3164    0.8381 C   0  0  0  0  0  0  0  0  0  0  0  0
    7.8458   -3.0949    2.4226 C   0  0  0  0  0  0  0  0  0  0  0  0
    7.3786   -3.8193    0.9773 S   0  0  0  0  0  0  0  0  0  0  0  0
    6.4098   -5.0126    1.7170 C   0  0  0  0  0  0  0  0  0  0  0  0
    6.4971   -4.8616    3.1094 C   0  0  0  0  0  0  0  0  0  0  0  0
    5.8507   -5.7113    4.0772 N   0  0  0  0  0  0  0  0  0  0  0  0
    6.6581   -6.3648    5.0845 C   0  0  0  0  0  0  0  0  0  0  0  0
    7.9840   -6.7406    4.8002 C   0  0  0  0  0  0  0  0  0  0  0  0
    8.7765   -7.3474    5.7758 C   0  0  0  0  0  0  0  0  0  0  0  0
    8.2649   -7.5802    7.0597 C   0  0  0  0  0  0  0  0  0  0  0  0
    9.1091   -8.2668    8.0911 C   0  0  0  0  0  0  0  0  0  0  0  0
    6.9380   -7.2290    7.3459 C   0  0  0  0  0  0  0  0  0  0  0  0
    6.1413   -6.6215    6.3690 C   0  0  0  0  0  0  0  0  0  0  0  0
    4.4301   -5.9332    4.0267 C   0  0  0  0  0  0  0  0  0  0  0  0
    3.9304   -7.2348    3.8749 C   0  0  0  0  0  0  0  0  0  0  0  0
    2.5506   -7.4640    3.8606 C   0  0  0  0  0  0  0  0  0  0  0  0
    1.6553   -6.3960    4.0098 C   0  0  0  0  0  0  0  0  0  0  0  0
    0.1753   -6.6595    4.0020 C   0  0  0  0  0  0  0  0  0  0  0  0
    2.1550   -5.0939    4.1765 C   0  0  0  0  0  0  0  0  0  0  0  0
    3.5360   -4.8628    4.1749 C   0  0  0  0  0  0  0  0  0  0  0  0
    7.3077   -3.7848    3.4636 C   0  0  0  0  0  0  0  0  0  0  0  0
    7.2310   -2.7868    4.8006 S   0  0  0  0  0  0  0  0  0  0  0  0
    5.2941   -5.6929    1.0383 C   0  0  0  0  0  0  0  0  0  0  0  0
    4.1419   -5.0467    0.7429 C   0  0  0  0  0  0  0  0  0  0  0  0
    3.8795   -3.6324    1.0414 C   0  0  0  0  0  0  0  0  0  0  0  0
    4.7283   -2.7131    1.1874 O   0  0  0  0  0  0  0  0  0  0  0  0
    2.4683   -3.4416    1.1785 C   0  0  0  0  0  0  0  0  0  0  0  0
    1.8514   -2.2806    1.6764 C   0  0  0  0  0  0  0  0  0  0  0  0
    0.5030   -2.4162    1.8807 C   0  0  0  0  0  0  0  0  0  0  0  0
   -0.2336   -3.6072    1.5900 C   0  0  0  0  0  0  0  0  0  0  0  0
    0.3725   -4.7574    1.0881 C   0  0  0  0  0  0  0  0  0  0  0  0
    1.7839   -4.6472    0.8908 C   0  0  0  0  0  0  0  0  0  0  0  0
    2.7983   -5.6713    0.4948 C   0  0  0  0  0  0  0  0  0  0  0  0
    2.5657   -6.8550   -0.1244 C   0  0  0  0  0  0  0  0  0  0  0  0
    1.2369   -7.3489   -0.3706 C   0  0  0  0  0  0  0  0  0  0  0  0
    0.1733   -7.7612   -0.5752 N   0  0  0  0  0  0  0  0  0  0  0  0
    3.6322   -7.6331   -0.6954 C   0  0  0  0  0  0  0  0  0  0  0  0
    4.4867   -8.2606   -1.1649 N   0  0  0  0  0  0  0  0  0  0  0  0
   -1.5060   -2.9400    2.0584 C   0  0  0  0  0  0  0  0  0  0  0  0
   -2.5145   -2.4538    0.9740 C   0  0  0  0  0  0  0  0  0  0  0  0
   -3.4071   -1.4289    1.6421 C   0  0  0  0  0  0  0  0  0  0  0  0
   -2.6615   -0.3456    1.8642 C   0  0  0  0  0  0  0  0  0  0  0  0
   -1.2870   -0.6770    1.3542 C   0  0  0  0  0  0  0  0  0  0  0  0
   -1.6778   -1.5032    0.1417 C   0  0  0  0  0  0  0  0  0  0  0  0
   -0.7266   -1.7311    2.3428 C   0  0  0  0  0  0  0  0  0  0  0  0
  -11.2873   -1.1495   -6.1701 H   0  0  0  0  0  0  0  0  0  0  0  0
  -10.7185    4.6274   -3.6561 H   0  0  0  0  0  0  0  0  0  0  0  0
  -15.3480    2.7147   -4.6262 H   0  0  0  0  0  0  0  0  0  0  0  0
  -15.3936    6.1402   -4.3494 H   0  0  0  0  0  0  0  0  0  0  0  0
  -16.3604    4.9801   -2.0158 H   0  0  0  0  0  0  0  0  0  0  0  0
  -16.6531    7.5933   -1.6451 H   0  0  0  0  0  0  0  0  0  0  0  0
  -14.2985    8.6302   -1.2180 H   0  0  0  0  0  0  0  0  0  0  0  0
  -12.4995    6.6805   -1.2965 H   0  0  0  0  0  0  0  0  0  0  0  0
  -13.8531    4.3527   -1.3389 H   0  0  0  0  0  0  0  0  0  0  0  0
  -14.5652    5.4808   -0.1191 H   0  0  0  0  0  0  0  0  0  0  0  0
  -13.2301    7.0800   -3.9477 H   0  0  0  0  0  0  0  0  0  0  0  0
   -8.4080    0.3787   -6.9515 H   0  0  0  0  0  0  0  0  0  0  0  0
   -3.9040    0.0693   -7.0783 H   0  0  0  0  0  0  0  0  0  0  0  0
   -3.3260    0.9591   -9.3064 H   0  0  0  0  0  0  0  0  0  0  0  0
   -5.9728    2.1503  -12.8052 H   0  0  0  0  0  0  0  0  0  0  0  0
   -6.0438    1.0134  -11.4148 H   0  0  0  0  0  0  0  0  0  0  0  0
   -3.6065    1.4275  -13.2689 H   0  0  0  0  0  0  0  0  0  0  0  0
   -3.7388    0.2175  -11.9237 H   0  0  0  0  0  0  0  0  0  0  0  0
   -4.7896    0.0703  -13.3797 H   0  0  0  0  0  0  0  0  0  0  0  0
   -7.3825    2.6317   -6.9668 H   0  0  0  0  0  0  0  0  0  0  0  0
   -6.4391    0.7704   -0.2999 H   0  0  0  0  0  0  0  0  0  0  0  0
   -6.9461   -0.4545    1.7843 H   0  0  0  0  0  0  0  0  0  0  0  0
   -6.0349   -4.9511    1.6135 H   0  0  0  0  0  0  0  0  0  0  0  0
   -5.2032   -3.5365    2.3474 H   0  0  0  0  0  0  0  0  0  0  0  0
   -6.8635   -5.6285    3.8809 H   0  0  0  0  0  0  0  0  0  0  0  0
   -5.0600   -5.5112    3.8229 H   0  0  0  0  0  0  0  0  0  0  0  0
   -6.0191   -4.1906    4.6034 H   0  0  0  0  0  0  0  0  0  0  0  0
   -6.8158   -2.9040   -2.5280 H   0  0  0  0  0  0  0  0  0  0  0  0
   -4.2090    0.7350   -1.2158 H   0  0  0  0  0  0  0  0  0  0  0  0
   -3.3788    5.1061   -3.6845 H   0  0  0  0  0  0  0  0  0  0  0  0
   -3.5848    6.0889   -5.9406 H   0  0  0  0  0  0  0  0  0  0  0  0
   -1.8087    5.7449   -7.6174 H   0  0  0  0  0  0  0  0  0  0  0  0
    0.5994    5.2443   -7.9933 H   0  0  0  0  0  0  0  0  0  0  0  0
    1.5128    4.2487   -6.8214 H   0  0  0  0  0  0  0  0  0  0  0  0
    1.0761    2.9751   -8.8935 H   0  0  0  0  0  0  0  0  0  0  0  0
    0.1828    2.2177   -7.5184 H   0  0  0  0  0  0  0  0  0  0  0  0
   -0.7028    3.2417   -8.7243 H   0  0  0  0  0  0  0  0  0  0  0  0
    0.4203    3.3952   -4.7719 H   0  0  0  0  0  0  0  0  0  0  0  0
    9.2517    2.9619    2.5461 H   0  0  0  0  0  0  0  0  0  0  0  0
   11.6494    3.4574    2.5412 H   0  0  0  0  0  0  0  0  0  0  0  0
   13.1966    2.1668    3.9591 H   0  0  0  0  0  0  0  0  0  0  0  0
   12.1860   -0.8984    5.8317 H   0  0  0  0  0  0  0  0  0  0  0  0
   13.5645    0.0115    5.1423 H   0  0  0  0  0  0  0  0  0  0  0  0
   13.2233    1.8240    6.8726 H   0  0  0  0  0  0  0  0  0  0  0  0
   11.8871    0.8421    7.5988 H   0  0  0  0  0  0  0  0  0  0  0  0
   13.5698    0.2059    7.5911 H   0  0  0  0  0  0  0  0  0  0  0  0
    9.8854   -0.0661    5.5579 H   0  0  0  0  0  0  0  0  0  0  0  0
    0.6363    2.7908    3.4949 H   0  0  0  0  0  0  0  0  0  0  0  0
   -0.4764    1.9877    2.3203 H   0  0  0  0  0  0  0  0  0  0  0  0
   -1.6567    4.1113    1.9434 H   0  0  0  0  0  0  0  0  0  0  0  0
   -0.4438    5.0106    2.9358 H   0  0  0  0  0  0  0  0  0  0  0  0
   -1.5477    3.8019    3.7099 H   0  0  0  0  0  0  0  0  0  0  0  0
    2.0536    1.1763    2.3047 H   0  0  0  0  0  0  0  0  0  0  0  0
    3.6139    0.4791    2.6967 H   0  0  0  0  0  0  0  0  0  0  0  0
    2.9785    0.5006    5.1842 H   0  0  0  0  0  0  0  0  0  0  0  0
    1.3608    1.1203    4.7246 H   0  0  0  0  0  0  0  0  0  0  0  0
    1.8889   -0.4954    4.1506 H   0  0  0  0  0  0  0  0  0  0  0  0
   10.6728   -2.3597    3.0827 H   0  0  0  0  0  0  0  0  0  0  0  0
   13.0824   -2.0175    3.0739 H   0  0  0  0  0  0  0  0  0  0  0  0
   15.0681   -1.0928    1.8816 H   0  0  0  0  0  0  0  0  0  0  0  0
   14.8805    0.2960    0.7567 H   0  0  0  0  0  0  0  0  0  0  0  0
   14.7479    0.5576    2.5408 H   0  0  0  0  0  0  0  0  0  0  0  0
   12.6420    1.2417    0.2982 H   0  0  0  0  0  0  0  0  0  0  0  0
   10.2164    0.9460    0.3164 H   0  0  0  0  0  0  0  0  0  0  0  0
    9.1643   -1.4600   -0.8883 H   0  0  0  0  0  0  0  0  0  0  0  0
    7.7761   -0.7104   -2.7791 H   0  0  0  0  0  0  0  0  0  0  0  0
    5.5817    0.1689   -3.5488 H   0  0  0  0  0  0  0  0  0  0  0  0
    4.4819    0.9967   -2.3904 H   0  0  0  0  0  0  0  0  0  0  0  0
    5.9380    1.8599   -3.0181 H   0  0  0  0  0  0  0  0  0  0  0  0
    5.1701    1.3708   -0.0429 H   0  0  0  0  0  0  0  0  0  0  0  0
    6.5493    0.6240    1.8293 H   0  0  0  0  0  0  0  0  0  0  0  0
    8.4088   -6.5660    3.8188 H   0  0  0  0  0  0  0  0  0  0  0  0
    9.7929   -7.6304    5.5279 H   0  0  0  0  0  0  0  0  0  0  0  0
    8.8241   -7.9356    9.1114 H   0  0  0  0  0  0  0  0  0  0  0  0
    8.9670   -9.3649    8.0094 H   0  0  0  0  0  0  0  0  0  0  0  0
   10.1855   -8.0290    7.9405 H   0  0  0  0  0  0  0  0  0  0  0  0
    6.5225   -7.4167    8.3276 H   0  0  0  0  0  0  0  0  0  0  0  0
    5.1303   -6.3323    6.6231 H   0  0  0  0  0  0  0  0  0  0  0  0
    4.6113   -8.0726    3.7730 H   0  0  0  0  0  0  0  0  0  0  0  0
    2.1802   -8.4763    3.7414 H   0  0  0  0  0  0  0  0  0  0  0  0
   -0.0957   -7.2989    4.8701 H   0  0  0  0  0  0  0  0  0  0  0  0
   -0.4102   -5.7186    4.0597 H   0  0  0  0  0  0  0  0  0  0  0  0
   -0.1062   -7.1909    3.0666 H   0  0  0  0  0  0  0  0  0  0  0  0
    1.4769   -4.2575    4.2998 H   0  0  0  0  0  0  0  0  0  0  0  0
    3.9100   -3.8557    4.3104 H   0  0  0  0  0  0  0  0  0  0  0  0
    5.3245   -6.7675    1.0298 H   0  0  0  0  0  0  0  0  0  0  0  0
    2.3910   -1.3847    1.9186 H   0  0  0  0  0  0  0  0  0  0  0  0
   -0.1976   -5.6557    0.9334 H   0  0  0  0  0  0  0  0  0  0  0  0
   -1.9603   -3.4154    2.9559 H   0  0  0  0  0  0  0  0  0  0  0  0
   -3.0492   -3.2467    0.4165 H   0  0  0  0  0  0  0  0  0  0  0  0
   -4.4668   -1.4927    1.8323 H   0  0  0  0  0  0  0  0  0  0  0  0
   -3.0066    0.5938    2.2803 H   0  0  0  0  0  0  0  0  0  0  0  0
   -0.6161    0.1714    1.1366 H   0  0  0  0  0  0  0  0  0  0  0  0
   -0.8210   -1.9816   -0.3806 H   0  0  0  0  0  0  0  0  0  0  0  0
   -2.2714   -0.9307   -0.6080 H   0  0  0  0  0  0  0  0  0  0  0  0
   -0.6872   -1.4312    3.4157 H   0  0  0  0  0  0  0  0  0  0  0  0
  1  2  2  3
  2  3  1  0
  3  4  2  0
  3  5  1  0
  5  6  2  0
  6  7  1  0
  7  8  2  0
  8  9  1  0
  9 10  2  0
 10 11  1  0
 11 12  2  3
 12 13  1  0
 13 14  3  0
 12 15  1  0
 15 16  3  0
  8 17  1  0
 17 18  1  0
 18 19  1  0
 19 20  2  0
 20 21  1  0
 21 22  1  0
 21 23  1  0
  1 24  1  0
 24 25  2  0
 25 26  1  0
 26 27  2  0
 27 28  1  0
 28 29  2  0
 29 30  1  0
 30 31  2  0
 31 32  1  0
 32 33  1  0
 33 34  1  0
 31 35  1  0
 35 36  1  0
 35 37  2  0
 27 38  1  0
 38 39  2  0
 39 40  1  0
 40 41  1  0
 41 42  2  0
 42 43  1  0
 43 44  2  0
 44 45  1  0
 45 46  1  0
 46 47  1  0
 44 48  1  0
 48 49  2  0
 48 50  1  0
 40 51  2  0
 51 52  1  0
 39 53  1  0
 53 54  2  0
 54 55  1  0
 54 56  1  0
 56 57  2  0
 57 58  1  0
 58 59  2  0
 59 60  1  0
 60 61  2  0
 61 62  1  0
 62 63  1  0
 63 64  1  0
 62 65  2  0
 57 66  1  0
 66 67  1  0
 67 68  1  0
 68 69  1  0
 69 70  1  0
 70 71  1  0
 71 72  2  0
 72 73  1  0
 73 74  1  0
 71 75  1  0
 75 76  1  0
 76 77  1  0
 77 78  1  0
 78 79  1  0
 79 80  1  0
 80 81  2  0
 81 82  1  0
 82 83  2  0
 83 84  1  0
 84 85  1  0
 85 86  1  0
 84 87  2  0
 79 88  2  0
 88 89  1  0
 89 90  1  0
 90 91  1  0
 91 92  1  0
 92 93  1  0
 93 94  1  0
 94 95  1  0
 95 96  1  0
 96 97  1  0
 97 98  1  0
 95 99  1  0
 99100  1  0
 92101  1  0
101102  1  0
 88103  1  0
103104  2  0
104105  1  0
105106  1  0
106107  2  0
107108  1  0
108109  2  0
109110  1  0
109111  1  0
111112  2  0
105113  1  0
113114  2  0
114115  1  0
115116  2  0
116117  1  0
116118  1  0
118119  2  0
104120  1  0
120121  1  0
121122  1  0
122123  2  0
123124  1  0
124125  1  0
125126  2  0
126127  1  0
127128  2  0
128129  1  0
128130  1  0
130131  2  0
124132  1  0
132133  2  0
133134  1  0
134135  2  0
135136  1  0
135137  1  0
137138  2  0
123139  1  0
139140  1  0
122141  1  0
141142  2  3
142143  1  0
143144  2  0
143145  1  0
145146  2  0
146147  1  0
147148  2  0
148149  1  0
149150  2  0
150151  1  0
151152  2  3
152153  1  0
153154  3  0
152155  1  0
155156  3  0
148157  1  0
157158  1  0
158159  1  0
159160  2  0
160161  1  0
161162  1  0
161163  1  0
 11  2  1  0
 23 17  1  0
 52 24  1  0
 98 56  1  0
140103  1  0
151142  1  0
163157  1  0
 10  5  1  0
 22 18  1  0
 51 26  1  0
 65 58  1  0
 97 66  2  0
112106  1  0
119113  1  0
139120  2  0
150145  1  0
162158  1  0
 23  7  1  0
 37 28  1  0
 55 38  1  0
 96 68  2  0
131125  1  0
138132  1  0
163147  1  0
 49 41  1  0
 94 69  2  0
 74 70  2  0
 93 75  2  0
 91 76  2  0
 90 78  2  0
 87 80  1  0
  1164  1  0
  6165  1  0
  9166  1  0
 17167  1  0
 18168  1  0
 19169  1  0
 20170  1  0
 21171  1  0
 22172  1  0
 22173  1  0
 23174  1  0
 25175  1  0
 29176  1  0
 30177  1  0
 33178  1  0
 33179  1  0
 34180  1  0
 34181  1  0
 34182  1  0
 37183  1  0
 42184  1  0
 43185  1  0
 46186  1  0
 46187  1  0
 47188  1  0
 47189  1  0
 47190  1  0
 49191  1  0
 53192  1  0
 59193  1  0
 60194  1  0
 61195  1  0
 63196  1  0
 63197  1  0
 64198  1  0
 64199  1  0
 64200  1  0
 65201  1  0
 81202  1  0
 82203  1  0
 83204  1  0
 85205  1  0
 85206  1  0
 86207  1  0
 86208  1  0
 86209  1  0
 87210  1  0
 99211  1  0
 99212  1  0
100213  1  0
100214  1  0
100215  1  0
101216  1  0
101217  1  0
102218  1  0
102219  1  0
102220  1  0
107221  1  0
108222  1  0
110223  1  0
110224  1  0
110225  1  0
111226  1  0
112227  1  0
114228  1  0
115229  1  0
117230  1  0
117231  1  0
117232  1  0
118233  1  0
119234  1  0
126235  1  0
127236  1  0
129237  1  0
129238  1  0
129239  1  0
130240  1  0
131241  1  0
133242  1  0
134243  1  0
136244  1  0
136245  1  0
136246  1  0
137247  1  0
138248  1  0
141249  1  0
146250  1  0
149251  1  0
157252  1  0
158253  1  0
159254  1  0
160255  1  0
161256  1  0
162257  1  0
162258  1  0
163259  1  0
M  END

