
     RDKit          3D

277307  0  0  0  0  0  0  0  0999 V2000
   -4.6125   -3.6884    9.6454 C   0  0  0  0  0  0  0  0  0  0  0  0
   -4.8839   -4.1797    8.4154 C   0  0  0  0  0  0  0  0  0  0  0  0
   -4.0649   -3.8657    7.2361 C   0  0  0  0  0  0  0  0  0  0  0  0
   -2.8231   -3.6575    7.2169 O   0  0  0  0  0  0  0  0  0  0  0  0
   -4.9037   -3.8638    6.0729 C   0  0  0  0  0  0  0  0  0  0  0  0
   -4.5247   -3.4992    4.7662 C   0  0  0  0  0  0  0  0  0  0  0  0
   -5.5648   -3.5185    3.8551 C   0  0  0  0  0  0  0  0  0  0  0  0
   -6.9038   -3.8624    4.2092 C   0  0  0  0  0  0  0  0  0  0  0  0
   -7.2781   -4.2510    5.4862 C   0  0  0  0  0  0  0  0  0  0  0  0
   -6.2208   -4.2309    6.4478 C   0  0  0  0  0  0  0  0  0  0  0  0
   -6.2502   -4.5335    7.9093 C   0  0  0  0  0  0  0  0  0  0  0  0
   -7.2778   -5.0482    8.6335 C   0  0  0  0  0  0  0  0  0  0  0  0
   -8.6327   -5.1094    8.1339 C   0  0  0  0  0  0  0  0  0  0  0  0
   -9.7236   -5.1138    7.7745 N   0  0  0  0  0  0  0  0  0  0  0  0
   -7.0929   -5.5322    9.9716 C   0  0  0  0  0  0  0  0  0  0  0  0
   -6.9622   -5.9233   11.0629 N   0  0  0  0  0  0  0  0  0  0  0  0
   -7.3689   -3.5433    2.8205 C   0  0  0  0  0  0  0  0  0  0  0  0
   -8.1212   -2.1935    2.6214 C   0  0  0  0  0  0  0  0  0  0  0  0
   -7.5993   -1.1523    3.5960 C   0  0  0  0  0  0  0  0  0  0  0  0
   -6.3591   -0.8527    3.2062 C   0  0  0  0  0  0  0  0  0  0  0  0
   -6.0624   -1.7192    2.0040 C   0  0  0  0  0  0  0  0  0  0  0  0
   -7.4365   -1.6994    1.3577 C   0  0  0  0  0  0  0  0  0  0  0  0
   -5.9891   -3.2189    2.4407 C   0  0  0  0  0  0  0  0  0  0  0  0
   -3.7276   -2.5095    9.7629 C   0  0  0  0  0  0  0  0  0  0  0  0
   -4.1231   -1.2738    9.2400 C   0  0  0  0  0  0  0  0  0  0  0  0
   -3.0535   -0.4151    9.0142 C   0  0  0  0  0  0  0  0  0  0  0  0
   -3.1575    0.8646    8.4013 C   0  0  0  0  0  0  0  0  0  0  0  0
   -4.4818    1.4897    8.2003 C   0  0  0  0  0  0  0  0  0  0  0  0
   -4.8670    2.0310    6.9688 C   0  0  0  0  0  0  0  0  0  0  0  0
   -6.1073    2.6625    6.8266 C   0  0  0  0  0  0  0  0  0  0  0  0
   -6.9371    2.8154    7.9471 C   0  0  0  0  0  0  0  0  0  0  0  0
   -8.4655    3.7772    7.8223 S   0  0  0  0  0  0  0  0  0  0  0  0
   -9.5182    2.4065    7.2185 C   0  0  0  0  0  0  0  0  0  0  0  0
  -10.3461    2.8768    6.0310 C   0  0  0  0  0  0  0  0  0  0  0  0
   -6.5480    2.2891    9.1845 C   0  0  0  0  0  0  0  0  0  0  0  0
   -7.3282    2.4464   10.2795 F   0  0  0  0  0  0  0  0  0  0  0  0
   -5.3260    1.6386    9.3169 C   0  0  0  0  0  0  0  0  0  0  0  0
   -1.9460    1.4860    8.0400 C   0  0  0  0  0  0  0  0  0  0  0  0
   -0.6918    0.9189    8.3291 C   0  0  0  0  0  0  0  0  0  0  0  0
   -0.6024   -0.3194    9.0021 C   0  0  0  0  0  0  0  0  0  0  0  0
    0.7124   -0.8800    9.3864 C   0  0  0  0  0  0  0  0  0  0  0  0
    1.5826   -0.1337   10.1875 C   0  0  0  0  0  0  0  0  0  0  0  0
    2.8424   -0.6270   10.5228 C   0  0  0  0  0  0  0  0  0  0  0  0
    3.2493   -1.8825   10.0575 C   0  0  0  0  0  0  0  0  0  0  0  0
    4.8856   -2.4936   10.4782 S   0  0  0  0  0  0  0  0  0  0  0  0
    5.6831   -1.9536    8.9180 C   0  0  0  0  0  0  0  0  0  0  0  0
    5.7840   -0.4346    8.8211 C   0  0  0  0  0  0  0  0  0  0  0  0
    2.3747   -2.6542    9.2769 C   0  0  0  0  0  0  0  0  0  0  0  0
    1.1133   -2.1480    8.9368 C   0  0  0  0  0  0  0  0  0  0  0  0
    2.7394   -3.8966    8.8466 F   0  0  0  0  0  0  0  0  0  0  0  0
   -1.8116   -0.9686    9.3193 C   0  0  0  0  0  0  0  0  0  0  0  0
   -2.0469   -2.5354    9.9237 S   0  0  0  0  0  0  0  0  0  0  0  0
    0.3764    1.6652    7.8042 C   0  0  0  0  0  0  0  0  0  0  0  0
   -0.0066    2.8294    7.1471 C   0  0  0  0  0  0  0  0  0  0  0  0
   -1.6985    2.9223    7.1873 S   0  0  0  0  0  0  0  0  0  0  0  0
    0.8491    3.5782    6.2069 C   0  0  0  0  0  0  0  0  0  0  0  0
    0.6005    4.8583    5.7019 C   0  0  0  0  0  0  0  0  0  0  0  0
    1.4398    5.1535    4.6276 C   0  0  0  0  0  0  0  0  0  0  0  0
    1.2539    6.2524    3.3504 S   0  0  0  0  0  0  0  0  0  0  0  0
    2.3270    5.4058    2.3294 C   0  0  0  0  0  0  0  0  0  0  0  0
    2.2637    5.1921    0.8922 C   0  0  0  0  0  0  0  0  0  0  0  0
    1.4311    5.8392   -0.0307 C   0  0  0  0  0  0  0  0  0  0  0  0
    1.1204    5.1444   -1.2295 C   0  0  0  0  0  0  0  0  0  0  0  0
   -0.1883    5.2552   -2.0604 C   0  0  0  0  0  0  0  0  0  0  0  0
   -0.3057    6.5359   -2.9389 C   0  0  0  0  0  0  0  0  0  0  0  0
   -1.4985    7.3035   -3.0141 C   0  0  0  0  0  0  0  0  0  0  0  0
   -1.8538    7.9314   -4.2105 C   0  0  0  0  0  0  0  0  0  0  0  0
   -0.9985    7.8907   -5.3307 C   0  0  0  0  0  0  0  0  0  0  0  0
   -1.4993    8.2585   -6.6985 C   0  0  0  0  0  0  0  0  0  0  0  0
   -2.3504    9.5396   -6.7116 C   0  0  0  0  0  0  0  0  0  0  0  0
    0.2573    7.2700   -5.2072 C   0  0  0  0  0  0  0  0  0  0  0  0
    0.6166    6.6574   -4.0020 C   0  0  0  0  0  0  0  0  0  0  0  0
   -1.3654    4.9841   -1.0784 C   0  0  0  0  0  0  0  0  0  0  0  0
   -1.9317    3.6920   -0.9288 C   0  0  0  0  0  0  0  0  0  0  0  0
   -2.9012    3.4375    0.0378 C   0  0  0  0  0  0  0  0  0  0  0  0
   -3.3470    4.4661    0.8734 C   0  0  0  0  0  0  0  0  0  0  0  0
   -4.4492    4.2079    1.8761 C   0  0  0  0  0  0  0  0  0  0  0  0
   -3.9335    4.2156    3.3144 C   0  0  0  0  0  0  0  0  0  0  0  0
   -2.7468    5.7299    0.7885 C   0  0  0  0  0  0  0  0  0  0  0  0
   -1.7572    5.9813   -0.1602 C   0  0  0  0  0  0  0  0  0  0  0  0
    0.0424    4.0725   -3.0126 C   0  0  0  0  0  0  0  0  0  0  0  0
    1.1343    3.3674   -2.6527 C   0  0  0  0  0  0  0  0  0  0  0  0
    1.7802    3.9427   -1.5222 C   0  0  0  0  0  0  0  0  0  0  0  0
    2.6088    3.3042   -0.6059 C   0  0  0  0  0  0  0  0  0  0  0  0
    2.7788    3.9197    0.6415 C   0  0  0  0  0  0  0  0  0  0  0  0
    3.0970    3.1749    1.9330 C   0  0  0  0  0  0  0  0  0  0  0  0
    2.0911    1.9924    2.0149 C   0  0  0  0  0  0  0  0  0  0  0  0
    0.7256    2.2528    2.3072 C   0  0  0  0  0  0  0  0  0  0  0  0
   -0.1894    1.2181    2.3814 C   0  0  0  0  0  0  0  0  0  0  0  0
    0.1969   -0.0986    2.1225 C   0  0  0  0  0  0  0  0  0  0  0  0
   -0.8005   -1.2209    2.2645 C   0  0  0  0  0  0  0  0  0  0  0  0
   -1.1886   -1.7965    0.9042 C   0  0  0  0  0  0  0  0  0  0  0  0
    1.5157   -0.3590    1.6907 C   0  0  0  0  0  0  0  0  0  0  0  0
    2.4378    0.6842    1.6168 C   0  0  0  0  0  0  0  0  0  0  0  0
    4.5738    2.8021    2.0837 C   0  0  0  0  0  0  0  0  0  0  0  0
    5.5815    3.5215    1.4141 C   0  0  0  0  0  0  0  0  0  0  0  0
    6.9302    3.2423    1.6165 C   0  0  0  0  0  0  0  0  0  0  0  0
    7.3036    2.2042    2.4925 C   0  0  0  0  0  0  0  0  0  0  0  0
    8.7546    1.8652    2.6776 C   0  0  0  0  0  0  0  0  0  0  0  0
    9.2864    1.0763    1.4850 C   0  0  0  0  0  0  0  0  0  0  0  0
    6.3106    1.5032    3.1828 C   0  0  0  0  0  0  0  0  0  0  0  0
    4.9657    1.8079    3.0053 C   0  0  0  0  0  0  0  0  0  0  0  0
    2.7857    4.2609    2.9530 C   0  0  0  0  0  0  0  0  0  0  0  0
    2.3156    4.1643    4.2711 C   0  0  0  0  0  0  0  0  0  0  0  0
    2.0785    2.8453    5.2806 S   0  0  0  0  0  0  0  0  0  0  0  0
    1.3396    1.9974   -3.5766 S   0  0  0  0  0  0  0  0  0  0  0  0
    0.0042    2.3449   -4.5781 C   0  0  0  0  0  0  0  0  0  0  0  0
   -0.6377    3.5015   -4.1093 C   0  0  0  0  0  0  0  0  0  0  0  0
   -0.5850    1.3381   -5.4639 C   0  0  0  0  0  0  0  0  0  0  0  0
   -0.0834    0.9650   -6.7415 C   0  0  0  0  0  0  0  0  0  0  0  0
    0.6835    1.8095   -7.6299 N   0  0  0  0  0  0  0  0  0  0  0  0
    1.9601    2.2843   -7.1512 C   0  0  0  0  0  0  0  0  0  0  0  0
    2.8917    1.3703   -6.6290 C   0  0  0  0  0  0  0  0  0  0  0  0
    4.1274    1.8196   -6.1607 C   0  0  0  0  0  0  0  0  0  0  0  0
    4.4414    3.1845   -6.1940 C   0  0  0  0  0  0  0  0  0  0  0  0
    5.7849    3.6505   -5.7305 C   0  0  0  0  0  0  0  0  0  0  0  0
    3.5168    4.0986   -6.7283 C   0  0  0  0  0  0  0  0  0  0  0  0
    2.2760    3.6477   -7.2072 C   0  0  0  0  0  0  0  0  0  0  0  0
    0.3788    1.7984   -9.0503 C   0  0  0  0  0  0  0  0  0  0  0  0
   -0.9331    1.4848   -9.4893 C   0  0  0  0  0  0  0  0  0  0  0  0
   -1.2018    1.3137  -10.8453 C   0  0  0  0  0  0  0  0  0  0  0  0
   -0.1864    1.4485  -11.8005 C   0  0  0  0  0  0  0  0  0  0  0  0
   -0.4753    1.2382  -13.2582 C   0  0  0  0  0  0  0  0  0  0  0  0
    1.1058    1.8120  -11.3851 C   0  0  0  0  0  0  0  0  0  0  0  0
    1.3827    1.9618  -10.0231 C   0  0  0  0  0  0  0  0  0  0  0  0
   -0.2241   -0.4088   -6.9703 C   0  0  0  0  0  0  0  0  0  0  0  0
    0.4466   -1.4797   -8.0881 S   0  0  0  0  0  0  0  0  0  0  0  0
    0.1400   -2.8538   -7.1314 C   0  0  0  0  0  0  0  0  0  0  0  0
   -0.5118   -2.4593   -5.9613 C   0  0  0  0  0  0  0  0  0  0  0  0
   -0.6852   -3.3282   -4.8369 N   0  0  0  0  0  0  0  0  0  0  0  0
   -1.9123   -4.1035   -4.7415 C   0  0  0  0  0  0  0  0  0  0  0  0
   -2.2335   -4.8213   -3.5686 C   0  0  0  0  0  0  0  0  0  0  0  0
   -3.3732   -5.6257   -3.5187 C   0  0  0  0  0  0  0  0  0  0  0  0
   -4.2448   -5.6910   -4.6091 C   0  0  0  0  0  0  0  0  0  0  0  0
   -5.4364   -6.5922   -4.5672 C   0  0  0  0  0  0  0  0  0  0  0  0
   -3.9682   -4.9418   -5.7607 C   0  0  0  0  0  0  0  0  0  0  0  0
   -2.8203   -4.1570   -5.8244 C   0  0  0  0  0  0  0  0  0  0  0  0
    0.4425   -3.4958   -3.9402 C   0  0  0  0  0  0  0  0  0  0  0  0
    0.8662   -4.7771   -3.5300 C   0  0  0  0  0  0  0  0  0  0  0  0
    1.9158   -4.9245   -2.6123 C   0  0  0  0  0  0  0  0  0  0  0  0
    2.5880   -3.7892   -2.1307 C   0  0  0  0  0  0  0  0  0  0  0  0
    3.7041   -3.9367   -1.1427 C   0  0  0  0  0  0  0  0  0  0  0  0
    2.2273   -2.5212   -2.6023 C   0  0  0  0  0  0  0  0  0  0  0  0
    1.1848   -2.3741   -3.5076 C   0  0  0  0  0  0  0  0  0  0  0  0
   -0.7652   -1.1085   -5.9512 C   0  0  0  0  0  0  0  0  0  0  0  0
   -1.2299   -0.0575   -4.7415 S   0  0  0  0  0  0  0  0  0  0  0  0
    0.3938   -4.2699   -7.4705 C   0  0  0  0  0  0  0  0  0  0  0  0
    1.5635   -4.8007   -7.8849 C   0  0  0  0  0  0  0  0  0  0  0  0
    2.8282   -4.0649   -8.0152 C   0  0  0  0  0  0  0  0  0  0  0  0
    2.9755   -2.8228   -8.0485 O   0  0  0  0  0  0  0  0  0  0  0  0
    3.9055   -5.0167   -8.0711 C   0  0  0  0  0  0  0  0  0  0  0  0
    5.2788   -4.7101   -8.1530 C   0  0  0  0  0  0  0  0  0  0  0  0
    6.1034   -5.8082   -8.1309 C   0  0  0  0  0  0  0  0  0  0  0  0
    5.6138   -7.1495   -8.0212 C   0  0  0  0  0  0  0  0  0  0  0  0
    4.2593   -7.4560   -7.9488 C   0  0  0  0  0  0  0  0  0  0  0  0
    3.3867   -6.3276   -7.9851 C   0  0  0  0  0  0  0  0  0  0  0  0
    1.8876   -6.2630   -7.9534 C   0  0  0  0  0  0  0  0  0  0  0  0
    1.0083   -7.2881   -8.0830 C   0  0  0  0  0  0  0  0  0  0  0  0
   -0.3905   -7.0747   -8.3647 C   0  0  0  0  0  0  0  0  0  0  0  0
   -1.5144   -6.9109   -8.5836 N   0  0  0  0  0  0  0  0  0  0  0  0
    1.3913   -8.6716   -8.0317 C   0  0  0  0  0  0  0  0  0  0  0  0
    1.6635   -9.7950   -7.9803 N   0  0  0  0  0  0  0  0  0  0  0  0
    7.0187   -7.6782   -8.0141 C   0  0  0  0  0  0  0  0  0  0  0  0
    7.6018   -8.1485   -6.6449 C   0  0  0  0  0  0  0  0  0  0  0  0
    9.0995   -8.2263   -6.8325 C   0  0  0  0  0  0  0  0  0  0  0  0
    9.5361   -6.9657   -6.9266 C   0  0  0  0  0  0  0  0  0  0  0  0
    8.3170   -6.0806   -6.8160 C   0  0  0  0  0  0  0  0  0  0  0  0
    7.5351   -6.8899   -5.7939 C   0  0  0  0  0  0  0  0  0  0  0  0
    7.5112   -6.2987   -8.1312 C   0  0  0  0  0  0  0  0  0  0  0  0
   -5.3405   -3.7807   10.4412 H   0  0  0  0  0  0  0  0  0  0  0  0
   -3.5244   -3.1795    4.4979 H   0  0  0  0  0  0  0  0  0  0  0  0
   -8.3115   -4.4895    5.6817 H   0  0  0  0  0  0  0  0  0  0  0  0
   -7.7927   -4.4094    2.2683 H   0  0  0  0  0  0  0  0  0  0  0  0
   -9.2262   -2.2711    2.5635 H   0  0  0  0  0  0  0  0  0  0  0  0
   -8.1248   -0.7151    4.4409 H   0  0  0  0  0  0  0  0  0  0  0  0
   -5.7171   -0.1117    3.6683 H   0  0  0  0  0  0  0  0  0  0  0  0
   -5.2251   -1.3661    1.3722 H   0  0  0  0  0  0  0  0  0  0  0  0
   -7.7625   -0.6784    1.0437 H   0  0  0  0  0  0  0  0  0  0  0  0
   -7.5262   -2.4033    0.4970 H   0  0  0  0  0  0  0  0  0  0  0  0
   -5.5571   -3.9119    1.6822 H   0  0  0  0  0  0  0  0  0  0  0  0
   -5.1397   -1.0837    8.9338 H   0  0  0  0  0  0  0  0  0  0  0  0
   -4.2216    1.9462    6.1158 H   0  0  0  0  0  0  0  0  0  0  0  0
   -6.4066    3.0803    5.8760 H   0  0  0  0  0  0  0  0  0  0  0  0
   -8.9268    1.5105    6.9152 H   0  0  0  0  0  0  0  0  0  0  0  0
  -10.1939    2.1014    8.0461 H   0  0  0  0  0  0  0  0  0  0  0  0
   -9.6714    3.1731    5.1993 H   0  0  0  0  0  0  0  0  0  0  0  0
  -11.0178    2.0595    5.7009 H   0  0  0  0  0  0  0  0  0  0  0  0
  -10.9707    3.7439    6.3226 H   0  0  0  0  0  0  0  0  0  0  0  0
   -5.0497    1.2407   10.2857 H   0  0  0  0  0  0  0  0  0  0  0  0
    1.2875    0.8522   10.5452 H   0  0  0  0  0  0  0  0  0  0  0  0
    3.5058   -0.0323   11.1463 H   0  0  0  0  0  0  0  0  0  0  0  0
    6.7127   -2.3753    8.8973 H   0  0  0  0  0  0  0  0  0  0  0  0
    5.1300   -2.3573    8.0426 H   0  0  0  0  0  0  0  0  0  0  0  0
    4.7828    0.0169    8.6812 H   0  0  0  0  0  0  0  0  0  0  0  0
    6.4081   -0.1584    7.9453 H   0  0  0  0  0  0  0  0  0  0  0  0
    6.2508   -0.0212    9.7377 H   0  0  0  0  0  0  0  0  0  0  0  0
    0.4582   -2.7475    8.3093 H   0  0  0  0  0  0  0  0  0  0  0  0
    1.4004    1.3087    7.8089 H   0  0  0  0  0  0  0  0  0  0  0  0
   -0.1984    5.5010    6.0473 H   0  0  0  0  0  0  0  0  0  0  0  0
    0.9303    6.7538    0.2384 H   0  0  0  0  0  0  0  0  0  0  0  0
   -2.2782    7.2439   -2.2659 H   0  0  0  0  0  0  0  0  0  0  0  0
   -2.8865    8.2499   -4.3198 H   0  0  0  0  0  0  0  0  0  0  0  0
   -0.6388    8.4101   -7.3845 H   0  0  0  0  0  0  0  0  0  0  0  0
   -2.0757    7.3967   -7.1182 H   0  0  0  0  0  0  0  0  0  0  0  0
   -1.9171   10.2826   -6.0017 H   0  0  0  0  0  0  0  0  0  0  0  0
   -3.3953    9.2992   -6.4250 H   0  0  0  0  0  0  0  0  0  0  0  0
   -2.3580    9.9868   -7.7345 H   0  0  0  0  0  0  0  0  0  0  0  0
    0.7017    6.8153   -6.1071 H   0  0  0  0  0  0  0  0  0  0  0  0
    1.5577    6.1152   -3.9790 H   0  0  0  0  0  0  0  0  0  0  0  0
   -1.6129    2.8545   -1.5308 H   0  0  0  0  0  0  0  0  0  0  0  0
   -3.3266    2.4486    0.1036 H   0  0  0  0  0  0  0  0  0  0  0  0
   -5.2371    4.9864    1.7612 H   0  0  0  0  0  0  0  0  0  0  0  0
   -4.9341    3.2178    1.6868 H   0  0  0  0  0  0  0  0  0  0  0  0
   -3.5425    5.2203    3.5805 H   0  0  0  0  0  0  0  0  0  0  0  0
   -3.1343    3.4569    3.4453 H   0  0  0  0  0  0  0  0  0  0  0  0
   -4.7727    3.9915    4.0094 H   0  0  0  0  0  0  0  0  0  0  0  0
   -3.0561    6.5274    1.4534 H   0  0  0  0  0  0  0  0  0  0  0  0
   -1.3220    6.9745   -0.1941 H   0  0  0  0  0  0  0  0  0  0  0  0
    2.9351    2.2948   -0.7711 H   0  0  0  0  0  0  0  0  0  0  0  0
    0.3554    3.2539    2.4746 H   0  0  0  0  0  0  0  0  0  0  0  0
   -1.2025    1.4526    2.6571 H   0  0  0  0  0  0  0  0  0  0  0  0
   -1.7318   -0.8650    2.7702 H   0  0  0  0  0  0  0  0  0  0  0  0
   -0.3700   -2.0184    2.9065 H   0  0  0  0  0  0  0  0  0  0  0  0
   -1.9666   -2.5726    1.0460 H   0  0  0  0  0  0  0  0  0  0  0  0
   -1.5729   -0.9993    0.2351 H   0  0  0  0  0  0  0  0  0  0  0  0
   -0.3035   -2.2807    0.4343 H   0  0  0  0  0  0  0  0  0  0  0  0
    1.8132   -1.3611    1.3950 H   0  0  0  0  0  0  0  0  0  0  0  0
    3.4291    0.4672    1.2339 H   0  0  0  0  0  0  0  0  0  0  0  0
    5.3393    4.3546    0.7613 H   0  0  0  0  0  0  0  0  0  0  0  0
    7.6853    3.8308    1.0948 H   0  0  0  0  0  0  0  0  0  0  0  0
    9.3423    2.8098    2.7883 H   0  0  0  0  0  0  0  0  0  0  0  0
    8.9100    1.2762    3.6078 H   0  0  0  0  0  0  0  0  0  0  0  0
    8.7635    0.0973    1.4169 H   0  0  0  0  0  0  0  0  0  0  0  0
   10.3739    0.8901    1.6245 H   0  0  0  0  0  0  0  0  0  0  0  0
    9.1514    1.6420    0.5448 H   0  0  0  0  0  0  0  0  0  0  0  0
    6.5819    0.7068    3.8706 H   0  0  0  0  0  0  0  0  0  0  0  0
    4.2318    1.2733    3.6006 H   0  0  0  0  0  0  0  0  0  0  0  0
   -1.5231    3.9418   -4.5682 H   0  0  0  0  0  0  0  0  0  0  0  0
    2.6634    0.3129   -6.5915 H   0  0  0  0  0  0  0  0  0  0  0  0
    4.8306    1.0931   -5.7783 H   0  0  0  0  0  0  0  0  0  0  0  0
    6.4767    3.6837   -6.5982 H   0  0  0  0  0  0  0  0  0  0  0  0
    5.7150    4.6617   -5.2801 H   0  0  0  0  0  0  0  0  0  0  0  0
    6.2007    2.9586   -4.9628 H   0  0  0  0  0  0  0  0  0  0  0  0
    3.7512    5.1529   -6.7820 H   0  0  0  0  0  0  0  0  0  0  0  0
    1.5631    4.3561   -7.6129 H   0  0  0  0  0  0  0  0  0  0  0  0
   -1.7457    1.3395   -8.7830 H   0  0  0  0  0  0  0  0  0  0  0  0
   -2.2114    1.0588  -11.1455 H   0  0  0  0  0  0  0  0  0  0  0  0
   -1.4634    0.7553  -13.4195 H   0  0  0  0  0  0  0  0  0  0  0  0
    0.3087    0.5903  -13.7093 H   0  0  0  0  0  0  0  0  0  0  0  0
   -0.4651    2.2211  -13.7725 H   0  0  0  0  0  0  0  0  0  0  0  0
    1.9004    1.9407  -12.1198 H   0  0  0  0  0  0  0  0  0  0  0  0
    2.4011    2.1836   -9.7351 H   0  0  0  0  0  0  0  0  0  0  0  0
   -1.6159   -4.7627   -2.6872 H   0  0  0  0  0  0  0  0  0  0  0  0
   -3.5709   -6.1905   -2.6208 H   0  0  0  0  0  0  0  0  0  0  0  0
   -5.7783   -6.7398   -3.5171 H   0  0  0  0  0  0  0  0  0  0  0  0
   -6.2784   -6.1445   -5.1411 H   0  0  0  0  0  0  0  0  0  0  0  0
   -5.1737   -7.5711   -5.0094 H   0  0  0  0  0  0  0  0  0  0  0  0
   -4.6307   -4.9784   -6.6165 H   0  0  0  0  0  0  0  0  0  0  0  0
   -2.6426   -3.6150   -6.7404 H   0  0  0  0  0  0  0  0  0  0  0  0
    0.3706   -5.6608   -3.9017 H   0  0  0  0  0  0  0  0  0  0  0  0
    2.2054   -5.9208   -2.2689 H   0  0  0  0  0  0  0  0  0  0  0  0
    4.5362   -4.5165   -1.5938 H   0  0  0  0  0  0  0  0  0  0  0  0
    4.0972   -2.9472   -0.8164 H   0  0  0  0  0  0  0  0  0  0  0  0
    3.3262   -4.4734   -0.2434 H   0  0  0  0  0  0  0  0  0  0  0  0
    2.7642   -1.6425   -2.2772 H   0  0  0  0  0  0  0  0  0  0  0  0
    0.9748   -1.3773   -3.8635 H   0  0  0  0  0  0  0  0  0  0  0  0
   -0.3821   -4.9322   -7.1247 H   0  0  0  0  0  0  0  0  0  0  0  0
    5.6579   -3.7030   -8.2052 H   0  0  0  0  0  0  0  0  0  0  0  0
    3.9400   -8.4782   -7.8536 H   0  0  0  0  0  0  0  0  0  0  0  0
    7.2575   -8.3248   -8.8867 H   0  0  0  0  0  0  0  0  0  0  0  0
    7.1286   -9.0540   -6.2101 H   0  0  0  0  0  0  0  0  0  0  0  0
    9.7183   -9.1106   -6.8136 H   0  0  0  0  0  0  0  0  0  0  0  0
   10.5733   -6.6508   -6.9821 H   0  0  0  0  0  0  0  0  0  0  0  0
    8.5188   -5.0224   -6.5423 H   0  0  0  0  0  0  0  0  0  0  0  0
    6.5003   -6.5186   -5.6098 H   0  0  0  0  0  0  0  0  0  0  0  0
    8.0555   -6.9911   -4.8086 H   0  0  0  0  0  0  0  0  0  0  0  0
    8.0592   -6.0815   -9.0754 H   0  0  0  0  0  0  0  0  0  0  0  0
  1  2  2  3
  2  3  1  0
  3  4  2  0
  3  5  1  0
  5  6  2  0
  6  7  1  0
  7  8  2  0
  8  9  1  0
  9 10  2  0
 10 11  1  0
 11 12  2  3
 12 13  1  0
 13 14  3  0
 12 15  1  0
 15 16  3  0
  8 17  1  0
 17 18  1  0
 18 19  1  0
 19 20  2  0
 20 21  1  0
 21 22  1  0
 21 23  1  0
  1 24  1  0
 24 25  2  0
 25 26  1  0
 26 27  2  0
 27 28  1  0
 28 29  2  0
 29 30  1  0
 30 31  2  0
 31 32  1  0
 32 33  1  0
 33 34  1  0
 31 35  1  0
 35 36  1  0
 35 37  2  0
 27 38  1  0
 38 39  2  0
 39 40  1  0
 40 41  1  0
 41 42  2  0
 42 43  1  0
 43 44  2  0
 44 45  1  0
 45 46  1  0
 46 47  1  0
 44 48  1  0
 48 49  2  0
 48 50  1  0
 40 51  2  0
 51 52  1  0
 39 53  1  0
 53 54  2  0
 54 55  1  0
 54 56  1  0
 56 57  2  0
 57 58  1  0
 58 59  1  0
 59 60  1  0
 60 61  1  0
 61 62  2  0
 62 63  1  0
 63 64  1  0
 64 65  1  0
 65 66  2  0
 66 67  1  0
 67 68  2  0
 68 69  1  0
 69 70  1  0
 68 71  1  0
 71 72  2  0
 64 73  1  0
 73 74  2  0
 74 75  1  0
 75 76  2  0
 76 77  1  0
 77 78  1  0
 76 79  1  0
 79 80  2  0
 64 81  1  0
 81 82  2  0
 82 83  1  0
 83 84  1  0
 84 85  2  0
 85 86  1  0
 86 87  1  0
 87 88  2  0
 88 89  1  0
 89 90  2  0
 90 91  1  0
 91 92  1  0
 90 93  1  0
 93 94  2  0
 86 95  1  0
 95 96  2  0
 96 97  1  0
 97 98  2  0
 98 99  1  0
 99100  1  0
 98101  1  0
101102  2  0
 86103  1  0
103104  1  0
104105  1  0
 82106  1  0
106107  1  0
107108  2  0
107109  1  0
109110  2  0
110111  1  0
111112  1  0
112113  2  0
113114  1  0
114115  2  0
115116  1  0
115117  1  0
117118  2  0
111119  1  0
119120  2  0
120121  1  0
121122  2  0
122123  1  0
122124  1  0
124125  2  0
110126  1  0
126127  1  0
127128  1  0
128129  2  0
129130  1  0
130131  1  0
131132  2  0
132133  1  0
133134  2  0
134135  1  0
134136  1  0
136137  2  0
130138  1  0
138139  2  0
139140  1  0
140141  2  0
141142  1  0
141143  1  0
143144  2  0
129145  1  0
145146  1  0
128147  1  0
147148  2  3
148149  1  0
149150  2  0
149151  1  0
151152  2  0
152153  1  0
153154  2  0
154155  1  0
155156  2  0
156157  1  0
157158  2  3
158159  1  0
159160  3  0
158161  1  0
161162  3  0
154163  1  0
163164  1  0
164165  1  0
165166  2  0
166167  1  0
167168  1  0
167169  1  0
 11  2  1  0
 23 17  1  0
 52 24  1  0
105 56  1  0
146109  1  0
157148  1  0
169163  1  0
 10  5  1  0
 22 18  1  0
 51 26  1  0
104 58  2  0
118112  1  0
125119  1  0
145126  2  0
156151  1  0
168164  1  0
 23  7  1  0
 37 28  1  0
 55 38  1  0
103 60  2  0
137131  1  0
144138  1  0
169153  1  0
 49 41  1  0
 85 61  1  0
 94 87  1  0
102 95  1  0
 83 63  2  0
 72 65  1  0
 80 73  1  0
108 81  1  0
  1170  1  0
  6171  1  0
  9172  1  0
 17173  1  0
 18174  1  0
 19175  1  0
 20176  1  0
 21177  1  0
 22178  1  0
 22179  1  0
 23180  1  0
 25181  1  0
 29182  1  0
 30183  1  0
 33184  1  0
 33185  1  0
 34186  1  0
 34187  1  0
 34188  1  0
 37189  1  0
 42190  1  0
 43191  1  0
 46192  1  0
 46193  1  0
 47194  1  0
 47195  1  0
 47196  1  0
 49197  1  0
 53198  1  0
 57199  1  0
 62200  1  0
 66201  1  0
 67202  1  0
 69203  1  0
 69204  1  0
 70205  1  0
 70206  1  0
 70207  1  0
 71208  1  0
 72209  1  0
 74210  1  0
 75211  1  0
 77212  1  0
 77213  1  0
 78214  1  0
 78215  1  0
 78216  1  0
 79217  1  0
 80218  1  0
 84219  1  0
 88220  1  0
 89221  1  0
 91222  1  0
 91223  1  0
 92224  1  0
 92225  1  0
 92226  1  0
 93227  1  0
 94228  1  0
 96229  1  0
 97230  1  0
 99231  1  0
 99232  1  0
100233  1  0
100234  1  0
100235  1  0
101236  1  0
102237  1  0
108238  1  0
113239  1  0
114240  1  0
116241  1  0
116242  1  0
116243  1  0
117244  1  0
118245  1  0
120246  1  0
121247  1  0
123248  1  0
123249  1  0
123250  1  0
124251  1  0
125252  1  0
132253  1  0
133254  1  0
135255  1  0
135256  1  0
135257  1  0
136258  1  0
137259  1  0
139260  1  0
140261  1  0
142262  1  0
142263  1  0
142264  1  0
143265  1  0
144266  1  0
147267  1  0
152268  1  0
155269  1  0
163270  1  0
164271  1  0
165272  1  0
166273  1  0
167274  1  0
168275  1  0
168276  1  0
169277  1  0
M  END

