
     RDKit          3D

243272  0  0  0  0  0  0  0  0999 V2000
    6.1589   -9.3053    2.6783 C   0  0  0  0  0  0  0  0  0  0  0  0
    4.8930   -9.0893    3.1616 C   0  0  0  0  0  0  0  0  0  0  0  0
    3.7966   -8.4763    2.4404 C   0  0  0  0  0  0  0  0  0  0  0  0
    3.7705   -8.2416    1.1701 O   0  0  0  0  0  0  0  0  0  0  0  0
    2.7359   -8.0986    3.2822 C   0  0  0  0  0  0  0  0  0  0  0  0
    1.5238   -7.4937    2.8863 C   0  0  0  0  0  0  0  0  0  0  0  0
    0.7196   -7.2436    3.9771 C   0  0  0  0  0  0  0  0  0  0  0  0
    0.9818   -7.6512    5.3474 C   0  0  0  0  0  0  0  0  0  0  0  0
    2.1447   -8.2696    5.7131 C   0  0  0  0  0  0  0  0  0  0  0  0
    3.0606   -8.4455    4.6462 C   0  0  0  0  0  0  0  0  0  0  0  0
    4.3783   -9.1545    4.6154 C   0  0  0  0  0  0  0  0  0  0  0  0
    4.9632   -9.7978    5.6801 C   0  0  0  0  0  0  0  0  0  0  0  0
    6.0354  -10.7486    5.5411 C   0  0  0  0  0  0  0  0  0  0  0  0
    6.8907  -11.5310    5.4376 N   0  0  0  0  0  0  0  0  0  0  0  0
    4.4834   -9.6316    7.0143 C   0  0  0  0  0  0  0  0  0  0  0  0
    4.0604   -9.4457    8.0626 N   0  0  0  0  0  0  0  0  0  0  0  0
   -0.4160   -7.3552    5.7483 C   0  0  0  0  0  0  0  0  0  0  0  0
   -1.3980   -8.5851    5.9895 C   0  0  0  0  0  0  0  0  0  0  0  0
   -1.0072   -9.7926    5.1439 C   0  0  0  0  0  0  0  0  0  0  0  0
   -1.2645   -9.4520    3.8579 C   0  0  0  0  0  0  0  0  0  0  0  0
   -1.8076   -8.0113    3.9015 C   0  0  0  0  0  0  0  0  0  0  0  0
   -2.6269   -8.1624    5.1859 C   0  0  0  0  0  0  0  0  0  0  0  0
   -0.7128   -6.9473    4.3658 C   0  0  0  0  0  0  0  0  0  0  0  0
    6.5974   -8.7923    1.3355 C   0  0  0  0  0  0  0  0  0  0  0  0
    6.1028   -9.2766    0.0856 C   0  0  0  0  0  0  0  0  0  0  0  0
    6.1447   -8.3145   -0.9365 C   0  0  0  0  0  0  0  0  0  0  0  0
    5.5247   -8.3558   -2.2046 C   0  0  0  0  0  0  0  0  0  0  0  0
    4.7294   -9.5620   -2.5599 C   0  0  0  0  0  0  0  0  0  0  0  0
    3.3221   -9.5023   -2.5922 C   0  0  0  0  0  0  0  0  0  0  0  0
    2.5545  -10.6587   -2.8858 C   0  0  0  0  0  0  0  0  0  0  0  0
    3.2444  -11.9024   -3.1133 C   0  0  0  0  0  0  0  0  0  0  0  0
    2.4373  -13.4846   -3.5250 S   0  0  0  0  0  0  0  0  0  0  0  0
    0.6322  -13.2983   -3.0885 C   0  0  0  0  0  0  0  0  0  0  0  0
   -0.1797  -12.6100   -4.2018 C   0  0  0  0  0  0  0  0  0  0  0  0
    4.6642  -11.9171   -3.1210 C   0  0  0  0  0  0  0  0  0  0  0  0
    5.3260  -13.0769   -3.4023 F   0  0  0  0  0  0  0  0  0  0  0  0
    5.3950  -10.7498   -2.8247 C   0  0  0  0  0  0  0  0  0  0  0  0
    5.6191   -7.2478   -3.0196 C   0  0  0  0  0  0  0  0  0  0  0  0
    6.2701   -6.0495   -2.6455 C   0  0  0  0  0  0  0  0  0  0  0  0
    6.8997   -6.0139   -1.3687 C   0  0  0  0  0  0  0  0  0  0  0  0
    7.3011   -4.6977   -0.8394 C   0  0  0  0  0  0  0  0  0  0  0  0
    6.5188   -4.1150    0.1677 C   0  0  0  0  0  0  0  0  0  0  0  0
    6.9001   -2.8958    0.7043 C   0  0  0  0  0  0  0  0  0  0  0  0
    8.0327   -2.1996    0.2174 C   0  0  0  0  0  0  0  0  0  0  0  0
    8.6371   -0.6196    0.9414 S   0  0  0  0  0  0  0  0  0  0  0  0
    7.1064    0.0275    1.8545 C   0  0  0  0  0  0  0  0  0  0  0  0
    6.9624   -0.5255    3.2910 C   0  0  0  0  0  0  0  0  0  0  0  0
    8.8139   -2.8072   -0.8228 C   0  0  0  0  0  0  0  0  0  0  0  0
    8.4526   -4.0488   -1.3463 C   0  0  0  0  0  0  0  0  0  0  0  0
    9.9319   -2.1611   -1.2786 F   0  0  0  0  0  0  0  0  0  0  0  0
    6.7909   -7.1134   -0.5284 C   0  0  0  0  0  0  0  0  0  0  0  0
    7.1495   -7.2138    1.1238 S   0  0  0  0  0  0  0  0  0  0  0  0
    6.0294   -4.9733   -3.5563 C   0  0  0  0  0  0  0  0  0  0  0  0
    5.1376   -5.3273   -4.6358 C   0  0  0  0  0  0  0  0  0  0  0  0
    4.8233   -6.9916   -4.4322 S   0  0  0  0  0  0  0  0  0  0  0  0
    4.3585   -4.3537   -5.5375 C   0  0  0  0  0  0  0  0  0  0  0  0
    3.3571   -4.8286   -6.4430 C   0  0  0  0  0  0  0  0  0  0  0  0
    3.2597   -6.2060   -6.8865 C   0  0  0  0  0  0  0  0  0  0  0  0
    4.3257   -6.7430   -7.6484 C   0  0  0  0  0  0  0  0  0  0  0  0
    4.2866   -8.0942   -8.0613 C   0  0  0  0  0  0  0  0  0  0  0  0
    3.2414   -8.9229   -7.5987 C   0  0  0  0  0  0  0  0  0  0  0  0
    2.2795   -8.4037   -6.6798 C   0  0  0  0  0  0  0  0  0  0  0  0
    1.0767   -9.2215   -6.2737 C   0  0  0  0  0  0  0  0  0  0  0  0
   -0.0976   -8.9894   -7.2632 C   0  0  0  0  0  0  0  0  0  0  0  0
    2.2695   -7.0379   -6.3513 C   0  0  0  0  0  0  0  0  0  0  0  0
    2.3208   -3.8935   -6.6940 C   0  0  0  0  0  0  0  0  0  0  0  0
    0.7265   -4.1875   -7.3354 S   0  0  0  0  0  0  0  0  0  0  0  0
    0.3576   -2.5574   -6.8870 C   0  0  0  0  0  0  0  0  0  0  0  0
   -0.7785   -1.7957   -6.7579 C   0  0  0  0  0  0  0  0  0  0  0  0
   -2.1169   -2.1454   -6.9999 C   0  0  0  0  0  0  0  0  0  0  0  0
   -3.1995   -1.3074   -6.4998 C   0  0  0  0  0  0  0  0  0  0  0  0
   -4.4653   -1.6590   -6.6648 N   0  0  0  0  0  0  0  0  0  0  0  0
   -4.1649   -3.0833   -7.4769 S   0  0  0  0  0  0  0  0  0  0  0  0
   -2.5381   -3.2966   -7.6331 N   0  0  0  0  0  0  0  0  0  0  0  0
   -2.8420   -0.1518   -5.7598 C   0  0  0  0  0  0  0  0  0  0  0  0
   -3.5812    0.7229   -4.8905 C   0  0  0  0  0  0  0  0  0  0  0  0
   -5.2715    1.0040   -4.4037 S   0  0  0  0  0  0  0  0  0  0  0  0
   -4.7394    2.1097   -3.1442 C   0  0  0  0  0  0  0  0  0  0  0  0
   -5.3382    2.8468   -2.0088 C   0  0  0  0  0  0  0  0  0  0  0  0
   -6.6705    3.5263   -2.0301 C   0  0  0  0  0  0  0  0  0  0  0  0
   -7.5845    3.0712   -1.0783 C   0  0  0  0  0  0  0  0  0  0  0  0
   -8.6983    3.8107   -0.8069 C   0  0  0  0  0  0  0  0  0  0  0  0
   -8.9551    5.0132   -1.4978 C   0  0  0  0  0  0  0  0  0  0  0  0
   -8.0258    5.4649   -2.4893 C   0  0  0  0  0  0  0  0  0  0  0  0
   -8.3635    6.6682   -3.3440 C   0  0  0  0  0  0  0  0  0  0  0  0
   -8.5808    6.1798   -4.7996 C   0  0  0  0  0  0  0  0  0  0  0  0
   -6.8654    4.7292   -2.7499 C   0  0  0  0  0  0  0  0  0  0  0  0
   -4.4295    3.0284   -0.9903 C   0  0  0  0  0  0  0  0  0  0  0  0
   -2.8915    2.6411   -1.6778 S   0  0  0  0  0  0  0  0  0  0  0  0
   -3.3438    2.1949   -3.1561 C   0  0  0  0  0  0  0  0  0  0  0  0
   -2.7673    1.3420   -4.1139 C   0  0  0  0  0  0  0  0  0  0  0  0
   -1.4507    1.1366   -4.4711 N   0  0  0  0  0  0  0  0  0  0  0  0
   -1.4459    0.2142   -5.4572 C   0  0  0  0  0  0  0  0  0  0  0  0
   -0.3907   -0.6532   -6.0403 C   0  0  0  0  0  0  0  0  0  0  0  0
    0.9742   -0.6629   -5.7507 N   0  0  0  0  0  0  0  0  0  0  0  0
    1.3403   -1.9155   -6.1939 C   0  0  0  0  0  0  0  0  0  0  0  0
    2.5369   -2.6501   -6.0931 C   0  0  0  0  0  0  0  0  0  0  0  0
    3.9793   -2.7096   -5.1307 S   0  0  0  0  0  0  0  0  0  0  0  0
    1.9308    0.4093   -5.6344 C   0  0  0  0  0  0  0  0  0  0  0  0
    2.7563    0.5994   -6.9145 C   0  0  0  0  0  0  0  0  0  0  0  0
   -0.3547    2.0572   -3.9101 C   0  0  0  0  0  0  0  0  0  0  0  0
    0.4929    1.3579   -2.8730 C   0  0  0  0  0  0  0  0  0  0  0  0
   -4.5356    3.9354    0.1894 C   0  0  0  0  0  0  0  0  0  0  0  0
   -3.7583    5.0022    0.2349 C   0  0  0  0  0  0  0  0  0  0  0  0
   -3.4105    5.3747    1.4182 C   0  0  0  0  0  0  0  0  0  0  0  0
   -2.2533    5.9650    1.7332 C   0  0  0  0  0  0  0  0  0  0  0  0
   -1.6512    6.9109    0.7021 C   0  0  0  0  0  0  0  0  0  0  0  0
   -1.0738    6.3491   -0.4074 C   0  0  0  0  0  0  0  0  0  0  0  0
   -0.9816    7.0918   -1.6171 C   0  0  0  0  0  0  0  0  0  0  0  0
   -1.5906    8.3445   -1.7849 C   0  0  0  0  0  0  0  0  0  0  0  0
   -1.1035    9.3868   -3.2750 S   0  0  0  0  0  0  0  0  0  0  0  0
   -2.5974    8.9463   -4.3198 C   0  0  0  0  0  0  0  0  0  0  0  0
   -2.3621    7.6911   -5.1874 C   0  0  0  0  0  0  0  0  0  0  0  0
   -2.2060    8.8905   -0.6556 C   0  0  0  0  0  0  0  0  0  0  0  0
   -2.7766   10.1061   -0.7655 F   0  0  0  0  0  0  0  0  0  0  0  0
   -2.3275    8.1591    0.5946 C   0  0  0  0  0  0  0  0  0  0  0  0
   -1.9937    6.0561    3.1161 C   0  0  0  0  0  0  0  0  0  0  0  0
   -2.9310    6.1670    4.0471 C   0  0  0  0  0  0  0  0  0  0  0  0
   -3.9490    5.1686    3.8900 C   0  0  0  0  0  0  0  0  0  0  0  0
   -4.0055    4.2157    5.0228 C   0  0  0  0  0  0  0  0  0  0  0  0
   -2.8467    3.9683    5.7855 C   0  0  0  0  0  0  0  0  0  0  0  0
   -2.8685    2.8940    6.7043 C   0  0  0  0  0  0  0  0  0  0  0  0
   -4.0156    2.0888    6.8458 C   0  0  0  0  0  0  0  0  0  0  0  0
   -4.0046    0.7383    8.0140 S   0  0  0  0  0  0  0  0  0  0  0  0
   -3.1819   -0.4428    6.8270 C   0  0  0  0  0  0  0  0  0  0  0  0
   -1.7080   -0.1487    6.5109 C   0  0  0  0  0  0  0  0  0  0  0  0
   -5.2344    2.4664    6.2047 C   0  0  0  0  0  0  0  0  0  0  0  0
   -5.2251    3.5674    5.2759 C   0  0  0  0  0  0  0  0  0  0  0  0
   -6.4117    1.7882    6.4056 F   0  0  0  0  0  0  0  0  0  0  0  0
   -4.2049    4.8448    2.4956 C   0  0  0  0  0  0  0  0  0  0  0  0
   -5.0467    3.5489    1.7980 S   0  0  0  0  0  0  0  0  0  0  0  0
   -2.6150    7.1421    5.0695 C   0  0  0  0  0  0  0  0  0  0  0  0
   -1.2156    7.2865    5.3426 C   0  0  0  0  0  0  0  0  0  0  0  0
   -0.7159    6.6928    3.8600 S   0  0  0  0  0  0  0  0  0  0  0  0
   -0.5175    8.5316    5.9421 C   0  0  0  0  0  0  0  0  0  0  0  0
   -0.3786    9.8599    5.3447 C   0  0  0  0  0  0  0  0  0  0  0  0
   -0.1068   10.2847    3.8551 C   0  0  0  0  0  0  0  0  0  0  0  0
    0.7544    9.8988    2.9619 O   0  0  0  0  0  0  0  0  0  0  0  0
   -0.2686   11.6569    3.8743 C   0  0  0  0  0  0  0  0  0  0  0  0
   -0.3860   12.3703    2.6681 C   0  0  0  0  0  0  0  0  0  0  0  0
   -0.9023   13.6006    2.8954 C   0  0  0  0  0  0  0  0  0  0  0  0
   -1.0279   14.2002    4.1899 C   0  0  0  0  0  0  0  0  0  0  0  0
   -0.7714   13.5470    5.3672 C   0  0  0  0  0  0  0  0  0  0  0  0
   -0.4060   12.2230    5.1777 C   0  0  0  0  0  0  0  0  0  0  0  0
   -0.4152   11.1539    6.1865 C   0  0  0  0  0  0  0  0  0  0  0  0
   -0.7472   11.3995    7.5130 C   0  0  0  0  0  0  0  0  0  0  0  0
   -1.3771   10.5194    8.4283 C   0  0  0  0  0  0  0  0  0  0  0  0
   -1.8499    9.8203    9.2287 N   0  0  0  0  0  0  0  0  0  0  0  0
   -0.1488   12.4687    8.0960 C   0  0  0  0  0  0  0  0  0  0  0  0
    0.3902   13.4279    8.4967 N   0  0  0  0  0  0  0  0  0  0  0  0
   -1.3917   15.4928    3.5888 C   0  0  0  0  0  0  0  0  0  0  0  0
   -0.2411   16.5760    3.4699 C   0  0  0  0  0  0  0  0  0  0  0  0
    1.1128   15.9628    3.0805 C   0  0  0  0  0  0  0  0  0  0  0  0
    0.9634   15.5638    1.8029 C   0  0  0  0  0  0  0  0  0  0  0  0
   -0.4933   15.8029    1.4174 C   0  0  0  0  0  0  0  0  0  0  0  0
   -0.6543   17.1573    2.1285 C   0  0  0  0  0  0  0  0  0  0  0  0
   -1.4524   14.8723    2.2733 C   0  0  0  0  0  0  0  0  0  0  0  0
    6.9416   -9.6925    3.3352 H   0  0  0  0  0  0  0  0  0  0  0  0
    1.2541   -7.2919    1.8228 H   0  0  0  0  0  0  0  0  0  0  0  0
    2.2810   -8.5710    6.7726 H   0  0  0  0  0  0  0  0  0  0  0  0
   -0.5168   -6.5326    6.5028 H   0  0  0  0  0  0  0  0  0  0  0  0
   -1.6044   -8.8200    7.0661 H   0  0  0  0  0  0  0  0  0  0  0  0
   -0.4149  -10.6528    5.4881 H   0  0  0  0  0  0  0  0  0  0  0  0
   -0.8290   -9.9210    2.9729 H   0  0  0  0  0  0  0  0  0  0  0  0
   -2.4088   -7.7238    2.9964 H   0  0  0  0  0  0  0  0  0  0  0  0
   -3.1140   -7.2184    5.5458 H   0  0  0  0  0  0  0  0  0  0  0  0
   -3.3977   -8.9924    5.1150 H   0  0  0  0  0  0  0  0  0  0  0  0
   -1.0377   -5.8704    4.2216 H   0  0  0  0  0  0  0  0  0  0  0  0
    5.5413  -10.2172    0.0373 H   0  0  0  0  0  0  0  0  0  0  0  0
    2.8255   -8.5478   -2.3731 H   0  0  0  0  0  0  0  0  0  0  0  0
    1.4648  -10.5864   -2.8934 H   0  0  0  0  0  0  0  0  0  0  0  0
    0.4426  -12.8241   -2.0968 H   0  0  0  0  0  0  0  0  0  0  0  0
    0.2599  -14.3549   -3.0149 H   0  0  0  0  0  0  0  0  0  0  0  0
   -0.5803  -11.6575   -3.8416 H   0  0  0  0  0  0  0  0  0  0  0  0
    0.4706  -12.4391   -5.1109 H   0  0  0  0  0  0  0  0  0  0  0  0
   -1.0232  -13.2710   -4.5145 H   0  0  0  0  0  0  0  0  0  0  0  0
    6.5053  -10.8178   -2.8170 H   0  0  0  0  0  0  0  0  0  0  0  0
    5.6244   -4.6509    0.5293 H   0  0  0  0  0  0  0  0  0  0  0  0
    6.2599   -2.4858    1.5008 H   0  0  0  0  0  0  0  0  0  0  0  0
    7.2747    1.1268    1.9738 H   0  0  0  0  0  0  0  0  0  0  0  0
    6.1395   -0.1072    1.3080 H   0  0  0  0  0  0  0  0  0  0  0  0
    5.9131   -0.6375    3.5665 H   0  0  0  0  0  0  0  0  0  0  0  0
    7.4193    0.1678    4.0356 H   0  0  0  0  0  0  0  0  0  0  0  0
    7.4635   -1.5140    3.4155 H   0  0  0  0  0  0  0  0  0  0  0  0
    9.0693   -4.5194   -2.1367 H   0  0  0  0  0  0  0  0  0  0  0  0
    6.3910   -3.9709   -3.3935 H   0  0  0  0  0  0  0  0  0  0  0  0
    5.1550   -6.1198   -8.0098 H   0  0  0  0  0  0  0  0  0  0  0  0
    5.0547   -8.5217   -8.6942 H   0  0  0  0  0  0  0  0  0  0  0  0
    3.1763   -9.9705   -7.8940 H   0  0  0  0  0  0  0  0  0  0  0  0
    0.7923   -8.9284   -5.2466 H   0  0  0  0  0  0  0  0  0  0  0  0
    1.3733  -10.2856   -6.2322 H   0  0  0  0  0  0  0  0  0  0  0  0
   -0.3873   -9.9810   -7.6874 H   0  0  0  0  0  0  0  0  0  0  0  0
   -0.9373   -8.5283   -6.6982 H   0  0  0  0  0  0  0  0  0  0  0  0
    0.2147   -8.3043   -8.0917 H   0  0  0  0  0  0  0  0  0  0  0  0
    1.5095   -6.6060   -5.6528 H   0  0  0  0  0  0  0  0  0  0  0  0
   -7.3216    2.1859   -0.5225 H   0  0  0  0  0  0  0  0  0  0  0  0
   -9.3671    3.4856   -0.0725 H   0  0  0  0  0  0  0  0  0  0  0  0
   -9.8756    5.5624   -1.3165 H   0  0  0  0  0  0  0  0  0  0  0  0
   -9.3104    7.1905   -2.9690 H   0  0  0  0  0  0  0  0  0  0  0  0
   -7.5085    7.4007   -3.3143 H   0  0  0  0  0  0  0  0  0  0  0  0
   -9.5713    6.5515   -5.1759 H   0  0  0  0  0  0  0  0  0  0  0  0
   -7.7759    6.5756   -5.4371 H   0  0  0  0  0  0  0  0  0  0  0  0
   -8.5924    5.0606   -4.8978 H   0  0  0  0  0  0  0  0  0  0  0  0
   -6.1163    5.1289   -3.4926 H   0  0  0  0  0  0  0  0  0  0  0  0
    2.5391    0.2304   -4.7220 H   0  0  0  0  0  0  0  0  0  0  0  0
    1.4138    1.3535   -5.5803 H   0  0  0  0  0  0  0  0  0  0  0  0
    2.0608    0.8445   -7.7392 H   0  0  0  0  0  0  0  0  0  0  0  0
    3.5002    1.3918   -6.7007 H   0  0  0  0  0  0  0  0  0  0  0  0
    3.2988   -0.3360   -7.1171 H   0  0  0  0  0  0  0  0  0  0  0  0
    0.1314    2.6334   -4.7313 H   0  0  0  0  0  0  0  0  0  0  0  0
   -0.8403    2.9217   -3.4257 H   0  0  0  0  0  0  0  0  0  0  0  0
    1.4743    1.8503   -2.8486 H   0  0  0  0  0  0  0  0  0  0  0  0
    0.6482    0.2680   -3.0736 H   0  0  0  0  0  0  0  0  0  0  0  0
    0.0252    1.4898   -1.8829 H   0  0  0  0  0  0  0  0  0  0  0  0
   -3.2491    5.2872   -0.6616 H   0  0  0  0  0  0  0  0  0  0  0  0
   -0.6830    5.3338   -0.3162 H   0  0  0  0  0  0  0  0  0  0  0  0
   -0.4547    6.5902   -2.4244 H   0  0  0  0  0  0  0  0  0  0  0  0
   -3.6234    8.8283   -3.8138 H   0  0  0  0  0  0  0  0  0  0  0  0
   -2.6826    9.7697   -5.0617 H   0  0  0  0  0  0  0  0  0  0  0  0
   -1.2867    7.6632   -5.5723 H   0  0  0  0  0  0  0  0  0  0  0  0
   -2.5186    6.7716   -4.6025 H   0  0  0  0  0  0  0  0  0  0  0  0
   -3.0264    7.6532   -6.0733 H   0  0  0  0  0  0  0  0  0  0  0  0
   -2.9420    8.6665    1.3815 H   0  0  0  0  0  0  0  0  0  0  0  0
   -1.8611    4.3732    5.6322 H   0  0  0  0  0  0  0  0  0  0  0  0
   -1.9549    2.6442    7.2213 H   0  0  0  0  0  0  0  0  0  0  0  0
   -3.7260   -0.5288    5.8742 H   0  0  0  0  0  0  0  0  0  0  0  0
   -3.2137   -1.4689    7.2628 H   0  0  0  0  0  0  0  0  0  0  0  0
   -1.6454    0.7063    5.8310 H   0  0  0  0  0  0  0  0  0  0  0  0
   -1.1682    0.0890    7.4511 H   0  0  0  0  0  0  0  0  0  0  0  0
   -1.1968   -1.0241    6.0231 H   0  0  0  0  0  0  0  0  0  0  0  0
   -6.1205    3.8340    4.7003 H   0  0  0  0  0  0  0  0  0  0  0  0
   -3.2772    7.4609    5.7634 H   0  0  0  0  0  0  0  0  0  0  0  0
   -0.4945    8.5215    7.0488 H   0  0  0  0  0  0  0  0  0  0  0  0
   -0.2745   11.9068    1.6398 H   0  0  0  0  0  0  0  0  0  0  0  0
   -1.0690   14.0259    6.2903 H   0  0  0  0  0  0  0  0  0  0  0  0
   -2.3759   15.9104    3.9689 H   0  0  0  0  0  0  0  0  0  0  0  0
   -0.2014   17.3190    4.3067 H   0  0  0  0  0  0  0  0  0  0  0  0
    1.9090   15.7085    3.7960 H   0  0  0  0  0  0  0  0  0  0  0  0
    1.7226   15.0220    1.2323 H   0  0  0  0  0  0  0  0  0  0  0  0
   -0.6577   15.8267    0.2957 H   0  0  0  0  0  0  0  0  0  0  0  0
   -1.7093   17.5413    2.0776 H   0  0  0  0  0  0  0  0  0  0  0  0
    0.0570   17.9528    1.7579 H   0  0  0  0  0  0  0  0  0  0  0  0
   -2.4668   14.8121    1.8235 H   0  0  0  0  0  0  0  0  0  0  0  0
  1  2  2  3
  2  3  1  0
  3  4  2  0
  3  5  1  0
  5  6  2  0
  6  7  1  0
  7  8  2  0
  8  9  1  0
  9 10  2  0
 10 11  1  0
 11 12  2  3
 12 13  1  0
 13 14  3  0
 12 15  1  0
 15 16  3  0
  8 17  1  0
 17 18  1  0
 18 19  1  0
 19 20  2  0
 20 21  1  0
 21 22  1  0
 21 23  1  0
  1 24  1  0
 24 25  2  0
 25 26  1  0
 26 27  2  0
 27 28  1  0
 28 29  2  0
 29 30  1  0
 30 31  2  0
 31 32  1  0
 32 33  1  0
 33 34  1  0
 31 35  1  0
 35 36  1  0
 35 37  2  0
 27 38  1  0
 38 39  2  0
 39 40  1  0
 40 41  1  0
 41 42  2  0
 42 43  1  0
 43 44  2  0
 44 45  1  0
 45 46  1  0
 46 47  1  0
 44 48  1  0
 48 49  2  0
 48 50  1  0
 40 51  2  0
 51 52  1  0
 39 53  1  0
 53 54  2  0
 54 55  1  0
 54 56  1  0
 56 57  2  0
 57 58  1  0
 58 59  2  0
 59 60  1  0
 60 61  2  0
 61 62  1  0
 62 63  1  0
 63 64  1  0
 62 65  2  0
 57 66  1  0
 66 67  1  0
 67 68  1  0
 68 69  1  0
 69 70  1  0
 70 71  1  0
 71 72  2  0
 72 73  1  0
 73 74  1  0
 71 75  1  0
 75 76  1  0
 76 77  1  0
 77 78  1  0
 78 79  1  0
 79 80  1  0
 80 81  2  0
 81 82  1  0
 82 83  2  0
 83 84  1  0
 84 85  1  0
 85 86  1  0
 84 87  2  0
 79 88  2  0
 88 89  1  0
 89 90  1  0
 90 91  1  0
 91 92  1  0
 92 93  1  0
 93 94  1  0
 94 95  1  0
 95 96  1  0
 96 97  1  0
 97 98  1  0
 95 99  1  0
 99100  1  0
 92101  1  0
101102  1  0
 88103  1  0
103104  2  0
104105  1  0
105106  2  0
106107  1  0
107108  2  0
108109  1  0
109110  2  0
110111  1  0
111112  1  0
112113  1  0
110114  1  0
114115  1  0
114116  2  0
106117  1  0
117118  2  0
118119  1  0
119120  1  0
120121  2  0
121122  1  0
122123  2  0
123124  1  0
124125  1  0
125126  1  0
123127  1  0
127128  2  0
127129  1  0
119130  2  0
130131  1  0
118132  1  0
132133  2  0
133134  1  0
133135  1  0
135136  2  3
136137  1  0
137138  2  0
137139  1  0
139140  2  0
140141  1  0
141142  2  0
142143  1  0
143144  2  0
144145  1  0
145146  2  3
146147  1  0
147148  3  0
146149  1  0
149150  3  0
142151  1  0
151152  1  0
152153  1  0
153154  2  0
154155  1  0
155156  1  0
155157  1  0
 11  2  1  0
 23 17  1  0
 52 24  1  0
 98 56  1  0
131103  1  0
145136  1  0
157151  1  0
 10  5  1  0
 22 18  1  0
 51 26  1  0
 65 58  1  0
 97 66  2  0
130105  1  0
144139  1  0
156152  1  0
 23  7  1  0
 37 28  1  0
 55 38  1  0
 96 68  2  0
116107  1  0
134117  1  0
157141  1  0
 49 41  1  0
 94 69  2  0
128120  1  0
 74 70  2  0
 93 75  2  0
 91 76  2  0
 90 78  2  0
 87 80  1  0
  1158  1  0
  6159  1  0
  9160  1  0
 17161  1  0
 18162  1  0
 19163  1  0
 20164  1  0
 21165  1  0
 22166  1  0
 22167  1  0
 23168  1  0
 25169  1  0
 29170  1  0
 30171  1  0
 33172  1  0
 33173  1  0
 34174  1  0
 34175  1  0
 34176  1  0
 37177  1  0
 42178  1  0
 43179  1  0
 46180  1  0
 46181  1  0
 47182  1  0
 47183  1  0
 47184  1  0
 49185  1  0
 53186  1  0
 59187  1  0
 60188  1  0
 61189  1  0
 63190  1  0
 63191  1  0
 64192  1  0
 64193  1  0
 64194  1  0
 65195  1  0
 81196  1  0
 82197  1  0
 83198  1  0
 85199  1  0
 85200  1  0
 86201  1  0
 86202  1  0
 86203  1  0
 87204  1  0
 99205  1  0
 99206  1  0
100207  1  0
100208  1  0
100209  1  0
101210  1  0
101211  1  0
102212  1  0
102213  1  0
102214  1  0
104215  1  0
108216  1  0
109217  1  0
112218  1  0
112219  1  0
113220  1  0
113221  1  0
113222  1  0
116223  1  0
121224  1  0
122225  1  0
125226  1  0
125227  1  0
126228  1  0
126229  1  0
126230  1  0
128231  1  0
132232  1  0
135233  1  0
140234  1  0
143235  1  0
151236  1  0
152237  1  0
153238  1  0
154239  1  0
155240  1  0
156241  1  0
156242  1  0
157243  1  0
M  END

