
     RDKit          3D

200226  0  0  0  0  0  0  0  0999 V2000
    2.0843  -10.3370    0.1829 C   0  0  0  0  0  0  0  0  0  0  0  0
    1.6741   -9.7493   -0.9630 C   0  0  0  0  0  0  0  0  0  0  0  0
    1.0497   -8.4188   -1.0569 C   0  0  0  0  0  0  0  0  0  0  0  0
    0.7354   -7.6632   -0.0983 O   0  0  0  0  0  0  0  0  0  0  0  0
    0.9544   -8.0363   -2.4415 C   0  0  0  0  0  0  0  0  0  0  0  0
    0.4306   -6.8235   -2.9452 C   0  0  0  0  0  0  0  0  0  0  0  0
    0.5229   -6.7027   -4.3156 C   0  0  0  0  0  0  0  0  0  0  0  0
    1.1224   -7.7003   -5.1510 C   0  0  0  0  0  0  0  0  0  0  0  0
    1.6479   -8.8850   -4.6587 C   0  0  0  0  0  0  0  0  0  0  0  0
    1.5176   -9.0561   -3.2489 C   0  0  0  0  0  0  0  0  0  0  0  0
    1.9178  -10.2049   -2.3750 C   0  0  0  0  0  0  0  0  0  0  0  0
    2.2290  -11.4650   -2.7875 C   0  0  0  0  0  0  0  0  0  0  0  0
    2.3998  -12.5656   -1.8757 C   0  0  0  0  0  0  0  0  0  0  0  0
    2.5365  -13.4630   -1.1549 N   0  0  0  0  0  0  0  0  0  0  0  0
    2.2991  -11.8392   -4.1775 C   0  0  0  0  0  0  0  0  0  0  0  0
    2.3534  -12.1617   -5.2879 N   0  0  0  0  0  0  0  0  0  0  0  0
    0.8794   -6.8523   -6.3630 C   0  0  0  0  0  0  0  0  0  0  0  0
    2.1141   -6.1110   -6.9566 C   0  0  0  0  0  0  0  0  0  0  0  0
    1.5547   -5.0601   -7.8838 C   0  0  0  0  0  0  0  0  0  0  0  0
    0.9768   -4.1350   -7.1070 C   0  0  0  0  0  0  0  0  0  0  0  0
    1.1716   -4.5914   -5.6815 C   0  0  0  0  0  0  0  0  0  0  0  0
    2.5559   -5.2031   -5.8187 C   0  0  0  0  0  0  0  0  0  0  0  0
    0.2533   -5.8366   -5.5079 C   0  0  0  0  0  0  0  0  0  0  0  0
    1.8069   -9.7678    1.5090 C   0  0  0  0  0  0  0  0  0  0  0  0
    2.7305   -9.0228    2.2332 C   0  0  0  0  0  0  0  0  0  0  0  0
    2.1382   -8.2705    3.2601 C   0  0  0  0  0  0  0  0  0  0  0  0
    2.7834   -7.2905    4.0409 C   0  0  0  0  0  0  0  0  0  0  0  0
    4.2267   -7.0154    3.8897 C   0  0  0  0  0  0  0  0  0  0  0  0
    5.1652   -7.9777    4.2827 C   0  0  0  0  0  0  0  0  0  0  0  0
    6.5301   -7.7541    4.0916 C   0  0  0  0  0  0  0  0  0  0  0  0
    6.9724   -6.5651    3.4934 C   0  0  0  0  0  0  0  0  0  0  0  0
    8.3403   -6.3420    3.2702 C   0  0  0  0  0  0  0  0  0  0  0  0
    8.7676   -5.1598    2.6588 C   0  0  0  0  0  0  0  0  0  0  0  0
    7.8378   -4.1925    2.2700 C   0  0  0  0  0  0  0  0  0  0  0  0
    6.4717   -4.4044    2.4803 C   0  0  0  0  0  0  0  0  0  0  0  0
    6.0278   -5.5885    3.0909 C   0  0  0  0  0  0  0  0  0  0  0  0
    4.6585   -5.8214    3.2908 C   0  0  0  0  0  0  0  0  0  0  0  0
    1.9584   -6.4693    4.8313 C   0  0  0  0  0  0  0  0  0  0  0  0
    0.5660   -6.5908    4.8504 C   0  0  0  0  0  0  0  0  0  0  0  0
   -0.0661   -7.6131    4.1158 C   0  0  0  0  0  0  0  0  0  0  0  0
   -1.4556   -7.7757    4.1167 O   0  0  0  0  0  0  0  0  0  0  0  0
   -2.3363   -6.9315    3.3777 C   0  0  0  0  0  0  0  0  0  0  0  0
   -2.4551   -7.4096    1.9370 C   0  0  0  0  0  0  0  0  0  0  0  0
    0.7523   -8.4499    3.3431 C   0  0  0  0  0  0  0  0  0  0  0  0
    0.2635   -9.5517    2.1697 S   0  0  0  0  0  0  0  0  0  0  0  0
   -0.0743   -5.5243    5.5113 C   0  0  0  0  0  0  0  0  0  0  0  0
    0.8152   -4.5703    6.0095 C   0  0  0  0  0  0  0  0  0  0  0  0
    2.3885   -5.0735    5.6549 S   0  0  0  0  0  0  0  0  0  0  0  0
    0.5091   -3.1375    6.0254 C   0  0  0  0  0  0  0  0  0  0  0  0
    0.2461   -2.3218    7.1512 C   0  0  0  0  0  0  0  0  0  0  0  0
   -0.1739   -2.8193    8.4845 C   0  0  0  0  0  0  0  0  0  0  0  0
   -1.1305   -3.8449    8.5811 C   0  0  0  0  0  0  0  0  0  0  0  0
   -1.6045   -4.2611    9.8286 C   0  0  0  0  0  0  0  0  0  0  0  0
   -1.1395   -3.6497   10.9941 C   0  0  0  0  0  0  0  0  0  0  0  0
   -0.1764   -2.6313   10.9213 C   0  0  0  0  0  0  0  0  0  0  0  0
    0.2804   -1.9296   12.1739 C   0  0  0  0  0  0  0  0  0  0  0  0
   -0.5386   -0.6649   12.4135 C   0  0  0  0  0  0  0  0  0  0  0  0
    0.3051   -2.2220    9.6657 C   0  0  0  0  0  0  0  0  0  0  0  0
    0.4132   -0.9638    6.8169 C   0  0  0  0  0  0  0  0  0  0  0  0
    0.4072    0.5222    7.6849 S   0  0  0  0  0  0  0  0  0  0  0  0
    0.9411    1.3726    6.3131 C   0  0  0  0  0  0  0  0  0  0  0  0
    1.3077    2.6290    5.8974 C   0  0  0  0  0  0  0  0  0  0  0  0
    1.2354    3.8978    6.4923 C   0  0  0  0  0  0  0  0  0  0  0  0
    1.6272    5.0424    5.7220 C   0  0  0  0  0  0  0  0  0  0  0  0
    1.5202    6.2534    6.3218 N   0  0  0  0  0  0  0  0  0  0  0  0
    0.9134    5.7833    7.7916 S   0  0  0  0  0  0  0  0  0  0  0  0
    0.7765    4.1314    7.7453 N   0  0  0  0  0  0  0  0  0  0  0  0
    2.1593    4.8392    4.4392 C   0  0  0  0  0  0  0  0  0  0  0  0
    2.7232    5.6826    3.5196 C   0  0  0  0  0  0  0  0  0  0  0  0
    2.4626    7.2794    3.0206 S   0  0  0  0  0  0  0  0  0  0  0  0
    3.0211    6.9260    1.4420 C   0  0  0  0  0  0  0  0  0  0  0  0
    2.7285    7.5508    0.2231 C   0  0  0  0  0  0  0  0  0  0  0  0
    2.2052    8.9314    0.1565 C   0  0  0  0  0  0  0  0  0  0  0  0
    2.9101    9.9783    0.7730 C   0  0  0  0  0  0  0  0  0  0  0  0
    2.4133   11.2849    0.7276 C   0  0  0  0  0  0  0  0  0  0  0  0
    1.2120   11.5590    0.0700 C   0  0  0  0  0  0  0  0  0  0  0  0
    0.4971   10.5229   -0.5475 C   0  0  0  0  0  0  0  0  0  0  0  0
   -0.8191   10.8034   -1.2187 C   0  0  0  0  0  0  0  0  0  0  0  0
   -1.9814   10.5203   -0.2721 C   0  0  0  0  0  0  0  0  0  0  0  0
    0.9870    9.2102   -0.4766 C   0  0  0  0  0  0  0  0  0  0  0  0
    2.8204    6.6383   -0.8583 C   0  0  0  0  0  0  0  0  0  0  0  0
    3.2940    5.1176   -0.2622 S   0  0  0  0  0  0  0  0  0  0  0  0
    3.3711    5.6026    1.3322 C   0  0  0  0  0  0  0  0  0  0  0  0
    3.1931    4.9008    2.5090 C   0  0  0  0  0  0  0  0  0  0  0  0
    2.9787    3.5809    2.7118 N   0  0  0  0  0  0  0  0  0  0  0  0
    2.2780    3.5609    3.8830 C   0  0  0  0  0  0  0  0  0  0  0  0
    1.7327    2.4612    4.5717 C   0  0  0  0  0  0  0  0  0  0  0  0
    1.4932    1.1946    4.1226 N   0  0  0  0  0  0  0  0  0  0  0  0
    1.0816    0.5601    5.2417 C   0  0  0  0  0  0  0  0  0  0  0  0
    0.7663   -0.7497    5.5125 C   0  0  0  0  0  0  0  0  0  0  0  0
    0.9275   -2.1795    4.6834 S   0  0  0  0  0  0  0  0  0  0  0  0
    1.1104    0.7940    2.7572 C   0  0  0  0  0  0  0  0  0  0  0  0
   -0.4100    0.6718    2.6129 C   0  0  0  0  0  0  0  0  0  0  0  0
    3.9340    2.5632    2.2495 C   0  0  0  0  0  0  0  0  0  0  0  0
    5.2326    2.6421    3.0522 C   0  0  0  0  0  0  0  0  0  0  0  0
    2.2872    6.8245   -2.2261 C   0  0  0  0  0  0  0  0  0  0  0  0
    1.4563    5.9702   -2.8294 C   0  0  0  0  0  0  0  0  0  0  0  0
    0.7965    6.5762   -3.9214 C   0  0  0  0  0  0  0  0  0  0  0  0
    1.3317    7.9135   -4.0068 C   0  0  0  0  0  0  0  0  0  0  0  0
    1.0104    8.8034   -4.8375 O   0  0  0  0  0  0  0  0  0  0  0  0
    2.2950    8.0729   -2.9545 N   0  0  0  0  0  0  0  0  0  0  0  0
    3.4008    9.0243   -2.9946 C   0  0  0  0  0  0  0  0  0  0  0  0
   -0.2942    5.8996   -4.2735 C   0  0  0  0  0  0  0  0  0  0  0  0
   -0.3823    4.6798   -3.4969 N   0  0  0  0  0  0  0  0  0  0  0  0
   -0.8675    3.4015   -4.0052 C   0  0  0  0  0  0  0  0  0  0  0  0
    0.6918    4.7714   -2.5516 C   0  0  0  0  0  0  0  0  0  0  0  0
    0.9090    3.9302   -1.6391 O   0  0  0  0  0  0  0  0  0  0  0  0
   -1.3238    6.3965   -5.2128 C   0  0  0  0  0  0  0  0  0  0  0  0
   -2.6445    6.1293   -5.1419 C   0  0  0  0  0  0  0  0  0  0  0  0
   -3.5345    6.2470   -6.2972 C   0  0  0  0  0  0  0  0  0  0  0  0
   -3.2811    6.8642   -7.3648 O   0  0  0  0  0  0  0  0  0  0  0  0
   -4.7264    5.4628   -6.0437 C   0  0  0  0  0  0  0  0  0  0  0  0
   -5.8067    5.2325   -6.9254 C   0  0  0  0  0  0  0  0  0  0  0  0
   -6.7767    4.3911   -6.4118 C   0  0  0  0  0  0  0  0  0  0  0  0
   -6.6824    3.7842   -5.1180 C   0  0  0  0  0  0  0  0  0  0  0  0
   -5.6219    3.9962   -4.2547 C   0  0  0  0  0  0  0  0  0  0  0  0
   -4.6377    4.8982   -4.7477 C   0  0  0  0  0  0  0  0  0  0  0  0
   -3.4221    5.4260   -4.0754 C   0  0  0  0  0  0  0  0  0  0  0  0
   -3.2973    5.6319   -2.7411 C   0  0  0  0  0  0  0  0  0  0  0  0
   -2.4058    6.6299   -2.2184 C   0  0  0  0  0  0  0  0  0  0  0  0
   -1.7024    7.4425   -1.7909 N   0  0  0  0  0  0  0  0  0  0  0  0
   -4.1844    5.0414   -1.7720 C   0  0  0  0  0  0  0  0  0  0  0  0
   -4.8919    4.5771   -0.9818 N   0  0  0  0  0  0  0  0  0  0  0  0
   -7.9981    3.0925   -5.3244 C   0  0  0  0  0  0  0  0  0  0  0  0
   -7.9875    1.5663   -5.6481 C   0  0  0  0  0  0  0  0  0  0  0  0
   -6.7273    1.2018   -6.4026 C   0  0  0  0  0  0  0  0  0  0  0  0
   -6.8228    1.7763   -7.6032 C   0  0  0  0  0  0  0  0  0  0  0  0
   -8.1425    2.5129   -7.6272 C   0  0  0  0  0  0  0  0  0  0  0  0
   -8.9704    1.5415   -6.8048 C   0  0  0  0  0  0  0  0  0  0  0  0
   -8.1004    3.7227   -6.6439 C   0  0  0  0  0  0  0  0  0  0  0  0
    2.7428  -11.1859    0.1661 H   0  0  0  0  0  0  0  0  0  0  0  0
   -0.0021   -6.0554   -2.3158 H   0  0  0  0  0  0  0  0  0  0  0  0
    2.1292   -9.5841   -5.3176 H   0  0  0  0  0  0  0  0  0  0  0  0
    0.1933   -7.3197   -7.1028 H   0  0  0  0  0  0  0  0  0  0  0  0
    2.9009   -6.7561   -7.3958 H   0  0  0  0  0  0  0  0  0  0  0  0
    1.6714   -5.0012   -8.9590 H   0  0  0  0  0  0  0  0  0  0  0  0
    0.5487   -3.1952   -7.4464 H   0  0  0  0  0  0  0  0  0  0  0  0
    1.0677   -3.8011   -4.9086 H   0  0  0  0  0  0  0  0  0  0  0  0
    3.3379   -4.4619   -6.1147 H   0  0  0  0  0  0  0  0  0  0  0  0
    2.9111   -5.7457   -4.9168 H   0  0  0  0  0  0  0  0  0  0  0  0
   -0.8292   -5.6689   -5.6976 H   0  0  0  0  0  0  0  0  0  0  0  0
    3.7719   -8.9379    1.9486 H   0  0  0  0  0  0  0  0  0  0  0  0
    4.8349   -8.9022    4.7373 H   0  0  0  0  0  0  0  0  0  0  0  0
    7.2359   -8.5181    4.3929 H   0  0  0  0  0  0  0  0  0  0  0  0
    9.0773   -7.0810    3.5669 H   0  0  0  0  0  0  0  0  0  0  0  0
    9.8202   -4.9950    2.4858 H   0  0  0  0  0  0  0  0  0  0  0  0
    8.1747   -3.2808    1.7917 H   0  0  0  0  0  0  0  0  0  0  0  0
    5.7638   -3.6467    2.1613 H   0  0  0  0  0  0  0  0  0  0  0  0
    3.9287   -5.0864    2.9659 H   0  0  0  0  0  0  0  0  0  0  0  0
   -1.9860   -5.8755    3.3892 H   0  0  0  0  0  0  0  0  0  0  0  0
   -3.3405   -6.9720    3.8514 H   0  0  0  0  0  0  0  0  0  0  0  0
   -2.7250   -8.4871    1.9085 H   0  0  0  0  0  0  0  0  0  0  0  0
   -3.2446   -6.8296    1.4136 H   0  0  0  0  0  0  0  0  0  0  0  0
   -1.4933   -7.2506    1.4074 H   0  0  0  0  0  0  0  0  0  0  0  0
   -1.1460   -5.3701    5.5012 H   0  0  0  0  0  0  0  0  0  0  0  0
   -1.5474   -4.2979    7.6929 H   0  0  0  0  0  0  0  0  0  0  0  0
   -2.3521   -5.0433    9.8914 H   0  0  0  0  0  0  0  0  0  0  0  0
   -1.5373   -3.9602   11.9523 H   0  0  0  0  0  0  0  0  0  0  0  0
    1.3532   -1.6569   12.0877 H   0  0  0  0  0  0  0  0  0  0  0  0
    0.1765   -2.6013   13.0517 H   0  0  0  0  0  0  0  0  0  0  0  0
   -0.3834    0.0607   11.5845 H   0  0  0  0  0  0  0  0  0  0  0  0
   -1.6203   -0.9120   12.4833 H   0  0  0  0  0  0  0  0  0  0  0  0
   -0.2208   -0.1894   13.3643 H   0  0  0  0  0  0  0  0  0  0  0  0
    1.0550   -1.4431    9.6138 H   0  0  0  0  0  0  0  0  0  0  0  0
    3.8458    9.7847    1.2851 H   0  0  0  0  0  0  0  0  0  0  0  0
    2.9654   12.0873    1.2030 H   0  0  0  0  0  0  0  0  0  0  0  0
    0.8418   12.5779    0.0422 H   0  0  0  0  0  0  0  0  0  0  0  0
   -0.9201   10.1742   -2.1284 H   0  0  0  0  0  0  0  0  0  0  0  0
   -0.8716   11.8646   -1.5420 H   0  0  0  0  0  0  0  0  0  0  0  0
   -1.9396    9.4715    0.0880 H   0  0  0  0  0  0  0  0  0  0  0  0
   -1.9404   11.1997    0.6067 H   0  0  0  0  0  0  0  0  0  0  0  0
   -2.9434   10.6714   -0.8027 H   0  0  0  0  0  0  0  0  0  0  0  0
    0.4225    8.4039   -0.9119 H   0  0  0  0  0  0  0  0  0  0  0  0
    1.4218    1.5536    2.0121 H   0  0  0  0  0  0  0  0  0  0  0  0
    1.5908   -0.1758    2.5039 H   0  0  0  0  0  0  0  0  0  0  0  0
   -0.6602    0.3422    1.5834 H   0  0  0  0  0  0  0  0  0  0  0  0
   -0.8253   -0.0703    3.3255 H   0  0  0  0  0  0  0  0  0  0  0  0
   -0.8840    1.6588    2.7950 H   0  0  0  0  0  0  0  0  0  0  0  0
    4.1581    2.7182    1.1727 H   0  0  0  0  0  0  0  0  0  0  0  0
    3.5440    1.5383    2.3614 H   0  0  0  0  0  0  0  0  0  0  0  0
    5.0213    2.4548    4.1270 H   0  0  0  0  0  0  0  0  0  0  0  0
    5.7027    3.6430    2.9342 H   0  0  0  0  0  0  0  0  0  0  0  0
    5.9375    1.8675    2.6875 H   0  0  0  0  0  0  0  0  0  0  0  0
    3.9753    9.0042   -2.0467 H   0  0  0  0  0  0  0  0  0  0  0  0
    4.0818    8.7680   -3.8303 H   0  0  0  0  0  0  0  0  0  0  0  0
    3.0074   10.0493   -3.1503 H   0  0  0  0  0  0  0  0  0  0  0  0
   -1.3131    2.8120   -3.1797 H   0  0  0  0  0  0  0  0  0  0  0  0
   -1.6310    3.5464   -4.7966 H   0  0  0  0  0  0  0  0  0  0  0  0
   -0.0195    2.8322   -4.4450 H   0  0  0  0  0  0  0  0  0  0  0  0
   -0.9609    6.9408   -6.0758 H   0  0  0  0  0  0  0  0  0  0  0  0
   -5.8701    5.6743   -7.9101 H   0  0  0  0  0  0  0  0  0  0  0  0
   -5.5683    3.4941   -3.3008 H   0  0  0  0  0  0  0  0  0  0  0  0
   -8.7915    3.4175   -4.6137 H   0  0  0  0  0  0  0  0  0  0  0  0
   -8.2356    0.8966   -4.7962 H   0  0  0  0  0  0  0  0  0  0  0  0
   -5.9305    0.5389   -6.0750 H   0  0  0  0  0  0  0  0  0  0  0  0
   -6.1140    1.6703   -8.4203 H   0  0  0  0  0  0  0  0  0  0  0  0
   -8.5417    2.7362   -8.6367 H   0  0  0  0  0  0  0  0  0  0  0  0
   -9.9832    1.9320   -6.5337 H   0  0  0  0  0  0  0  0  0  0  0  0
   -9.0744    0.5331   -7.2782 H   0  0  0  0  0  0  0  0  0  0  0  0
   -8.9482    4.4349   -6.7383 H   0  0  0  0  0  0  0  0  0  0  0  0
  1  2  2  3
  2  3  1  0
  3  4  2  0
  3  5  1  0
  5  6  2  0
  6  7  1  0
  7  8  2  0
  8  9  1  0
  9 10  2  0
 10 11  1  0
 11 12  2  3
 12 13  1  0
 13 14  3  0
 12 15  1  0
 15 16  3  0
  8 17  1  0
 17 18  1  0
 18 19  1  0
 19 20  2  0
 20 21  1  0
 21 22  1  0
 21 23  1  0
  1 24  1  0
 24 25  2  0
 25 26  1  0
 26 27  2  0
 27 28  1  0
 28 29  2  0
 29 30  1  0
 30 31  2  0
 31 32  1  0
 32 33  2  0
 33 34  1  0
 34 35  2  0
 35 36  1  0
 36 37  2  0
 27 38  1  0
 38 39  2  0
 39 40  1  0
 40 41  1  0
 41 42  1  0
 42 43  1  0
 40 44  2  0
 44 45  1  0
 39 46  1  0
 46 47  2  0
 47 48  1  0
 47 49  1  0
 49 50  2  0
 50 51  1  0
 51 52  2  0
 52 53  1  0
 53 54  2  0
 54 55  1  0
 55 56  1  0
 56 57  1  0
 55 58  2  0
 50 59  1  0
 59 60  1  0
 60 61  1  0
 61 62  1  0
 62 63  1  0
 63 64  1  0
 64 65  2  0
 65 66  1  0
 66 67  1  0
 64 68  1  0
 68 69  1  0
 69 70  1  0
 70 71  1  0
 71 72  1  0
 72 73  1  0
 73 74  2  0
 74 75  1  0
 75 76  2  0
 76 77  1  0
 77 78  1  0
 78 79  1  0
 77 80  2  0
 72 81  2  0
 81 82  1  0
 82 83  1  0
 83 84  1  0
 84 85  1  0
 85 86  1  0
 86 87  1  0
 87 88  1  0
 88 89  1  0
 89 90  1  0
 90 91  1  0
 88 92  1  0
 92 93  1  0
 85 94  1  0
 94 95  1  0
 81 96  1  0
 96 97  2  0
 97 98  1  0
 98 99  1  0
 99100  2  0
 99101  1  0
101102  1  0
 98103  2  0
103104  1  0
104105  1  0
104106  1  0
106107  2  0
103108  1  0
108109  2  3
109110  1  0
110111  2  0
110112  1  0
112113  2  0
113114  1  0
114115  2  0
115116  1  0
116117  2  0
117118  1  0
118119  2  3
119120  1  0
120121  3  0
119122  1  0
122123  3  0
115124  1  0
124125  1  0
125126  1  0
126127  2  0
127128  1  0
128129  1  0
128130  1  0
 11  2  1  0
 23 17  1  0
 45 24  1  0
 91 49  1  0
101 96  1  0
118109  1  0
130124  1  0
 10  5  1  0
 22 18  1  0
 44 26  1  0
 58 51  1  0
 90 59  2  0
106 97  1  0
117112  1  0
129125  1  0
 23  7  1  0
 37 28  1  0
 48 38  1  0
 89 61  2  0
130114  1  0
 36 31  1  0
 87 62  2  0
 67 63  2  0
 86 68  2  0
 84 69  2  0
 83 71  2  0
 80 73  1  0
  1131  1  0
  6132  1  0
  9133  1  0
 17134  1  0
 18135  1  0
 19136  1  0
 20137  1  0
 21138  1  0
 22139  1  0
 22140  1  0
 23141  1  0
 25142  1  0
 29143  1  0
 30144  1  0
 32145  1  0
 33146  1  0
 34147  1  0
 35148  1  0
 37149  1  0
 42150  1  0
 42151  1  0
 43152  1  0
 43153  1  0
 43154  1  0
 46155  1  0
 52156  1  0
 53157  1  0
 54158  1  0
 56159  1  0
 56160  1  0
 57161  1  0
 57162  1  0
 57163  1  0
 58164  1  0
 74165  1  0
 75166  1  0
 76167  1  0
 78168  1  0
 78169  1  0
 79170  1  0
 79171  1  0
 79172  1  0
 80173  1  0
 92174  1  0
 92175  1  0
 93176  1  0
 93177  1  0
 93178  1  0
 94179  1  0
 94180  1  0
 95181  1  0
 95182  1  0
 95183  1  0
102184  1  0
102185  1  0
102186  1  0
105187  1  0
105188  1  0
105189  1  0
108190  1  0
113191  1  0
116192  1  0
124193  1  0
125194  1  0
126195  1  0
127196  1  0
128197  1  0
129198  1  0
129199  1  0
130200  1  0
M  END

