
     RDKit          3D

229254  0  0  0  0  0  0  0  0999 V2000
   -0.4266   -2.3931   -7.5034 C   0  0  0  0  0  0  0  0  0  0  0  0
    0.7841   -2.8036   -7.9039 C   0  0  0  0  0  0  0  0  0  0  0  0
    1.0226   -3.3362   -9.2401 C   0  0  0  0  0  0  0  0  0  0  0  0
    0.1346   -3.7304  -10.0465 O   0  0  0  0  0  0  0  0  0  0  0  0
    2.4279   -3.1844   -9.5503 C   0  0  0  0  0  0  0  0  0  0  0  0
    3.0587   -3.4200  -10.7918 C   0  0  0  0  0  0  0  0  0  0  0  0
    4.4057   -3.1009  -10.8050 C   0  0  0  0  0  0  0  0  0  0  0  0
    5.0979   -2.5906   -9.6599 C   0  0  0  0  0  0  0  0  0  0  0  0
    4.4847   -2.3435   -8.4455 C   0  0  0  0  0  0  0  0  0  0  0  0
    3.0966   -2.6468   -8.4140 C   0  0  0  0  0  0  0  0  0  0  0  0
    2.1160   -2.4883   -7.3048 C   0  0  0  0  0  0  0  0  0  0  0  0
    2.3973   -2.4164   -5.9785 C   0  0  0  0  0  0  0  0  0  0  0  0
    3.6903   -2.0404   -5.4722 C   0  0  0  0  0  0  0  0  0  0  0  0
    4.7214   -1.7247   -5.0565 N   0  0  0  0  0  0  0  0  0  0  0  0
    1.4356   -2.8134   -4.9768 C   0  0  0  0  0  0  0  0  0  0  0  0
    0.6768   -3.1454   -4.1669 N   0  0  0  0  0  0  0  0  0  0  0  0
    6.3714   -2.4994  -10.4488 C   0  0  0  0  0  0  0  0  0  0  0  0
    6.8578   -1.0815  -10.8753 C   0  0  0  0  0  0  0  0  0  0  0  0
    5.6689   -0.1616  -11.0453 C   0  0  0  0  0  0  0  0  0  0  0  0
    4.9970   -0.6042  -12.1095 C   0  0  0  0  0  0  0  0  0  0  0  0
    5.7550   -1.8042  -12.6361 C   0  0  0  0  0  0  0  0  0  0  0  0
    7.1709   -1.3394  -12.3391 C   0  0  0  0  0  0  0  0  0  0  0  0
    5.6507   -2.9916  -11.6293 C   0  0  0  0  0  0  0  0  0  0  0  0
   -0.6277   -1.3067   -6.5417 C   0  0  0  0  0  0  0  0  0  0  0  0
   -0.1732    0.0004   -6.6979 C   0  0  0  0  0  0  0  0  0  0  0  0
   -0.6972    0.6826   -5.6182 C   0  0  0  0  0  0  0  0  0  0  0  0
   -0.6070    2.0367   -5.2310 C   0  0  0  0  0  0  0  0  0  0  0  0
    0.3365    2.9853   -5.8542 C   0  0  0  0  0  0  0  0  0  0  0  0
    0.1714    4.3652   -5.9426 C   0  0  0  0  0  0  0  0  0  0  0  0
    1.3365    5.0422   -6.3222 C   0  0  0  0  0  0  0  0  0  0  0  0
    2.4228    4.1994   -6.5286 C   0  0  0  0  0  0  0  0  0  0  0  0
    4.1656    4.7556   -6.7787 Si  0  0  0  0  0  4  0  0  0  0  0  0
    4.8216    5.4986   -5.1760 C   0  0  0  0  0  0  0  0  0  0  0  0
    4.2629    4.8080   -3.9375 C   0  0  0  0  0  0  0  0  0  0  0  0
    4.1590    6.0923   -8.1029 C   0  0  0  0  0  0  0  0  0  0  0  0
    5.5058    6.8037   -8.2029 C   0  0  0  0  0  0  0  0  0  0  0  0
    5.2555    3.3350   -7.3727 C   0  0  0  0  0  0  0  0  0  0  0  0
    5.6096    2.3541   -6.2620 C   0  0  0  0  0  0  0  0  0  0  0  0
    1.9393    2.6227   -6.2270 S   0  0  0  0  0  0  0  0  0  0  0  0
   -1.3528    2.3849   -4.0882 C   0  0  0  0  0  0  0  0  0  0  0  0
   -2.0291    1.4378   -3.3371 C   0  0  0  0  0  0  0  0  0  0  0  0
   -1.9956    0.0662   -3.6428 C   0  0  0  0  0  0  0  0  0  0  0  0
   -2.2143   -0.9569   -2.6020 C   0  0  0  0  0  0  0  0  0  0  0  0
   -2.5292   -2.2988   -2.8126 C   0  0  0  0  0  0  0  0  0  0  0  0
   -2.2628   -3.1165   -1.7038 C   0  0  0  0  0  0  0  0  0  0  0  0
   -1.7289   -2.4327   -0.6132 C   0  0  0  0  0  0  0  0  0  0  0  0
   -0.9080   -3.2091    0.8544 Si  0  0  0  0  0  4  0  0  0  0  0  0
   -0.9262   -2.0815    2.3704 C   0  0  0  0  0  0  0  0  0  0  0  0
   -0.3306   -0.6990    2.1014 C   0  0  0  0  0  0  0  0  0  0  0  0
    0.8630   -3.6241    0.3448 C   0  0  0  0  0  0  0  0  0  0  0  0
    1.8379   -3.6374    1.5197 C   0  0  0  0  0  0  0  0  0  0  0  0
   -1.8495   -4.7868    1.2651 C   0  0  0  0  0  0  0  0  0  0  0  0
   -1.2122   -5.5589    2.4139 C   0  0  0  0  0  0  0  0  0  0  0  0
   -1.5648   -0.8263   -1.0564 S   0  0  0  0  0  0  0  0  0  0  0  0
   -1.3878   -0.2550   -4.8667 C   0  0  0  0  0  0  0  0  0  0  0  0
   -1.3352   -1.4290   -5.4394 O   0  0  0  0  0  0  0  0  0  0  0  0
   -2.6108    2.1066   -2.2888 C   0  0  0  0  0  0  0  0  0  0  0  0
   -2.2399    3.4317   -2.4686 C   0  0  0  0  0  0  0  0  0  0  0  0
   -1.4789    3.5725   -3.5371 O   0  0  0  0  0  0  0  0  0  0  0  0
   -2.6240    4.5204   -1.5696 C   0  0  0  0  0  0  0  0  0  0  0  0
   -3.9433    4.8015   -1.1764 C   0  0  0  0  0  0  0  0  0  0  0  0
   -5.1284    4.1852   -1.7994 C   0  0  0  0  0  0  0  0  0  0  0  0
   -5.5199    4.5746   -3.0877 C   0  0  0  0  0  0  0  0  0  0  0  0
   -6.5885    3.9343   -3.7202 C   0  0  0  0  0  0  0  0  0  0  0  0
   -7.2533    2.8820   -3.0833 C   0  0  0  0  0  0  0  0  0  0  0  0
   -6.8585    2.4675   -1.8018 C   0  0  0  0  0  0  0  0  0  0  0  0
   -7.5453    1.3085   -1.1292 C   0  0  0  0  0  0  0  0  0  0  0  0
   -8.5855    1.7979   -0.1293 C   0  0  0  0  0  0  0  0  0  0  0  0
   -5.8078    3.1386   -1.1518 C   0  0  0  0  0  0  0  0  0  0  0  0
   -3.9746    5.5978   -0.0314 C   0  0  0  0  0  0  0  0  0  0  0  0
   -5.1943    5.8834    1.1255 S   0  0  0  0  0  0  0  0  0  0  0  0
   -4.0627    6.4681    2.2476 C   0  0  0  0  0  0  0  0  0  0  0  0
   -3.9751    6.3729    3.6135 C   0  0  0  0  0  0  0  0  0  0  0  0
   -4.9384    6.3502    4.6261 C   0  0  0  0  0  0  0  0  0  0  0  0
   -4.5107    6.1326    5.9737 C   0  0  0  0  0  0  0  0  0  0  0  0
   -5.4759    6.1137    6.9242 N   0  0  0  0  0  0  0  0  0  0  0  0
   -6.8073    6.3900    5.9798 S   0  0  0  0  0  0  0  0  0  0  0  0
   -6.2628    6.5305    4.4196 N   0  0  0  0  0  0  0  0  0  0  0  0
   -3.1539    5.8513    6.2237 C   0  0  0  0  0  0  0  0  0  0  0  0
   -2.5892    5.1827    7.2768 C   0  0  0  0  0  0  0  0  0  0  0  0
   -3.2519    4.3279    8.5843 S   0  0  0  0  0  0  0  0  0  0  0  0
   -1.9787    3.2070    8.5881 C   0  0  0  0  0  0  0  0  0  0  0  0
   -1.8628    1.9387    9.1704 C   0  0  0  0  0  0  0  0  0  0  0  0
   -2.8327    1.4248   10.1551 C   0  0  0  0  0  0  0  0  0  0  0  0
   -3.0711    2.1488   11.3357 C   0  0  0  0  0  0  0  0  0  0  0  0
   -4.0303    1.7055   12.2491 C   0  0  0  0  0  0  0  0  0  0  0  0
   -4.7591    0.5431   11.9919 C   0  0  0  0  0  0  0  0  0  0  0  0
   -4.5309   -0.1903   10.8190 C   0  0  0  0  0  0  0  0  0  0  0  0
   -5.3618   -1.4061   10.5150 C   0  0  0  0  0  0  0  0  0  0  0  0
   -6.5248   -1.0464    9.5958 C   0  0  0  0  0  0  0  0  0  0  0  0
   -3.5729    0.2605    9.8972 C   0  0  0  0  0  0  0  0  0  0  0  0
   -0.8444    1.1893    8.5404 C   0  0  0  0  0  0  0  0  0  0  0  0
   -0.1461    2.1183    7.2985 S   0  0  0  0  0  0  0  0  0  0  0  0
   -1.1097    3.4644    7.5588 C   0  0  0  0  0  0  0  0  0  0  0  0
   -1.4483    4.5875    6.8033 C   0  0  0  0  0  0  0  0  0  0  0  0
   -1.2281    4.8585    5.4880 N   0  0  0  0  0  0  0  0  0  0  0  0
   -2.2291    5.7407    5.1730 C   0  0  0  0  0  0  0  0  0  0  0  0
   -2.6218    6.1649    3.8852 C   0  0  0  0  0  0  0  0  0  0  0  0
   -1.8699    6.2261    2.7479 N   0  0  0  0  0  0  0  0  0  0  0  0
   -2.7835    6.3884    1.7667 C   0  0  0  0  0  0  0  0  0  0  0  0
   -2.7372    5.9212    0.4634 C   0  0  0  0  0  0  0  0  0  0  0  0
   -1.5357    5.2064   -0.4575 S   0  0  0  0  0  0  0  0  0  0  0  0
   -0.4689    6.6707    2.6637 C   0  0  0  0  0  0  0  0  0  0  0  0
   -0.3931    8.1582    2.3316 C   0  0  0  0  0  0  0  0  0  0  0  0
   -0.6226    3.8863    4.5573 C   0  0  0  0  0  0  0  0  0  0  0  0
   -1.6146    2.7717    4.2208 C   0  0  0  0  0  0  0  0  0  0  0  0
   -0.5507   -0.2405    8.7113 C   0  0  0  0  0  0  0  0  0  0  0  0
   -0.6081   -0.9850    9.8832 C   0  0  0  0  0  0  0  0  0  0  0  0
   -0.3476   -2.3509    9.6828 C   0  0  0  0  0  0  0  0  0  0  0  0
   -0.4833   -3.5538   11.0073 S   0  0  0  0  0  0  0  0  0  0  0  0
    1.3042   -3.6108   11.3769 C   0  0  0  0  0  0  0  0  0  0  0  0
    1.7370   -2.4115   12.2147 C   0  0  0  0  0  0  0  0  0  0  0  0
   -0.0589   -2.6843    8.3540 C   0  0  0  0  0  0  0  0  0  0  0  0
   -0.1927   -1.2777    7.4392 S   0  0  0  0  0  0  0  0  0  0  0  0
    0.0255   -4.0559    7.8161 C   0  0  0  0  0  0  0  0  0  0  0  0
    0.7240   -4.4320    6.7243 C   0  0  0  0  0  0  0  0  0  0  0  0
    1.8444   -3.7073    6.0976 C   0  0  0  0  0  0  0  0  0  0  0  0
    2.2258   -2.5364    6.3619 O   0  0  0  0  0  0  0  0  0  0  0  0
    2.5742   -4.6268    5.2478 C   0  0  0  0  0  0  0  0  0  0  0  0
    3.7858   -4.3767    4.5621 C   0  0  0  0  0  0  0  0  0  0  0  0
    4.3619   -5.5068    4.0085 C   0  0  0  0  0  0  0  0  0  0  0  0
    3.7897   -6.8132    4.1310 C   0  0  0  0  0  0  0  0  0  0  0  0
    2.5903   -7.0589    4.7779 C   0  0  0  0  0  0  0  0  0  0  0  0
    1.9656   -5.9025    5.3211 C   0  0  0  0  0  0  0  0  0  0  0  0
    0.7173   -5.7985    6.1178 C   0  0  0  0  0  0  0  0  0  0  0  0
   -0.3489   -6.6385    6.0464 C   0  0  0  0  0  0  0  0  0  0  0  0
   -1.6183   -6.3189    6.6515 C   0  0  0  0  0  0  0  0  0  0  0  0
   -2.6396   -6.0633    7.1362 N   0  0  0  0  0  0  0  0  0  0  0  0
   -0.3354   -7.8259    5.2288 C   0  0  0  0  0  0  0  0  0  0  0  0
   -0.3303   -8.7755    4.5689 N   0  0  0  0  0  0  0  0  0  0  0  0
    4.9600   -7.4128    3.4076 C   0  0  0  0  0  0  0  0  0  0  0  0
    4.7106   -7.8817    1.9432 C   0  0  0  0  0  0  0  0  0  0  0  0
    6.0757   -8.0458    1.3213 C   0  0  0  0  0  0  0  0  0  0  0  0
    6.5783   -6.8133    1.1804 C   0  0  0  0  0  0  0  0  0  0  0  0
    5.5360   -5.8604    1.7112 C   0  0  0  0  0  0  0  0  0  0  0  0
    4.2887   -6.5995    1.2503 C   0  0  0  0  0  0  0  0  0  0  0  0
    5.5287   -6.0691    3.2547 C   0  0  0  0  0  0  0  0  0  0  0  0
   -1.3026   -2.7252   -8.0433 H   0  0  0  0  0  0  0  0  0  0  0  0
    2.5353   -3.7850  -11.6643 H   0  0  0  0  0  0  0  0  0  0  0  0
    5.0407   -1.9148   -7.6287 H   0  0  0  0  0  0  0  0  0  0  0  0
    7.1664   -3.1863  -10.0876 H   0  0  0  0  0  0  0  0  0  0  0  0
    7.6854   -0.6610  -10.2724 H   0  0  0  0  0  0  0  0  0  0  0  0
    5.4380    0.7256  -10.4648 H   0  0  0  0  0  0  0  0  0  0  0  0
    4.1251   -0.1324  -12.5481 H   0  0  0  0  0  0  0  0  0  0  0  0
    5.5516   -2.0601  -13.6966 H   0  0  0  0  0  0  0  0  0  0  0  0
    7.9470   -2.1270  -12.4993 H   0  0  0  0  0  0  0  0  0  0  0  0
    7.4567   -0.4166  -12.8977 H   0  0  0  0  0  0  0  0  0  0  0  0
    6.0274   -3.9636  -12.0102 H   0  0  0  0  0  0  0  0  0  0  0  0
    0.4032    0.3968   -7.5227 H   0  0  0  0  0  0  0  0  0  0  0  0
   -0.7498    4.8742   -5.6932 H   0  0  0  0  0  0  0  0  0  0  0  0
    1.3981    6.1213   -6.3752 H   0  0  0  0  0  0  0  0  0  0  0  0
    4.5385    6.5711   -5.1458 H   0  0  0  0  0  0  0  0  0  0  0  0
    5.9294    5.4288   -5.1796 H   0  0  0  0  0  0  0  0  0  0  0  0
    4.7390    5.2400   -3.0331 H   0  0  0  0  0  0  0  0  0  0  0  0
    3.1671    4.9712   -3.8683 H   0  0  0  0  0  0  0  0  0  0  0  0
    4.4681    3.7188   -3.9617 H   0  0  0  0  0  0  0  0  0  0  0  0
    3.3722    6.8395   -7.8578 H   0  0  0  0  0  0  0  0  0  0  0  0
    3.9132    5.6257   -9.0815 H   0  0  0  0  0  0  0  0  0  0  0  0
    5.4499    7.5848   -8.9900 H   0  0  0  0  0  0  0  0  0  0  0  0
    5.7583    7.2955   -7.2399 H   0  0  0  0  0  0  0  0  0  0  0  0
    6.3083    6.0876   -8.4735 H   0  0  0  0  0  0  0  0  0  0  0  0
    6.1945    3.7585   -7.7853 H   0  0  0  0  0  0  0  0  0  0  0  0
    4.7251    2.7989   -8.1890 H   0  0  0  0  0  0  0  0  0  0  0  0
    6.2065    1.5177   -6.6870 H   0  0  0  0  0  0  0  0  0  0  0  0
    6.2194    2.8535   -5.4809 H   0  0  0  0  0  0  0  0  0  0  0  0
    4.6949    1.9264   -5.8028 H   0  0  0  0  0  0  0  0  0  0  0  0
   -2.8748   -2.6901   -3.7588 H   0  0  0  0  0  0  0  0  0  0  0  0
   -2.3796   -4.1927   -1.7301 H   0  0  0  0  0  0  0  0  0  0  0  0
   -0.3364   -2.5784    3.1689 H   0  0  0  0  0  0  0  0  0  0  0  0
   -1.9706   -1.9699    2.7279 H   0  0  0  0  0  0  0  0  0  0  0  0
   -1.0915   -0.0388    1.6419 H   0  0  0  0  0  0  0  0  0  0  0  0
    0.5521   -0.7585    1.4281 H   0  0  0  0  0  0  0  0  0  0  0  0
   -0.0031   -0.2405    3.0588 H   0  0  0  0  0  0  0  0  0  0  0  0
    1.2035   -2.8679   -0.3966 H   0  0  0  0  0  0  0  0  0  0  0  0
    0.8651   -4.6187   -0.1485 H   0  0  0  0  0  0  0  0  0  0  0  0
    2.8542   -3.8855    1.1508 H   0  0  0  0  0  0  0  0  0  0  0  0
    1.5483   -4.3925    2.2744 H   0  0  0  0  0  0  0  0  0  0  0  0
    1.8950   -2.6402    1.9988 H   0  0  0  0  0  0  0  0  0  0  0  0
   -1.8804   -5.4330    0.3634 H   0  0  0  0  0  0  0  0  0  0  0  0
   -2.8919   -4.5129    1.5367 H   0  0  0  0  0  0  0  0  0  0  0  0
   -0.2030   -5.9182    2.1241 H   0  0  0  0  0  0  0  0  0  0  0  0
   -1.1399   -4.9242    3.3235 H   0  0  0  0  0  0  0  0  0  0  0  0
   -1.8339   -6.4480    2.6435 H   0  0  0  0  0  0  0  0  0  0  0  0
   -3.2129    1.6881   -1.4923 H   0  0  0  0  0  0  0  0  0  0  0  0
   -4.9899    5.3653   -3.6059 H   0  0  0  0  0  0  0  0  0  0  0  0
   -6.8857    4.2360   -4.7158 H   0  0  0  0  0  0  0  0  0  0  0  0
   -8.0591    2.3791   -3.5970 H   0  0  0  0  0  0  0  0  0  0  0  0
   -6.7900    0.6785   -0.6046 H   0  0  0  0  0  0  0  0  0  0  0  0
   -8.0394    0.6610   -1.8848 H   0  0  0  0  0  0  0  0  0  0  0  0
   -9.3502    2.4216   -0.6439 H   0  0  0  0  0  0  0  0  0  0  0  0
   -8.1023    2.3972    0.6738 H   0  0  0  0  0  0  0  0  0  0  0  0
   -9.0924    0.9240    0.3323 H   0  0  0  0  0  0  0  0  0  0  0  0
   -5.4915    2.8199   -0.1648 H   0  0  0  0  0  0  0  0  0  0  0  0
   -2.5149    3.0562   11.5482 H   0  0  0  0  0  0  0  0  0  0  0  0
   -4.2093    2.2659   13.1568 H   0  0  0  0  0  0  0  0  0  0  0  0
   -5.5038    0.2167   12.7070 H   0  0  0  0  0  0  0  0  0  0  0  0
   -4.7347   -2.1851   10.0298 H   0  0  0  0  0  0  0  0  0  0  0  0
   -5.7664   -1.8438   11.4536 H   0  0  0  0  0  0  0  0  0  0  0  0
   -7.1233   -0.2226   10.0359 H   0  0  0  0  0  0  0  0  0  0  0  0
   -6.1470   -0.7248    8.6044 H   0  0  0  0  0  0  0  0  0  0  0  0
   -7.1838   -1.9305    9.4597 H   0  0  0  0  0  0  0  0  0  0  0  0
   -3.4125   -0.2855    8.9752 H   0  0  0  0  0  0  0  0  0  0  0  0
    0.0457    6.5241    3.6378 H   0  0  0  0  0  0  0  0  0  0  0  0
    0.0665    6.0928    1.8839 H   0  0  0  0  0  0  0  0  0  0  0  0
   -0.9848    8.7593    3.0599 H   0  0  0  0  0  0  0  0  0  0  0  0
   -0.7881    8.3368    1.3060 H   0  0  0  0  0  0  0  0  0  0  0  0
    0.6663    8.4906    2.3610 H   0  0  0  0  0  0  0  0  0  0  0  0
   -0.3110    4.3450    3.6123 H   0  0  0  0  0  0  0  0  0  0  0  0
    0.3049    3.4679    4.9962 H   0  0  0  0  0  0  0  0  0  0  0  0
   -2.3929    3.1485    3.5218 H   0  0  0  0  0  0  0  0  0  0  0  0
   -1.0863    1.9274    3.7420 H   0  0  0  0  0  0  0  0  0  0  0  0
   -2.1249    2.3999    5.1298 H   0  0  0  0  0  0  0  0  0  0  0  0
   -0.8554   -0.5679   10.8514 H   0  0  0  0  0  0  0  0  0  0  0  0
    1.5065   -4.5408   11.9489 H   0  0  0  0  0  0  0  0  0  0  0  0
    1.8989   -3.6511   10.4393 H   0  0  0  0  0  0  0  0  0  0  0  0
    1.1582   -2.3722   13.1632 H   0  0  0  0  0  0  0  0  0  0  0  0
    2.8184   -2.5059   12.4583 H   0  0  0  0  0  0  0  0  0  0  0  0
    1.5793   -1.4678   11.6539 H   0  0  0  0  0  0  0  0  0  0  0  0
   -0.5209   -4.8079    8.3661 H   0  0  0  0  0  0  0  0  0  0  0  0
    4.2521   -3.4022    4.5178 H   0  0  0  0  0  0  0  0  0  0  0  0
    2.2155   -8.0626    4.8892 H   0  0  0  0  0  0  0  0  0  0  0  0
    5.5726   -8.0942    4.0370 H   0  0  0  0  0  0  0  0  0  0  0  0
    4.0268   -8.7483    1.8262 H   0  0  0  0  0  0  0  0  0  0  0  0
    6.5340   -8.9622    0.9622 H   0  0  0  0  0  0  0  0  0  0  0  0
    7.5161   -6.5621    0.6941 H   0  0  0  0  0  0  0  0  0  0  0  0
    5.6307   -4.8108    1.3656 H   0  0  0  0  0  0  0  0  0  0  0  0
    3.3341   -6.1800    1.6292 H   0  0  0  0  0  0  0  0  0  0  0  0
    4.2145   -6.6945    0.1381 H   0  0  0  0  0  0  0  0  0  0  0  0
    6.5052   -5.9194    3.7661 H   0  0  0  0  0  0  0  0  0  0  0  0
  1  2  2  3
  2  3  1  0
  3  4  2  0
  3  5  1  0
  5  6  2  0
  6  7  1  0
  7  8  2  0
  8  9  1  0
  9 10  2  0
 10 11  1  0
 11 12  2  3
 12 13  1  0
 13 14  3  0
 12 15  1  0
 15 16  3  0
  8 17  1  0
 17 18  1  0
 18 19  1  0
 19 20  2  0
 20 21  1  0
 21 22  1  0
 21 23  1  0
  1 24  1  0
 24 25  2  0
 25 26  1  0
 26 27  2  0
 27 28  1  0
 28 29  2  0
 29 30  1  0
 30 31  2  0
 31 32  1  0
 32 33  1  0
 33 34  1  0
 32 35  1  0
 35 36  1  0
 32 37  1  0
 37 38  1  0
 31 39  1  0
 27 40  1  0
 40 41  2  0
 41 42  1  0
 42 43  1  0
 43 44  2  0
 44 45  1  0
 45 46  2  0
 46 47  1  0
 47 48  1  0
 48 49  1  0
 47 50  1  0
 50 51  1  0
 47 52  1  0
 52 53  1  0
 46 54  1  0
 42 55  2  0
 55 56  1  0
 41 57  1  0
 57 58  2  0
 58 59  1  0
 58 60  1  0
 60 61  2  0
 61 62  1  0
 62 63  2  0
 63 64  1  0
 64 65  2  0
 65 66  1  0
 66 67  1  0
 67 68  1  0
 66 69  2  0
 61 70  1  0
 70 71  1  0
 71 72  1  0
 72 73  1  0
 73 74  1  0
 74 75  1  0
 75 76  2  0
 76 77  1  0
 77 78  1  0
 75 79  1  0
 79 80  1  0
 80 81  1  0
 81 82  1  0
 82 83  1  0
 83 84  1  0
 84 85  2  0
 85 86  1  0
 86 87  2  0
 87 88  1  0
 88 89  1  0
 89 90  1  0
 88 91  2  0
 83 92  2  0
 92 93  1  0
 93 94  1  0
 94 95  1  0
 95 96  1  0
 96 97  1  0
 97 98  1  0
 98 99  1  0
 99100  1  0
100101  1  0
101102  1  0
 99103  1  0
103104  1  0
 96105  1  0
105106  1  0
 92107  1  0
107108  2  0
108109  1  0
109110  1  0
110111  1  0
111112  1  0
109113  2  0
113114  1  0
113115  1  0
115116  2  3
116117  1  0
117118  2  0
117119  1  0
119120  2  0
120121  1  0
121122  2  0
122123  1  0
123124  2  0
124125  1  0
125126  2  3
126127  1  0
127128  3  0
126129  1  0
129130  3  0
122131  1  0
131132  1  0
132133  1  0
133134  2  0
134135  1  0
135136  1  0
135137  1  0
 11  2  1  0
 23 17  1  0
 56 24  1  0
102 60  1  0
114107  1  0
125116  1  0
137131  1  0
 10  5  1  0
 22 18  1  0
 55 26  1  0
 69 62  1  0
101 70  2  0
124119  1  0
136132  1  0
 23  7  1  0
 39 28  1  0
 59 40  1  0
100 72  2  0
137121  1  0
 54 43  1  0
 98 73  2  0
 78 74  2  0
 97 79  2  0
 95 80  2  0
 94 82  2  0
 91 84  1  0
  1138  1  0
  6139  1  0
  9140  1  0
 17141  1  0
 18142  1  0
 19143  1  0
 20144  1  0
 21145  1  0
 22146  1  0
 22147  1  0
 23148  1  0
 25149  1  0
 29150  1  0
 30151  1  0
 33152  1  0
 33153  1  0
 34154  1  0
 34155  1  0
 34156  1  0
 35157  1  0
 35158  1  0
 36159  1  0
 36160  1  0
 36161  1  0
 37162  1  0
 37163  1  0
 38164  1  0
 38165  1  0
 38166  1  0
 44167  1  0
 45168  1  0
 48169  1  0
 48170  1  0
 49171  1  0
 49172  1  0
 49173  1  0
 50174  1  0
 50175  1  0
 51176  1  0
 51177  1  0
 51178  1  0
 52179  1  0
 52180  1  0
 53181  1  0
 53182  1  0
 53183  1  0
 57184  1  0
 63185  1  0
 64186  1  0
 65187  1  0
 67188  1  0
 67189  1  0
 68190  1  0
 68191  1  0
 68192  1  0
 69193  1  0
 85194  1  0
 86195  1  0
 87196  1  0
 89197  1  0
 89198  1  0
 90199  1  0
 90200  1  0
 90201  1  0
 91202  1  0
103203  1  0
103204  1  0
104205  1  0
104206  1  0
104207  1  0
105208  1  0
105209  1  0
106210  1  0
106211  1  0
106212  1  0
108213  1  0
111214  1  0
111215  1  0
112216  1  0
112217  1  0
112218  1  0
115219  1  0
120220  1  0
123221  1  0
131222  1  0
132223  1  0
133224  1  0
134225  1  0
135226  1  0
136227  1  0
136228  1  0
137229  1  0
M  END

