
     RDKit          3D

169190  0  0  0  0  0  0  0  0999 V2000
   -8.7761    1.1149   -0.2443 C   0  0  0  0  0  0  0  0  0  0  0  0
   -8.8794    1.3169   -1.5727 C   0  0  0  0  0  0  0  0  0  0  0  0
   -8.0753    2.2655   -2.3625 C   0  0  0  0  0  0  0  0  0  0  0  0
   -7.3260    3.1737   -1.9143 O   0  0  0  0  0  0  0  0  0  0  0  0
   -8.1993    1.9269   -3.7626 C   0  0  0  0  0  0  0  0  0  0  0  0
   -7.5099    2.5211   -4.8438 C   0  0  0  0  0  0  0  0  0  0  0  0
   -7.7093    1.8824   -6.0536 C   0  0  0  0  0  0  0  0  0  0  0  0
   -8.5318    0.7180   -6.1937 C   0  0  0  0  0  0  0  0  0  0  0  0
   -9.2198    0.1384   -5.1385 C   0  0  0  0  0  0  0  0  0  0  0  0
   -9.0543    0.8020   -3.8912 C   0  0  0  0  0  0  0  0  0  0  0  0
   -9.6043    0.4529   -2.5503 C   0  0  0  0  0  0  0  0  0  0  0  0
  -10.7007   -0.3112   -2.2999 C   0  0  0  0  0  0  0  0  0  0  0  0
  -11.4280   -0.9927   -3.3421 C   0  0  0  0  0  0  0  0  0  0  0  0
  -12.0295   -1.5341   -4.1707 N   0  0  0  0  0  0  0  0  0  0  0  0
  -11.3082   -0.3882   -0.9953 C   0  0  0  0  0  0  0  0  0  0  0  0
  -11.8051   -0.4476    0.0482 N   0  0  0  0  0  0  0  0  0  0  0  0
   -8.1762    0.6225   -7.6468 C   0  0  0  0  0  0  0  0  0  0  0  0
   -7.1546   -0.4760   -8.0731 C   0  0  0  0  0  0  0  0  0  0  0  0
   -6.1685   -0.7353   -6.9544 C   0  0  0  0  0  0  0  0  0  0  0  0
   -5.4143    0.3585   -6.8481 C   0  0  0  0  0  0  0  0  0  0  0  0
   -5.9185    1.3318   -7.8888 C   0  0  0  0  0  0  0  0  0  0  0  0
   -6.2664    0.3434   -8.9886 C   0  0  0  0  0  0  0  0  0  0  0  0
   -7.3479    1.8254   -7.5091 C   0  0  0  0  0  0  0  0  0  0  0  0
   -7.9454    1.9463    0.6362 C   0  0  0  0  0  0  0  0  0  0  0  0
   -8.0670    3.3177    0.8850 C   0  0  0  0  0  0  0  0  0  0  0  0
   -9.2159    4.1718    0.4289 C   0  0  0  0  0  0  0  0  0  0  0  0
  -10.2884    4.2490    1.5092 C   0  0  0  0  0  0  0  0  0  0  0  0
   -7.0745    3.8353    1.6586 N   0  0  0  0  0  0  0  0  0  0  0  0
   -6.1847    2.8922    2.0436 C   0  0  0  0  0  0  0  0  0  0  0  0
   -6.5821    1.3763    1.4365 S   0  0  0  0  0  0  0  0  0  0  0  0
   -4.9163    3.2003    2.7038 C   0  0  0  0  0  0  0  0  0  0  0  0
   -3.9669    4.1151    2.2164 C   0  0  0  0  0  0  0  0  0  0  0  0
   -4.0730    4.7275    0.8807 C   0  0  0  0  0  0  0  0  0  0  0  0
   -4.9094    5.8290    0.6632 C   0  0  0  0  0  0  0  0  0  0  0  0
   -5.1447    6.2843   -0.6380 C   0  0  0  0  0  0  0  0  0  0  0  0
   -4.5486    5.6410   -1.7292 C   0  0  0  0  0  0  0  0  0  0  0  0
   -3.6977    4.5423   -1.5219 C   0  0  0  0  0  0  0  0  0  0  0  0
   -3.0704    3.8245   -2.6845 C   0  0  0  0  0  0  0  0  0  0  0  0
   -3.8700    2.5779   -3.0547 C   0  0  0  0  0  0  0  0  0  0  0  0
   -3.4699    4.0880   -0.2136 C   0  0  0  0  0  0  0  0  0  0  0  0
   -2.7669    4.0026    2.9191 C   0  0  0  0  0  0  0  0  0  0  0  0
   -1.2070    4.6532    2.6586 S   0  0  0  0  0  0  0  0  0  0  0  0
   -0.5562    3.6104    3.8259 C   0  0  0  0  0  0  0  0  0  0  0  0
    0.6637    3.2324    4.3043 C   0  0  0  0  0  0  0  0  0  0  0  0
    1.9413    3.7811    4.1618 C   0  0  0  0  0  0  0  0  0  0  0  0
    3.0347    3.1406    4.8204 C   0  0  0  0  0  0  0  0  0  0  0  0
    4.2597    3.6950    4.6473 N   0  0  0  0  0  0  0  0  0  0  0  0
    3.8547    4.9821    3.6880 S   0  0  0  0  0  0  0  0  0  0  0  0
    2.2159    4.8964    3.4436 N   0  0  0  0  0  0  0  0  0  0  0  0
    2.8005    1.9497    5.5295 C   0  0  0  0  0  0  0  0  0  0  0  0
    3.6894    0.9572    5.8574 C   0  0  0  0  0  0  0  0  0  0  0  0
    5.3004    0.6693    5.3930 S   0  0  0  0  0  0  0  0  0  0  0  0
    5.0640   -1.0102    5.3851 C   0  0  0  0  0  0  0  0  0  0  0  0
    5.7942   -2.0513    4.8020 C   0  0  0  0  0  0  0  0  0  0  0  0
    7.1639   -1.9334    4.2673 C   0  0  0  0  0  0  0  0  0  0  0  0
    7.4718   -1.0029    3.2644 C   0  0  0  0  0  0  0  0  0  0  0  0
    8.7638   -0.9494    2.7325 C   0  0  0  0  0  0  0  0  0  0  0  0
    9.7525   -1.8274    3.1930 C   0  0  0  0  0  0  0  0  0  0  0  0
    9.4491   -2.7765    4.1846 C   0  0  0  0  0  0  0  0  0  0  0  0
   10.5167   -3.7061    4.6999 C   0  0  0  0  0  0  0  0  0  0  0  0
   11.1612   -3.1447    5.9649 C   0  0  0  0  0  0  0  0  0  0  0  0
    8.1533   -2.8220    4.7196 C   0  0  0  0  0  0  0  0  0  0  0  0
    5.0096   -3.2068    4.6445 C   0  0  0  0  0  0  0  0  0  0  0  0
    3.4495   -2.9001    5.2367 S   0  0  0  0  0  0  0  0  0  0  0  0
    3.7633   -1.3199    5.6978 C   0  0  0  0  0  0  0  0  0  0  0  0
    2.9678   -0.2010    5.9529 C   0  0  0  0  0  0  0  0  0  0  0  0
    1.6366    0.0028    5.7522 N   0  0  0  0  0  0  0  0  0  0  0  0
    1.5261    1.3586    5.5744 C   0  0  0  0  0  0  0  0  0  0  0  0
    0.4199    2.0839    5.0665 C   0  0  0  0  0  0  0  0  0  0  0  0
   -0.9259    1.8207    5.1631 N   0  0  0  0  0  0  0  0  0  0  0  0
   -1.4776    2.7788    4.3741 C   0  0  0  0  0  0  0  0  0  0  0  0
   -2.7536    3.0243    3.8873 C   0  0  0  0  0  0  0  0  0  0  0  0
   -4.2312    2.2403    3.9280 S   0  0  0  0  0  0  0  0  0  0  0  0
   -1.6039    1.2033    6.3176 C   0  0  0  0  0  0  0  0  0  0  0  0
   -2.6315    0.1404    5.9027 C   0  0  0  0  0  0  0  0  0  0  0  0
    0.7356   -1.0163    5.1962 C   0  0  0  0  0  0  0  0  0  0  0  0
    0.8494   -1.0819    3.6708 C   0  0  0  0  0  0  0  0  0  0  0  0
    5.1997   -4.1201    3.5211 C   0  0  0  0  0  0  0  0  0  0  0  0
    5.4297   -5.4864    3.5736 C   0  0  0  0  0  0  0  0  0  0  0  0
    5.4249   -6.0827    2.3020 C   0  0  0  0  0  0  0  0  0  0  0  0
    5.6830   -7.8444    2.0602 S   0  0  0  0  0  0  0  0  0  0  0  0
    7.5044   -7.7694    2.2191 C   0  0  0  0  0  0  0  0  0  0  0  0
    8.1524   -7.1851    0.9685 C   0  0  0  0  0  0  0  0  0  0  0  0
    5.1395   -5.1894    1.2641 C   0  0  0  0  0  0  0  0  0  0  0  0
    4.9611   -3.6563    1.9277 S   0  0  0  0  0  0  0  0  0  0  0  0
    5.0503   -5.5053   -0.1774 C   0  0  0  0  0  0  0  0  0  0  0  0
    4.2307   -4.8721   -1.0403 C   0  0  0  0  0  0  0  0  0  0  0  0
    4.5237   -4.7441   -2.4689 C   0  0  0  0  0  0  0  0  0  0  0  0
    5.3616   -5.4261   -3.1161 O   0  0  0  0  0  0  0  0  0  0  0  0
    3.7830   -3.6100   -2.9918 C   0  0  0  0  0  0  0  0  0  0  0  0
    3.9171   -3.0016   -4.2638 C   0  0  0  0  0  0  0  0  0  0  0  0
    3.2015   -1.8238   -4.4013 C   0  0  0  0  0  0  0  0  0  0  0  0
    2.4060   -1.2651   -3.3485 C   0  0  0  0  0  0  0  0  0  0  0  0
    2.2687   -1.8558   -2.1035 C   0  0  0  0  0  0  0  0  0  0  0  0
    2.9757   -3.0811   -1.9536 C   0  0  0  0  0  0  0  0  0  0  0  0
    3.0925   -3.9487   -0.7545 C   0  0  0  0  0  0  0  0  0  0  0  0
    2.1152   -4.1539    0.1605 C   0  0  0  0  0  0  0  0  0  0  0  0
    2.1236   -5.2961    1.0410 C   0  0  0  0  0  0  0  0  0  0  0  0
    2.1237   -6.2111    1.7476 N   0  0  0  0  0  0  0  0  0  0  0  0
    0.9013   -3.3797    0.1675 C   0  0  0  0  0  0  0  0  0  0  0  0
   -0.0872   -2.7806    0.1613 N   0  0  0  0  0  0  0  0  0  0  0  0
    2.0788   -0.0767   -4.2028 C   0  0  0  0  0  0  0  0  0  0  0  0
    2.7957    1.2684   -3.8807 C   0  0  0  0  0  0  0  0  0  0  0  0
    4.1642    0.9986   -3.2980 C   0  0  0  0  0  0  0  0  0  0  0  0
    4.9038    0.4794   -4.2798 C   0  0  0  0  0  0  0  0  0  0  0  0
    4.0126    0.4141   -5.4986 C   0  0  0  0  0  0  0  0  0  0  0  0
    3.2122    1.6864   -5.2798 C   0  0  0  0  0  0  0  0  0  0  0  0
    2.8909   -0.6485   -5.2836 C   0  0  0  0  0  0  0  0  0  0  0  0
   -9.1735    0.2150    0.1997 H   0  0  0  0  0  0  0  0  0  0  0  0
   -6.8433    3.3662   -4.7345 H   0  0  0  0  0  0  0  0  0  0  0  0
   -9.7758   -0.7728   -5.2787 H   0  0  0  0  0  0  0  0  0  0  0  0
   -9.0442    0.7472   -8.3316 H   0  0  0  0  0  0  0  0  0  0  0  0
   -7.5962   -1.3896   -8.5272 H   0  0  0  0  0  0  0  0  0  0  0  0
   -6.0409   -1.6529   -6.3919 H   0  0  0  0  0  0  0  0  0  0  0  0
   -4.5610    0.4849   -6.1904 H   0  0  0  0  0  0  0  0  0  0  0  0
   -5.2022    2.1312   -8.1739 H   0  0  0  0  0  0  0  0  0  0  0  0
   -5.3843   -0.2236   -9.3732 H   0  0  0  0  0  0  0  0  0  0  0  0
   -6.8153    0.8017   -9.8477 H   0  0  0  0  0  0  0  0  0  0  0  0
   -7.7206    2.6884   -8.1042 H   0  0  0  0  0  0  0  0  0  0  0  0
   -8.8444    5.1951    0.2036 H   0  0  0  0  0  0  0  0  0  0  0  0
   -9.6695    3.7683   -0.5015 H   0  0  0  0  0  0  0  0  0  0  0  0
  -11.1125    4.9118    1.1655 H   0  0  0  0  0  0  0  0  0  0  0  0
  -10.7052    3.2417    1.7112 H   0  0  0  0  0  0  0  0  0  0  0  0
   -9.8641    4.6672    2.4481 H   0  0  0  0  0  0  0  0  0  0  0  0
   -5.4058    6.3128    1.4972 H   0  0  0  0  0  0  0  0  0  0  0  0
   -5.7995    7.1274   -0.8023 H   0  0  0  0  0  0  0  0  0  0  0  0
   -4.7596    5.9915   -2.7316 H   0  0  0  0  0  0  0  0  0  0  0  0
   -2.0299    3.5256   -2.4245 H   0  0  0  0  0  0  0  0  0  0  0  0
   -3.0103    4.4958   -3.5698 H   0  0  0  0  0  0  0  0  0  0  0  0
   -3.3956    2.0774   -3.9261 H   0  0  0  0  0  0  0  0  0  0  0  0
   -3.8930    1.8629   -2.2050 H   0  0  0  0  0  0  0  0  0  0  0  0
   -4.9086    2.8531   -3.3278 H   0  0  0  0  0  0  0  0  0  0  0  0
   -2.8517    3.2106   -0.0492 H   0  0  0  0  0  0  0  0  0  0  0  0
    6.7098   -0.3356    2.8799 H   0  0  0  0  0  0  0  0  0  0  0  0
    8.9969   -0.2278    1.9617 H   0  0  0  0  0  0  0  0  0  0  0  0
   10.7498   -1.7720    2.7689 H   0  0  0  0  0  0  0  0  0  0  0  0
   10.0748   -4.7011    4.9284 H   0  0  0  0  0  0  0  0  0  0  0  0
   11.3024   -3.8625    3.9271 H   0  0  0  0  0  0  0  0  0  0  0  0
   10.4050   -3.0501    6.7742 H   0  0  0  0  0  0  0  0  0  0  0  0
   11.6051   -2.1464    5.7625 H   0  0  0  0  0  0  0  0  0  0  0  0
   11.9646   -3.8303    6.3101 H   0  0  0  0  0  0  0  0  0  0  0  0
    7.9177   -3.5421    5.4963 H   0  0  0  0  0  0  0  0  0  0  0  0
   -2.1131    1.9963    6.9112 H   0  0  0  0  0  0  0  0  0  0  0  0
   -0.8557    0.7471    7.0005 H   0  0  0  0  0  0  0  0  0  0  0  0
   -2.5248   -0.7580    6.5435 H   0  0  0  0  0  0  0  0  0  0  0  0
   -3.6666    0.5217    6.0432 H   0  0  0  0  0  0  0  0  0  0  0  0
   -2.4953   -0.1659    4.8427 H   0  0  0  0  0  0  0  0  0  0  0  0
   -0.2997   -0.8147    5.4687 H   0  0  0  0  0  0  0  0  0  0  0  0
    0.9437   -2.0068    5.6458 H   0  0  0  0  0  0  0  0  0  0  0  0
    0.1650   -1.8597    3.2768 H   0  0  0  0  0  0  0  0  0  0  0  0
    1.8847   -1.3347    3.3615 H   0  0  0  0  0  0  0  0  0  0  0  0
    0.5728   -0.1055    3.2205 H   0  0  0  0  0  0  0  0  0  0  0  0
    5.5891   -6.0352    4.4915 H   0  0  0  0  0  0  0  0  0  0  0  0
    7.7949   -7.1715    3.1141 H   0  0  0  0  0  0  0  0  0  0  0  0
    7.8732   -8.8077    2.3626 H   0  0  0  0  0  0  0  0  0  0  0  0
    9.2559   -7.3019    1.0409 H   0  0  0  0  0  0  0  0  0  0  0  0
    7.7914   -7.7181    0.0634 H   0  0  0  0  0  0  0  0  0  0  0  0
    7.9231   -6.0993    0.8822 H   0  0  0  0  0  0  0  0  0  0  0  0
    5.7998   -6.1795   -0.5734 H   0  0  0  0  0  0  0  0  0  0  0  0
    4.5623   -3.3917   -5.0393 H   0  0  0  0  0  0  0  0  0  0  0  0
    1.7150   -1.3715   -1.3149 H   0  0  0  0  0  0  0  0  0  0  0  0
    0.9985    0.0131   -4.4501 H   0  0  0  0  0  0  0  0  0  0  0  0
    2.1850    2.0094   -3.3240 H   0  0  0  0  0  0  0  0  0  0  0  0
    4.5107    1.2374   -2.2978 H   0  0  0  0  0  0  0  0  0  0  0  0
    5.9539    0.2202   -4.2170 H   0  0  0  0  0  0  0  0  0  0  0  0
    4.5473    0.3501   -6.4681 H   0  0  0  0  0  0  0  0  0  0  0  0
    2.3553    1.7994   -5.9836 H   0  0  0  0  0  0  0  0  0  0  0  0
    3.8374    2.6105   -5.3005 H   0  0  0  0  0  0  0  0  0  0  0  0
    2.3078   -0.9095   -6.1946 H   0  0  0  0  0  0  0  0  0  0  0  0
  1  2  2  3
  2  3  1  0
  3  4  2  0
  3  5  1  0
  5  6  2  0
  6  7  1  0
  7  8  2  0
  8  9  1  0
  9 10  2  0
 10 11  1  0
 11 12  2  3
 12 13  1  0
 13 14  3  0
 12 15  1  0
 15 16  3  0
  8 17  1  0
 17 18  1  0
 18 19  1  0
 19 20  2  0
 20 21  1  0
 21 22  1  0
 21 23  1  0
  1 24  1  0
 24 25  2  0
 25 26  1  0
 26 27  1  0
 25 28  1  0
 28 29  2  0
 29 30  1  0
 29 31  1  0
 31 32  2  0
 32 33  1  0
 33 34  2  0
 34 35  1  0
 35 36  2  0
 36 37  1  0
 37 38  1  0
 38 39  1  0
 37 40  2  0
 32 41  1  0
 41 42  1  0
 42 43  1  0
 43 44  1  0
 44 45  1  0
 45 46  1  0
 46 47  2  0
 47 48  1  0
 48 49  1  0
 46 50  1  0
 50 51  1  0
 51 52  1  0
 52 53  1  0
 53 54  1  0
 54 55  1  0
 55 56  2  0
 56 57  1  0
 57 58  2  0
 58 59  1  0
 59 60  1  0
 60 61  1  0
 59 62  2  0
 54 63  2  0
 63 64  1  0
 64 65  1  0
 65 66  1  0
 66 67  1  0
 67 68  1  0
 68 69  1  0
 69 70  1  0
 70 71  1  0
 71 72  1  0
 72 73  1  0
 70 74  1  0
 74 75  1  0
 67 76  1  0
 76 77  1  0
 63 78  1  0
 78 79  2  0
 79 80  1  0
 80 81  1  0
 81 82  1  0
 82 83  1  0
 80 84  2  0
 84 85  1  0
 84 86  1  0
 86 87  2  3
 87 88  1  0
 88 89  2  0
 88 90  1  0
 90 91  2  0
 91 92  1  0
 92 93  2  0
 93 94  1  0
 94 95  2  0
 95 96  1  0
 96 97  2  3
 97 98  1  0
 98 99  3  0
 97100  1  0
100101  3  0
 93102  1  0
102103  1  0
103104  1  0
104105  2  0
105106  1  0
106107  1  0
106108  1  0
 11  2  1  0
 23 17  1  0
 30 24  1  0
 73 31  1  0
 85 78  1  0
 96 87  1  0
108102  1  0
 10  5  1  0
 22 18  1  0
 40 33  1  0
 72 41  2  0
 95 90  1  0
107103  1  0
 23  7  1  0
 71 43  2  0
108 92  1  0
 69 44  2  0
 49 45  2  0
 68 50  2  0
 66 51  2  0
 65 53  2  0
 62 55  1  0
  1109  1  0
  6110  1  0
  9111  1  0
 17112  1  0
 18113  1  0
 19114  1  0
 20115  1  0
 21116  1  0
 22117  1  0
 22118  1  0
 23119  1  0
 26120  1  0
 26121  1  0
 27122  1  0
 27123  1  0
 27124  1  0
 34125  1  0
 35126  1  0
 36127  1  0
 38128  1  0
 38129  1  0
 39130  1  0
 39131  1  0
 39132  1  0
 40133  1  0
 56134  1  0
 57135  1  0
 58136  1  0
 60137  1  0
 60138  1  0
 61139  1  0
 61140  1  0
 61141  1  0
 62142  1  0
 74143  1  0
 74144  1  0
 75145  1  0
 75146  1  0
 75147  1  0
 76148  1  0
 76149  1  0
 77150  1  0
 77151  1  0
 77152  1  0
 79153  1  0
 82154  1  0
 82155  1  0
 83156  1  0
 83157  1  0
 83158  1  0
 86159  1  0
 91160  1  0
 94161  1  0
102162  1  0
103163  1  0
104164  1  0
105165  1  0
106166  1  0
107167  1  0
107168  1  0
108169  1  0
M  END

