
     RDKit          3D

237266  0  0  0  0  0  0  0  0999 V2000
   -5.1867    7.7682   -5.7994 C   0  0  0  0  0  0  0  0  0  0  0  0
   -5.5629    7.5403   -4.5704 C   0  0  0  0  0  0  0  0  0  0  0  0
   -5.4109    6.4255   -3.6510 C   0  0  0  0  0  0  0  0  0  0  0  0
   -5.3993    5.2010   -4.0559 O   0  0  0  0  0  0  0  0  0  0  0  0
   -5.2838    6.8052   -2.2845 C   0  0  0  0  0  0  0  0  0  0  0  0
   -5.0697    6.0655   -1.1125 C   0  0  0  0  0  0  0  0  0  0  0  0
   -4.9104    6.6933    0.0377 C   0  0  0  0  0  0  0  0  0  0  0  0
   -4.9282    8.0398    0.1862 C   0  0  0  0  0  0  0  0  0  0  0  0
   -5.1534    8.7821   -0.9955 C   0  0  0  0  0  0  0  0  0  0  0  0
   -5.3362    8.2237   -2.2217 C   0  0  0  0  0  0  0  0  0  0  0  0
   -5.5039    8.6794   -3.5457 C   0  0  0  0  0  0  0  0  0  0  0  0
   -5.3507    9.9883   -4.0905 C   0  0  0  0  0  0  0  0  0  0  0  0
   -5.3083   10.9817   -2.9048 C   0  0  0  0  0  0  0  0  0  0  0  0
   -5.2761   11.7855   -1.9719 N   0  0  0  0  0  0  0  0  0  0  0  0
   -5.1796   10.3492   -5.1110 C   0  0  0  0  0  0  0  0  0  0  0  0
   -4.9097   10.8673   -6.5525 N   0  0  0  0  0  0  0  0  0  0  0  0
   -4.5935    8.0784    1.6044 C   0  0  0  0  0  0  0  0  0  0  0  0
   -5.6095    8.4775    2.5910 C   0  0  0  0  0  0  0  0  0  0  0  0
   -6.9754    8.1740    2.1807 C   0  0  0  0  0  0  0  0  0  0  0  0
   -7.0706    6.8171    2.1318 C   0  0  0  0  0  0  0  0  0  0  0  0
   -5.7632    6.2430    2.4533 C   0  0  0  0  0  0  0  0  0  0  0  0
   -5.3945    7.2749    3.5881 C   0  0  0  0  0  0  0  0  0  0  0  0
   -4.6910    6.5450    1.5045 C   0  0  0  0  0  0  0  0  0  0  0  0
   -4.3116    6.7095   -6.4963 C   0  0  0  0  0  0  0  0  0  0  0  0
   -3.1492    7.1957   -7.0979 C   0  0  0  0  0  0  0  0  0  0  0  0
   -2.1495    6.3357   -7.2721 C   0  0  0  0  0  0  0  0  0  0  0  0
   -0.7686    6.6748   -7.4964 C   0  0  0  0  0  0  0  0  0  0  0  0
   -0.3849    7.9709   -8.0199 C   0  0  0  0  0  0  0  0  0  0  0  0
   -0.7300    9.1253   -7.8247 C   0  0  0  0  0  0  0  0  0  0  0  0
   -0.4293   10.4111   -8.2223 C   0  0  0  0  0  0  0  0  0  0  0  0
    0.6734   10.3698   -9.2091 C   0  0  0  0  0  0  0  0  0  0  0  0
    1.2575   11.8963   -9.8741 S   0  0  0  0  0  0  0  0  0  0  0  0
    0.2736   12.3814  -11.2972 C   0  0  0  0  0  0  0  0  0  0  0  0
   -1.1554   12.7701  -10.9318 C   0  0  0  0  0  0  0  0  0  0  0  0
    1.1160    9.1211   -9.4826 C   0  0  0  0  0  0  0  0  0  0  0  0
    2.1631    9.1156  -10.4315 F   0  0  0  0  0  0  0  0  0  0  0  0
    0.7501    7.8938   -9.0310 C   0  0  0  0  0  0  0  0  0  0  0  0
    0.2124    5.7281   -7.2885 C   0  0  0  0  0  0  0  0  0  0  0  0
   -0.0096    4.4376   -6.8986 C   0  0  0  0  0  0  0  0  0  0  0  0
   -1.3870    4.1062   -6.7141 C   0  0  0  0  0  0  0  0  0  0  0  0
   -1.8355    2.7378   -6.4711 C   0  0  0  0  0  0  0  0  0  0  0  0
   -2.0536    2.1467   -5.2807 C   0  0  0  0  0  0  0  0  0  0  0  0
   -2.4357    0.7970   -5.3040 C   0  0  0  0  0  0  0  0  0  0  0  0
   -2.5921    0.0777   -6.4650 C   0  0  0  0  0  0  0  0  0  0  0  0
   -3.0548   -1.6426   -6.5269 S   0  0  0  0  0  0  0  0  0  0  0  0
   -4.8479   -1.8497   -6.7034 C   0  0  0  0  0  0  0  0  0  0  0  0
   -5.3094   -1.3063   -8.0412 C   0  0  0  0  0  0  0  0  0  0  0  0
   -2.3695    0.6870   -7.6801 C   0  0  0  0  0  0  0  0  0  0  0  0
   -1.9993    2.0090   -7.6607 C   0  0  0  0  0  0  0  0  0  0  0  0
   -2.5048    0.0166   -8.8737 F   0  0  0  0  0  0  0  0  0  0  0  0
   -2.3398    5.0578   -6.8917 C   0  0  0  0  0  0  0  0  0  0  0  0
   -4.0030    5.0992   -6.2620 S   0  0  0  0  0  0  0  0  0  0  0  0
    1.0269    3.7133   -6.5216 C   0  0  0  0  0  0  0  0  0  0  0  0
    2.2968    4.2874   -6.5242 C   0  0  0  0  0  0  0  0  0  0  0  0
    1.9508    5.8258   -7.0930 S   0  0  0  0  0  0  0  0  0  0  0  0
    3.4598    3.6855   -5.7941 C   0  0  0  0  0  0  0  0  0  0  0  0
    4.6078    4.0604   -5.2736 C   0  0  0  0  0  0  0  0  0  0  0  0
    5.2389    5.3619   -5.5742 C   0  0  0  0  0  0  0  0  0  0  0  0
    4.6297    6.5316   -5.3743 C   0  0  0  0  0  0  0  0  0  0  0  0
    5.3261    7.7351   -5.5864 C   0  0  0  0  0  0  0  0  0  0  0  0
    6.6605    7.6319   -6.0061 C   0  0  0  0  0  0  0  0  0  0  0  0
    7.2669    6.4494   -6.2008 C   0  0  0  0  0  0  0  0  0  0  0  0
    8.7180    6.3606   -6.6261 C   0  0  0  0  0  0  0  0  0  0  0  0
    9.5048    6.4052   -5.3378 C   0  0  0  0  0  0  0  0  0  0  0  0
    6.5735    5.2639   -5.9953 C   0  0  0  0  0  0  0  0  0  0  0  0
    5.2480    3.2314   -4.3446 C   0  0  0  0  0  0  0  0  0  0  0  0
    6.6208    3.2342   -3.2484 S   0  0  0  0  0  0  0  0  0  0  0  0
    6.3139    1.7416   -2.4270 C   0  0  0  0  0  0  0  0  0  0  0  0
    6.5815    0.9494   -1.3314 C   0  0  0  0  0  0  0  0  0  0  0  0
    7.6309    1.0443   -0.3547 C   0  0  0  0  0  0  0  0  0  0  0  0
    7.5542    0.1558    0.6654 C   0  0  0  0  0  0  0  0  0  0  0  0
    8.5939    0.2638    1.5669 N   0  0  0  0  0  0  0  0  0  0  0  0
    9.5284    1.5139    0.9872 S   0  0  0  0  0  0  0  0  0  0  0  0
    8.6226    1.8829   -0.3826 N   0  0  0  0  0  0  0  0  0  0  0  0
    6.5409   -0.7552    0.7556 C   0  0  0  0  0  0  0  0  0  0  0  0
    6.1269   -1.5988    1.7958 C   0  0  0  0  0  0  0  0  0  0  0  0
    6.4729   -2.1204    3.3894 S   0  0  0  0  0  0  0  0  0  0  0  0
    5.0236   -3.0749    3.6602 C   0  0  0  0  0  0  0  0  0  0  0  0
    4.4053   -3.7727    4.6766 C   0  0  0  0  0  0  0  0  0  0  0  0
    5.0600   -3.9662    6.0110 C   0  0  0  0  0  0  0  0  0  0  0  0
    5.3810   -5.2120    6.5083 C   0  0  0  0  0  0  0  0  0  0  0  0
    5.9441   -5.3038    7.7607 C   0  0  0  0  0  0  0  0  0  0  0  0
    6.1854   -4.1483    8.5088 C   0  0  0  0  0  0  0  0  0  0  0  0
    5.8734   -2.9002    8.0432 C   0  0  0  0  0  0  0  0  0  0  0  0
    6.0907   -1.7146    8.9157 C   0  0  0  0  0  0  0  0  0  0  0  0
    7.5213   -1.2498    8.9113 C   0  0  0  0  0  0  0  0  0  0  0  0
    5.3110   -2.8515    6.7836 C   0  0  0  0  0  0  0  0  0  0  0  0
    3.2102   -4.2516    4.4706 C   0  0  0  0  0  0  0  0  0  0  0  0
    2.9418   -3.7404    2.7873 S   0  0  0  0  0  0  0  0  0  0  0  0
    4.4080   -2.9227    2.5135 C   0  0  0  0  0  0  0  0  0  0  0  0
    4.9803   -2.1496    1.5163 C   0  0  0  0  0  0  0  0  0  0  0  0
    4.5490   -1.7063    0.2440 N   0  0  0  0  0  0  0  0  0  0  0  0
    5.4873   -0.8867   -0.1872 C   0  0  0  0  0  0  0  0  0  0  0  0
    5.6074    0.0263   -1.2445 C   0  0  0  0  0  0  0  0  0  0  0  0
    4.7555    0.2186   -2.2928 N   0  0  0  0  0  0  0  0  0  0  0  0
    5.2152    1.3289   -3.0315 C   0  0  0  0  0  0  0  0  0  0  0  0
    4.6692    2.1029   -4.0263 C   0  0  0  0  0  0  0  0  0  0  0  0
    3.2468    2.1405   -5.0146 S   0  0  0  0  0  0  0  0  0  0  0  0
    3.6065   -0.4933   -2.7442 C   0  0  0  0  0  0  0  0  0  0  0  0
    2.2879    0.1260   -2.4817 C   0  0  0  0  0  0  0  0  0  0  0  0
    3.2682   -2.0797   -0.2652 C   0  0  0  0  0  0  0  0  0  0  0  0
    2.1434   -1.2535    0.3719 C   0  0  0  0  0  0  0  0  0  0  0  0
    2.0019   -4.9180    5.0607 C   0  0  0  0  0  0  0  0  0  0  0  0
    0.8212   -4.2482    5.1844 C   0  0  0  0  0  0  0  0  0  0  0  0
   -0.3071   -4.8914    5.4480 C   0  0  0  0  0  0  0  0  0  0  0  0
   -1.6393   -4.4193    5.4398 C   0  0  0  0  0  0  0  0  0  0  0  0
   -1.8299   -2.9973    5.7233 C   0  0  0  0  0  0  0  0  0  0  0  0
   -0.9294   -2.1834    6.3386 C   0  0  0  0  0  0  0  0  0  0  0  0
   -1.0797   -0.9087    6.5855 C   0  0  0  0  0  0  0  0  0  0  0  0
   -2.2492   -0.2539    6.2199 C   0  0  0  0  0  0  0  0  0  0  0  0
   -2.7646    1.3865    6.4282 S   0  0  0  0  0  0  0  0  0  0  0  0
   -1.4390    2.3311    7.2836 C   0  0  0  0  0  0  0  0  0  0  0  0
   -0.2115    2.3983    6.3826 C   0  0  0  0  0  0  0  0  0  0  0  0
   -3.2027   -1.7581    5.4063 Se  0  0  0  0  0  2  0  0  0  0  0  0
   -2.7180   -5.2173    5.5138 C   0  0  0  0  0  0  0  0  0  0  0  0
   -2.5763   -6.6086    5.6375 C   0  0  0  0  0  0  0  0  0  0  0  0
   -1.2425   -7.1019    5.6935 C   0  0  0  0  0  0  0  0  0  0  0  0
   -0.9282   -8.4229    6.1788 C   0  0  0  0  0  0  0  0  0  0  0  0
    0.3873   -9.0811    6.2780 C   0  0  0  0  0  0  0  0  0  0  0  0
    0.0277  -10.0183    6.9686 C   0  0  0  0  0  0  0  0  0  0  0  0
   -0.2890  -10.9662    7.6556 C   0  0  0  0  0  0  0  0  0  0  0  0
   -0.9754  -12.2112    8.6453 S   0  0  0  0  0  0  0  0  0  0  0  0
   -2.6950  -12.2854    8.9288 C   0  0  0  0  0  0  0  0  0  0  0  0
   -3.3975  -11.2694    9.7721 C   0  0  0  0  0  0  0  0  0  0  0  0
   -2.0932   -9.5654    7.1890 Se  0  0  0  0  0  2  0  0  0  0  0  0
   -0.1696   -6.2485    5.5857 C   0  0  0  0  0  0  0  0  0  0  0  0
    1.5351   -6.4963    5.3440 S   0  0  0  0  0  0  0  0  0  0  0  0
   -3.6810   -7.3056    5.5206 C   0  0  0  0  0  0  0  0  0  0  0  0
   -4.9079   -6.6194    5.2681 C   0  0  0  0  0  0  0  0  0  0  0  0
   -4.4400   -5.0631    5.2442 S   0  0  0  0  0  0  0  0  0  0  0  0
   -6.0044   -7.5998    4.8104 C   0  0  0  0  0  0  0  0  0  0  0  0
   -5.7270   -7.8163    3.4512 C   0  0  0  0  0  0  0  0  0  0  0  0
   -4.7180   -7.1664    2.6729 C   0  0  0  0  0  0  0  0  0  0  0  0
   -4.4589   -5.8958    2.8095 O   0  0  0  0  0  0  0  0  0  0  0  0
   -4.0644   -8.0468    1.7612 C   0  0  0  0  0  0  0  0  0  0  0  0
   -2.9726   -7.7725    0.9624 C   0  0  0  0  0  0  0  0  0  0  0  0
   -2.3696   -8.7724    0.2690 C   0  0  0  0  0  0  0  0  0  0  0  0
   -2.8778  -10.0332    0.3868 C   0  0  0  0  0  0  0  0  0  0  0  0
   -3.9836  -10.3031    1.1737 C   0  0  0  0  0  0  0  0  0  0  0  0
   -4.6073   -9.2896    1.8938 C   0  0  0  0  0  0  0  0  0  0  0  0
   -5.6833   -9.2326    2.9423 C   0  0  0  0  0  0  0  0  0  0  0  0
   -6.4788  -10.2099    3.2797 C   0  0  0  0  0  0  0  0  0  0  0  0
   -6.2539  -11.5632    2.6686 C   0  0  0  0  0  0  0  0  0  0  0  0
   -6.0836  -12.5367    2.2268 N   0  0  0  0  0  0  0  0  0  0  0  0
   -7.5694  -10.1284    4.1405 C   0  0  0  0  0  0  0  0  0  0  0  0
   -8.5081  -10.0397    4.8933 N   0  0  0  0  0  0  0  0  0  0  0  0
   -1.6730  -10.5720   -0.3996 C   0  0  0  0  0  0  0  0  0  0  0  0
   -0.6260  -11.0882    0.5980 C   0  0  0  0  0  0  0  0  0  0  0  0
    0.6834  -11.1040   -0.0477 C   0  0  0  0  0  0  0  0  0  0  0  0
    1.1164   -9.8261   -0.1250 C   0  0  0  0  0  0  0  0  0  0  0  0
    0.0275   -8.9771    0.2465 C   0  0  0  0  0  0  0  0  0  0  0  0
   -0.5362   -9.8075    1.4440 C   0  0  0  0  0  0  0  0  0  0  0  0
   -1.2153   -9.1732   -0.6327 C   0  0  0  0  0  0  0  0  0  0  0  0
   -5.5048    8.5544   -6.3949 H   0  0  0  0  0  0  0  0  0  0  0  0
   -5.0526    4.9819   -1.2548 H   0  0  0  0  0  0  0  0  0  0  0  0
   -5.1650    9.8459   -0.8907 H   0  0  0  0  0  0  0  0  0  0  0  0
   -3.5362    8.3625    1.8581 H   0  0  0  0  0  0  0  0  0  0  0  0
   -5.4138    9.4186    3.1082 H   0  0  0  0  0  0  0  0  0  0  0  0
   -7.7440    8.9135    1.9894 H   0  0  0  0  0  0  0  0  0  0  0  0
   -8.0086    6.3230    1.9053 H   0  0  0  0  0  0  0  0  0  0  0  0
   -5.8127    5.2401    2.9171 H   0  0  0  0  0  0  0  0  0  0  0  0
   -4.3335    7.1844    3.8118 H   0  0  0  0  0  0  0  0  0  0  0  0
   -6.1078    7.2941    4.3855 H   0  0  0  0  0  0  0  0  0  0  0  0
   -3.7219    6.0460    1.7575 H   0  0  0  0  0  0  0  0  0  0  0  0
   -3.1662    8.2457   -7.4384 H   0  0  0  0  0  0  0  0  0  0  0  0
   -1.5421    9.2329   -6.9304 H   0  0  0  0  0  0  0  0  0  0  0  0
   -0.8117   11.3121   -7.9771 H   0  0  0  0  0  0  0  0  0  0  0  0
    0.2027   11.5467  -12.0433 H   0  0  0  0  0  0  0  0  0  0  0  0
    0.7495   13.2321  -11.8565 H   0  0  0  0  0  0  0  0  0  0  0  0
   -1.6133   13.3091  -11.8206 H   0  0  0  0  0  0  0  0  0  0  0  0
   -1.7944   11.9060  -10.7323 H   0  0  0  0  0  0  0  0  0  0  0  0
   -1.1719   13.4235  -10.0391 H   0  0  0  0  0  0  0  0  0  0  0  0
    1.1048    6.9414   -9.2476 H   0  0  0  0  0  0  0  0  0  0  0  0
   -1.9395    2.7128   -4.3837 H   0  0  0  0  0  0  0  0  0  0  0  0
   -2.6115    0.3113   -4.3552 H   0  0  0  0  0  0  0  0  0  0  0  0
   -5.3650   -1.3310   -5.8778 H   0  0  0  0  0  0  0  0  0  0  0  0
   -5.0499   -2.9275   -6.7204 H   0  0  0  0  0  0  0  0  0  0  0  0
   -6.4182   -1.3712   -8.0455 H   0  0  0  0  0  0  0  0  0  0  0  0
   -5.0694   -0.2225   -8.1313 H   0  0  0  0  0  0  0  0  0  0  0  0
   -4.9280   -1.9207   -8.8554 H   0  0  0  0  0  0  0  0  0  0  0  0
   -1.8367    2.5212   -8.6221 H   0  0  0  0  0  0  0  0  0  0  0  0
    0.9322    2.6351   -6.2323 H   0  0  0  0  0  0  0  0  0  0  0  0
    3.5915    6.6320   -4.9898 H   0  0  0  0  0  0  0  0  0  0  0  0
    4.8638    8.6788   -5.4369 H   0  0  0  0  0  0  0  0  0  0  0  0
    7.2299    8.5628   -6.1709 H   0  0  0  0  0  0  0  0  0  0  0  0
    8.9261    7.2580   -7.2209 H   0  0  0  0  0  0  0  0  0  0  0  0
    8.8562    5.3972   -7.1616 H   0  0  0  0  0  0  0  0  0  0  0  0
   10.5973    6.5153   -5.5298 H   0  0  0  0  0  0  0  0  0  0  0  0
    9.1205    7.2297   -4.7109 H   0  0  0  0  0  0  0  0  0  0  0  0
    9.3235    5.4639   -4.7807 H   0  0  0  0  0  0  0  0  0  0  0  0
    7.0791    4.3301   -6.1649 H   0  0  0  0  0  0  0  0  0  0  0  0
    5.1734   -6.0748    5.8720 H   0  0  0  0  0  0  0  0  0  0  0  0
    6.2020   -6.2644    8.1757 H   0  0  0  0  0  0  0  0  0  0  0  0
    6.6490   -4.2868    9.4982 H   0  0  0  0  0  0  0  0  0  0  0  0
    5.8134   -1.9956    9.9524 H   0  0  0  0  0  0  0  0  0  0  0  0
    5.3639   -0.8872    8.6556 H   0  0  0  0  0  0  0  0  0  0  0  0
    7.8332   -1.1149   10.0031 H   0  0  0  0  0  0  0  0  0  0  0  0
    8.1890   -2.1036    8.5825 H   0  0  0  0  0  0  0  0  0  0  0  0
    7.7409   -0.3211    8.4026 H   0  0  0  0  0  0  0  0  0  0  0  0
    5.0703   -1.8753    6.3918 H   0  0  0  0  0  0  0  0  0  0  0  0
    3.6980   -1.6004   -2.8118 H   0  0  0  0  0  0  0  0  0  0  0  0
    3.6654   -0.3805   -3.9333 H   0  0  0  0  0  0  0  0  0  0  0  0
    2.3310    0.9618   -1.7429 H   0  0  0  0  0  0  0  0  0  0  0  0
    1.5679   -0.6374   -2.1288 H   0  0  0  0  0  0  0  0  0  0  0  0
    1.7618    0.5804   -3.3675 H   0  0  0  0  0  0  0  0  0  0  0  0
    3.0634   -3.1282    0.2289 H   0  0  0  0  0  0  0  0  0  0  0  0
    3.0366   -2.2824   -1.2491 H   0  0  0  0  0  0  0  0  0  0  0  0
    2.1869   -0.1747    0.2015 H   0  0  0  0  0  0  0  0  0  0  0  0
    1.1672   -1.6255   -0.0466 H   0  0  0  0  0  0  0  0  0  0  0  0
    2.2115   -1.3931    1.4539 H   0  0  0  0  0  0  0  0  0  0  0  0
    0.8562   -3.1300    4.9738 H   0  0  0  0  0  0  0  0  0  0  0  0
    0.0067   -2.7124    6.7351 H   0  0  0  0  0  0  0  0  0  0  0  0
   -0.3136   -0.2650    7.0929 H   0  0  0  0  0  0  0  0  0  0  0  0
   -1.2455    1.9083    8.2742 H   0  0  0  0  0  0  0  0  0  0  0  0
   -1.8140    3.3652    7.3798 H   0  0  0  0  0  0  0  0  0  0  0  0
   -0.2389    3.3560    5.8023 H   0  0  0  0  0  0  0  0  0  0  0  0
   -0.2425    1.5653    5.6438 H   0  0  0  0  0  0  0  0  0  0  0  0
    0.7212    2.3996    6.9604 H   0  0  0  0  0  0  0  0  0  0  0  0
    1.1603   -8.4868    5.9782 H   0  0  0  0  0  0  0  0  0  0  0  0
    1.3721  -10.6634    6.8812 H   0  0  0  0  0  0  0  0  0  0  0  0
   -3.1005  -13.3140    9.1231 H   0  0  0  0  0  0  0  0  0  0  0  0
   -3.1973  -12.0654    7.8775 H   0  0  0  0  0  0  0  0  0  0  0  0
   -4.5085  -11.6891    9.7562 H   0  0  0  0  0  0  0  0  0  0  0  0
   -3.5829  -10.2906    9.2572 H   0  0  0  0  0  0  0  0  0  0  0  0
   -3.1813  -11.1565   10.8157 H   0  0  0  0  0  0  0  0  0  0  0  0
   -3.7344   -8.4186    5.5920 H   0  0  0  0  0  0  0  0  0  0  0  0
   -6.7074   -7.9346    5.3961 H   0  0  0  0  0  0  0  0  0  0  0  0
   -2.5734   -6.7650    0.9033 H   0  0  0  0  0  0  0  0  0  0  0  0
   -4.3222  -11.2803    1.2111 H   0  0  0  0  0  0  0  0  0  0  0  0
   -1.9374  -11.2137   -1.2192 H   0  0  0  0  0  0  0  0  0  0  0  0
   -0.9122  -11.9538    1.1472 H   0  0  0  0  0  0  0  0  0  0  0  0
    1.2906  -11.9389   -0.4216 H   0  0  0  0  0  0  0  0  0  0  0  0
    2.1366   -9.5828   -0.4119 H   0  0  0  0  0  0  0  0  0  0  0  0
    0.1856   -7.9454    0.5194 H   0  0  0  0  0  0  0  0  0  0  0  0
    0.1002   -9.8183    2.2975 H   0  0  0  0  0  0  0  0  0  0  0  0
   -1.5693   -9.4763    1.6962 H   0  0  0  0  0  0  0  0  0  0  0  0
   -1.2219   -8.7323   -1.6076 H   0  0  0  0  0  0  0  0  0  0  0  0
  1  2  2  3
  2  3  1  0
  3  4  2  0
  3  5  1  0
  5  6  2  0
  6  7  1  0
  7  8  2  0
  8  9  1  0
  9 10  2  0
 10 11  1  0
 11 12  2  3
 12 13  1  0
 13 14  3  0
 12 15  1  0
 15 16  3  0
  8 17  1  0
 17 18  1  0
 18 19  1  0
 19 20  2  0
 20 21  1  0
 21 22  1  0
 21 23  1  0
  1 24  1  0
 24 25  2  0
 25 26  1  0
 26 27  2  0
 27 28  1  0
 28 29  2  0
 29 30  1  0
 30 31  2  0
 31 32  1  0
 32 33  1  0
 33 34  1  0
 31 35  1  0
 35 36  1  0
 35 37  2  0
 27 38  1  0
 38 39  2  0
 39 40  1  0
 40 41  1  0
 41 42  2  0
 42 43  1  0
 43 44  2  0
 44 45  1  0
 45 46  1  0
 46 47  1  0
 44 48  1  0
 48 49  2  0
 48 50  1  0
 40 51  2  0
 51 52  1  0
 39 53  1  0
 53 54  2  0
 54 55  1  0
 54 56  1  0
 56 57  2  0
 57 58  1  0
 58 59  2  0
 59 60  1  0
 60 61  2  0
 61 62  1  0
 62 63  1  0
 63 64  1  0
 62 65  2  0
 57 66  1  0
 66 67  1  0
 67 68  1  0
 68 69  1  0
 69 70  1  0
 70 71  1  0
 71 72  2  0
 72 73  1  0
 73 74  1  0
 71 75  1  0
 75 76  1  0
 76 77  1  0
 77 78  1  0
 78 79  1  0
 79 80  1  0
 80 81  2  0
 81 82  1  0
 82 83  2  0
 83 84  1  0
 84 85  1  0
 85 86  1  0
 84 87  2  0
 79 88  2  0
 88 89  1  0
 89 90  1  0
 90 91  1  0
 91 92  1  0
 92 93  1  0
 93 94  1  0
 94 95  1  0
 95 96  1  0
 96 97  1  0
 97 98  1  0
 95 99  1  0
 99100  1  0
 92101  1  0
101102  1  0
 88103  1  0
103104  2  0
104105  1  0
105106  2  0
106107  1  0
107108  2  0
108109  1  0
109110  2  0
110111  1  0
111112  1  0
112113  1  0
110114  1  0
106115  1  0
115116  2  0
116117  1  0
117118  1  0
118119  2  0
119120  1  0
120121  2  0
121122  1  0
122123  1  0
123124  1  0
121125  1  0
117126  2  0
126127  1  0
116128  1  0
128129  2  0
129130  1  0
129131  1  0
131132  2  3
132133  1  0
133134  2  0
133135  1  0
135136  2  0
136137  1  0
137138  2  0
138139  1  0
139140  2  0
140141  1  0
141142  2  3
142143  1  0
143144  3  0
142145  1  0
145146  3  0
138147  1  0
147148  1  0
148149  1  0
149150  2  0
150151  1  0
151152  1  0
151153  1  0
 11  2  1  0
 23 17  1  0
 52 24  1  0
 98 56  1  0
127103  1  0
141132  1  0
153147  1  0
 10  5  1  0
 22 18  1  0
 51 26  1  0
 65 58  1  0
 97 66  2  0
126105  1  0
140135  1  0
152148  1  0
 23  7  1  0
 37 28  1  0
 55 38  1  0
 96 68  2  0
114107  1  0
130115  1  0
153137  1  0
 49 41  1  0
 94 69  2  0
125118  1  0
 74 70  2  0
 93 75  2  0
 91 76  2  0
 90 78  2  0
 87 80  1  0
  1154  1  0
  6155  1  0
  9156  1  0
 17157  1  0
 18158  1  0
 19159  1  0
 20160  1  0
 21161  1  0
 22162  1  0
 22163  1  0
 23164  1  0
 25165  1  0
 29166  1  0
 30167  1  0
 33168  1  0
 33169  1  0
 34170  1  0
 34171  1  0
 34172  1  0
 37173  1  0
 42174  1  0
 43175  1  0
 46176  1  0
 46177  1  0
 47178  1  0
 47179  1  0
 47180  1  0
 49181  1  0
 53182  1  0
 59183  1  0
 60184  1  0
 61185  1  0
 63186  1  0
 63187  1  0
 64188  1  0
 64189  1  0
 64190  1  0
 65191  1  0
 81192  1  0
 82193  1  0
 83194  1  0
 85195  1  0
 85196  1  0
 86197  1  0
 86198  1  0
 86199  1  0
 87200  1  0
 99201  1  0
 99202  1  0
100203  1  0
100204  1  0
100205  1  0
101206  1  0
101207  1  0
102208  1  0
102209  1  0
102210  1  0
104211  1  0
108212  1  0
109213  1  0
112214  1  0
112215  1  0
113216  1  0
113217  1  0
113218  1  0
119219  1  0
120220  1  0
123221  1  0
123222  1  0
124223  1  0
124224  1  0
124225  1  0
128226  1  0
131227  1  0
136228  1  0
139229  1  0
147230  1  0
148231  1  0
149232  1  0
150233  1  0
151234  1  0
152235  1  0
152236  1  0
153237  1  0
M  END

