
     RDKit          3D

192214  0  0  0  0  0  0  0  0999 V2000
   -3.7282   -6.6519    1.3515 C   0  0  0  0  0  0  0  0  0  0  0  0
   -3.9837   -5.5521    0.6109 C   0  0  0  0  0  0  0  0  0  0  0  0
   -3.2464   -4.2878    0.7070 C   0  0  0  0  0  0  0  0  0  0  0  0
   -2.0774   -4.1354    1.1627 O   0  0  0  0  0  0  0  0  0  0  0  0
   -4.0625   -3.2191    0.1797 C   0  0  0  0  0  0  0  0  0  0  0  0
   -3.7103   -1.8538    0.0639 C   0  0  0  0  0  0  0  0  0  0  0  0
   -4.6756   -1.0668   -0.5344 C   0  0  0  0  0  0  0  0  0  0  0  0
   -5.9378   -1.5824   -0.9609 C   0  0  0  0  0  0  0  0  0  0  0  0
   -6.2927   -2.9175   -0.8506 C   0  0  0  0  0  0  0  0  0  0  0  0
   -5.3001   -3.7521   -0.2622 C   0  0  0  0  0  0  0  0  0  0  0  0
   -5.2778   -5.2350   -0.0816 C   0  0  0  0  0  0  0  0  0  0  0  0
   -6.2290   -6.1099   -0.4784 C   0  0  0  0  0  0  0  0  0  0  0  0
   -7.5876   -5.7010   -0.7376 C   0  0  0  0  0  0  0  0  0  0  0  0
   -8.6944   -5.3785   -0.9039 N   0  0  0  0  0  0  0  0  0  0  0  0
   -5.9752   -7.5225   -0.6477 C   0  0  0  0  0  0  0  0  0  0  0  0
   -5.7816   -8.6547   -0.8064 N   0  0  0  0  0  0  0  0  0  0  0  0
   -6.3636   -0.2150   -1.4094 C   0  0  0  0  0  0  0  0  0  0  0  0
   -7.3664    0.5566   -0.5032 C   0  0  0  0  0  0  0  0  0  0  0  0
   -7.1687    0.1796    0.9460 C   0  0  0  0  0  0  0  0  0  0  0  0
   -5.9798    0.6734    1.3113 C   0  0  0  0  0  0  0  0  0  0  0  0
   -5.4076    1.3654    0.0927 C   0  0  0  0  0  0  0  0  0  0  0  0
   -6.6933    1.9248   -0.4855 C   0  0  0  0  0  0  0  0  0  0  0  0
   -5.0566    0.3106   -0.9966 C   0  0  0  0  0  0  0  0  0  0  0  0
   -2.7708   -6.6223    2.4674 C   0  0  0  0  0  0  0  0  0  0  0  0
   -3.0807   -5.9824    3.6672 C   0  0  0  0  0  0  0  0  0  0  0  0
   -1.9485   -5.6298    4.4138 C   0  0  0  0  0  0  0  0  0  0  0  0
   -1.9505   -4.7437    5.5148 C   0  0  0  0  0  0  0  0  0  0  0  0
   -3.2219   -4.2629    6.0995 C   0  0  0  0  0  0  0  0  0  0  0  0
   -4.1313   -5.1990    6.6143 C   0  0  0  0  0  0  0  0  0  0  0  0
   -5.4120   -4.7965    7.0042 C   0  0  0  0  0  0  0  0  0  0  0  0
   -5.7812   -3.4490    6.9334 C   0  0  0  0  0  0  0  0  0  0  0  0
   -7.4437   -2.9470    7.3900 S   0  0  0  0  0  0  0  0  0  0  0  0
   -7.0835   -2.7906    9.1760 C   0  0  0  0  0  0  0  0  0  0  0  0
   -7.3360   -4.1114    9.9012 C   0  0  0  0  0  0  0  0  0  0  0  0
   -4.8677   -2.5056    6.4382 C   0  0  0  0  0  0  0  0  0  0  0  0
   -5.2270   -1.1993    6.3154 F   0  0  0  0  0  0  0  0  0  0  0  0
   -3.5982   -2.9108    6.0094 C   0  0  0  0  0  0  0  0  0  0  0  0
   -0.7039   -4.2352    5.9105 C   0  0  0  0  0  0  0  0  0  0  0  0
    0.4920   -4.6557    5.3284 C   0  0  0  0  0  0  0  0  0  0  0  0
    0.5020   -5.5811    4.2672 C   0  0  0  0  0  0  0  0  0  0  0  0
    1.7239   -5.7781    3.4506 C   0  0  0  0  0  0  0  0  0  0  0  0
    2.5910   -6.8487    3.7114 C   0  0  0  0  0  0  0  0  0  0  0  0
    3.8196   -6.9310    3.0491 C   0  0  0  0  0  0  0  0  0  0  0  0
    4.1960   -5.9442    2.1339 C   0  0  0  0  0  0  0  0  0  0  0  0
    5.8388   -5.9839    1.4065 S   0  0  0  0  0  0  0  0  0  0  0  0
    5.3276   -6.7499   -0.1711 C   0  0  0  0  0  0  0  0  0  0  0  0
    5.0846   -8.2422   -0.0037 C   0  0  0  0  0  0  0  0  0  0  0  0
    3.3287   -4.8749    1.8676 C   0  0  0  0  0  0  0  0  0  0  0  0
    2.0885   -4.8035    2.5162 C   0  0  0  0  0  0  0  0  0  0  0  0
    3.7079   -3.8772    1.0241 F   0  0  0  0  0  0  0  0  0  0  0  0
   -0.7479   -6.0286    3.8102 C   0  0  0  0  0  0  0  0  0  0  0  0
   -1.0958   -6.7940    2.3434 S   0  0  0  0  0  0  0  0  0  0  0  0
    1.5933   -3.8741    5.6989 C   0  0  0  0  0  0  0  0  0  0  0  0
    1.2461   -2.7164    6.3973 C   0  0  0  0  0  0  0  0  0  0  0  0
   -0.4012   -2.8061    6.7578 S   0  0  0  0  0  0  0  0  0  0  0  0
    1.9003   -1.4470    6.0268 C   0  0  0  0  0  0  0  0  0  0  0  0
    1.7684   -0.1630    6.6187 C   0  0  0  0  0  0  0  0  0  0  0  0
    1.1490    0.1167    7.9388 C   0  0  0  0  0  0  0  0  0  0  0  0
    1.3782   -0.7453    9.0268 C   0  0  0  0  0  0  0  0  0  0  0  0
    0.8347   -0.4538   10.2842 C   0  0  0  0  0  0  0  0  0  0  0  0
    0.0683    0.6971   10.4695 C   0  0  0  0  0  0  0  0  0  0  0  0
   -0.1845    1.5583    9.3887 C   0  0  0  0  0  0  0  0  0  0  0  0
   -0.9589    2.8350    9.5971 C   0  0  0  0  0  0  0  0  0  0  0  0
   -0.0079    3.9873    9.9087 C   0  0  0  0  0  0  0  0  0  0  0  0
    0.3592    1.2615    8.1300 C   0  0  0  0  0  0  0  0  0  0  0  0
    2.2837    0.8266    5.7564 C   0  0  0  0  0  0  0  0  0  0  0  0
    2.4588    2.5317    5.8257 S   0  0  0  0  0  0  0  0  0  0  0  0
    3.1111    2.5692    4.2487 C   0  0  0  0  0  0  0  0  0  0  0  0
    3.4019    3.4739    3.2706 C   0  0  0  0  0  0  0  0  0  0  0  0
    3.3053    4.8700    3.2649 C   0  0  0  0  0  0  0  0  0  0  0  0
    3.4593    5.5582    2.0252 C   0  0  0  0  0  0  0  0  0  0  0  0
    3.3262    6.9080    2.0490 N   0  0  0  0  0  0  0  0  0  0  0  0
    3.0185    7.1223    3.6611 S   0  0  0  0  0  0  0  0  0  0  0  0
    3.0351    5.6186    4.3621 N   0  0  0  0  0  0  0  0  0  0  0  0
    3.7582    4.8127    0.8769 C   0  0  0  0  0  0  0  0  0  0  0  0
    3.9233    5.1913   -0.4216 C   0  0  0  0  0  0  0  0  0  0  0  0
    3.6091    6.5340   -1.4059 S   0  0  0  0  0  0  0  0  0  0  0  0
    3.8430    5.5894   -2.8102 C   0  0  0  0  0  0  0  0  0  0  0  0
    3.5269    5.7983   -4.1486 C   0  0  0  0  0  0  0  0  0  0  0  0
    3.1606    7.0960   -4.7293 C   0  0  0  0  0  0  0  0  0  0  0  0
    2.0163    7.7829   -4.3034 C   0  0  0  0  0  0  0  0  0  0  0  0
    1.6890    9.0125   -4.8798 C   0  0  0  0  0  0  0  0  0  0  0  0
    2.5065    9.5632   -5.8743 C   0  0  0  0  0  0  0  0  0  0  0  0
    3.6594    8.8793   -6.3051 C   0  0  0  0  0  0  0  0  0  0  0  0
    4.5697    9.4777   -7.3464 C   0  0  0  0  0  0  0  0  0  0  0  0
    4.7018    8.5785   -8.5745 C   0  0  0  0  0  0  0  0  0  0  0  0
    3.9763    7.6463   -5.7234 C   0  0  0  0  0  0  0  0  0  0  0  0
    3.5652    4.5951   -4.8864 C   0  0  0  0  0  0  0  0  0  0  0  0
    3.9748    3.3025   -3.8463 S   0  0  0  0  0  0  0  0  0  0  0  0
    4.1535    4.2866   -2.4981 C   0  0  0  0  0  0  0  0  0  0  0  0
    4.1966    4.0740   -1.1306 C   0  0  0  0  0  0  0  0  0  0  0  0
    4.2530    2.9586   -0.3693 N   0  0  0  0  0  0  0  0  0  0  0  0
    3.9070    3.4126    0.8882 C   0  0  0  0  0  0  0  0  0  0  0  0
    3.6362    2.7153    2.1014 C   0  0  0  0  0  0  0  0  0  0  0  0
    3.3929    1.3834    2.3464 N   0  0  0  0  0  0  0  0  0  0  0  0
    3.1446    1.3477    3.6781 C   0  0  0  0  0  0  0  0  0  0  0  0
    2.7121    0.3625    4.5397 C   0  0  0  0  0  0  0  0  0  0  0  0
    2.5789   -1.2818    4.4724 S   0  0  0  0  0  0  0  0  0  0  0  0
    2.9917    0.3149    1.4088 C   0  0  0  0  0  0  0  0  0  0  0  0
    1.8169    0.7353    0.5304 C   0  0  0  0  0  0  0  0  0  0  0  0
    4.9828    1.7529   -0.7835 C   0  0  0  0  0  0  0  0  0  0  0  0
    6.1184    1.4250    0.1827 C   0  0  0  0  0  0  0  0  0  0  0  0
    2.8367    4.3955   -6.1421 C   0  0  0  0  0  0  0  0  0  0  0  0
    3.3513    4.0488   -7.3967 C   0  0  0  0  0  0  0  0  0  0  0  0
    4.8138    3.8904   -7.6884 C   0  0  0  0  0  0  0  0  0  0  0  0
    5.1813    2.4119   -7.7836 C   0  0  0  0  0  0  0  0  0  0  0  0
    2.4122    3.7997   -8.3450 N   0  0  0  0  0  0  0  0  0  0  0  0
    1.1470    3.9508   -7.8677 C   0  0  0  0  0  0  0  0  0  0  0  0
    1.1602    4.3679   -6.2366 S   0  0  0  0  0  0  0  0  0  0  0  0
   -0.0715    3.4960   -8.5605 C   0  0  0  0  0  0  0  0  0  0  0  0
   -0.2022    3.2942   -9.8842 C   0  0  0  0  0  0  0  0  0  0  0  0
    0.6019    3.8730  -10.9598 C   0  0  0  0  0  0  0  0  0  0  0  0
    1.6759    4.5134  -10.8311 O   0  0  0  0  0  0  0  0  0  0  0  0
   -0.1153    3.6954  -12.2232 C   0  0  0  0  0  0  0  0  0  0  0  0
    0.2057    4.1628  -13.5034 C   0  0  0  0  0  0  0  0  0  0  0  0
    1.7574    4.9389  -13.8192 Cl  0  0  0  0  0  0  0  0  0  0  0  0
   -0.7382    3.9895  -14.5346 C   0  0  0  0  0  0  0  0  0  0  0  0
   -0.3599    4.5239  -16.1725 Cl  0  0  0  0  0  0  0  0  0  0  0  0
   -2.0062    3.4321  -14.2521 C   0  0  0  0  0  0  0  0  0  0  0  0
   -3.2192    3.3032  -15.5268 Cl  0  0  0  0  0  0  0  0  0  0  0  0
   -2.3153    2.9884  -12.9478 C   0  0  0  0  0  0  0  0  0  0  0  0
   -3.9714    2.5751  -12.5202 Cl  0  0  0  0  0  0  0  0  0  0  0  0
   -1.3053    3.0460  -11.9681 C   0  0  0  0  0  0  0  0  0  0  0  0
   -1.3373    2.5948  -10.5476 C   0  0  0  0  0  0  0  0  0  0  0  0
   -1.8463    1.4069  -10.1288 C   0  0  0  0  0  0  0  0  0  0  0  0
   -1.6545    0.9432   -8.7809 C   0  0  0  0  0  0  0  0  0  0  0  0
   -1.5139    0.5942   -7.6807 N   0  0  0  0  0  0  0  0  0  0  0  0
   -2.3005    0.4214  -11.0762 C   0  0  0  0  0  0  0  0  0  0  0  0
   -2.6338   -0.3548  -11.8572 N   0  0  0  0  0  0  0  0  0  0  0  0
   -4.4207   -7.4786    1.3652 H   0  0  0  0  0  0  0  0  0  0  0  0
   -2.7559   -1.4652    0.3878 H   0  0  0  0  0  0  0  0  0  0  0  0
   -7.2428   -3.2538   -1.2154 H   0  0  0  0  0  0  0  0  0  0  0  0
   -6.5541   -0.1305   -2.5020 H   0  0  0  0  0  0  0  0  0  0  0  0
   -8.4202    0.5456   -0.8474 H   0  0  0  0  0  0  0  0  0  0  0  0
   -7.8792   -0.3093    1.6038 H   0  0  0  0  0  0  0  0  0  0  0  0
   -5.5618    0.6501    2.3100 H   0  0  0  0  0  0  0  0  0  0  0  0
   -4.6222    2.1128    0.3105 H   0  0  0  0  0  0  0  0  0  0  0  0
   -7.2044    2.6563    0.1900 H   0  0  0  0  0  0  0  0  0  0  0  0
   -6.5643    2.3691   -1.5018 H   0  0  0  0  0  0  0  0  0  0  0  0
   -4.4407    0.6923   -1.8424 H   0  0  0  0  0  0  0  0  0  0  0  0
   -4.0889   -5.6529    3.8945 H   0  0  0  0  0  0  0  0  0  0  0  0
   -3.8720   -6.2489    6.6634 H   0  0  0  0  0  0  0  0  0  0  0  0
   -6.1185   -5.5330    7.3533 H   0  0  0  0  0  0  0  0  0  0  0  0
   -6.0383   -2.4621    9.3543 H   0  0  0  0  0  0  0  0  0  0  0  0
   -7.7654   -2.0211    9.5951 H   0  0  0  0  0  0  0  0  0  0  0  0
   -6.5514   -4.8523    9.6463 H   0  0  0  0  0  0  0  0  0  0  0  0
   -7.3181   -3.9462   10.9973 H   0  0  0  0  0  0  0  0  0  0  0  0
   -8.3293   -4.5217    9.6161 H   0  0  0  0  0  0  0  0  0  0  0  0
   -2.9321   -2.1797    5.5666 H   0  0  0  0  0  0  0  0  0  0  0  0
    2.3290   -7.5985    4.4555 H   0  0  0  0  0  0  0  0  0  0  0  0
    4.4931   -7.7510    3.2771 H   0  0  0  0  0  0  0  0  0  0  0  0
    6.1451   -6.6017   -0.9109 H   0  0  0  0  0  0  0  0  0  0  0  0
    4.4148   -6.2565   -0.5621 H   0  0  0  0  0  0  0  0  0  0  0  0
    5.9706   -8.7288    0.4611 H   0  0  0  0  0  0  0  0  0  0  0  0
    4.8942   -8.7018   -0.9957 H   0  0  0  0  0  0  0  0  0  0  0  0
    4.1936   -8.4097    0.6364 H   0  0  0  0  0  0  0  0  0  0  0  0
    1.4471   -3.9467    2.3349 H   0  0  0  0  0  0  0  0  0  0  0  0
    2.5735   -4.0022    5.2562 H   0  0  0  0  0  0  0  0  0  0  0  0
    1.9945   -1.6269    8.9114 H   0  0  0  0  0  0  0  0  0  0  0  0
    1.0187   -1.1197   11.1181 H   0  0  0  0  0  0  0  0  0  0  0  0
   -0.3287    0.9180   11.4489 H   0  0  0  0  0  0  0  0  0  0  0  0
   -1.5333    3.0738    8.6753 H   0  0  0  0  0  0  0  0  0  0  0  0
   -1.6889    2.7178   10.4244 H   0  0  0  0  0  0  0  0  0  0  0  0
   -0.5892    4.9271   10.0284 H   0  0  0  0  0  0  0  0  0  0  0  0
    0.5441    3.7823   10.8467 H   0  0  0  0  0  0  0  0  0  0  0  0
    0.7192    4.1232    9.0817 H   0  0  0  0  0  0  0  0  0  0  0  0
    0.1553    1.9298    7.3043 H   0  0  0  0  0  0  0  0  0  0  0  0
    1.3813    7.3638   -3.5327 H   0  0  0  0  0  0  0  0  0  0  0  0
    0.8037    9.5429   -4.5506 H   0  0  0  0  0  0  0  0  0  0  0  0
    2.2452   10.5253   -6.2966 H   0  0  0  0  0  0  0  0  0  0  0  0
    5.5747    9.6295   -6.8955 H   0  0  0  0  0  0  0  0  0  0  0  0
    4.1983   10.4754   -7.6664 H   0  0  0  0  0  0  0  0  0  0  0  0
    5.1332    7.5935   -8.3048 H   0  0  0  0  0  0  0  0  0  0  0  0
    3.7109    8.4200   -9.0443 H   0  0  0  0  0  0  0  0  0  0  0  0
    5.3784    9.0575   -9.3177 H   0  0  0  0  0  0  0  0  0  0  0  0
    4.8761    7.1200   -6.0210 H   0  0  0  0  0  0  0  0  0  0  0  0
    2.6520   -0.5784    1.9545 H   0  0  0  0  0  0  0  0  0  0  0  0
    3.8547   -0.0589    0.8461 H   0  0  0  0  0  0  0  0  0  0  0  0
    2.0655    1.6029   -0.1069 H   0  0  0  0  0  0  0  0  0  0  0  0
    1.5390   -0.1161   -0.1258 H   0  0  0  0  0  0  0  0  0  0  0  0
    0.9372    0.9805    1.1652 H   0  0  0  0  0  0  0  0  0  0  0  0
    5.4523    1.9205   -1.7742 H   0  0  0  0  0  0  0  0  0  0  0  0
    4.2869    0.9116   -0.9451 H   0  0  0  0  0  0  0  0  0  0  0  0
    6.6823    0.5463   -0.1908 H   0  0  0  0  0  0  0  0  0  0  0  0
    5.7520    1.1902    1.2000 H   0  0  0  0  0  0  0  0  0  0  0  0
    6.8100    2.2889    0.2528 H   0  0  0  0  0  0  0  0  0  0  0  0
    5.4209    4.3648   -6.8936 H   0  0  0  0  0  0  0  0  0  0  0  0
    5.0531    4.3927   -8.6510 H   0  0  0  0  0  0  0  0  0  0  0  0
    6.2709    2.3097   -7.9764 H   0  0  0  0  0  0  0  0  0  0  0  0
    4.6306    1.9300   -8.6200 H   0  0  0  0  0  0  0  0  0  0  0  0
    4.9336    1.8874   -6.8372 H   0  0  0  0  0  0  0  0  0  0  0  0
   -0.9077    3.2558   -7.9208 H   0  0  0  0  0  0  0  0  0  0  0  0
  1  2  2  3
  2  3  1  0
  3  4  2  0
  3  5  1  0
  5  6  2  0
  6  7  1  0
  7  8  2  0
  8  9  1  0
  9 10  2  0
 10 11  1  0
 11 12  2  3
 12 13  1  0
 13 14  3  0
 12 15  1  0
 15 16  3  0
  8 17  1  0
 17 18  1  0
 18 19  1  0
 19 20  2  0
 20 21  1  0
 21 22  1  0
 21 23  1  0
  1 24  1  0
 24 25  2  0
 25 26  1  0
 26 27  2  0
 27 28  1  0
 28 29  2  0
 29 30  1  0
 30 31  2  0
 31 32  1  0
 32 33  1  0
 33 34  1  0
 31 35  1  0
 35 36  1  0
 35 37  2  0
 27 38  1  0
 38 39  2  0
 39 40  1  0
 40 41  1  0
 41 42  2  0
 42 43  1  0
 43 44  2  0
 44 45  1  0
 45 46  1  0
 46 47  1  0
 44 48  1  0
 48 49  2  0
 48 50  1  0
 40 51  2  0
 51 52  1  0
 39 53  1  0
 53 54  2  0
 54 55  1  0
 54 56  1  0
 56 57  2  0
 57 58  1  0
 58 59  2  0
 59 60  1  0
 60 61  2  0
 61 62  1  0
 62 63  1  0
 63 64  1  0
 62 65  2  0
 57 66  1  0
 66 67  1  0
 67 68  1  0
 68 69  1  0
 69 70  1  0
 70 71  1  0
 71 72  2  0
 72 73  1  0
 73 74  1  0
 71 75  1  0
 75 76  1  0
 76 77  1  0
 77 78  1  0
 78 79  1  0
 79 80  1  0
 80 81  2  0
 81 82  1  0
 82 83  2  0
 83 84  1  0
 84 85  1  0
 85 86  1  0
 84 87  2  0
 79 88  2  0
 88 89  1  0
 89 90  1  0
 90 91  1  0
 91 92  1  0
 92 93  1  0
 93 94  1  0
 94 95  1  0
 95 96  1  0
 96 97  1  0
 97 98  1  0
 95 99  1  0
 99100  1  0
 92101  1  0
101102  1  0
 88103  1  0
103104  2  0
104105  1  0
105106  1  0
104107  1  0
107108  2  0
108109  1  0
108110  1  0
110111  2  3
111112  1  0
112113  2  0
112114  1  0
114115  2  0
115116  1  0
115117  1  0
117118  1  0
117119  2  0
119120  1  0
119121  1  0
121122  1  0
121123  2  0
123124  1  0
124125  2  3
125126  1  0
126127  3  0
125128  1  0
128129  3  0
 11  2  1  0
 23 17  1  0
 52 24  1  0
 98 56  1  0
109103  1  0
124111  1  0
 10  5  1  0
 22 18  1  0
 51 26  1  0
 65 58  1  0
 97 66  2  0
123114  1  0
 23  7  1  0
 37 28  1  0
 55 38  1  0
 96 68  2  0
 49 41  1  0
 94 69  2  0
 74 70  2  0
 93 75  2  0
 91 76  2  0
 90 78  2  0
 87 80  1  0
  1130  1  0
  6131  1  0
  9132  1  0
 17133  1  0
 18134  1  0
 19135  1  0
 20136  1  0
 21137  1  0
 22138  1  0
 22139  1  0
 23140  1  0
 25141  1  0
 29142  1  0
 30143  1  0
 33144  1  0
 33145  1  0
 34146  1  0
 34147  1  0
 34148  1  0
 37149  1  0
 42150  1  0
 43151  1  0
 46152  1  0
 46153  1  0
 47154  1  0
 47155  1  0
 47156  1  0
 49157  1  0
 53158  1  0
 59159  1  0
 60160  1  0
 61161  1  0
 63162  1  0
 63163  1  0
 64164  1  0
 64165  1  0
 64166  1  0
 65167  1  0
 81168  1  0
 82169  1  0
 83170  1  0
 85171  1  0
 85172  1  0
 86173  1  0
 86174  1  0
 86175  1  0
 87176  1  0
 99177  1  0
 99178  1  0
100179  1  0
100180  1  0
100181  1  0
101182  1  0
101183  1  0
102184  1  0
102185  1  0
102186  1  0
105187  1  0
105188  1  0
106189  1  0
106190  1  0
106191  1  0
110192  1  0
M  END

