
     RDKit          3D

200225  0  0  0  0  0  0  0  0999 V2000
   -0.2540    6.4705    5.8078 C   0  0  0  0  0  0  0  0  0  0  0  0
   -1.5482    6.1609    5.5785 C   0  0  0  0  0  0  0  0  0  0  0  0
   -2.0229    4.9321    4.9170 C   0  0  0  0  0  0  0  0  0  0  0  0
   -1.3654    3.8812    4.7063 O   0  0  0  0  0  0  0  0  0  0  0  0
   -3.3900    5.1338    4.4962 C   0  0  0  0  0  0  0  0  0  0  0  0
   -4.1869    4.2301    3.7600 C   0  0  0  0  0  0  0  0  0  0  0  0
   -5.4355    4.7244    3.4424 C   0  0  0  0  0  0  0  0  0  0  0  0
   -5.8728    6.0398    3.7996 C   0  0  0  0  0  0  0  0  0  0  0  0
   -5.0906    6.9356    4.5125 C   0  0  0  0  0  0  0  0  0  0  0  0
   -3.8137    6.4316    4.8872 C   0  0  0  0  0  0  0  0  0  0  0  0
   -2.7213    7.0831    5.6713 C   0  0  0  0  0  0  0  0  0  0  0  0
   -2.8372    8.1761    6.4731 C   0  0  0  0  0  0  0  0  0  0  0  0
   -4.0452    8.9406    6.5796 C   0  0  0  0  0  0  0  0  0  0  0  0
   -5.0173    9.5665    6.6805 N   0  0  0  0  0  0  0  0  0  0  0  0
   -1.7891    8.5876    7.3738 C   0  0  0  0  0  0  0  0  0  0  0  0
   -0.9542    8.9253    8.1031 N   0  0  0  0  0  0  0  0  0  0  0  0
   -7.1889    5.8041    3.1196 C   0  0  0  0  0  0  0  0  0  0  0  0
   -7.4049    6.4895    1.7378 C   0  0  0  0  0  0  0  0  0  0  0  0
   -8.5910    5.7927    1.1079 C   0  0  0  0  0  0  0  0  0  0  0  0
   -8.1772    4.5625    0.7805 C   0  0  0  0  0  0  0  0  0  0  0  0
   -6.7311    4.4668    1.2029 C   0  0  0  0  0  0  0  0  0  0  0  0
   -6.3009    5.8893    0.8817 C   0  0  0  0  0  0  0  0  0  0  0  0
   -6.7413    4.4523    2.7596 C   0  0  0  0  0  0  0  0  0  0  0  0
    0.8400    5.5389    5.5200 C   0  0  0  0  0  0  0  0  0  0  0  0
    1.5674    5.5521    4.3374 C   0  0  0  0  0  0  0  0  0  0  0  0
    2.3086    4.3792    4.1446 C   0  0  0  0  0  0  0  0  0  0  0  0
    3.0370    4.0469    2.9894 C   0  0  0  0  0  0  0  0  0  0  0  0
    3.3107    5.0420    1.9301 C   0  0  0  0  0  0  0  0  0  0  0  0
    4.0488    6.1946    2.2428 C   0  0  0  0  0  0  0  0  0  0  0  0
    4.3525    7.1271    1.2481 C   0  0  0  0  0  0  0  0  0  0  0  0
    3.9284    6.9160   -0.0682 C   0  0  0  0  0  0  0  0  0  0  0  0
    4.3453    8.1122   -1.3484 S   0  0  0  0  0  0  0  0  0  0  0  0
    5.8606    7.2486   -1.8986 C   0  0  0  0  0  0  0  0  0  0  0  0
    7.0766    7.7326   -1.1205 C   0  0  0  0  0  0  0  0  0  0  0  0
    3.1725    5.7763   -0.3811 C   0  0  0  0  0  0  0  0  0  0  0  0
    2.7397    5.5648   -1.6524 F   0  0  0  0  0  0  0  0  0  0  0  0
    2.8661    4.8427    0.6146 C   0  0  0  0  0  0  0  0  0  0  0  0
    3.5059    2.7249    2.9009 C   0  0  0  0  0  0  0  0  0  0  0  0
    3.3337    1.7826    3.9223 C   0  0  0  0  0  0  0  0  0  0  0  0
    2.7068    2.1576    5.1335 C   0  0  0  0  0  0  0  0  0  0  0  0
    2.6707    1.2814    6.3292 C   0  0  0  0  0  0  0  0  0  0  0  0
    2.0622    0.0175    6.2918 C   0  0  0  0  0  0  0  0  0  0  0  0
    2.0656   -0.7921    7.4338 C   0  0  0  0  0  0  0  0  0  0  0  0
    2.6497   -0.3397    8.6218 C   0  0  0  0  0  0  0  0  0  0  0  0
    2.6608   -1.4040   10.0722 S   0  0  0  0  0  0  0  0  0  0  0  0
    4.2102   -2.2680    9.6282 C   0  0  0  0  0  0  0  0  0  0  0  0
    5.3575   -1.7948   10.5126 C   0  0  0  0  0  0  0  0  0  0  0  0
    3.2262    0.9372    8.6725 C   0  0  0  0  0  0  0  0  0  0  0  0
    3.2398    1.7387    7.5305 C   0  0  0  0  0  0  0  0  0  0  0  0
    3.7814    1.3976    9.8225 F   0  0  0  0  0  0  0  0  0  0  0  0
    2.1706    3.4577    5.1875 C   0  0  0  0  0  0  0  0  0  0  0  0
    1.1394    4.1010    6.3549 S   0  0  0  0  0  0  0  0  0  0  0  0
    3.8119    0.5018    3.5763 C   0  0  0  0  0  0  0  0  0  0  0  0
    4.3414    0.4404    2.2814 C   0  0  0  0  0  0  0  0  0  0  0  0
    4.2549    1.9834    1.5997 S   0  0  0  0  0  0  0  0  0  0  0  0
    4.6819   -0.7600    1.4804 C   0  0  0  0  0  0  0  0  0  0  0  0
    4.6870   -2.1274    1.8515 C   0  0  0  0  0  0  0  0  0  0  0  0
    4.4510   -2.6526    3.2075 C   0  0  0  0  0  0  0  0  0  0  0  0
    5.3491   -2.3687    4.2468 C   0  0  0  0  0  0  0  0  0  0  0  0
    5.0951   -2.8400    5.5408 C   0  0  0  0  0  0  0  0  0  0  0  0
    3.9601   -3.6193    5.7956 C   0  0  0  0  0  0  0  0  0  0  0  0
    3.0784   -3.9462    4.7517 C   0  0  0  0  0  0  0  0  0  0  0  0
    1.8784   -4.8216    4.9990 C   0  0  0  0  0  0  0  0  0  0  0  0
    0.6095   -3.9908    5.1630 C   0  0  0  0  0  0  0  0  0  0  0  0
    3.3175   -3.4422    3.4642 C   0  0  0  0  0  0  0  0  0  0  0  0
    4.8233   -2.9585    0.7291 C   0  0  0  0  0  0  0  0  0  0  0  0
    4.6817   -4.6419    0.4902 S   0  0  0  0  0  0  0  0  0  0  0  0
    4.7863   -4.4568   -1.1989 C   0  0  0  0  0  0  0  0  0  0  0  0
    4.3600   -5.1636   -2.2904 C   0  0  0  0  0  0  0  0  0  0  0  0
    3.8284   -6.4547   -2.3557 C   0  0  0  0  0  0  0  0  0  0  0  0
    3.1723   -6.8660   -3.5476 C   0  0  0  0  0  0  0  0  0  0  0  0
    2.6217   -8.1059   -3.5509 N   0  0  0  0  0  0  0  0  0  0  0  0
    3.0060   -8.5868   -2.0151 S   0  0  0  0  0  0  0  0  0  0  0  0
    3.8288   -7.3305   -1.3196 N   0  0  0  0  0  0  0  0  0  0  0  0
    3.1182   -5.9873   -4.6277 C   0  0  0  0  0  0  0  0  0  0  0  0
    2.4295   -6.0895   -5.8073 C   0  0  0  0  0  0  0  0  0  0  0  0
    0.9821   -6.8733   -6.2088 S   0  0  0  0  0  0  0  0  0  0  0  0
    0.5001   -5.5939   -7.2252 C   0  0  0  0  0  0  0  0  0  0  0  0
   -0.7984   -5.1835   -7.5417 C   0  0  0  0  0  0  0  0  0  0  0  0
   -1.9462   -6.1060   -7.5473 C   0  0  0  0  0  0  0  0  0  0  0  0
   -2.5807   -6.4817   -6.3567 C   0  0  0  0  0  0  0  0  0  0  0  0
   -3.6310   -7.4023   -6.3849 C   0  0  0  0  0  0  0  0  0  0  0  0
   -4.0447   -7.9628   -7.5994 C   0  0  0  0  0  0  0  0  0  0  0  0
   -3.4242   -7.5827   -8.8010 C   0  0  0  0  0  0  0  0  0  0  0  0
   -3.8549   -8.1953  -10.1084 C   0  0  0  0  0  0  0  0  0  0  0  0
   -2.9714   -9.3824  -10.4863 C   0  0  0  0  0  0  0  0  0  0  0  0
   -2.3659   -6.6610   -8.7671 C   0  0  0  0  0  0  0  0  0  0  0  0
   -0.8889   -3.7856   -7.6791 C   0  0  0  0  0  0  0  0  0  0  0  0
    0.6593   -3.1196   -7.4399 S   0  0  0  0  0  0  0  0  0  0  0  0
    1.4328   -4.5851   -7.2002 C   0  0  0  0  0  0  0  0  0  0  0  0
    2.5423   -4.8831   -6.4203 C   0  0  0  0  0  0  0  0  0  0  0  0
    3.3321   -4.0224   -5.7402 N   0  0  0  0  0  0  0  0  0  0  0  0
    3.6490   -4.6833   -4.5771 C   0  0  0  0  0  0  0  0  0  0  0  0
    4.2382   -4.2338   -3.3454 C   0  0  0  0  0  0  0  0  0  0  0  0
    4.5164   -2.9641   -2.8726 N   0  0  0  0  0  0  0  0  0  0  0  0
    4.8684   -3.1592   -1.5736 C   0  0  0  0  0  0  0  0  0  0  0  0
    4.9098   -2.3051   -0.4708 C   0  0  0  0  0  0  0  0  0  0  0  0
    4.8306   -0.6598   -0.2119 S   0  0  0  0  0  0  0  0  0  0  0  0
    4.1142   -1.6585   -3.4040 C   0  0  0  0  0  0  0  0  0  0  0  0
    2.5926   -1.5123   -3.4279 C   0  0  0  0  0  0  0  0  0  0  0  0
    3.9401   -2.8637   -6.4079 C   0  0  0  0  0  0  0  0  0  0  0  0
    5.4683   -2.9236   -6.3692 C   0  0  0  0  0  0  0  0  0  0  0  0
   -2.1043   -3.0072   -7.3940 C   0  0  0  0  0  0  0  0  0  0  0  0
   -3.3734   -3.1802   -7.9341 C   0  0  0  0  0  0  0  0  0  0  0  0
   -3.6278   -3.9518   -9.0249 F   0  0  0  0  0  0  0  0  0  0  0  0
   -4.3809   -2.5012   -7.2281 C   0  0  0  0  0  0  0  0  0  0  0  0
   -5.6951   -2.5735   -7.5572 F   0  0  0  0  0  0  0  0  0  0  0  0
   -3.9094   -1.8226   -6.1083 C   0  0  0  0  0  0  0  0  0  0  0  0
   -2.2371   -2.0013   -6.0450 S   0  0  0  0  0  0  0  0  0  0  0  0
   -4.7364   -1.1238   -5.1084 C   0  0  0  0  0  0  0  0  0  0  0  0
   -4.7159   -1.4184   -3.7915 C   0  0  0  0  0  0  0  0  0  0  0  0
   -3.8755   -2.4446   -3.1572 C   0  0  0  0  0  0  0  0  0  0  0  0
   -3.3459   -3.4312   -3.7233 O   0  0  0  0  0  0  0  0  0  0  0  0
   -3.8160   -2.1799   -1.7376 C   0  0  0  0  0  0  0  0  0  0  0  0
   -2.9794   -2.8144   -0.7938 C   0  0  0  0  0  0  0  0  0  0  0  0
   -3.0759   -2.2952    0.4811 C   0  0  0  0  0  0  0  0  0  0  0  0
   -3.9563   -1.2173    0.8230 C   0  0  0  0  0  0  0  0  0  0  0  0
   -4.7691   -0.5815   -0.1045 C   0  0  0  0  0  0  0  0  0  0  0  0
   -4.6861   -1.1047   -1.4270 C   0  0  0  0  0  0  0  0  0  0  0  0
   -5.3733   -0.6604   -2.6780 C   0  0  0  0  0  0  0  0  0  0  0  0
   -6.5021    0.0930   -2.7606 C   0  0  0  0  0  0  0  0  0  0  0  0
   -7.2333    0.2620   -3.9920 C   0  0  0  0  0  0  0  0  0  0  0  0
   -7.8314    0.3948   -4.9748 N   0  0  0  0  0  0  0  0  0  0  0  0
   -7.1408    0.6570   -1.6016 C   0  0  0  0  0  0  0  0  0  0  0  0
   -7.6699    1.1096   -0.6723 N   0  0  0  0  0  0  0  0  0  0  0  0
   -3.4770   -1.2628    2.2499 C   0  0  0  0  0  0  0  0  0  0  0  0
   -2.5351   -0.1212    2.7428 C   0  0  0  0  0  0  0  0  0  0  0  0
   -1.7389    0.4159    1.5820 C   0  0  0  0  0  0  0  0  0  0  0  0
   -0.8943   -0.5537    1.2214 C   0  0  0  0  0  0  0  0  0  0  0  0
   -1.1444   -1.7172    2.1560 C   0  0  0  0  0  0  0  0  0  0  0  0
   -1.4479   -0.9420    3.4224 C   0  0  0  0  0  0  0  0  0  0  0  0
   -2.5488   -2.3384    1.8828 C   0  0  0  0  0  0  0  0  0  0  0  0
    0.0340    7.4805    6.0501 H   0  0  0  0  0  0  0  0  0  0  0  0
   -3.8455    3.2498    3.4494 H   0  0  0  0  0  0  0  0  0  0  0  0
   -5.4428    7.9315    4.7164 H   0  0  0  0  0  0  0  0  0  0  0  0
   -8.0569    5.8317    3.8173 H   0  0  0  0  0  0  0  0  0  0  0  0
   -7.4587    7.5985    1.7541 H   0  0  0  0  0  0  0  0  0  0  0  0
   -9.5646    6.2241    0.8860 H   0  0  0  0  0  0  0  0  0  0  0  0
   -8.7530    3.8221    0.2380 H   0  0  0  0  0  0  0  0  0  0  0  0
   -6.1455    3.6546    0.7231 H   0  0  0  0  0  0  0  0  0  0  0  0
   -5.2741    6.1457    1.2224 H   0  0  0  0  0  0  0  0  0  0  0  0
   -6.3864    6.1456   -0.2015 H   0  0  0  0  0  0  0  0  0  0  0  0
   -7.3206    3.6281    3.2322 H   0  0  0  0  0  0  0  0  0  0  0  0
    1.4759    6.3405    3.5997 H   0  0  0  0  0  0  0  0  0  0  0  0
    4.3997    6.3635    3.2550 H   0  0  0  0  0  0  0  0  0  0  0  0
    4.9269    8.0126    1.4999 H   0  0  0  0  0  0  0  0  0  0  0  0
    6.0113    7.4720   -2.9757 H   0  0  0  0  0  0  0  0  0  0  0  0
    5.7558    6.1469   -1.7924 H   0  0  0  0  0  0  0  0  0  0  0  0
    7.9829    7.1934   -1.4714 H   0  0  0  0  0  0  0  0  0  0  0  0
    7.2276    8.8213   -1.2832 H   0  0  0  0  0  0  0  0  0  0  0  0
    6.9437    7.5337   -0.0364 H   0  0  0  0  0  0  0  0  0  0  0  0
    2.2867    3.9638    0.3623 H   0  0  0  0  0  0  0  0  0  0  0  0
    1.5973   -0.3510    5.3843 H   0  0  0  0  0  0  0  0  0  0  0  0
    1.6180   -1.7745    7.3965 H   0  0  0  0  0  0  0  0  0  0  0  0
    4.0595   -3.3559    9.7835 H   0  0  0  0  0  0  0  0  0  0  0  0
    4.4756   -2.1071    8.5628 H   0  0  0  0  0  0  0  0  0  0  0  0
    5.1604   -2.0660   11.5729 H   0  0  0  0  0  0  0  0  0  0  0  0
    5.4880   -0.6947   10.4333 H   0  0  0  0  0  0  0  0  0  0  0  0
    6.2980   -2.2903   10.1892 H   0  0  0  0  0  0  0  0  0  0  0  0
    3.7031    2.7203    7.5752 H   0  0  0  0  0  0  0  0  0  0  0  0
    3.7049   -0.3475    4.2186 H   0  0  0  0  0  0  0  0  0  0  0  0
    6.2291   -1.7642    4.0644 H   0  0  0  0  0  0  0  0  0  0  0  0
    5.7828   -2.6048    6.3457 H   0  0  0  0  0  0  0  0  0  0  0  0
    3.7800   -3.9819    6.8011 H   0  0  0  0  0  0  0  0  0  0  0  0
    2.0254   -5.4456    5.9071 H   0  0  0  0  0  0  0  0  0  0  0  0
    1.7498   -5.5136    4.1396 H   0  0  0  0  0  0  0  0  0  0  0  0
   -0.2742   -4.6629    5.2227 H   0  0  0  0  0  0  0  0  0  0  0  0
    0.4761   -3.3083    4.2977 H   0  0  0  0  0  0  0  0  0  0  0  0
    0.6603   -3.3939    6.0956 H   0  0  0  0  0  0  0  0  0  0  0  0
    2.6242   -3.6648    2.6630 H   0  0  0  0  0  0  0  0  0  0  0  0
   -2.2592   -6.0666   -5.4115 H   0  0  0  0  0  0  0  0  0  0  0  0
   -4.1160   -7.6981   -5.4628 H   0  0  0  0  0  0  0  0  0  0  0  0
   -4.8588   -8.6764   -7.6058 H   0  0  0  0  0  0  0  0  0  0  0  0
   -3.7981   -7.4289  -10.9131 H   0  0  0  0  0  0  0  0  0  0  0  0
   -4.9124   -8.5327  -10.0482 H   0  0  0  0  0  0  0  0  0  0  0  0
   -1.9086   -9.0636  -10.5779 H   0  0  0  0  0  0  0  0  0  0  0  0
   -3.2996   -9.7941  -11.4647 H   0  0  0  0  0  0  0  0  0  0  0  0
   -3.0456  -10.1849   -9.7188 H   0  0  0  0  0  0  0  0  0  0  0  0
   -1.8670   -6.3706   -9.6895 H   0  0  0  0  0  0  0  0  0  0  0  0
    4.5991   -1.4571   -4.3622 H   0  0  0  0  0  0  0  0  0  0  0  0
    4.5291   -0.8392   -2.7893 H   0  0  0  0  0  0  0  0  0  0  0  0
    2.3140   -0.5258   -3.8497 H   0  0  0  0  0  0  0  0  0  0  0  0
    2.1906   -1.5845   -2.3929 H   0  0  0  0  0  0  0  0  0  0  0  0
    2.1247   -2.3061   -4.0414 H   0  0  0  0  0  0  0  0  0  0  0  0
    3.6606   -2.8659   -7.4860 H   0  0  0  0  0  0  0  0  0  0  0  0
    3.5006   -1.9186   -6.0496 H   0  0  0  0  0  0  0  0  0  0  0  0
    5.8478   -3.1038   -5.3456 H   0  0  0  0  0  0  0  0  0  0  0  0
    5.8872   -1.9651   -6.7357 H   0  0  0  0  0  0  0  0  0  0  0  0
    5.8279   -3.7474   -7.0209 H   0  0  0  0  0  0  0  0  0  0  0  0
   -5.3247   -0.3054   -5.4848 H   0  0  0  0  0  0  0  0  0  0  0  0
   -2.2937   -3.6138   -1.0519 H   0  0  0  0  0  0  0  0  0  0  0  0
   -5.3589    0.2737    0.1817 H   0  0  0  0  0  0  0  0  0  0  0  0
   -4.2537   -1.5813    2.9832 H   0  0  0  0  0  0  0  0  0  0  0  0
   -3.0155    0.6493    3.3821 H   0  0  0  0  0  0  0  0  0  0  0  0
   -1.7690    1.4215    1.1775 H   0  0  0  0  0  0  0  0  0  0  0  0
   -0.1173   -0.4621    0.4739 H   0  0  0  0  0  0  0  0  0  0  0  0
   -0.3120   -2.4433    2.2163 H   0  0  0  0  0  0  0  0  0  0  0  0
   -0.5895   -0.3269    3.7835 H   0  0  0  0  0  0  0  0  0  0  0  0
   -1.8222   -1.5761    4.2608 H   0  0  0  0  0  0  0  0  0  0  0  0
   -2.7426   -3.2987    2.4069 H   0  0  0  0  0  0  0  0  0  0  0  0
  1  2  2  3
  2  3  1  0
  3  4  2  0
  3  5  1  0
  5  6  2  0
  6  7  1  0
  7  8  2  0
  8  9  1  0
  9 10  2  0
 10 11  1  0
 11 12  2  3
 12 13  1  0
 13 14  3  0
 12 15  1  0
 15 16  3  0
  8 17  1  0
 17 18  1  0
 18 19  1  0
 19 20  2  0
 20 21  1  0
 21 22  1  0
 21 23  1  0
  1 24  1  0
 24 25  2  0
 25 26  1  0
 26 27  2  0
 27 28  1  0
 28 29  2  0
 29 30  1  0
 30 31  2  0
 31 32  1  0
 32 33  1  0
 33 34  1  0
 31 35  1  0
 35 36  1  0
 35 37  2  0
 27 38  1  0
 38 39  2  0
 39 40  1  0
 40 41  1  0
 41 42  2  0
 42 43  1  0
 43 44  2  0
 44 45  1  0
 45 46  1  0
 46 47  1  0
 44 48  1  0
 48 49  2  0
 48 50  1  0
 40 51  2  0
 51 52  1  0
 39 53  1  0
 53 54  2  0
 54 55  1  0
 54 56  1  0
 56 57  2  0
 57 58  1  0
 58 59  2  0
 59 60  1  0
 60 61  2  0
 61 62  1  0
 62 63  1  0
 63 64  1  0
 62 65  2  0
 57 66  1  0
 66 67  1  0
 67 68  1  0
 68 69  1  0
 69 70  1  0
 70 71  1  0
 71 72  2  0
 72 73  1  0
 73 74  1  0
 71 75  1  0
 75 76  1  0
 76 77  1  0
 77 78  1  0
 78 79  1  0
 79 80  1  0
 80 81  2  0
 81 82  1  0
 82 83  2  0
 83 84  1  0
 84 85  1  0
 85 86  1  0
 84 87  2  0
 79 88  2  0
 88 89  1  0
 89 90  1  0
 90 91  1  0
 91 92  1  0
 92 93  1  0
 93 94  1  0
 94 95  1  0
 95 96  1  0
 96 97  1  0
 97 98  1  0
 95 99  1  0
 99100  1  0
 92101  1  0
101102  1  0
 88103  1  0
103104  2  0
104105  1  0
104106  1  0
106107  1  0
106108  2  0
108109  1  0
108110  1  0
110111  2  3
111112  1  0
112113  2  0
112114  1  0
114115  2  0
115116  1  0
116117  2  0
117118  1  0
118119  2  0
119120  1  0
120121  2  3
121122  1  0
122123  3  0
121124  1  0
124125  3  0
117126  1  0
126127  1  0
127128  1  0
128129  2  0
129130  1  0
130131  1  0
130132  1  0
 11  2  1  0
 23 17  1  0
 52 24  1  0
 98 56  1  0
109103  1  0
120111  1  0
132126  1  0
 10  5  1  0
 22 18  1  0
 51 26  1  0
 65 58  1  0
 97 66  2  0
119114  1  0
131127  1  0
 23  7  1  0
 37 28  1  0
 55 38  1  0
 96 68  2  0
132116  1  0
 49 41  1  0
 94 69  2  0
 74 70  2  0
 93 75  2  0
 91 76  2  0
 90 78  2  0
 87 80  1  0
  1133  1  0
  6134  1  0
  9135  1  0
 17136  1  0
 18137  1  0
 19138  1  0
 20139  1  0
 21140  1  0
 22141  1  0
 22142  1  0
 23143  1  0
 25144  1  0
 29145  1  0
 30146  1  0
 33147  1  0
 33148  1  0
 34149  1  0
 34150  1  0
 34151  1  0
 37152  1  0
 42153  1  0
 43154  1  0
 46155  1  0
 46156  1  0
 47157  1  0
 47158  1  0
 47159  1  0
 49160  1  0
 53161  1  0
 59162  1  0
 60163  1  0
 61164  1  0
 63165  1  0
 63166  1  0
 64167  1  0
 64168  1  0
 64169  1  0
 65170  1  0
 81171  1  0
 82172  1  0
 83173  1  0
 85174  1  0
 85175  1  0
 86176  1  0
 86177  1  0
 86178  1  0
 87179  1  0
 99180  1  0
 99181  1  0
100182  1  0
100183  1  0
100184  1  0
101185  1  0
101186  1  0
102187  1  0
102188  1  0
102189  1  0
110190  1  0
115191  1  0
118192  1  0
126193  1  0
127194  1  0
128195  1  0
129196  1  0
130197  1  0
131198  1  0
131199  1  0
132200  1  0
M  END

