
     RDKit          3D

184202  0  0  0  0  0  0  0  0999 V2000
  -13.5272   -3.5838   -2.4367 C   0  0  0  0  0  0  0  0  0  0  0  0
  -14.1750   -2.6609   -1.6977 C   0  0  0  0  0  0  0  0  0  0  0  0
  -15.5990   -2.8138   -1.3558 C   0  0  0  0  0  0  0  0  0  0  0  0
  -16.4377   -3.5705   -1.9119 O   0  0  0  0  0  0  0  0  0  0  0  0
  -15.8500   -1.9567   -0.2294 C   0  0  0  0  0  0  0  0  0  0  0  0
  -17.1733   -1.5303    0.7046 S   0  0  0  0  0  0  0  0  0  0  0  0
  -16.2808   -0.4177    1.6249 C   0  0  0  0  0  0  0  0  0  0  0  0
  -14.9546   -0.3704    1.1713 C   0  0  0  0  0  0  0  0  0  0  0  0
  -14.7414   -1.2643    0.1172 C   0  0  0  0  0  0  0  0  0  0  0  0
  -13.6458   -1.5445   -0.8414 C   0  0  0  0  0  0  0  0  0  0  0  0
  -12.6563   -0.6742   -1.1419 C   0  0  0  0  0  0  0  0  0  0  0  0
  -11.9854   -0.6840   -2.4157 C   0  0  0  0  0  0  0  0  0  0  0  0
  -11.4263   -0.6751   -3.4316 N   0  0  0  0  0  0  0  0  0  0  0  0
  -12.2786    0.3908   -0.2534 C   0  0  0  0  0  0  0  0  0  0  0  0
  -11.9686    1.2482    0.4587 N   0  0  0  0  0  0  0  0  0  0  0  0
  -12.0657   -3.7825   -2.5406 C   0  0  0  0  0  0  0  0  0  0  0  0
  -11.4306   -4.3813   -3.6323 C   0  0  0  0  0  0  0  0  0  0  0  0
  -12.1595   -4.9060   -4.8068 C   0  0  0  0  0  0  0  0  0  0  0  0
  -12.7014   -6.2180   -4.7663 C   0  0  0  0  0  0  0  0  0  0  0  0
  -13.5020   -6.6673   -5.8273 C   0  0  0  0  0  0  0  0  0  0  0  0
  -13.8149   -5.8249   -6.8964 C   0  0  0  0  0  0  0  0  0  0  0  0
  -14.7809   -6.2714   -7.9567 C   0  0  0  0  0  0  0  0  0  0  0  0
  -16.2001   -5.8348   -7.6054 C   0  0  0  0  0  0  0  0  0  0  0  0
  -13.2924   -4.5288   -6.9277 C   0  0  0  0  0  0  0  0  0  0  0  0
  -12.4274   -4.0674   -5.9212 C   0  0  0  0  0  0  0  0  0  0  0  0
  -11.8989   -2.6460   -5.9996 C   0  0  0  0  0  0  0  0  0  0  0  0
  -11.2838   -2.3127   -7.3603 C   0  0  0  0  0  0  0  0  0  0  0  0
  -12.4261   -7.1749   -3.6234 C   0  0  0  0  0  0  0  0  0  0  0  0
  -11.2030   -8.0404   -3.9165 C   0  0  0  0  0  0  0  0  0  0  0  0
  -10.0378   -4.4667   -3.4984 C   0  0  0  0  0  0  0  0  0  0  0  0
   -9.5828   -4.0123   -2.2696 C   0  0  0  0  0  0  0  0  0  0  0  0
  -10.8971   -3.4839   -1.3587 S   0  0  0  0  0  0  0  0  0  0  0  0
   -8.1767   -3.8450   -1.9044 C   0  0  0  0  0  0  0  0  0  0  0  0
   -7.0847   -2.8848   -2.7773 S   0  0  0  0  0  0  0  0  0  0  0  0
   -5.7805   -3.2109   -1.7747 C   0  0  0  0  0  0  0  0  0  0  0  0
   -4.4798   -2.6861   -1.8031 C   0  0  0  0  0  0  0  0  0  0  0  0
   -3.8967   -1.3726   -2.7278 S   0  0  0  0  0  0  0  0  0  0  0  0
   -2.4286   -1.3875   -1.9019 C   0  0  0  0  0  0  0  0  0  0  0  0
   -1.2554   -0.6970   -1.8664 C   0  0  0  0  0  0  0  0  0  0  0  0
   -0.7915    0.3777   -2.6266 C   0  0  0  0  0  0  0  0  0  0  0  0
    0.5299    0.8545   -2.3935 C   0  0  0  0  0  0  0  0  0  0  0  0
    0.9538    1.8966   -3.1520 N   0  0  0  0  0  0  0  0  0  0  0  0
   -0.4023    2.1320   -4.0765 S   0  0  0  0  0  0  0  0  0  0  0  0
   -1.5134    1.0014   -3.5913 N   0  0  0  0  0  0  0  0  0  0  0  0
    1.3070    0.2284   -1.4114 C   0  0  0  0  0  0  0  0  0  0  0  0
    2.5283    0.5456   -0.9033 C   0  0  0  0  0  0  0  0  0  0  0  0
    3.6111    1.8340   -1.0008 S   0  0  0  0  0  0  0  0  0  0  0  0
    4.4966    1.2540    0.3369 C   0  0  0  0  0  0  0  0  0  0  0  0
    5.6419    1.8020    0.9410 C   0  0  0  0  0  0  0  0  0  0  0  0
    6.2893    1.1353    1.9841 C   0  0  0  0  0  0  0  0  0  0  0  0
    5.7600   -0.0812    2.4231 C   0  0  0  0  0  0  0  0  0  0  0  0
    6.2301   -0.9364    3.3422 N   0  0  0  0  0  0  0  0  0  0  0  0
    5.3619   -1.9467    3.3339 N   0  0  0  0  0  0  0  0  0  0  0  0
    5.5068   -3.1355    4.1661 C   0  0  0  0  0  0  0  0  0  0  0  0
    6.3102   -4.2003    3.4280 C   0  0  0  0  0  0  0  0  0  0  0  0
    4.3777   -1.7909    2.4487 N   0  0  0  0  0  0  0  0  0  0  0  0
    4.6078   -0.5971    1.8841 C   0  0  0  0  0  0  0  0  0  0  0  0
    3.9247    0.0711    0.8532 C   0  0  0  0  0  0  0  0  0  0  0  0
    2.7618   -0.2710    0.1527 C   0  0  0  0  0  0  0  0  0  0  0  0
    1.6859   -1.0567    0.4460 N   0  0  0  0  0  0  0  0  0  0  0  0
    0.8263   -0.8216   -0.6098 C   0  0  0  0  0  0  0  0  0  0  0  0
   -0.4722   -1.3334   -0.8888 C   0  0  0  0  0  0  0  0  0  0  0  0
   -1.1081   -2.4549   -0.4163 N   0  0  0  0  0  0  0  0  0  0  0  0
   -2.3376   -2.3817   -0.9916 C   0  0  0  0  0  0  0  0  0  0  0  0
   -3.5202   -3.1161   -0.8576 C   0  0  0  0  0  0  0  0  0  0  0  0
   -3.9431   -3.9874    0.1588 C   0  0  0  0  0  0  0  0  0  0  0  0
   -5.2349   -4.4488    0.2092 C   0  0  0  0  0  0  0  0  0  0  0  0
   -6.1820   -4.0809   -0.7551 C   0  0  0  0  0  0  0  0  0  0  0  0
   -7.5378   -4.4237   -0.8039 C   0  0  0  0  0  0  0  0  0  0  0  0
   -5.4125   -5.1106    1.3639 N   0  0  0  0  0  0  0  0  0  0  0  0
   -4.2325   -5.0356    1.9795 N   0  0  0  0  0  0  0  0  0  0  0  0
   -3.9869   -5.5541    3.3172 C   0  0  0  0  0  0  0  0  0  0  0  0
   -4.2773   -4.4804    4.3584 C   0  0  0  0  0  0  0  0  0  0  0  0
   -3.3257   -4.3382    1.2968 N   0  0  0  0  0  0  0  0  0  0  0  0
   -0.4517   -3.7283   -0.0729 C   0  0  0  0  0  0  0  0  0  0  0  0
    0.3822   -4.2460   -1.2448 C   0  0  0  0  0  0  0  0  0  0  0  0
    1.3550   -1.4733    1.8213 C   0  0  0  0  0  0  0  0  0  0  0  0
   -0.0329   -1.0232    2.2848 C   0  0  0  0  0  0  0  0  0  0  0  0
    7.3888    1.8204    2.4992 C   0  0  0  0  0  0  0  0  0  0  0  0
    7.5742    3.0585    1.8758 C   0  0  0  0  0  0  0  0  0  0  0  0
    6.3973    3.2793    0.6780 S   0  0  0  0  0  0  0  0  0  0  0  0
    8.5422    4.0779    2.2965 C   0  0  0  0  0  0  0  0  0  0  0  0
    9.8730    3.8676    2.6646 C   0  0  0  0  0  0  0  0  0  0  0  0
   10.5637    2.5582    2.5863 C   0  0  0  0  0  0  0  0  0  0  0  0
   10.8007    1.8016    3.7637 C   0  0  0  0  0  0  0  0  0  0  0  0
   11.5175    0.5992    3.6775 C   0  0  0  0  0  0  0  0  0  0  0  0
   12.0017    0.1360    2.4499 C   0  0  0  0  0  0  0  0  0  0  0  0
   12.7980   -1.1428    2.3865 C   0  0  0  0  0  0  0  0  0  0  0  0
   11.8860   -2.3374    2.1279 C   0  0  0  0  0  0  0  0  0  0  0  0
   11.7178    0.8514    1.2831 C   0  0  0  0  0  0  0  0  0  0  0  0
   10.9929    2.0527    1.3329 C   0  0  0  0  0  0  0  0  0  0  0  0
   10.7843    2.8123    0.0385 C   0  0  0  0  0  0  0  0  0  0  0  0
   11.9249    3.7957   -0.2018 C   0  0  0  0  0  0  0  0  0  0  0  0
   10.2970    2.2329    5.1265 C   0  0  0  0  0  0  0  0  0  0  0  0
   11.4264    2.7990    5.9833 C   0  0  0  0  0  0  0  0  0  0  0  0
   10.4935    5.0191    3.1747 C   0  0  0  0  0  0  0  0  0  0  0  0
    9.6716    6.1378    3.1963 C   0  0  0  0  0  0  0  0  0  0  0  0
    8.1521    5.6798    2.6291 S   0  0  0  0  0  0  0  0  0  0  0  0
    9.9485    7.3322    4.0176 C   0  0  0  0  0  0  0  0  0  0  0  0
    9.6330    8.6116    3.7234 C   0  0  0  0  0  0  0  0  0  0  0  0
    9.1388    9.0797    2.3965 C   0  0  0  0  0  0  0  0  0  0  0  0
    8.9644    8.2673    1.4445 O   0  0  0  0  0  0  0  0  0  0  0  0
    8.8930   10.4870    2.1809 N   0  0  0  0  0  0  0  0  0  0  0  0
    8.1984   10.9355    0.9665 C   0  0  0  0  0  0  0  0  0  0  0  0
    9.1909   11.1430   -0.1722 C   0  0  0  0  0  0  0  0  0  0  0  0
    9.4371   11.4556    3.1004 C   0  0  0  0  0  0  0  0  0  0  0  0
    9.2640   12.6918    2.9083 O   0  0  0  0  0  0  0  0  0  0  0  0
   10.2643   11.0111    4.2728 C   0  0  0  0  0  0  0  0  0  0  0  0
   11.6746   10.9221    3.8597 C   0  0  0  0  0  0  0  0  0  0  0  0
   12.7858   10.8549    3.5429 N   0  0  0  0  0  0  0  0  0  0  0  0
    9.7702    9.6537    4.8234 C   0  0  0  0  0  0  0  0  0  0  0  0
    8.4281    9.8082    5.5553 C   0  0  0  0  0  0  0  0  0  0  0  0
  -14.1388   -4.2986   -2.9761 H   0  0  0  0  0  0  0  0  0  0  0  0
  -16.6818    0.1960    2.4194 H   0  0  0  0  0  0  0  0  0  0  0  0
  -14.2116    0.2877    1.5917 H   0  0  0  0  0  0  0  0  0  0  0  0
  -13.9185   -7.6706   -5.7994 H   0  0  0  0  0  0  0  0  0  0  0  0
  -14.4955   -5.8361   -8.9385 H   0  0  0  0  0  0  0  0  0  0  0  0
  -14.7535   -7.3769   -8.0645 H   0  0  0  0  0  0  0  0  0  0  0  0
  -16.8914   -6.1304   -8.4235 H   0  0  0  0  0  0  0  0  0  0  0  0
  -16.2472   -4.7298   -7.4842 H   0  0  0  0  0  0  0  0  0  0  0  0
  -16.5309   -6.3193   -6.6609 H   0  0  0  0  0  0  0  0  0  0  0  0
  -13.5757   -3.8736   -7.7418 H   0  0  0  0  0  0  0  0  0  0  0  0
  -11.0982   -2.4796   -5.2537 H   0  0  0  0  0  0  0  0  0  0  0  0
  -12.7234   -1.9334   -5.7787 H   0  0  0  0  0  0  0  0  0  0  0  0
  -10.7396   -1.3466   -7.2958 H   0  0  0  0  0  0  0  0  0  0  0  0
  -10.5660   -3.1055   -7.6666 H   0  0  0  0  0  0  0  0  0  0  0  0
  -12.0716   -2.2031   -8.1369 H   0  0  0  0  0  0  0  0  0  0  0  0
  -12.2744   -6.6324   -2.6671 H   0  0  0  0  0  0  0  0  0  0  0  0
  -13.3044   -7.8368   -3.4617 H   0  0  0  0  0  0  0  0  0  0  0  0
  -10.3040   -7.3987   -4.0401 H   0  0  0  0  0  0  0  0  0  0  0  0
  -11.3642   -8.6340   -4.8424 H   0  0  0  0  0  0  0  0  0  0  0  0
  -11.0292   -8.7341   -3.0680 H   0  0  0  0  0  0  0  0  0  0  0  0
   -9.3855   -4.8615   -4.2672 H   0  0  0  0  0  0  0  0  0  0  0  0
    6.0220   -2.8717    5.1148 H   0  0  0  0  0  0  0  0  0  0  0  0
    4.5030   -3.5395    4.4166 H   0  0  0  0  0  0  0  0  0  0  0  0
    7.3433   -3.8402    3.2435 H   0  0  0  0  0  0  0  0  0  0  0  0
    6.3581   -5.1217    4.0444 H   0  0  0  0  0  0  0  0  0  0  0  0
    5.8259   -4.4435    2.4590 H   0  0  0  0  0  0  0  0  0  0  0  0
   -8.0310   -5.0669   -0.0873 H   0  0  0  0  0  0  0  0  0  0  0  0
   -4.6386   -6.4342    3.5071 H   0  0  0  0  0  0  0  0  0  0  0  0
   -2.9277   -5.8814    3.4067 H   0  0  0  0  0  0  0  0  0  0  0  0
   -5.3516   -4.2025    4.3275 H   0  0  0  0  0  0  0  0  0  0  0  0
   -3.6591   -3.5805    4.1615 H   0  0  0  0  0  0  0  0  0  0  0  0
   -4.0369   -4.8656    5.3748 H   0  0  0  0  0  0  0  0  0  0  0  0
   -1.2011   -4.5043    0.1662 H   0  0  0  0  0  0  0  0  0  0  0  0
    0.1815   -3.6328    0.8126 H   0  0  0  0  0  0  0  0  0  0  0  0
   -0.2418   -4.3094   -2.1573 H   0  0  0  0  0  0  0  0  0  0  0  0
    1.2419   -3.5707   -1.4309 H   0  0  0  0  0  0  0  0  0  0  0  0
    0.7675   -5.2569   -1.0138 H   0  0  0  0  0  0  0  0  0  0  0  0
    2.0418   -0.9673    2.5276 H   0  0  0  0  0  0  0  0  0  0  0  0
    1.5342   -2.5521    1.9747 H   0  0  0  0  0  0  0  0  0  0  0  0
   -0.8294   -1.6956    1.9188 H   0  0  0  0  0  0  0  0  0  0  0  0
   -0.2383    0.0161    1.9512 H   0  0  0  0  0  0  0  0  0  0  0  0
   -0.0799   -1.0503    3.3925 H   0  0  0  0  0  0  0  0  0  0  0  0
    7.9762    1.4682    3.3348 H   0  0  0  0  0  0  0  0  0  0  0  0
   11.6996    0.0204    4.5763 H   0  0  0  0  0  0  0  0  0  0  0  0
   13.3504   -1.3038    3.3386 H   0  0  0  0  0  0  0  0  0  0  0  0
   13.5538   -1.0826    1.5755 H   0  0  0  0  0  0  0  0  0  0  0  0
   11.3849   -2.2325    1.1392 H   0  0  0  0  0  0  0  0  0  0  0  0
   12.4884   -3.2717    2.1200 H   0  0  0  0  0  0  0  0  0  0  0  0
   11.1128   -2.4159    2.9242 H   0  0  0  0  0  0  0  0  0  0  0  0
   12.0814    0.4785    0.3307 H   0  0  0  0  0  0  0  0  0  0  0  0
    9.8212    3.3588    0.0382 H   0  0  0  0  0  0  0  0  0  0  0  0
   10.7338    2.1053   -0.8182 H   0  0  0  0  0  0  0  0  0  0  0  0
   12.8898    3.2500   -0.2865 H   0  0  0  0  0  0  0  0  0  0  0  0
   11.7452    4.3504   -1.1483 H   0  0  0  0  0  0  0  0  0  0  0  0
   11.9916    4.5260    0.6307 H   0  0  0  0  0  0  0  0  0  0  0  0
    9.4853    2.9863    5.0496 H   0  0  0  0  0  0  0  0  0  0  0  0
    9.8551    1.3567    5.6465 H   0  0  0  0  0  0  0  0  0  0  0  0
   11.0136    3.1306    6.9612 H   0  0  0  0  0  0  0  0  0  0  0  0
   11.9012    3.6680    5.4846 H   0  0  0  0  0  0  0  0  0  0  0  0
   12.1960    2.0188    6.1733 H   0  0  0  0  0  0  0  0  0  0  0  0
   11.5082    5.0248    3.5518 H   0  0  0  0  0  0  0  0  0  0  0  0
   10.3993    7.1132    4.9825 H   0  0  0  0  0  0  0  0  0  0  0  0
    7.4315   10.1885    0.6617 H   0  0  0  0  0  0  0  0  0  0  0  0
    7.6514   11.8854    1.1555 H   0  0  0  0  0  0  0  0  0  0  0  0
    9.7099   10.1887   -0.4083 H   0  0  0  0  0  0  0  0  0  0  0  0
    8.6528   11.4936   -1.0791 H   0  0  0  0  0  0  0  0  0  0  0  0
    9.9494   11.9017    0.1168 H   0  0  0  0  0  0  0  0  0  0  0  0
   10.2029   11.7752    5.0805 H   0  0  0  0  0  0  0  0  0  0  0  0
   10.5144    9.3162    5.5817 H   0  0  0  0  0  0  0  0  0  0  0  0
    7.6362   10.1472    4.8578 H   0  0  0  0  0  0  0  0  0  0  0  0
    8.1206    8.8345    5.9931 H   0  0  0  0  0  0  0  0  0  0  0  0
    8.5237   10.5460    6.3813 H   0  0  0  0  0  0  0  0  0  0  0  0
  1  2  2  3
  2  3  1  0
  3  4  2  0
  3  5  1  0
  5  6  1  0
  6  7  1  0
  7  8  2  0
  8  9  1  0
  9 10  1  0
 10 11  2  3
 11 12  1  0
 12 13  3  0
 11 14  1  0
 14 15  3  0
  1 16  1  0
 16 17  2  0
 17 18  1  0
 18 19  2  0
 19 20  1  0
 20 21  2  0
 21 22  1  0
 22 23  1  0
 21 24  1  0
 24 25  2  0
 25 26  1  0
 26 27  1  0
 19 28  1  0
 28 29  1  0
 17 30  1  0
 30 31  2  0
 31 32  1  0
 31 33  1  0
 33 34  1  0
 34 35  1  0
 35 36  1  0
 36 37  1  0
 37 38  1  0
 38 39  1  0
 39 40  1  0
 40 41  1  0
 41 42  2  0
 42 43  1  0
 43 44  1  0
 41 45  1  0
 45 46  1  0
 46 47  1  0
 47 48  1  0
 48 49  1  0
 49 50  2  0
 50 51  1  0
 51 52  2  0
 52 53  1  0
 53 54  1  0
 54 55  1  0
 53 56  1  0
 56 57  2  0
 57 58  1  0
 58 59  1  0
 59 60  1  0
 60 61  1  0
 61 62  1  0
 62 63  1  0
 63 64  1  0
 64 65  1  0
 65 66  1  0
 66 67  1  0
 67 68  1  0
 68 69  1  0
 67 70  2  0
 70 71  1  0
 71 72  1  0
 72 73  1  0
 71 74  1  0
 63 75  1  0
 75 76  1  0
 60 77  1  0
 77 78  1  0
 50 79  1  0
 79 80  2  0
 80 81  1  0
 80 82  1  0
 82 83  2  0
 83 84  1  0
 84 85  2  0
 85 86  1  0
 86 87  2  0
 87 88  1  0
 88 89  1  0
 87 90  1  0
 90 91  2  0
 91 92  1  0
 92 93  1  0
 85 94  1  0
 94 95  1  0
 83 96  1  0
 96 97  2  0
 97 98  1  0
 97 99  1  0
 99100  2  3
100101  1  0
101102  2  0
101103  1  0
103104  1  0
104105  1  0
103106  1  0
106107  2  0
106108  1  0
108109  1  0
109110  3  0
108111  1  0
111112  1  0
 10  2  1  0
 32 16  1  0
 69 33  2  0
 98 82  1  0
111100  1  0
  9  5  2  0
 25 18  1  0
 68 35  2  0
 91 84  1  0
 65 36  2  0
 74 66  2  0
 64 38  2  0
 62 39  2  0
 44 40  2  0
 61 45  2  0
 59 46  2  0
 58 48  2  0
 81 49  1  0
 57 51  1  0
  1113  1  0
  7114  1  0
  8115  1  0
 20116  1  0
 22117  1  0
 22118  1  0
 23119  1  0
 23120  1  0
 23121  1  0
 24122  1  0
 26123  1  0
 26124  1  0
 27125  1  0
 27126  1  0
 27127  1  0
 28128  1  0
 28129  1  0
 29130  1  0
 29131  1  0
 29132  1  0
 30133  1  0
 54134  1  0
 54135  1  0
 55136  1  0
 55137  1  0
 55138  1  0
 69139  1  0
 72140  1  0
 72141  1  0
 73142  1  0
 73143  1  0
 73144  1  0
 75145  1  0
 75146  1  0
 76147  1  0
 76148  1  0
 76149  1  0
 77150  1  0
 77151  1  0
 78152  1  0
 78153  1  0
 78154  1  0
 79155  1  0
 86156  1  0
 88157  1  0
 88158  1  0
 89159  1  0
 89160  1  0
 89161  1  0
 90162  1  0
 92163  1  0
 92164  1  0
 93165  1  0
 93166  1  0
 93167  1  0
 94168  1  0
 94169  1  0
 95170  1  0
 95171  1  0
 95172  1  0
 96173  1  0
 99174  1  0
104175  1  0
104176  1  0
105177  1  0
105178  1  0
105179  1  0
108180  1  0
111181  1  0
112182  1  0
112183  1  0
112184  1  0
M  END

