
     RDKit          3D

248272  0  0  0  0  0  0  0  0999 V2000
   -3.7661    2.8740    6.9916 C   0  0  0  0  0  0  0  0  0  0  0  0
   -4.7588    3.6730    6.5694 C   0  0  0  0  0  0  0  0  0  0  0  0
   -4.6838    4.7529    5.2919 S   0  0  0  0  0  0  0  0  0  0  0  0
   -6.2598    5.3303    5.4623 C   0  0  0  0  0  0  0  0  0  0  0  0
   -6.7733    6.2780    4.6346 C   0  0  0  0  0  0  0  0  0  0  0  0
   -5.9776    6.8014    3.5493 C   0  0  0  0  0  0  0  0  0  0  0  0
   -5.3357    7.2137    2.6777 N   0  0  0  0  0  0  0  0  0  0  0  0
   -8.1060    6.8160    4.7274 C   0  0  0  0  0  0  0  0  0  0  0  0
   -9.1742    7.2563    4.7872 N   0  0  0  0  0  0  0  0  0  0  0  0
   -6.8674    4.6975    6.5255 N   0  0  0  0  0  0  0  0  0  0  0  0
   -8.2189    4.9442    7.0585 C   0  0  0  0  0  0  0  0  0  0  0  0
   -8.2141    6.1534    7.9886 C   0  0  0  0  0  0  0  0  0  0  0  0
   -6.0247    3.7962    7.1342 C   0  0  0  0  0  0  0  0  0  0  0  0
   -6.3741    3.1222    8.1433 O   0  0  0  0  0  0  0  0  0  0  0  0
   -2.4587    2.8183    6.3215 C   0  0  0  0  0  0  0  0  0  0  0  0
   -2.2129    2.5796    4.9504 C   0  0  0  0  0  0  0  0  0  0  0  0
   -3.2088    2.1845    3.9768 N   0  0  0  0  0  0  0  0  0  0  0  0
   -3.1149    2.6529    2.6128 C   0  0  0  0  0  0  0  0  0  0  0  0
   -3.2431    1.7520    1.5419 C   0  0  0  0  0  0  0  0  0  0  0  0
   -3.0581    2.1852    0.2255 C   0  0  0  0  0  0  0  0  0  0  0  0
   -2.7368    3.5240   -0.0396 C   0  0  0  0  0  0  0  0  0  0  0  0
   -2.5206    3.9811   -1.4507 C   0  0  0  0  0  0  0  0  0  0  0  0
   -2.6586    4.4366    1.0212 C   0  0  0  0  0  0  0  0  0  0  0  0
   -2.8402    4.0045    2.3374 C   0  0  0  0  0  0  0  0  0  0  0  0
   -4.2522    1.2554    4.3378 C   0  0  0  0  0  0  0  0  0  0  0  0
   -5.5742    1.4747    3.9171 C   0  0  0  0  0  0  0  0  0  0  0  0
   -6.5848    0.5722    4.2575 C   0  0  0  0  0  0  0  0  0  0  0  0
   -6.2869   -0.5716    5.0130 C   0  0  0  0  0  0  0  0  0  0  0  0
   -7.3805   -1.5320    5.3752 C   0  0  0  0  0  0  0  0  0  0  0  0
   -4.9700   -0.7868    5.4462 C   0  0  0  0  0  0  0  0  0  0  0  0
   -3.9596    0.1185    5.1088 C   0  0  0  0  0  0  0  0  0  0  0  0
   -0.8654    2.7911    4.6531 C   0  0  0  0  0  0  0  0  0  0  0  0
    0.0517    2.7643    3.2527 S   0  0  0  0  0  0  0  0  0  0  0  0
    1.4657    3.3382    4.0036 C   0  0  0  0  0  0  0  0  0  0  0  0
    1.2217    3.5222    5.3729 C   0  0  0  0  0  0  0  0  0  0  0  0
    2.2335    3.7777    6.3571 N   0  0  0  0  0  0  0  0  0  0  0  0
    2.4170    5.0967    6.9280 C   0  0  0  0  0  0  0  0  0  0  0  0
    1.4060    6.0754    6.8518 C   0  0  0  0  0  0  0  0  0  0  0  0
    1.5878    7.3324    7.4356 C   0  0  0  0  0  0  0  0  0  0  0  0
    2.7928    7.6469    8.0805 C   0  0  0  0  0  0  0  0  0  0  0  0
    2.9891    8.9880    8.7262 C   0  0  0  0  0  0  0  0  0  0  0  0
    3.8022    6.6796    8.1621 C   0  0  0  0  0  0  0  0  0  0  0  0
    3.6185    5.4192    7.5863 C   0  0  0  0  0  0  0  0  0  0  0  0
    2.8078    2.6201    6.9925 C   0  0  0  0  0  0  0  0  0  0  0  0
    3.4795    1.6531    6.2275 C   0  0  0  0  0  0  0  0  0  0  0  0
    3.9676    0.4907    6.8294 C   0  0  0  0  0  0  0  0  0  0  0  0
    3.7956    0.2807    8.2066 C   0  0  0  0  0  0  0  0  0  0  0  0
    4.2625   -0.9951    8.8442 C   0  0  0  0  0  0  0  0  0  0  0  0
    3.1141    1.2384    8.9695 C   0  0  0  0  0  0  0  0  0  0  0  0
    2.6277    2.4016    8.3674 C   0  0  0  0  0  0  0  0  0  0  0  0
   -0.0914    3.1882    5.6942 C   0  0  0  0  0  0  0  0  0  0  0  0
   -1.0093    3.2696    7.0947 S   0  0  0  0  0  0  0  0  0  0  0  0
    2.5895    3.8605    3.2218 C   0  0  0  0  0  0  0  0  0  0  0  0
    2.5776    5.1558    2.6671 C   0  0  0  0  0  0  0  0  0  0  0  0
    1.6781    6.2462    3.1026 C   0  0  0  0  0  0  0  0  0  0  0  0
    0.3215    6.1904    2.7426 C   0  0  0  0  0  0  0  0  0  0  0  0
   -0.5636    7.1810    3.1608 C   0  0  0  0  0  0  0  0  0  0  0  0
   -0.1019    8.2458    3.9309 C   0  0  0  0  0  0  0  0  0  0  0  0
    1.2516    8.3396    4.2619 C   0  0  0  0  0  0  0  0  0  0  0  0
    2.1717    7.3579    3.8323 C   0  0  0  0  0  0  0  0  0  0  0  0
    3.6496    7.4315    4.1982 C   0  0  0  0  0  0  0  0  0  0  0  0
    4.1473    8.8092    4.6415 C   0  0  0  0  0  0  0  0  0  0  0  0
    3.2709    5.2051    1.4539 C   0  0  0  0  0  0  0  0  0  0  0  0
    2.9953    6.2120    0.1198 S   0  0  0  0  0  0  0  0  0  0  0  0
    3.7346    5.1233   -0.9455 C   0  0  0  0  0  0  0  0  0  0  0  0
    3.4419    4.7702   -2.2382 C   0  0  0  0  0  0  0  0  0  0  0  0
    2.4851    5.3221   -3.1080 C   0  0  0  0  0  0  0  0  0  0  0  0
    1.9922    4.5290   -4.1894 C   0  0  0  0  0  0  0  0  0  0  0  0
    1.0053    5.0639   -4.9496 N   0  0  0  0  0  0  0  0  0  0  0  0
    0.8173    6.5174   -4.1785 S   0  0  0  0  0  0  0  0  0  0  0  0
    1.9055    6.5351   -2.9297 N   0  0  0  0  0  0  0  0  0  0  0  0
    2.5433    3.2603   -4.3954 C   0  0  0  0  0  0  0  0  0  0  0  0
    2.2342    2.2581   -5.2717 C   0  0  0  0  0  0  0  0  0  0  0  0
    0.7229    1.7398   -5.8524 S   0  0  0  0  0  0  0  0  0  0  0  0
    1.1637    0.1067   -5.7188 C   0  0  0  0  0  0  0  0  0  0  0  0
    0.4195   -1.0842   -5.7207 C   0  0  0  0  0  0  0  0  0  0  0  0
   -1.0104   -1.1746   -6.0666 C   0  0  0  0  0  0  0  0  0  0  0  0
   -2.0340   -0.6763   -5.2151 C   0  0  0  0  0  0  0  0  0  0  0  0
   -1.7479   -0.0340   -3.8726 C   0  0  0  0  0  0  0  0  0  0  0  0
   -1.7285   -1.0644   -2.7509 C   0  0  0  0  0  0  0  0  0  0  0  0
   -3.3773   -0.8603   -5.5897 C   0  0  0  0  0  0  0  0  0  0  0  0
   -3.7037   -1.5179   -6.7782 C   0  0  0  0  0  0  0  0  0  0  0  0
   -2.6951   -2.0057   -7.6096 C   0  0  0  0  0  0  0  0  0  0  0  0
   -1.3574   -1.8374   -7.2553 C   0  0  0  0  0  0  0  0  0  0  0  0
    1.2033   -2.1704   -5.2888 C   0  0  0  0  0  0  0  0  0  0  0  0
    2.7201   -1.5937   -4.7909 S   0  0  0  0  0  0  0  0  0  0  0  0
    2.4431   -0.0094   -5.2363 C   0  0  0  0  0  0  0  0  0  0  0  0
    3.0690    1.2050   -4.9686 C   0  0  0  0  0  0  0  0  0  0  0  0
    3.9143    1.4907   -3.9421 N   0  0  0  0  0  0  0  0  0  0  0  0
    3.5156    2.7340   -3.5500 C   0  0  0  0  0  0  0  0  0  0  0  0
    3.8697    3.4431   -2.3762 C   0  0  0  0  0  0  0  0  0  0  0  0
    4.2595    2.9295   -1.1646 N   0  0  0  0  0  0  0  0  0  0  0  0
    4.1539    3.9854   -0.3100 C   0  0  0  0  0  0  0  0  0  0  0  0
    3.8637    4.0279    1.0602 C   0  0  0  0  0  0  0  0  0  0  0  0
    3.4698    2.8436    2.1834 S   0  0  0  0  0  0  0  0  0  0  0  0
    4.2677    1.5167   -0.7560 C   0  0  0  0  0  0  0  0  0  0  0  0
    5.5894    1.1489   -0.0885 C   0  0  0  0  0  0  0  0  0  0  0  0
    5.3460    1.1393   -3.9618 C   0  0  0  0  0  0  0  0  0  0  0  0
    5.5992   -0.3608   -3.9142 C   0  0  0  0  0  0  0  0  0  0  0  0
    0.7799   -3.5730   -5.1171 C   0  0  0  0  0  0  0  0  0  0  0  0
    1.6264   -4.6929   -5.2201 C   0  0  0  0  0  0  0  0  0  0  0  0
    2.9845   -4.6488   -5.6849 N   0  0  0  0  0  0  0  0  0  0  0  0
    4.0605   -4.9713   -4.7743 C   0  0  0  0  0  0  0  0  0  0  0  0
    3.9652   -4.6360   -3.4097 C   0  0  0  0  0  0  0  0  0  0  0  0
    5.0145   -4.9205   -2.5324 C   0  0  0  0  0  0  0  0  0  0  0  0
    6.1791   -5.5435   -3.0014 C   0  0  0  0  0  0  0  0  0  0  0  0
    7.2951   -5.8715   -2.0551 C   0  0  0  0  0  0  0  0  0  0  0  0
    6.2656   -5.9145   -4.3510 C   0  0  0  0  0  0  0  0  0  0  0  0
    5.2170   -5.6282   -5.2306 C   0  0  0  0  0  0  0  0  0  0  0  0
    3.2411   -4.2362   -7.0461 C   0  0  0  0  0  0  0  0  0  0  0  0
    4.3226   -3.3904   -7.3490 C   0  0  0  0  0  0  0  0  0  0  0  0
    4.5490   -2.9719   -8.6638 C   0  0  0  0  0  0  0  0  0  0  0  0
    3.6932   -3.3852   -9.6950 C   0  0  0  0  0  0  0  0  0  0  0  0
    3.9393   -2.9628  -11.1140 C   0  0  0  0  0  0  0  0  0  0  0  0
    2.6180   -4.2349   -9.3986 C   0  0  0  0  0  0  0  0  0  0  0  0
    2.3904   -4.6529   -8.0855 C   0  0  0  0  0  0  0  0  0  0  0  0
    0.9998   -5.8488   -4.7718 C   0  0  0  0  0  0  0  0  0  0  0  0
    1.4909   -7.4414   -4.5510 S   0  0  0  0  0  0  0  0  0  0  0  0
    0.0203   -7.9091   -3.8264 C   0  0  0  0  0  0  0  0  0  0  0  0
   -0.8537   -6.8135   -3.7723 C   0  0  0  0  0  0  0  0  0  0  0  0
   -2.1109   -6.8147   -3.0867 N   0  0  0  0  0  0  0  0  0  0  0  0
   -3.3162   -6.9770   -3.8401 C   0  0  0  0  0  0  0  0  0  0  0  0
   -3.7552   -8.2580   -4.1988 C   0  0  0  0  0  0  0  0  0  0  0  0
   -4.9433   -8.4197   -4.9135 C   0  0  0  0  0  0  0  0  0  0  0  0
   -5.6916   -7.2975   -5.3035 C   0  0  0  0  0  0  0  0  0  0  0  0
   -6.9855   -7.4643   -6.0419 C   0  0  0  0  0  0  0  0  0  0  0  0
   -5.2503   -6.0139   -4.9394 C   0  0  0  0  0  0  0  0  0  0  0  0
   -4.0702   -5.8551   -4.2094 C   0  0  0  0  0  0  0  0  0  0  0  0
   -2.1496   -6.6995   -1.6534 C   0  0  0  0  0  0  0  0  0  0  0  0
   -2.8975   -7.6066   -0.8846 C   0  0  0  0  0  0  0  0  0  0  0  0
   -2.8856   -7.5272    0.5108 C   0  0  0  0  0  0  0  0  0  0  0  0
   -2.1319   -6.5366    1.1571 C   0  0  0  0  0  0  0  0  0  0  0  0
   -2.1307   -6.4619    2.6551 C   0  0  0  0  0  0  0  0  0  0  0  0
   -1.3965   -5.6189    0.3924 C   0  0  0  0  0  0  0  0  0  0  0  0
   -1.4048   -5.7006   -1.0029 C   0  0  0  0  0  0  0  0  0  0  0  0
   -0.2711   -5.6802   -4.3273 C   0  0  0  0  0  0  0  0  0  0  0  0
   -0.7198   -4.0717   -4.4698 S   0  0  0  0  0  0  0  0  0  0  0  0
   -0.2665   -9.2604   -3.3296 C   0  0  0  0  0  0  0  0  0  0  0  0
   -0.1050   -9.6132   -2.0421 C   0  0  0  0  0  0  0  0  0  0  0  0
    0.5516   -8.7927   -1.0160 C   0  0  0  0  0  0  0  0  0  0  0  0
    0.9579   -7.6079   -1.1488 O   0  0  0  0  0  0  0  0  0  0  0  0
    0.7687   -9.6115    0.1548 C   0  0  0  0  0  0  0  0  0  0  0  0
    1.4445   -9.2721    1.3282 C   0  0  0  0  0  0  0  0  0  0  0  0
    1.6554  -10.2691    2.2889 C   0  0  0  0  0  0  0  0  0  0  0  0
    1.2172  -11.5835    2.0510 C   0  0  0  0  0  0  0  0  0  0  0  0
    1.5442  -12.8376    3.2325 Cl  0  0  0  0  0  0  0  0  0  0  0  0
    0.5417  -11.9040    0.8608 C   0  0  0  0  0  0  0  0  0  0  0  0
    0.2882  -10.8890   -0.0760 C   0  0  0  0  0  0  0  0  0  0  0  0
   -0.3698  -10.9464   -1.4150 C   0  0  0  0  0  0  0  0  0  0  0  0
   -1.2096  -11.9189   -1.8630 C   0  0  0  0  0  0  0  0  0  0  0  0
   -1.5354  -13.0815   -1.0804 C   0  0  0  0  0  0  0  0  0  0  0  0
   -1.8098  -14.0222   -0.4614 N   0  0  0  0  0  0  0  0  0  0  0  0
   -1.9345  -11.8197   -3.1019 C   0  0  0  0  0  0  0  0  0  0  0  0
   -2.5261  -11.7588   -4.0959 N   0  0  0  0  0  0  0  0  0  0  0  0
   -3.8900    2.3050    7.9042 H   0  0  0  0  0  0  0  0  0  0  0  0
   -8.5723    4.0647    7.6401 H   0  0  0  0  0  0  0  0  0  0  0  0
   -8.9635    5.0492    6.2485 H   0  0  0  0  0  0  0  0  0  0  0  0
   -7.8999    7.0658    7.4455 H   0  0  0  0  0  0  0  0  0  0  0  0
   -9.2309    6.3120    8.4032 H   0  0  0  0  0  0  0  0  0  0  0  0
   -7.5088    5.9859    8.8266 H   0  0  0  0  0  0  0  0  0  0  0  0
   -3.4555    0.7060    1.7270 H   0  0  0  0  0  0  0  0  0  0  0  0
   -3.1451    1.4726   -0.5856 H   0  0  0  0  0  0  0  0  0  0  0  0
   -1.8737    4.8853   -1.4811 H   0  0  0  0  0  0  0  0  0  0  0  0
   -3.4997    4.2213   -1.9150 H   0  0  0  0  0  0  0  0  0  0  0  0
   -2.0218    3.1850   -2.0451 H   0  0  0  0  0  0  0  0  0  0  0  0
   -2.4342    5.4790    0.8339 H   0  0  0  0  0  0  0  0  0  0  0  0
   -2.7352    4.7159    3.1437 H   0  0  0  0  0  0  0  0  0  0  0  0
   -5.8228    2.3535    3.3354 H   0  0  0  0  0  0  0  0  0  0  0  0
   -7.5996    0.7619    3.9299 H   0  0  0  0  0  0  0  0  0  0  0  0
   -6.9709   -2.4615    5.8257 H   0  0  0  0  0  0  0  0  0  0  0  0
   -7.9542   -1.8119    4.4655 H   0  0  0  0  0  0  0  0  0  0  0  0
   -8.0672   -1.0530    6.1048 H   0  0  0  0  0  0  0  0  0  0  0  0
   -4.7227   -1.6580    6.0407 H   0  0  0  0  0  0  0  0  0  0  0  0
   -2.9465   -0.0727    5.4410 H   0  0  0  0  0  0  0  0  0  0  0  0
    0.4709    5.8722    6.3510 H   0  0  0  0  0  0  0  0  0  0  0  0
    0.7915    8.0633    7.3759 H   0  0  0  0  0  0  0  0  0  0  0  0
    4.0148    9.3620    8.5233 H   0  0  0  0  0  0  0  0  0  0  0  0
    2.8460    8.8958    9.8226 H   0  0  0  0  0  0  0  0  0  0  0  0
    2.2677    9.7337    8.3293 H   0  0  0  0  0  0  0  0  0  0  0  0
    4.7314    6.9012    8.6700 H   0  0  0  0  0  0  0  0  0  0  0  0
    4.4192    4.6936    7.6544 H   0  0  0  0  0  0  0  0  0  0  0  0
    3.6211    1.7973    5.1656 H   0  0  0  0  0  0  0  0  0  0  0  0
    4.4709   -0.2504    6.2203 H   0  0  0  0  0  0  0  0  0  0  0  0
    5.0907   -1.4517    8.2620 H   0  0  0  0  0  0  0  0  0  0  0  0
    3.4169   -1.7125    8.8910 H   0  0  0  0  0  0  0  0  0  0  0  0
    4.6318   -0.8020    9.8735 H   0  0  0  0  0  0  0  0  0  0  0  0
    2.9424    1.0795   10.0256 H   0  0  0  0  0  0  0  0  0  0  0  0
    2.0850    3.1221    8.9680 H   0  0  0  0  0  0  0  0  0  0  0  0
   -0.0487    5.3799    2.1286 H   0  0  0  0  0  0  0  0  0  0  0  0
   -1.6093    7.1262    2.8878 H   0  0  0  0  0  0  0  0  0  0  0  0
   -0.7933    9.0095    4.2644 H   0  0  0  0  0  0  0  0  0  0  0  0
    1.5615    9.1840    4.8607 H   0  0  0  0  0  0  0  0  0  0  0  0
    3.8604    6.6995    5.0031 H   0  0  0  0  0  0  0  0  0  0  0  0
    4.2557    7.1411    3.3148 H   0  0  0  0  0  0  0  0  0  0  0  0
    3.8849    9.5816    3.8878 H   0  0  0  0  0  0  0  0  0  0  0  0
    3.7244    9.0840    5.6299 H   0  0  0  0  0  0  0  0  0  0  0  0
    5.2543    8.7844    4.7450 H   0  0  0  0  0  0  0  0  0  0  0  0
   -2.5285    0.7261   -3.6478 H   0  0  0  0  0  0  0  0  0  0  0  0
   -0.7826    0.5041   -3.8712 H   0  0  0  0  0  0  0  0  0  0  0  0
   -0.8367   -1.7159   -2.8478 H   0  0  0  0  0  0  0  0  0  0  0  0
   -1.6715   -0.5464   -1.7690 H   0  0  0  0  0  0  0  0  0  0  0  0
   -2.6491   -1.6866   -2.7703 H   0  0  0  0  0  0  0  0  0  0  0  0
   -4.1790   -0.5061   -4.9523 H   0  0  0  0  0  0  0  0  0  0  0  0
   -4.7409   -1.6545   -7.0539 H   0  0  0  0  0  0  0  0  0  0  0  0
   -2.9514   -2.5180   -8.5269 H   0  0  0  0  0  0  0  0  0  0  0  0
   -0.5852   -2.2340   -7.9026 H   0  0  0  0  0  0  0  0  0  0  0  0
    3.4203    1.3172   -0.0725 H   0  0  0  0  0  0  0  0  0  0  0  0
    4.1039    0.8382   -1.6053 H   0  0  0  0  0  0  0  0  0  0  0  0
    5.8031    1.8256    0.7642 H   0  0  0  0  0  0  0  0  0  0  0  0
    6.4213    1.2209   -0.8182 H   0  0  0  0  0  0  0  0  0  0  0  0
    5.5331    0.1097    0.2934 H   0  0  0  0  0  0  0  0  0  0  0  0
    5.8662    1.6067   -3.1016 H   0  0  0  0  0  0  0  0  0  0  0  0
    5.8157    1.5581   -4.8786 H   0  0  0  0  0  0  0  0  0  0  0  0
    6.6731   -0.5504   -3.7021 H   0  0  0  0  0  0  0  0  0  0  0  0
    5.3692   -0.8174   -4.8991 H   0  0  0  0  0  0  0  0  0  0  0  0
    4.9935   -0.8361   -3.1142 H   0  0  0  0  0  0  0  0  0  0  0  0
    3.0841   -4.1393   -3.0254 H   0  0  0  0  0  0  0  0  0  0  0  0
    4.9192   -4.6485   -1.4896 H   0  0  0  0  0  0  0  0  0  0  0  0
    7.3158   -5.1544   -1.2066 H   0  0  0  0  0  0  0  0  0  0  0  0
    7.1531   -6.8988   -1.6581 H   0  0  0  0  0  0  0  0  0  0  0  0
    8.2760   -5.8152   -2.5755 H   0  0  0  0  0  0  0  0  0  0  0  0
    7.1457   -6.4240   -4.7233 H   0  0  0  0  0  0  0  0  0  0  0  0
    5.3042   -5.9273   -6.2679 H   0  0  0  0  0  0  0  0  0  0  0  0
    4.9825   -3.0409   -6.5650 H   0  0  0  0  0  0  0  0  0  0  0  0
    5.3886   -2.3218   -8.8738 H   0  0  0  0  0  0  0  0  0  0  0  0
    3.0013   -2.5720  -11.5616 H   0  0  0  0  0  0  0  0  0  0  0  0
    4.2858   -3.8358  -11.7048 H   0  0  0  0  0  0  0  0  0  0  0  0
    4.7098   -2.1644  -11.1716 H   0  0  0  0  0  0  0  0  0  0  0  0
    1.9574   -4.5739  -10.1865 H   0  0  0  0  0  0  0  0  0  0  0  0
    1.5558   -5.3109   -7.8805 H   0  0  0  0  0  0  0  0  0  0  0  0
   -3.1837   -9.1274   -3.9031 H   0  0  0  0  0  0  0  0  0  0  0  0
   -5.2811   -9.4188   -5.1612 H   0  0  0  0  0  0  0  0  0  0  0  0
   -7.0797   -6.6936   -6.8353 H   0  0  0  0  0  0  0  0  0  0  0  0
   -7.8297   -7.3559   -5.3306 H   0  0  0  0  0  0  0  0  0  0  0  0
   -7.0487   -8.4632   -6.5227 H   0  0  0  0  0  0  0  0  0  0  0  0
   -5.8269   -5.1401   -5.2162 H   0  0  0  0  0  0  0  0  0  0  0  0
   -3.7403   -4.8623   -3.9301 H   0  0  0  0  0  0  0  0  0  0  0  0
   -3.4657   -8.3928   -1.3625 H   0  0  0  0  0  0  0  0  0  0  0  0
   -3.4577   -8.2416    1.0898 H   0  0  0  0  0  0  0  0  0  0  0  0
   -1.4370   -5.6764    3.0229 H   0  0  0  0  0  0  0  0  0  0  0  0
   -1.8126   -7.4369    3.0772 H   0  0  0  0  0  0  0  0  0  0  0  0
   -3.1537   -6.2264    3.0144 H   0  0  0  0  0  0  0  0  0  0  0  0
   -0.8102   -4.8448    0.8731 H   0  0  0  0  0  0  0  0  0  0  0  0
   -0.8234   -4.9883   -1.5744 H   0  0  0  0  0  0  0  0  0  0  0  0
   -0.5623   -9.9785   -4.0736 H   0  0  0  0  0  0  0  0  0  0  0  0
    1.8169   -8.2670    1.4855 H   0  0  0  0  0  0  0  0  0  0  0  0
    2.1836  -10.0285    3.2004 H   0  0  0  0  0  0  0  0  0  0  0  0
    0.2742  -12.9317    0.6797 H   0  0  0  0  0  0  0  0  0  0  0  0
  1  2  2  3
  2  3  1  0
  3  4  1  0
  4  5  2  3
  5  6  1  0
  6  7  3  0
  5  8  1  0
  8  9  3  0
  4 10  1  0
 10 11  1  0
 11 12  1  0
 10 13  1  0
 13 14  2  0
  1 15  1  0
 15 16  2  0
 16 17  1  0
 17 18  1  0
 18 19  2  0
 19 20  1  0
 20 21  2  0
 21 22  1  0
 21 23  1  0
 23 24  2  0
 17 25  1  0
 25 26  2  0
 26 27  1  0
 27 28  2  0
 28 29  1  0
 28 30  1  0
 30 31  2  0
 16 32  1  0
 32 33  1  0
 33 34  1  0
 34 35  2  0
 35 36  1  0
 36 37  1  0
 37 38  2  0
 38 39  1  0
 39 40  2  0
 40 41  1  0
 40 42  1  0
 42 43  2  0
 36 44  1  0
 44 45  2  0
 45 46  1  0
 46 47  2  0
 47 48  1  0
 47 49  1  0
 49 50  2  0
 35 51  1  0
 51 52  1  0
 34 53  1  0
 53 54  2  0
 54 55  1  0
 55 56  2  0
 56 57  1  0
 57 58  2  0
 58 59  1  0
 59 60  2  0
 60 61  1  0
 61 62  1  0
 54 63  1  0
 63 64  1  0
 64 65  1  0
 65 66  1  0
 66 67  1  0
 67 68  1  0
 68 69  2  0
 69 70  1  0
 70 71  1  0
 68 72  1  0
 72 73  1  0
 73 74  1  0
 74 75  1  0
 75 76  1  0
 76 77  1  0
 77 78  2  0
 78 79  1  0
 79 80  1  0
 78 81  1  0
 81 82  2  0
 82 83  1  0
 83 84  2  0
 76 85  2  0
 85 86  1  0
 86 87  1  0
 87 88  1  0
 88 89  1  0
 89 90  1  0
 90 91  1  0
 91 92  1  0
 92 93  1  0
 93 94  1  0
 94 95  1  0
 92 96  1  0
 96 97  1  0
 89 98  1  0
 98 99  1  0
 85100  1  0
100101  2  0
101102  1  0
102103  1  0
103104  2  0
104105  1  0
105106  2  0
106107  1  0
106108  1  0
108109  2  0
102110  1  0
110111  2  0
111112  1  0
112113  2  0
113114  1  0
113115  1  0
115116  2  0
101117  1  0
117118  1  0
118119  1  0
119120  2  0
120121  1  0
121122  1  0
122123  2  0
123124  1  0
124125  2  0
125126  1  0
125127  1  0
127128  2  0
121129  1  0
129130  2  0
130131  1  0
131132  2  0
132133  1  0
132134  1  0
134135  2  0
120136  1  0
136137  1  0
119138  1  0
138139  2  3
139140  1  0
140141  2  0
140142  1  0
142143  2  0
143144  1  0
144145  2  0
145146  1  0
145147  1  0
147148  2  0
148149  1  0
149150  2  3
150151  1  0
151152  3  0
150153  1  0
153154  3  0
 13  2  1  0
 52 15  1  0
 95 53  1  0
137100  1  0
149139  1  0
 24 18  1  0
 31 25  1  0
 51 32  2  0
 60 55  1  0
 94 63  2  0
109103  1  0
116110  1  0
136117  2  0
148142  1  0
 43 37  1  0
 50 44  1  0
 93 65  2  0
128122  1  0
135129  1  0
 91 66  2  0
 71 67  2  0
 90 72  2  0
 88 73  2  0
 87 75  2  0
 84 77  1  0
  1155  1  0
 11156  1  0
 11157  1  0
 12158  1  0
 12159  1  0
 12160  1  0
 19161  1  0
 20162  1  0
 22163  1  0
 22164  1  0
 22165  1  0
 23166  1  0
 24167  1  0
 26168  1  0
 27169  1  0
 29170  1  0
 29171  1  0
 29172  1  0
 30173  1  0
 31174  1  0
 38175  1  0
 39176  1  0
 41177  1  0
 41178  1  0
 41179  1  0
 42180  1  0
 43181  1  0
 45182  1  0
 46183  1  0
 48184  1  0
 48185  1  0
 48186  1  0
 49187  1  0
 50188  1  0
 56189  1  0
 57190  1  0
 58191  1  0
 59192  1  0
 61193  1  0
 61194  1  0
 62195  1  0
 62196  1  0
 62197  1  0
 79198  1  0
 79199  1  0
 80200  1  0
 80201  1  0
 80202  1  0
 81203  1  0
 82204  1  0
 83205  1  0
 84206  1  0
 96207  1  0
 96208  1  0
 97209  1  0
 97210  1  0
 97211  1  0
 98212  1  0
 98213  1  0
 99214  1  0
 99215  1  0
 99216  1  0
104217  1  0
105218  1  0
107219  1  0
107220  1  0
107221  1  0
108222  1  0
109223  1  0
111224  1  0
112225  1  0
114226  1  0
114227  1  0
114228  1  0
115229  1  0
116230  1  0
123231  1  0
124232  1  0
126233  1  0
126234  1  0
126235  1  0
127236  1  0
128237  1  0
130238  1  0
131239  1  0
133240  1  0
133241  1  0
133242  1  0
134243  1  0
135244  1  0
138245  1  0
143246  1  0
144247  1  0
147248  1  0
M  END

