
     RDKit          3D

171186  0  0  0  0  0  0  0  0999 V2000
    8.5908   -0.6651   -4.6378 C   0  0  0  0  0  0  0  0  0  0  0  0
    7.6509   -1.4306   -5.3152 C   0  0  0  0  0  0  0  0  0  0  0  0
    6.7736   -2.4387   -4.9997 C   0  0  0  0  0  0  0  0  0  0  0  0
    7.1923   -3.4837   -4.2957 O   0  0  0  0  0  0  0  0  0  0  0  0
    5.3748   -2.5775   -5.3364 N   0  0  0  0  0  0  0  0  0  0  0  0
    4.5963   -3.7355   -4.9714 C   0  0  0  0  0  0  0  0  0  0  0  0
    4.5593   -4.7633   -6.0501 C   0  0  0  0  0  0  0  0  0  0  0  0
    4.7528   -1.5147   -6.1001 C   0  0  0  0  0  0  0  0  0  0  0  0
    3.5623   -1.5042   -6.4542 O   0  0  0  0  0  0  0  0  0  0  0  0
    5.6607   -0.3976   -6.4417 C   0  0  0  0  0  0  0  0  0  0  0  0
    6.9326   -0.3149   -6.1452 C   0  0  0  0  0  0  0  0  0  0  0  0
    7.6712    0.8450   -6.6454 C   0  0  0  0  0  0  0  0  0  0  0  0
    4.9723    0.8974   -6.6119 C   0  0  0  0  0  0  0  0  0  0  0  0
    4.3786    1.9688   -6.7561 N   0  0  0  0  0  0  0  0  0  0  0  0
    9.4397    0.0307   -4.0465 C   0  0  0  0  0  0  0  0  0  0  0  0
    9.8623    0.3923   -2.7804 C   0  0  0  0  0  0  0  0  0  0  0  0
    9.0081   -0.2254   -1.7019 C   0  0  0  0  0  0  0  0  0  0  0  0
    8.1371   -1.2296   -1.8036 C   0  0  0  0  0  0  0  0  0  0  0  0
    7.1450   -1.2750   -0.8752 C   0  0  0  0  0  0  0  0  0  0  0  0
    5.5757   -2.0722   -0.7484 S   0  0  0  0  0  0  0  0  0  0  0  0
    4.9751   -1.1317    0.5578 C   0  0  0  0  0  0  0  0  0  0  0  0
    3.6822   -0.6946    1.1927 C   0  0  0  0  0  0  0  0  0  0  0  0
    2.3940   -1.0545    0.8951 C   0  0  0  0  0  0  0  0  0  0  0  0
    2.1339   -2.1937    0.1298 O   0  0  0  0  0  0  0  0  0  0  0  0
    1.8096   -2.0687   -1.2538 C   0  0  0  0  0  0  0  0  0  0  0  0
    2.7173   -1.2625   -2.1003 C   0  0  0  0  0  0  0  0  0  0  0  0
    1.3274   -0.3051    1.3008 C   0  0  0  0  0  0  0  0  0  0  0  0
    1.5941    0.8847    2.0424 C   0  0  0  0  0  0  0  0  0  0  0  0
    2.9189    1.1971    2.3208 C   0  0  0  0  0  0  0  0  0  0  0  0
    3.9726    0.4378    1.9255 C   0  0  0  0  0  0  0  0  0  0  0  0
    5.4418    0.4364    2.0922 C   0  0  0  0  0  0  0  0  0  0  0  0
    5.5857   -0.4490    3.3352 C   0  0  0  0  0  0  0  0  0  0  0  0
    6.0933   -1.6986    3.3115 C   0  0  0  0  0  0  0  0  0  0  0  0
    6.0641   -2.5041    4.4439 C   0  0  0  0  0  0  0  0  0  0  0  0
    5.4800   -1.9805    5.6015 C   0  0  0  0  0  0  0  0  0  0  0  0
    5.4130   -2.8347    6.8457 C   0  0  0  0  0  0  0  0  0  0  0  0
    4.2151   -3.7151    6.9035 C   0  0  0  0  0  0  0  0  0  0  0  0
    4.9741   -0.7398    5.6469 C   0  0  0  0  0  0  0  0  0  0  0  0
    5.0253    0.0514    4.4898 C   0  0  0  0  0  0  0  0  0  0  0  0
    6.0610    1.7705    2.2760 C   0  0  0  0  0  0  0  0  0  0  0  0
    5.5358    2.8696    1.5965 C   0  0  0  0  0  0  0  0  0  0  0  0
    6.1576    4.0694    1.7733 C   0  0  0  0  0  0  0  0  0  0  0  0
    7.2497    4.2365    2.5743 C   0  0  0  0  0  0  0  0  0  0  0  0
    7.8794    5.5702    2.7532 C   0  0  0  0  0  0  0  0  0  0  0  0
    8.9173    5.8279    1.7033 C   0  0  0  0  0  0  0  0  0  0  0  0
    7.7536    3.1535    3.2386 C   0  0  0  0  0  0  0  0  0  0  0  0
    7.1437    1.9468    3.0743 C   0  0  0  0  0  0  0  0  0  0  0  0
    5.9516   -0.2747    0.8760 C   0  0  0  0  0  0  0  0  0  0  0  0
    7.0676   -0.3839    0.0761 C   0  0  0  0  0  0  0  0  0  0  0  0
    8.4834    0.6420   -0.2955 S   0  0  0  0  0  0  0  0  0  0  0  0
    0.5667    1.6975    2.4201 C   0  0  0  0  0  0  0  0  0  0  0  0
    0.7796    2.8884    3.1227 O   0  0  0  0  0  0  0  0  0  0  0  0
    1.1161    4.0695    2.4087 C   0  0  0  0  0  0  0  0  0  0  0  0
    0.1356    4.4732    1.3564 C   0  0  0  0  0  0  0  0  0  0  0  0
   -0.7062    1.3501    2.1032 C   0  0  0  0  0  0  0  0  0  0  0  0
   -2.0172    2.0343    2.2813 C   0  0  0  0  0  0  0  0  0  0  0  0
   -2.9800    1.3388    1.7126 C   0  0  0  0  0  0  0  0  0  0  0  0
   -2.4488   -0.0360    1.3269 C   0  0  0  0  0  0  0  0  0  0  0  0
   -0.9664    0.2045    1.4139 C   0  0  0  0  0  0  0  0  0  0  0  0
    0.0285   -0.5970    1.0203 C   0  0  0  0  0  0  0  0  0  0  0  0
   -2.6928   -0.9730    2.5069 C   0  0  0  0  0  0  0  0  0  0  0  0
   -3.1652   -2.2251    2.3668 C   0  0  0  0  0  0  0  0  0  0  0  0
   -3.3950   -2.9452    3.5463 C   0  0  0  0  0  0  0  0  0  0  0  0
   -3.1609   -2.4324    4.7968 C   0  0  0  0  0  0  0  0  0  0  0  0
   -3.4528   -3.1892    6.0270 C   0  0  0  0  0  0  0  0  0  0  0  0
   -4.8024   -2.7748    6.5683 C   0  0  0  0  0  0  0  0  0  0  0  0
   -2.6644   -1.1332    4.9186 C   0  0  0  0  0  0  0  0  0  0  0  0
   -2.4300   -0.4025    3.7461 C   0  0  0  0  0  0  0  0  0  0  0  0
   -2.8756   -0.5064    0.0493 C   0  0  0  0  0  0  0  0  0  0  0  0
   -4.1307   -1.1036   -0.1526 C   0  0  0  0  0  0  0  0  0  0  0  0
   -4.5154   -1.6383   -1.3520 C   0  0  0  0  0  0  0  0  0  0  0  0
   -3.6690   -1.6058   -2.4513 C   0  0  0  0  0  0  0  0  0  0  0  0
   -4.0199   -2.2156   -3.7625 C   0  0  0  0  0  0  0  0  0  0  0  0
   -4.6784   -1.3004   -4.6952 C   0  0  0  0  0  0  0  0  0  0  0  0
   -2.4185   -1.0032   -2.2746 C   0  0  0  0  0  0  0  0  0  0  0  0
   -2.0199   -0.4621   -1.0439 C   0  0  0  0  0  0  0  0  0  0  0  0
   -4.2714    1.8707    1.7414 C   0  0  0  0  0  0  0  0  0  0  0  0
   -4.4411    3.0501    2.3602 C   0  0  0  0  0  0  0  0  0  0  0  0
   -2.8219    3.4159    2.8917 S   0  0  0  0  0  0  0  0  0  0  0  0
   -5.7113    3.5990    2.3422 C   0  0  0  0  0  0  0  0  0  0  0  0
   -6.6769    2.9488    1.7165 C   0  0  0  0  0  0  0  0  0  0  0  0
   -5.8480    1.5233    1.1270 S   0  0  0  0  0  0  0  0  0  0  0  0
   -8.0360    3.2768    1.4231 C   0  0  0  0  0  0  0  0  0  0  0  0
   -9.0876    3.9736    1.9034 C   0  0  0  0  0  0  0  0  0  0  0  0
  -10.2014    4.1460    1.2375 C   0  0  0  0  0  0  0  0  0  0  0  0
  -10.5542    3.7361    0.0583 C   0  0  0  0  0  0  0  0  0  0  0  0
   -8.7631    2.7370   -0.3703 Se  0  0  0  0  0  2  0  0  0  0  0  0
  -11.5637    3.7163   -0.9295 C   0  0  0  0  0  0  0  0  0  0  0  0
  -11.9762    2.7793   -1.7044 C   0  0  0  0  0  0  0  0  0  0  0  0
  -11.4295    1.3545   -1.7416 C   0  0  0  0  0  0  0  0  0  0  0  0
  -10.5285    0.8874   -1.0402 O   0  0  0  0  0  0  0  0  0  0  0  0
  -12.1828    0.5922   -2.7621 C   0  0  0  0  0  0  0  0  0  0  0  0
  -13.1336    1.4520   -3.3181 C   0  0  0  0  0  0  0  0  0  0  0  0
  -13.8757    0.9261   -4.3942 C   0  0  0  0  0  0  0  0  0  0  0  0
  -13.6959   -0.3393   -4.8475 C   0  0  0  0  0  0  0  0  0  0  0  0
  -12.7727   -1.1817   -4.2806 C   0  0  0  0  0  0  0  0  0  0  0  0
  -12.5911   -2.9459   -4.9727 Br  0  0  0  0  0  0  0  0  0  0  0  0
  -12.0290   -0.6684   -3.2329 C   0  0  0  0  0  0  0  0  0  0  0  0
  -10.8309   -1.7615   -2.5159 Cl  0  0  0  0  0  0  0  0  0  0  0  0
  -13.0098    2.6895   -2.6855 C   0  0  0  0  0  0  0  0  0  0  0  0
  -13.8269    3.8662   -2.9751 C   0  0  0  0  0  0  0  0  0  0  0  0
  -13.7805    4.8490   -2.6050 C   0  0  0  0  0  0  0  0  0  0  0  0
  -13.7088    6.3112   -2.0251 N   0  0  0  0  0  0  0  0  0  0  0  0
  -15.1727    3.2708   -3.5197 C   0  0  0  0  0  0  0  0  0  0  0  0
  -16.2724    2.7964   -3.9697 N   0  0  0  0  0  0  0  0  0  0  0  0
    9.2688   -0.6970   -5.8785 H   0  0  0  0  0  0  0  0  0  0  0  0
    5.0260   -4.2319   -4.0616 H   0  0  0  0  0  0  0  0  0  0  0  0
    3.5630   -3.4456   -4.6489 H   0  0  0  0  0  0  0  0  0  0  0  0
    3.7586   -4.5502   -6.7974 H   0  0  0  0  0  0  0  0  0  0  0  0
    4.1491   -5.7057   -5.5156 H   0  0  0  0  0  0  0  0  0  0  0  0
    5.5165   -5.0599   -6.4989 H   0  0  0  0  0  0  0  0  0  0  0  0
    7.2362    1.1829   -7.6412 H   0  0  0  0  0  0  0  0  0  0  0  0
    8.7309    0.6742   -6.9005 H   0  0  0  0  0  0  0  0  0  0  0  0
    7.5151    1.7067   -5.9248 H   0  0  0  0  0  0  0  0  0  0  0  0
   10.2265    0.6703   -4.7024 H   0  0  0  0  0  0  0  0  0  0  0  0
   10.6333    1.0461   -2.5872 H   0  0  0  0  0  0  0  0  0  0  0  0
    8.2723   -1.9897   -2.5837 H   0  0  0  0  0  0  0  0  0  0  0  0
    0.7557   -1.8489   -1.4607 H   0  0  0  0  0  0  0  0  0  0  0  0
    1.9253   -3.1430   -1.6340 H   0  0  0  0  0  0  0  0  0  0  0  0
    3.2213   -0.4227   -1.5350 H   0  0  0  0  0  0  0  0  0  0  0  0
    2.0917   -0.6247   -2.8525 H   0  0  0  0  0  0  0  0  0  0  0  0
    3.3967   -1.8453   -2.6993 H   0  0  0  0  0  0  0  0  0  0  0  0
    3.1323    2.1051    2.8959 H   0  0  0  0  0  0  0  0  0  0  0  0
    6.5612   -2.0932    2.4066 H   0  0  0  0  0  0  0  0  0  0  0  0
    6.4946   -3.4933    4.3965 H   0  0  0  0  0  0  0  0  0  0  0  0
    5.3668   -2.0828    7.6954 H   0  0  0  0  0  0  0  0  0  0  0  0
    6.3524   -3.3615    6.9916 H   0  0  0  0  0  0  0  0  0  0  0  0
    3.3184   -3.1780    7.2658 H   0  0  0  0  0  0  0  0  0  0  0  0
    4.4154   -4.6312    7.5371 H   0  0  0  0  0  0  0  0  0  0  0  0
    3.9431   -4.1008    5.8887 H   0  0  0  0  0  0  0  0  0  0  0  0
    4.5454   -0.3073    6.4932 H   0  0  0  0  0  0  0  0  0  0  0  0
    4.6500    1.0198    4.4945 H   0  0  0  0  0  0  0  0  0  0  0  0
    4.6637    2.7163    0.9756 H   0  0  0  0  0  0  0  0  0  0  0  0
    5.7684    4.9626    1.2442 H   0  0  0  0  0  0  0  0  0  0  0  0
    8.4005    5.5821    3.6940 H   0  0  0  0  0  0  0  0  0  0  0  0
    7.1242    6.3688    2.7847 H   0  0  0  0  0  0  0  0  0  0  0  0
    9.6887    5.0376    1.7476 H   0  0  0  0  0  0  0  0  0  0  0  0
    8.4381    5.8917    0.6729 H   0  0  0  0  0  0  0  0  0  0  0  0
    9.4187    6.8057    1.9380 H   0  0  0  0  0  0  0  0  0  0  0  0
    8.6316    3.3021    3.9044 H   0  0  0  0  0  0  0  0  0  0  0  0
    7.5957    1.1175    3.6406 H   0  0  0  0  0  0  0  0  0  0  0  0
    2.1128    3.9786    1.9111 H   0  0  0  0  0  0  0  0  0  0  0  0
    1.1562    4.9211    3.1502 H   0  0  0  0  0  0  0  0  0  0  0  0
   -0.7137    5.0767    1.7158 H   0  0  0  0  0  0  0  0  0  0  0  0
   -0.1659    3.5850    0.8048 H   0  0  0  0  0  0  0  0  0  0  0  0
    0.6596    5.1335    0.5725 H   0  0  0  0  0  0  0  0  0  0  0  0
   -0.1810   -1.5119    0.5030 H   0  0  0  0  0  0  0  0  0  0  0  0
   -3.3176   -2.6707    1.4268 H   0  0  0  0  0  0  0  0  0  0  0  0
   -3.7914   -3.9520    3.4355 H   0  0  0  0  0  0  0  0  0  0  0  0
   -3.3757   -4.2502    5.8020 H   0  0  0  0  0  0  0  0  0  0  0  0
   -2.7003   -2.8274    6.8186 H   0  0  0  0  0  0  0  0  0  0  0  0
   -4.7142   -2.3169    7.6197 H   0  0  0  0  0  0  0  0  0  0  0  0
   -5.4532   -3.6366    6.5694 H   0  0  0  0  0  0  0  0  0  0  0  0
   -5.2983   -1.9847    5.9257 H   0  0  0  0  0  0  0  0  0  0  0  0
   -2.4547   -0.6736    5.8698 H   0  0  0  0  0  0  0  0  0  0  0  0
   -2.0609    0.5590    3.9098 H   0  0  0  0  0  0  0  0  0  0  0  0
   -4.8384   -1.1408    0.7045 H   0  0  0  0  0  0  0  0  0  0  0  0
   -5.4931   -2.0947   -1.4667 H   0  0  0  0  0  0  0  0  0  0  0  0
   -3.0553   -2.6716   -4.1725 H   0  0  0  0  0  0  0  0  0  0  0  0
   -4.6902   -3.0886   -3.5261 H   0  0  0  0  0  0  0  0  0  0  0  0
   -4.5574   -1.6788   -5.6925 H   0  0  0  0  0  0  0  0  0  0  0  0
   -4.1919   -0.2820   -4.6109 H   0  0  0  0  0  0  0  0  0  0  0  0
   -5.7668   -1.1922   -4.5356 H   0  0  0  0  0  0  0  0  0  0  0  0
   -1.7966   -1.0092   -3.1297 H   0  0  0  0  0  0  0  0  0  0  0  0
   -1.0224    0.0078   -1.0391 H   0  0  0  0  0  0  0  0  0  0  0  0
   -5.8803    4.5434    2.8774 H   0  0  0  0  0  0  0  0  0  0  0  0
   -8.9194    4.3811    2.9604 H   0  0  0  0  0  0  0  0  0  0  0  0
  -11.0201    4.8282    1.7598 H   0  0  0  0  0  0  0  0  0  0  0  0
  -12.0850    4.7133   -1.0386 H   0  0  0  0  0  0  0  0  0  0  0  0
  -14.5495    1.5583   -4.9472 H   0  0  0  0  0  0  0  0  0  0  0  0
  -14.2967   -0.7315   -5.6976 H   0  0  0  0  0  0  0  0  0  0  0  0
  1  2  2  3
  2  3  1  0
  3  4  2  0
  3  5  1  0
  5  6  1  0
  6  7  1  0
  5  8  1  0
  8  9  2  0
  8 10  1  0
 10 11  2  0
 11 12  1  0
 10 13  1  0
 13 14  3  0
  1 15  1  0
 15 16  2  3
 16 17  1  0
 17 18  2  0
 18 19  1  0
 19 20  1  0
 20 21  1  0
 21 22  1  0
 22 23  2  0
 23 24  1  0
 24 25  1  0
 25 26  1  0
 23 27  1  0
 27 28  2  0
 28 29  1  0
 29 30  2  0
 30 31  1  0
 31 32  1  0
 32 33  2  0
 33 34  1  0
 34 35  2  0
 35 36  1  0
 36 37  1  0
 35 38  1  0
 38 39  2  0
 31 40  1  0
 40 41  2  0
 41 42  1  0
 42 43  2  0
 43 44  1  0
 44 45  1  0
 43 46  1  0
 46 47  2  0
 31 48  1  0
 48 49  1  0
 49 50  1  0
 28 51  1  0
 51 52  1  0
 52 53  1  0
 53 54  1  0
 51 55  2  0
 55 56  1  0
 56 57  2  0
 57 58  1  0
 58 59  1  0
 59 60  2  0
 58 61  1  0
 61 62  2  0
 62 63  1  0
 63 64  2  0
 64 65  1  0
 65 66  1  0
 64 67  1  0
 67 68  2  0
 58 69  1  0
 69 70  2  0
 70 71  1  0
 71 72  2  0
 72 73  1  0
 73 74  1  0
 72 75  1  0
 75 76  2  0
 57 77  1  0
 77 78  2  0
 78 79  1  0
 78 80  1  0
 80 81  2  0
 81 82  1  0
 81 83  1  0
 83 84  2  0
 84 85  1  0
 85 86  2  0
 86 87  1  0
 86 88  1  0
 88 89  2  3
 89 90  1  0
 90 91  2  0
 90 92  1  0
 92 93  2  0
 93 94  1  0
 94 95  2  0
 95 96  1  0
 96 97  1  0
 96 98  2  0
 98 99  1  0
 93100  1  0
100101  2  3
101102  1  0
102103  3  0
101104  1  0
104105  3  0
 11  2  1  0
 50 17  1  0
 59 55  1  0
 68 61  1  0
 76 69  1  0
 82 77  1  0
 87 83  1  0
100 89  1  0
 49 19  2  0
 79 56  1  0
 98 92  1  0
 48 21  2  0
 30 22  1  0
 39 32  1  0
 47 40  1  0
 60 27  1  0
  1106  1  0
  6107  1  0
  6108  1  0
  7109  1  0
  7110  1  0
  7111  1  0
 12112  1  0
 12113  1  0
 12114  1  0
 15115  1  0
 16116  1  0
 18117  1  0
 25118  1  0
 25119  1  0
 26120  1  0
 26121  1  0
 26122  1  0
 29123  1  0
 33124  1  0
 34125  1  0
 36126  1  0
 36127  1  0
 37128  1  0
 37129  1  0
 37130  1  0
 38131  1  0
 39132  1  0
 41133  1  0
 42134  1  0
 44135  1  0
 44136  1  0
 45137  1  0
 45138  1  0
 45139  1  0
 46140  1  0
 47141  1  0
 53142  1  0
 53143  1  0
 54144  1  0
 54145  1  0
 54146  1  0
 60147  1  0
 62148  1  0
 63149  1  0
 65150  1  0
 65151  1  0
 66152  1  0
 66153  1  0
 66154  1  0
 67155  1  0
 68156  1  0
 70157  1  0
 71158  1  0
 73159  1  0
 73160  1  0
 74161  1  0
 74162  1  0
 74163  1  0
 75164  1  0
 76165  1  0
 80166  1  0
 84167  1  0
 85168  1  0
 88169  1  0
 94170  1  0
 95171  1  0
M  END

