
     RDKit          3D

253276  0  0  0  0  0  0  0  0999 V2000
   -0.7327    7.6077   -1.8009 C   0  0  0  0  0  0  0  0  0  0  0  0
    0.2382    7.2477   -0.9224 C   0  0  0  0  0  0  0  0  0  0  0  0
    0.8103    8.2856   -0.0409 C   0  0  0  0  0  0  0  0  0  0  0  0
    0.1500    9.3247    0.2369 O   0  0  0  0  0  0  0  0  0  0  0  0
    2.1267    8.1013    0.5043 N   0  0  0  0  0  0  0  0  0  0  0  0
    2.7595    9.1695    1.2934 C   0  0  0  0  0  0  0  0  0  0  0  0
    2.3006    9.0985    2.7494 C   0  0  0  0  0  0  0  0  0  0  0  0
    2.7732    6.8253    0.3435 C   0  0  0  0  0  0  0  0  0  0  0  0
    3.9546    6.6552    0.7568 O   0  0  0  0  0  0  0  0  0  0  0  0
    2.0412    5.6883   -0.2556 C   0  0  0  0  0  0  0  0  0  0  0  0
    0.8060    5.8624   -0.7831 C   0  0  0  0  0  0  0  0  0  0  0  0
   -0.0440    4.6588   -1.0929 C   0  0  0  0  0  0  0  0  0  0  0  0
    2.6491    4.3764   -0.1747 C   0  0  0  0  0  0  0  0  0  0  0  0
    3.1282    3.3224   -0.1017 N   0  0  0  0  0  0  0  0  0  0  0  0
   -1.2126    6.8074   -2.9394 C   0  0  0  0  0  0  0  0  0  0  0  0
   -2.5545    6.4743   -3.2128 C   0  0  0  0  0  0  0  0  0  0  0  0
   -3.6291    6.6198   -2.2677 N   0  0  0  0  0  0  0  0  0  0  0  0
   -4.5447    7.7103   -2.4393 C   0  0  0  0  0  0  0  0  0  0  0  0
   -4.1971    9.0029   -2.0191 C   0  0  0  0  0  0  0  0  0  0  0  0
   -5.0878   10.0671   -2.1937 C   0  0  0  0  0  0  0  0  0  0  0  0
   -6.3334    9.8496   -2.8004 C   0  0  0  0  0  0  0  0  0  0  0  0
   -7.2972   10.9843   -2.9900 C   0  0  0  0  0  0  0  0  0  0  0  0
   -6.6993    8.5504   -3.1807 C   0  0  0  0  0  0  0  0  0  0  0  0
   -5.8047    7.4857   -3.0110 C   0  0  0  0  0  0  0  0  0  0  0  0
   -3.8366    5.6503   -1.2139 C   0  0  0  0  0  0  0  0  0  0  0  0
   -3.5140    4.2898   -1.3991 C   0  0  0  0  0  0  0  0  0  0  0  0
   -3.6097    3.3843   -0.3449 C   0  0  0  0  0  0  0  0  0  0  0  0
   -4.0609    3.8007    0.9111 C   0  0  0  0  0  0  0  0  0  0  0  0
   -4.0471    2.8459    2.0611 C   0  0  0  0  0  0  0  0  0  0  0  0
   -4.4161    5.1466    1.1010 C   0  0  0  0  0  0  0  0  0  0  0  0
   -4.3212    6.0564    0.0447 C   0  0  0  0  0  0  0  0  0  0  0  0
   -2.6476    5.6809   -4.3586 C   0  0  0  0  0  0  0  0  0  0  0  0
   -3.8050    4.5981   -4.8864 S   0  0  0  0  0  0  0  0  0  0  0  0
   -2.7552    3.6070   -5.8045 C   0  0  0  0  0  0  0  0  0  0  0  0
   -1.4805    4.2296   -5.7615 C   0  0  0  0  0  0  0  0  0  0  0  0
   -0.3382    3.8629   -6.5494 N   0  0  0  0  0  0  0  0  0  0  0  0
    0.8259    3.2455   -5.9235 C   0  0  0  0  0  0  0  0  0  0  0  0
    1.9876    2.9742   -6.6753 C   0  0  0  0  0  0  0  0  0  0  0  0
    3.1431    2.4942   -6.0557 C   0  0  0  0  0  0  0  0  0  0  0  0
    3.1582    2.2592   -4.6773 C   0  0  0  0  0  0  0  0  0  0  0  0
    4.4192    1.8198   -3.9902 C   0  0  0  0  0  0  0  0  0  0  0  0
    1.9812    2.4313   -3.9370 C   0  0  0  0  0  0  0  0  0  0  0  0
    0.8168    2.8919   -4.5609 C   0  0  0  0  0  0  0  0  0  0  0  0
   -0.1750    4.6604   -7.7433 C   0  0  0  0  0  0  0  0  0  0  0  0
   -1.1149    4.5763   -8.7823 C   0  0  0  0  0  0  0  0  0  0  0  0
   -0.9972    5.3932   -9.9122 C   0  0  0  0  0  0  0  0  0  0  0  0
    0.0572    6.3118  -10.0156 C   0  0  0  0  0  0  0  0  0  0  0  0
    0.1566    7.2097  -11.2126 C   0  0  0  0  0  0  0  0  0  0  0  0
    0.9699    6.4331   -8.9598 C   0  0  0  0  0  0  0  0  0  0  0  0
    0.8490    5.6216   -7.8285 C   0  0  0  0  0  0  0  0  0  0  0  0
   -1.4705    5.3665   -4.9462 C   0  0  0  0  0  0  0  0  0  0  0  0
   -0.2108    6.1367   -4.1430 S   0  0  0  0  0  0  0  0  0  0  0  0
   -2.9953    2.1391   -5.7548 C   0  0  0  0  0  0  0  0  0  0  0  0
   -2.5404    1.0731   -6.5766 C   0  0  0  0  0  0  0  0  0  0  0  0
   -1.6956    1.1607   -7.7719 C   0  0  0  0  0  0  0  0  0  0  0  0
   -0.3234    0.8865   -7.6575 C   0  0  0  0  0  0  0  0  0  0  0  0
    0.4733    0.8029   -8.7962 C   0  0  0  0  0  0  0  0  0  0  0  0
   -0.0936    0.9409  -10.0646 C   0  0  0  0  0  0  0  0  0  0  0  0
   -1.4818    1.1192  -10.1973 C   0  0  0  0  0  0  0  0  0  0  0  0
   -2.1033    1.1991  -11.5631 C   0  0  0  0  0  0  0  0  0  0  0  0
   -2.2292    2.6428  -12.0261 C   0  0  0  0  0  0  0  0  0  0  0  0
   -2.2830    1.2343   -9.0474 C   0  0  0  0  0  0  0  0  0  0  0  0
   -2.8904   -0.1700   -6.0338 C   0  0  0  0  0  0  0  0  0  0  0  0
   -2.5422   -1.7789   -6.4795 S   0  0  0  0  0  0  0  0  0  0  0  0
   -3.2705   -2.3660   -5.0612 C   0  0  0  0  0  0  0  0  0  0  0  0
   -3.2161   -3.5098   -4.3182 C   0  0  0  0  0  0  0  0  0  0  0  0
   -2.6577   -4.7563   -4.6189 C   0  0  0  0  0  0  0  0  0  0  0  0
   -2.5755   -5.7330   -3.5904 C   0  0  0  0  0  0  0  0  0  0  0  0
   -2.0084   -6.9259   -3.9147 N   0  0  0  0  0  0  0  0  0  0  0  0
   -1.6486   -6.6380   -5.5051 S   0  0  0  0  0  0  0  0  0  0  0  0
   -2.1581   -5.0946   -5.8336 N   0  0  0  0  0  0  0  0  0  0  0  0
   -3.0931   -5.4285   -2.3294 C   0  0  0  0  0  0  0  0  0  0  0  0
   -3.1111   -6.1626   -1.1782 C   0  0  0  0  0  0  0  0  0  0  0  0
   -2.0717   -7.3430   -0.5472 S   0  0  0  0  0  0  0  0  0  0  0  0
   -2.3198   -6.7891    1.0455 C   0  0  0  0  0  0  0  0  0  0  0  0
   -1.4130   -6.8195    2.1121 C   0  0  0  0  0  0  0  0  0  0  0  0
   -0.6289   -8.0140    2.4906 C   0  0  0  0  0  0  0  0  0  0  0  0
    0.3487   -8.5497    1.6456 C   0  0  0  0  0  0  0  0  0  0  0  0
    1.1105   -9.6434    2.0629 C   0  0  0  0  0  0  0  0  0  0  0  0
    0.9049  -10.2072    3.3264 C   0  0  0  0  0  0  0  0  0  0  0  0
   -0.0918   -9.6989    4.1748 C   0  0  0  0  0  0  0  0  0  0  0  0
   -0.3325  -10.3076    5.5355 C   0  0  0  0  0  0  0  0  0  0  0  0
    0.2110   -9.4127    6.6491 C   0  0  0  0  0  0  0  0  0  0  0  0
   -0.8522   -8.5961    3.7518 C   0  0  0  0  0  0  0  0  0  0  0  0
   -1.4797   -5.6451    2.8879 C   0  0  0  0  0  0  0  0  0  0  0  0
   -2.8007   -4.7287    2.3431 S   0  0  0  0  0  0  0  0  0  0  0  0
   -3.1812   -5.7098    1.0494 C   0  0  0  0  0  0  0  0  0  0  0  0
   -3.6440   -5.3664   -0.2188 C   0  0  0  0  0  0  0  0  0  0  0  0
   -4.0496   -4.1599   -0.6989 N   0  0  0  0  0  0  0  0  0  0  0  0
   -3.6412   -4.1750   -2.0149 C   0  0  0  0  0  0  0  0  0  0  0  0
   -3.6395   -3.1581   -3.0255 C   0  0  0  0  0  0  0  0  0  0  0  0
   -3.8355   -1.7959   -2.9498 N   0  0  0  0  0  0  0  0  0  0  0  0
   -3.6890   -1.3749   -4.2359 C   0  0  0  0  0  0  0  0  0  0  0  0
   -3.5185   -0.1244   -4.8169 C   0  0  0  0  0  0  0  0  0  0  0  0
   -3.7826    1.4609   -4.3900 S   0  0  0  0  0  0  0  0  0  0  0  0
   -3.6685   -0.9396   -1.7605 C   0  0  0  0  0  0  0  0  0  0  0  0
   -2.3676   -0.1237   -1.7884 C   0  0  0  0  0  0  0  0  0  0  0  0
   -5.1664   -3.4333   -0.0606 C   0  0  0  0  0  0  0  0  0  0  0  0
   -6.3210   -3.1605   -1.0238 C   0  0  0  0  0  0  0  0  0  0  0  0
   -0.3890   -5.1176    3.7487 C   0  0  0  0  0  0  0  0  0  0  0  0
   -0.3128   -3.8257    4.3210 C   0  0  0  0  0  0  0  0  0  0  0  0
   -0.9083   -2.6755    3.6895 N   0  0  0  0  0  0  0  0  0  0  0  0
   -2.0866   -2.0495    4.2588 C   0  0  0  0  0  0  0  0  0  0  0  0
   -2.5509   -0.8079    3.7829 C   0  0  0  0  0  0  0  0  0  0  0  0
   -3.7053   -0.2279    4.3137 C   0  0  0  0  0  0  0  0  0  0  0  0
   -4.4163   -0.8721    5.3351 C   0  0  0  0  0  0  0  0  0  0  0  0
   -5.6419   -0.2337    5.9165 C   0  0  0  0  0  0  0  0  0  0  0  0
   -3.9396   -2.0855    5.8468 C   0  0  0  0  0  0  0  0  0  0  0  0
   -2.7953   -2.6751    5.3077 C   0  0  0  0  0  0  0  0  0  0  0  0
   -0.3267   -2.2436    2.4286 C   0  0  0  0  0  0  0  0  0  0  0  0
   -1.0827   -2.2608    1.2459 C   0  0  0  0  0  0  0  0  0  0  0  0
   -0.4571   -2.1515    0.0009 C   0  0  0  0  0  0  0  0  0  0  0  0
    0.9094   -1.8696   -0.0895 C   0  0  0  0  0  0  0  0  0  0  0  0
    1.5584   -1.7129   -1.4324 C   0  0  0  0  0  0  0  0  0  0  0  0
    1.6645   -1.7892    1.0849 C   0  0  0  0  0  0  0  0  0  0  0  0
    1.0557   -1.9808    2.3297 C   0  0  0  0  0  0  0  0  0  0  0  0
    0.8607   -3.6889    5.0728 C   0  0  0  0  0  0  0  0  0  0  0  0
    1.5494   -2.4060    5.8998 S   0  0  0  0  0  0  0  0  0  0  0  0
    3.1004   -3.1075    6.0263 C   0  0  0  0  0  0  0  0  0  0  0  0
    3.0995   -4.3222    5.2937 C   0  0  0  0  0  0  0  0  0  0  0  0
    4.2803   -4.8543    4.6329 N   0  0  0  0  0  0  0  0  0  0  0  0
    4.3344   -6.2249    4.1865 C   0  0  0  0  0  0  0  0  0  0  0  0
    4.7495   -6.5280    2.8753 C   0  0  0  0  0  0  0  0  0  0  0  0
    4.8398   -7.8505    2.4454 C   0  0  0  0  0  0  0  0  0  0  0  0
    4.4966   -8.8967    3.3096 C   0  0  0  0  0  0  0  0  0  0  0  0
    4.6685  -10.3177    2.8670 C   0  0  0  0  0  0  0  0  0  0  0  0
    4.0779   -8.6011    4.6199 C   0  0  0  0  0  0  0  0  0  0  0  0
    3.9879   -7.2748    5.0515 C   0  0  0  0  0  0  0  0  0  0  0  0
    5.3083   -3.9481    4.1651 C   0  0  0  0  0  0  0  0  0  0  0  0
    6.6625   -4.2263    4.4182 C   0  0  0  0  0  0  0  0  0  0  0  0
    7.6563   -3.3301    4.0097 C   0  0  0  0  0  0  0  0  0  0  0  0
    7.3121   -2.1530    3.3278 C   0  0  0  0  0  0  0  0  0  0  0  0
    8.3730   -1.1697    2.9321 C   0  0  0  0  0  0  0  0  0  0  0  0
    5.9633   -1.8750    3.0703 C   0  0  0  0  0  0  0  0  0  0  0  0
    4.9707   -2.7712    3.4750 C   0  0  0  0  0  0  0  0  0  0  0  0
    1.7980   -4.6584    4.8974 C   0  0  0  0  0  0  0  0  0  0  0  0
    1.1371   -5.8596    3.9427 S   0  0  0  0  0  0  0  0  0  0  0  0
    4.3136   -2.5630    6.7010 C   0  0  0  0  0  0  0  0  0  0  0  0
    4.5454   -1.3189    7.1890 C   0  0  0  0  0  0  0  0  0  0  0  0
    3.5247   -0.2628    7.3259 C   0  0  0  0  0  0  0  0  0  0  0  0
    2.3918   -0.5202    7.8166 O   0  0  0  0  0  0  0  0  0  0  0  0
    3.8894    1.0931    7.0272 N   0  0  0  0  0  0  0  0  0  0  0  0
    2.8741    2.1521    6.9927 C   0  0  0  0  0  0  0  0  0  0  0  0
    2.6978    2.7625    8.3824 C   0  0  0  0  0  0  0  0  0  0  0  0
    5.2885    1.4188    6.9769 C   0  0  0  0  0  0  0  0  0  0  0  0
    5.6557    2.5890    6.6764 O   0  0  0  0  0  0  0  0  0  0  0  0
    6.3043    0.3989    7.3325 C   0  0  0  0  0  0  0  0  0  0  0  0
    5.9460   -0.8956    7.5146 C   0  0  0  0  0  0  0  0  0  0  0  0
    6.9552   -1.9320    7.9660 C   0  0  0  0  0  0  0  0  0  0  0  0
    7.6727    0.8381    7.4990 C   0  0  0  0  0  0  0  0  0  0  0  0
    8.7646    1.1912    7.6309 N   0  0  0  0  0  0  0  0  0  0  0  0
   -1.0996    8.6246   -1.7792 H   0  0  0  0  0  0  0  0  0  0  0  0
    2.4936   10.1627    0.8708 H   0  0  0  0  0  0  0  0  0  0  0  0
    3.8651    9.0880    1.2512 H   0  0  0  0  0  0  0  0  0  0  0  0
    2.5997    8.1249    3.1969 H   0  0  0  0  0  0  0  0  0  0  0  0
    1.1963    9.2055    2.8107 H   0  0  0  0  0  0  0  0  0  0  0  0
    2.7719    9.9201    3.3285 H   0  0  0  0  0  0  0  0  0  0  0  0
    0.2201    4.2501   -2.0819 H   0  0  0  0  0  0  0  0  0  0  0  0
   -1.1036    4.9380   -1.0610 H   0  0  0  0  0  0  0  0  0  0  0  0
    0.0797    3.8627   -0.3305 H   0  0  0  0  0  0  0  0  0  0  0  0
   -3.2530    9.1879   -1.5285 H   0  0  0  0  0  0  0  0  0  0  0  0
   -4.8026   11.0576   -1.8638 H   0  0  0  0  0  0  0  0  0  0  0  0
   -7.7107   10.9667   -4.0214 H   0  0  0  0  0  0  0  0  0  0  0  0
   -8.1304   10.8890   -2.2608 H   0  0  0  0  0  0  0  0  0  0  0  0
   -6.8024   11.9685   -2.8359 H   0  0  0  0  0  0  0  0  0  0  0  0
   -7.6713    8.3662   -3.6218 H   0  0  0  0  0  0  0  0  0  0  0  0
   -6.0944    6.4896   -3.3179 H   0  0  0  0  0  0  0  0  0  0  0  0
   -3.1083    3.9321   -2.3283 H   0  0  0  0  0  0  0  0  0  0  0  0
   -3.3046    2.3559   -0.4995 H   0  0  0  0  0  0  0  0  0  0  0  0
   -3.0667    2.9108    2.5802 H   0  0  0  0  0  0  0  0  0  0  0  0
   -4.8570    3.0839    2.7842 H   0  0  0  0  0  0  0  0  0  0  0  0
   -4.1960    1.8033    1.7067 H   0  0  0  0  0  0  0  0  0  0  0  0
   -4.7497    5.4896    2.0730 H   0  0  0  0  0  0  0  0  0  0  0  0
   -4.5800    7.0930    0.2214 H   0  0  0  0  0  0  0  0  0  0  0  0
    2.0167    3.1540   -7.7407 H   0  0  0  0  0  0  0  0  0  0  0  0
    4.0321    2.3293   -6.6526 H   0  0  0  0  0  0  0  0  0  0  0  0
    5.2642    1.7238   -4.7064 H   0  0  0  0  0  0  0  0  0  0  0  0
    4.7061    2.5654   -3.2184 H   0  0  0  0  0  0  0  0  0  0  0  0
    4.2624    0.8342   -3.5014 H   0  0  0  0  0  0  0  0  0  0  0  0
    1.9693    2.2216   -2.8749 H   0  0  0  0  0  0  0  0  0  0  0  0
   -0.0774    2.9998   -3.9659 H   0  0  0  0  0  0  0  0  0  0  0  0
   -1.9527    3.8996   -8.7079 H   0  0  0  0  0  0  0  0  0  0  0  0
   -1.7368    5.3259  -10.6971 H   0  0  0  0  0  0  0  0  0  0  0  0
   -0.6134    8.0081  -11.1434 H   0  0  0  0  0  0  0  0  0  0  0  0
   -0.0059    6.6264  -12.1441 H   0  0  0  0  0  0  0  0  0  0  0  0
    1.1603    7.6835  -11.2763 H   0  0  0  0  0  0  0  0  0  0  0  0
    1.7671    7.1641   -9.0010 H   0  0  0  0  0  0  0  0  0  0  0  0
    1.5467    5.7539   -7.0096 H   0  0  0  0  0  0  0  0  0  0  0  0
    0.1168    0.7117   -6.6819 H   0  0  0  0  0  0  0  0  0  0  0  0
    1.5301    0.5989   -8.7003 H   0  0  0  0  0  0  0  0  0  0  0  0
    0.5346    0.8646  -10.9390 H   0  0  0  0  0  0  0  0  0  0  0  0
   -3.1092    0.7240  -11.5517 H   0  0  0  0  0  0  0  0  0  0  0  0
   -1.4843    0.6371  -12.2964 H   0  0  0  0  0  0  0  0  0  0  0  0
   -1.2306    3.1343  -12.0339 H   0  0  0  0  0  0  0  0  0  0  0  0
   -2.9130    3.2004  -11.3481 H   0  0  0  0  0  0  0  0  0  0  0  0
   -2.6496    2.6663  -13.0546 H   0  0  0  0  0  0  0  0  0  0  0  0
   -3.3583    1.3549   -9.1394 H   0  0  0  0  0  0  0  0  0  0  0  0
    0.5381   -8.1081    0.6780 H   0  0  0  0  0  0  0  0  0  0  0  0
    1.8728  -10.0470    1.4133 H   0  0  0  0  0  0  0  0  0  0  0  0
    1.5121  -11.0480    3.6377 H   0  0  0  0  0  0  0  0  0  0  0  0
    0.1546  -11.3022    5.6112 H   0  0  0  0  0  0  0  0  0  0  0  0
   -1.4217  -10.4593    5.6892 H   0  0  0  0  0  0  0  0  0  0  0  0
   -0.2469   -8.4018    6.6012 H   0  0  0  0  0  0  0  0  0  0  0  0
    1.3159   -9.3202    6.5651 H   0  0  0  0  0  0  0  0  0  0  0  0
   -0.0391   -9.8580    7.6382 H   0  0  0  0  0  0  0  0  0  0  0  0
   -1.6207   -8.1911    4.4049 H   0  0  0  0  0  0  0  0  0  0  0  0
   -4.5473   -0.2662   -1.6468 H   0  0  0  0  0  0  0  0  0  0  0  0
   -3.5740   -1.5617   -0.8669 H   0  0  0  0  0  0  0  0  0  0  0  0
   -1.9871    0.0217   -0.7547 H   0  0  0  0  0  0  0  0  0  0  0  0
   -1.5900   -0.6302   -2.3943 H   0  0  0  0  0  0  0  0  0  0  0  0
   -2.5233    0.8871   -2.1920 H   0  0  0  0  0  0  0  0  0  0  0  0
   -5.5852   -4.0608    0.7568 H   0  0  0  0  0  0  0  0  0  0  0  0
   -4.8364   -2.5165    0.4600 H   0  0  0  0  0  0  0  0  0  0  0  0
   -7.2181   -2.8398   -0.4464 H   0  0  0  0  0  0  0  0  0  0  0  0
   -6.5737   -4.0779   -1.5943 H   0  0  0  0  0  0  0  0  0  0  0  0
   -6.0709   -2.3463   -1.7309 H   0  0  0  0  0  0  0  0  0  0  0  0
   -2.0309   -0.2791    2.9935 H   0  0  0  0  0  0  0  0  0  0  0  0
   -4.0372    0.7314    3.9427 H   0  0  0  0  0  0  0  0  0  0  0  0
   -6.2298    0.2808    5.1265 H   0  0  0  0  0  0  0  0  0  0  0  0
   -6.2989   -0.9991    6.3830 H   0  0  0  0  0  0  0  0  0  0  0  0
   -5.3468    0.5079    6.6891 H   0  0  0  0  0  0  0  0  0  0  0  0
   -4.4591   -2.5797    6.6641 H   0  0  0  0  0  0  0  0  0  0  0  0
   -2.4717   -3.6241    5.7114 H   0  0  0  0  0  0  0  0  0  0  0  0
   -2.1533   -2.4024    1.2746 H   0  0  0  0  0  0  0  0  0  0  0  0
   -1.0368   -2.3007   -0.8963 H   0  0  0  0  0  0  0  0  0  0  0  0
    0.8703   -1.1930   -2.1345 H   0  0  0  0  0  0  0  0  0  0  0  0
    1.8114   -2.7142   -1.8432 H   0  0  0  0  0  0  0  0  0  0  0  0
    2.4837   -1.0986   -1.3481 H   0  0  0  0  0  0  0  0  0  0  0  0
    2.7313   -1.6032    1.0366 H   0  0  0  0  0  0  0  0  0  0  0  0
    1.6690   -1.9295    3.2096 H   0  0  0  0  0  0  0  0  0  0  0  0
    5.0198   -5.7370    2.1862 H   0  0  0  0  0  0  0  0  0  0  0  0
    5.1831   -8.0583    1.4380 H   0  0  0  0  0  0  0  0  0  0  0  0
    5.7280  -10.6207    3.0073 H   0  0  0  0  0  0  0  0  0  0  0  0
    4.0142  -10.9976    3.4489 H   0  0  0  0  0  0  0  0  0  0  0  0
    4.4005  -10.4183    1.7922 H   0  0  0  0  0  0  0  0  0  0  0  0
    3.8268   -9.3991    5.3051 H   0  0  0  0  0  0  0  0  0  0  0  0
    3.6726   -7.0591    6.0659 H   0  0  0  0  0  0  0  0  0  0  0  0
    6.9405   -5.1272    4.9522 H   0  0  0  0  0  0  0  0  0  0  0  0
    8.6936   -3.5481    4.2337 H   0  0  0  0  0  0  0  0  0  0  0  0
    8.0709   -0.6148    2.0163 H   0  0  0  0  0  0  0  0  0  0  0  0
    9.3352   -1.6835    2.7219 H   0  0  0  0  0  0  0  0  0  0  0  0
    8.5253   -0.4408    3.7559 H   0  0  0  0  0  0  0  0  0  0  0  0
    5.6806   -0.9641    2.5610 H   0  0  0  0  0  0  0  0  0  0  0  0
    3.9380   -2.5400    3.2511 H   0  0  0  0  0  0  0  0  0  0  0  0
    5.1424   -3.2554    6.6996 H   0  0  0  0  0  0  0  0  0  0  0  0
    3.1704    2.9459    6.2749 H   0  0  0  0  0  0  0  0  0  0  0  0
    1.9015    1.7431    6.6383 H   0  0  0  0  0  0  0  0  0  0  0  0
    1.9112    3.5450    8.3496 H   0  0  0  0  0  0  0  0  0  0  0  0
    3.6513    3.2194    8.7243 H   0  0  0  0  0  0  0  0  0  0  0  0
    2.3903    1.9797    9.1084 H   0  0  0  0  0  0  0  0  0  0  0  0
    7.7338   -1.4892    8.6201 H   0  0  0  0  0  0  0  0  0  0  0  0
    7.4408   -2.3933    7.0811 H   0  0  0  0  0  0  0  0  0  0  0  0
    6.4527   -2.7222    8.5635 H   0  0  0  0  0  0  0  0  0  0  0  0
  1  2  2  3
  2  3  1  0
  3  4  2  0
  3  5  1  0
  5  6  1  0
  6  7  1  0
  5  8  1  0
  8  9  2  0
  8 10  1  0
 10 11  2  0
 11 12  1  0
 10 13  1  0
 13 14  3  0
  1 15  1  0
 15 16  2  0
 16 17  1  0
 17 18  1  0
 18 19  2  0
 19 20  1  0
 20 21  2  0
 21 22  1  0
 21 23  1  0
 23 24  2  0
 17 25  1  0
 25 26  2  0
 26 27  1  0
 27 28  2  0
 28 29  1  0
 28 30  1  0
 30 31  2  0
 16 32  1  0
 32 33  1  0
 33 34  1  0
 34 35  2  0
 35 36  1  0
 36 37  1  0
 37 38  2  0
 38 39  1  0
 39 40  2  0
 40 41  1  0
 40 42  1  0
 42 43  2  0
 36 44  1  0
 44 45  2  0
 45 46  1  0
 46 47  2  0
 47 48  1  0
 47 49  1  0
 49 50  2  0
 35 51  1  0
 51 52  1  0
 34 53  1  0
 53 54  2  0
 54 55  1  0
 55 56  2  0
 56 57  1  0
 57 58  2  0
 58 59  1  0
 59 60  1  0
 60 61  1  0
 59 62  2  0
 54 63  1  0
 63 64  1  0
 64 65  1  0
 65 66  1  0
 66 67  1  0
 67 68  1  0
 68 69  2  0
 69 70  1  0
 70 71  1  0
 68 72  1  0
 72 73  1  0
 73 74  1  0
 74 75  1  0
 75 76  1  0
 76 77  1  0
 77 78  2  0
 78 79  1  0
 79 80  2  0
 80 81  1  0
 81 82  1  0
 82 83  1  0
 81 84  2  0
 76 85  2  0
 85 86  1  0
 86 87  1  0
 87 88  1  0
 88 89  1  0
 89 90  1  0
 90 91  1  0
 91 92  1  0
 92 93  1  0
 93 94  1  0
 94 95  1  0
 92 96  1  0
 96 97  1  0
 89 98  1  0
 98 99  1  0
 85100  1  0
100101  2  0
101102  1  0
102103  1  0
103104  2  0
104105  1  0
105106  2  0
106107  1  0
106108  1  0
108109  2  0
102110  1  0
110111  2  0
111112  1  0
112113  2  0
113114  1  0
113115  1  0
115116  2  0
101117  1  0
117118  1  0
118119  1  0
119120  2  0
120121  1  0
121122  1  0
122123  2  0
123124  1  0
124125  2  0
125126  1  0
125127  1  0
127128  2  0
121129  1  0
129130  2  0
130131  1  0
131132  2  0
132133  1  0
132134  1  0
134135  2  0
120136  1  0
136137  1  0
119138  1  0
138139  2  3
139140  1  0
140141  2  0
140142  1  0
142143  1  0
143144  1  0
142145  1  0
145146  2  0
145147  1  0
147148  2  0
148149  1  0
147150  1  0
150151  3  0
 11  2  1  0
 52 15  1  0
 95 53  1  0
137100  1  0
148139  1  0
 24 18  1  0
 31 25  1  0
 51 32  2  0
 62 55  1  0
 94 63  2  0
109103  1  0
116110  1  0
136117  2  0
 43 37  1  0
 50 44  1  0
 93 65  2  0
128122  1  0
135129  1  0
 91 66  2  0
 71 67  2  0
 90 72  2  0
 88 73  2  0
 87 75  2  0
 84 77  1  0
  1152  1  0
  6153  1  0
  6154  1  0
  7155  1  0
  7156  1  0
  7157  1  0
 12158  1  0
 12159  1  0
 12160  1  0
 19161  1  0
 20162  1  0
 22163  1  0
 22164  1  0
 22165  1  0
 23166  1  0
 24167  1  0
 26168  1  0
 27169  1  0
 29170  1  0
 29171  1  0
 29172  1  0
 30173  1  0
 31174  1  0
 38175  1  0
 39176  1  0
 41177  1  0
 41178  1  0
 41179  1  0
 42180  1  0
 43181  1  0
 45182  1  0
 46183  1  0
 48184  1  0
 48185  1  0
 48186  1  0
 49187  1  0
 50188  1  0
 56189  1  0
 57190  1  0
 58191  1  0
 60192  1  0
 60193  1  0
 61194  1  0
 61195  1  0
 61196  1  0
 62197  1  0
 78198  1  0
 79199  1  0
 80200  1  0
 82201  1  0
 82202  1  0
 83203  1  0
 83204  1  0
 83205  1  0
 84206  1  0
 96207  1  0
 96208  1  0
 97209  1  0
 97210  1  0
 97211  1  0
 98212  1  0
 98213  1  0
 99214  1  0
 99215  1  0
 99216  1  0
104217  1  0
105218  1  0
107219  1  0
107220  1  0
107221  1  0
108222  1  0
109223  1  0
111224  1  0
112225  1  0
114226  1  0
114227  1  0
114228  1  0
115229  1  0
116230  1  0
123231  1  0
124232  1  0
126233  1  0
126234  1  0
126235  1  0
127236  1  0
128237  1  0
130238  1  0
131239  1  0
133240  1  0
133241  1  0
133242  1  0
134243  1  0
135244  1  0
138245  1  0
143246  1  0
143247  1  0
144248  1  0
144249  1  0
144250  1  0
149251  1  0
149252  1  0
149253  1  0
M  END

