
     RDKit          3D

149164  0  0  0  0  0  0  0  0999 V2000
   -5.6859   -6.3334    7.6494 C   0  0  0  0  0  0  0  0  0  0  0  0
   -5.0971   -5.2529    8.2178 C   0  0  0  0  0  0  0  0  0  0  0  0
   -4.2605   -4.3073    7.4308 C   0  0  0  0  0  0  0  0  0  0  0  0
   -4.4800   -4.1209    6.2022 O   0  0  0  0  0  0  0  0  0  0  0  0
   -3.2181   -3.5749    8.0899 N   0  0  0  0  0  0  0  0  0  0  0  0
   -2.2126   -2.8424    7.3052 C   0  0  0  0  0  0  0  0  0  0  0  0
   -1.1217   -3.7904    6.8198 C   0  0  0  0  0  0  0  0  0  0  0  0
   -3.1194   -3.6602    9.5229 C   0  0  0  0  0  0  0  0  0  0  0  0
   -2.1207   -3.1700   10.1195 O   0  0  0  0  0  0  0  0  0  0  0  0
   -4.2028   -4.3023   10.3078 C   0  0  0  0  0  0  0  0  0  0  0  0
   -5.1829   -5.0098    9.6903 C   0  0  0  0  0  0  0  0  0  0  0  0
   -6.3261   -5.6064   10.4860 C   0  0  0  0  0  0  0  0  0  0  0  0
   -4.1747   -4.1431   11.7460 C   0  0  0  0  0  0  0  0  0  0  0  0
   -4.1484   -4.0137   12.8958 N   0  0  0  0  0  0  0  0  0  0  0  0
   -5.4401   -6.7261    6.2512 C   0  0  0  0  0  0  0  0  0  0  0  0
   -4.1633   -7.1565    5.8627 C   0  0  0  0  0  0  0  0  0  0  0  0
   -3.1984   -7.3835    6.7915 F   0  0  0  0  0  0  0  0  0  0  0  0
   -3.8407   -7.2488    4.5092 C   0  0  0  0  0  0  0  0  0  0  0  0
   -4.7923   -6.9239    3.5283 C   0  0  0  0  0  0  0  0  0  0  0  0
   -6.0986   -6.5950    3.9224 C   0  0  0  0  0  0  0  0  0  0  0  0
   -6.4244   -6.5053    5.2793 C   0  0  0  0  0  0  0  0  0  0  0  0
   -4.3482   -6.6415    2.1501 C   0  0  0  0  0  0  0  0  0  0  0  0
   -3.3264   -7.3240    1.4533 C   0  0  0  0  0  0  0  0  0  0  0  0
   -2.8412   -8.6747    1.8076 C   0  0  0  0  0  0  0  0  0  0  0  0
   -1.4710   -8.9322    1.9825 C   0  0  0  0  0  0  0  0  0  0  0  0
   -1.0334  -10.2151    2.3157 C   0  0  0  0  0  0  0  0  0  0  0  0
   -1.9561  -11.2512    2.4832 C   0  0  0  0  0  0  0  0  0  0  0  0
   -3.3303  -11.0048    2.3402 C   0  0  0  0  0  0  0  0  0  0  0  0
   -4.3261  -12.1229    2.4896 C   0  0  0  0  0  0  0  0  0  0  0  0
   -4.6719  -12.7215    1.1304 C   0  0  0  0  0  0  0  0  0  0  0  0
   -3.7661   -9.7148    1.9979 C   0  0  0  0  0  0  0  0  0  0  0  0
   -2.7836   -6.5189    0.4436 C   0  0  0  0  0  0  0  0  0  0  0  0
   -1.3273   -6.6087   -0.4232 S   0  0  0  0  0  0  0  0  0  0  0  0
   -1.4647   -5.0017   -0.9496 C   0  0  0  0  0  0  0  0  0  0  0  0
   -0.5247   -4.0236   -1.1441 C   0  0  0  0  0  0  0  0  0  0  0  0
    0.8767   -4.1240   -1.1318 C   0  0  0  0  0  0  0  0  0  0  0  0
    1.6514   -2.9528   -0.8678 C   0  0  0  0  0  0  0  0  0  0  0  0
    2.9999   -3.0964   -0.8417 N   0  0  0  0  0  0  0  0  0  0  0  0
    3.1096   -4.7250   -1.1286 S   0  0  0  0  0  0  0  0  0  0  0  0
    1.5587   -5.2840   -1.2974 N   0  0  0  0  0  0  0  0  0  0  0  0
    0.9826   -1.7430   -0.6599 C   0  0  0  0  0  0  0  0  0  0  0  0
    1.4280   -0.4574   -0.5513 C   0  0  0  0  0  0  0  0  0  0  0  0
    2.8996    0.3697   -0.6914 S   0  0  0  0  0  0  0  0  0  0  0  0
    2.0757    1.8470   -0.9263 C   0  0  0  0  0  0  0  0  0  0  0  0
    2.4929    3.1361   -1.2648 C   0  0  0  0  0  0  0  0  0  0  0  0
    3.9031    3.5858   -1.3291 C   0  0  0  0  0  0  0  0  0  0  0  0
    4.8956    2.7880   -1.9232 C   0  0  0  0  0  0  0  0  0  0  0  0
    6.2243    3.2187   -1.9455 C   0  0  0  0  0  0  0  0  0  0  0  0
    6.5741    4.4558   -1.3973 C   0  0  0  0  0  0  0  0  0  0  0  0
    5.5917    5.2763   -0.8214 C   0  0  0  0  0  0  0  0  0  0  0  0
    5.9645    6.5990   -0.2065 C   0  0  0  0  0  0  0  0  0  0  0  0
    6.2301    6.4494    1.2895 C   0  0  0  0  0  0  0  0  0  0  0  0
    4.2611    4.8305   -0.7813 C   0  0  0  0  0  0  0  0  0  0  0  0
    1.3819    3.9597   -1.5317 C   0  0  0  0  0  0  0  0  0  0  0  0
   -0.0676    3.0832   -1.3539 S   0  0  0  0  0  0  0  0  0  0  0  0
    0.7151    1.6671   -0.9212 C   0  0  0  0  0  0  0  0  0  0  0  0
    0.3463    0.3520   -0.6923 C   0  0  0  0  0  0  0  0  0  0  0  0
   -0.8060   -0.3377   -0.8789 N   0  0  0  0  0  0  0  0  0  0  0  0
   -0.4060   -1.6404   -0.7584 C   0  0  0  0  0  0  0  0  0  0  0  0
   -1.1761   -2.8137   -0.8689 C   0  0  0  0  0  0  0  0  0  0  0  0
   -2.4209   -3.0361   -0.3420 N   0  0  0  0  0  0  0  0  0  0  0  0
   -2.5771   -4.3857   -0.4394 C   0  0  0  0  0  0  0  0  0  0  0  0
   -3.3353   -5.2661    0.3340 C   0  0  0  0  0  0  0  0  0  0  0  0
   -4.5296   -5.0845    1.4905 S   0  0  0  0  0  0  0  0  0  0  0  0
   -3.0619   -2.2013    0.6890 C   0  0  0  0  0  0  0  0  0  0  0  0
   -2.3660   -2.3656    2.0422 C   0  0  0  0  0  0  0  0  0  0  0  0
   -1.9500    0.1417   -1.6717 C   0  0  0  0  0  0  0  0  0  0  0  0
   -1.5814    0.2461   -3.1517 C   0  0  0  0  0  0  0  0  0  0  0  0
    1.4582    5.2023   -2.2993 C   0  0  0  0  0  0  0  0  0  0  0  0
    0.9608    6.4463   -1.9446 C   0  0  0  0  0  0  0  0  0  0  0  0
    1.1796    7.4224   -2.9344 C   0  0  0  0  0  0  0  0  0  0  0  0
    0.5401    9.0922   -2.7799 S   0  0  0  0  0  0  0  0  0  0  0  0
    2.0080    9.7610   -1.9268 C   0  0  0  0  0  0  0  0  0  0  0  0
    3.1022   10.1248   -2.9230 C   0  0  0  0  0  0  0  0  0  0  0  0
    1.8541    6.9441   -4.0649 C   0  0  0  0  0  0  0  0  0  0  0  0
    2.1187    5.2977   -3.8318 S   0  0  0  0  0  0  0  0  0  0  0  0
    2.0293    7.6655   -5.3475 C   0  0  0  0  0  0  0  0  0  0  0  0
    2.8933    7.2927   -6.3148 C   0  0  0  0  0  0  0  0  0  0  0  0
    4.0928    6.4703   -6.1084 C   0  0  0  0  0  0  0  0  0  0  0  0
    4.6164    6.1721   -5.0015 O   0  0  0  0  0  0  0  0  0  0  0  0
    4.7191    6.2365   -7.3841 C   0  0  0  0  0  0  0  0  0  0  0  0
    5.8272    5.4323   -7.6452 C   0  0  0  0  0  0  0  0  0  0  0  0
    6.2823    5.3233   -8.9674 C   0  0  0  0  0  0  0  0  0  0  0  0
    7.3849    4.5128   -9.2754 C   0  0  0  0  0  0  0  0  0  0  0  0
    7.8324    4.4089  -10.5955 C   0  0  0  0  0  0  0  0  0  0  0  0
    7.1810    5.1062  -11.6172 C   0  0  0  0  0  0  0  0  0  0  0  0
    7.6162    4.9925  -12.8963 F   0  0  0  0  0  0  0  0  0  0  0  0
    6.0842    5.9222  -11.3235 C   0  0  0  0  0  0  0  0  0  0  0  0
    5.6212    6.0397  -10.0035 C   0  0  0  0  0  0  0  0  0  0  0  0
    4.5080    6.8511   -9.7036 C   0  0  0  0  0  0  0  0  0  0  0  0
    4.0488    6.9320   -8.3735 C   0  0  0  0  0  0  0  0  0  0  0  0
    2.8641    7.6382   -7.7790 C   0  0  0  0  0  0  0  0  0  0  0  0
    1.8816    8.2943   -8.4550 C   0  0  0  0  0  0  0  0  0  0  0  0
    1.8803    8.4502   -9.8832 C   0  0  0  0  0  0  0  0  0  0  0  0
    1.8391    8.5655  -11.0370 N   0  0  0  0  0  0  0  0  0  0  0  0
    0.6867    8.7923   -7.8257 C   0  0  0  0  0  0  0  0  0  0  0  0
   -0.2843    9.1916   -7.3361 N   0  0  0  0  0  0  0  0  0  0  0  0
   -6.2959   -7.0056    8.2371 H   0  0  0  0  0  0  0  0  0  0  0  0
   -2.6881   -2.3486    6.4298 H   0  0  0  0  0  0  0  0  0  0  0  0
   -1.7519   -2.0333    7.9116 H   0  0  0  0  0  0  0  0  0  0  0  0
   -0.6311   -4.2830    7.6851 H   0  0  0  0  0  0  0  0  0  0  0  0
   -0.3565   -3.2197    6.2507 H   0  0  0  0  0  0  0  0  0  0  0  0
   -1.5553   -4.5670    6.1537 H   0  0  0  0  0  0  0  0  0  0  0  0
   -6.5982   -4.9715   11.3557 H   0  0  0  0  0  0  0  0  0  0  0  0
   -7.2429   -5.6774    9.8639 H   0  0  0  0  0  0  0  0  0  0  0  0
   -6.0456   -6.6174   10.8449 H   0  0  0  0  0  0  0  0  0  0  0  0
   -2.8161   -7.4653    4.2374 H   0  0  0  0  0  0  0  0  0  0  0  0
   -6.8413   -6.3299    3.1809 H   0  0  0  0  0  0  0  0  0  0  0  0
   -7.4126   -6.1754    5.5687 H   0  0  0  0  0  0  0  0  0  0  0  0
   -0.7426   -8.1384    1.8837 H   0  0  0  0  0  0  0  0  0  0  0  0
    0.0236  -10.4082    2.4460 H   0  0  0  0  0  0  0  0  0  0  0  0
   -1.6005  -12.2434    2.7338 H   0  0  0  0  0  0  0  0  0  0  0  0
   -5.2535  -11.7427    2.9697 H   0  0  0  0  0  0  0  0  0  0  0  0
   -3.9160  -12.9207    3.1463 H   0  0  0  0  0  0  0  0  0  0  0  0
   -3.7627  -13.1480    0.6551 H   0  0  0  0  0  0  0  0  0  0  0  0
   -5.1025  -11.9418    0.4648 H   0  0  0  0  0  0  0  0  0  0  0  0
   -5.4216  -13.5297    1.2585 H   0  0  0  0  0  0  0  0  0  0  0  0
   -4.8249   -9.5235    1.8651 H   0  0  0  0  0  0  0  0  0  0  0  0
    4.6437    1.8391   -2.3768 H   0  0  0  0  0  0  0  0  0  0  0  0
    6.9839    2.5936   -2.3967 H   0  0  0  0  0  0  0  0  0  0  0  0
    7.6098    4.7691   -1.4174 H   0  0  0  0  0  0  0  0  0  0  0  0
    5.1459    7.3353   -0.3616 H   0  0  0  0  0  0  0  0  0  0  0  0
    6.8735    7.0089   -0.6979 H   0  0  0  0  0  0  0  0  0  0  0  0
    5.3213    6.0799    1.8102 H   0  0  0  0  0  0  0  0  0  0  0  0
    7.0642    5.7380    1.4623 H   0  0  0  0  0  0  0  0  0  0  0  0
    6.5089    7.4343    1.7176 H   0  0  0  0  0  0  0  0  0  0  0  0
    3.5085    5.4474   -0.3033 H   0  0  0  0  0  0  0  0  0  0  0  0
   -4.1372   -2.4564    0.7705 H   0  0  0  0  0  0  0  0  0  0  0  0
   -3.0220   -1.1320    0.4329 H   0  0  0  0  0  0  0  0  0  0  0  0
   -1.3232   -1.9883    1.9840 H   0  0  0  0  0  0  0  0  0  0  0  0
   -2.9108   -1.7859    2.8174 H   0  0  0  0  0  0  0  0  0  0  0  0
   -2.3365   -3.4303    2.3480 H   0  0  0  0  0  0  0  0  0  0  0  0
   -2.8040   -0.5586   -1.6078 H   0  0  0  0  0  0  0  0  0  0  0  0
   -2.2851    1.1314   -1.2908 H   0  0  0  0  0  0  0  0  0  0  0  0
   -1.2693   -0.7480   -3.5359 H   0  0  0  0  0  0  0  0  0  0  0  0
   -0.7534    0.9650   -3.3061 H   0  0  0  0  0  0  0  0  0  0  0  0
   -2.4610    0.5943   -3.7312 H   0  0  0  0  0  0  0  0  0  0  0  0
    0.4389    6.6404   -1.0183 H   0  0  0  0  0  0  0  0  0  0  0  0
    1.7055   10.6794   -1.3800 H   0  0  0  0  0  0  0  0  0  0  0  0
    2.3998    9.0326   -1.1866 H   0  0  0  0  0  0  0  0  0  0  0  0
    2.7170   10.8348   -3.6839 H   0  0  0  0  0  0  0  0  0  0  0  0
    3.9500   10.6012   -2.3840 H   0  0  0  0  0  0  0  0  0  0  0  0
    3.4864    9.2129   -3.4262 H   0  0  0  0  0  0  0  0  0  0  0  0
    1.3726    8.4998   -5.4959 H   0  0  0  0  0  0  0  0  0  0  0  0
    6.3107    4.8919   -6.8405 H   0  0  0  0  0  0  0  0  0  0  0  0
    7.9006    3.9612   -8.4985 H   0  0  0  0  0  0  0  0  0  0  0  0
    8.6842    3.7816  -10.8287 H   0  0  0  0  0  0  0  0  0  0  0  0
    5.5892    6.4519  -12.1298 H   0  0  0  0  0  0  0  0  0  0  0  0
    4.0419    7.3947  -10.5047 H   0  0  0  0  0  0  0  0  0  0  0  0
  1  2  2  3
  2  3  1  0
  3  4  2  0
  3  5  1  0
  5  6  1  0
  6  7  1  0
  5  8  1  0
  8  9  2  0
  8 10  1  0
 10 11  2  0
 11 12  1  0
 10 13  1  0
 13 14  3  0
  1 15  1  0
 15 16  2  0
 16 17  1  0
 16 18  1  0
 18 19  2  0
 19 20  1  0
 20 21  2  0
 19 22  1  0
 22 23  2  0
 23 24  1  0
 24 25  2  0
 25 26  1  0
 26 27  2  0
 27 28  1  0
 28 29  1  0
 29 30  1  0
 28 31  2  0
 23 32  1  0
 32 33  1  0
 33 34  1  0
 34 35  1  0
 35 36  1  0
 36 37  1  0
 37 38  2  0
 38 39  1  0
 39 40  1  0
 37 41  1  0
 41 42  1  0
 42 43  1  0
 43 44  1  0
 44 45  1  0
 45 46  1  0
 46 47  2  0
 47 48  1  0
 48 49  2  0
 49 50  1  0
 50 51  1  0
 51 52  1  0
 50 53  2  0
 45 54  2  0
 54 55  1  0
 55 56  1  0
 56 57  1  0
 57 58  1  0
 58 59  1  0
 59 60  1  0
 60 61  1  0
 61 62  1  0
 62 63  1  0
 63 64  1  0
 61 65  1  0
 65 66  1  0
 58 67  1  0
 67 68  1  0
 54 69  1  0
 69 70  2  0
 70 71  1  0
 71 72  1  0
 72 73  1  0
 73 74  1  0
 71 75  2  0
 75 76  1  0
 75 77  1  0
 77 78  2  3
 78 79  1  0
 79 80  2  0
 79 81  1  0
 81 82  2  0
 82 83  1  0
 83 84  2  0
 84 85  1  0
 85 86  2  0
 86 87  1  0
 86 88  1  0
 88 89  2  0
 89 90  1  0
 90 91  2  0
 91 92  1  0
 92 93  2  3
 93 94  1  0
 94 95  3  0
 93 96  1  0
 96 97  3  0
 11  2  1  0
 21 15  1  0
 64 22  1  0
 76 69  1  0
 92 78  1  0
 31 24  1  0
 63 32  2  0
 91 81  1  0
 62 34  2  0
 89 83  1  0
 60 35  2  0
 40 36  2  0
 59 41  2  0
 57 42  2  0
 56 44  2  0
 53 46  1  0
  1 98  1  0
  6 99  1  0
  6100  1  0
  7101  1  0
  7102  1  0
  7103  1  0
 12104  1  0
 12105  1  0
 12106  1  0
 18107  1  0
 20108  1  0
 21109  1  0
 25110  1  0
 26111  1  0
 27112  1  0
 29113  1  0
 29114  1  0
 30115  1  0
 30116  1  0
 30117  1  0
 31118  1  0
 47119  1  0
 48120  1  0
 49121  1  0
 51122  1  0
 51123  1  0
 52124  1  0
 52125  1  0
 52126  1  0
 53127  1  0
 65128  1  0
 65129  1  0
 66130  1  0
 66131  1  0
 66132  1  0
 67133  1  0
 67134  1  0
 68135  1  0
 68136  1  0
 68137  1  0
 70138  1  0
 73139  1  0
 73140  1  0
 74141  1  0
 74142  1  0
 74143  1  0
 77144  1  0
 82145  1  0
 84146  1  0
 85147  1  0
 88148  1  0
 90149  1  0
M  END

