
     RDKit          3D

120129  0  0  0  0  0  0  0  0999 V2000
    8.9828   -4.9576   -2.5311 C   0  0  0  0  0  0  0  0  0  0  0  0
    9.7969   -4.0268   -2.9184 C   0  0  0  0  0  0  0  0  0  0  0  0
   10.1854   -2.7943   -3.2307 C   0  0  0  0  0  0  0  0  0  0  0  0
   10.3633   -1.9873   -2.2064 O   0  0  0  0  0  0  0  0  0  0  0  0
   10.4121   -2.2649   -4.5556 N   0  0  0  0  0  0  0  0  0  0  0  0
   10.7465   -0.9046   -4.8234 C   0  0  0  0  0  0  0  0  0  0  0  0
    9.4013   -0.1275   -5.0096 C   0  0  0  0  0  0  0  0  0  0  0  0
   10.1868   -3.2397   -5.5710 C   0  0  0  0  0  0  0  0  0  0  0  0
   10.1132   -2.9395   -6.7709 O   0  0  0  0  0  0  0  0  0  0  0  0
   10.0363   -4.6899   -5.1563 C   0  0  0  0  0  0  0  0  0  0  0  0
   10.0246   -5.5906   -6.2543 C   0  0  0  0  0  0  0  0  0  0  0  0
   10.0336   -6.3239   -7.1620 N   0  0  0  0  0  0  0  0  0  0  0  0
   10.8003   -4.9916   -3.9244 C   0  0  0  0  0  0  0  0  0  0  0  0
   10.7425   -6.3535   -3.4589 C   0  0  0  0  0  0  0  0  0  0  0  0
    7.6508   -4.2838   -2.2872 C   0  0  0  0  0  0  0  0  0  0  0  0
    6.4784   -4.6673   -2.9968 C   0  0  0  0  0  0  0  0  0  0  0  0
    5.4149   -3.8865   -2.7058 C   0  0  0  0  0  0  0  0  0  0  0  0
    5.3178   -2.8792   -1.9116 C   0  0  0  0  0  0  0  0  0  0  0  0
    7.1486   -2.8519   -1.2659 Se  0  0  0  0  0  2  0  0  0  0  0  0
    4.2768   -1.8955   -1.7396 C   0  0  0  0  0  0  0  0  0  0  0  0
    3.9766   -0.9426   -0.8089 C   0  0  0  0  0  0  0  0  0  0  0  0
    4.9488   -0.7889    0.3505 C   0  0  0  0  0  0  0  0  0  0  0  0
    4.7680   -1.8421    1.3984 C   0  0  0  0  0  0  0  0  0  0  0  0
    2.8295   -0.2065   -1.0392 C   0  0  0  0  0  0  0  0  0  0  0  0
    2.1428   -0.5046   -2.1526 C   0  0  0  0  0  0  0  0  0  0  0  0
    2.9767   -1.7520   -2.9021 S   0  0  0  0  0  0  0  0  0  0  0  0
    0.9641    0.2334   -2.2849 C   0  0  0  0  0  0  0  0  0  0  0  0
   -0.0307    0.1160   -3.2250 C   0  0  0  0  0  0  0  0  0  0  0  0
   -0.1129   -0.5500   -4.3544 N   0  0  0  0  0  0  0  0  0  0  0  0
   -1.3217   -0.2262   -4.8678 N   0  0  0  0  0  0  0  0  0  0  0  0
   -1.7722   -0.7657   -6.1620 C   0  0  0  0  0  0  0  0  0  0  0  0
   -1.2457    0.1068   -7.3067 C   0  0  0  0  0  0  0  0  0  0  0  0
   -1.9827    0.5954   -4.1171 N   0  0  0  0  0  0  0  0  0  0  0  0
   -1.1703    0.8372   -3.0398 C   0  0  0  0  0  0  0  0  0  0  0  0
   -1.2426    1.6210   -1.9190 C   0  0  0  0  0  0  0  0  0  0  0  0
   -2.3266    2.2755   -1.3356 C   0  0  0  0  0  0  0  0  0  0  0  0
   -4.0276    2.4363   -1.4877 S   0  0  0  0  0  0  0  0  0  0  0  0
   -4.3242    3.1536    0.0234 C   0  0  0  0  0  0  0  0  0  0  0  0
   -3.0952    3.2886    0.6101 C   0  0  0  0  0  0  0  0  0  0  0  0
   -3.0326    4.0969    1.8897 C   0  0  0  0  0  0  0  0  0  0  0  0
   -2.9413    5.5907    1.5845 C   0  0  0  0  0  0  0  0  0  0  0  0
   -2.0431    2.8071   -0.1262 C   0  0  0  0  0  0  0  0  0  0  0  0
   -0.6776    2.4677    0.0625 N   0  0  0  0  0  0  0  0  0  0  0  0
    0.0530    3.0391    1.1256 C   0  0  0  0  0  0  0  0  0  0  0  0
    0.5204    4.4693    0.6752 C   0  0  0  0  0  0  0  0  0  0  0  0
   -0.2413    1.7668   -0.9830 C   0  0  0  0  0  0  0  0  0  0  0  0
    0.9637    1.0236   -1.1416 C   0  0  0  0  0  0  0  0  0  0  0  0
    2.0521    0.7796   -0.4010 N   0  0  0  0  0  0  0  0  0  0  0  0
    2.4535    1.2999    0.8640 C   0  0  0  0  0  0  0  0  0  0  0  0
    3.2976    2.5106    0.6470 C   0  0  0  0  0  0  0  0  0  0  0  0
   -5.6663    3.2034    0.7017 C   0  0  0  0  0  0  0  0  0  0  0  0
   -6.9105    3.3265    0.4394 C   0  0  0  0  0  0  0  0  0  0  0  0
   -7.9237    2.8644    1.2089 C   0  0  0  0  0  0  0  0  0  0  0  0
   -7.7521    2.2174    2.3406 C   0  0  0  0  0  0  0  0  0  0  0  0
   -5.7482    2.2664    2.3707 Se  0  0  0  0  0  2  0  0  0  0  0  0
   -8.3472    1.4800    3.4017 C   0  0  0  0  0  0  0  0  0  0  0  0
   -9.2862    1.4507    4.2295 C   0  0  0  0  0  0  0  0  0  0  0  0
  -10.3781    2.3819    4.4563 C   0  0  0  0  0  0  0  0  0  0  0  0
  -10.4990    3.3663    3.6973 O   0  0  0  0  0  0  0  0  0  0  0  0
  -11.3399    2.2569    5.5054 N   0  0  0  0  0  0  0  0  0  0  0  0
  -12.4578    3.1524    5.7135 C   0  0  0  0  0  0  0  0  0  0  0  0
  -11.9807    4.2980    6.5643 C   0  0  0  0  0  0  0  0  0  0  0  0
  -11.2220    1.1297    6.4129 C   0  0  0  0  0  0  0  0  0  0  0  0
  -12.2709    0.9890    7.6774 S   0  0  0  0  0  0  0  0  0  0  0  0
  -10.1782    0.1655    6.2521 N   0  0  0  0  0  0  0  0  0  0  0  0
  -10.0494   -0.9846    7.1522 C   0  0  0  0  0  0  0  0  0  0  0  0
   -9.1977   -0.6706    8.3446 C   0  0  0  0  0  0  0  0  0  0  0  0
   -9.2477    0.3294    5.1964 C   0  0  0  0  0  0  0  0  0  0  0  0
   -8.3690   -0.6045    5.1653 O   0  0  0  0  0  0  0  0  0  0  0  0
    9.1159   -5.9631   -2.3559 H   0  0  0  0  0  0  0  0  0  0  0  0
   11.3429   -0.7899   -5.7707 H   0  0  0  0  0  0  0  0  0  0  0  0
   11.2512   -0.4336   -3.9749 H   0  0  0  0  0  0  0  0  0  0  0  0
    8.7512   -0.5966   -4.2501 H   0  0  0  0  0  0  0  0  0  0  0  0
    8.9969   -0.3918   -5.9996 H   0  0  0  0  0  0  0  0  0  0  0  0
    9.4904    0.9252   -4.8222 H   0  0  0  0  0  0  0  0  0  0  0  0
    8.9269   -4.6802   -4.8164 H   0  0  0  0  0  0  0  0  0  0  0  0
   11.7532   -4.5166   -3.9139 H   0  0  0  0  0  0  0  0  0  0  0  0
    9.8335   -6.9708   -3.7006 H   0  0  0  0  0  0  0  0  0  0  0  0
   11.5739   -6.9841   -3.9528 H   0  0  0  0  0  0  0  0  0  0  0  0
   11.0402   -6.4748   -2.3674 H   0  0  0  0  0  0  0  0  0  0  0  0
    6.5126   -5.4960   -3.6784 H   0  0  0  0  0  0  0  0  0  0  0  0
    4.4224   -4.1684   -3.3009 H   0  0  0  0  0  0  0  0  0  0  0  0
    5.0342    0.1936    0.7756 H   0  0  0  0  0  0  0  0  0  0  0  0
    6.0016   -1.0423   -0.0892 H   0  0  0  0  0  0  0  0  0  0  0  0
    4.1685   -1.4579    2.2585 H   0  0  0  0  0  0  0  0  0  0  0  0
    4.1750   -2.7009    0.9917 H   0  0  0  0  0  0  0  0  0  0  0  0
    5.7303   -2.1602    1.8595 H   0  0  0  0  0  0  0  0  0  0  0  0
   -2.8720   -0.7433   -6.2439 H   0  0  0  0  0  0  0  0  0  0  0  0
   -1.4481   -1.8102   -6.3313 H   0  0  0  0  0  0  0  0  0  0  0  0
   -0.9957   -0.5367   -8.1831 H   0  0  0  0  0  0  0  0  0  0  0  0
   -0.3503    0.6676   -6.9352 H   0  0  0  0  0  0  0  0  0  0  0  0
   -2.0013    0.8465   -7.6460 H   0  0  0  0  0  0  0  0  0  0  0  0
   -4.0500    3.9925    2.3827 H   0  0  0  0  0  0  0  0  0  0  0  0
   -2.3319    3.8358    2.6297 H   0  0  0  0  0  0  0  0  0  0  0  0
   -3.9106    6.0843    1.6352 H   0  0  0  0  0  0  0  0  0  0  0  0
   -2.5255    5.7340    0.5661 H   0  0  0  0  0  0  0  0  0  0  0  0
   -2.2725    6.0976    2.3020 H   0  0  0  0  0  0  0  0  0  0  0  0
    0.8125    2.6598    1.6621 H   0  0  0  0  0  0  0  0  0  0  0  0
   -0.7034    3.2793    1.9907 H   0  0  0  0  0  0  0  0  0  0  0  0
    1.4340    4.4713    0.1239 H   0  0  0  0  0  0  0  0  0  0  0  0
    0.5349    5.0799    1.6132 H   0  0  0  0  0  0  0  0  0  0  0  0
   -0.3692    4.8166    0.0703 H   0  0  0  0  0  0  0  0  0  0  0  0
    1.7626    1.2828    1.6671 H   0  0  0  0  0  0  0  0  0  0  0  0
    3.1852    0.5528    1.3695 H   0  0  0  0  0  0  0  0  0  0  0  0
    4.4098    2.3479    0.7340 H   0  0  0  0  0  0  0  0  0  0  0  0
    3.0885    2.9651   -0.3675 H   0  0  0  0  0  0  0  0  0  0  0  0
    3.0844    3.2951    1.3990 H   0  0  0  0  0  0  0  0  0  0  0  0
   -7.1620    3.8798   -0.5551 H   0  0  0  0  0  0  0  0  0  0  0  0
   -9.0127    3.0271    0.8733 H   0  0  0  0  0  0  0  0  0  0  0  0
   -7.6763    0.5189    3.5060 H   0  0  0  0  0  0  0  0  0  0  0  0
  -13.2471    2.5783    6.3154 H   0  0  0  0  0  0  0  0  0  0  0  0
  -12.9121    3.5474    4.7783 H   0  0  0  0  0  0  0  0  0  0  0  0
  -12.5662    4.3371    7.5249 H   0  0  0  0  0  0  0  0  0  0  0  0
  -10.9084    4.2652    6.8287 H   0  0  0  0  0  0  0  0  0  0  0  0
  -12.1343    5.2437    5.9791 H   0  0  0  0  0  0  0  0  0  0  0  0
  -11.0408   -1.2959    7.5248 H   0  0  0  0  0  0  0  0  0  0  0  0
   -9.5094   -1.7892    6.6001 H   0  0  0  0  0  0  0  0  0  0  0  0
   -8.2232   -0.2376    8.1085 H   0  0  0  0  0  0  0  0  0  0  0  0
   -9.0006   -1.5549    8.9776 H   0  0  0  0  0  0  0  0  0  0  0  0
   -9.7035    0.0948    9.0024 H   0  0  0  0  0  0  0  0  0  0  0  0
  1  2  2  3
  2  3  1  0
  3  4  2  0
  3  5  1  0
  5  6  1  0
  6  7  1  0
  5  8  1  0
  8  9  2  0
  8 10  1  0
 10 11  1  0
 11 12  3  0
 10 13  1  0
 13 14  1  0
  1 15  1  0
 15 16  2  0
 16 17  1  0
 17 18  2  0
 18 19  1  0
 18 20  1  0
 20 21  2  0
 21 22  1  0
 22 23  1  0
 21 24  1  0
 24 25  2  0
 25 26  1  0
 25 27  1  0
 27 28  1  0
 28 29  2  0
 29 30  1  0
 30 31  1  0
 31 32  1  0
 30 33  1  0
 33 34  2  0
 34 35  1  0
 35 36  1  0
 36 37  1  0
 37 38  1  0
 38 39  2  0
 39 40  1  0
 40 41  1  0
 39 42  1  0
 42 43  1  0
 43 44  1  0
 44 45  1  0
 43 46  1  0
 46 47  1  0
 47 48  1  0
 48 49  1  0
 49 50  1  0
 38 51  1  0
 51 52  2  0
 52 53  1  0
 53 54  2  0
 54 55  1  0
 54 56  1  0
 56 57  2  3
 57 58  1  0
 58 59  2  0
 58 60  1  0
 60 61  1  0
 61 62  1  0
 60 63  1  0
 63 64  2  0
 63 65  1  0
 65 66  1  0
 66 67  1  0
 65 68  1  0
 68 69  2  0
 13  2  1  0
 19 15  1  0
 26 20  1  0
 47 27  2  0
 55 51  1  0
 68 57  1  0
 48 24  1  0
 34 28  1  0
 46 35  2  0
 42 36  2  0
  1 70  1  0
  6 71  1  0
  6 72  1  0
  7 73  1  0
  7 74  1  0
  7 75  1  0
 10 76  1  0
 13 77  1  0
 14 78  1  0
 14 79  1  0
 14 80  1  0
 16 81  1  0
 17 82  1  0
 22 83  1  0
 22 84  1  0
 23 85  1  0
 23 86  1  0
 23 87  1  0
 31 88  1  0
 31 89  1  0
 32 90  1  0
 32 91  1  0
 32 92  1  0
 40 93  1  0
 40 94  1  0
 41 95  1  0
 41 96  1  0
 41 97  1  0
 44 98  1  0
 44 99  1  0
 45100  1  0
 45101  1  0
 45102  1  0
 49103  1  0
 49104  1  0
 50105  1  0
 50106  1  0
 50107  1  0
 52108  1  0
 53109  1  0
 56110  1  0
 61111  1  0
 61112  1  0
 62113  1  0
 62114  1  0
 62115  1  0
 66116  1  0
 66117  1  0
 67118  1  0
 67119  1  0
 67120  1  0
M  END

