
     RDKit          3D

209228  0  0  0  0  0  0  0  0999 V2000
   -8.0103    1.6195    0.4800 C   0  0  0  0  0  0  0  0  0  0  0  0
   -8.9756    2.1522   -0.2909 C   0  0  0  0  0  0  0  0  0  0  0  0
  -10.4042    2.2620    0.1374 C   0  0  0  0  0  0  0  0  0  0  0  0
  -10.8587    1.3971    0.9243 O   0  0  0  0  0  0  0  0  0  0  0  0
  -11.2589    3.2295   -0.4707 N   0  0  0  0  0  0  0  0  0  0  0  0
  -12.6369    3.4829   -0.0584 C   0  0  0  0  0  0  0  0  0  0  0  0
  -12.6475    4.2669    1.2444 C   0  0  0  0  0  0  0  0  0  0  0  0
  -10.5979    4.1421   -1.3799 C   0  0  0  0  0  0  0  0  0  0  0  0
  -10.9023    5.3676   -1.3294 O   0  0  0  0  0  0  0  0  0  0  0  0
   -9.6557    3.5880   -2.3699 C   0  0  0  0  0  0  0  0  0  0  0  0
  -10.3891    3.2585   -3.6069 C   0  0  0  0  0  0  0  0  0  0  0  0
  -10.9812    3.0155   -4.5625 N   0  0  0  0  0  0  0  0  0  0  0  0
   -8.8380    2.3624   -1.8247 C   0  0  0  0  0  0  0  0  0  0  0  0
   -7.3915    2.3952   -2.4236 C   0  0  0  0  0  0  0  0  0  0  0  0
   -7.5345    2.1547    1.8046 C   0  0  0  0  0  0  0  0  0  0  0  0
   -8.0621    2.1085    3.0832 C   0  0  0  0  0  0  0  0  0  0  0  0
   -7.0451    2.3686    4.0557 C   0  0  0  0  0  0  0  0  0  0  0  0
   -5.8503    2.7046    3.3096 C   0  0  0  0  0  0  0  0  0  0  0  0
   -4.6982    2.8880    3.7454 O   0  0  0  0  0  0  0  0  0  0  0  0
   -6.1686    2.6271    1.9402 N   0  0  0  0  0  0  0  0  0  0  0  0
   -5.1780    2.8310    0.8797 C   0  0  0  0  0  0  0  0  0  0  0  0
   -7.2573    1.7141    5.2242 C   0  0  0  0  0  0  0  0  0  0  0  0
   -8.5541    1.1084    5.1465 N   0  0  0  0  0  0  0  0  0  0  0  0
   -9.3728    0.5925    6.2592 C   0  0  0  0  0  0  0  0  0  0  0  0
   -9.0411    1.2955    3.8125 C   0  0  0  0  0  0  0  0  0  0  0  0
   -9.9897    0.6479    3.3155 O   0  0  0  0  0  0  0  0  0  0  0  0
   -6.1327    1.0685    5.9691 C   0  0  0  0  0  0  0  0  0  0  0  0
   -5.5783    1.3322    7.2839 C   0  0  0  0  0  0  0  0  0  0  0  0
   -5.8707    2.5286    8.0943 C   0  0  0  0  0  0  0  0  0  0  0  0
   -6.5364    2.3142    9.2995 C   0  0  0  0  0  0  0  0  0  0  0  0
   -6.6642    3.3549   10.2085 C   0  0  0  0  0  0  0  0  0  0  0  0
   -6.1051    4.6067    9.9525 C   0  0  0  0  0  0  0  0  0  0  0  0
   -5.4247    4.8728    8.7623 C   0  0  0  0  0  0  0  0  0  0  0  0
   -4.6696    6.1896    8.6116 C   0  0  0  0  0  0  0  0  0  0  0  0
   -3.1985    6.0687    9.0191 C   0  0  0  0  0  0  0  0  0  0  0  0
   -5.2926    3.8053    7.8351 C   0  0  0  0  0  0  0  0  0  0  0  0
   -4.3131    0.6460    7.5749 C   0  0  0  0  0  0  0  0  0  0  0  0
   -4.0121   -0.9312    8.1398 S   0  0  0  0  0  0  0  0  0  0  0  0
   -2.7381   -1.5097    7.1271 C   0  0  0  0  0  0  0  0  0  0  0  0
   -1.9038   -2.4599    6.5848 C   0  0  0  0  0  0  0  0  0  0  0  0
   -2.0471   -3.8618    6.4921 C   0  0  0  0  0  0  0  0  0  0  0  0
   -1.2971   -4.5708    5.4645 C   0  0  0  0  0  0  0  0  0  0  0  0
   -1.5774   -5.8793    5.3179 N   0  0  0  0  0  0  0  0  0  0  0  0
   -2.7783   -6.0491    6.4357 S   0  0  0  0  0  0  0  0  0  0  0  0
   -2.9988   -4.5644    7.1507 N   0  0  0  0  0  0  0  0  0  0  0  0
   -0.4476   -3.8477    4.6304 C   0  0  0  0  0  0  0  0  0  0  0  0
    0.3120   -4.2094    3.5114 C   0  0  0  0  0  0  0  0  0  0  0  0
    0.7113   -5.4923    2.4329 S   0  0  0  0  0  0  0  0  0  0  0  0
    1.6158   -4.4612    1.3425 C   0  0  0  0  0  0  0  0  0  0  0  0
    2.2728   -4.5435    0.1190 C   0  0  0  0  0  0  0  0  0  0  0  0
    2.7910   -5.7888   -0.5400 C   0  0  0  0  0  0  0  0  0  0  0  0
    3.4914   -6.7128    0.2487 C   0  0  0  0  0  0  0  0  0  0  0  0
    4.2687   -7.7001   -0.3472 C   0  0  0  0  0  0  0  0  0  0  0  0
    4.3460   -7.7822   -1.7574 C   0  0  0  0  0  0  0  0  0  0  0  0
    3.6425   -6.8763   -2.5409 C   0  0  0  0  0  0  0  0  0  0  0  0
    3.7602   -6.9330   -4.0606 C   0  0  0  0  0  0  0  0  0  0  0  0
    2.9941   -8.1157   -4.6306 C   0  0  0  0  0  0  0  0  0  0  0  0
    2.8166   -5.9186   -1.9372 C   0  0  0  0  0  0  0  0  0  0  0  0
    2.6191   -3.2362   -0.3947 C   0  0  0  0  0  0  0  0  0  0  0  0
    2.2081   -2.0928    0.7873 S   0  0  0  0  0  0  0  0  0  0  0  0
    1.5546   -3.1771    1.8623 C   0  0  0  0  0  0  0  0  0  0  0  0
    0.8764   -3.0639    3.0714 C   0  0  0  0  0  0  0  0  0  0  0  0
    0.6397   -1.9816    3.8162 N   0  0  0  0  0  0  0  0  0  0  0  0
   -0.2316   -2.4286    4.7945 C   0  0  0  0  0  0  0  0  0  0  0  0
   -1.0325   -1.7445    5.6984 C   0  0  0  0  0  0  0  0  0  0  0  0
   -1.5514   -0.4356    5.5470 N   0  0  0  0  0  0  0  0  0  0  0  0
   -2.5342   -0.4164    6.4341 C   0  0  0  0  0  0  0  0  0  0  0  0
   -3.7207    0.4012    6.3308 C   0  0  0  0  0  0  0  0  0  0  0  0
   -4.8292    0.4066    5.0981 S   0  0  0  0  0  0  0  0  0  0  0  0
   -0.9977    0.7951    5.0104 C   0  0  0  0  0  0  0  0  0  0  0  0
    0.0097    1.4175    6.0154 C   0  0  0  0  0  0  0  0  0  0  0  0
    1.6500   -0.9182    3.9686 C   0  0  0  0  0  0  0  0  0  0  0  0
    2.6874   -1.2786    5.0187 C   0  0  0  0  0  0  0  0  0  0  0  0
    3.3564   -2.8558   -1.6138 C   0  0  0  0  0  0  0  0  0  0  0  0
    2.8010   -2.5117   -2.8751 C   0  0  0  0  0  0  0  0  0  0  0  0
    1.3715   -2.3919   -3.1237 N   0  0  0  0  0  0  0  0  0  0  0  0
    0.6926   -1.1394   -2.7676 C   0  0  0  0  0  0  0  0  0  0  0  0
   -0.5479   -1.1065   -2.0970 C   0  0  0  0  0  0  0  0  0  0  0  0
   -1.2012    0.0921   -1.8349 C   0  0  0  0  0  0  0  0  0  0  0  0
   -0.5976    1.3142   -2.1364 C   0  0  0  0  0  0  0  0  0  0  0  0
   -1.2861    2.6064   -1.8339 C   0  0  0  0  0  0  0  0  0  0  0  0
    0.6612    1.3117   -2.7485 C   0  0  0  0  0  0  0  0  0  0  0  0
    1.3063    0.1113   -3.0541 C   0  0  0  0  0  0  0  0  0  0  0  0
    0.7245   -3.4348   -3.8997 C   0  0  0  0  0  0  0  0  0  0  0  0
   -0.4840   -4.0517   -3.5096 C   0  0  0  0  0  0  0  0  0  0  0  0
   -1.1311   -4.9642   -4.3638 C   0  0  0  0  0  0  0  0  0  0  0  0
   -0.5381   -5.3531   -5.5717 C   0  0  0  0  0  0  0  0  0  0  0  0
   -1.2043   -6.3096   -6.5175 C   0  0  0  0  0  0  0  0  0  0  0  0
    0.6921   -4.7965   -5.9239 C   0  0  0  0  0  0  0  0  0  0  0  0
    1.3344   -3.9020   -5.0951 C   0  0  0  0  0  0  0  0  0  0  0  0
    3.8107   -2.2423   -3.8304 C   0  0  0  0  0  0  0  0  0  0  0  0
    3.8819   -1.5829   -5.3836 S   0  0  0  0  0  0  0  0  0  0  0  0
    5.5703   -1.3075   -5.3583 C   0  0  0  0  0  0  0  0  0  0  0  0
    6.0105   -1.5443   -4.1029 C   0  0  0  0  0  0  0  0  0  0  0  0
    7.3514   -1.1839   -3.7149 N   0  0  0  0  0  0  0  0  0  0  0  0
    8.3026   -2.2382   -3.4959 C   0  0  0  0  0  0  0  0  0  0  0  0
    8.5371   -3.3207   -4.3681 C   0  0  0  0  0  0  0  0  0  0  0  0
    9.4546   -4.3246   -4.0314 C   0  0  0  0  0  0  0  0  0  0  0  0
   10.1540   -4.2706   -2.8017 C   0  0  0  0  0  0  0  0  0  0  0  0
   11.1632   -5.3018   -2.4163 C   0  0  0  0  0  0  0  0  0  0  0  0
    9.9189   -3.1791   -1.9494 C   0  0  0  0  0  0  0  0  0  0  0  0
    9.0055   -2.2079   -2.2957 C   0  0  0  0  0  0  0  0  0  0  0  0
    7.5880    0.1047   -3.1498 C   0  0  0  0  0  0  0  0  0  0  0  0
    6.6602    0.6739   -2.2654 C   0  0  0  0  0  0  0  0  0  0  0  0
    6.9726    1.8141   -1.5811 C   0  0  0  0  0  0  0  0  0  0  0  0
    8.2325    2.4392   -1.7701 C   0  0  0  0  0  0  0  0  0  0  0  0
    8.5608    3.6714   -0.9908 C   0  0  0  0  0  0  0  0  0  0  0  0
    9.1183    1.8710   -2.6799 C   0  0  0  0  0  0  0  0  0  0  0  0
    8.8200    0.7190   -3.3965 C   0  0  0  0  0  0  0  0  0  0  0  0
    5.0701   -2.1623   -3.2662 C   0  0  0  0  0  0  0  0  0  0  0  0
    5.0596   -2.5977   -1.6710 S   0  0  0  0  0  0  0  0  0  0  0  0
    6.2533   -0.5738   -6.4428 C   0  0  0  0  0  0  0  0  0  0  0  0
    6.1546    0.7211   -6.7270 C   0  0  0  0  0  0  0  0  0  0  0  0
    5.9184    1.2978   -8.1220 C   0  0  0  0  0  0  0  0  0  0  0  0
    5.1972    0.6600   -8.9122 O   0  0  0  0  0  0  0  0  0  0  0  0
    6.1809    2.7332   -8.3149 N   0  0  0  0  0  0  0  0  0  0  0  0
    5.5244    3.5944   -9.2731 C   0  0  0  0  0  0  0  0  0  0  0  0
    4.3211    4.3577   -8.6301 C   0  0  0  0  0  0  0  0  0  0  0  0
    7.0059    3.3192   -7.2899 C   0  0  0  0  0  0  0  0  0  0  0  0
    7.8419    4.1642   -7.6804 O   0  0  0  0  0  0  0  0  0  0  0  0
    7.0845    2.7051   -5.9925 C   0  0  0  0  0  0  0  0  0  0  0  0
    7.0770    3.6732   -4.9584 C   0  0  0  0  0  0  0  0  0  0  0  0
    7.0409    4.3430   -3.9876 N   0  0  0  0  0  0  0  0  0  0  0  0
    5.9483    1.7178   -5.7181 C   0  0  0  0  0  0  0  0  0  0  0  0
    4.4770    2.2715   -5.6694 C   0  0  0  0  0  0  0  0  0  0  0  0
   -7.2179    1.1616    0.0122 H   0  0  0  0  0  0  0  0  0  0  0  0
  -13.2124    2.5317    0.0630 H   0  0  0  0  0  0  0  0  0  0  0  0
  -13.1979    4.0697   -0.8247 H   0  0  0  0  0  0  0  0  0  0  0  0
  -12.3497    3.6127    2.0757 H   0  0  0  0  0  0  0  0  0  0  0  0
  -13.6559    4.6949    1.4705 H   0  0  0  0  0  0  0  0  0  0  0  0
  -11.9314    5.1062    1.1901 H   0  0  0  0  0  0  0  0  0  0  0  0
   -8.9667    4.4180   -2.6342 H   0  0  0  0  0  0  0  0  0  0  0  0
   -9.2845    1.4622   -2.2386 H   0  0  0  0  0  0  0  0  0  0  0  0
   -7.0069    3.4401   -2.4525 H   0  0  0  0  0  0  0  0  0  0  0  0
   -7.4332    2.0107   -3.4609 H   0  0  0  0  0  0  0  0  0  0  0  0
   -6.6455    1.7456   -1.9203 H   0  0  0  0  0  0  0  0  0  0  0  0
   -5.6715    3.1307   -0.0808 H   0  0  0  0  0  0  0  0  0  0  0  0
   -4.5920    1.8996    0.7523 H   0  0  0  0  0  0  0  0  0  0  0  0
   -4.5036    3.6508    1.1924 H   0  0  0  0  0  0  0  0  0  0  0  0
   -9.6720   -0.4396    6.0543 H   0  0  0  0  0  0  0  0  0  0  0  0
  -10.3051    1.1906    6.3518 H   0  0  0  0  0  0  0  0  0  0  0  0
   -8.8433    0.6425    7.2324 H   0  0  0  0  0  0  0  0  0  0  0  0
   -6.9140    1.3428    9.5959 H   0  0  0  0  0  0  0  0  0  0  0  0
   -7.0730    3.1647   11.1824 H   0  0  0  0  0  0  0  0  0  0  0  0
   -6.1300    5.3682   10.7192 H   0  0  0  0  0  0  0  0  0  0  0  0
   -4.7432    6.6027    7.5816 H   0  0  0  0  0  0  0  0  0  0  0  0
   -5.1146    6.9767    9.2530 H   0  0  0  0  0  0  0  0  0  0  0  0
   -2.5803    6.8072    8.4690 H   0  0  0  0  0  0  0  0  0  0  0  0
   -3.0597    6.2707   10.1008 H   0  0  0  0  0  0  0  0  0  0  0  0
   -2.8255    5.0593    8.7938 H   0  0  0  0  0  0  0  0  0  0  0  0
   -4.7559    3.9475    6.9065 H   0  0  0  0  0  0  0  0  0  0  0  0
    3.5241   -6.6125    1.3222 H   0  0  0  0  0  0  0  0  0  0  0  0
    4.8708   -8.3835    0.2616 H   0  0  0  0  0  0  0  0  0  0  0  0
    4.9956   -8.5101   -2.1940 H   0  0  0  0  0  0  0  0  0  0  0  0
    4.8275   -7.0122   -4.3529 H   0  0  0  0  0  0  0  0  0  0  0  0
    3.3864   -5.9909   -4.5055 H   0  0  0  0  0  0  0  0  0  0  0  0
    2.7878   -7.9392   -5.7067 H   0  0  0  0  0  0  0  0  0  0  0  0
    2.0369   -8.2437   -4.1041 H   0  0  0  0  0  0  0  0  0  0  0  0
    3.5929   -9.0393   -4.5298 H   0  0  0  0  0  0  0  0  0  0  0  0
    2.2420   -5.2356   -2.5439 H   0  0  0  0  0  0  0  0  0  0  0  0
   -1.7912    1.5504    4.8928 H   0  0  0  0  0  0  0  0  0  0  0  0
   -0.6609    0.6895    3.9468 H   0  0  0  0  0  0  0  0  0  0  0  0
    0.9073    0.7569    6.1835 H   0  0  0  0  0  0  0  0  0  0  0  0
   -0.4328    1.6563    7.0005 H   0  0  0  0  0  0  0  0  0  0  0  0
    0.3704    2.3586    5.5921 H   0  0  0  0  0  0  0  0  0  0  0  0
    1.2363    0.0357    4.2034 H   0  0  0  0  0  0  0  0  0  0  0  0
    2.1720   -0.7459    3.0182 H   0  0  0  0  0  0  0  0  0  0  0  0
    2.1994   -1.4374    6.0012 H   0  0  0  0  0  0  0  0  0  0  0  0
    3.4029   -0.4444    5.1287 H   0  0  0  0  0  0  0  0  0  0  0  0
    3.2650   -2.1726    4.7562 H   0  0  0  0  0  0  0  0  0  0  0  0
   -1.0229   -2.0014   -1.7545 H   0  0  0  0  0  0  0  0  0  0  0  0
   -2.1775    0.0840   -1.3564 H   0  0  0  0  0  0  0  0  0  0  0  0
   -2.1212    2.4672   -1.1166 H   0  0  0  0  0  0  0  0  0  0  0  0
   -1.7023    3.0235   -2.7741 H   0  0  0  0  0  0  0  0  0  0  0  0
   -0.5754    3.3397   -1.3888 H   0  0  0  0  0  0  0  0  0  0  0  0
    1.1397    2.2431   -2.9720 H   0  0  0  0  0  0  0  0  0  0  0  0
    2.2701    0.1477   -3.5373 H   0  0  0  0  0  0  0  0  0  0  0  0
   -0.9178   -3.8952   -2.5226 H   0  0  0  0  0  0  0  0  0  0  0  0
   -2.0801   -5.3994   -4.0792 H   0  0  0  0  0  0  0  0  0  0  0  0
   -1.9017   -5.7232   -7.1473 H   0  0  0  0  0  0  0  0  0  0  0  0
   -0.4413   -6.8255   -7.1555 H   0  0  0  0  0  0  0  0  0  0  0  0
   -1.7448   -7.0584   -5.9043 H   0  0  0  0  0  0  0  0  0  0  0  0
    1.2016   -5.0954   -6.8155 H   0  0  0  0  0  0  0  0  0  0  0  0
    2.3244   -3.6593   -5.3915 H   0  0  0  0  0  0  0  0  0  0  0  0
    8.0258   -3.4263   -5.3032 H   0  0  0  0  0  0  0  0  0  0  0  0
    9.6188   -5.1697   -4.6930 H   0  0  0  0  0  0  0  0  0  0  0  0
   12.1619   -4.8411   -2.4545 H   0  0  0  0  0  0  0  0  0  0  0  0
   10.9338   -5.6470   -1.3944 H   0  0  0  0  0  0  0  0  0  0  0  0
   11.1131   -6.1549   -3.1135 H   0  0  0  0  0  0  0  0  0  0  0  0
   10.4668   -3.0896   -0.9943 H   0  0  0  0  0  0  0  0  0  0  0  0
    8.7946   -1.4279   -1.6072 H   0  0  0  0  0  0  0  0  0  0  0  0
    5.7094    0.1702   -2.1234 H   0  0  0  0  0  0  0  0  0  0  0  0
    6.2869    2.1819   -0.8664 H   0  0  0  0  0  0  0  0  0  0  0  0
    8.7084    3.4626    0.0756 H   0  0  0  0  0  0  0  0  0  0  0  0
    9.4630    4.1806   -1.3510 H   0  0  0  0  0  0  0  0  0  0  0  0
    7.7479    4.3899   -1.0673 H   0  0  0  0  0  0  0  0  0  0  0  0
   10.1119    2.2450   -2.7667 H   0  0  0  0  0  0  0  0  0  0  0  0
    9.5606    0.2445   -4.0716 H   0  0  0  0  0  0  0  0  0  0  0  0
    6.6687   -1.1735   -7.2745 H   0  0  0  0  0  0  0  0  0  0  0  0
    6.2072    4.4402   -9.6461 H   0  0  0  0  0  0  0  0  0  0  0  0
    5.2216    3.0873  -10.2691 H   0  0  0  0  0  0  0  0  0  0  0  0
    3.5085    3.6466   -8.3297 H   0  0  0  0  0  0  0  0  0  0  0  0
    4.6562    4.9804   -7.7654 H   0  0  0  0  0  0  0  0  0  0  0  0
    3.9213    5.0650   -9.3837 H   0  0  0  0  0  0  0  0  0  0  0  0
    8.1359    2.3739   -5.8828 H   0  0  0  0  0  0  0  0  0  0  0  0
    6.1587    1.3158   -4.7858 H   0  0  0  0  0  0  0  0  0  0  0  0
    3.8629    1.7006   -6.3483 H   0  0  0  0  0  0  0  0  0  0  0  0
    4.3899    3.3871   -5.9718 H   0  0  0  0  0  0  0  0  0  0  0  0
    3.9073    2.1056   -4.6728 H   0  0  0  0  0  0  0  0  0  0  0  0
  1  2  2  3
  2  3  1  0
  3  4  2  0
  3  5  1  0
  5  6  1  0
  6  7  1  0
  5  8  1  0
  8  9  2  0
  8 10  1  0
 10 11  1  0
 11 12  3  0
 10 13  1  0
 13 14  1  0
  1 15  1  0
 15 16  2  0
 16 17  1  0
 17 18  1  0
 18 19  2  0
 18 20  1  0
 20 21  1  0
 17 22  2  0
 22 23  1  0
 23 24  1  0
 23 25  1  0
 25 26  2  0
 22 27  1  0
 27 28  2  0
 28 29  1  0
 29 30  2  0
 30 31  1  0
 31 32  2  0
 32 33  1  0
 33 34  1  0
 34 35  1  0
 33 36  2  0
 28 37  1  0
 37 38  1  0
 38 39  1  0
 39 40  1  0
 40 41  1  0
 41 42  1  0
 42 43  2  0
 43 44  1  0
 44 45  1  0
 42 46  1  0
 46 47  1  0
 47 48  1  0
 48 49  1  0
 49 50  1  0
 50 51  1  0
 51 52  2  0
 52 53  1  0
 53 54  2  0
 54 55  1  0
 55 56  1  0
 56 57  1  0
 55 58  2  0
 50 59  2  0
 59 60  1  0
 60 61  1  0
 61 62  1  0
 62 63  1  0
 63 64  1  0
 64 65  1  0
 65 66  1  0
 66 67  1  0
 67 68  1  0
 68 69  1  0
 66 70  1  0
 70 71  1  0
 63 72  1  0
 72 73  1  0
 59 74  1  0
 74 75  2  0
 75 76  1  0
 76 77  1  0
 77 78  2  0
 78 79  1  0
 79 80  2  0
 80 81  1  0
 80 82  1  0
 82 83  2  0
 76 84  1  0
 84 85  2  0
 85 86  1  0
 86 87  2  0
 87 88  1  0
 87 89  1  0
 89 90  2  0
 75 91  1  0
 91 92  1  0
 92 93  1  0
 93 94  2  0
 94 95  1  0
 95 96  1  0
 96 97  2  0
 97 98  1  0
 98 99  2  0
 99100  1  0
 99101  1  0
101102  2  0
 95103  1  0
103104  2  0
104105  1  0
105106  2  0
106107  1  0
106108  1  0
108109  2  0
 94110  1  0
110111  1  0
 93112  1  0
112113  2  3
113114  1  0
114115  2  0
114116  1  0
116117  1  0
117118  1  0
116119  1  0
119120  2  0
119121  1  0
121122  1  0
122123  3  0
121124  1  0
124125  1  0
 13  2  1  0
 20 15  1  0
 69 27  1  0
111 74  1  0
124113  1  0
 25 16  1  0
 36 29  1  0
 68 37  2  0
 83 77  1  0
 90 84  1  0
110 91  2  0
 67 39  2  0
102 96  1  0
109103  1  0
 65 40  2  0
 45 41  2  0
 64 46  2  0
 62 47  2  0
 61 49  2  0
 58 51  1  0
  1126  1  0
  6127  1  0
  6128  1  0
  7129  1  0
  7130  1  0
  7131  1  0
 10132  1  0
 13133  1  0
 14134  1  0
 14135  1  0
 14136  1  0
 21137  1  0
 21138  1  0
 21139  1  0
 24140  1  0
 24141  1  0
 24142  1  0
 30143  1  0
 31144  1  0
 32145  1  0
 34146  1  0
 34147  1  0
 35148  1  0
 35149  1  0
 35150  1  0
 36151  1  0
 52152  1  0
 53153  1  0
 54154  1  0
 56155  1  0
 56156  1  0
 57157  1  0
 57158  1  0
 57159  1  0
 58160  1  0
 70161  1  0
 70162  1  0
 71163  1  0
 71164  1  0
 71165  1  0
 72166  1  0
 72167  1  0
 73168  1  0
 73169  1  0
 73170  1  0
 78171  1  0
 79172  1  0
 81173  1  0
 81174  1  0
 81175  1  0
 82176  1  0
 83177  1  0
 85178  1  0
 86179  1  0
 88180  1  0
 88181  1  0
 88182  1  0
 89183  1  0
 90184  1  0
 97185  1  0
 98186  1  0
100187  1  0
100188  1  0
100189  1  0
101190  1  0
102191  1  0
104192  1  0
105193  1  0
107194  1  0
107195  1  0
107196  1  0
108197  1  0
109198  1  0
112199  1  0
117200  1  0
117201  1  0
118202  1  0
118203  1  0
118204  1  0
121205  1  0
124206  1  0
125207  1  0
125208  1  0
125209  1  0
M  END

