
     RDKit          3D

147164  0  0  0  0  0  0  0  0999 V2000
    2.2776   -3.8966    9.1960 C   0  0  0  0  0  0  0  0  0  0  0  0
    2.0967   -2.5824    8.9522 C   0  0  0  0  0  0  0  0  0  0  0  0
    2.3009   -1.9085    7.6392 C   0  0  0  0  0  0  0  0  0  0  0  0
    2.5859   -2.4594    6.5410 O   0  0  0  0  0  0  0  0  0  0  0  0
    2.0887   -0.4900    7.8380 C   0  0  0  0  0  0  0  0  0  0  0  0
    1.7684   -0.2616    9.1386 C   0  0  0  0  0  0  0  0  0  0  0  0
    1.4652    1.3800    9.4007 S   0  0  0  0  0  0  0  0  0  0  0  0
    1.7868    1.7846    7.7799 C   0  0  0  0  0  0  0  0  0  0  0  0
    1.7491    3.0475    7.1899 C   0  0  0  0  0  0  0  0  0  0  0  0
    2.0498    3.1544    5.8216 C   0  0  0  0  0  0  0  0  0  0  0  0
    2.3755    2.0106    5.0698 C   0  0  0  0  0  0  0  0  0  0  0  0
    2.3997    0.7425    5.6770 C   0  0  0  0  0  0  0  0  0  0  0  0
    2.1071    0.6477    7.0400 C   0  0  0  0  0  0  0  0  0  0  0  0
    1.7079   -1.5038    9.9269 C   0  0  0  0  0  0  0  0  0  0  0  0
    1.2744   -1.5996   11.2090 C   0  0  0  0  0  0  0  0  0  0  0  0
    1.0701   -2.8524   11.8847 C   0  0  0  0  0  0  0  0  0  0  0  0
    0.8982   -3.8468   12.4555 N   0  0  0  0  0  0  0  0  0  0  0  0
    0.9418   -0.4229   11.9753 C   0  0  0  0  0  0  0  0  0  0  0  0
    0.6801    0.5171   12.6027 N   0  0  0  0  0  0  0  0  0  0  0  0
    2.5256   -4.8531    8.1079 C   0  0  0  0  0  0  0  0  0  0  0  0
    3.8189   -5.0436    7.5984 C   0  0  0  0  0  0  0  0  0  0  0  0
    4.8895   -4.4695    8.2067 F   0  0  0  0  0  0  0  0  0  0  0  0
    3.9985   -5.7263    6.3918 C   0  0  0  0  0  0  0  0  0  0  0  0
    2.8903   -6.2365    5.6923 C   0  0  0  0  0  0  0  0  0  0  0  0
    1.6036   -6.1266    6.2603 C   0  0  0  0  0  0  0  0  0  0  0  0
    0.4963   -6.5253    5.5830 F   0  0  0  0  0  0  0  0  0  0  0  0
    1.4335   -5.4546    7.4709 C   0  0  0  0  0  0  0  0  0  0  0  0
    3.0376   -6.5513    4.2552 C   0  0  0  0  0  0  0  0  0  0  0  0
    2.3054   -7.5141    3.5257 C   0  0  0  0  0  0  0  0  0  0  0  0
    1.6685   -8.7126    4.1319 C   0  0  0  0  0  0  0  0  0  0  0  0
    2.3919   -9.4922    5.0518 C   0  0  0  0  0  0  0  0  0  0  0  0
    1.8203  -10.6349    5.6180 C   0  0  0  0  0  0  0  0  0  0  0  0
    0.5230  -11.0165    5.2706 C   0  0  0  0  0  0  0  0  0  0  0  0
   -0.2148  -10.2510    4.3534 C   0  0  0  0  0  0  0  0  0  0  0  0
   -1.6213  -10.6459    3.9876 C   0  0  0  0  0  0  0  0  0  0  0  0
   -2.6363   -9.7964    4.7458 C   0  0  0  0  0  0  0  0  0  0  0  0
    0.3558   -9.0916    3.8037 C   0  0  0  0  0  0  0  0  0  0  0  0
    2.2415   -7.1719    2.1642 C   0  0  0  0  0  0  0  0  0  0  0  0
    1.1346   -7.5951    0.9490 S   0  0  0  0  0  0  0  0  0  0  0  0
    1.5686   -6.2732   -0.0199 C   0  0  0  0  0  0  0  0  0  0  0  0
    0.8054   -5.4277   -0.7863 C   0  0  0  0  0  0  0  0  0  0  0  0
   -0.5576   -5.5474   -1.1149 C   0  0  0  0  0  0  0  0  0  0  0  0
   -1.2976   -4.3716   -1.4402 C   0  0  0  0  0  0  0  0  0  0  0  0
   -2.6178   -4.5266   -1.7117 N   0  0  0  0  0  0  0  0  0  0  0  0
   -2.7543   -6.1648   -1.5032 S   0  0  0  0  0  0  0  0  0  0  0  0
   -1.2483   -6.7148   -1.0844 N   0  0  0  0  0  0  0  0  0  0  0  0
   -0.6301   -3.1487   -1.4700 C   0  0  0  0  0  0  0  0  0  0  0  0
   -1.0411   -1.9054   -1.8477 C   0  0  0  0  0  0  0  0  0  0  0  0
   -2.4394   -1.1444   -2.4311 S   0  0  0  0  0  0  0  0  0  0  0  0
   -1.5410    0.2513   -2.8382 C   0  0  0  0  0  0  0  0  0  0  0  0
   -1.8780    1.4739   -3.4259 C   0  0  0  0  0  0  0  0  0  0  0  0
   -3.2688    1.9100   -3.6925 C   0  0  0  0  0  0  0  0  0  0  0  0
   -3.6937    3.1885   -3.2889 C   0  0  0  0  0  0  0  0  0  0  0  0
   -5.0030    3.6036   -3.5302 C   0  0  0  0  0  0  0  0  0  0  0  0
   -5.9117    2.7437   -4.1548 C   0  0  0  0  0  0  0  0  0  0  0  0
   -5.5093    1.4571   -4.5517 C   0  0  0  0  0  0  0  0  0  0  0  0
   -6.5073    0.5107   -5.1676 C   0  0  0  0  0  0  0  0  0  0  0  0
   -7.3165   -0.1924   -4.0845 C   0  0  0  0  0  0  0  0  0  0  0  0
   -4.1863    1.0459   -4.3165 C   0  0  0  0  0  0  0  0  0  0  0  0
   -0.7231    2.2725   -3.5999 C   0  0  0  0  0  0  0  0  0  0  0  0
    0.6493    1.4583   -2.9946 S   0  0  0  0  0  0  0  0  0  0  0  0
   -0.2097    0.0970   -2.5323 C   0  0  0  0  0  0  0  0  0  0  0  0
    0.0667   -1.1275   -1.9356 C   0  0  0  0  0  0  0  0  0  0  0  0
    1.2013   -1.7896   -1.5949 N   0  0  0  0  0  0  0  0  0  0  0  0
    0.7446   -3.0362   -1.2318 C   0  0  0  0  0  0  0  0  0  0  0  0
    1.4478   -4.1758   -0.7538 C   0  0  0  0  0  0  0  0  0  0  0  0
    2.4952   -4.2102    0.1347 N   0  0  0  0  0  0  0  0  0  0  0  0
    2.5283   -5.4998    0.5730 C   0  0  0  0  0  0  0  0  0  0  0  0
    2.9092   -6.0213    1.8153 C   0  0  0  0  0  0  0  0  0  0  0  0
    3.5843   -5.3501    3.1908 S   0  0  0  0  0  0  0  0  0  0  0  0
    3.0913   -3.0778    0.8553 C   0  0  0  0  0  0  0  0  0  0  0  0
    2.0941   -2.4514    1.8321 C   0  0  0  0  0  0  0  0  0  0  0  0
    2.5398   -1.4524   -2.1010 C   0  0  0  0  0  0  0  0  0  0  0  0
    3.1474   -0.2543   -1.3588 C   0  0  0  0  0  0  0  0  0  0  0  0
   -0.6513    3.5552   -4.3214 C   0  0  0  0  0  0  0  0  0  0  0  0
   -1.4151    3.8912   -5.4351 C   0  0  0  0  0  0  0  0  0  0  0  0
   -1.0700    5.1294   -5.9881 C   0  0  0  0  0  0  0  0  0  0  0  0
   -1.7529    5.7135   -7.5476 S   0  0  0  0  0  0  0  0  0  0  0  0
   -3.4629    5.9873   -6.9380 C   0  0  0  0  0  0  0  0  0  0  0  0
   -3.5472    7.1822   -5.9945 C   0  0  0  0  0  0  0  0  0  0  0  0
   -0.0334    5.7715   -5.3143 C   0  0  0  0  0  0  0  0  0  0  0  0
    0.4886    4.7691   -4.0669 S   0  0  0  0  0  0  0  0  0  0  0  0
    0.7489    6.8804   -5.8650 C   0  0  0  0  0  0  0  0  0  0  0  0
    0.4829    8.1694   -5.6036 C   0  0  0  0  0  0  0  0  0  0  0  0
   -0.5728    8.6531   -4.6817 C   0  0  0  0  0  0  0  0  0  0  0  0
   -1.1656    7.9851   -3.7986 O   0  0  0  0  0  0  0  0  0  0  0  0
   -0.7057   10.0816   -4.8915 C   0  0  0  0  0  0  0  0  0  0  0  0
    0.2201   10.4946   -5.7996 C   0  0  0  0  0  0  0  0  0  0  0  0
   -0.0394   12.1105   -6.2244 S   0  0  0  0  0  0  0  0  0  0  0  0
   -1.3716   12.2668   -5.1818 C   0  0  0  0  0  0  0  0  0  0  0  0
   -2.1984   13.3723   -5.0116 C   0  0  0  0  0  0  0  0  0  0  0  0
   -3.3003   13.2547   -4.1465 C   0  0  0  0  0  0  0  0  0  0  0  0
   -3.5569   12.0437   -3.4709 C   0  0  0  0  0  0  0  0  0  0  0  0
   -2.7171   10.9368   -3.6580 C   0  0  0  0  0  0  0  0  0  0  0  0
   -1.6229   11.0622   -4.5208 C   0  0  0  0  0  0  0  0  0  0  0  0
    1.0519    9.3826   -6.2924 C   0  0  0  0  0  0  0  0  0  0  0  0
    2.0950    9.4994   -7.1478 C   0  0  0  0  0  0  0  0  0  0  0  0
    2.4807   10.7824   -7.6782 C   0  0  0  0  0  0  0  0  0  0  0  0
    2.7949   11.8110   -8.1062 N   0  0  0  0  0  0  0  0  0  0  0  0
    2.9095    8.3883   -7.5588 C   0  0  0  0  0  0  0  0  0  0  0  0
    3.5735    7.5025   -7.9077 N   0  0  0  0  0  0  0  0  0  0  0  0
    2.1575   -4.3157   10.1795 H   0  0  0  0  0  0  0  0  0  0  0  0
    1.5065    3.9303    7.7717 H   0  0  0  0  0  0  0  0  0  0  0  0
    2.0381    4.1263    5.3447 H   0  0  0  0  0  0  0  0  0  0  0  0
    2.6022    2.1094    4.0176 H   0  0  0  0  0  0  0  0  0  0  0  0
    2.6496   -0.1354    5.0986 H   0  0  0  0  0  0  0  0  0  0  0  0
    4.9908   -5.7860    5.9543 H   0  0  0  0  0  0  0  0  0  0  0  0
    0.4332   -5.3057    7.8573 H   0  0  0  0  0  0  0  0  0  0  0  0
    3.4076   -9.2192    5.3224 H   0  0  0  0  0  0  0  0  0  0  0  0
    2.3920  -11.2302    6.3167 H   0  0  0  0  0  0  0  0  0  0  0  0
    0.0915  -11.9060    5.7200 H   0  0  0  0  0  0  0  0  0  0  0  0
   -1.7747  -10.5234    2.8958 H   0  0  0  0  0  0  0  0  0  0  0  0
   -1.7938  -11.7161    4.2306 H   0  0  0  0  0  0  0  0  0  0  0  0
   -2.5589   -8.7304    4.4386 H   0  0  0  0  0  0  0  0  0  0  0  0
   -3.6631  -10.1629    4.5249 H   0  0  0  0  0  0  0  0  0  0  0  0
   -2.4637   -9.8741    5.8434 H   0  0  0  0  0  0  0  0  0  0  0  0
   -0.2364   -8.4765    3.1412 H   0  0  0  0  0  0  0  0  0  0  0  0
   -3.0130    3.8627   -2.7833 H   0  0  0  0  0  0  0  0  0  0  0  0
   -5.3257    4.5868   -3.2090 H   0  0  0  0  0  0  0  0  0  0  0  0
   -6.9368    3.0711   -4.3080 H   0  0  0  0  0  0  0  0  0  0  0  0
   -7.1962    1.0661   -5.8399 H   0  0  0  0  0  0  0  0  0  0  0  0
   -5.9861   -0.2476   -5.7899 H   0  0  0  0  0  0  0  0  0  0  0  0
   -6.6410   -0.7960   -3.4356 H   0  0  0  0  0  0  0  0  0  0  0  0
   -7.8580    0.5514   -3.4587 H   0  0  0  0  0  0  0  0  0  0  0  0
   -8.0602   -0.8677   -4.5586 H   0  0  0  0  0  0  0  0  0  0  0  0
   -3.8720    0.0573   -4.6276 H   0  0  0  0  0  0  0  0  0  0  0  0
    3.4664   -2.3163    0.1635 H   0  0  0  0  0  0  0  0  0  0  0  0
    4.0014   -3.4083    1.4005 H   0  0  0  0  0  0  0  0  0  0  0  0
    1.2740   -1.9493    1.2788 H   0  0  0  0  0  0  0  0  0  0  0  0
    2.6098   -1.6878    2.4530 H   0  0  0  0  0  0  0  0  0  0  0  0
    1.6634   -3.2288    2.4960 H   0  0  0  0  0  0  0  0  0  0  0  0
    3.2137   -2.3333   -2.0293 H   0  0  0  0  0  0  0  0  0  0  0  0
    2.4741   -1.2158   -3.1885 H   0  0  0  0  0  0  0  0  0  0  0  0
    3.1411    0.6470   -2.0022 H   0  0  0  0  0  0  0  0  0  0  0  0
    4.2095   -0.4570   -1.1064 H   0  0  0  0  0  0  0  0  0  0  0  0
    2.5917   -0.0367   -0.4239 H   0  0  0  0  0  0  0  0  0  0  0  0
   -2.1606    3.2360   -5.8726 H   0  0  0  0  0  0  0  0  0  0  0  0
   -4.1044    6.1839   -7.8228 H   0  0  0  0  0  0  0  0  0  0  0  0
   -3.8449    5.0734   -6.4371 H   0  0  0  0  0  0  0  0  0  0  0  0
   -2.8992    8.0089   -6.3589 H   0  0  0  0  0  0  0  0  0  0  0  0
   -4.5873    7.5550   -5.9451 H   0  0  0  0  0  0  0  0  0  0  0  0
   -3.2250    6.8862   -4.9770 H   0  0  0  0  0  0  0  0  0  0  0  0
    1.4986    6.5949   -6.5831 H   0  0  0  0  0  0  0  0  0  0  0  0
   -2.0126   14.2962   -5.5450 H   0  0  0  0  0  0  0  0  0  0  0  0
   -3.9608   14.0989   -4.0021 H   0  0  0  0  0  0  0  0  0  0  0  0
   -4.4074   11.9687   -2.8058 H   0  0  0  0  0  0  0  0  0  0  0  0
   -2.9180   10.0034   -3.1512 H   0  0  0  0  0  0  0  0  0  0  0  0
  1  2  2  3
  2  3  1  0
  3  4  2  0
  3  5  1  0
  5  6  2  0
  6  7  1  0
  7  8  1  0
  8  9  2  0
  9 10  1  0
 10 11  2  0
 11 12  1  0
 12 13  2  0
  6 14  1  0
 14 15  2  3
 15 16  1  0
 16 17  3  0
 15 18  1  0
 18 19  3  0
  1 20  1  0
 20 21  2  0
 21 22  1  0
 21 23  1  0
 23 24  2  0
 24 25  1  0
 25 26  1  0
 25 27  2  0
 24 28  1  0
 28 29  2  0
 29 30  1  0
 30 31  2  0
 31 32  1  0
 32 33  2  0
 33 34  1  0
 34 35  1  0
 35 36  1  0
 34 37  2  0
 29 38  1  0
 38 39  1  0
 39 40  1  0
 40 41  1  0
 41 42  1  0
 42 43  1  0
 43 44  2  0
 44 45  1  0
 45 46  1  0
 43 47  1  0
 47 48  1  0
 48 49  1  0
 49 50  1  0
 50 51  1  0
 51 52  1  0
 52 53  2  0
 53 54  1  0
 54 55  2  0
 55 56  1  0
 56 57  1  0
 57 58  1  0
 56 59  2  0
 51 60  2  0
 60 61  1  0
 61 62  1  0
 62 63  1  0
 63 64  1  0
 64 65  1  0
 65 66  1  0
 66 67  1  0
 67 68  1  0
 68 69  1  0
 69 70  1  0
 67 71  1  0
 71 72  1  0
 64 73  1  0
 73 74  1  0
 60 75  1  0
 75 76  2  0
 76 77  1  0
 77 78  1  0
 78 79  1  0
 79 80  1  0
 77 81  2  0
 81 82  1  0
 81 83  1  0
 83 84  2  3
 84 85  1  0
 85 86  2  0
 85 87  1  0
 87 88  2  0
 88 89  1  0
 89 90  1  0
 90 91  2  0
 91 92  1  0
 92 93  2  0
 93 94  1  0
 94 95  2  0
 88 96  1  0
 96 97  2  3
 97 98  1  0
 98 99  3  0
 97100  1  0
100101  3  0
 14  2  1  0
 27 20  1  0
 70 28  1  0
 82 75  1  0
 96 84  1  0
 13  5  1  0
 37 30  1  0
 69 38  2  0
 95 87  1  0
 13  8  1  0
 68 40  2  0
 95 90  1  0
 66 41  2  0
 46 42  2  0
 65 47  2  0
 63 48  2  0
 62 50  2  0
 59 52  1  0
  1102  1  0
  9103  1  0
 10104  1  0
 11105  1  0
 12106  1  0
 23107  1  0
 27108  1  0
 31109  1  0
 32110  1  0
 33111  1  0
 35112  1  0
 35113  1  0
 36114  1  0
 36115  1  0
 36116  1  0
 37117  1  0
 53118  1  0
 54119  1  0
 55120  1  0
 57121  1  0
 57122  1  0
 58123  1  0
 58124  1  0
 58125  1  0
 59126  1  0
 71127  1  0
 71128  1  0
 72129  1  0
 72130  1  0
 72131  1  0
 73132  1  0
 73133  1  0
 74134  1  0
 74135  1  0
 74136  1  0
 76137  1  0
 79138  1  0
 79139  1  0
 80140  1  0
 80141  1  0
 80142  1  0
 83143  1  0
 91144  1  0
 92145  1  0
 93146  1  0
 94147  1  0
M  END

