
     RDKit          3D

176194  0  0  0  0  0  0  0  0999 V2000
   -7.4596    1.9196   -2.4914 C   0  0  0  0  0  0  0  0  0  0  0  0
   -7.2948    0.6132   -2.7840 C   0  0  0  0  0  0  0  0  0  0  0  0
   -6.0131   -0.1325   -2.7024 C   0  0  0  0  0  0  0  0  0  0  0  0
   -4.9095    0.2972   -2.2742 O   0  0  0  0  0  0  0  0  0  0  0  0
   -6.2420   -1.4555   -3.2419 C   0  0  0  0  0  0  0  0  0  0  0  0
   -7.5353   -1.5613   -3.6445 C   0  0  0  0  0  0  0  0  0  0  0  0
   -7.8640   -3.1344   -4.1786 S   0  0  0  0  0  0  0  0  0  0  0  0
   -6.2755   -3.6628   -3.8931 C   0  0  0  0  0  0  0  0  0  0  0  0
   -5.7485   -4.9373   -4.0964 C   0  0  0  0  0  0  0  0  0  0  0  0
   -4.4099   -5.1666   -3.7497 C   0  0  0  0  0  0  0  0  0  0  0  0
   -3.6198   -4.1236   -3.2215 C   0  0  0  0  0  0  0  0  0  0  0  0
   -4.1652   -2.8441   -3.0214 C   0  0  0  0  0  0  0  0  0  0  0  0
   -5.4991   -2.6281   -3.3696 C   0  0  0  0  0  0  0  0  0  0  0  0
   -8.3013   -0.3306   -3.3805 C   0  0  0  0  0  0  0  0  0  0  0  0
   -9.6332   -0.1757   -3.5799 C   0  0  0  0  0  0  0  0  0  0  0  0
  -10.4203   -1.2067   -4.2056 C   0  0  0  0  0  0  0  0  0  0  0  0
  -11.0569   -2.0284   -4.7134 N   0  0  0  0  0  0  0  0  0  0  0  0
  -10.3590    0.9890   -3.1557 C   0  0  0  0  0  0  0  0  0  0  0  0
  -10.9604    1.9201   -2.8184 N   0  0  0  0  0  0  0  0  0  0  0  0
   -6.3805    2.7686   -1.9516 C   0  0  0  0  0  0  0  0  0  0  0  0
   -5.7950    3.8122   -2.7191 C   0  0  0  0  0  0  0  0  0  0  0  0
   -6.1921    4.1273   -4.0323 O   0  0  0  0  0  0  0  0  0  0  0  0
   -6.6044    3.1910   -5.0247 C   0  0  0  0  0  0  0  0  0  0  0  0
   -6.4676    3.8258   -6.3989 C   0  0  0  0  0  0  0  0  0  0  0  0
   -4.7778    4.6044   -2.1504 C   0  0  0  0  0  0  0  0  0  0  0  0
   -4.1589    5.6043   -2.9076 O   0  0  0  0  0  0  0  0  0  0  0  0
   -3.3158    5.3011   -4.0154 C   0  0  0  0  0  0  0  0  0  0  0  0
   -2.9342    6.5863   -4.7343 C   0  0  0  0  0  0  0  0  0  0  0  0
   -4.3737    4.4039   -0.8211 C   0  0  0  0  0  0  0  0  0  0  0  0
   -4.9783    3.3941   -0.0530 C   0  0  0  0  0  0  0  0  0  0  0  0
   -5.9805    2.5824   -0.6146 C   0  0  0  0  0  0  0  0  0  0  0  0
   -6.5526    1.6165    0.1603 N   0  0  0  0  0  0  0  0  0  0  0  0
   -6.1674    1.4090    1.4449 C   0  0  0  0  0  0  0  0  0  0  0  0
   -5.1586    2.1990    1.9924 C   0  0  0  0  0  0  0  0  0  0  0  0
   -4.5885    3.1666    1.2325 N   0  0  0  0  0  0  0  0  0  0  0  0
   -3.2351    5.1595   -0.2672 C   0  0  0  0  0  0  0  0  0  0  0  0
   -3.2594    5.8889    0.9363 C   0  0  0  0  0  0  0  0  0  0  0  0
   -4.5097    6.3419    1.5868 C   0  0  0  0  0  0  0  0  0  0  0  0
   -4.7509    6.1147    2.9503 C   0  0  0  0  0  0  0  0  0  0  0  0
   -5.9652    6.5016    3.5221 C   0  0  0  0  0  0  0  0  0  0  0  0
   -6.9520    7.1065    2.7403 C   0  0  0  0  0  0  0  0  0  0  0  0
   -6.7252    7.3464    1.3778 C   0  0  0  0  0  0  0  0  0  0  0  0
   -7.7972    7.9565    0.5150 C   0  0  0  0  0  0  0  0  0  0  0  0
   -8.5658    6.8724   -0.2354 C   0  0  0  0  0  0  0  0  0  0  0  0
   -5.5019    6.9619    0.8065 C   0  0  0  0  0  0  0  0  0  0  0  0
   -1.9628    6.0531    1.4480 C   0  0  0  0  0  0  0  0  0  0  0  0
   -1.3856    6.4121    3.0041 S   0  0  0  0  0  0  0  0  0  0  0  0
    0.1871    5.9077    2.6133 C   0  0  0  0  0  0  0  0  0  0  0  0
    1.1582    5.2603    3.3364 C   0  0  0  0  0  0  0  0  0  0  0  0
    1.1489    4.9232    4.6988 C   0  0  0  0  0  0  0  0  0  0  0  0
    1.9442    3.8237    5.1468 C   0  0  0  0  0  0  0  0  0  0  0  0
    1.8484    3.4826    6.4575 N   0  0  0  0  0  0  0  0  0  0  0  0
    0.7317    4.6013    6.9542 S   0  0  0  0  0  0  0  0  0  0  0  0
    0.3479    5.5080    5.6244 N   0  0  0  0  0  0  0  0  0  0  0  0
    2.7706    3.1788    4.2255 C   0  0  0  0  0  0  0  0  0  0  0  0
    3.5955    2.0981    4.3339 C   0  0  0  0  0  0  0  0  0  0  0  0
    3.7430    0.7429    5.3441 S   0  0  0  0  0  0  0  0  0  0  0  0
    4.6473   -0.0828    4.1515 C   0  0  0  0  0  0  0  0  0  0  0  0
    5.0186   -1.4260    3.9969 C   0  0  0  0  0  0  0  0  0  0  0  0
    4.7194   -2.4907    4.9735 C   0  0  0  0  0  0  0  0  0  0  0  0
    3.4065   -2.6830    5.4270 C   0  0  0  0  0  0  0  0  0  0  0  0
    3.1101   -3.7259    6.3066 C   0  0  0  0  0  0  0  0  0  0  0  0
    4.1258   -4.5721    6.7575 C   0  0  0  0  0  0  0  0  0  0  0  0
    5.4491   -4.3792    6.3270 C   0  0  0  0  0  0  0  0  0  0  0  0
    6.5411   -5.3055    6.7962 C   0  0  0  0  0  0  0  0  0  0  0  0
    6.6579   -6.5164    5.8749 C   0  0  0  0  0  0  0  0  0  0  0  0
    5.7372   -3.3485    5.4185 C   0  0  0  0  0  0  0  0  0  0  0  0
    5.4912   -1.6592    2.6889 C   0  0  0  0  0  0  0  0  0  0  0  0
    5.4398   -0.2240    1.7836 S   0  0  0  0  0  0  0  0  0  0  0  0
    4.8110    0.6923    3.0269 C   0  0  0  0  0  0  0  0  0  0  0  0
    4.1825    1.9238    3.1231 C   0  0  0  0  0  0  0  0  0  0  0  0
    3.7611    2.8197    2.1912 N   0  0  0  0  0  0  0  0  0  0  0  0
    2.8376    3.5643    2.8809 C   0  0  0  0  0  0  0  0  0  0  0  0
    1.9098    4.5233    2.4020 C   0  0  0  0  0  0  0  0  0  0  0  0
    1.3140    4.5780    1.1664 N   0  0  0  0  0  0  0  0  0  0  0  0
    0.2707    5.4337    1.3363 C   0  0  0  0  0  0  0  0  0  0  0  0
   -0.9596    5.5126    0.6776 C   0  0  0  0  0  0  0  0  0  0  0  0
   -1.6345    4.7573   -0.6548 S   0  0  0  0  0  0  0  0  0  0  0  0
    1.3759    3.5616    0.1084 C   0  0  0  0  0  0  0  0  0  0  0  0
    0.7069    2.2580    0.5457 C   0  0  0  0  0  0  0  0  0  0  0  0
    4.6171    3.3407    1.1146 C   0  0  0  0  0  0  0  0  0  0  0  0
    4.7546    2.3636   -0.0608 C   0  0  0  0  0  0  0  0  0  0  0  0
    5.8513   -2.9455    2.0756 C   0  0  0  0  0  0  0  0  0  0  0  0
    4.9167   -3.7296    1.3380 C   0  0  0  0  0  0  0  0  0  0  0  0
    3.5186   -3.5791    1.4355 O   0  0  0  0  0  0  0  0  0  0  0  0
    2.7917   -2.3661    1.5941 C   0  0  0  0  0  0  0  0  0  0  0  0
    1.3124   -2.6217    1.3410 C   0  0  0  0  0  0  0  0  0  0  0  0
    5.3999   -4.7527    0.4882 C   0  0  0  0  0  0  0  0  0  0  0  0
    4.5398   -5.5844   -0.2551 O   0  0  0  0  0  0  0  0  0  0  0  0
    3.3461   -5.1728   -0.9234 C   0  0  0  0  0  0  0  0  0  0  0  0
    2.1374   -5.8685   -0.3092 C   0  0  0  0  0  0  0  0  0  0  0  0
    6.7834   -4.9855    0.3730 C   0  0  0  0  0  0  0  0  0  0  0  0
    7.6736   -4.3386    1.2396 C   0  0  0  0  0  0  0  0  0  0  0  0
    7.2137   -3.2998    2.0719 C   0  0  0  0  0  0  0  0  0  0  0  0
    8.1195   -2.6068    2.8188 N   0  0  0  0  0  0  0  0  0  0  0  0
    9.4417   -2.9146    2.7985 C   0  0  0  0  0  0  0  0  0  0  0  0
    9.8920   -3.9534    1.9841 C   0  0  0  0  0  0  0  0  0  0  0  0
    9.0028   -4.6292    1.2132 N   0  0  0  0  0  0  0  0  0  0  0  0
    7.3095   -5.8272   -0.7249 C   0  0  0  0  0  0  0  0  0  0  0  0
    7.0166   -5.6117   -2.0242 C   0  0  0  0  0  0  0  0  0  0  0  0
    7.0933   -6.6639   -3.0353 C   0  0  0  0  0  0  0  0  0  0  0  0
    7.7597   -7.7292   -2.9485 O   0  0  0  0  0  0  0  0  0  0  0  0
    6.1796   -6.3226   -4.1074 C   0  0  0  0  0  0  0  0  0  0  0  0
    5.8356   -7.0805   -5.2253 C   0  0  0  0  0  0  0  0  0  0  0  0
    4.8500   -6.5833   -6.0907 C   0  0  0  0  0  0  0  0  0  0  0  0
    4.2082   -5.3626   -5.8106 C   0  0  0  0  0  0  0  0  0  0  0  0
    2.9301   -4.7856   -6.8662 Cl  0  0  0  0  0  0  0  0  0  0  0  0
    4.5716   -4.6132   -4.6768 C   0  0  0  0  0  0  0  0  0  0  0  0
    5.5892   -5.0988   -3.8431 C   0  0  0  0  0  0  0  0  0  0  0  0
    6.1883   -4.5179   -2.6147 C   0  0  0  0  0  0  0  0  0  0  0  0
    6.2903   -3.1956   -2.3324 C   0  0  0  0  0  0  0  0  0  0  0  0
    5.4556   -2.1997   -2.9484 C   0  0  0  0  0  0  0  0  0  0  0  0
    4.7880   -1.3811   -3.4253 N   0  0  0  0  0  0  0  0  0  0  0  0
    7.3847   -2.6830   -1.5472 C   0  0  0  0  0  0  0  0  0  0  0  0
    8.2740   -2.2561   -0.9377 N   0  0  0  0  0  0  0  0  0  0  0  0
   -8.3834    2.4221   -2.7027 H   0  0  0  0  0  0  0  0  0  0  0  0
   -6.3581   -5.7304   -4.5063 H   0  0  0  0  0  0  0  0  0  0  0  0
   -3.9758   -6.1457   -3.8975 H   0  0  0  0  0  0  0  0  0  0  0  0
   -2.5893   -4.3139   -2.9550 H   0  0  0  0  0  0  0  0  0  0  0  0
   -3.5596   -2.0480   -2.6094 H   0  0  0  0  0  0  0  0  0  0  0  0
   -7.6688    2.9200   -4.8804 H   0  0  0  0  0  0  0  0  0  0  0  0
   -5.9630    2.2816   -4.9815 H   0  0  0  0  0  0  0  0  0  0  0  0
   -5.4015    4.0520   -6.6168 H   0  0  0  0  0  0  0  0  0  0  0  0
   -6.8507    3.1260   -7.1733 H   0  0  0  0  0  0  0  0  0  0  0  0
   -7.0545    4.7664   -6.4394 H   0  0  0  0  0  0  0  0  0  0  0  0
   -3.8313    4.6264   -4.7280 H   0  0  0  0  0  0  0  0  0  0  0  0
   -2.3946    4.7938   -3.6551 H   0  0  0  0  0  0  0  0  0  0  0  0
   -2.2819    6.3527   -5.5992 H   0  0  0  0  0  0  0  0  0  0  0  0
   -2.3860    7.2619   -4.0421 H   0  0  0  0  0  0  0  0  0  0  0  0
   -3.8462    7.1002   -5.1011 H   0  0  0  0  0  0  0  0  0  0  0  0
   -6.6396    0.6395    2.0377 H   0  0  0  0  0  0  0  0  0  0  0  0
   -4.8320    2.0502    3.0123 H   0  0  0  0  0  0  0  0  0  0  0  0
   -4.0229    5.6038    3.5652 H   0  0  0  0  0  0  0  0  0  0  0  0
   -6.1489    6.3172    4.5722 H   0  0  0  0  0  0  0  0  0  0  0  0
   -7.8948    7.3830    3.1937 H   0  0  0  0  0  0  0  0  0  0  0  0
   -8.5082    8.5437    1.1369 H   0  0  0  0  0  0  0  0  0  0  0  0
   -7.3426    8.6573   -0.2188 H   0  0  0  0  0  0  0  0  0  0  0  0
   -9.0460    6.1753    0.4813 H   0  0  0  0  0  0  0  0  0  0  0  0
   -9.3542    7.3414   -0.8607 H   0  0  0  0  0  0  0  0  0  0  0  0
   -7.8796    6.3014   -0.8979 H   0  0  0  0  0  0  0  0  0  0  0  0
   -5.3270    7.1364   -0.2517 H   0  0  0  0  0  0  0  0  0  0  0  0
    2.6050   -2.0455    5.0815 H   0  0  0  0  0  0  0  0  0  0  0  0
    2.0927   -3.8835    6.6287 H   0  0  0  0  0  0  0  0  0  0  0  0
    3.8810   -5.3832    7.4305 H   0  0  0  0  0  0  0  0  0  0  0  0
    7.5147   -4.7682    6.8192 H   0  0  0  0  0  0  0  0  0  0  0  0
    6.3294   -5.6517    7.8308 H   0  0  0  0  0  0  0  0  0  0  0  0
    5.6986   -7.0739    5.8355 H   0  0  0  0  0  0  0  0  0  0  0  0
    6.9385   -6.1917    4.8508 H   0  0  0  0  0  0  0  0  0  0  0  0
    7.4477   -7.1899    6.2618 H   0  0  0  0  0  0  0  0  0  0  0  0
    6.7530   -3.2114    5.0685 H   0  0  0  0  0  0  0  0  0  0  0  0
    0.9029    3.9343   -0.8230 H   0  0  0  0  0  0  0  0  0  0  0  0
    2.4073    3.3683   -0.1892 H   0  0  0  0  0  0  0  0  0  0  0  0
    1.2638    1.7987    1.3869 H   0  0  0  0  0  0  0  0  0  0  0  0
    0.6988    1.5402   -0.3024 H   0  0  0  0  0  0  0  0  0  0  0  0
   -0.3408    2.4483    0.8665 H   0  0  0  0  0  0  0  0  0  0  0  0
    5.6254    3.5728    1.5217 H   0  0  0  0  0  0  0  0  0  0  0  0
    4.2177    4.3116    0.7429 H   0  0  0  0  0  0  0  0  0  0  0  0
    3.9479    1.5995   -0.0532 H   0  0  0  0  0  0  0  0  0  0  0  0
    5.7475    1.8624   -0.0278 H   0  0  0  0  0  0  0  0  0  0  0  0
    4.7045    2.9242   -1.0188 H   0  0  0  0  0  0  0  0  0  0  0  0
    2.8794   -1.9923    2.6282 H   0  0  0  0  0  0  0  0  0  0  0  0
    3.1509   -1.6076    0.8685 H   0  0  0  0  0  0  0  0  0  0  0  0
    0.9298   -3.3756    2.0576 H   0  0  0  0  0  0  0  0  0  0  0  0
    0.7441   -1.6768    1.4747 H   0  0  0  0  0  0  0  0  0  0  0  0
    1.1565   -2.9939    0.3048 H   0  0  0  0  0  0  0  0  0  0  0  0
    3.2206   -4.0678   -0.9219 H   0  0  0  0  0  0  0  0  0  0  0  0
    3.4140   -5.4849   -1.9878 H   0  0  0  0  0  0  0  0  0  0  0  0
    2.2521   -6.9728   -0.4009 H   0  0  0  0  0  0  0  0  0  0  0  0
    2.0328   -5.6077    0.7657 H   0  0  0  0  0  0  0  0  0  0  0  0
    1.2158   -5.5555   -0.8451 H   0  0  0  0  0  0  0  0  0  0  0  0
   10.1389   -2.3533    3.4050 H   0  0  0  0  0  0  0  0  0  0  0  0
   10.9421   -4.2097    1.9507 H   0  0  0  0  0  0  0  0  0  0  0  0
    7.8903   -6.7020   -0.4482 H   0  0  0  0  0  0  0  0  0  0  0  0
    6.3111   -8.0306   -5.4189 H   0  0  0  0  0  0  0  0  0  0  0  0
    4.5676   -7.1532   -6.9658 H   0  0  0  0  0  0  0  0  0  0  0  0
    4.0389   -3.7026   -4.4563 H   0  0  0  0  0  0  0  0  0  0  0  0
  1  2  2  3
  2  3  1  0
  3  4  2  0
  3  5  1  0
  5  6  2  0
  6  7  1  0
  7  8  1  0
  8  9  2  0
  9 10  1  0
 10 11  2  0
 11 12  1  0
 12 13  2  0
  6 14  1  0
 14 15  2  3
 15 16  1  0
 16 17  3  0
 15 18  1  0
 18 19  3  0
  1 20  1  0
 20 21  2  0
 21 22  1  0
 22 23  1  0
 23 24  1  0
 21 25  1  0
 25 26  1  0
 26 27  1  0
 27 28  1  0
 25 29  2  0
 29 30  1  0
 30 31  2  0
 31 32  1  0
 32 33  2  0
 33 34  1  0
 34 35  2  0
 29 36  1  0
 36 37  2  0
 37 38  1  0
 38 39  2  0
 39 40  1  0
 40 41  2  0
 41 42  1  0
 42 43  1  0
 43 44  1  0
 42 45  2  0
 37 46  1  0
 46 47  1  0
 47 48  1  0
 48 49  1  0
 49 50  1  0
 50 51  1  0
 51 52  2  0
 52 53  1  0
 53 54  1  0
 51 55  1  0
 55 56  1  0
 56 57  1  0
 57 58  1  0
 58 59  1  0
 59 60  1  0
 60 61  2  0
 61 62  1  0
 62 63  2  0
 63 64  1  0
 64 65  1  0
 65 66  1  0
 64 67  2  0
 59 68  2  0
 68 69  1  0
 69 70  1  0
 70 71  1  0
 71 72  1  0
 72 73  1  0
 73 74  1  0
 74 75  1  0
 75 76  1  0
 76 77  1  0
 77 78  1  0
 75 79  1  0
 79 80  1  0
 72 81  1  0
 81 82  1  0
 68 83  1  0
 83 84  2  0
 84 85  1  0
 85 86  1  0
 86 87  1  0
 84 88  1  0
 88 89  1  0
 89 90  1  0
 90 91  1  0
 88 92  2  0
 92 93  1  0
 93 94  2  0
 94 95  1  0
 95 96  2  0
 96 97  1  0
 97 98  2  0
 92 99  1  0
 99100  2  3
100101  1  0
101102  2  0
101103  1  0
103104  2  0
104105  1  0
105106  2  0
106107  1  0
106108  1  0
108109  2  0
109110  1  0
110111  2  3
111112  1  0
112113  3  0
111114  1  0
114115  3  0
 14  2  1  0
 31 20  1  0
 78 36  1  0
 94 83  1  0
110100  1  0
 13  5  1  0
 35 30  1  0
 45 38  1  0
 77 46  2  0
 98 93  1  0
109103  1  0
 13  8  1  0
 76 48  2  0
 74 49  2  0
 54 50  2  0
 73 55  2  0
 71 56  2  0
 70 58  2  0
 67 60  1  0
  1116  1  0
  9117  1  0
 10118  1  0
 11119  1  0
 12120  1  0
 23121  1  0
 23122  1  0
 24123  1  0
 24124  1  0
 24125  1  0
 27126  1  0
 27127  1  0
 28128  1  0
 28129  1  0
 28130  1  0
 33131  1  0
 34132  1  0
 39133  1  0
 40134  1  0
 41135  1  0
 43136  1  0
 43137  1  0
 44138  1  0
 44139  1  0
 44140  1  0
 45141  1  0
 61142  1  0
 62143  1  0
 63144  1  0
 65145  1  0
 65146  1  0
 66147  1  0
 66148  1  0
 66149  1  0
 67150  1  0
 79151  1  0
 79152  1  0
 80153  1  0
 80154  1  0
 80155  1  0
 81156  1  0
 81157  1  0
 82158  1  0
 82159  1  0
 82160  1  0
 86161  1  0
 86162  1  0
 87163  1  0
 87164  1  0
 87165  1  0
 90166  1  0
 90167  1  0
 91168  1  0
 91169  1  0
 91170  1  0
 96171  1  0
 97172  1  0
 99173  1  0
104174  1  0
105175  1  0
108176  1  0
M  END

