
     RDKit          3D

252278  0  0  0  0  0  0  0  0999 V2000
   -3.3585   11.4466   -0.5847 C   0  0  0  0  0  0  0  0  0  0  0  0
   -4.4827   12.1847   -0.7359 C   0  0  0  0  0  0  0  0  0  0  0  0
   -5.6515   11.9635   -1.6114 C   0  0  0  0  0  0  0  0  0  0  0  0
   -5.6150   11.6784   -2.8327 O   0  0  0  0  0  0  0  0  0  0  0  0
   -6.7988   12.5759   -0.9679 C   0  0  0  0  0  0  0  0  0  0  0  0
   -6.3893   13.2684    0.1261 C   0  0  0  0  0  0  0  0  0  0  0  0
   -7.6281   14.2565    0.7163 S   0  0  0  0  0  0  0  0  0  0  0  0
   -8.7291   13.7291   -0.4596 C   0  0  0  0  0  0  0  0  0  0  0  0
  -10.0455   14.1435   -0.6381 C   0  0  0  0  0  0  0  0  0  0  0  0
  -10.7638   13.6246   -1.7251 C   0  0  0  0  0  0  0  0  0  0  0  0
  -10.1572   12.7141   -2.6153 C   0  0  0  0  0  0  0  0  0  0  0  0
   -8.8243   12.3100   -2.4234 C   0  0  0  0  0  0  0  0  0  0  0  0
   -8.1211   12.8236   -1.3316 C   0  0  0  0  0  0  0  0  0  0  0  0
   -4.9328   13.1933    0.2892 C   0  0  0  0  0  0  0  0  0  0  0  0
   -4.1869   13.9862    1.0972 C   0  0  0  0  0  0  0  0  0  0  0  0
   -2.7617   14.1115    0.9612 C   0  0  0  0  0  0  0  0  0  0  0  0
   -1.6105   14.2151    0.8678 N   0  0  0  0  0  0  0  0  0  0  0  0
   -4.8021   14.8179    2.0994 C   0  0  0  0  0  0  0  0  0  0  0  0
   -5.2951   15.4778    2.9122 N   0  0  0  0  0  0  0  0  0  0  0  0
   -2.8659   10.1602   -1.1668 C   0  0  0  0  0  0  0  0  0  0  0  0
   -3.3669    9.2103   -2.1035 C   0  0  0  0  0  0  0  0  0  0  0  0
   -4.5746    9.2784   -2.8705 N   0  0  0  0  0  0  0  0  0  0  0  0
   -4.3748    9.4835   -4.2896 C   0  0  0  0  0  0  0  0  0  0  0  0
   -3.6396   10.5968   -4.7436 C   0  0  0  0  0  0  0  0  0  0  0  0
   -3.3708   10.7666   -6.1045 C   0  0  0  0  0  0  0  0  0  0  0  0
   -3.8102    9.8179   -7.0382 C   0  0  0  0  0  0  0  0  0  0  0  0
   -3.5254   10.0171   -8.4983 C   0  0  0  0  0  0  0  0  0  0  0  0
   -4.5342    8.6996   -6.5942 C   0  0  0  0  0  0  0  0  0  0  0  0
   -4.8066    8.5304   -5.2332 C   0  0  0  0  0  0  0  0  0  0  0  0
   -5.7761    8.6192   -2.3770 C   0  0  0  0  0  0  0  0  0  0  0  0
   -7.0102    8.8036   -3.0341 C   0  0  0  0  0  0  0  0  0  0  0  0
   -8.1219    8.0246   -2.7005 C   0  0  0  0  0  0  0  0  0  0  0  0
   -8.0335    7.0633   -1.6862 C   0  0  0  0  0  0  0  0  0  0  0  0
   -9.1888    6.1434   -1.4229 C   0  0  0  0  0  0  0  0  0  0  0  0
   -6.8347    6.9303   -0.9700 C   0  0  0  0  0  0  0  0  0  0  0  0
   -5.7232    7.7093   -1.2984 C   0  0  0  0  0  0  0  0  0  0  0  0
   -2.5485    8.0801   -2.1771 C   0  0  0  0  0  0  0  0  0  0  0  0
   -2.7093    6.5857   -2.9222 S   0  0  0  0  0  0  0  0  0  0  0  0
   -1.3564    5.8977   -2.1409 C   0  0  0  0  0  0  0  0  0  0  0  0
   -0.7796    6.8639   -1.2983 C   0  0  0  0  0  0  0  0  0  0  0  0
    0.2790    6.6080   -0.3641 N   0  0  0  0  0  0  0  0  0  0  0  0
    0.0638    5.6757    0.7204 C   0  0  0  0  0  0  0  0  0  0  0  0
   -1.1973    5.5757    1.3346 C   0  0  0  0  0  0  0  0  0  0  0  0
   -1.4046    4.6828    2.3896 C   0  0  0  0  0  0  0  0  0  0  0  0
   -0.3608    3.8621    2.8384 C   0  0  0  0  0  0  0  0  0  0  0  0
   -0.5813    2.9432    4.0040 C   0  0  0  0  0  0  0  0  0  0  0  0
    0.8988    3.9566    2.2300 C   0  0  0  0  0  0  0  0  0  0  0  0
    1.1080    4.8489    1.1731 C   0  0  0  0  0  0  0  0  0  0  0  0
    1.5268    7.3123   -0.5257 C   0  0  0  0  0  0  0  0  0  0  0  0
    2.0700    7.5052   -1.8074 C   0  0  0  0  0  0  0  0  0  0  0  0
    3.2728    8.1955   -1.9705 C   0  0  0  0  0  0  0  0  0  0  0  0
    3.9492    8.7124   -0.8573 C   0  0  0  0  0  0  0  0  0  0  0  0
    5.2346    9.4612   -1.0530 C   0  0  0  0  0  0  0  0  0  0  0  0
    3.4087    8.5263    0.4253 C   0  0  0  0  0  0  0  0  0  0  0  0
    2.2051    7.8336    0.5890 C   0  0  0  0  0  0  0  0  0  0  0  0
   -1.4766    8.0643   -1.3576 C   0  0  0  0  0  0  0  0  0  0  0  0
   -1.4457    9.4824   -0.4878 S   0  0  0  0  0  0  0  0  0  0  0  0
   -0.8741    4.5196   -2.3509 C   0  0  0  0  0  0  0  0  0  0  0  0
   -1.6795    3.4133   -2.6993 C   0  0  0  0  0  0  0  0  0  0  0  0
   -3.1434    3.3602   -2.5062 C   0  0  0  0  0  0  0  0  0  0  0  0
   -3.6859    3.7413   -1.2683 C   0  0  0  0  0  0  0  0  0  0  0  0
   -5.0662    3.7285   -1.0667 C   0  0  0  0  0  0  0  0  0  0  0  0
   -5.9184    3.3323   -2.1000 C   0  0  0  0  0  0  0  0  0  0  0  0
   -5.3903    2.9386   -3.3424 C   0  0  0  0  0  0  0  0  0  0  0  0
   -6.3096    2.4668   -4.4338 C   0  0  0  0  0  0  0  0  0  0  0  0
   -6.6255    0.9850   -4.2665 C   0  0  0  0  0  0  0  0  0  0  0  0
   -3.9964    2.9386   -3.5369 C   0  0  0  0  0  0  0  0  0  0  0  0
   -0.8869    2.2944   -2.9739 C   0  0  0  0  0  0  0  0  0  0  0  0
   -1.2155    0.6953   -3.4932 S   0  0  0  0  0  0  0  0  0  0  0  0
    0.4342    0.2973   -3.3785 C   0  0  0  0  0  0  0  0  0  0  0  0
    1.2968   -0.7258   -3.6752 C   0  0  0  0  0  0  0  0  0  0  0  0
    1.1456   -1.9226   -4.3775 C   0  0  0  0  0  0  0  0  0  0  0  0
    2.3099   -2.7099   -4.6502 C   0  0  0  0  0  0  0  0  0  0  0  0
    2.1154   -3.8743   -5.3163 N   0  0  0  0  0  0  0  0  0  0  0  0
    0.4767   -3.8021   -5.5409 S   0  0  0  0  0  0  0  0  0  0  0  0
   -0.0398   -2.3932   -4.8375 N   0  0  0  0  0  0  0  0  0  0  0  0
    3.5569   -2.2875   -4.1434 C   0  0  0  0  0  0  0  0  0  0  0  0
    4.6665   -3.0434   -3.8551 C   0  0  0  0  0  0  0  0  0  0  0  0
    4.8855   -4.7194   -3.8671 S   0  0  0  0  0  0  0  0  0  0  0  0
    5.8070   -4.6984   -2.4450 C   0  0  0  0  0  0  0  0  0  0  0  0
    5.8880   -5.7205   -1.4935 C   0  0  0  0  0  0  0  0  0  0  0  0
    5.5670   -7.1154   -1.8372 C   0  0  0  0  0  0  0  0  0  0  0  0
    6.5673   -7.9488   -2.3608 C   0  0  0  0  0  0  0  0  0  0  0  0
    6.2552   -9.2431   -2.7827 C   0  0  0  0  0  0  0  0  0  0  0  0
    4.9374   -9.7040   -2.7048 C   0  0  0  0  0  0  0  0  0  0  0  0
    3.9215   -8.8686   -2.2065 C   0  0  0  0  0  0  0  0  0  0  0  0
    2.5077   -9.3667   -2.0970 C   0  0  0  0  0  0  0  0  0  0  0  0
    2.2487   -9.9282   -0.7040 C   0  0  0  0  0  0  0  0  0  0  0  0
    4.2457   -7.5777   -1.7586 C   0  0  0  0  0  0  0  0  0  0  0  0
    5.9548   -5.2110   -0.1841 C   0  0  0  0  0  0  0  0  0  0  0  0
    5.9961   -3.5208   -0.2822 S   0  0  0  0  0  0  0  0  0  0  0  0
    5.8982   -3.4110   -1.9533 C   0  0  0  0  0  0  0  0  0  0  0  0
    5.2734   -2.4558   -2.7738 C   0  0  0  0  0  0  0  0  0  0  0  0
    4.6862   -1.2677   -2.4464 N   0  0  0  0  0  0  0  0  0  0  0  0
    3.6622   -1.1397   -3.3477 C   0  0  0  0  0  0  0  0  0  0  0  0
    2.5537   -0.2736   -3.2582 C   0  0  0  0  0  0  0  0  0  0  0  0
    2.5113    1.0378   -2.8790 N   0  0  0  0  0  0  0  0  0  0  0  0
    1.1918    1.3341   -2.9442 C   0  0  0  0  0  0  0  0  0  0  0  0
    0.4555    2.4878   -2.7656 C   0  0  0  0  0  0  0  0  0  0  0  0
    0.7693    4.0665   -2.3144 S   0  0  0  0  0  0  0  0  0  0  0  0
    3.6042    2.0143   -2.9691 C   0  0  0  0  0  0  0  0  0  0  0  0
    3.6751    2.6056   -4.3739 C   0  0  0  0  0  0  0  0  0  0  0  0
    4.7861   -0.6073   -1.1342 C   0  0  0  0  0  0  0  0  0  0  0  0
    6.1962   -0.0668   -0.8970 C   0  0  0  0  0  0  0  0  0  0  0  0
    5.3159   -5.8785    0.9573 C   0  0  0  0  0  0  0  0  0  0  0  0
    5.6804   -7.1128    1.5289 C   0  0  0  0  0  0  0  0  0  0  0  0
    6.9968   -7.6862    1.4149 N   0  0  0  0  0  0  0  0  0  0  0  0
    7.2011   -9.0974    1.1656 C   0  0  0  0  0  0  0  0  0  0  0  0
    6.1803   -9.8864    0.6000 C   0  0  0  0  0  0  0  0  0  0  0  0
    6.3793  -11.2504    0.3659 C   0  0  0  0  0  0  0  0  0  0  0  0
    7.6051  -11.8505    0.6781 C   0  0  0  0  0  0  0  0  0  0  0  0
    7.7981  -13.3234    0.4742 C   0  0  0  0  0  0  0  0  0  0  0  0
    8.6237  -11.0781    1.2522 C   0  0  0  0  0  0  0  0  0  0  0  0
    8.4265   -9.7140    1.4860 C   0  0  0  0  0  0  0  0  0  0  0  0
    8.1071   -6.7956    1.6218 C   0  0  0  0  0  0  0  0  0  0  0  0
    8.9645   -6.4725    0.5596 C   0  0  0  0  0  0  0  0  0  0  0  0
    9.9602   -5.5031    0.7278 C   0  0  0  0  0  0  0  0  0  0  0  0
   10.1274   -4.8664    1.9691 C   0  0  0  0  0  0  0  0  0  0  0  0
   11.1546   -3.7886    2.1473 C   0  0  0  0  0  0  0  0  0  0  0  0
    9.2779   -5.2020    3.0342 C   0  0  0  0  0  0  0  0  0  0  0  0
    8.2702   -6.1547    2.8601 C   0  0  0  0  0  0  0  0  0  0  0  0
    4.6780   -7.5690    2.3938 C   0  0  0  0  0  0  0  0  0  0  0  0
    4.4511   -8.9130    3.3866 S   0  0  0  0  0  0  0  0  0  0  0  0
    2.9134   -8.4050    3.9346 C   0  0  0  0  0  0  0  0  0  0  0  0
    2.6040   -7.1602    3.3731 C   0  0  0  0  0  0  0  0  0  0  0  0
    1.4634   -6.3598    3.7314 N   0  0  0  0  0  0  0  0  0  0  0  0
    1.6493   -5.0425    4.2995 C   0  0  0  0  0  0  0  0  0  0  0  0
    0.7043   -4.0262    4.0757 C   0  0  0  0  0  0  0  0  0  0  0  0
    0.8818   -2.7533    4.6321 C   0  0  0  0  0  0  0  0  0  0  0  0
    2.0036   -2.4798    5.4311 C   0  0  0  0  0  0  0  0  0  0  0  0
    2.2188   -1.1117    6.0108 C   0  0  0  0  0  0  0  0  0  0  0  0
    2.9578   -3.4854    5.6418 C   0  0  0  0  0  0  0  0  0  0  0  0
    2.7800   -4.7553    5.0866 C   0  0  0  0  0  0  0  0  0  0  0  0
    0.1529   -6.9396    3.6181 C   0  0  0  0  0  0  0  0  0  0  0  0
   -0.6830   -7.0286    4.7414 C   0  0  0  0  0  0  0  0  0  0  0  0
   -1.9301   -7.6491    4.6453 C   0  0  0  0  0  0  0  0  0  0  0  0
   -2.3550   -8.1935    3.4225 C   0  0  0  0  0  0  0  0  0  0  0  0
   -3.7061   -8.8353    3.3134 C   0  0  0  0  0  0  0  0  0  0  0  0
   -1.5322   -8.0797    2.2933 C   0  0  0  0  0  0  0  0  0  0  0  0
   -0.2780   -7.4709    2.3916 C   0  0  0  0  0  0  0  0  0  0  0  0
    3.6052   -6.7414    2.5094 C   0  0  0  0  0  0  0  0  0  0  0  0
    3.7926   -5.3960    1.5406 S   0  0  0  0  0  0  0  0  0  0  0  0
    2.0962   -9.0772    4.9527 C   0  0  0  0  0  0  0  0  0  0  0  0
    1.2302  -10.0653    4.6529 C   0  0  0  0  0  0  0  0  0  0  0  0
    1.0168  -10.6164    3.3104 C   0  0  0  0  0  0  0  0  0  0  0  0
    1.7982  -10.5085    2.3291 O   0  0  0  0  0  0  0  0  0  0  0  0
   -0.2586  -11.3035    3.2913 C   0  0  0  0  0  0  0  0  0  0  0  0
   -0.9233  -11.8648    2.1970 C   0  0  0  0  0  0  0  0  0  0  0  0
   -0.3627  -11.8742    0.9637 F   0  0  0  0  0  0  0  0  0  0  0  0
   -2.2049  -12.3951    2.3895 C   0  0  0  0  0  0  0  0  0  0  0  0
   -2.8017  -12.3477    3.6601 C   0  0  0  0  0  0  0  0  0  0  0  0
   -2.1215  -11.7726    4.7477 C   0  0  0  0  0  0  0  0  0  0  0  0
   -0.8261  -11.2599    4.5559 C   0  0  0  0  0  0  0  0  0  0  0  0
    0.1014  -10.5679    5.5011 C   0  0  0  0  0  0  0  0  0  0  0  0
    0.0096  -10.5266    6.8575 C   0  0  0  0  0  0  0  0  0  0  0  0
   -1.0967  -11.0948    7.5814 C   0  0  0  0  0  0  0  0  0  0  0  0
   -1.9816  -11.5431    8.1805 N   0  0  0  0  0  0  0  0  0  0  0  0
    1.0391   -9.9587    7.6853 C   0  0  0  0  0  0  0  0  0  0  0  0
    1.8606   -9.4983    8.3569 N   0  0  0  0  0  0  0  0  0  0  0  0
   -2.7157   11.7500    0.2255 H   0  0  0  0  0  0  0  0  0  0  0  0
  -10.4976   14.8577    0.0395 H   0  0  0  0  0  0  0  0  0  0  0  0
  -11.7894   13.9282   -1.8830 H   0  0  0  0  0  0  0  0  0  0  0  0
  -10.7205   12.3264   -3.4545 H   0  0  0  0  0  0  0  0  0  0  0  0
   -8.3623   11.6106   -3.1069 H   0  0  0  0  0  0  0  0  0  0  0  0
   -3.2695   11.3320   -4.0404 H   0  0  0  0  0  0  0  0  0  0  0  0
   -2.8142   11.6371   -6.4306 H   0  0  0  0  0  0  0  0  0  0  0  0
   -3.7125    9.0887   -9.0781 H   0  0  0  0  0  0  0  0  0  0  0  0
   -4.1765   10.8241   -8.8940 H   0  0  0  0  0  0  0  0  0  0  0  0
   -2.4618   10.3092   -8.6402 H   0  0  0  0  0  0  0  0  0  0  0  0
   -4.8803    7.9536   -7.2998 H   0  0  0  0  0  0  0  0  0  0  0  0
   -5.3284    7.6354   -4.9143 H   0  0  0  0  0  0  0  0  0  0  0  0
   -7.1024    9.5226   -3.8368 H   0  0  0  0  0  0  0  0  0  0  0  0
   -9.0461    8.1510   -3.2541 H   0  0  0  0  0  0  0  0  0  0  0  0
   -9.0419    5.5621   -0.4863 H   0  0  0  0  0  0  0  0  0  0  0  0
   -9.2844    5.4327   -2.2699 H   0  0  0  0  0  0  0  0  0  0  0  0
  -10.1290    6.7284   -1.3293 H   0  0  0  0  0  0  0  0  0  0  0  0
   -6.7508    6.2044   -0.1719 H   0  0  0  0  0  0  0  0  0  0  0  0
   -4.8128    7.5556   -0.7331 H   0  0  0  0  0  0  0  0  0  0  0  0
   -2.0200    6.2023    1.0097 H   0  0  0  0  0  0  0  0  0  0  0  0
   -2.3798    4.6330    2.8566 H   0  0  0  0  0  0  0  0  0  0  0  0
   -0.5522    3.5304    4.9462 H   0  0  0  0  0  0  0  0  0  0  0  0
    0.1993    2.1533    4.0461 H   0  0  0  0  0  0  0  0  0  0  0  0
   -1.5719    2.4481    3.9174 H   0  0  0  0  0  0  0  0  0  0  0  0
    1.7195    3.3352    2.5677 H   0  0  0  0  0  0  0  0  0  0  0  0
    2.0831    4.8897    0.7074 H   0  0  0  0  0  0  0  0  0  0  0  0
    1.5639    7.1137   -2.6823 H   0  0  0  0  0  0  0  0  0  0  0  0
    3.6737    8.3312   -2.9670 H   0  0  0  0  0  0  0  0  0  0  0  0
    5.6681    9.7891   -0.0847 H   0  0  0  0  0  0  0  0  0  0  0  0
    5.9700    8.8060   -1.5662 H   0  0  0  0  0  0  0  0  0  0  0  0
    5.0523   10.3583   -1.6825 H   0  0  0  0  0  0  0  0  0  0  0  0
    3.9118    8.9240    1.2991 H   0  0  0  0  0  0  0  0  0  0  0  0
    1.7924    7.7165    1.5823 H   0  0  0  0  0  0  0  0  0  0  0  0
   -3.0402    4.0417   -0.4545 H   0  0  0  0  0  0  0  0  0  0  0  0
   -5.4768    4.0150   -0.1066 H   0  0  0  0  0  0  0  0  0  0  0  0
   -6.9873    3.3306   -1.9324 H   0  0  0  0  0  0  0  0  0  0  0  0
   -7.2542    3.0505   -4.4179 H   0  0  0  0  0  0  0  0  0  0  0  0
   -5.8389    2.6314   -5.4260 H   0  0  0  0  0  0  0  0  0  0  0  0
   -5.6868    0.3892   -4.2449 H   0  0  0  0  0  0  0  0  0  0  0  0
   -7.2453    0.6373   -5.1196 H   0  0  0  0  0  0  0  0  0  0  0  0
   -7.1909    0.8149   -3.3234 H   0  0  0  0  0  0  0  0  0  0  0  0
   -3.5815    2.6290   -4.4900 H   0  0  0  0  0  0  0  0  0  0  0  0
    7.5853   -7.5935   -2.4542 H   0  0  0  0  0  0  0  0  0  0  0  0
    7.0321   -9.8860   -3.1807 H   0  0  0  0  0  0  0  0  0  0  0  0
    4.7079  -10.7090   -3.0354 H   0  0  0  0  0  0  0  0  0  0  0  0
    1.7985   -8.5348   -2.2934 H   0  0  0  0  0  0  0  0  0  0  0  0
    2.3090  -10.1558   -2.8562 H   0  0  0  0  0  0  0  0  0  0  0  0
    2.8969  -10.8124   -0.5201 H   0  0  0  0  0  0  0  0  0  0  0  0
    2.4571   -9.1539    0.0649 H   0  0  0  0  0  0  0  0  0  0  0  0
    1.1866  -10.2354   -0.6193 H   0  0  0  0  0  0  0  0  0  0  0  0
    3.4672   -6.9276   -1.3709 H   0  0  0  0  0  0  0  0  0  0  0  0
    3.4600    2.8194   -2.2182 H   0  0  0  0  0  0  0  0  0  0  0  0
    4.5764    1.5337   -2.7721 H   0  0  0  0  0  0  0  0  0  0  0  0
    4.5479    3.2894   -4.4496 H   0  0  0  0  0  0  0  0  0  0  0  0
    3.7874    1.7960   -5.1283 H   0  0  0  0  0  0  0  0  0  0  0  0
    2.7554    3.1822   -4.6053 H   0  0  0  0  0  0  0  0  0  0  0  0
    4.5047   -1.3155   -0.3304 H   0  0  0  0  0  0  0  0  0  0  0  0
    4.0652    0.2249   -1.0321 H   0  0  0  0  0  0  0  0  0  0  0  0
    6.9539   -0.8705   -0.9962 H   0  0  0  0  0  0  0  0  0  0  0  0
    6.2662    0.3519    0.1269 H   0  0  0  0  0  0  0  0  0  0  0  0
    6.4399    0.7288   -1.6282 H   0  0  0  0  0  0  0  0  0  0  0  0
    5.2252   -9.4553    0.3435 H   0  0  0  0  0  0  0  0  0  0  0  0
    5.5734  -11.8357   -0.0575 H   0  0  0  0  0  0  0  0  0  0  0  0
    8.8668  -13.5598    0.2832 H   0  0  0  0  0  0  0  0  0  0  0  0
    7.4634  -13.8717    1.3807 H   0  0  0  0  0  0  0  0  0  0  0  0
    7.2101  -13.6776   -0.3994 H   0  0  0  0  0  0  0  0  0  0  0  0
    9.5716  -11.5267    1.5194 H   0  0  0  0  0  0  0  0  0  0  0  0
    9.2311   -9.1455    1.9340 H   0  0  0  0  0  0  0  0  0  0  0  0
    8.8304   -6.9388   -0.4073 H   0  0  0  0  0  0  0  0  0  0  0  0
   10.5898   -5.2408   -0.1144 H   0  0  0  0  0  0  0  0  0  0  0  0
   11.7311   -3.9617    3.0794 H   0  0  0  0  0  0  0  0  0  0  0  0
   11.8670   -3.7604    1.2940 H   0  0  0  0  0  0  0  0  0  0  0  0
   10.6459   -2.8025    2.2171 H   0  0  0  0  0  0  0  0  0  0  0  0
    9.3806   -4.7068    3.9910 H   0  0  0  0  0  0  0  0  0  0  0  0
    7.5992   -6.3792    3.6803 H   0  0  0  0  0  0  0  0  0  0  0  0
   -0.1652   -4.2141    3.4598 H   0  0  0  0  0  0  0  0  0  0  0  0
    0.1458   -1.9809    4.4368 H   0  0  0  0  0  0  0  0  0  0  0  0
    1.2730   -0.5308    6.0330 H   0  0  0  0  0  0  0  0  0  0  0  0
    2.5962   -1.1949    7.0528 H   0  0  0  0  0  0  0  0  0  0  0  0
    2.9627   -0.5630    5.3981 H   0  0  0  0  0  0  0  0  0  0  0  0
    3.8408   -3.2910    6.2387 H   0  0  0  0  0  0  0  0  0  0  0  0
    3.5215   -5.5188    5.2802 H   0  0  0  0  0  0  0  0  0  0  0  0
   -0.3518   -6.6445    5.6976 H   0  0  0  0  0  0  0  0  0  0  0  0
   -2.5564   -7.7237    5.5249 H   0  0  0  0  0  0  0  0  0  0  0  0
   -3.7041   -9.6204    2.5272 H   0  0  0  0  0  0  0  0  0  0  0  0
   -4.4617   -8.0634    3.0566 H   0  0  0  0  0  0  0  0  0  0  0  0
   -3.9923   -9.3139    4.2735 H   0  0  0  0  0  0  0  0  0  0  0  0
   -1.8547   -8.4770    1.3374 H   0  0  0  0  0  0  0  0  0  0  0  0
    0.3570   -7.4071    1.5158 H   0  0  0  0  0  0  0  0  0  0  0  0
    2.0231   -8.5540    5.8910 H   0  0  0  0  0  0  0  0  0  0  0  0
   -2.7460  -12.8241    1.5578 H   0  0  0  0  0  0  0  0  0  0  0  0
   -3.7999  -12.7379    3.8020 H   0  0  0  0  0  0  0  0  0  0  0  0
   -2.6354  -11.7082    5.6879 H   0  0  0  0  0  0  0  0  0  0  0  0
  1  2  2  3
  2  3  1  0
  3  4  2  0
  3  5  1  0
  5  6  2  0
  6  7  1  0
  7  8  1  0
  8  9  2  0
  9 10  1  0
 10 11  2  0
 11 12  1  0
 12 13  2  0
  6 14  1  0
 14 15  2  3
 15 16  1  0
 16 17  3  0
 15 18  1  0
 18 19  3  0
  1 20  1  0
 20 21  2  0
 21 22  1  0
 22 23  1  0
 23 24  2  0
 24 25  1  0
 25 26  2  0
 26 27  1  0
 26 28  1  0
 28 29  2  0
 22 30  1  0
 30 31  2  0
 31 32  1  0
 32 33  2  0
 33 34  1  0
 33 35  1  0
 35 36  2  0
 21 37  1  0
 37 38  1  0
 38 39  1  0
 39 40  2  0
 40 41  1  0
 41 42  1  0
 42 43  2  0
 43 44  1  0
 44 45  2  0
 45 46  1  0
 45 47  1  0
 47 48  2  0
 41 49  1  0
 49 50  2  0
 50 51  1  0
 51 52  2  0
 52 53  1  0
 52 54  1  0
 54 55  2  0
 40 56  1  0
 56 57  1  0
 39 58  1  0
 58 59  2  0
 59 60  1  0
 60 61  2  0
 61 62  1  0
 62 63  2  0
 63 64  1  0
 64 65  1  0
 65 66  1  0
 64 67  2  0
 59 68  1  0
 68 69  1  0
 69 70  1  0
 70 71  1  0
 71 72  1  0
 72 73  1  0
 73 74  2  0
 74 75  1  0
 75 76  1  0
 73 77  1  0
 77 78  1  0
 78 79  1  0
 79 80  1  0
 80 81  1  0
 81 82  1  0
 82 83  2  0
 83 84  1  0
 84 85  2  0
 85 86  1  0
 86 87  1  0
 87 88  1  0
 86 89  2  0
 81 90  2  0
 90 91  1  0
 91 92  1  0
 92 93  1  0
 93 94  1  0
 94 95  1  0
 95 96  1  0
 96 97  1  0
 97 98  1  0
 98 99  1  0
 99100  1  0
 97101  1  0
101102  1  0
 94103  1  0
103104  1  0
 90105  1  0
105106  2  0
106107  1  0
107108  1  0
108109  2  0
109110  1  0
110111  2  0
111112  1  0
111113  1  0
113114  2  0
107115  1  0
115116  2  0
116117  1  0
117118  2  0
118119  1  0
118120  1  0
120121  2  0
106122  1  0
122123  1  0
123124  1  0
124125  2  0
125126  1  0
126127  1  0
127128  2  0
128129  1  0
129130  2  0
130131  1  0
130132  1  0
132133  2  0
126134  1  0
134135  2  0
135136  1  0
136137  2  0
137138  1  0
137139  1  0
139140  2  0
125141  1  0
141142  1  0
124143  1  0
143144  2  3
144145  1  0
145146  2  0
145147  1  0
147148  2  0
148149  1  0
148150  1  0
150151  2  0
151152  1  0
152153  2  0
153154  1  0
154155  2  3
155156  1  0
156157  3  0
155158  1  0
158159  3  0
 14  2  1  0
 57 20  1  0
100 58  1  0
142105  1  0
154144  1  0
 13  5  1  0
 29 23  1  0
 36 30  1  0
 56 37  2  0
 67 60  1  0
 99 68  2  0
114108  1  0
121115  1  0
141122  2  0
153147  1  0
 13  8  1  0
 48 42  1  0
 55 49  1  0
 98 70  2  0
133127  1  0
140134  1  0
 96 71  2  0
 76 72  2  0
 95 77  2  0
 93 78  2  0
 92 80  2  0
 89 82  1  0
  1160  1  0
  9161  1  0
 10162  1  0
 11163  1  0
 12164  1  0
 24165  1  0
 25166  1  0
 27167  1  0
 27168  1  0
 27169  1  0
 28170  1  0
 29171  1  0
 31172  1  0
 32173  1  0
 34174  1  0
 34175  1  0
 34176  1  0
 35177  1  0
 36178  1  0
 43179  1  0
 44180  1  0
 46181  1  0
 46182  1  0
 46183  1  0
 47184  1  0
 48185  1  0
 50186  1  0
 51187  1  0
 53188  1  0
 53189  1  0
 53190  1  0
 54191  1  0
 55192  1  0
 61193  1  0
 62194  1  0
 63195  1  0
 65196  1  0
 65197  1  0
 66198  1  0
 66199  1  0
 66200  1  0
 67201  1  0
 83202  1  0
 84203  1  0
 85204  1  0
 87205  1  0
 87206  1  0
 88207  1  0
 88208  1  0
 88209  1  0
 89210  1  0
101211  1  0
101212  1  0
102213  1  0
102214  1  0
102215  1  0
103216  1  0
103217  1  0
104218  1  0
104219  1  0
104220  1  0
109221  1  0
110222  1  0
112223  1  0
112224  1  0
112225  1  0
113226  1  0
114227  1  0
116228  1  0
117229  1  0
119230  1  0
119231  1  0
119232  1  0
120233  1  0
121234  1  0
128235  1  0
129236  1  0
131237  1  0
131238  1  0
131239  1  0
132240  1  0
133241  1  0
135242  1  0
136243  1  0
138244  1  0
138245  1  0
138246  1  0
139247  1  0
140248  1  0
143249  1  0
150250  1  0
151251  1  0
152252  1  0
M  END

