
     RDKit          3D

151168  0  0  0  0  0  0  0  0999 V2000
   -8.3629   -1.6627    1.8574 C   0  0  0  0  0  0  0  0  0  0  0  0
   -7.9626   -0.9420    2.9234 C   0  0  0  0  0  0  0  0  0  0  0  0
   -6.7793   -0.0519    2.9893 C   0  0  0  0  0  0  0  0  0  0  0  0
   -6.1375    0.4306    2.0219 O   0  0  0  0  0  0  0  0  0  0  0  0
   -6.5854    0.3113    4.3749 C   0  0  0  0  0  0  0  0  0  0  0  0
   -7.5891   -0.2079    5.1252 C   0  0  0  0  0  0  0  0  0  0  0  0
   -7.3456    0.1378    6.7646 S   0  0  0  0  0  0  0  0  0  0  0  0
   -5.8996    0.9792    6.4680 C   0  0  0  0  0  0  0  0  0  0  0  0
   -5.0440    1.5618    7.3980 C   0  0  0  0  0  0  0  0  0  0  0  0
   -3.8651    2.1672    6.9290 C   0  0  0  0  0  0  0  0  0  0  0  0
   -3.5666    2.1796    5.5502 C   0  0  0  0  0  0  0  0  0  0  0  0
   -4.4420    1.5867    4.6251 C   0  0  0  0  0  0  0  0  0  0  0  0
   -5.6084    0.9859    5.1021 C   0  0  0  0  0  0  0  0  0  0  0  0
   -8.5509   -0.9737    4.3131 C   0  0  0  0  0  0  0  0  0  0  0  0
   -9.6956   -1.5300    4.7726 C   0  0  0  0  0  0  0  0  0  0  0  0
  -10.0560   -1.4530    6.1672 C   0  0  0  0  0  0  0  0  0  0  0  0
  -10.3529   -1.3973    7.2826 N   0  0  0  0  0  0  0  0  0  0  0  0
  -10.6570   -2.1827    3.9237 C   0  0  0  0  0  0  0  0  0  0  0  0
  -11.4408   -2.7070    3.2545 N   0  0  0  0  0  0  0  0  0  0  0  0
   -7.6080   -1.8472    0.6032 C   0  0  0  0  0  0  0  0  0  0  0  0
   -8.1930   -2.2610   -0.5911 C   0  0  0  0  0  0  0  0  0  0  0  0
   -7.2639   -2.6653   -1.5584 C   0  0  0  0  0  0  0  0  0  0  0  0
   -7.7496   -3.2953   -3.1666 S   0  0  0  0  0  0  0  0  0  0  0  0
   -8.1662   -4.9514   -2.5259 C   0  0  0  0  0  0  0  0  0  0  0  0
   -8.2315   -5.9493   -3.6694 C   0  0  0  0  0  0  0  0  0  0  0  0
   -5.9450   -2.5752   -1.1336 C   0  0  0  0  0  0  0  0  0  0  0  0
   -5.9344   -2.0112    0.4478 S   0  0  0  0  0  0  0  0  0  0  0  0
   -4.7557   -2.9459   -1.9087 C   0  0  0  0  0  0  0  0  0  0  0  0
   -4.1910   -4.2352   -2.0073 C   0  0  0  0  0  0  0  0  0  0  0  0
   -4.6573   -5.4288   -1.2731 C   0  0  0  0  0  0  0  0  0  0  0  0
   -4.9150   -6.6215   -1.9678 C   0  0  0  0  0  0  0  0  0  0  0  0
   -5.4732   -7.7163   -1.3019 C   0  0  0  0  0  0  0  0  0  0  0  0
   -5.7691   -7.6349    0.0608 C   0  0  0  0  0  0  0  0  0  0  0  0
   -5.4752   -6.4636    0.7788 C   0  0  0  0  0  0  0  0  0  0  0  0
   -5.8325   -6.3509    2.2366 C   0  0  0  0  0  0  0  0  0  0  0  0
   -7.1919   -5.6757    2.4017 C   0  0  0  0  0  0  0  0  0  0  0  0
   -4.9139   -5.3685    0.1044 C   0  0  0  0  0  0  0  0  0  0  0  0
   -3.0840   -4.2216   -2.8564 C   0  0  0  0  0  0  0  0  0  0  0  0
   -1.7887   -5.3113   -3.0710 S   0  0  0  0  0  0  0  0  0  0  0  0
   -0.9047   -4.1405   -3.9274 C   0  0  0  0  0  0  0  0  0  0  0  0
    0.4194   -3.8741   -4.1259 C   0  0  0  0  0  0  0  0  0  0  0  0
    1.5311   -4.7076   -4.0253 C   0  0  0  0  0  0  0  0  0  0  0  0
    2.8273   -4.1301   -4.1069 C   0  0  0  0  0  0  0  0  0  0  0  0
    3.8804   -4.9732   -3.9722 N   0  0  0  0  0  0  0  0  0  0  0  0
    3.0753   -6.4079   -3.7823 S   0  0  0  0  0  0  0  0  0  0  0  0
    1.4604   -6.0503   -3.8378 N   0  0  0  0  0  0  0  0  0  0  0  0
    2.9448   -2.7391   -4.2284 C   0  0  0  0  0  0  0  0  0  0  0  0
    4.0249   -1.9556   -3.9355 C   0  0  0  0  0  0  0  0  0  0  0  0
    5.4688   -2.2544   -3.0885 S   0  0  0  0  0  0  0  0  0  0  0  0
    5.5178   -0.6672   -2.4788 C   0  0  0  0  0  0  0  0  0  0  0  0
    6.2195   -0.1079   -1.3994 C   0  0  0  0  0  0  0  0  0  0  0  0
    7.2931   -0.8262   -0.6824 C   0  0  0  0  0  0  0  0  0  0  0  0
    7.2265   -1.0194    0.7057 C   0  0  0  0  0  0  0  0  0  0  0  0
    8.2179   -1.7523    1.3646 C   0  0  0  0  0  0  0  0  0  0  0  0
    9.2734   -2.3151    0.6412 C   0  0  0  0  0  0  0  0  0  0  0  0
    9.3417   -2.1498   -0.7509 C   0  0  0  0  0  0  0  0  0  0  0  0
   10.4887   -2.7355   -1.5290 C   0  0  0  0  0  0  0  0  0  0  0  0
   11.6353   -1.7346   -1.6272 C   0  0  0  0  0  0  0  0  0  0  0  0
    8.3529   -1.3967   -1.4066 C   0  0  0  0  0  0  0  0  0  0  0  0
    5.6036    1.0863   -0.9727 C   0  0  0  0  0  0  0  0  0  0  0  0
    4.2225    1.3762   -1.9116 S   0  0  0  0  0  0  0  0  0  0  0  0
    4.4076    0.0325   -2.8853 C   0  0  0  0  0  0  0  0  0  0  0  0
    3.5505   -0.7009   -3.7084 C   0  0  0  0  0  0  0  0  0  0  0  0
    2.2071   -0.6070   -3.9006 N   0  0  0  0  0  0  0  0  0  0  0  0
    1.8220   -1.8810   -4.2571 C   0  0  0  0  0  0  0  0  0  0  0  0
    0.5181   -2.4780   -4.3018 C   0  0  0  0  0  0  0  0  0  0  0  0
   -0.7416   -1.9201   -4.3070 N   0  0  0  0  0  0  0  0  0  0  0  0
   -1.5566   -2.9611   -4.0194 C   0  0  0  0  0  0  0  0  0  0  0  0
   -2.7971   -2.9981   -3.4076 C   0  0  0  0  0  0  0  0  0  0  0  0
   -3.8648   -1.8366   -2.8427 S   0  0  0  0  0  0  0  0  0  0  0  0
   -1.2526   -0.7060   -4.9671 C   0  0  0  0  0  0  0  0  0  0  0  0
   -0.5489   -0.4347   -6.2995 C   0  0  0  0  0  0  0  0  0  0  0  0
    1.4000    0.5368   -3.4593 C   0  0  0  0  0  0  0  0  0  0  0  0
    0.7274    0.2622   -2.1171 C   0  0  0  0  0  0  0  0  0  0  0  0
    5.9275    1.9192    0.1927 C   0  0  0  0  0  0  0  0  0  0  0  0
    7.1840    2.2850    0.6640 C   0  0  0  0  0  0  0  0  0  0  0  0
    7.1217    3.2038    1.7297 C   0  0  0  0  0  0  0  0  0  0  0  0
    8.5947    3.8778    2.5051 S   0  0  0  0  0  0  0  0  0  0  0  0
    8.9025    2.4376    3.5903 C   0  0  0  0  0  0  0  0  0  0  0  0
    7.9979    2.4659    4.8149 C   0  0  0  0  0  0  0  0  0  0  0  0
    5.8220    3.5931    2.0621 C   0  0  0  0  0  0  0  0  0  0  0  0
    4.7662    2.7264    1.0881 S   0  0  0  0  0  0  0  0  0  0  0  0
    5.3963    4.5056    3.1424 C   0  0  0  0  0  0  0  0  0  0  0  0
    4.3048    5.2883    3.0378 C   0  0  0  0  0  0  0  0  0  0  0  0
    3.6317    5.6495    1.7693 C   0  0  0  0  0  0  0  0  0  0  0  0
    4.1284    5.5930    0.6111 O   0  0  0  0  0  0  0  0  0  0  0  0
    2.3661    6.2541    2.0977 C   0  0  0  0  0  0  0  0  0  0  0  0
    2.2521    6.3654    3.4464 C   0  0  0  0  0  0  0  0  0  0  0  0
    0.7022    6.9103    3.8577 S   0  0  0  0  0  0  0  0  0  0  0  0
    0.2026    7.0197    2.2335 C   0  0  0  0  0  0  0  0  0  0  0  0
   -1.0457    7.3931    1.7399 C   0  0  0  0  0  0  0  0  0  0  0  0
   -1.2488    7.3539    0.3485 C   0  0  0  0  0  0  0  0  0  0  0  0
   -0.2170    6.9365   -0.5161 C   0  0  0  0  0  0  0  0  0  0  0  0
    1.0335    6.5554   -0.0004 C   0  0  0  0  0  0  0  0  0  0  0  0
    1.2291    6.6127    1.3821 C   0  0  0  0  0  0  0  0  0  0  0  0
    3.4360    5.8256    4.1469 C   0  0  0  0  0  0  0  0  0  0  0  0
    3.6036    5.7886    5.4877 C   0  0  0  0  0  0  0  0  0  0  0  0
    2.6060    6.3295    6.3774 C   0  0  0  0  0  0  0  0  0  0  0  0
    1.8107    6.7633    7.0984 N   0  0  0  0  0  0  0  0  0  0  0  0
    4.7715    5.2390    6.1233 C   0  0  0  0  0  0  0  0  0  0  0  0
    5.7044    4.7976    6.6493 N   0  0  0  0  0  0  0  0  0  0  0  0
   -9.2646   -2.2383    1.9032 H   0  0  0  0  0  0  0  0  0  0  0  0
   -5.2708    1.5394    8.4559 H   0  0  0  0  0  0  0  0  0  0  0  0
   -3.1789    2.6183    7.6295 H   0  0  0  0  0  0  0  0  0  0  0  0
   -2.6522    2.6448    5.2022 H   0  0  0  0  0  0  0  0  0  0  0  0
   -4.2050    1.5854    3.5675 H   0  0  0  0  0  0  0  0  0  0  0  0
   -9.2639   -2.3276   -0.7364 H   0  0  0  0  0  0  0  0  0  0  0  0
   -9.1529   -4.9054   -2.0158 H   0  0  0  0  0  0  0  0  0  0  0  0
   -7.4085   -5.2921   -1.7925 H   0  0  0  0  0  0  0  0  0  0  0  0
   -8.4991   -6.9517   -3.2741 H   0  0  0  0  0  0  0  0  0  0  0  0
   -7.2440   -6.0167   -4.1727 H   0  0  0  0  0  0  0  0  0  0  0  0
   -9.0025   -5.6375   -4.4060 H   0  0  0  0  0  0  0  0  0  0  0  0
   -4.7281   -6.6874   -3.0324 H   0  0  0  0  0  0  0  0  0  0  0  0
   -5.7013   -8.6230   -1.8488 H   0  0  0  0  0  0  0  0  0  0  0  0
   -6.2304   -8.4803    0.5582 H   0  0  0  0  0  0  0  0  0  0  0  0
   -5.0609   -5.7558    2.7712 H   0  0  0  0  0  0  0  0  0  0  0  0
   -5.8645   -7.3561    2.7060 H   0  0  0  0  0  0  0  0  0  0  0  0
   -7.9786   -6.2508    1.8658 H   0  0  0  0  0  0  0  0  0  0  0  0
   -7.4568   -5.6283    3.4786 H   0  0  0  0  0  0  0  0  0  0  0  0
   -7.1612   -4.6385    1.9989 H   0  0  0  0  0  0  0  0  0  0  0  0
   -4.6753   -4.4728    0.6612 H   0  0  0  0  0  0  0  0  0  0  0  0
    6.4000   -0.6192    1.2789 H   0  0  0  0  0  0  0  0  0  0  0  0
    8.1613   -1.8965    2.4349 H   0  0  0  0  0  0  0  0  0  0  0  0
   10.0356   -2.8823    1.1657 H   0  0  0  0  0  0  0  0  0  0  0  0
   10.8542   -3.6620   -1.0365 H   0  0  0  0  0  0  0  0  0  0  0  0
   10.1551   -3.0147   -2.5538 H   0  0  0  0  0  0  0  0  0  0  0  0
   12.4649   -2.1778   -2.2210 H   0  0  0  0  0  0  0  0  0  0  0  0
   11.2949   -0.8056   -2.1352 H   0  0  0  0  0  0  0  0  0  0  0  0
   12.0171   -1.4806   -0.6136 H   0  0  0  0  0  0  0  0  0  0  0  0
    8.4095   -1.2592   -2.4817 H   0  0  0  0  0  0  0  0  0  0  0  0
   -2.3276   -0.8476   -5.2144 H   0  0  0  0  0  0  0  0  0  0  0  0
   -1.2502    0.1543   -4.2747 H   0  0  0  0  0  0  0  0  0  0  0  0
   -0.7042   -1.2921   -6.9876 H   0  0  0  0  0  0  0  0  0  0  0  0
    0.5368   -0.2791   -6.1673 H   0  0  0  0  0  0  0  0  0  0  0  0
   -0.9805    0.4779   -6.7647 H   0  0  0  0  0  0  0  0  0  0  0  0
    0.7005    0.8481   -4.2370 H   0  0  0  0  0  0  0  0  0  0  0  0
    2.0305    1.4396   -3.3639 H   0  0  0  0  0  0  0  0  0  0  0  0
    1.4862   -0.0253   -1.3602 H   0  0  0  0  0  0  0  0  0  0  0  0
   -0.0104   -0.5571   -2.2002 H   0  0  0  0  0  0  0  0  0  0  0  0
    0.2019    1.1756   -1.7668 H   0  0  0  0  0  0  0  0  0  0  0  0
    8.1142    1.9271    0.2402 H   0  0  0  0  0  0  0  0  0  0  0  0
    8.7674    1.4839    3.0350 H   0  0  0  0  0  0  0  0  0  0  0  0
    9.9588    2.4881    3.9330 H   0  0  0  0  0  0  0  0  0  0  0  0
    8.1047    3.4355    5.3429 H   0  0  0  0  0  0  0  0  0  0  0  0
    8.2835    1.6500    5.5092 H   0  0  0  0  0  0  0  0  0  0  0  0
    6.9419    2.3132    4.5210 H   0  0  0  0  0  0  0  0  0  0  0  0
    5.9242    4.4153    4.0688 H   0  0  0  0  0  0  0  0  0  0  0  0
   -1.8416    7.6929    2.4097 H   0  0  0  0  0  0  0  0  0  0  0  0
   -2.2090    7.6370   -0.0616 H   0  0  0  0  0  0  0  0  0  0  0  0
   -0.3904    6.8991   -1.5856 H   0  0  0  0  0  0  0  0  0  0  0  0
    1.8201    6.2212   -0.6641 H   0  0  0  0  0  0  0  0  0  0  0  0
  1  2  2  3
  2  3  1  0
  3  4  2  0
  3  5  1  0
  5  6  2  0
  6  7  1  0
  7  8  1  0
  8  9  2  0
  9 10  1  0
 10 11  2  0
 11 12  1  0
 12 13  2  0
  6 14  1  0
 14 15  2  3
 15 16  1  0
 16 17  3  0
 15 18  1  0
 18 19  3  0
  1 20  1  0
 20 21  2  0
 21 22  1  0
 22 23  1  0
 23 24  1  0
 24 25  1  0
 22 26  2  0
 26 27  1  0
 26 28  1  0
 28 29  2  0
 29 30  1  0
 30 31  2  0
 31 32  1  0
 32 33  2  0
 33 34  1  0
 34 35  1  0
 35 36  1  0
 34 37  2  0
 29 38  1  0
 38 39  1  0
 39 40  1  0
 40 41  1  0
 41 42  1  0
 42 43  1  0
 43 44  2  0
 44 45  1  0
 45 46  1  0
 43 47  1  0
 47 48  1  0
 48 49  1  0
 49 50  1  0
 50 51  1  0
 51 52  1  0
 52 53  2  0
 53 54  1  0
 54 55  2  0
 55 56  1  0
 56 57  1  0
 57 58  1  0
 56 59  2  0
 51 60  2  0
 60 61  1  0
 61 62  1  0
 62 63  1  0
 63 64  1  0
 64 65  1  0
 65 66  1  0
 66 67  1  0
 67 68  1  0
 68 69  1  0
 69 70  1  0
 67 71  1  0
 71 72  1  0
 64 73  1  0
 73 74  1  0
 60 75  1  0
 75 76  2  0
 76 77  1  0
 77 78  1  0
 78 79  1  0
 79 80  1  0
 77 81  2  0
 81 82  1  0
 81 83  1  0
 83 84  2  3
 84 85  1  0
 85 86  2  0
 85 87  1  0
 87 88  2  0
 88 89  1  0
 89 90  1  0
 90 91  2  0
 91 92  1  0
 92 93  2  0
 93 94  1  0
 94 95  2  0
 88 96  1  0
 96 97  2  3
 97 98  1  0
 98 99  3  0
 97100  1  0
100101  3  0
 14  2  1  0
 27 20  1  0
 70 28  1  0
 82 75  1  0
 96 84  1  0
 13  5  1  0
 37 30  1  0
 69 38  2  0
 95 87  1  0
 13  8  1  0
 68 40  2  0
 95 90  1  0
 66 41  2  0
 46 42  2  0
 65 47  2  0
 63 48  2  0
 62 50  2  0
 59 52  1  0
  1102  1  0
  9103  1  0
 10104  1  0
 11105  1  0
 12106  1  0
 21107  1  0
 24108  1  0
 24109  1  0
 25110  1  0
 25111  1  0
 25112  1  0
 31113  1  0
 32114  1  0
 33115  1  0
 35116  1  0
 35117  1  0
 36118  1  0
 36119  1  0
 36120  1  0
 37121  1  0
 53122  1  0
 54123  1  0
 55124  1  0
 57125  1  0
 57126  1  0
 58127  1  0
 58128  1  0
 58129  1  0
 59130  1  0
 71131  1  0
 71132  1  0
 72133  1  0
 72134  1  0
 72135  1  0
 73136  1  0
 73137  1  0
 74138  1  0
 74139  1  0
 74140  1  0
 76141  1  0
 79142  1  0
 79143  1  0
 80144  1  0
 80145  1  0
 80146  1  0
 83147  1  0
 91148  1  0
 92149  1  0
 93150  1  0
 94151  1  0
M  END

