
     RDKit          3D

223248  0  0  0  0  0  0  0  0999 V2000
    5.8081    7.1876   -1.1656 C   0  0  0  0  0  0  0  0  0  0  0  0
    5.8802    8.5232   -1.3669 C   0  0  0  0  0  0  0  0  0  0  0  0
    4.8566    9.3714   -2.0407 C   0  0  0  0  0  0  0  0  0  0  0  0
    3.8067    8.9930   -2.6301 O   0  0  0  0  0  0  0  0  0  0  0  0
    5.2377   10.7515   -1.8565 C   0  0  0  0  0  0  0  0  0  0  0  0
    6.3752   10.8140   -1.1225 C   0  0  0  0  0  0  0  0  0  0  0  0
    6.8326   12.4228   -0.8626 S   0  0  0  0  0  0  0  0  0  0  0  0
    5.5072   13.0326   -1.7385 C   0  0  0  0  0  0  0  0  0  0  0  0
    5.1806   14.3663   -1.9826 C   0  0  0  0  0  0  0  0  0  0  0  0
    4.0389   14.6372   -2.7571 C   0  0  0  0  0  0  0  0  0  0  0  0
    3.2408   13.5893   -3.2561 C   0  0  0  0  0  0  0  0  0  0  0  0
    3.5791   12.2491   -2.9940 C   0  0  0  0  0  0  0  0  0  0  0  0
    4.7183   11.9922   -2.2268 C   0  0  0  0  0  0  0  0  0  0  0  0
    6.8941    9.4765   -0.7857 C   0  0  0  0  0  0  0  0  0  0  0  0
    8.0740    9.2268   -0.1676 C   0  0  0  0  0  0  0  0  0  0  0  0
    8.6254    7.8965   -0.0325 C   0  0  0  0  0  0  0  0  0  0  0  0
    9.0815    6.8425    0.0719 N   0  0  0  0  0  0  0  0  0  0  0  0
    8.9042   10.2994    0.3195 C   0  0  0  0  0  0  0  0  0  0  0  0
    9.5782   11.1597    0.7042 N   0  0  0  0  0  0  0  0  0  0  0  0
    4.7609    6.3030   -1.7076 C   0  0  0  0  0  0  0  0  0  0  0  0
    4.0634    5.3582   -0.9578 C   0  0  0  0  0  0  0  0  0  0  0  0
    3.0377    4.7190   -1.6861 C   0  0  0  0  0  0  0  0  0  0  0  0
    2.0645    3.8121   -1.1886 C   0  0  0  0  0  0  0  0  0  0  0  0
    2.0969    3.2295    0.1898 C   0  0  0  0  0  0  0  0  0  0  0  0
    2.2602    4.0405    1.3241 C   0  0  0  0  0  0  0  0  0  0  0  0
    2.2962    3.4719    2.6034 C   0  0  0  0  0  0  0  0  0  0  0  0
    2.0967    2.1057    2.7706 C   0  0  0  0  0  0  0  0  0  0  0  0
    1.8903    1.2879    1.6607 C   0  0  0  0  0  0  0  0  0  0  0  0
    1.5055   -0.4518    1.8882 S   0  0  0  0  0  0  0  0  0  0  0  0
    3.1866   -1.0833    1.5312 C   0  0  0  0  0  0  0  0  0  0  0  0
    3.1660   -1.8967    0.2452 C   0  0  0  0  0  0  0  0  0  0  0  0
    1.9154    1.8458    0.3755 C   0  0  0  0  0  0  0  0  0  0  0  0
    1.0585    3.4225   -2.1005 C   0  0  0  0  0  0  0  0  0  0  0  0
    1.0594    3.7973   -3.4507 C   0  0  0  0  0  0  0  0  0  0  0  0
    2.0679    4.6405   -3.9532 C   0  0  0  0  0  0  0  0  0  0  0  0
    2.1149    5.0480   -5.3676 C   0  0  0  0  0  0  0  0  0  0  0  0
    3.0928    4.5126   -6.2160 C   0  0  0  0  0  0  0  0  0  0  0  0
    3.1519    4.9013   -7.5565 C   0  0  0  0  0  0  0  0  0  0  0  0
    2.2327    5.8288   -8.0557 C   0  0  0  0  0  0  0  0  0  0  0  0
    1.2484    6.3600   -7.2159 C   0  0  0  0  0  0  0  0  0  0  0  0
    0.1016    7.5872   -7.8453 S   0  0  0  0  0  0  0  0  0  0  0  0
   -1.1193    6.3859   -8.4800 C   0  0  0  0  0  0  0  0  0  0  0  0
   -2.0453    5.9082   -7.3701 C   0  0  0  0  0  0  0  0  0  0  0  0
    1.1915    5.9755   -5.8708 C   0  0  0  0  0  0  0  0  0  0  0  0
    3.0238    5.1072   -3.0352 C   0  0  0  0  0  0  0  0  0  0  0  0
    4.2366    6.2394   -3.3105 S   0  0  0  0  0  0  0  0  0  0  0  0
   -0.0288    3.2782   -4.1796 C   0  0  0  0  0  0  0  0  0  0  0  0
   -0.9053    2.5533   -3.3781 C   0  0  0  0  0  0  0  0  0  0  0  0
   -0.3332    2.5322   -1.7941 S   0  0  0  0  0  0  0  0  0  0  0  0
   -2.1678    1.9337   -3.7808 C   0  0  0  0  0  0  0  0  0  0  0  0
   -2.3793    1.0177   -4.8332 C   0  0  0  0  0  0  0  0  0  0  0  0
   -1.3033    0.4088   -5.6510 C   0  0  0  0  0  0  0  0  0  0  0  0
   -0.1149   -0.0286   -5.0384 C   0  0  0  0  0  0  0  0  0  0  0  0
    0.8634   -0.6819   -5.7835 C   0  0  0  0  0  0  0  0  0  0  0  0
    0.6676   -0.9245   -7.1441 C   0  0  0  0  0  0  0  0  0  0  0  0
   -0.5127   -0.4968   -7.7753 C   0  0  0  0  0  0  0  0  0  0  0  0
   -0.7536   -0.8346   -9.2254 C   0  0  0  0  0  0  0  0  0  0  0  0
   -1.3682   -2.2227   -9.3544 C   0  0  0  0  0  0  0  0  0  0  0  0
   -1.5000    0.1592   -7.0175 C   0  0  0  0  0  0  0  0  0  0  0  0
   -3.6851    0.5070   -4.7824 C   0  0  0  0  0  0  0  0  0  0  0  0
   -4.4054   -0.8699   -5.4798 S   0  0  0  0  0  0  0  0  0  0  0  0
   -5.7344   -0.8018   -4.4274 C   0  0  0  0  0  0  0  0  0  0  0  0
   -6.5161   -1.7772   -3.8575 C   0  0  0  0  0  0  0  0  0  0  0  0
   -6.6128   -3.1330   -4.1949 C   0  0  0  0  0  0  0  0  0  0  0  0
   -7.1060   -4.0482   -3.2153 C   0  0  0  0  0  0  0  0  0  0  0  0
   -7.0958   -5.3651   -3.5410 N   0  0  0  0  0  0  0  0  0  0  0  0
   -6.4529   -5.2732   -5.0646 S   0  0  0  0  0  0  0  0  0  0  0  0
   -6.1653   -3.6675   -5.3601 N   0  0  0  0  0  0  0  0  0  0  0  0
   -7.5256   -3.5532   -1.9769 C   0  0  0  0  0  0  0  0  0  0  0  0
   -7.7453   -4.2081   -0.7924 C   0  0  0  0  0  0  0  0  0  0  0  0
   -6.9726   -5.6038   -0.2124 S   0  0  0  0  0  0  0  0  0  0  0  0
   -6.7228   -4.9221    1.3170 C   0  0  0  0  0  0  0  0  0  0  0  0
   -5.7193   -5.2124    2.2445 C   0  0  0  0  0  0  0  0  0  0  0  0
   -5.0079   -6.5016    2.2104 C   0  0  0  0  0  0  0  0  0  0  0  0
   -3.9794   -6.7096    1.2825 C   0  0  0  0  0  0  0  0  0  0  0  0
   -3.4173   -7.9780    1.1262 C   0  0  0  0  0  0  0  0  0  0  0  0
   -3.9144   -9.0610    1.8572 C   0  0  0  0  0  0  0  0  0  0  0  0
   -4.9582   -8.8706    2.7742 C   0  0  0  0  0  0  0  0  0  0  0  0
   -5.5877  -10.0550    3.4616 C   0  0  0  0  0  0  0  0  0  0  0  0
   -6.7704  -10.5804    2.6549 C   0  0  0  0  0  0  0  0  0  0  0  0
   -5.5025   -7.5880    2.9470 C   0  0  0  0  0  0  0  0  0  0  0  0
   -5.3976   -4.0858    3.0369 C   0  0  0  0  0  0  0  0  0  0  0  0
   -6.3811   -2.7845    2.5347 S   0  0  0  0  0  0  0  0  0  0  0  0
   -7.2206   -3.6432    1.3639 C   0  0  0  0  0  0  0  0  0  0  0  0
   -7.8224   -3.2315    0.1763 C   0  0  0  0  0  0  0  0  0  0  0  0
   -7.7604   -1.9849   -0.3510 N   0  0  0  0  0  0  0  0  0  0  0  0
   -7.4691   -2.1932   -1.6640 C   0  0  0  0  0  0  0  0  0  0  0  0
   -6.8625   -1.2938   -2.5834 C   0  0  0  0  0  0  0  0  0  0  0  0
   -6.2449   -0.0884   -2.3360 N   0  0  0  0  0  0  0  0  0  0  0  0
   -5.5909    0.1864   -3.4991 C   0  0  0  0  0  0  0  0  0  0  0  0
   -4.4439    0.9475   -3.7252 C   0  0  0  0  0  0  0  0  0  0  0  0
   -3.5481    2.0198   -2.8041 S   0  0  0  0  0  0  0  0  0  0  0  0
   -5.8872    0.5146   -1.0384 C   0  0  0  0  0  0  0  0  0  0  0  0
   -6.4392    1.9393   -0.9203 C   0  0  0  0  0  0  0  0  0  0  0  0
   -8.6548   -0.9225    0.1197 C   0  0  0  0  0  0  0  0  0  0  0  0
  -10.1172   -1.2654   -0.1578 C   0  0  0  0  0  0  0  0  0  0  0  0
   -4.2095   -3.8892    3.9079 C   0  0  0  0  0  0  0  0  0  0  0  0
   -2.9765   -4.5461    3.8032 C   0  0  0  0  0  0  0  0  0  0  0  0
   -1.9293   -3.8986    4.4830 C   0  0  0  0  0  0  0  0  0  0  0  0
   -0.5556   -4.2143    4.3838 C   0  0  0  0  0  0  0  0  0  0  0  0
   -0.1021   -5.4405    3.6968 C   0  0  0  0  0  0  0  0  0  0  0  0
   -0.4658   -6.6949    4.2198 C   0  0  0  0  0  0  0  0  0  0  0  0
   -0.1674   -7.8634    3.5205 C   0  0  0  0  0  0  0  0  0  0  0  0
    0.4888   -7.7931    2.2868 C   0  0  0  0  0  0  0  0  0  0  0  0
    0.8700   -6.5495    1.7654 C   0  0  0  0  0  0  0  0  0  0  0  0
    1.6210   -6.4612    0.1382 S   0  0  0  0  0  0  0  0  0  0  0  0
    3.3103   -6.8417    0.7211 C   0  0  0  0  0  0  0  0  0  0  0  0
    4.1876   -7.2187   -0.4660 C   0  0  0  0  0  0  0  0  0  0  0  0
    0.5859   -5.3733    2.4736 C   0  0  0  0  0  0  0  0  0  0  0  0
    0.3556   -3.2900    4.9321 C   0  0  0  0  0  0  0  0  0  0  0  0
   -0.0659   -2.1510    5.6266 C   0  0  0  0  0  0  0  0  0  0  0  0
   -1.4432   -1.8663    5.7732 C   0  0  0  0  0  0  0  0  0  0  0  0
   -1.9308   -0.6454    6.4475 C   0  0  0  0  0  0  0  0  0  0  0  0
   -2.8197   -0.7383    7.5281 C   0  0  0  0  0  0  0  0  0  0  0  0
   -3.3190    0.4157    8.1380 C   0  0  0  0  0  0  0  0  0  0  0  0
   -2.9519    1.6750    7.6567 C   0  0  0  0  0  0  0  0  0  0  0  0
   -2.0778    1.7793    6.5702 C   0  0  0  0  0  0  0  0  0  0  0  0
   -1.6067    3.3947    5.9445 S   0  0  0  0  0  0  0  0  0  0  0  0
   -2.9692    3.5171    4.7314 C   0  0  0  0  0  0  0  0  0  0  0  0
   -2.6452    2.7422    3.4586 C   0  0  0  0  0  0  0  0  0  0  0  0
   -1.5574    0.6217    5.9798 C   0  0  0  0  0  0  0  0  0  0  0  0
   -2.3463   -2.7570    5.1661 C   0  0  0  0  0  0  0  0  0  0  0  0
   -3.9902   -2.5296    4.8920 S   0  0  0  0  0  0  0  0  0  0  0  0
    0.9981   -1.3309    6.0326 C   0  0  0  0  0  0  0  0  0  0  0  0
    2.2448   -1.7961    5.6305 C   0  0  0  0  0  0  0  0  0  0  0  0
    2.0384   -3.2540    4.7917 S   0  0  0  0  0  0  0  0  0  0  0  0
    3.4220   -0.9151    5.5596 C   0  0  0  0  0  0  0  0  0  0  0  0
    4.7022   -1.2933    5.4505 C   0  0  0  0  0  0  0  0  0  0  0  0
    5.7255   -0.4139    4.8553 C   0  0  0  0  0  0  0  0  0  0  0  0
    5.5669    0.7944    4.5319 O   0  0  0  0  0  0  0  0  0  0  0  0
    6.9093   -1.2035    4.6395 C   0  0  0  0  0  0  0  0  0  0  0  0
    6.6982   -2.4743    5.0989 C   0  0  0  0  0  0  0  0  0  0  0  0
    8.1934   -3.2553    5.3003 S   0  0  0  0  0  0  0  0  0  0  0  0
    9.0895   -1.9473    4.6944 C   0  0  0  0  0  0  0  0  0  0  0  0
   10.4753   -1.8261    4.5939 C   0  0  0  0  0  0  0  0  0  0  0  0
   11.0058   -0.5967    4.1690 C   0  0  0  0  0  0  0  0  0  0  0  0
   10.1528    0.4846    3.8609 C   0  0  0  0  0  0  0  0  0  0  0  0
    8.7569    0.3490    3.9800 C   0  0  0  0  0  0  0  0  0  0  0  0
    8.2419   -0.8810    4.3941 C   0  0  0  0  0  0  0  0  0  0  0  0
    5.3589   -2.6154    5.7139 C   0  0  0  0  0  0  0  0  0  0  0  0
    5.0173   -3.5477    6.6286 C   0  0  0  0  0  0  0  0  0  0  0  0
    5.7923   -4.7509    6.7955 C   0  0  0  0  0  0  0  0  0  0  0  0
    6.4098   -5.7195    6.9340 N   0  0  0  0  0  0  0  0  0  0  0  0
    3.9813   -3.3058    7.6018 C   0  0  0  0  0  0  0  0  0  0  0  0
    3.1711   -3.0978    8.3964 N   0  0  0  0  0  0  0  0  0  0  0  0
    6.4634    6.7234   -0.4522 H   0  0  0  0  0  0  0  0  0  0  0  0
    5.7900   15.1715   -1.5864 H   0  0  0  0  0  0  0  0  0  0  0  0
    3.7724   15.6586   -2.9706 H   0  0  0  0  0  0  0  0  0  0  0  0
    2.3650   13.8114   -3.8506 H   0  0  0  0  0  0  0  0  0  0  0  0
    2.9710   11.4431   -3.3816 H   0  0  0  0  0  0  0  0  0  0  0  0
    4.2834    5.1830    0.0822 H   0  0  0  0  0  0  0  0  0  0  0  0
    2.3444    5.1109    1.2306 H   0  0  0  0  0  0  0  0  0  0  0  0
    2.4360    4.1082    3.4677 H   0  0  0  0  0  0  0  0  0  0  0  0
    2.0843    1.6816    3.7678 H   0  0  0  0  0  0  0  0  0  0  0  0
    3.5095   -1.7406    2.3681 H   0  0  0  0  0  0  0  0  0  0  0  0
    3.9276   -0.2592    1.4415 H   0  0  0  0  0  0  0  0  0  0  0  0
    2.5878   -2.8351    0.3957 H   0  0  0  0  0  0  0  0  0  0  0  0
    2.6913   -1.3120   -0.5729 H   0  0  0  0  0  0  0  0  0  0  0  0
    4.2015   -2.1598   -0.0626 H   0  0  0  0  0  0  0  0  0  0  0  0
    1.7873    1.1915   -0.4774 H   0  0  0  0  0  0  0  0  0  0  0  0
    3.8153    3.8006   -5.8350 H   0  0  0  0  0  0  0  0  0  0  0  0
    3.9109    4.4857   -8.2057 H   0  0  0  0  0  0  0  0  0  0  0  0
    2.2857    6.1310   -9.0939 H   0  0  0  0  0  0  0  0  0  0  0  0
   -1.7279    6.8902   -9.2577 H   0  0  0  0  0  0  0  0  0  0  0  0
   -0.6094    5.5196   -8.9542 H   0  0  0  0  0  0  0  0  0  0  0  0
   -1.4847    5.3160   -6.6223 H   0  0  0  0  0  0  0  0  0  0  0  0
   -2.5244    6.7777   -6.8693 H   0  0  0  0  0  0  0  0  0  0  0  0
   -2.8389    5.2636   -7.8052 H   0  0  0  0  0  0  0  0  0  0  0  0
    0.4416    6.4034   -5.2168 H   0  0  0  0  0  0  0  0  0  0  0  0
   -0.2001    3.4583   -5.2318 H   0  0  0  0  0  0  0  0  0  0  0  0
    0.0407    0.1014   -3.9747 H   0  0  0  0  0  0  0  0  0  0  0  0
    1.7657   -1.0323   -5.2978 H   0  0  0  0  0  0  0  0  0  0  0  0
    1.4255   -1.4624   -7.7012 H   0  0  0  0  0  0  0  0  0  0  0  0
    0.2061   -0.8031   -9.7858 H   0  0  0  0  0  0  0  0  0  0  0  0
   -1.4311   -0.0818   -9.6864 H   0  0  0  0  0  0  0  0  0  0  0  0
   -2.3163   -2.2795   -8.7778 H   0  0  0  0  0  0  0  0  0  0  0  0
   -1.5830   -2.4385  -10.4221 H   0  0  0  0  0  0  0  0  0  0  0  0
   -0.6659   -2.9929   -8.9709 H   0  0  0  0  0  0  0  0  0  0  0  0
   -2.4247    0.4625   -7.4925 H   0  0  0  0  0  0  0  0  0  0  0  0
   -3.6118   -5.8871    0.6783 H   0  0  0  0  0  0  0  0  0  0  0  0
   -2.6165   -8.1323    0.4131 H   0  0  0  0  0  0  0  0  0  0  0  0
   -3.5028  -10.0490    1.6867 H   0  0  0  0  0  0  0  0  0  0  0  0
   -4.8363  -10.8646    3.5950 H   0  0  0  0  0  0  0  0  0  0  0  0
   -5.9437   -9.7588    4.4741 H   0  0  0  0  0  0  0  0  0  0  0  0
   -7.5524   -9.7938    2.5631 H   0  0  0  0  0  0  0  0  0  0  0  0
   -7.2099  -11.4636    3.1655 H   0  0  0  0  0  0  0  0  0  0  0  0
   -6.4400  -10.8873    1.6378 H   0  0  0  0  0  0  0  0  0  0  0  0
   -6.3424   -7.4452    3.6161 H   0  0  0  0  0  0  0  0  0  0  0  0
   -6.2375   -0.0918   -0.1918 H   0  0  0  0  0  0  0  0  0  0  0  0
   -4.7885    0.5101   -0.9044 H   0  0  0  0  0  0  0  0  0  0  0  0
   -6.2092    2.3549    0.0854 H   0  0  0  0  0  0  0  0  0  0  0  0
   -7.5361    1.9628   -1.0762 H   0  0  0  0  0  0  0  0  0  0  0  0
   -5.9900    2.6037   -1.6843 H   0  0  0  0  0  0  0  0  0  0  0  0
   -8.5091   -0.7554    1.2069 H   0  0  0  0  0  0  0  0  0  0  0  0
   -8.4493    0.0268   -0.4078 H   0  0  0  0  0  0  0  0  0  0  0  0
  -10.4123   -2.2161    0.3435 H   0  0  0  0  0  0  0  0  0  0  0  0
  -10.2865   -1.3646   -1.2583 H   0  0  0  0  0  0  0  0  0  0  0  0
  -10.7700   -0.4478    0.2212 H   0  0  0  0  0  0  0  0  0  0  0  0
   -2.7980   -5.3898    3.1629 H   0  0  0  0  0  0  0  0  0  0  0  0
   -1.0068   -6.7610    5.1624 H   0  0  0  0  0  0  0  0  0  0  0  0
   -0.4648   -8.8259    3.9215 H   0  0  0  0  0  0  0  0  0  0  0  0
    0.6820   -8.6995    1.7281 H   0  0  0  0  0  0  0  0  0  0  0  0
    3.7462   -5.9575    1.2373 H   0  0  0  0  0  0  0  0  0  0  0  0
    3.2877   -7.7040    1.4237 H   0  0  0  0  0  0  0  0  0  0  0  0
    5.1917   -7.5290   -0.1141 H   0  0  0  0  0  0  0  0  0  0  0  0
    3.7286   -8.0638   -1.0232 H   0  0  0  0  0  0  0  0  0  0  0  0
    4.3129   -6.3547   -1.1499 H   0  0  0  0  0  0  0  0  0  0  0  0
    0.8495   -4.4079    2.0504 H   0  0  0  0  0  0  0  0  0  0  0  0
   -3.1168   -1.7071    7.9035 H   0  0  0  0  0  0  0  0  0  0  0  0
   -3.9936    0.3321    8.9825 H   0  0  0  0  0  0  0  0  0  0  0  0
   -3.3579    2.5623    8.1223 H   0  0  0  0  0  0  0  0  0  0  0  0
   -3.1005    4.5905    4.4732 H   0  0  0  0  0  0  0  0  0  0  0  0
   -3.9208    3.1503    5.1746 H   0  0  0  0  0  0  0  0  0  0  0  0
   -3.4208    2.9538    2.6926 H   0  0  0  0  0  0  0  0  0  0  0  0
   -2.6451    1.6479    3.6519 H   0  0  0  0  0  0  0  0  0  0  0  0
   -1.6539    3.0522    3.0586 H   0  0  0  0  0  0  0  0  0  0  0  0
   -0.8838    0.7143    5.1382 H   0  0  0  0  0  0  0  0  0  0  0  0
    0.8680   -0.3806    6.5350 H   0  0  0  0  0  0  0  0  0  0  0  0
    3.1920    0.1376    5.4345 H   0  0  0  0  0  0  0  0  0  0  0  0
   11.1276   -2.6508    4.8542 H   0  0  0  0  0  0  0  0  0  0  0  0
   12.0771   -0.4733    4.0842 H   0  0  0  0  0  0  0  0  0  0  0  0
   10.5726    1.4302    3.5398 H   0  0  0  0  0  0  0  0  0  0  0  0
    8.1015    1.1831    3.7504 H   0  0  0  0  0  0  0  0  0  0  0  0
  1  2  2  3
  2  3  1  0
  3  4  2  0
  3  5  1  0
  5  6  2  0
  6  7  1  0
  7  8  1  0
  8  9  2  0
  9 10  1  0
 10 11  2  0
 11 12  1  0
 12 13  2  0
  6 14  1  0
 14 15  2  3
 15 16  1  0
 16 17  3  0
 15 18  1  0
 18 19  3  0
  1 20  1  0
 20 21  2  0
 21 22  1  0
 22 23  2  0
 23 24  1  0
 24 25  2  0
 25 26  1  0
 26 27  2  0
 27 28  1  0
 28 29  1  0
 29 30  1  0
 30 31  1  0
 28 32  2  0
 23 33  1  0
 33 34  2  0
 34 35  1  0
 35 36  1  0
 36 37  2  0
 37 38  1  0
 38 39  2  0
 39 40  1  0
 40 41  1  0
 41 42  1  0
 42 43  1  0
 40 44  2  0
 35 45  2  0
 45 46  1  0
 34 47  1  0
 47 48  2  0
 48 49  1  0
 48 50  1  0
 50 51  2  0
 51 52  1  0
 52 53  2  0
 53 54  1  0
 54 55  2  0
 55 56  1  0
 56 57  1  0
 57 58  1  0
 56 59  2  0
 51 60  1  0
 60 61  1  0
 61 62  1  0
 62 63  1  0
 63 64  1  0
 64 65  1  0
 65 66  2  0
 66 67  1  0
 67 68  1  0
 65 69  1  0
 69 70  1  0
 70 71  1  0
 71 72  1  0
 72 73  1  0
 73 74  1  0
 74 75  2  0
 75 76  1  0
 76 77  2  0
 77 78  1  0
 78 79  1  0
 79 80  1  0
 78 81  2  0
 73 82  2  0
 82 83  1  0
 83 84  1  0
 84 85  1  0
 85 86  1  0
 86 87  1  0
 87 88  1  0
 88 89  1  0
 89 90  1  0
 90 91  1  0
 91 92  1  0
 89 93  1  0
 93 94  1  0
 86 95  1  0
 95 96  1  0
 82 97  1  0
 97 98  2  0
 98 99  1  0
 99100  2  0
100101  1  0
101102  2  0
102103  1  0
103104  2  0
104105  1  0
105106  1  0
106107  1  0
107108  1  0
105109  2  0
100110  1  0
110111  2  0
111112  1  0
112113  1  0
113114  2  0
114115  1  0
115116  2  0
116117  1  0
117118  1  0
118119  1  0
119120  1  0
117121  2  0
112122  2  0
122123  1  0
111124  1  0
124125  2  0
125126  1  0
125127  1  0
127128  2  3
128129  1  0
129130  2  0
129131  1  0
131132  2  0
132133  1  0
133134  1  0
134135  2  0
135136  1  0
136137  2  0
137138  1  0
138139  2  0
132140  1  0
140141  2  3
141142  1  0
142143  3  0
141144  1  0
144145  3  0
 14  2  1  0
 46 20  1  0
 92 50  1  0
123 97  1  0
140128  1  0
 13  5  1  0
 45 22  1  0
 59 52  1  0
 91 60  2  0
122 99  1  0
139131  1  0
 13  8  1  0
 32 24  1  0
 49 33  1  0
 90 62  2  0
109101  1  0
126110  1  0
139134  1  0
 44 36  1  0
 88 63  2  0
121113  1  0
 68 64  2  0
 87 69  2  0
 85 70  2  0
 84 72  2  0
 81 74  1  0
  1146  1  0
  9147  1  0
 10148  1  0
 11149  1  0
 12150  1  0
 21151  1  0
 25152  1  0
 26153  1  0
 27154  1  0
 30155  1  0
 30156  1  0
 31157  1  0
 31158  1  0
 31159  1  0
 32160  1  0
 37161  1  0
 38162  1  0
 39163  1  0
 42164  1  0
 42165  1  0
 43166  1  0
 43167  1  0
 43168  1  0
 44169  1  0
 47170  1  0
 53171  1  0
 54172  1  0
 55173  1  0
 57174  1  0
 57175  1  0
 58176  1  0
 58177  1  0
 58178  1  0
 59179  1  0
 75180  1  0
 76181  1  0
 77182  1  0
 79183  1  0
 79184  1  0
 80185  1  0
 80186  1  0
 80187  1  0
 81188  1  0
 93189  1  0
 93190  1  0
 94191  1  0
 94192  1  0
 94193  1  0
 95194  1  0
 95195  1  0
 96196  1  0
 96197  1  0
 96198  1  0
 98199  1  0
102200  1  0
103201  1  0
104202  1  0
107203  1  0
107204  1  0
108205  1  0
108206  1  0
108207  1  0
109208  1  0
114209  1  0
115210  1  0
116211  1  0
119212  1  0
119213  1  0
120214  1  0
120215  1  0
120216  1  0
121217  1  0
124218  1  0
127219  1  0
135220  1  0
136221  1  0
137222  1  0
138223  1  0
M  END

