
     RDKit          3D

193216  0  0  0  0  0  0  0  0999 V2000
    5.9401   -2.8854   -5.6981 C   0  0  0  0  0  0  0  0  0  0  0  0
    6.7344   -2.6444   -4.6316 C   0  0  0  0  0  0  0  0  0  0  0  0
    8.0984   -3.2103   -4.5671 C   0  0  0  0  0  0  0  0  0  0  0  0
    8.6879   -3.8313   -5.4914 O   0  0  0  0  0  0  0  0  0  0  0  0
    8.6642   -2.9074   -3.2729 C   0  0  0  0  0  0  0  0  0  0  0  0
    7.7445   -2.2111   -2.5452 C   0  0  0  0  0  0  0  0  0  0  0  0
    8.5214   -1.4123   -1.2704 S   0  0  0  0  0  0  0  0  0  0  0  0
   10.0431   -2.0589   -1.6269 C   0  0  0  0  0  0  0  0  0  0  0  0
   11.2531   -1.7918   -0.9900 C   0  0  0  0  0  0  0  0  0  0  0  0
   12.4224   -2.3414   -1.5382 C   0  0  0  0  0  0  0  0  0  0  0  0
   12.3646   -3.1201   -2.7093 C   0  0  0  0  0  0  0  0  0  0  0  0
   11.1351   -3.3681   -3.3467 C   0  0  0  0  0  0  0  0  0  0  0  0
    9.9709   -2.8372   -2.7796 C   0  0  0  0  0  0  0  0  0  0  0  0
    6.5048   -1.9411   -3.3057 C   0  0  0  0  0  0  0  0  0  0  0  0
    5.5389   -1.1006   -2.8647 C   0  0  0  0  0  0  0  0  0  0  0  0
    5.4811   -0.6961   -1.4794 C   0  0  0  0  0  0  0  0  0  0  0  0
    5.4307   -0.3684   -0.3693 N   0  0  0  0  0  0  0  0  0  0  0  0
    4.6073   -0.4110   -3.7129 C   0  0  0  0  0  0  0  0  0  0  0  0
    3.8486    0.1912   -4.3502 N   0  0  0  0  0  0  0  0  0  0  0  0
    4.5629   -2.4432   -5.8960 C   0  0  0  0  0  0  0  0  0  0  0  0
    3.4213   -2.9346   -5.2649 C   0  0  0  0  0  0  0  0  0  0  0  0
    2.2447   -2.2955   -5.7005 C   0  0  0  0  0  0  0  0  0  0  0  0
    0.9395   -2.5038   -5.2069 C   0  0  0  0  0  0  0  0  0  0  0  0
    0.6284   -3.5126   -4.1735 C   0  0  0  0  0  0  0  0  0  0  0  0
    1.1263   -3.3815   -2.8680 C   0  0  0  0  0  0  0  0  0  0  0  0
    0.7024   -4.2605   -1.8636 C   0  0  0  0  0  0  0  0  0  0  0  0
   -0.2387   -5.2571   -2.1523 C   0  0  0  0  0  0  0  0  0  0  0  0
   -0.7365   -5.3885   -3.4537 C   0  0  0  0  0  0  0  0  0  0  0  0
   -1.9532   -6.6562   -3.8307 S   0  0  0  0  0  0  0  0  0  0  0  0
   -3.4128   -5.5848   -3.5453 C   0  0  0  0  0  0  0  0  0  0  0  0
   -3.8190   -4.8748   -4.8319 C   0  0  0  0  0  0  0  0  0  0  0  0
   -0.2850   -4.5349   -4.4652 C   0  0  0  0  0  0  0  0  0  0  0  0
   -0.0585   -1.6250   -5.6674 C   0  0  0  0  0  0  0  0  0  0  0  0
    0.2005   -0.5780   -6.5585 C   0  0  0  0  0  0  0  0  0  0  0  0
    1.4842   -0.4280   -7.1254 C   0  0  0  0  0  0  0  0  0  0  0  0
    1.7976    0.6680   -8.0707 C   0  0  0  0  0  0  0  0  0  0  0  0
    1.0869    0.7858   -9.2778 C   0  0  0  0  0  0  0  0  0  0  0  0
    1.4159    1.7912  -10.1916 C   0  0  0  0  0  0  0  0  0  0  0  0
    2.4598    2.6770   -9.9132 C   0  0  0  0  0  0  0  0  0  0  0  0
    3.1696    2.5738   -8.7121 C   0  0  0  0  0  0  0  0  0  0  0  0
    4.5165    3.7135   -8.3630 S   0  0  0  0  0  0  0  0  0  0  0  0
    5.8406    2.6125   -8.9857 C   0  0  0  0  0  0  0  0  0  0  0  0
    5.8371    2.5395  -10.5094 C   0  0  0  0  0  0  0  0  0  0  0  0
    2.8233    1.5847   -7.7829 C   0  0  0  0  0  0  0  0  0  0  0  0
    2.4810   -1.3191   -6.6778 C   0  0  0  0  0  0  0  0  0  0  0  0
    4.1206   -1.3053   -7.0584 S   0  0  0  0  0  0  0  0  0  0  0  0
   -0.8535    0.3522   -6.6361 C   0  0  0  0  0  0  0  0  0  0  0  0
   -1.9449    0.0219   -5.8269 C   0  0  0  0  0  0  0  0  0  0  0  0
   -1.5886   -1.4107   -5.0136 S   0  0  0  0  0  0  0  0  0  0  0  0
   -2.7961    1.0290   -5.1894 C   0  0  0  0  0  0  0  0  0  0  0  0
   -4.1845    1.2168   -5.3606 C   0  0  0  0  0  0  0  0  0  0  0  0
   -4.9871    0.7057   -6.4872 C   0  0  0  0  0  0  0  0  0  0  0  0
   -4.9921   -0.6571   -6.8166 C   0  0  0  0  0  0  0  0  0  0  0  0
   -5.7265   -1.1057   -7.9209 C   0  0  0  0  0  0  0  0  0  0  0  0
   -6.4430   -0.1988   -8.7081 C   0  0  0  0  0  0  0  0  0  0  0  0
   -6.4279    1.1705   -8.3974 C   0  0  0  0  0  0  0  0  0  0  0  0
   -7.1619    2.1571   -9.2667 C   0  0  0  0  0  0  0  0  0  0  0  0
   -8.5604    2.4354   -8.7254 C   0  0  0  0  0  0  0  0  0  0  0  0
   -5.7224    1.6104   -7.2655 C   0  0  0  0  0  0  0  0  0  0  0  0
   -4.7119    1.9934   -4.3183 C   0  0  0  0  0  0  0  0  0  0  0  0
   -6.2988    2.2051   -3.7393 S   0  0  0  0  0  0  0  0  0  0  0  0
   -5.7440    2.9112   -2.2946 C   0  0  0  0  0  0  0  0  0  0  0  0
   -6.2017    2.9215   -1.0001 C   0  0  0  0  0  0  0  0  0  0  0  0
   -7.4075    2.4274   -0.4749 C   0  0  0  0  0  0  0  0  0  0  0  0
   -7.4858    2.1326    0.9236 C   0  0  0  0  0  0  0  0  0  0  0  0
   -8.6486    1.6052    1.3781 N   0  0  0  0  0  0  0  0  0  0  0  0
   -9.4956    1.5323   -0.0415 S   0  0  0  0  0  0  0  0  0  0  0  0
   -8.4972    2.1260   -1.2242 N   0  0  0  0  0  0  0  0  0  0  0  0
   -6.3759    2.4064    1.7297 C   0  0  0  0  0  0  0  0  0  0  0  0
   -6.1383    2.2427    3.0692 C   0  0  0  0  0  0  0  0  0  0  0  0
   -6.8282    1.5323    4.4513 S   0  0  0  0  0  0  0  0  0  0  0  0
   -5.4423    1.9263    5.3865 C   0  0  0  0  0  0  0  0  0  0  0  0
   -5.0163    1.6062    6.6830 C   0  0  0  0  0  0  0  0  0  0  0  0
   -5.7762    0.7511    7.6221 C   0  0  0  0  0  0  0  0  0  0  0  0
   -5.8671    1.0861    8.9828 C   0  0  0  0  0  0  0  0  0  0  0  0
   -6.5040    0.2259    9.8804 C   0  0  0  0  0  0  0  0  0  0  0  0
   -7.0745   -0.9676    9.4266 C   0  0  0  0  0  0  0  0  0  0  0  0
   -6.9925   -1.3153    8.0727 C   0  0  0  0  0  0  0  0  0  0  0  0
   -7.6335   -2.5820    7.5697 C   0  0  0  0  0  0  0  0  0  0  0  0
   -9.0721   -2.3196    7.1412 C   0  0  0  0  0  0  0  0  0  0  0  0
   -6.3442   -0.4535    7.1756 C   0  0  0  0  0  0  0  0  0  0  0  0
   -3.7083    2.0933    6.9118 C   0  0  0  0  0  0  0  0  0  0  0  0
   -3.1269    2.8801    5.5128 S   0  0  0  0  0  0  0  0  0  0  0  0
   -4.5217    2.6118    4.6346 C   0  0  0  0  0  0  0  0  0  0  0  0
   -4.9111    2.7601    3.3180 C   0  0  0  0  0  0  0  0  0  0  0  0
   -4.3104    3.2526    2.2116 N   0  0  0  0  0  0  0  0  0  0  0  0
   -5.1971    2.9585    1.2113 C   0  0  0  0  0  0  0  0  0  0  0  0
   -5.0608    3.0982   -0.1932 C   0  0  0  0  0  0  0  0  0  0  0  0
   -3.9176    3.0433   -0.9525 N   0  0  0  0  0  0  0  0  0  0  0  0
   -4.3781    2.9531   -2.2295 C   0  0  0  0  0  0  0  0  0  0  0  0
   -3.8015    2.4142   -3.3809 C   0  0  0  0  0  0  0  0  0  0  0  0
   -2.2912    1.8092   -3.7660 S   0  0  0  0  0  0  0  0  0  0  0  0
   -2.5930    2.5508   -0.5241 C   0  0  0  0  0  0  0  0  0  0  0  0
   -1.4656    3.4978   -0.9542 C   0  0  0  0  0  0  0  0  0  0  0  0
   -3.2738    4.2920    2.2022 C   0  0  0  0  0  0  0  0  0  0  0  0
   -3.7605    5.5627    2.8938 C   0  0  0  0  0  0  0  0  0  0  0  0
   -2.8171    1.7334    8.0281 C   0  0  0  0  0  0  0  0  0  0  0  0
   -2.7020    0.1689    8.6959 S   0  0  0  0  0  0  0  0  0  0  0  0
   -1.2848    0.4880    9.5290 C   0  0  0  0  0  0  0  0  0  0  0  0
   -0.1786   -0.2834    9.7683 C   0  0  0  0  0  0  0  0  0  0  0  0
    0.9034    0.5101    9.5307 C   0  0  0  0  0  0  0  0  0  0  0  0
    0.5325    1.7845    9.2189 N   0  0  0  0  0  0  0  0  0  0  0  0
    1.3725    2.7994    8.5744 C   0  0  0  0  0  0  0  0  0  0  0  0
    1.4572    2.5769    7.0613 C   0  0  0  0  0  0  0  0  0  0  0  0
   -0.8260    1.7342    9.2018 C   0  0  0  0  0  0  0  0  0  0  0  0
   -1.6860    2.4725    8.3863 C   0  0  0  0  0  0  0  0  0  0  0  0
    2.0491   -0.1759    9.1030 C   0  0  0  0  0  0  0  0  0  0  0  0
    1.8184   -1.5601    9.0158 C   0  0  0  0  0  0  0  0  0  0  0  0
    0.1879   -1.8724    9.3986 S   0  0  0  0  0  0  0  0  0  0  0  0
    2.6446   -2.5836    8.3282 C   0  0  0  0  0  0  0  0  0  0  0  0
    3.8242   -2.3842    7.7089 C   0  0  0  0  0  0  0  0  0  0  0  0
    4.1173   -3.0314    6.4206 C   0  0  0  0  0  0  0  0  0  0  0  0
    3.5499   -4.0497    5.9420 O   0  0  0  0  0  0  0  0  0  0  0  0
    5.1131   -2.2160    5.7462 C   0  0  0  0  0  0  0  0  0  0  0  0
    5.4993   -1.2015    6.5628 C   0  0  0  0  0  0  0  0  0  0  0  0
    6.7989   -0.3580    5.8900 S   0  0  0  0  0  0  0  0  0  0  0  0
    6.7853   -1.2906    4.4710 C   0  0  0  0  0  0  0  0  0  0  0  0
    7.6428   -1.1934    3.3757 C   0  0  0  0  0  0  0  0  0  0  0  0
    7.4695   -2.1002    2.3183 C   0  0  0  0  0  0  0  0  0  0  0  0
    6.4505   -3.0719    2.3626 C   0  0  0  0  0  0  0  0  0  0  0  0
    5.6151   -3.1782    3.4886 C   0  0  0  0  0  0  0  0  0  0  0  0
    5.7986   -2.2735    4.5365 C   0  0  0  0  0  0  0  0  0  0  0  0
    4.8111   -1.2652    7.8623 C   0  0  0  0  0  0  0  0  0  0  0  0
    5.2563   -0.7254    9.0166 C   0  0  0  0  0  0  0  0  0  0  0  0
    6.2655    0.3029    9.0135 C   0  0  0  0  0  0  0  0  0  0  0  0
    7.0693    1.1371    9.0032 N   0  0  0  0  0  0  0  0  0  0  0  0
    4.7868   -1.1886   10.2994 C   0  0  0  0  0  0  0  0  0  0  0  0
    4.4117   -1.5679   11.3259 N   0  0  0  0  0  0  0  0  0  0  0  0
    6.3704   -3.4025   -6.5466 H   0  0  0  0  0  0  0  0  0  0  0  0
   11.2904   -1.1652   -0.1070 H   0  0  0  0  0  0  0  0  0  0  0  0
   13.3793   -2.1485   -1.0688 H   0  0  0  0  0  0  0  0  0  0  0  0
   13.2749   -3.5310   -3.1232 H   0  0  0  0  0  0  0  0  0  0  0  0
   11.0995   -3.9664   -4.2498 H   0  0  0  0  0  0  0  0  0  0  0  0
    3.4492   -3.7020   -4.5008 H   0  0  0  0  0  0  0  0  0  0  0  0
    1.8116   -2.5805   -2.6246 H   0  0  0  0  0  0  0  0  0  0  0  0
    1.0865   -4.1548   -0.8599 H   0  0  0  0  0  0  0  0  0  0  0  0
   -0.5808   -5.9170   -1.3639 H   0  0  0  0  0  0  0  0  0  0  0  0
   -4.2544   -6.2335   -3.2147 H   0  0  0  0  0  0  0  0  0  0  0  0
   -3.2104   -4.8433   -2.7408 H   0  0  0  0  0  0  0  0  0  0  0  0
   -3.0051   -4.2138   -5.1831 H   0  0  0  0  0  0  0  0  0  0  0  0
   -4.0416   -5.6248   -5.6201 H   0  0  0  0  0  0  0  0  0  0  0  0
   -4.7233   -4.2558   -4.6571 H   0  0  0  0  0  0  0  0  0  0  0  0
   -0.6705   -4.6469   -5.4722 H   0  0  0  0  0  0  0  0  0  0  0  0
    0.2926    0.0928   -9.5123 H   0  0  0  0  0  0  0  0  0  0  0  0
    0.8708    1.8759  -11.1234 H   0  0  0  0  0  0  0  0  0  0  0  0
    2.7223    3.4412  -10.6356 H   0  0  0  0  0  0  0  0  0  0  0  0
    6.8135    3.0330   -8.6558 H   0  0  0  0  0  0  0  0  0  0  0  0
    5.7346    1.5974   -8.5404 H   0  0  0  0  0  0  0  0  0  0  0  0
    5.0274    1.8670  -10.8530 H   0  0  0  0  0  0  0  0  0  0  0  0
    5.6902    3.5510  -10.9446 H   0  0  0  0  0  0  0  0  0  0  0  0
    6.8055    2.1331  -10.8709 H   0  0  0  0  0  0  0  0  0  0  0  0
    3.3616    1.5254   -6.8466 H   0  0  0  0  0  0  0  0  0  0  0  0
   -0.7630    1.3055   -7.1406 H   0  0  0  0  0  0  0  0  0  0  0  0
   -4.4412   -1.3700   -6.2189 H   0  0  0  0  0  0  0  0  0  0  0  0
   -5.7290   -2.1579   -8.1768 H   0  0  0  0  0  0  0  0  0  0  0  0
   -6.9958   -0.5602   -9.5664 H   0  0  0  0  0  0  0  0  0  0  0  0
   -6.5920    3.1112   -9.3222 H   0  0  0  0  0  0  0  0  0  0  0  0
   -7.2464    1.7699  -10.3071 H   0  0  0  0  0  0  0  0  0  0  0  0
   -9.1556    1.4975   -8.6956 H   0  0  0  0  0  0  0  0  0  0  0  0
   -8.5027    2.8726   -7.7044 H   0  0  0  0  0  0  0  0  0  0  0  0
   -9.0748    3.1593   -9.3917 H   0  0  0  0  0  0  0  0  0  0  0  0
   -5.7183    2.6664   -7.0194 H   0  0  0  0  0  0  0  0  0  0  0  0
   -5.4281    2.0032    9.3485 H   0  0  0  0  0  0  0  0  0  0  0  0
   -6.5472    0.4761   10.9301 H   0  0  0  0  0  0  0  0  0  0  0  0
   -7.5748   -1.6177   10.1372 H   0  0  0  0  0  0  0  0  0  0  0  0
   -7.0644   -2.9805    6.7048 H   0  0  0  0  0  0  0  0  0  0  0  0
   -7.6208   -3.3612    8.3645 H   0  0  0  0  0  0  0  0  0  0  0  0
   -9.5219   -3.2481    6.7319 H   0  0  0  0  0  0  0  0  0  0  0  0
   -9.0950   -1.5374    6.3475 H   0  0  0  0  0  0  0  0  0  0  0  0
   -9.6715   -1.9809    8.0133 H   0  0  0  0  0  0  0  0  0  0  0  0
   -6.2657   -0.7390    6.1336 H   0  0  0  0  0  0  0  0  0  0  0  0
   -2.5462    2.3767    0.5689 H   0  0  0  0  0  0  0  0  0  0  0  0
   -2.4220    1.5492   -0.9692 H   0  0  0  0  0  0  0  0  0  0  0  0
   -1.3839    4.3620   -0.2730 H   0  0  0  0  0  0  0  0  0  0  0  0
   -0.4945    2.9559   -0.9191 H   0  0  0  0  0  0  0  0  0  0  0  0
   -1.6289    3.8804   -1.9827 H   0  0  0  0  0  0  0  0  0  0  0  0
   -3.0303    4.5723    1.1640 H   0  0  0  0  0  0  0  0  0  0  0  0
   -2.3559    3.9173    2.7012 H   0  0  0  0  0  0  0  0  0  0  0  0
   -3.9611    5.3853    3.9724 H   0  0  0  0  0  0  0  0  0  0  0  0
   -2.9900    6.3572    2.7982 H   0  0  0  0  0  0  0  0  0  0  0  0
   -4.6976    5.9089    2.4085 H   0  0  0  0  0  0  0  0  0  0  0  0
    0.9480    3.8057    8.7776 H   0  0  0  0  0  0  0  0  0  0  0  0
    2.3975    2.7720    9.0072 H   0  0  0  0  0  0  0  0  0  0  0  0
    1.9996    3.4290    6.6070 H   0  0  0  0  0  0  0  0  0  0  0  0
    0.4432    2.5173    6.6166 H   0  0  0  0  0  0  0  0  0  0  0  0
    2.0046    1.6428    6.8288 H   0  0  0  0  0  0  0  0  0  0  0  0
   -1.4249    3.4216    7.9323 H   0  0  0  0  0  0  0  0  0  0  0  0
    2.9058    0.3385    8.7026 H   0  0  0  0  0  0  0  0  0  0  0  0
    2.1251   -3.5118    8.1105 H   0  0  0  0  0  0  0  0  0  0  0  0
    8.4260   -0.4490    3.3467 H   0  0  0  0  0  0  0  0  0  0  0  0
    8.1321   -2.0543    1.4688 H   0  0  0  0  0  0  0  0  0  0  0  0
    6.3285   -3.7623    1.5379 H   0  0  0  0  0  0  0  0  0  0  0  0
    4.8514   -3.9488    3.5363 H   0  0  0  0  0  0  0  0  0  0  0  0
  1  2  2  3
  2  3  1  0
  3  4  2  0
  3  5  1  0
  5  6  2  0
  6  7  1  0
  7  8  1  0
  8  9  2  0
  9 10  1  0
 10 11  2  0
 11 12  1  0
 12 13  2  0
  6 14  1  0
 14 15  2  3
 15 16  1  0
 16 17  3  0
 15 18  1  0
 18 19  3  0
  1 20  1  0
 20 21  2  0
 21 22  1  0
 22 23  2  0
 23 24  1  0
 24 25  2  0
 25 26  1  0
 26 27  2  0
 27 28  1  0
 28 29  1  0
 29 30  1  0
 30 31  1  0
 28 32  2  0
 23 33  1  0
 33 34  2  0
 34 35  1  0
 35 36  1  0
 36 37  2  0
 37 38  1  0
 38 39  2  0
 39 40  1  0
 40 41  1  0
 41 42  1  0
 42 43  1  0
 40 44  2  0
 35 45  2  0
 45 46  1  0
 34 47  1  0
 47 48  2  0
 48 49  1  0
 48 50  1  0
 50 51  2  0
 51 52  1  0
 52 53  2  0
 53 54  1  0
 54 55  2  0
 55 56  1  0
 56 57  1  0
 57 58  1  0
 56 59  2  0
 51 60  1  0
 60 61  1  0
 61 62  1  0
 62 63  1  0
 63 64  1  0
 64 65  1  0
 65 66  2  0
 66 67  1  0
 67 68  1  0
 65 69  1  0
 69 70  1  0
 70 71  1  0
 71 72  1  0
 72 73  1  0
 73 74  1  0
 74 75  2  0
 75 76  1  0
 76 77  2  0
 77 78  1  0
 78 79  1  0
 79 80  1  0
 78 81  2  0
 73 82  2  0
 82 83  1  0
 83 84  1  0
 84 85  1  0
 85 86  1  0
 86 87  1  0
 87 88  1  0
 88 89  1  0
 89 90  1  0
 90 91  1  0
 91 92  1  0
 89 93  1  0
 93 94  1  0
 86 95  1  0
 95 96  1  0
 82 97  1  0
 97 98  1  0
 98 99  1  0
 99100  1  0
100101  2  0
101102  1  0
102103  1  0
103104  1  0
102105  1  0
105106  1  0
101107  1  0
107108  2  0
108109  1  0
108110  1  0
110111  2  3
111112  1  0
112113  2  0
112114  1  0
114115  2  0
115116  1  0
116117  1  0
117118  2  0
118119  1  0
119120  2  0
120121  1  0
121122  2  0
115123  1  0
123124  2  3
124125  1  0
125126  3  0
124127  1  0
127128  3  0
 14  2  1  0
 46 20  1  0
 92 50  1  0
106 97  2  0
123111  1  0
 13  5  1  0
 45 22  1  0
 59 52  1  0
 91 60  2  0
105 99  2  0
122114  1  0
 13  8  1  0
 32 24  1  0
 49 33  1  0
 90 62  2  0
109100  1  0
122117  1  0
 44 36  1  0
 88 63  2  0
 68 64  2  0
 87 69  2  0
 85 70  2  0
 84 72  2  0
 81 74  1  0
  1129  1  0
  9130  1  0
 10131  1  0
 11132  1  0
 12133  1  0
 21134  1  0
 25135  1  0
 26136  1  0
 27137  1  0
 30138  1  0
 30139  1  0
 31140  1  0
 31141  1  0
 31142  1  0
 32143  1  0
 37144  1  0
 38145  1  0
 39146  1  0
 42147  1  0
 42148  1  0
 43149  1  0
 43150  1  0
 43151  1  0
 44152  1  0
 47153  1  0
 53154  1  0
 54155  1  0
 55156  1  0
 57157  1  0
 57158  1  0
 58159  1  0
 58160  1  0
 58161  1  0
 59162  1  0
 75163  1  0
 76164  1  0
 77165  1  0
 79166  1  0
 79167  1  0
 80168  1  0
 80169  1  0
 80170  1  0
 81171  1  0
 93172  1  0
 93173  1  0
 94174  1  0
 94175  1  0
 94176  1  0
 95177  1  0
 95178  1  0
 96179  1  0
 96180  1  0
 96181  1  0
103182  1  0
103183  1  0
104184  1  0
104185  1  0
104186  1  0
106187  1  0
107188  1  0
110189  1  0
118190  1  0
119191  1  0
120192  1  0
121193  1  0
M  END

