
     RDKit          3D

199219  0  0  0  0  0  0  0  0999 V2000
    0.1524   -5.5814    6.1240 C   0  0  0  0  0  0  0  0  0  0  0  0
    1.1091   -4.7787    6.6108 C   0  0  0  0  0  0  0  0  0  0  0  0
    1.6059   -4.7831    7.9910 C   0  0  0  0  0  0  0  0  0  0  0  0
    1.1675   -5.4959    8.9321 O   0  0  0  0  0  0  0  0  0  0  0  0
    2.7132   -3.8384    8.0844 C   0  0  0  0  0  0  0  0  0  0  0  0
    3.4952   -3.4935    9.1875 C   0  0  0  0  0  0  0  0  0  0  0  0
    4.5196   -2.5439    9.0103 C   0  0  0  0  0  0  0  0  0  0  0  0
    5.5061   -2.0918   10.3965 Cl  0  0  0  0  0  0  0  0  0  0  0  0
    4.7418   -1.9633    7.7355 C   0  0  0  0  0  0  0  0  0  0  0  0
    6.0124   -0.7712    7.4867 Cl  0  0  0  0  0  0  0  0  0  0  0  0
    3.9389   -2.3330    6.6413 C   0  0  0  0  0  0  0  0  0  0  0  0
    2.9263   -3.2695    6.8460 C   0  0  0  0  0  0  0  0  0  0  0  0
    1.9726   -3.8222    5.8929 C   0  0  0  0  0  0  0  0  0  0  0  0
    1.9537   -3.5682    4.6597 O   0  0  0  0  0  0  0  0  0  0  0  0
   -0.2520   -5.5750    4.7129 C   0  0  0  0  0  0  0  0  0  0  0  0
   -0.0851   -6.6461    3.8258 C   0  0  0  0  0  0  0  0  0  0  0  0
    0.5178   -7.9019    4.1701 N   0  0  0  0  0  0  0  0  0  0  0  0
    1.8787   -8.1234    3.7673 C   0  0  0  0  0  0  0  0  0  0  0  0
    2.9027   -7.3099    4.2709 C   0  0  0  0  0  0  0  0  0  0  0  0
    4.2320   -7.5419    3.9059 C   0  0  0  0  0  0  0  0  0  0  0  0
    4.5549   -8.5981    3.0383 C   0  0  0  0  0  0  0  0  0  0  0  0
    5.9818   -8.8243    2.6313 C   0  0  0  0  0  0  0  0  0  0  0  0
    3.5250   -9.3955    2.5147 C   0  0  0  0  0  0  0  0  0  0  0  0
    2.1952   -9.1632    2.8790 C   0  0  0  0  0  0  0  0  0  0  0  0
   -0.2459   -8.9189    4.8644 C   0  0  0  0  0  0  0  0  0  0  0  0
    0.4038   -9.9846    5.5198 C   0  0  0  0  0  0  0  0  0  0  0  0
   -0.3327  -10.9594    6.1999 C   0  0  0  0  0  0  0  0  0  0  0  0
   -1.7327  -10.9014    6.2272 C   0  0  0  0  0  0  0  0  0  0  0  0
   -2.5132  -11.9246    6.9971 C   0  0  0  0  0  0  0  0  0  0  0  0
   -2.3882   -9.8276    5.6032 C   0  0  0  0  0  0  0  0  0  0  0  0
   -1.6551   -8.8507    4.9236 C   0  0  0  0  0  0  0  0  0  0  0  0
   -0.4724   -6.3027    2.5416 C   0  0  0  0  0  0  0  0  0  0  0  0
   -0.3744   -7.0483    1.0469 S   0  0  0  0  0  0  0  0  0  0  0  0
   -0.9674   -5.6976    0.1804 C   0  0  0  0  0  0  0  0  0  0  0  0
   -1.2425   -4.6545    1.0969 C   0  0  0  0  0  0  0  0  0  0  0  0
   -1.6835   -3.3303    0.7462 N   0  0  0  0  0  0  0  0  0  0  0  0
   -0.7043   -2.2754    0.5623 C   0  0  0  0  0  0  0  0  0  0  0  0
   -0.9810   -0.9580    0.9732 C   0  0  0  0  0  0  0  0  0  0  0  0
   -0.0723    0.0738    0.7218 C   0  0  0  0  0  0  0  0  0  0  0  0
    1.1417   -0.1962    0.0763 C   0  0  0  0  0  0  0  0  0  0  0  0
    2.1267    0.9059   -0.1783 C   0  0  0  0  0  0  0  0  0  0  0  0
    1.4549   -1.5170   -0.2750 C   0  0  0  0  0  0  0  0  0  0  0  0
    0.5433   -2.5469   -0.0273 C   0  0  0  0  0  0  0  0  0  0  0  0
   -3.1079   -3.0713    0.6355 C   0  0  0  0  0  0  0  0  0  0  0  0
   -3.5946   -2.1034   -0.2650 C   0  0  0  0  0  0  0  0  0  0  0  0
   -4.9649   -1.8494   -0.3675 C   0  0  0  0  0  0  0  0  0  0  0  0
   -5.8760   -2.5545    0.4312 C   0  0  0  0  0  0  0  0  0  0  0  0
   -7.3491   -2.2943    0.3207 C   0  0  0  0  0  0  0  0  0  0  0  0
   -5.4042   -3.5468    1.2971 C   0  0  0  0  0  0  0  0  0  0  0  0
   -4.0344   -3.8005    1.4061 C   0  0  0  0  0  0  0  0  0  0  0  0
   -0.9467   -5.0382    2.3999 C   0  0  0  0  0  0  0  0  0  0  0  0
   -0.9152   -4.2393    3.8762 S   0  0  0  0  0  0  0  0  0  0  0  0
   -0.8840   -5.5409   -1.2846 C   0  0  0  0  0  0  0  0  0  0  0  0
    0.2355   -5.9000   -2.0680 C   0  0  0  0  0  0  0  0  0  0  0  0
    1.3567   -6.7315   -1.6045 C   0  0  0  0  0  0  0  0  0  0  0  0
    2.4681   -6.1580   -0.9713 C   0  0  0  0  0  0  0  0  0  0  0  0
    3.5264   -6.9696   -0.5446 C   0  0  0  0  0  0  0  0  0  0  0  0
    3.4851   -8.3487   -0.7602 C   0  0  0  0  0  0  0  0  0  0  0  0
    2.3664   -8.9346   -1.3751 C   0  0  0  0  0  0  0  0  0  0  0  0
    2.3083  -10.4237   -1.5973 C   0  0  0  0  0  0  0  0  0  0  0  0
    2.5550  -10.7749   -3.0615 C   0  0  0  0  0  0  0  0  0  0  0  0
    1.3092   -8.1167   -1.8042 C   0  0  0  0  0  0  0  0  0  0  0  0
    0.2652   -5.2038   -3.2786 C   0  0  0  0  0  0  0  0  0  0  0  0
    1.6146   -4.6799   -4.1813 S   0  0  0  0  0  0  0  0  0  0  0  0
    0.7330   -3.4059   -4.8645 C   0  0  0  0  0  0  0  0  0  0  0  0
    1.0768   -2.1160   -5.1810 C   0  0  0  0  0  0  0  0  0  0  0  0
    2.2907   -1.5584   -5.5994 C   0  0  0  0  0  0  0  0  0  0  0  0
    2.3765   -0.1443   -5.7607 C   0  0  0  0  0  0  0  0  0  0  0  0
    3.5713    0.3622   -6.1574 N   0  0  0  0  0  0  0  0  0  0  0  0
    4.4353   -1.0476   -6.2889 S   0  0  0  0  0  0  0  0  0  0  0  0
    3.4089   -2.2788   -5.8664 N   0  0  0  0  0  0  0  0  0  0  0  0
    1.2595    0.6385   -5.4387 C   0  0  0  0  0  0  0  0  0  0  0  0
    1.1475    1.9849   -5.2534 C   0  0  0  0  0  0  0  0  0  0  0  0
    2.2079    3.3113   -5.1736 S   0  0  0  0  0  0  0  0  0  0  0  0
    1.0408    4.2279   -4.3331 C   0  0  0  0  0  0  0  0  0  0  0  0
    1.0386    5.5100   -3.7828 C   0  0  0  0  0  0  0  0  0  0  0  0
    2.2394    6.3587   -3.6812 C   0  0  0  0  0  0  0  0  0  0  0  0
    3.3005    5.9569   -2.8581 C   0  0  0  0  0  0  0  0  0  0  0  0
    4.4548    6.7365   -2.7682 C   0  0  0  0  0  0  0  0  0  0  0  0
    4.5549    7.9278   -3.4868 C   0  0  0  0  0  0  0  0  0  0  0  0
    3.4950    8.3475   -4.3065 C   0  0  0  0  0  0  0  0  0  0  0  0
    3.6148    9.6123   -5.1111 C   0  0  0  0  0  0  0  0  0  0  0  0
    4.2039    9.3233   -6.4876 C   0  0  0  0  0  0  0  0  0  0  0  0
    2.3445    7.5491   -4.4126 C   0  0  0  0  0  0  0  0  0  0  0  0
   -0.1841    5.7648   -3.1299 C   0  0  0  0  0  0  0  0  0  0  0  0
   -1.1856    4.3899   -3.2021 S   0  0  0  0  0  0  0  0  0  0  0  0
   -0.0909    3.4930   -4.0933 C   0  0  0  0  0  0  0  0  0  0  0  0
   -0.0266    2.2079   -4.6094 C   0  0  0  0  0  0  0  0  0  0  0  0
   -0.6911    1.0594   -4.3122 N   0  0  0  0  0  0  0  0  0  0  0  0
    0.0770    0.0866   -4.9165 C   0  0  0  0  0  0  0  0  0  0  0  0
   -0.0434   -1.3299   -4.8698 C   0  0  0  0  0  0  0  0  0  0  0  0
   -1.0771   -2.1163   -4.4509 N   0  0  0  0  0  0  0  0  0  0  0  0
   -0.5502   -3.3631   -4.4016 C   0  0  0  0  0  0  0  0  0  0  0  0
   -0.8157   -4.3818   -3.4989 C   0  0  0  0  0  0  0  0  0  0  0  0
   -1.8113   -4.4121   -2.1587 S   0  0  0  0  0  0  0  0  0  0  0  0
   -2.5120   -1.8039   -4.4390 C   0  0  0  0  0  0  0  0  0  0  0  0
   -3.3193   -2.8032   -5.2654 C   0  0  0  0  0  0  0  0  0  0  0  0
   -1.5116    0.9038   -3.0990 C   0  0  0  0  0  0  0  0  0  0  0  0
   -2.9589    1.3426   -3.3317 C   0  0  0  0  0  0  0  0  0  0  0  0
   -0.6130    7.0234   -2.5066 C   0  0  0  0  0  0  0  0  0  0  0  0
   -0.8048    7.0684   -1.1184 C   0  0  0  0  0  0  0  0  0  0  0  0
   -1.4097    8.1855   -0.5142 C   0  0  0  0  0  0  0  0  0  0  0  0
   -1.6788    8.2394    0.8624 O   0  0  0  0  0  0  0  0  0  0  0  0
   -1.4470    7.1778    1.7807 C   0  0  0  0  0  0  0  0  0  0  0  0
   -1.9673    7.5802    3.1499 C   0  0  0  0  0  0  0  0  0  0  0  0
   -1.7799    9.2806   -1.3140 C   0  0  0  0  0  0  0  0  0  0  0  0
   -1.5588    9.2507   -2.6955 C   0  0  0  0  0  0  0  0  0  0  0  0
   -1.0179    8.1062   -3.3107 C   0  0  0  0  0  0  0  0  0  0  0  0
   -0.9306    7.9829   -4.7101 O   0  0  0  0  0  0  0  0  0  0  0  0
   -1.4096    8.9354   -5.6573 C   0  0  0  0  0  0  0  0  0  0  0  0
   -0.4117   10.0720   -5.8481 C   0  0  0  0  0  0  0  0  0  0  0  0
   -2.5028   10.4194   -0.7314 C   0  0  0  0  0  0  0  0  0  0  0  0
   -3.8229   10.3781   -0.5020 C   0  0  0  0  0  0  0  0  0  0  0  0
   -4.6326   11.4500    0.0870 C   0  0  0  0  0  0  0  0  0  0  0  0
   -4.2075   12.5694    0.4797 O   0  0  0  0  0  0  0  0  0  0  0  0
   -6.0178   10.9926    0.1481 C   0  0  0  0  0  0  0  0  0  0  0  0
   -7.1501   11.6501    0.6272 C   0  0  0  0  0  0  0  0  0  0  0  0
   -8.3876   10.9838    0.5674 C   0  0  0  0  0  0  0  0  0  0  0  0
   -9.8196   11.8020    1.1731 Cl  0  0  0  0  0  0  0  0  0  0  0  0
   -8.4686    9.6748    0.0265 C   0  0  0  0  0  0  0  0  0  0  0  0
  -10.0022    8.8229   -0.0599 Cl  0  0  0  0  0  0  0  0  0  0  0  0
   -7.3124    9.0374   -0.4509 C   0  0  0  0  0  0  0  0  0  0  0  0
   -6.0980    9.7181   -0.3753 C   0  0  0  0  0  0  0  0  0  0  0  0
   -4.7694    9.2866   -0.7935 C   0  0  0  0  0  0  0  0  0  0  0  0
   -4.4952    8.1759   -1.3201 O   0  0  0  0  0  0  0  0  0  0  0  0
   -0.2945   -6.3265    6.7729 H   0  0  0  0  0  0  0  0  0  0  0  0
    3.3198   -3.9445   10.1535 H   0  0  0  0  0  0  0  0  0  0  0  0
    4.0995   -1.8967    5.6642 H   0  0  0  0  0  0  0  0  0  0  0  0
    2.6765   -6.5050    4.9549 H   0  0  0  0  0  0  0  0  0  0  0  0
    5.0122   -6.9084    4.3101 H   0  0  0  0  0  0  0  0  0  0  0  0
    6.1331   -9.8670    2.2824 H   0  0  0  0  0  0  0  0  0  0  0  0
    6.2444   -8.1278    1.8102 H   0  0  0  0  0  0  0  0  0  0  0  0
    6.6614   -8.6485    3.4934 H   0  0  0  0  0  0  0  0  0  0  0  0
    3.7499  -10.1997    1.8256 H   0  0  0  0  0  0  0  0  0  0  0  0
    1.4124   -9.7843    2.4684 H   0  0  0  0  0  0  0  0  0  0  0  0
    1.4843  -10.0615    5.5230 H   0  0  0  0  0  0  0  0  0  0  0  0
    0.1927  -11.7637    6.7036 H   0  0  0  0  0  0  0  0  0  0  0  0
   -2.5510  -11.6343    8.0662 H   0  0  0  0  0  0  0  0  0  0  0  0
   -2.0350  -12.9223    6.9061 H   0  0  0  0  0  0  0  0  0  0  0  0
   -3.5517  -12.0035    6.6069 H   0  0  0  0  0  0  0  0  0  0  0  0
   -3.4696   -9.7449    5.6474 H   0  0  0  0  0  0  0  0  0  0  0  0
   -2.1948   -8.0425    4.4450 H   0  0  0  0  0  0  0  0  0  0  0  0
   -1.9096   -0.7225    1.4750 H   0  0  0  0  0  0  0  0  0  0  0  0
   -0.3163    1.0833    1.0291 H   0  0  0  0  0  0  0  0  0  0  0  0
    2.8095    0.9949    0.6927 H   0  0  0  0  0  0  0  0  0  0  0  0
    1.6016    1.8734   -0.3281 H   0  0  0  0  0  0  0  0  0  0  0  0
    2.7244    0.6928   -1.0908 H   0  0  0  0  0  0  0  0  0  0  0  0
    2.4023   -1.7521   -0.7438 H   0  0  0  0  0  0  0  0  0  0  0  0
    0.8062   -3.5485   -0.3218 H   0  0  0  0  0  0  0  0  0  0  0  0
   -2.9152   -1.5493   -0.9019 H   0  0  0  0  0  0  0  0  0  0  0  0
   -5.3149   -1.0959   -1.0618 H   0  0  0  0  0  0  0  0  0  0  0  0
   -7.5433   -1.2583   -0.0306 H   0  0  0  0  0  0  0  0  0  0  0  0
   -7.8339   -2.4144    1.3133 H   0  0  0  0  0  0  0  0  0  0  0  0
   -7.8059   -3.0122   -0.3934 H   0  0  0  0  0  0  0  0  0  0  0  0
   -6.0944   -4.1197    1.9023 H   0  0  0  0  0  0  0  0  0  0  0  0
   -3.7057   -4.5622    2.0966 H   0  0  0  0  0  0  0  0  0  0  0  0
    2.5258   -5.0874   -0.8152 H   0  0  0  0  0  0  0  0  0  0  0  0
    4.3886   -6.5237   -0.0642 H   0  0  0  0  0  0  0  0  0  0  0  0
    4.3189   -8.9569   -0.4409 H   0  0  0  0  0  0  0  0  0  0  0  0
    3.0658  -10.9415   -0.9690 H   0  0  0  0  0  0  0  0  0  0  0  0
    1.3085  -10.8039   -1.2912 H   0  0  0  0  0  0  0  0  0  0  0  0
    3.5542  -10.4066   -3.3827 H   0  0  0  0  0  0  0  0  0  0  0  0
    1.7710  -10.3214   -3.7100 H   0  0  0  0  0  0  0  0  0  0  0  0
    2.5227  -11.8797   -3.1880 H   0  0  0  0  0  0  0  0  0  0  0  0
    0.4485   -8.5618   -2.2906 H   0  0  0  0  0  0  0  0  0  0  0  0
    3.2322    5.0362   -2.2916 H   0  0  0  0  0  0  0  0  0  0  0  0
    5.2732    6.4133   -2.1370 H   0  0  0  0  0  0  0  0  0  0  0  0
    5.4578    8.5209   -3.4093 H   0  0  0  0  0  0  0  0  0  0  0  0
    2.6177   10.0819   -5.2326 H   0  0  0  0  0  0  0  0  0  0  0  0
    4.2593   10.3471   -4.5857 H   0  0  0  0  0  0  0  0  0  0  0  0
    3.5668    8.5954   -7.0399 H   0  0  0  0  0  0  0  0  0  0  0  0
    5.2333    8.9074   -6.3896 H   0  0  0  0  0  0  0  0  0  0  0  0
    4.2551   10.2666   -7.0775 H   0  0  0  0  0  0  0  0  0  0  0  0
    1.5493    7.8443   -5.0810 H   0  0  0  0  0  0  0  0  0  0  0  0
   -2.8930   -1.8044   -3.3971 H   0  0  0  0  0  0  0  0  0  0  0  0
   -2.6743   -0.8170   -4.9071 H   0  0  0  0  0  0  0  0  0  0  0  0
   -3.3126   -3.8080   -4.7904 H   0  0  0  0  0  0  0  0  0  0  0  0
   -4.3724   -2.4615   -5.3356 H   0  0  0  0  0  0  0  0  0  0  0  0
   -2.8987   -2.8795   -6.2894 H   0  0  0  0  0  0  0  0  0  0  0  0
   -1.0744    1.5024   -2.2713 H   0  0  0  0  0  0  0  0  0  0  0  0
   -1.4698   -0.1375   -2.7256 H   0  0  0  0  0  0  0  0  0  0  0  0
   -3.2209    1.3289   -4.4095 H   0  0  0  0  0  0  0  0  0  0  0  0
   -3.6522    0.6717   -2.7827 H   0  0  0  0  0  0  0  0  0  0  0  0
   -3.1179    2.3753   -2.9583 H   0  0  0  0  0  0  0  0  0  0  0  0
   -0.5245    6.2100   -0.5229 H   0  0  0  0  0  0  0  0  0  0  0  0
   -1.9800    6.2641    1.4440 H   0  0  0  0  0  0  0  0  0  0  0  0
   -0.3581    6.9728    1.8438 H   0  0  0  0  0  0  0  0  0  0  0  0
   -1.7969    6.7556    3.8727 H   0  0  0  0  0  0  0  0  0  0  0  0
   -3.0556    7.7953    3.0918 H   0  0  0  0  0  0  0  0  0  0  0  0
   -1.4354    8.4887    3.5010 H   0  0  0  0  0  0  0  0  0  0  0  0
   -1.8720   10.0975   -3.2871 H   0  0  0  0  0  0  0  0  0  0  0  0
   -1.5430    8.4205   -6.6310 H   0  0  0  0  0  0  0  0  0  0  0  0
   -2.4043    9.3227   -5.3564 H   0  0  0  0  0  0  0  0  0  0  0  0
    0.4663    9.7102   -6.4233 H   0  0  0  0  0  0  0  0  0  0  0  0
   -0.8906   10.9003   -6.4121 H   0  0  0  0  0  0  0  0  0  0  0  0
   -0.0618   10.4617   -4.8681 H   0  0  0  0  0  0  0  0  0  0  0  0
   -1.9449   11.3181   -0.4928 H   0  0  0  0  0  0  0  0  0  0  0  0
   -7.0765   12.6496    1.0344 H   0  0  0  0  0  0  0  0  0  0  0  0
   -7.3589    8.0394   -0.8695 H   0  0  0  0  0  0  0  0  0  0  0  0
  1  2  2  3
  2  3  1  0
  3  4  2  0
  3  5  1  0
  5  6  2  0
  6  7  1  0
  7  8  1  0
  7  9  2  0
  9 10  1  0
  9 11  1  0
 11 12  2  0
 12 13  1  0
 13 14  2  0
  1 15  1  0
 15 16  2  0
 16 17  1  0
 17 18  1  0
 18 19  2  0
 19 20  1  0
 20 21  2  0
 21 22  1  0
 21 23  1  0
 23 24  2  0
 17 25  1  0
 25 26  2  0
 26 27  1  0
 27 28  2  0
 28 29  1  0
 28 30  1  0
 30 31  2  0
 16 32  1  0
 32 33  1  0
 33 34  1  0
 34 35  2  0
 35 36  1  0
 36 37  1  0
 37 38  2  0
 38 39  1  0
 39 40  2  0
 40 41  1  0
 40 42  1  0
 42 43  2  0
 36 44  1  0
 44 45  2  0
 45 46  1  0
 46 47  2  0
 47 48  1  0
 47 49  1  0
 49 50  2  0
 35 51  1  0
 51 52  1  0
 34 53  1  0
 53 54  2  0
 54 55  1  0
 55 56  2  0
 56 57  1  0
 57 58  2  0
 58 59  1  0
 59 60  1  0
 60 61  1  0
 59 62  2  0
 54 63  1  0
 63 64  1  0
 64 65  1  0
 65 66  1  0
 66 67  1  0
 67 68  1  0
 68 69  2  0
 69 70  1  0
 70 71  1  0
 68 72  1  0
 72 73  1  0
 73 74  1  0
 74 75  1  0
 75 76  1  0
 76 77  1  0
 77 78  2  0
 78 79  1  0
 79 80  2  0
 80 81  1  0
 81 82  1  0
 82 83  1  0
 81 84  2  0
 76 85  2  0
 85 86  1  0
 86 87  1  0
 87 88  1  0
 88 89  1  0
 89 90  1  0
 90 91  1  0
 91 92  1  0
 92 93  1  0
 93 94  1  0
 94 95  1  0
 92 96  1  0
 96 97  1  0
 89 98  1  0
 98 99  1  0
 85100  1  0
100101  2  0
101102  1  0
102103  1  0
103104  1  0
104105  1  0
102106  2  0
106107  1  0
107108  2  0
108109  1  0
109110  1  0
110111  1  0
106112  1  0
112113  2  3
113114  1  0
114115  2  0
114116  1  0
116117  2  0
117118  1  0
118119  1  0
118120  2  0
120121  1  0
120122  1  0
122123  2  0
123124  1  0
124125  2  0
 13  2  1  0
 52 15  1  0
 95 53  1  0
108100  1  0
124113  1  0
 12  5  1  0
 24 18  1  0
 31 25  1  0
 51 32  2  0
 62 55  1  0
 94 63  2  0
123116  1  0
 43 37  1  0
 50 44  1  0
 93 65  2  0
 91 66  2  0
 71 67  2  0
 90 72  2  0
 88 73  2  0
 87 75  2  0
 84 77  1  0
  1126  1  0
  6127  1  0
 11128  1  0
 19129  1  0
 20130  1  0
 22131  1  0
 22132  1  0
 22133  1  0
 23134  1  0
 24135  1  0
 26136  1  0
 27137  1  0
 29138  1  0
 29139  1  0
 29140  1  0
 30141  1  0
 31142  1  0
 38143  1  0
 39144  1  0
 41145  1  0
 41146  1  0
 41147  1  0
 42148  1  0
 43149  1  0
 45150  1  0
 46151  1  0
 48152  1  0
 48153  1  0
 48154  1  0
 49155  1  0
 50156  1  0
 56157  1  0
 57158  1  0
 58159  1  0
 60160  1  0
 60161  1  0
 61162  1  0
 61163  1  0
 61164  1  0
 62165  1  0
 78166  1  0
 79167  1  0
 80168  1  0
 82169  1  0
 82170  1  0
 83171  1  0
 83172  1  0
 83173  1  0
 84174  1  0
 96175  1  0
 96176  1  0
 97177  1  0
 97178  1  0
 97179  1  0
 98180  1  0
 98181  1  0
 99182  1  0
 99183  1  0
 99184  1  0
101185  1  0
104186  1  0
104187  1  0
105188  1  0
105189  1  0
105190  1  0
107191  1  0
110192  1  0
110193  1  0
111194  1  0
111195  1  0
111196  1  0
112197  1  0
117198  1  0
122199  1  0
M  END

