
     RDKit          3D

245270  0  0  0  0  0  0  0  0999 V2000
    1.1904    4.7904    8.7755 C   0  0  0  0  0  0  0  0  0  0  0  0
    1.9207    5.5638    9.5893 C   0  0  0  0  0  0  0  0  0  0  0  0
    1.4418    6.7541   10.2977 C   0  0  0  0  0  0  0  0  0  0  0  0
    0.2515    7.1631   10.3335 O   0  0  0  0  0  0  0  0  0  0  0  0
    2.5904    7.4171   10.9037 C   0  0  0  0  0  0  0  0  0  0  0  0
    2.6587    8.6420   11.5575 C   0  0  0  0  0  0  0  0  0  0  0  0
    3.9184    9.1129   11.9722 C   0  0  0  0  0  0  0  0  0  0  0  0
    4.0077   10.6737   12.7822 Cl  0  0  0  0  0  0  0  0  0  0  0  0
    5.0846    8.3456   11.7243 C   0  0  0  0  0  0  0  0  0  0  0  0
    6.6682    8.9188   12.2158 Cl  0  0  0  0  0  0  0  0  0  0  0  0
    4.9864    7.1131   11.0544 C   0  0  0  0  0  0  0  0  0  0  0  0
    3.7278    6.6767   10.6488 C   0  0  0  0  0  0  0  0  0  0  0  0
    3.3666    5.5057    9.8545 C   0  0  0  0  0  0  0  0  0  0  0  0
    4.1546    4.5915    9.4943 O   0  0  0  0  0  0  0  0  0  0  0  0
    1.7998    3.8320    7.8477 C   0  0  0  0  0  0  0  0  0  0  0  0
    2.4334    4.1685    6.6433 C   0  0  0  0  0  0  0  0  0  0  0  0
    2.6559    5.5048    6.1716 N   0  0  0  0  0  0  0  0  0  0  0  0
    1.8331    6.0257    5.1067 C   0  0  0  0  0  0  0  0  0  0  0  0
    0.4732    5.6763    5.0227 C   0  0  0  0  0  0  0  0  0  0  0  0
   -0.3108    6.1264    3.9591 C   0  0  0  0  0  0  0  0  0  0  0  0
    0.2482    6.9396    2.9617 C   0  0  0  0  0  0  0  0  0  0  0  0
   -0.5835    7.3729    1.7917 C   0  0  0  0  0  0  0  0  0  0  0  0
    1.6077    7.2780    3.0297 C   0  0  0  0  0  0  0  0  0  0  0  0
    2.3934    6.8309    4.0967 C   0  0  0  0  0  0  0  0  0  0  0  0
    3.7919    6.2345    6.6682 C   0  0  0  0  0  0  0  0  0  0  0  0
    5.0562    5.6212    6.7365 C   0  0  0  0  0  0  0  0  0  0  0  0
    6.1397    6.2939    7.3031 C   0  0  0  0  0  0  0  0  0  0  0  0
    5.9754    7.5870    7.8207 C   0  0  0  0  0  0  0  0  0  0  0  0
    7.1278    8.2919    8.4678 C   0  0  0  0  0  0  0  0  0  0  0  0
    4.7274    8.2228    7.7054 C   0  0  0  0  0  0  0  0  0  0  0  0
    3.6416    7.5497    7.1345 C   0  0  0  0  0  0  0  0  0  0  0  0
    2.7607    3.0377    5.9178 C   0  0  0  0  0  0  0  0  0  0  0  0
    3.5488    2.7722    4.4643 S   0  0  0  0  0  0  0  0  0  0  0  0
    3.4500    1.0705    4.5805 C   0  0  0  0  0  0  0  0  0  0  0  0
    2.7727    0.7262    5.7637 C   0  0  0  0  0  0  0  0  0  0  0  0
    2.5829   -0.6158    6.2414 N   0  0  0  0  0  0  0  0  0  0  0  0
    3.7251   -1.4386    6.5705 C   0  0  0  0  0  0  0  0  0  0  0  0
    4.9172   -0.8542    7.0376 C   0  0  0  0  0  0  0  0  0  0  0  0
    6.0169   -1.6504    7.3643 C   0  0  0  0  0  0  0  0  0  0  0  0
    5.9510   -3.0429    7.2150 C   0  0  0  0  0  0  0  0  0  0  0  0
    7.1154   -3.9001    7.6195 C   0  0  0  0  0  0  0  0  0  0  0  0
    4.7656   -3.6316    6.7516 C   0  0  0  0  0  0  0  0  0  0  0  0
    3.6634   -2.8357    6.4273 C   0  0  0  0  0  0  0  0  0  0  0  0
    1.2406   -1.0698    6.4886 C   0  0  0  0  0  0  0  0  0  0  0  0
    0.2526   -0.9313    5.5001 C   0  0  0  0  0  0  0  0  0  0  0  0
   -1.0549   -1.3659    5.7409 C   0  0  0  0  0  0  0  0  0  0  0  0
   -1.4003   -1.9088    6.9875 C   0  0  0  0  0  0  0  0  0  0  0  0
   -2.7992   -2.3916    7.2307 C   0  0  0  0  0  0  0  0  0  0  0  0
   -0.4157   -2.0491    7.9763 C   0  0  0  0  0  0  0  0  0  0  0  0
    0.8937   -1.6272    7.7306 C   0  0  0  0  0  0  0  0  0  0  0  0
    2.4037    1.8592    6.4842 C   0  0  0  0  0  0  0  0  0  0  0  0
    1.6354    2.1355    7.9552 S   0  0  0  0  0  0  0  0  0  0  0  0
    3.9282    0.1324    3.5493 C   0  0  0  0  0  0  0  0  0  0  0  0
    5.0317    0.3267    2.6933 C   0  0  0  0  0  0  0  0  0  0  0  0
    5.9396    1.4808    2.7434 C   0  0  0  0  0  0  0  0  0  0  0  0
    6.7987    1.6424    3.8403 C   0  0  0  0  0  0  0  0  0  0  0  0
    7.6100    2.7733    3.9340 C   0  0  0  0  0  0  0  0  0  0  0  0
    7.5641    3.7535    2.9418 C   0  0  0  0  0  0  0  0  0  0  0  0
    6.6960    3.6122    1.8462 C   0  0  0  0  0  0  0  0  0  0  0  0
    6.6000    4.6978    0.8036 C   0  0  0  0  0  0  0  0  0  0  0  0
    7.1893    4.2405   -0.5320 C   0  0  0  0  0  0  0  0  0  0  0  0
    5.8937    2.4652    1.7449 C   0  0  0  0  0  0  0  0  0  0  0  0
    5.1485   -0.7268    1.7853 C   0  0  0  0  0  0  0  0  0  0  0  0
    6.1995   -1.0596    0.4809 S   0  0  0  0  0  0  0  0  0  0  0  0
    5.3587   -2.4995    0.1367 C   0  0  0  0  0  0  0  0  0  0  0  0
    5.1952   -3.3351   -0.9333 C   0  0  0  0  0  0  0  0  0  0  0  0
    5.7933   -3.3359   -2.2014 C   0  0  0  0  0  0  0  0  0  0  0  0
    5.1995   -4.1222   -3.2386 C   0  0  0  0  0  0  0  0  0  0  0  0
    5.7701   -4.0543   -4.4643 N   0  0  0  0  0  0  0  0  0  0  0  0
    6.9926   -2.9821   -4.1444 S   0  0  0  0  0  0  0  0  0  0  0  0
    6.8645   -2.5783   -2.5438 N   0  0  0  0  0  0  0  0  0  0  0  0
    4.0827   -4.9085   -2.9335 C   0  0  0  0  0  0  0  0  0  0  0  0
    3.2338   -5.6355   -3.7258 C   0  0  0  0  0  0  0  0  0  0  0  0
    2.7116   -5.2888   -5.2980 S   0  0  0  0  0  0  0  0  0  0  0  0
    1.0959   -5.6207   -4.9208 C   0  0  0  0  0  0  0  0  0  0  0  0
   -0.0725   -5.1314   -5.5180 C   0  0  0  0  0  0  0  0  0  0  0  0
   -0.0818   -4.5762   -6.8814 C   0  0  0  0  0  0  0  0  0  0  0  0
    0.6369   -3.4080   -7.1818 C   0  0  0  0  0  0  0  0  0  0  0  0
    0.6564   -2.9155   -8.4874 C   0  0  0  0  0  0  0  0  0  0  0  0
   -0.0306   -3.5890   -9.5003 C   0  0  0  0  0  0  0  0  0  0  0  0
   -0.7567   -4.7557   -9.2121 C   0  0  0  0  0  0  0  0  0  0  0  0
   -1.5273   -5.4641  -10.2909 C   0  0  0  0  0  0  0  0  0  0  0  0
   -3.0113   -5.1120  -10.2223 C   0  0  0  0  0  0  0  0  0  0  0  0
   -0.7877   -5.2383   -7.8947 C   0  0  0  0  0  0  0  0  0  0  0  0
   -1.1474   -5.0815   -4.6064 C   0  0  0  0  0  0  0  0  0  0  0  0
   -0.5769   -5.6378   -3.0999 S   0  0  0  0  0  0  0  0  0  0  0  0
    0.9802   -5.9861   -3.6040 C   0  0  0  0  0  0  0  0  0  0  0  0
    2.1948   -6.0371   -2.9102 C   0  0  0  0  0  0  0  0  0  0  0  0
    2.3882   -5.6842   -1.6109 N   0  0  0  0  0  0  0  0  0  0  0  0
    3.5030   -4.9051   -1.6651 C   0  0  0  0  0  0  0  0  0  0  0  0
    4.0154   -4.0445   -0.6700 C   0  0  0  0  0  0  0  0  0  0  0  0
    3.3965   -3.5854    0.4653 N   0  0  0  0  0  0  0  0  0  0  0  0
    4.2922   -2.6899    0.9556 C   0  0  0  0  0  0  0  0  0  0  0  0
    4.1757   -1.6841    1.8965 C   0  0  0  0  0  0  0  0  0  0  0  0
    3.1141   -1.3076    3.1285 S   0  0  0  0  0  0  0  0  0  0  0  0
    1.9477   -3.4919    0.7051 C   0  0  0  0  0  0  0  0  0  0  0  0
    1.3501   -2.3005   -0.0465 C   0  0  0  0  0  0  0  0  0  0  0  0
    2.2253   -6.6758   -0.5308 C   0  0  0  0  0  0  0  0  0  0  0  0
    0.7986   -7.1960   -0.4317 C   0  0  0  0  0  0  0  0  0  0  0  0
   -2.3857   -4.2709   -4.7344 C   0  0  0  0  0  0  0  0  0  0  0  0
   -3.3527   -4.1228   -3.7201 C   0  0  0  0  0  0  0  0  0  0  0  0
   -3.6566   -5.1298   -2.7345 N   0  0  0  0  0  0  0  0  0  0  0  0
   -3.9097   -6.4901   -3.1637 C   0  0  0  0  0  0  0  0  0  0  0  0
   -4.5376   -6.7443   -4.3979 C   0  0  0  0  0  0  0  0  0  0  0  0
   -4.8490   -8.0516   -4.7786 C   0  0  0  0  0  0  0  0  0  0  0  0
   -4.5531   -9.1245   -3.9274 C   0  0  0  0  0  0  0  0  0  0  0  0
   -4.9205  -10.5195   -4.3342 C   0  0  0  0  0  0  0  0  0  0  0  0
   -3.8940   -8.8805   -2.7103 C   0  0  0  0  0  0  0  0  0  0  0  0
   -3.5803   -7.5736   -2.3308 C   0  0  0  0  0  0  0  0  0  0  0  0
   -3.9676   -4.7402   -1.3841 C   0  0  0  0  0  0  0  0  0  0  0  0
   -3.0952   -3.9092   -0.6625 C   0  0  0  0  0  0  0  0  0  0  0  0
   -3.4105   -3.5194    0.6442 C   0  0  0  0  0  0  0  0  0  0  0  0
   -4.6153   -3.9343    1.2343 C   0  0  0  0  0  0  0  0  0  0  0  0
   -4.9709   -3.5210    2.6334 C   0  0  0  0  0  0  0  0  0  0  0  0
   -5.4843   -4.7662    0.5152 C   0  0  0  0  0  0  0  0  0  0  0  0
   -5.1625   -5.1688   -0.7823 C   0  0  0  0  0  0  0  0  0  0  0  0
   -4.1289   -2.9756   -3.9113 C   0  0  0  0  0  0  0  0  0  0  0  0
   -5.2731   -2.1808   -2.9795 S   0  0  0  0  0  0  0  0  0  0  0  0
   -5.4376   -0.8836   -4.0644 C   0  0  0  0  0  0  0  0  0  0  0  0
   -4.6487   -1.1117   -5.2166 C   0  0  0  0  0  0  0  0  0  0  0  0
   -4.7152   -0.3233   -6.4351 N   0  0  0  0  0  0  0  0  0  0  0  0
   -3.6624   -0.3667   -7.4154 C   0  0  0  0  0  0  0  0  0  0  0  0
   -3.9534   -0.7506   -8.7337 C   0  0  0  0  0  0  0  0  0  0  0  0
   -2.9673   -0.6911   -9.7205 C   0  0  0  0  0  0  0  0  0  0  0  0
   -1.6729   -0.2514   -9.3996 C   0  0  0  0  0  0  0  0  0  0  0  0
   -0.6489   -0.0896  -10.4838 C   0  0  0  0  0  0  0  0  0  0  0  0
   -1.3784    0.1209   -8.0779 C   0  0  0  0  0  0  0  0  0  0  0  0
   -2.3665    0.0624   -7.0912 C   0  0  0  0  0  0  0  0  0  0  0  0
   -5.9032    0.4285   -6.7689 C   0  0  0  0  0  0  0  0  0  0  0  0
   -5.7942    1.7655   -7.1940 C   0  0  0  0  0  0  0  0  0  0  0  0
   -6.9418    2.5304   -7.4217 C   0  0  0  0  0  0  0  0  0  0  0  0
   -8.2146    1.9595   -7.2580 C   0  0  0  0  0  0  0  0  0  0  0  0
   -9.4475    2.7978   -7.4191 C   0  0  0  0  0  0  0  0  0  0  0  0
   -8.3233    0.6156   -6.8717 C   0  0  0  0  0  0  0  0  0  0  0  0
   -7.1790   -0.1489   -6.6447 C   0  0  0  0  0  0  0  0  0  0  0  0
   -3.8857   -2.2774   -5.0516 C   0  0  0  0  0  0  0  0  0  0  0  0
   -2.6268   -3.0224   -5.8758 S   0  0  0  0  0  0  0  0  0  0  0  0
   -6.2257    0.3241   -3.7533 C   0  0  0  0  0  0  0  0  0  0  0  0
   -5.6957    1.5643   -3.7772 C   0  0  0  0  0  0  0  0  0  0  0  0
   -4.2787    1.8779   -4.0075 C   0  0  0  0  0  0  0  0  0  0  0  0
   -3.3100    1.1033   -3.7855 O   0  0  0  0  0  0  0  0  0  0  0  0
   -4.1725    3.2491   -4.4659 C   0  0  0  0  0  0  0  0  0  0  0  0
   -5.4302    3.8309   -4.4280 C   0  0  0  0  0  0  0  0  0  0  0  0
   -5.6330    5.0898   -5.0178 C   0  0  0  0  0  0  0  0  0  0  0  0
   -4.5375    5.7669   -5.5777 C   0  0  0  0  0  0  0  0  0  0  0  0
   -3.2572    5.1897   -5.5712 C   0  0  0  0  0  0  0  0  0  0  0  0
   -1.8151    6.1500   -6.3953 Br  0  0  0  0  0  0  0  0  0  0  0  0
   -3.0651    3.9025   -5.0259 C   0  0  0  0  0  0  0  0  0  0  0  0
   -1.4896    3.1172   -5.0956 Cl  0  0  0  0  0  0  0  0  0  0  0  0
   -6.4233    2.8655   -3.8763 C   0  0  0  0  0  0  0  0  0  0  0  0
   -7.6572    3.1618   -3.3983 C   0  0  0  0  0  0  0  0  0  0  0  0
   -8.1430    4.5143   -3.3167 C   0  0  0  0  0  0  0  0  0  0  0  0
   -8.5453    5.5932   -3.2268 N   0  0  0  0  0  0  0  0  0  0  0  0
   -8.5120    2.1794   -2.7834 C   0  0  0  0  0  0  0  0  0  0  0  0
   -9.2110    1.4024   -2.2864 N   0  0  0  0  0  0  0  0  0  0  0  0
    0.1215    4.9491    8.7016 H   0  0  0  0  0  0  0  0  0  0  0  0
    1.7651    9.2262   11.7283 H   0  0  0  0  0  0  0  0  0  0  0  0
    5.8710    6.5307   10.8255 H   0  0  0  0  0  0  0  0  0  0  0  0
    0.0175    5.0508    5.7794 H   0  0  0  0  0  0  0  0  0  0  0  0
   -1.3522    5.8369    3.9076 H   0  0  0  0  0  0  0  0  0  0  0  0
   -0.5700    6.5797    1.0165 H   0  0  0  0  0  0  0  0  0  0  0  0
   -1.6323    7.5543    2.1031 H   0  0  0  0  0  0  0  0  0  0  0  0
   -0.1885    8.3127    1.3541 H   0  0  0  0  0  0  0  0  0  0  0  0
    2.0650    7.8788    2.2521 H   0  0  0  0  0  0  0  0  0  0  0  0
    3.4430    7.0862    4.1171 H   0  0  0  0  0  0  0  0  0  0  0  0
    5.1978    4.6162    6.3617 H   0  0  0  0  0  0  0  0  0  0  0  0
    7.1010    5.7970    7.3608 H   0  0  0  0  0  0  0  0  0  0  0  0
    7.8177    7.5582    8.9376 H   0  0  0  0  0  0  0  0  0  0  0  0
    6.7652    8.9790    9.2596 H   0  0  0  0  0  0  0  0  0  0  0  0
    7.6832    8.8798    7.7093 H   0  0  0  0  0  0  0  0  0  0  0  0
    4.5879    9.2275    8.0854 H   0  0  0  0  0  0  0  0  0  0  0  0
    2.6758    8.0367    7.0879 H   0  0  0  0  0  0  0  0  0  0  0  0
    4.9931    0.2169    7.1749 H   0  0  0  0  0  0  0  0  0  0  0  0
    6.9153   -1.1816    7.7444 H   0  0  0  0  0  0  0  0  0  0  0  0
    8.0732   -3.3803    7.4079 H   0  0  0  0  0  0  0  0  0  0  0  0
    7.1134   -4.8593    7.0601 H   0  0  0  0  0  0  0  0  0  0  0  0
    7.0526   -4.1166    8.7054 H   0  0  0  0  0  0  0  0  0  0  0  0
    4.6925   -4.7065    6.6475 H   0  0  0  0  0  0  0  0  0  0  0  0
    2.7626   -3.3123    6.0599 H   0  0  0  0  0  0  0  0  0  0  0  0
    0.5005   -0.5086    4.5359 H   0  0  0  0  0  0  0  0  0  0  0  0
   -1.7990   -1.2697    4.9591 H   0  0  0  0  0  0  0  0  0  0  0  0
   -3.5306   -1.7086    6.7487 H   0  0  0  0  0  0  0  0  0  0  0  0
   -2.9210   -3.4076    6.8019 H   0  0  0  0  0  0  0  0  0  0  0  0
   -3.0243   -2.4298    8.3169 H   0  0  0  0  0  0  0  0  0  0  0  0
   -0.6612   -2.4758    8.9412 H   0  0  0  0  0  0  0  0  0  0  0  0
    1.6408   -1.7265    8.5098 H   0  0  0  0  0  0  0  0  0  0  0  0
    6.8359    0.8941    4.6271 H   0  0  0  0  0  0  0  0  0  0  0  0
    8.2681    2.8976    4.7848 H   0  0  0  0  0  0  0  0  0  0  0  0
    8.2003    4.6268    3.0321 H   0  0  0  0  0  0  0  0  0  0  0  0
    5.5308    4.9774    0.6550 H   0  0  0  0  0  0  0  0  0  0  0  0
    7.1289    5.6211    1.1395 H   0  0  0  0  0  0  0  0  0  0  0  0
    8.2193    3.8577   -0.3902 H   0  0  0  0  0  0  0  0  0  0  0  0
    6.5529    3.4457   -0.9729 H   0  0  0  0  0  0  0  0  0  0  0  0
    7.2203    5.0990   -1.2354 H   0  0  0  0  0  0  0  0  0  0  0  0
    5.2116    2.3532    0.9096 H   0  0  0  0  0  0  0  0  0  0  0  0
    1.1789   -2.8756   -6.4066 H   0  0  0  0  0  0  0  0  0  0  0  0
    1.2063   -2.0128   -8.7176 H   0  0  0  0  0  0  0  0  0  0  0  0
   -0.0043   -3.1993  -10.5087 H   0  0  0  0  0  0  0  0  0  0  0  0
   -1.4049   -6.5640  -10.1773 H   0  0  0  0  0  0  0  0  0  0  0  0
   -1.1322   -5.1916  -11.2939 H   0  0  0  0  0  0  0  0  0  0  0  0
   -3.4535   -5.4857   -9.2728 H   0  0  0  0  0  0  0  0  0  0  0  0
   -3.5432   -5.5851  -11.0711 H   0  0  0  0  0  0  0  0  0  0  0  0
   -3.1502   -4.0101  -10.2820 H   0  0  0  0  0  0  0  0  0  0  0  0
   -1.3450   -6.1368   -7.6602 H   0  0  0  0  0  0  0  0  0  0  0  0
    1.4134   -4.3930    0.3803 H   0  0  0  0  0  0  0  0  0  0  0  0
    1.7508   -3.3874    1.7910 H   0  0  0  0  0  0  0  0  0  0  0  0
    1.4363   -2.4542   -1.1442 H   0  0  0  0  0  0  0  0  0  0  0  0
    0.2722   -2.1931    0.2089 H   0  0  0  0  0  0  0  0  0  0  0  0
    1.8788   -1.3656    0.2253 H   0  0  0  0  0  0  0  0  0  0  0  0
    2.9091   -7.5386   -0.7138 H   0  0  0  0  0  0  0  0  0  0  0  0
    2.5300   -6.2535    0.4452 H   0  0  0  0  0  0  0  0  0  0  0  0
    0.5649   -7.8234   -1.3114 H   0  0  0  0  0  0  0  0  0  0  0  0
    0.0848   -6.3469   -0.3700 H   0  0  0  0  0  0  0  0  0  0  0  0
    0.6880   -7.8078    0.4923 H   0  0  0  0  0  0  0  0  0  0  0  0
   -4.8161   -5.9311   -5.0544 H   0  0  0  0  0  0  0  0  0  0  0  0
   -5.3389   -8.2277   -5.7289 H   0  0  0  0  0  0  0  0  0  0  0  0
   -4.8372  -11.2244   -3.4777 H   0  0  0  0  0  0  0  0  0  0  0  0
   -5.9696  -10.5445   -4.6970 H   0  0  0  0  0  0  0  0  0  0  0  0
   -4.2479  -10.8617   -5.1473 H   0  0  0  0  0  0  0  0  0  0  0  0
   -3.6422   -9.6992   -2.0500 H   0  0  0  0  0  0  0  0  0  0  0  0
   -3.0930   -7.4017   -1.3802 H   0  0  0  0  0  0  0  0  0  0  0  0
   -2.1630   -3.5814   -1.1087 H   0  0  0  0  0  0  0  0  0  0  0  0
   -2.7187   -2.8888    1.1897 H   0  0  0  0  0  0  0  0  0  0  0  0
   -4.8827   -4.3932    3.3142 H   0  0  0  0  0  0  0  0  0  0  0  0
   -4.3056   -2.7125    2.9975 H   0  0  0  0  0  0  0  0  0  0  0  0
   -6.0178   -3.1490    2.6611 H   0  0  0  0  0  0  0  0  0  0  0  0
   -6.4177   -5.0952    0.9561 H   0  0  0  0  0  0  0  0  0  0  0  0
   -5.8543   -5.8019   -1.3228 H   0  0  0  0  0  0  0  0  0  0  0  0
   -4.9521   -1.0793   -8.9977 H   0  0  0  0  0  0  0  0  0  0  0  0
   -3.2213   -0.9663  -10.7385 H   0  0  0  0  0  0  0  0  0  0  0  0
   -0.7787   -0.8700  -11.2635 H   0  0  0  0  0  0  0  0  0  0  0  0
    0.3776   -0.1768  -10.0726 H   0  0  0  0  0  0  0  0  0  0  0  0
   -0.7634    0.9104  -10.9521 H   0  0  0  0  0  0  0  0  0  0  0  0
   -0.3891    0.4774   -7.8175 H   0  0  0  0  0  0  0  0  0  0  0  0
   -2.1336    0.3699   -6.0827 H   0  0  0  0  0  0  0  0  0  0  0  0
   -4.8198    2.2276   -7.3031 H   0  0  0  0  0  0  0  0  0  0  0  0
   -6.8364    3.5722   -7.7046 H   0  0  0  0  0  0  0  0  0  0  0  0
  -10.2502    2.2064   -7.9075 H   0  0  0  0  0  0  0  0  0  0  0  0
   -9.2452    3.6912   -8.0469 H   0  0  0  0  0  0  0  0  0  0  0  0
   -9.7956    3.1279   -6.4171 H   0  0  0  0  0  0  0  0  0  0  0  0
   -9.2964    0.1640   -6.7326 H   0  0  0  0  0  0  0  0  0  0  0  0
   -7.2856   -1.1786   -6.3381 H   0  0  0  0  0  0  0  0  0  0  0  0
   -7.2797    0.1693   -3.6241 H   0  0  0  0  0  0  0  0  0  0  0  0
   -6.6098    5.5362   -5.0935 H   0  0  0  0  0  0  0  0  0  0  0  0
   -4.6910    6.7354   -6.0380 H   0  0  0  0  0  0  0  0  0  0  0  0
  1  2  2  3
  2  3  1  0
  3  4  2  0
  3  5  1  0
  5  6  2  0
  6  7  1  0
  7  8  1  0
  7  9  2  0
  9 10  1  0
  9 11  1  0
 11 12  2  0
 12 13  1  0
 13 14  2  0
  1 15  1  0
 15 16  2  0
 16 17  1  0
 17 18  1  0
 18 19  2  0
 19 20  1  0
 20 21  2  0
 21 22  1  0
 21 23  1  0
 23 24  2  0
 17 25  1  0
 25 26  2  0
 26 27  1  0
 27 28  2  0
 28 29  1  0
 28 30  1  0
 30 31  2  0
 16 32  1  0
 32 33  1  0
 33 34  1  0
 34 35  2  0
 35 36  1  0
 36 37  1  0
 37 38  2  0
 38 39  1  0
 39 40  2  0
 40 41  1  0
 40 42  1  0
 42 43  2  0
 36 44  1  0
 44 45  2  0
 45 46  1  0
 46 47  2  0
 47 48  1  0
 47 49  1  0
 49 50  2  0
 35 51  1  0
 51 52  1  0
 34 53  1  0
 53 54  2  0
 54 55  1  0
 55 56  2  0
 56 57  1  0
 57 58  2  0
 58 59  1  0
 59 60  1  0
 60 61  1  0
 59 62  2  0
 54 63  1  0
 63 64  1  0
 64 65  1  0
 65 66  1  0
 66 67  1  0
 67 68  1  0
 68 69  2  0
 69 70  1  0
 70 71  1  0
 68 72  1  0
 72 73  1  0
 73 74  1  0
 74 75  1  0
 75 76  1  0
 76 77  1  0
 77 78  2  0
 78 79  1  0
 79 80  2  0
 80 81  1  0
 81 82  1  0
 82 83  1  0
 81 84  2  0
 76 85  2  0
 85 86  1  0
 86 87  1  0
 87 88  1  0
 88 89  1  0
 89 90  1  0
 90 91  1  0
 91 92  1  0
 92 93  1  0
 93 94  1  0
 94 95  1  0
 92 96  1  0
 96 97  1  0
 89 98  1  0
 98 99  1  0
 85100  1  0
100101  2  0
101102  1  0
102103  1  0
103104  2  0
104105  1  0
105106  2  0
106107  1  0
106108  1  0
108109  2  0
102110  1  0
110111  2  0
111112  1  0
112113  2  0
113114  1  0
113115  1  0
115116  2  0
101117  1  0
117118  1  0
118119  1  0
119120  2  0
120121  1  0
121122  1  0
122123  2  0
123124  1  0
124125  2  0
125126  1  0
125127  1  0
127128  2  0
121129  1  0
129130  2  0
130131  1  0
131132  2  0
132133  1  0
132134  1  0
134135  2  0
120136  1  0
136137  1  0
119138  1  0
138139  2  3
139140  1  0
140141  2  0
140142  1  0
142143  2  0
143144  1  0
144145  2  0
145146  1  0
146147  1  0
146148  2  0
148149  1  0
143150  1  0
150151  2  3
151152  1  0
152153  3  0
151154  1  0
154155  3  0
 13  2  1  0
 52 15  1  0
 95 53  1  0
137100  1  0
150139  1  0
 12  5  1  0
 24 18  1  0
 31 25  1  0
 51 32  2  0
 62 55  1  0
 94 63  2  0
109103  1  0
116110  1  0
136117  2  0
148142  1  0
 43 37  1  0
 50 44  1  0
 93 65  2  0
128122  1  0
135129  1  0
 91 66  2  0
 71 67  2  0
 90 72  2  0
 88 73  2  0
 87 75  2  0
 84 77  1  0
  1156  1  0
  6157  1  0
 11158  1  0
 19159  1  0
 20160  1  0
 22161  1  0
 22162  1  0
 22163  1  0
 23164  1  0
 24165  1  0
 26166  1  0
 27167  1  0
 29168  1  0
 29169  1  0
 29170  1  0
 30171  1  0
 31172  1  0
 38173  1  0
 39174  1  0
 41175  1  0
 41176  1  0
 41177  1  0
 42178  1  0
 43179  1  0
 45180  1  0
 46181  1  0
 48182  1  0
 48183  1  0
 48184  1  0
 49185  1  0
 50186  1  0
 56187  1  0
 57188  1  0
 58189  1  0
 60190  1  0
 60191  1  0
 61192  1  0
 61193  1  0
 61194  1  0
 62195  1  0
 78196  1  0
 79197  1  0
 80198  1  0
 82199  1  0
 82200  1  0
 83201  1  0
 83202  1  0
 83203  1  0
 84204  1  0
 96205  1  0
 96206  1  0
 97207  1  0
 97208  1  0
 97209  1  0
 98210  1  0
 98211  1  0
 99212  1  0
 99213  1  0
 99214  1  0
104215  1  0
105216  1  0
107217  1  0
107218  1  0
107219  1  0
108220  1  0
109221  1  0
111222  1  0
112223  1  0
114224  1  0
114225  1  0
114226  1  0
115227  1  0
116228  1  0
123229  1  0
124230  1  0
126231  1  0
126232  1  0
126233  1  0
127234  1  0
128235  1  0
130236  1  0
131237  1  0
133238  1  0
133239  1  0
133240  1  0
134241  1  0
135242  1  0
138243  1  0
144244  1  0
145245  1  0
M  END

