
     RDKit          3D

126141  0  0  0  0  0  0  0  0999 V2000
   -4.8499    7.3001   -7.4831 C   0  0  0  0  0  0  0  0  0  0  0  0
   -3.7068    7.1686   -8.1752 C   0  0  0  0  0  0  0  0  0  0  0  0
   -2.3937    6.6725   -7.7262 C   0  0  0  0  0  0  0  0  0  0  0  0
   -2.0801    6.3339   -6.5558 O   0  0  0  0  0  0  0  0  0  0  0  0
   -1.4687    6.7588   -8.8516 C   0  0  0  0  0  0  0  0  0  0  0  0
   -0.1186    6.4184   -8.9125 C   0  0  0  0  0  0  0  0  0  0  0  0
    0.5656    6.6075  -10.1275 C   0  0  0  0  0  0  0  0  0  0  0  0
    2.2679    6.1744  -10.2169 Cl  0  0  0  0  0  0  0  0  0  0  0  0
   -0.1150    7.1355  -11.2530 C   0  0  0  0  0  0  0  0  0  0  0  0
    0.7131    7.3760  -12.7849 Cl  0  0  0  0  0  0  0  0  0  0  0  0
   -1.4750    7.4827  -11.1576 C   0  0  0  0  0  0  0  0  0  0  0  0
   -2.1266    7.2878   -9.9429 C   0  0  0  0  0  0  0  0  0  0  0  0
   -3.5082    7.5752   -9.5727 C   0  0  0  0  0  0  0  0  0  0  0  0
   -4.3767    8.0941  -10.3247 O   0  0  0  0  0  0  0  0  0  0  0  0
   -5.0649    6.7454   -6.1408 C   0  0  0  0  0  0  0  0  0  0  0  0
   -5.7319    7.3994   -5.1658 N   0  0  0  0  0  0  0  0  0  0  0  0
   -5.8985    6.6737   -4.0596 N   0  0  0  0  0  0  0  0  0  0  0  0
   -5.4004    5.4201   -4.1552 C   0  0  0  0  0  0  0  0  0  0  0  0
   -4.7098    5.1686   -5.6692 S   0  0  0  0  0  0  0  0  0  0  0  0
   -5.3923    4.4321   -3.0631 C   0  0  0  0  0  0  0  0  0  0  0  0
   -5.6632    4.6684   -1.7005 C   0  0  0  0  0  0  0  0  0  0  0  0
   -6.0363    5.9658   -1.1114 C   0  0  0  0  0  0  0  0  0  0  0  0
   -7.3163    6.4976   -1.3159 C   0  0  0  0  0  0  0  0  0  0  0  0
   -7.6893    7.6852   -0.6829 C   0  0  0  0  0  0  0  0  0  0  0  0
   -6.7907    8.3461    0.1608 C   0  0  0  0  0  0  0  0  0  0  0  0
   -5.5026    7.8267    0.3683 C   0  0  0  0  0  0  0  0  0  0  0  0
   -4.5492    8.4937    1.3218 C   0  0  0  0  0  0  0  0  0  0  0  0
   -4.7290    7.9544    2.7407 C   0  0  0  0  0  0  0  0  0  0  0  0
   -5.1332    6.6324   -0.2687 C   0  0  0  0  0  0  0  0  0  0  0  0
   -5.3386    3.5515   -0.9236 C   0  0  0  0  0  0  0  0  0  0  0  0
   -5.0994    3.3709    0.7500 S   0  0  0  0  0  0  0  0  0  0  0  0
   -4.4020    1.8409    0.5301 C   0  0  0  0  0  0  0  0  0  0  0  0
   -3.4346    1.1493    1.1981 C   0  0  0  0  0  0  0  0  0  0  0  0
   -2.8287    1.4513    2.4249 C   0  0  0  0  0  0  0  0  0  0  0  0
   -1.5809    0.8476    2.7387 C   0  0  0  0  0  0  0  0  0  0  0  0
   -1.0120    1.1834    3.9241 N   0  0  0  0  0  0  0  0  0  0  0  0
   -2.1461    2.2549    4.4809 S   0  0  0  0  0  0  0  0  0  0  0  0
   -3.3289    2.3345    3.3244 N   0  0  0  0  0  0  0  0  0  0  0  0
   -1.0243   -0.0478    1.8236 C   0  0  0  0  0  0  0  0  0  0  0  0
    0.0814   -0.8342    1.9137 C   0  0  0  0  0  0  0  0  0  0  0  0
    1.2793   -1.1968    3.0563 S   0  0  0  0  0  0  0  0  0  0  0  0
    1.7798   -2.5330    2.1257 C   0  0  0  0  0  0  0  0  0  0  0  0
    2.7246   -3.5310    2.3424 C   0  0  0  0  0  0  0  0  0  0  0  0
    3.6276   -3.5427    3.5060 C   0  0  0  0  0  0  0  0  0  0  0  0
    3.1082   -3.6943    4.7986 C   0  0  0  0  0  0  0  0  0  0  0  0
    3.9707   -3.7423    5.8967 C   0  0  0  0  0  0  0  0  0  0  0  0
    5.3524   -3.6472    5.7118 C   0  0  0  0  0  0  0  0  0  0  0  0
    5.8837   -3.4978    4.4211 C   0  0  0  0  0  0  0  0  0  0  0  0
    7.3706   -3.3622    4.2254 C   0  0  0  0  0  0  0  0  0  0  0  0
    7.7972   -1.9012    4.3135 C   0  0  0  0  0  0  0  0  0  0  0  0
    5.0148   -3.4312    3.3208 C   0  0  0  0  0  0  0  0  0  0  0  0
    2.6602   -4.5169    1.3332 C   0  0  0  0  0  0  0  0  0  0  0  0
    1.4619   -4.0907    0.1953 S   0  0  0  0  0  0  0  0  0  0  0  0
    1.0171   -2.6863    0.9969 C   0  0  0  0  0  0  0  0  0  0  0  0
    0.0451   -1.6994    0.8746 C   0  0  0  0  0  0  0  0  0  0  0  0
   -1.0469   -1.5288    0.0837 N   0  0  0  0  0  0  0  0  0  0  0  0
   -1.6670   -0.4239    0.6332 C   0  0  0  0  0  0  0  0  0  0  0  0
   -2.8501    0.2787    0.2554 C   0  0  0  0  0  0  0  0  0  0  0  0
   -3.3727    0.5258   -0.9930 N   0  0  0  0  0  0  0  0  0  0  0  0
   -4.3118    1.4849   -0.7809 C   0  0  0  0  0  0  0  0  0  0  0  0
   -4.8467    2.4711   -1.6129 C   0  0  0  0  0  0  0  0  0  0  0  0
   -4.7460    2.8637   -3.2372 S   0  0  0  0  0  0  0  0  0  0  0  0
   -2.8341    0.1741   -2.3143 C   0  0  0  0  0  0  0  0  0  0  0  0
   -1.4659    0.8082   -2.5521 C   0  0  0  0  0  0  0  0  0  0  0  0
   -1.6003   -2.5839   -0.7779 C   0  0  0  0  0  0  0  0  0  0  0  0
   -3.0465   -2.9308   -0.4121 C   0  0  0  0  0  0  0  0  0  0  0  0
    3.3159   -5.8354    1.3570 C   0  0  0  0  0  0  0  0  0  0  0  0
    3.2881   -6.7213    0.3292 N   0  0  0  0  0  0  0  0  0  0  0  0
    3.8251   -7.9065    0.6297 N   0  0  0  0  0  0  0  0  0  0  0  0
    4.2501   -7.9894    1.9109 C   0  0  0  0  0  0  0  0  0  0  0  0
    4.0158   -6.5311    2.7158 S   0  0  0  0  0  0  0  0  0  0  0  0
    4.8999   -9.1722    2.4971 C   0  0  0  0  0  0  0  0  0  0  0  0
    4.7868   -9.4870    3.7991 C   0  0  0  0  0  0  0  0  0  0  0  0
    5.9143   -9.9937    4.5837 C   0  0  0  0  0  0  0  0  0  0  0  0
    6.9390  -10.5702    4.1268 O   0  0  0  0  0  0  0  0  0  0  0  0
    5.7229   -9.5824    5.9637 C   0  0  0  0  0  0  0  0  0  0  0  0
    6.6455   -9.6217    7.0114 C   0  0  0  0  0  0  0  0  0  0  0  0
    6.3137   -8.9931    8.2282 C   0  0  0  0  0  0  0  0  0  0  0  0
    7.3083   -8.9485    9.3509 C   0  0  0  0  0  0  0  0  0  0  0  0
    5.0819   -8.3100    8.3513 C   0  0  0  0  0  0  0  0  0  0  0  0
    4.1774   -8.2701    7.2786 C   0  0  0  0  0  0  0  0  0  0  0  0
    4.5041   -8.9325    6.0863 C   0  0  0  0  0  0  0  0  0  0  0  0
    3.7936   -8.9659    4.7850 C   0  0  0  0  0  0  0  0  0  0  0  0
    2.4584   -8.8429    4.5809 C   0  0  0  0  0  0  0  0  0  0  0  0
    1.8424   -9.1793    3.3234 C   0  0  0  0  0  0  0  0  0  0  0  0
    1.3358   -9.4374    2.3166 N   0  0  0  0  0  0  0  0  0  0  0  0
    1.5487   -8.4393    5.6227 C   0  0  0  0  0  0  0  0  0  0  0  0
    0.8052   -8.1140    6.4494 N   0  0  0  0  0  0  0  0  0  0  0  0
   -5.6845    7.8134   -7.9455 H   0  0  0  0  0  0  0  0  0  0  0  0
    0.3916    6.0267   -8.0453 H   0  0  0  0  0  0  0  0  0  0  0  0
   -2.0063    7.8879  -12.0078 H   0  0  0  0  0  0  0  0  0  0  0  0
   -8.0277    5.9814   -1.9467 H   0  0  0  0  0  0  0  0  0  0  0  0
   -8.6801    8.0876   -0.8314 H   0  0  0  0  0  0  0  0  0  0  0  0
   -7.1020    9.2523    0.6661 H   0  0  0  0  0  0  0  0  0  0  0  0
   -3.5002    8.3174    0.9904 H   0  0  0  0  0  0  0  0  0  0  0  0
   -4.7096    9.5948    1.3221 H   0  0  0  0  0  0  0  0  0  0  0  0
   -5.6393    8.3971    3.1977 H   0  0  0  0  0  0  0  0  0  0  0  0
   -4.8245    6.8468    2.7333 H   0  0  0  0  0  0  0  0  0  0  0  0
   -3.8484    8.2297    3.3518 H   0  0  0  0  0  0  0  0  0  0  0  0
   -4.1488    6.2122   -0.0983 H   0  0  0  0  0  0  0  0  0  0  0  0
    2.0381   -3.7932    4.9541 H   0  0  0  0  0  0  0  0  0  0  0  0
    3.5669   -3.8648    6.8919 H   0  0  0  0  0  0  0  0  0  0  0  0
    6.0082   -3.6878    6.5750 H   0  0  0  0  0  0  0  0  0  0  0  0
    7.9110   -3.9519    4.9971 H   0  0  0  0  0  0  0  0  0  0  0  0
    7.6647   -3.7665    3.2346 H   0  0  0  0  0  0  0  0  0  0  0  0
    8.8971   -1.8232    4.1799 H   0  0  0  0  0  0  0  0  0  0  0  0
    7.5318   -1.4814    5.3075 H   0  0  0  0  0  0  0  0  0  0  0  0
    7.3001   -1.3033    3.5193 H   0  0  0  0  0  0  0  0  0  0  0  0
    5.4160   -3.3076    2.3211 H   0  0  0  0  0  0  0  0  0  0  0  0
   -3.5216    0.5061   -3.1136 H   0  0  0  0  0  0  0  0  0  0  0  0
   -2.8165   -0.9112   -2.4537 H   0  0  0  0  0  0  0  0  0  0  0  0
   -0.7139    0.3933   -1.8545 H   0  0  0  0  0  0  0  0  0  0  0  0
   -1.1363    0.5968   -3.5901 H   0  0  0  0  0  0  0  0  0  0  0  0
   -1.5294    1.9068   -2.4132 H   0  0  0  0  0  0  0  0  0  0  0  0
   -1.4607   -2.3414   -1.8449 H   0  0  0  0  0  0  0  0  0  0  0  0
   -1.0258   -3.5190   -0.6444 H   0  0  0  0  0  0  0  0  0  0  0  0
   -3.7508   -2.1400   -0.7268 H   0  0  0  0  0  0  0  0  0  0  0  0
   -3.1328   -3.0801    0.6846 H   0  0  0  0  0  0  0  0  0  0  0  0
   -3.3408   -3.8733   -0.9147 H   0  0  0  0  0  0  0  0  0  0  0  0
    5.6805   -9.6374    1.9067 H   0  0  0  0  0  0  0  0  0  0  0  0
    7.6091  -10.0919    6.8708 H   0  0  0  0  0  0  0  0  0  0  0  0
    7.9541   -9.8553    9.3405 H   0  0  0  0  0  0  0  0  0  0  0  0
    7.9499   -8.0481    9.2399 H   0  0  0  0  0  0  0  0  0  0  0  0
    6.7929   -8.9040   10.3324 H   0  0  0  0  0  0  0  0  0  0  0  0
    4.8373   -7.7784    9.2660 H   0  0  0  0  0  0  0  0  0  0  0  0
    3.2738   -7.6914    7.3817 H   0  0  0  0  0  0  0  0  0  0  0  0
  1  2  2  3
  2  3  1  0
  3  4  2  0
  3  5  1  0
  5  6  2  0
  6  7  1  0
  7  8  1  0
  7  9  2  0
  9 10  1  0
  9 11  1  0
 11 12  2  0
 12 13  1  0
 13 14  2  0
  1 15  1  0
 15 16  2  0
 16 17  1  0
 17 18  2  0
 18 19  1  0
 18 20  1  0
 20 21  2  0
 21 22  1  0
 22 23  2  0
 23 24  1  0
 24 25  2  0
 25 26  1  0
 26 27  1  0
 27 28  1  0
 26 29  2  0
 21 30  1  0
 30 31  1  0
 31 32  1  0
 32 33  1  0
 33 34  1  0
 34 35  1  0
 35 36  2  0
 36 37  1  0
 37 38  1  0
 35 39  1  0
 39 40  1  0
 40 41  1  0
 41 42  1  0
 42 43  1  0
 43 44  1  0
 44 45  2  0
 45 46  1  0
 46 47  2  0
 47 48  1  0
 48 49  1  0
 49 50  1  0
 48 51  2  0
 43 52  2  0
 52 53  1  0
 53 54  1  0
 54 55  1  0
 55 56  1  0
 56 57  1  0
 57 58  1  0
 58 59  1  0
 59 60  1  0
 60 61  1  0
 61 62  1  0
 59 63  1  0
 63 64  1  0
 56 65  1  0
 65 66  1  0
 52 67  1  0
 67 68  2  0
 68 69  1  0
 69 70  2  0
 70 71  1  0
 70 72  1  0
 72 73  2  3
 73 74  1  0
 74 75  2  0
 74 76  1  0
 76 77  2  0
 77 78  1  0
 78 79  1  0
 78 80  2  0
 80 81  1  0
 81 82  2  0
 82 83  1  0
 83 84  2  3
 84 85  1  0
 85 86  3  0
 84 87  1  0
 87 88  3  0
 13  2  1  0
 19 15  1  0
 62 20  1  0
 71 67  1  0
 83 73  1  0
 12  5  1  0
 29 22  1  0
 61 30  2  0
 82 76  1  0
 60 32  2  0
 58 33  2  0
 38 34  2  0
 57 39  2  0
 55 40  2  0
 54 42  2  0
 51 44  1  0
  1 89  1  0
  6 90  1  0
 11 91  1  0
 23 92  1  0
 24 93  1  0
 25 94  1  0
 27 95  1  0
 27 96  1  0
 28 97  1  0
 28 98  1  0
 28 99  1  0
 29100  1  0
 45101  1  0
 46102  1  0
 47103  1  0
 49104  1  0
 49105  1  0
 50106  1  0
 50107  1  0
 50108  1  0
 51109  1  0
 63110  1  0
 63111  1  0
 64112  1  0
 64113  1  0
 64114  1  0
 65115  1  0
 65116  1  0
 66117  1  0
 66118  1  0
 66119  1  0
 72120  1  0
 77121  1  0
 79122  1  0
 79123  1  0
 79124  1  0
 80125  1  0
 81126  1  0
M  END

