
     RDKit          3D

147163  0  0  0  0  0  0  0  0999 V2000
    6.0395    4.9137   -4.2251 C   0  0  0  0  0  0  0  0  0  0  0  0
    5.2226    5.8610   -3.7192 C   0  0  0  0  0  0  0  0  0  0  0  0
    4.0968    5.6048   -2.7895 C   0  0  0  0  0  0  0  0  0  0  0  0
    3.6372    4.4929   -2.4239 O   0  0  0  0  0  0  0  0  0  0  0  0
    3.5986    6.8821   -2.3701 C   0  0  0  0  0  0  0  0  0  0  0  0
    2.3727    7.4283   -1.3710 S   0  0  0  0  0  0  0  0  0  0  0  0
    2.7236    9.0578   -1.7045 C   0  0  0  0  0  0  0  0  0  0  0  0
    1.8412   10.4146   -1.0340 Cl  0  0  0  0  0  0  0  0  0  0  0  0
    3.7899    9.1594   -2.6020 C   0  0  0  0  0  0  0  0  0  0  0  0
    4.2730    7.8951   -2.9627 C   0  0  0  0  0  0  0  0  0  0  0  0
    5.3127    7.3601   -3.8777 C   0  0  0  0  0  0  0  0  0  0  0  0
    6.0674    8.0865   -4.7374 C   0  0  0  0  0  0  0  0  0  0  0  0
    5.9684    9.5240   -4.7979 C   0  0  0  0  0  0  0  0  0  0  0  0
    5.8983   10.6779   -4.8589 N   0  0  0  0  0  0  0  0  0  0  0  0
    6.9441    7.4885   -5.7067 C   0  0  0  0  0  0  0  0  0  0  0  0
    7.6520    7.0199   -6.4953 N   0  0  0  0  0  0  0  0  0  0  0  0
    5.8203    3.4813   -3.9487 C   0  0  0  0  0  0  0  0  0  0  0  0
    4.8170    2.7536   -4.6162 C   0  0  0  0  0  0  0  0  0  0  0  0
    4.0589    3.2017   -5.7093 C   0  0  0  0  0  0  0  0  0  0  0  0
    3.0484    2.3094   -6.0636 C   0  0  0  0  0  0  0  0  0  0  0  0
    2.1020    2.4742   -7.2096 C   0  0  0  0  0  0  0  0  0  0  0  0
    2.7609    2.0513   -8.5185 C   0  0  0  0  0  0  0  0  0  0  0  0
    3.0830    0.9779   -5.0310 S   0  0  0  0  0  0  0  0  0  0  0  0
    4.4029    1.5117   -4.1285 C   0  0  0  0  0  0  0  0  0  0  0  0
    4.9611    0.9224   -2.9802 C   0  0  0  0  0  0  0  0  0  0  0  0
    6.0065    1.6227   -2.3488 C   0  0  0  0  0  0  0  0  0  0  0  0
    6.4211    2.8691   -2.8366 C   0  0  0  0  0  0  0  0  0  0  0  0
    7.5587    3.5258   -1.7824 S   0  0  0  0  0  0  0  0  0  0  0  0
    7.5603    2.2155   -0.7194 C   0  0  0  0  0  0  0  0  0  0  0  0
    8.3128    2.1704    0.5724 C   0  0  0  0  0  0  0  0  0  0  0  0
    7.4044    2.5464    1.7369 C   0  0  0  0  0  0  0  0  0  0  0  0
    6.6452    1.2575   -1.1540 C   0  0  0  0  0  0  0  0  0  0  0  0
    4.2047   -0.1152   -2.2689 C   0  0  0  0  0  0  0  0  0  0  0  0
    4.1832   -1.5097   -2.5246 C   0  0  0  0  0  0  0  0  0  0  0  0
    5.1790   -2.2791   -3.3060 C   0  0  0  0  0  0  0  0  0  0  0  0
    5.6675   -3.4912   -2.7913 C   0  0  0  0  0  0  0  0  0  0  0  0
    6.6009   -4.2431   -3.5050 C   0  0  0  0  0  0  0  0  0  0  0  0
    7.0685   -3.7888   -4.7384 C   0  0  0  0  0  0  0  0  0  0  0  0
    6.5901   -2.5823   -5.2729 C   0  0  0  0  0  0  0  0  0  0  0  0
    7.1168   -2.0707   -6.5882 C   0  0  0  0  0  0  0  0  0  0  0  0
    8.2097   -1.0312   -6.3592 C   0  0  0  0  0  0  0  0  0  0  0  0
    5.6504   -1.8296   -4.5495 C   0  0  0  0  0  0  0  0  0  0  0  0
    3.0855   -2.0959   -1.8790 C   0  0  0  0  0  0  0  0  0  0  0  0
    2.3197   -3.6253   -2.0119 S   0  0  0  0  0  0  0  0  0  0  0  0
    0.9983   -3.0731   -1.0961 C   0  0  0  0  0  0  0  0  0  0  0  0
   -0.2312   -3.4760   -0.6515 C   0  0  0  0  0  0  0  0  0  0  0  0
   -0.8869   -4.7118   -0.6889 C   0  0  0  0  0  0  0  0  0  0  0  0
   -2.1740   -4.8208   -0.0831 C   0  0  0  0  0  0  0  0  0  0  0  0
   -2.7793   -6.0303   -0.1398 N   0  0  0  0  0  0  0  0  0  0  0  0
   -1.6119   -6.8875   -0.9458 S   0  0  0  0  0  0  0  0  0  0  0  0
   -0.3706   -5.8323   -1.2508 N   0  0  0  0  0  0  0  0  0  0  0  0
   -2.7546   -3.6708    0.4692 C   0  0  0  0  0  0  0  0  0  0  0  0
   -3.9990   -3.4338    0.9829 C   0  0  0  0  0  0  0  0  0  0  0  0
   -5.3709   -4.2848    1.5062 S   0  0  0  0  0  0  0  0  0  0  0  0
   -6.1125   -2.8234    2.0024 C   0  0  0  0  0  0  0  0  0  0  0  0
   -7.2410   -2.5349    2.7793 C   0  0  0  0  0  0  0  0  0  0  0  0
   -8.1232   -3.5510    3.3857 C   0  0  0  0  0  0  0  0  0  0  0  0
   -7.5830   -4.6385    4.0946 C   0  0  0  0  0  0  0  0  0  0  0  0
   -8.4282   -5.5716    4.7006 C   0  0  0  0  0  0  0  0  0  0  0  0
   -9.8145   -5.4289    4.6040 C   0  0  0  0  0  0  0  0  0  0  0  0
  -10.3665   -4.3510    3.8912 C   0  0  0  0  0  0  0  0  0  0  0  0
  -11.8598   -4.1850    3.8086 C   0  0  0  0  0  0  0  0  0  0  0  0
  -12.3981   -3.4694    5.0428 C   0  0  0  0  0  0  0  0  0  0  0  0
   -9.5154   -3.4042    3.2989 C   0  0  0  0  0  0  0  0  0  0  0  0
   -7.3090   -1.1556    3.0728 C   0  0  0  0  0  0  0  0  0  0  0  0
   -5.9576   -0.3608    2.4011 S   0  0  0  0  0  0  0  0  0  0  0  0
   -5.3190   -1.7406    1.7207 C   0  0  0  0  0  0  0  0  0  0  0  0
   -4.1009   -2.0972    1.1733 C   0  0  0  0  0  0  0  0  0  0  0  0
   -2.9802   -1.4180    0.8342 N   0  0  0  0  0  0  0  0  0  0  0  0
   -2.1175   -2.4181    0.4527 C   0  0  0  0  0  0  0  0  0  0  0  0
   -0.7898   -2.3455   -0.0293 C   0  0  0  0  0  0  0  0  0  0  0  0
    0.1077   -1.3153    0.0168 N   0  0  0  0  0  0  0  0  0  0  0  0
    1.1499   -1.7895   -0.7023 C   0  0  0  0  0  0  0  0  0  0  0  0
    2.3280   -1.2291   -1.1398 C   0  0  0  0  0  0  0  0  0  0  0  0
    2.9080    0.3270   -1.2575 S   0  0  0  0  0  0  0  0  0  0  0  0
    0.2318   -0.2765    1.0507 C   0  0  0  0  0  0  0  0  0  0  0  0
    1.3119   -0.6298    2.0767 C   0  0  0  0  0  0  0  0  0  0  0  0
   -2.9679   -0.0081    0.4195 C   0  0  0  0  0  0  0  0  0  0  0  0
   -2.9973    0.9454    1.6205 C   0  0  0  0  0  0  0  0  0  0  0  0
   -8.0192   -0.5898    4.2358 C   0  0  0  0  0  0  0  0  0  0  0  0
   -7.4444   -0.5724    5.4493 C   0  0  0  0  0  0  0  0  0  0  0  0
   -6.1653   -1.2618    5.6973 C   0  0  0  0  0  0  0  0  0  0  0  0
   -5.0826   -0.5947    6.1114 C   0  0  0  0  0  0  0  0  0  0  0  0
   -3.7543   -1.2413    6.0095 C   0  0  0  0  0  0  0  0  0  0  0  0
   -2.5732   -0.6133    6.1755 C   0  0  0  0  0  0  0  0  0  0  0  0
   -2.3608    0.7252    6.7661 C   0  0  0  0  0  0  0  0  0  0  0  0
   -3.2263    1.5869    7.0743 O   0  0  0  0  0  0  0  0  0  0  0  0
   -0.9434    0.8686    6.9699 C   0  0  0  0  0  0  0  0  0  0  0  0
    0.0852    2.1109    7.4169 S   0  0  0  0  0  0  0  0  0  0  0  0
    1.4737    1.2001    7.0640 C   0  0  0  0  0  0  0  0  0  0  0  0
    3.1139    1.7905    7.2097 Cl  0  0  0  0  0  0  0  0  0  0  0  0
    1.1243   -0.0536    6.5507 C   0  0  0  0  0  0  0  0  0  0  0  0
   -0.2644   -0.2144    6.5180 C   0  0  0  0  0  0  0  0  0  0  0  0
   -1.2049   -1.2085    5.9502 C   0  0  0  0  0  0  0  0  0  0  0  0
   -0.8606   -2.3034    5.2277 C   0  0  0  0  0  0  0  0  0  0  0  0
    0.4946   -2.7868    5.1729 C   0  0  0  0  0  0  0  0  0  0  0  0
    1.5796   -3.1867    5.1220 N   0  0  0  0  0  0  0  0  0  0  0  0
   -1.8041   -3.0365    4.4298 C   0  0  0  0  0  0  0  0  0  0  0  0
   -2.5553   -3.6343    3.7853 N   0  0  0  0  0  0  0  0  0  0  0  0
    6.9092    5.1628   -4.8075 H   0  0  0  0  0  0  0  0  0  0  0  0
    4.1567   10.1056   -2.9704 H   0  0  0  0  0  0  0  0  0  0  0  0
    4.2265    4.1414   -6.2208 H   0  0  0  0  0  0  0  0  0  0  0  0
    1.1951    1.8539   -7.0377 H   0  0  0  0  0  0  0  0  0  0  0  0
    1.7818    3.5386   -7.2803 H   0  0  0  0  0  0  0  0  0  0  0  0
    3.6024    2.7325   -8.7611 H   0  0  0  0  0  0  0  0  0  0  0  0
    2.0180    2.0937   -9.3376 H   0  0  0  0  0  0  0  0  0  0  0  0
    3.1434    1.0104   -8.4380 H   0  0  0  0  0  0  0  0  0  0  0  0
    8.7172    1.1474    0.7324 H   0  0  0  0  0  0  0  0  0  0  0  0
    9.1705    2.8787    0.5286 H   0  0  0  0  0  0  0  0  0  0  0  0
    6.5689    1.8185    1.8223 H   0  0  0  0  0  0  0  0  0  0  0  0
    6.9876    3.5657    1.5828 H   0  0  0  0  0  0  0  0  0  0  0  0
    7.9840    2.5352    2.6821 H   0  0  0  0  0  0  0  0  0  0  0  0
    6.4282    0.3490   -0.6053 H   0  0  0  0  0  0  0  0  0  0  0  0
    5.3317   -3.8549   -1.8278 H   0  0  0  0  0  0  0  0  0  0  0  0
    6.9676   -5.1770   -3.1002 H   0  0  0  0  0  0  0  0  0  0  0  0
    7.8020   -4.3738   -5.2774 H   0  0  0  0  0  0  0  0  0  0  0  0
    6.2885   -1.6127   -7.1751 H   0  0  0  0  0  0  0  0  0  0  0  0
    7.5280   -2.9087   -7.1959 H   0  0  0  0  0  0  0  0  0  0  0  0
    7.8061   -0.1637   -5.7947 H   0  0  0  0  0  0  0  0  0  0  0  0
    8.5944   -0.6761   -7.3391 H   0  0  0  0  0  0  0  0  0  0  0  0
    9.0502   -1.4799   -5.7890 H   0  0  0  0  0  0  0  0  0  0  0  0
    5.2825   -0.9099   -4.9762 H   0  0  0  0  0  0  0  0  0  0  0  0
   -6.5102   -4.7509    4.2008 H   0  0  0  0  0  0  0  0  0  0  0  0
   -8.0091   -6.4024    5.2550 H   0  0  0  0  0  0  0  0  0  0  0  0
  -10.4584   -6.1592    5.0795 H   0  0  0  0  0  0  0  0  0  0  0  0
  -12.1359   -3.6031    2.9012 H   0  0  0  0  0  0  0  0  0  0  0  0
  -12.3444   -5.1799    3.7148 H   0  0  0  0  0  0  0  0  0  0  0  0
  -12.1745   -4.0537    5.9608 H   0  0  0  0  0  0  0  0  0  0  0  0
  -11.9400   -2.4593    5.1311 H   0  0  0  0  0  0  0  0  0  0  0  0
  -13.5007   -3.3554    4.9523 H   0  0  0  0  0  0  0  0  0  0  0  0
   -9.9330   -2.5586    2.7639 H   0  0  0  0  0  0  0  0  0  0  0  0
    0.4536    0.7014    0.5755 H   0  0  0  0  0  0  0  0  0  0  0  0
   -0.6978   -0.1992    1.6343 H   0  0  0  0  0  0  0  0  0  0  0  0
    2.3024   -0.7543    1.5986 H   0  0  0  0  0  0  0  0  0  0  0  0
    1.3826    0.1792    2.8330 H   0  0  0  0  0  0  0  0  0  0  0  0
    1.0375   -1.5749    2.5892 H   0  0  0  0  0  0  0  0  0  0  0  0
   -2.0869    0.2080   -0.2176 H   0  0  0  0  0  0  0  0  0  0  0  0
   -3.8515    0.1868   -0.2235 H   0  0  0  0  0  0  0  0  0  0  0  0
   -2.1807    1.6916    1.5364 H   0  0  0  0  0  0  0  0  0  0  0  0
   -2.8804    0.3998    2.5797 H   0  0  0  0  0  0  0  0  0  0  0  0
   -3.9528    1.5087    1.6435 H   0  0  0  0  0  0  0  0  0  0  0  0
   -8.9488   -0.0603    4.0770 H   0  0  0  0  0  0  0  0  0  0  0  0
   -7.9008   -0.0033    6.2460 H   0  0  0  0  0  0  0  0  0  0  0  0
   -6.0624   -2.2815    5.3491 H   0  0  0  0  0  0  0  0  0  0  0  0
   -5.1848    0.4476    6.3789 H   0  0  0  0  0  0  0  0  0  0  0  0
   -3.7604   -2.2848    5.7418 H   0  0  0  0  0  0  0  0  0  0  0  0
    1.8506   -0.7657    6.1918 H   0  0  0  0  0  0  0  0  0  0  0  0
  1  2  2  3
  2  3  1  0
  3  4  2  0
  3  5  1  0
  5  6  1  0
  6  7  1  0
  7  8  1  0
  7  9  2  0
  9 10  1  0
 10 11  1  0
 11 12  2  3
 12 13  1  0
 13 14  3  0
 12 15  1  0
 15 16  3  0
  1 17  1  0
 17 18  2  0
 18 19  1  0
 19 20  2  0
 20 21  1  0
 21 22  1  0
 20 23  1  0
 23 24  1  0
 24 25  2  0
 25 26  1  0
 26 27  2  0
 27 28  1  0
 28 29  1  0
 29 30  1  0
 30 31  1  0
 29 32  2  0
 25 33  1  0
 33 34  2  0
 34 35  1  0
 35 36  2  0
 36 37  1  0
 37 38  2  0
 38 39  1  0
 39 40  1  0
 40 41  1  0
 39 42  2  0
 34 43  1  0
 43 44  1  0
 44 45  1  0
 45 46  1  0
 46 47  1  0
 47 48  1  0
 48 49  2  0
 49 50  1  0
 50 51  1  0
 48 52  1  0
 52 53  1  0
 53 54  1  0
 54 55  1  0
 55 56  1  0
 56 57  1  0
 57 58  2  0
 58 59  1  0
 59 60  2  0
 60 61  1  0
 61 62  1  0
 62 63  1  0
 61 64  2  0
 56 65  2  0
 65 66  1  0
 66 67  1  0
 67 68  1  0
 68 69  1  0
 69 70  1  0
 70 71  1  0
 71 72  1  0
 72 73  1  0
 73 74  1  0
 74 75  1  0
 72 76  1  0
 76 77  1  0
 69 78  1  0
 78 79  1  0
 65 80  1  0
 80 81  2  3
 81 82  1  0
 82 83  2  3
 83 84  1  0
 84 85  2  3
 85 86  1  0
 86 87  2  0
 86 88  1  0
 88 89  1  0
 89 90  1  0
 90 91  1  0
 90 92  2  0
 92 93  1  0
 93 94  1  0
 94 95  2  3
 95 96  1  0
 96 97  3  0
 95 98  1  0
 98 99  3  0
 11  2  1  0
 27 17  1  0
 75 33  1  0
 94 85  1  0
 10  5  2  0
 24 18  1  0
 32 26  1  0
 42 35  1  0
 74 43  2  0
 93 88  2  0
 73 45  2  0
 71 46  2  0
 51 47  2  0
 70 52  2  0
 68 53  2  0
 67 55  2  0
 64 57  1  0
  1100  1  0
  9101  1  0
 19102  1  0
 21103  1  0
 21104  1  0
 22105  1  0
 22106  1  0
 22107  1  0
 30108  1  0
 30109  1  0
 31110  1  0
 31111  1  0
 31112  1  0
 32113  1  0
 36114  1  0
 37115  1  0
 38116  1  0
 40117  1  0
 40118  1  0
 41119  1  0
 41120  1  0
 41121  1  0
 42122  1  0
 58123  1  0
 59124  1  0
 60125  1  0
 62126  1  0
 62127  1  0
 63128  1  0
 63129  1  0
 63130  1  0
 64131  1  0
 76132  1  0
 76133  1  0
 77134  1  0
 77135  1  0
 77136  1  0
 78137  1  0
 78138  1  0
 79139  1  0
 79140  1  0
 79141  1  0
 80142  1  0
 81143  1  0
 82144  1  0
 83145  1  0
 84146  1  0
 92147  1  0
M  END

