
     RDKit          3D

207228  0  0  0  0  0  0  0  0999 V2000
    1.3719    7.5811   -2.5680 C   0  0  0  0  0  0  0  0  0  0  0  0
    1.4672    7.5953   -1.2156 C   0  0  0  0  0  0  0  0  0  0  0  0
    1.6789    6.3850   -0.4119 C   0  0  0  0  0  0  0  0  0  0  0  0
    2.0628    5.2543   -0.8152 O   0  0  0  0  0  0  0  0  0  0  0  0
    1.3818    6.6936    0.9618 C   0  0  0  0  0  0  0  0  0  0  0  0
    1.3159    5.8014    2.0441 C   0  0  0  0  0  0  0  0  0  0  0  0
    0.8809    6.2744    3.2840 C   0  0  0  0  0  0  0  0  0  0  0  0
    0.4975    7.6271    3.4248 C   0  0  0  0  0  0  0  0  0  0  0  0
    0.0314    8.1461    4.7709 C   0  0  0  0  0  0  0  0  0  0  0  0
    0.5539    8.4932    2.3123 C   0  0  0  0  0  0  0  0  0  0  0  0
    1.0352    8.0316    1.0835 C   0  0  0  0  0  0  0  0  0  0  0  0
    1.1419    8.7087   -0.2463 C   0  0  0  0  0  0  0  0  0  0  0  0
    1.0462   10.0386   -0.4902 C   0  0  0  0  0  0  0  0  0  0  0  0
    1.3120   10.6192   -1.7797 C   0  0  0  0  0  0  0  0  0  0  0  0
    1.5672   11.0624   -2.8110 N   0  0  0  0  0  0  0  0  0  0  0  0
    1.0874   10.9748    0.6195 C   0  0  0  0  0  0  0  0  0  0  0  0
    1.1392   11.7501    1.4783 N   0  0  0  0  0  0  0  0  0  0  0  0
    1.2175    6.3024   -3.2774 C   0  0  0  0  0  0  0  0  0  0  0  0
    0.0760    5.5150   -3.1343 C   0  0  0  0  0  0  0  0  0  0  0  0
   -1.1866    6.0153   -2.6554 N   0  0  0  0  0  0  0  0  0  0  0  0
   -2.0989    6.5245   -3.6234 C   0  0  0  0  0  0  0  0  0  0  0  0
   -2.9283    5.6464   -4.3483 C   0  0  0  0  0  0  0  0  0  0  0  0
   -3.7548    6.1263   -5.3643 C   0  0  0  0  0  0  0  0  0  0  0  0
   -3.7651    7.4984   -5.6646 C   0  0  0  0  0  0  0  0  0  0  0  0
   -4.6451    8.0078   -6.7690 C   0  0  0  0  0  0  0  0  0  0  0  0
   -2.9344    8.3700   -4.9600 C   0  0  0  0  0  0  0  0  0  0  0  0
   -2.0928    7.8865   -3.9528 C   0  0  0  0  0  0  0  0  0  0  0  0
   -1.5919    5.8666   -1.2725 C   0  0  0  0  0  0  0  0  0  0  0  0
   -1.1871    4.7543   -0.5195 C   0  0  0  0  0  0  0  0  0  0  0  0
   -1.5944    4.6172    0.8132 C   0  0  0  0  0  0  0  0  0  0  0  0
   -2.3734    5.6135    1.4197 C   0  0  0  0  0  0  0  0  0  0  0  0
   -2.8165    5.4556    2.8440 C   0  0  0  0  0  0  0  0  0  0  0  0
   -2.7946    6.7124    0.6616 C   0  0  0  0  0  0  0  0  0  0  0  0
   -2.4119    6.8375   -0.6755 C   0  0  0  0  0  0  0  0  0  0  0  0
    0.2587    4.2394   -3.6497 C   0  0  0  0  0  0  0  0  0  0  0  0
   -0.7193    2.8993   -3.7426 S   0  0  0  0  0  0  0  0  0  0  0  0
    0.4182    1.9777   -4.5916 C   0  0  0  0  0  0  0  0  0  0  0  0
    1.5847    2.7363   -4.8068 C   0  0  0  0  0  0  0  0  0  0  0  0
    2.4496    2.4995   -5.9243 N   0  0  0  0  0  0  0  0  0  0  0  0
    3.8939    2.5408   -5.8053 C   0  0  0  0  0  0  0  0  0  0  0  0
    4.5434    2.0032   -4.6850 C   0  0  0  0  0  0  0  0  0  0  0  0
    5.9425    2.0121   -4.6104 C   0  0  0  0  0  0  0  0  0  0  0  0
    6.7041    2.5085   -5.6682 C   0  0  0  0  0  0  0  0  0  0  0  0
    8.2091    2.4535   -5.6420 C   0  0  0  0  0  0  0  0  0  0  0  0
    6.0670    3.0774   -6.7833 C   0  0  0  0  0  0  0  0  0  0  0  0
    4.6762    3.0849   -6.8530 C   0  0  0  0  0  0  0  0  0  0  0  0
    1.8339    2.3481   -7.2182 C   0  0  0  0  0  0  0  0  0  0  0  0
    0.7546    3.1770   -7.5826 C   0  0  0  0  0  0  0  0  0  0  0  0
    0.0655    2.9709   -8.7737 C   0  0  0  0  0  0  0  0  0  0  0  0
    0.4175    1.9085   -9.6085 C   0  0  0  0  0  0  0  0  0  0  0  0
   -0.3515    1.6607  -10.8819 C   0  0  0  0  0  0  0  0  0  0  0  0
    1.5050    1.0845   -9.2700 C   0  0  0  0  0  0  0  0  0  0  0  0
    2.2082    1.3012   -8.0773 C   0  0  0  0  0  0  0  0  0  0  0  0
    1.4583    4.0037   -4.2284 C   0  0  0  0  0  0  0  0  0  0  0  0
    2.4006    5.4023   -4.1098 S   0  0  0  0  0  0  0  0  0  0  0  0
    0.2274    0.5450   -4.8642 C   0  0  0  0  0  0  0  0  0  0  0  0
   -0.9814   -0.0922   -5.1748 C   0  0  0  0  0  0  0  0  0  0  0  0
   -2.2089    0.5551   -5.6543 C   0  0  0  0  0  0  0  0  0  0  0  0
   -3.1710    1.0058   -4.7331 C   0  0  0  0  0  0  0  0  0  0  0  0
   -4.3983    1.4903   -5.1789 C   0  0  0  0  0  0  0  0  0  0  0  0
   -4.7045    1.4630   -6.5492 C   0  0  0  0  0  0  0  0  0  0  0  0
   -3.7587    1.0110   -7.4780 C   0  0  0  0  0  0  0  0  0  0  0  0
   -4.1406    0.8866   -8.9272 C   0  0  0  0  0  0  0  0  0  0  0  0
   -4.2542    2.2563   -9.5769 C   0  0  0  0  0  0  0  0  0  0  0  0
   -2.4981    0.5746   -7.0224 C   0  0  0  0  0  0  0  0  0  0  0  0
   -0.9203   -1.4708   -4.9480 C   0  0  0  0  0  0  0  0  0  0  0  0
   -2.1264   -2.6747   -4.8355 S   0  0  0  0  0  0  0  0  0  0  0  0
   -1.0313   -3.7766   -4.1343 C   0  0  0  0  0  0  0  0  0  0  0  0
   -1.0866   -4.8812   -3.3264 C   0  0  0  0  0  0  0  0  0  0  0  0
   -2.0403   -5.8849   -3.1592 C   0  0  0  0  0  0  0  0  0  0  0  0
   -1.7805   -6.9201   -2.2096 C   0  0  0  0  0  0  0  0  0  0  0  0
   -2.7340   -7.8757   -2.0983 N   0  0  0  0  0  0  0  0  0  0  0  0
   -3.8403   -7.3589   -3.2079 S   0  0  0  0  0  0  0  0  0  0  0  0
   -3.2114   -5.9541   -3.8287 N   0  0  0  0  0  0  0  0  0  0  0  0
   -0.6164   -6.8679   -1.4357 C   0  0  0  0  0  0  0  0  0  0  0  0
   -0.3783   -7.4261   -0.2007 C   0  0  0  0  0  0  0  0  0  0  0  0
   -1.3277   -8.2802    0.9197 S   0  0  0  0  0  0  0  0  0  0  0  0
   -0.5695   -7.5546    2.2655 C   0  0  0  0  0  0  0  0  0  0  0  0
   -0.8760   -7.4858    3.6388 C   0  0  0  0  0  0  0  0  0  0  0  0
   -1.6826   -8.5173    4.3255 C   0  0  0  0  0  0  0  0  0  0  0  0
   -2.8999   -8.9402    3.7710 C   0  0  0  0  0  0  0  0  0  0  0  0
   -3.6935   -9.8851    4.4258 C   0  0  0  0  0  0  0  0  0  0  0  0
   -3.2761  -10.4386    5.6406 C   0  0  0  0  0  0  0  0  0  0  0  0
   -2.0668  -10.0242    6.2098 C   0  0  0  0  0  0  0  0  0  0  0  0
   -1.6852  -10.5072    7.5873 C   0  0  0  0  0  0  0  0  0  0  0  0
   -2.1749   -9.5022    8.6223 C   0  0  0  0  0  0  0  0  0  0  0  0
   -1.2683   -9.0719    5.5478 C   0  0  0  0  0  0  0  0  0  0  0  0
   -0.2188   -6.3915    4.2588 C   0  0  0  0  0  0  0  0  0  0  0  0
    0.8140   -5.7228    3.0788 S   0  0  0  0  0  0  0  0  0  0  0  0
    0.3755   -6.6839    1.8175 C   0  0  0  0  0  0  0  0  0  0  0  0
    0.4877   -6.5861    0.4349 C   0  0  0  0  0  0  0  0  0  0  0  0
    0.8610   -5.5268   -0.3327 N   0  0  0  0  0  0  0  0  0  0  0  0
    0.2650   -5.7761   -1.5433 C   0  0  0  0  0  0  0  0  0  0  0  0
    0.1076   -4.8801   -2.6213 C   0  0  0  0  0  0  0  0  0  0  0  0
    0.9261   -3.8733   -3.0471 N   0  0  0  0  0  0  0  0  0  0  0  0
    0.1861   -3.2127   -3.9615 C   0  0  0  0  0  0  0  0  0  0  0  0
    0.2617   -1.9166   -4.4501 C   0  0  0  0  0  0  0  0  0  0  0  0
    1.3157   -0.6288   -4.2604 S   0  0  0  0  0  0  0  0  0  0  0  0
    2.3832   -3.7401   -2.8712 C   0  0  0  0  0  0  0  0  0  0  0  0
    3.1247   -4.1994   -4.1343 C   0  0  0  0  0  0  0  0  0  0  0  0
    1.1251   -4.1812    0.2186 C   0  0  0  0  0  0  0  0  0  0  0  0
   -0.1834   -3.4987    0.6368 C   0  0  0  0  0  0  0  0  0  0  0  0
   -0.4119   -5.6441    5.5610 C   0  0  0  0  0  0  0  0  0  0  0  0
   -1.4410   -5.7142    6.4370 C   0  0  0  0  0  0  0  0  0  0  0  0
   -1.4697   -4.5144    7.2477 C   0  0  0  0  0  0  0  0  0  0  0  0
   -0.5888   -3.5840    6.5909 C   0  0  0  0  0  0  0  0  0  0  0  0
   -0.9993   -2.4893    6.1649 O   0  0  0  0  0  0  0  0  0  0  0  0
    0.2633   -4.3849    5.8024 N   0  0  0  0  0  0  0  0  0  0  0  0
    1.5831   -3.9160    5.3993 C   0  0  0  0  0  0  0  0  0  0  0  0
   -2.6834   -4.2621    7.7797 C   0  0  0  0  0  0  0  0  0  0  0  0
   -3.6227   -5.1988    7.2436 N   0  0  0  0  0  0  0  0  0  0  0  0
   -5.0104   -4.8524    6.9466 C   0  0  0  0  0  0  0  0  0  0  0  0
   -2.8658   -6.0442    6.3651 C   0  0  0  0  0  0  0  0  0  0  0  0
   -3.4122   -6.7826    5.5025 O   0  0  0  0  0  0  0  0  0  0  0  0
   -3.0443   -2.9085    8.1863 C   0  0  0  0  0  0  0  0  0  0  0  0
   -2.3670   -2.1605    9.0934 C   0  0  0  0  0  0  0  0  0  0  0  0
   -1.1136   -2.5294    9.7532 C   0  0  0  0  0  0  0  0  0  0  0  0
   -0.6637   -3.6989    9.9187 O   0  0  0  0  0  0  0  0  0  0  0  0
   -0.4320   -1.3241   10.1771 C   0  0  0  0  0  0  0  0  0  0  0  0
    0.8952   -1.1654   10.5786 C   0  0  0  0  0  0  0  0  0  0  0  0
    1.4016    0.1235   10.7406 C   0  0  0  0  0  0  0  0  0  0  0  0
    0.5791    1.2400   10.5148 C   0  0  0  0  0  0  0  0  0  0  0  0
    1.1621    2.6306   10.5987 C   0  0  0  0  0  0  0  0  0  0  0  0
   -0.7352    1.0619   10.0550 C   0  0  0  0  0  0  0  0  0  0  0  0
   -1.2321   -0.2376    9.8857 C   0  0  0  0  0  0  0  0  0  0  0  0
   -2.5250   -0.6923    9.3221 C   0  0  0  0  0  0  0  0  0  0  0  0
   -3.6860   -0.0052    9.3128 C   0  0  0  0  0  0  0  0  0  0  0  0
   -4.9234   -0.6157    8.8694 C   0  0  0  0  0  0  0  0  0  0  0  0
   -5.9338   -1.0583    8.5007 N   0  0  0  0  0  0  0  0  0  0  0  0
   -3.8005    1.3375    9.8114 C   0  0  0  0  0  0  0  0  0  0  0  0
   -3.9045    2.4258   10.1933 N   0  0  0  0  0  0  0  0  0  0  0  0
    1.1794    8.4810   -3.1127 H   0  0  0  0  0  0  0  0  0  0  0  0
    1.5599    4.7560    1.9084 H   0  0  0  0  0  0  0  0  0  0  0  0
    0.8196    5.5799    4.1187 H   0  0  0  0  0  0  0  0  0  0  0  0
   -0.0108    7.3297    5.5233 H   0  0  0  0  0  0  0  0  0  0  0  0
   -0.9823    8.5925    4.6649 H   0  0  0  0  0  0  0  0  0  0  0  0
    0.7489    8.9139    5.1216 H   0  0  0  0  0  0  0  0  0  0  0  0
    0.1653    9.4815    2.4355 H   0  0  0  0  0  0  0  0  0  0  0  0
   -2.9186    4.5895   -4.1211 H   0  0  0  0  0  0  0  0  0  0  0  0
   -4.3556    5.4243   -5.9232 H   0  0  0  0  0  0  0  0  0  0  0  0
   -5.4843    7.3048   -6.9656 H   0  0  0  0  0  0  0  0  0  0  0  0
   -5.0692    8.9969   -6.4912 H   0  0  0  0  0  0  0  0  0  0  0  0
   -4.0272    8.1104   -7.6761 H   0  0  0  0  0  0  0  0  0  0  0  0
   -2.9130    9.4242   -5.2030 H   0  0  0  0  0  0  0  0  0  0  0  0
   -1.4392    8.5699   -3.4207 H   0  0  0  0  0  0  0  0  0  0  0  0
   -0.5651    3.9866   -0.9521 H   0  0  0  0  0  0  0  0  0  0  0  0
   -1.2972    3.7273    1.3672 H   0  0  0  0  0  0  0  0  0  0  0  0
   -3.7709    4.8941    2.8794 H   0  0  0  0  0  0  0  0  0  0  0  0
   -2.0477    4.9038    3.4240 H   0  0  0  0  0  0  0  0  0  0  0  0
   -2.9507    6.4457    3.3166 H   0  0  0  0  0  0  0  0  0  0  0  0
   -3.4252    7.4669    1.1130 H   0  0  0  0  0  0  0  0  0  0  0  0
   -2.7450    7.7051   -1.2283 H   0  0  0  0  0  0  0  0  0  0  0  0
    3.9616    1.5910   -3.8710 H   0  0  0  0  0  0  0  0  0  0  0  0
    6.4184    1.6048   -3.7298 H   0  0  0  0  0  0  0  0  0  0  0  0
    8.5839    1.8875   -4.7649 H   0  0  0  0  0  0  0  0  0  0  0  0
    8.5924    1.9681   -6.5647 H   0  0  0  0  0  0  0  0  0  0  0  0
    8.6072    3.4886   -5.5960 H   0  0  0  0  0  0  0  0  0  0  0  0
    6.6476    3.4913   -7.5976 H   0  0  0  0  0  0  0  0  0  0  0  0
    4.1974    3.5263   -7.7190 H   0  0  0  0  0  0  0  0  0  0  0  0
    0.4545    3.9899   -6.9393 H   0  0  0  0  0  0  0  0  0  0  0  0
   -0.7693    3.6235   -9.0201 H   0  0  0  0  0  0  0  0  0  0  0  0
   -1.3686    2.0971  -10.8082 H   0  0  0  0  0  0  0  0  0  0  0  0
    0.1897    2.1365  -11.7276 H   0  0  0  0  0  0  0  0  0  0  0  0
   -0.4444    0.5664  -11.0569 H   0  0  0  0  0  0  0  0  0  0  0  0
    1.7978    0.2586   -9.9189 H   0  0  0  0  0  0  0  0  0  0  0  0
    3.0195    0.6457   -7.8131 H   0  0  0  0  0  0  0  0  0  0  0  0
   -2.9811    0.9523   -3.6792 H   0  0  0  0  0  0  0  0  0  0  0  0
   -5.1435    1.8288   -4.4695 H   0  0  0  0  0  0  0  0  0  0  0  0
   -5.6930    1.7914   -6.8784 H   0  0  0  0  0  0  0  0  0  0  0  0
   -3.3827    0.2801   -9.4864 H   0  0  0  0  0  0  0  0  0  0  0  0
   -5.1186    0.3617   -9.0186 H   0  0  0  0  0  0  0  0  0  0  0  0
   -3.3401    2.8671   -9.3814 H   0  0  0  0  0  0  0  0  0  0  0  0
   -4.3753    2.1469  -10.6780 H   0  0  0  0  0  0  0  0  0  0  0  0
   -5.1313    2.8051   -9.1828 H   0  0  0  0  0  0  0  0  0  0  0  0
   -1.7692    0.2087   -7.7384 H   0  0  0  0  0  0  0  0  0  0  0  0
   -3.2950   -8.4977    2.8637 H   0  0  0  0  0  0  0  0  0  0  0  0
   -4.6376  -10.1797    4.0087 H   0  0  0  0  0  0  0  0  0  0  0  0
   -3.9296  -11.1366    6.1666 H   0  0  0  0  0  0  0  0  0  0  0  0
   -0.5769  -10.6231    7.6703 H   0  0  0  0  0  0  0  0  0  0  0  0
   -2.1459  -11.5038    7.7839 H   0  0  0  0  0  0  0  0  0  0  0  0
   -1.6293   -8.5348    8.5057 H   0  0  0  0  0  0  0  0  0  0  0  0
   -1.9898   -9.8956    9.6419 H   0  0  0  0  0  0  0  0  0  0  0  0
   -3.2673   -9.3226    8.4980 H   0  0  0  0  0  0  0  0  0  0  0  0
   -0.3318   -8.7831    5.9793 H   0  0  0  0  0  0  0  0  0  0  0  0
    2.6451   -2.6960   -2.6537 H   0  0  0  0  0  0  0  0  0  0  0  0
    2.7620   -4.3653   -2.0423 H   0  0  0  0  0  0  0  0  0  0  0  0
    4.1349   -3.7607   -4.1379 H   0  0  0  0  0  0  0  0  0  0  0  0
    3.2304   -5.2997   -4.1133 H   0  0  0  0  0  0  0  0  0  0  0  0
    2.6090   -3.8445   -5.0539 H   0  0  0  0  0  0  0  0  0  0  0  0
    1.5836   -3.5158   -0.5119 H   0  0  0  0  0  0  0  0  0  0  0  0
    1.8384   -4.2213    1.0710 H   0  0  0  0  0  0  0  0  0  0  0  0
   -0.9146   -3.5491   -0.1961 H   0  0  0  0  0  0  0  0  0  0  0  0
   -0.6434   -3.9829    1.5238 H   0  0  0  0  0  0  0  0  0  0  0  0
   -0.0083   -2.4318    0.8627 H   0  0  0  0  0  0  0  0  0  0  0  0
    2.2876   -4.7777    5.3100 H   0  0  0  0  0  0  0  0  0  0  0  0
    2.0021   -3.1931    6.1252 H   0  0  0  0  0  0  0  0  0  0  0  0
    1.4999   -3.3986    4.4257 H   0  0  0  0  0  0  0  0  0  0  0  0
   -5.5975   -5.7883    6.7691 H   0  0  0  0  0  0  0  0  0  0  0  0
   -5.0647   -4.2391    6.0135 H   0  0  0  0  0  0  0  0  0  0  0  0
   -5.5078   -4.3501    7.8315 H   0  0  0  0  0  0  0  0  0  0  0  0
   -3.8186   -2.4706    7.5686 H   0  0  0  0  0  0  0  0  0  0  0  0
    1.5194   -2.0239   10.7417 H   0  0  0  0  0  0  0  0  0  0  0  0
    2.4470    0.2602   11.0327 H   0  0  0  0  0  0  0  0  0  0  0  0
    1.5987    2.9294    9.6190 H   0  0  0  0  0  0  0  0  0  0  0  0
    1.9495    2.6634   11.3778 H   0  0  0  0  0  0  0  0  0  0  0  0
    0.3747    3.3695   10.8801 H   0  0  0  0  0  0  0  0  0  0  0  0
   -1.2948    1.9224    9.7538 H   0  0  0  0  0  0  0  0  0  0  0  0
  1  2  2  3
  2  3  1  0
  3  4  2  0
  3  5  1  0
  5  6  2  0
  6  7  1  0
  7  8  2  0
  8  9  1  0
  8 10  1  0
 10 11  2  0
 11 12  1  0
 12 13  2  3
 13 14  1  0
 14 15  3  0
 13 16  1  0
 16 17  3  0
  1 18  1  0
 18 19  2  0
 19 20  1  0
 20 21  1  0
 21 22  2  0
 22 23  1  0
 23 24  2  0
 24 25  1  0
 24 26  1  0
 26 27  2  0
 20 28  1  0
 28 29  2  0
 29 30  1  0
 30 31  2  0
 31 32  1  0
 31 33  1  0
 33 34  2  0
 19 35  1  0
 35 36  1  0
 36 37  1  0
 37 38  2  0
 38 39  1  0
 39 40  1  0
 40 41  2  0
 41 42  1  0
 42 43  2  0
 43 44  1  0
 43 45  1  0
 45 46  2  0
 39 47  1  0
 47 48  2  0
 48 49  1  0
 49 50  2  0
 50 51  1  0
 50 52  1  0
 52 53  2  0
 38 54  1  0
 54 55  1  0
 37 56  1  0
 56 57  2  0
 57 58  1  0
 58 59  2  0
 59 60  1  0
 60 61  2  0
 61 62  1  0
 62 63  1  0
 63 64  1  0
 62 65  2  0
 57 66  1  0
 66 67  1  0
 67 68  1  0
 68 69  1  0
 69 70  1  0
 70 71  1  0
 71 72  2  0
 72 73  1  0
 73 74  1  0
 71 75  1  0
 75 76  1  0
 76 77  1  0
 77 78  1  0
 78 79  1  0
 79 80  1  0
 80 81  2  0
 81 82  1  0
 82 83  2  0
 83 84  1  0
 84 85  1  0
 85 86  1  0
 84 87  2  0
 79 88  2  0
 88 89  1  0
 89 90  1  0
 90 91  1  0
 91 92  1  0
 92 93  1  0
 93 94  1  0
 94 95  1  0
 95 96  1  0
 96 97  1  0
 97 98  1  0
 95 99  1  0
 99100  1  0
 92101  1  0
101102  1  0
 88103  1  0
103104  2  0
104105  1  0
105106  1  0
106107  2  0
106108  1  0
108109  1  0
105110  2  0
110111  1  0
111112  1  0
111113  1  0
113114  2  0
110115  1  0
115116  2  3
116117  1  0
117118  2  0
117119  1  0
119120  2  0
120121  1  0
121122  2  0
122123  1  0
122124  1  0
124125  2  0
125126  1  0
126127  2  3
127128  1  0
128129  3  0
127130  1  0
130131  3  0
 12  2  1  0
 55 18  1  0
 98 56  1  0
108103  1  0
126116  1  0
 11  5  1  0
 27 21  1  0
 34 28  1  0
 54 35  2  0
 65 58  1  0
 97 66  2  0
113104  1  0
125119  1  0
 46 40  1  0
 53 47  1  0
 96 68  2  0
 94 69  2  0
 74 70  2  0
 93 75  2  0
 91 76  2  0
 90 78  2  0
 87 80  1  0
  1132  1  0
  6133  1  0
  7134  1  0
  9135  1  0
  9136  1  0
  9137  1  0
 10138  1  0
 22139  1  0
 23140  1  0
 25141  1  0
 25142  1  0
 25143  1  0
 26144  1  0
 27145  1  0
 29146  1  0
 30147  1  0
 32148  1  0
 32149  1  0
 32150  1  0
 33151  1  0
 34152  1  0
 41153  1  0
 42154  1  0
 44155  1  0
 44156  1  0
 44157  1  0
 45158  1  0
 46159  1  0
 48160  1  0
 49161  1  0
 51162  1  0
 51163  1  0
 51164  1  0
 52165  1  0
 53166  1  0
 59167  1  0
 60168  1  0
 61169  1  0
 63170  1  0
 63171  1  0
 64172  1  0
 64173  1  0
 64174  1  0
 65175  1  0
 81176  1  0
 82177  1  0
 83178  1  0
 85179  1  0
 85180  1  0
 86181  1  0
 86182  1  0
 86183  1  0
 87184  1  0
 99185  1  0
 99186  1  0
100187  1  0
100188  1  0
100189  1  0
101190  1  0
101191  1  0
102192  1  0
102193  1  0
102194  1  0
109195  1  0
109196  1  0
109197  1  0
112198  1  0
112199  1  0
112200  1  0
115201  1  0
120202  1  0
121203  1  0
123204  1  0
123205  1  0
123206  1  0
124207  1  0
M  END

