
     RDKit          3D

232255  0  0  0  0  0  0  0  0999 V2000
    4.5826    2.4521   -9.0829 C   0  0  0  0  0  0  0  0  0  0  0  0
    5.1252    1.3318   -9.3758 C   0  0  0  0  0  0  0  0  0  0  0  0
    6.2910    1.2466  -10.3330 C   0  0  0  0  0  0  0  0  0  0  0  0
    6.7805    2.2588  -10.9035 O   0  0  0  0  0  0  0  0  0  0  0  0
    6.7011   -0.1246  -10.4651 C   0  0  0  0  0  0  0  0  0  0  0  0
    7.7424   -0.7014  -11.2120 C   0  0  0  0  0  0  0  0  0  0  0  0
    7.9703   -2.0819  -11.1817 C   0  0  0  0  0  0  0  0  0  0  0  0
    7.1761   -2.8632  -10.4311 C   0  0  0  0  0  0  0  0  0  0  0  0
    7.2119   -4.3519  -10.3315 C   0  0  0  0  0  0  0  0  0  0  0  0
    6.1517   -2.2577   -9.7050 C   0  0  0  0  0  0  0  0  0  0  0  0
    5.8972   -0.9010   -9.6989 C   0  0  0  0  0  0  0  0  0  0  0  0
    4.8862   -0.0714   -8.9819 C   0  0  0  0  0  0  0  0  0  0  0  0
    3.9907   -0.6130   -8.3143 C   0  0  0  0  0  0  0  0  0  0  0  0
    2.7693    0.0340   -7.6446 C   0  0  0  0  0  0  0  0  0  0  0  0
    2.0466    0.4205   -7.2300 N   0  0  0  0  0  0  0  0  0  0  0  0
    3.9482   -1.9333   -7.9473 C   0  0  0  0  0  0  0  0  0  0  0  0
    3.9107   -3.2251   -7.5642 N   0  0  0  0  0  0  0  0  0  0  0  0
    3.5265    2.8883   -8.2351 C   0  0  0  0  0  0  0  0  0  0  0  0
    2.2519    3.3756   -8.4359 C   0  0  0  0  0  0  0  0  0  0  0  0
    1.7645    3.5577   -9.7832 N   0  0  0  0  0  0  0  0  0  0  0  0
    1.9304    4.9218  -10.2483 C   0  0  0  0  0  0  0  0  0  0  0  0
    0.8951    5.4855  -10.9353 C   0  0  0  0  0  0  0  0  0  0  0  0
    0.9678    6.7873  -11.3582 C   0  0  0  0  0  0  0  0  0  0  0  0
    2.1034    7.5051  -11.0800 C   0  0  0  0  0  0  0  0  0  0  0  0
    2.1919    8.9097  -11.5436 C   0  0  0  0  0  0  0  0  0  0  0  0
    3.1531    6.9538  -10.3932 C   0  0  0  0  0  0  0  0  0  0  0  0
    3.0771    5.6250   -9.9559 C   0  0  0  0  0  0  0  0  0  0  0  0
    1.1068    2.6187  -10.5510 C   0  0  0  0  0  0  0  0  0  0  0  0
    1.3492    2.3392  -11.8941 C   0  0  0  0  0  0  0  0  0  0  0  0
    0.5826    1.4770  -12.6025 C   0  0  0  0  0  0  0  0  0  0  0  0
   -0.4828    0.8077  -12.1002 C   0  0  0  0  0  0  0  0  0  0  0  0
   -1.3839   -0.1157  -12.8230 C   0  0  0  0  0  0  0  0  0  0  0  0
   -0.7705    1.0498  -10.7398 C   0  0  0  0  0  0  0  0  0  0  0  0
    0.0011    1.9105  -10.0387 C   0  0  0  0  0  0  0  0  0  0  0  0
    1.5774    3.7435   -7.3020 C   0  0  0  0  0  0  0  0  0  0  0  0
    0.0027    4.3628   -6.9148 S   0  0  0  0  0  0  0  0  0  0  0  0
    0.1703    4.4481   -5.1943 C   0  0  0  0  0  0  0  0  0  0  0  0
    1.4176    3.9964   -4.9813 C   0  0  0  0  0  0  0  0  0  0  0  0
    2.0845    3.7799   -3.7130 N   0  0  0  0  0  0  0  0  0  0  0  0
    2.2448    4.5731   -2.6182 C   0  0  0  0  0  0  0  0  0  0  0  0
    2.5107    5.8972   -2.6468 C   0  0  0  0  0  0  0  0  0  0  0  0
    2.7427    6.6869   -1.5196 C   0  0  0  0  0  0  0  0  0  0  0  0
    2.6997    6.0120   -0.2989 C   0  0  0  0  0  0  0  0  0  0  0  0
    2.9822    6.7788    0.9775 C   0  0  0  0  0  0  0  0  0  0  0  0
    2.4280    4.6838   -0.2291 C   0  0  0  0  0  0  0  0  0  0  0  0
    2.2006    3.9509   -1.3534 C   0  0  0  0  0  0  0  0  0  0  0  0
    2.7830    2.4739   -3.5674 C   0  0  0  0  0  0  0  0  0  0  0  0
    4.0934    2.5748   -3.0877 C   0  0  0  0  0  0  0  0  0  0  0  0
    4.8177    1.4149   -2.9363 C   0  0  0  0  0  0  0  0  0  0  0  0
    4.2462    0.2305   -3.2455 C   0  0  0  0  0  0  0  0  0  0  0  0
    5.0748   -1.0172   -3.1009 C   0  0  0  0  0  0  0  0  0  0  0  0
    2.9417    0.1339   -3.7188 C   0  0  0  0  0  0  0  0  0  0  0  0
    2.2296    1.3039   -3.8703 C   0  0  0  0  0  0  0  0  0  0  0  0
    2.1271    3.6321   -6.1269 C   0  0  0  0  0  0  0  0  0  0  0  0
    3.6524    3.0032   -6.4910 S   0  0  0  0  0  0  0  0  0  0  0  0
   -0.8506    4.8829   -4.2077 C   0  0  0  0  0  0  0  0  0  0  0  0
   -2.1331    5.2470   -4.3117 C   0  0  0  0  0  0  0  0  0  0  0  0
   -2.7706    5.4054   -5.6831 C   0  0  0  0  0  0  0  0  0  0  0  0
   -2.4529    6.7491   -6.2143 C   0  0  0  0  0  0  0  0  0  0  0  0
   -2.8281    5.4795   -3.1168 C   0  0  0  0  0  0  0  0  0  0  0  0
   -4.4378    5.7901   -2.5068 S   0  0  0  0  0  0  0  0  0  0  0  0
   -4.1361    5.6855   -0.8097 C   0  0  0  0  0  0  0  0  0  0  0  0
   -4.6934    5.5349    0.4559 C   0  0  0  0  0  0  0  0  0  0  0  0
   -5.9951    5.5858    0.9841 C   0  0  0  0  0  0  0  0  0  0  0  0
   -6.2004    5.2277    2.2533 C   0  0  0  0  0  0  0  0  0  0  0  0
   -7.4108    5.3454    2.7458 N   0  0  0  0  0  0  0  0  0  0  0  0
   -8.4802    5.9457    1.6270 Se  0  0  0  0  0  2  0  0  0  0  0  0
   -6.9768    6.0535    0.2046 N   0  0  0  0  0  0  0  0  0  0  0  0
   -5.0906    4.7585    3.0256 C   0  0  0  0  0  0  0  0  0  0  0  0
   -5.1261    3.8472    4.0947 C   0  0  0  0  0  0  0  0  0  0  0  0
   -6.1250    2.9900    5.2100 S   0  0  0  0  0  0  0  0  0  0  0  0
   -4.8987    1.8134    5.7709 C   0  0  0  0  0  0  0  0  0  0  0  0
   -4.9469    0.5532    6.4130 C   0  0  0  0  0  0  0  0  0  0  0  0
   -6.0557    0.3097    7.3844 C   0  0  0  0  0  0  0  0  0  0  0  0
   -5.7434    1.2147    8.6299 C   0  0  0  0  0  0  0  0  0  0  0  0
   -3.8979   -0.2293    6.2479 C   0  0  0  0  0  0  0  0  0  0  0  0
   -2.8565    0.7796    5.2727 S   0  0  0  0  0  0  0  0  0  0  0  0
   -3.8967    2.1847    5.0965 C   0  0  0  0  0  0  0  0  0  0  0  0
   -3.9221    3.2508    4.1957 C   0  0  0  0  0  0  0  0  0  0  0  0
   -3.0909    3.7776    3.2454 N   0  0  0  0  0  0  0  0  0  0  0  0
   -3.8441    4.7056    2.5413 C   0  0  0  0  0  0  0  0  0  0  0  0
   -3.5895    5.1452    1.2293 C   0  0  0  0  0  0  0  0  0  0  0  0
   -2.4890    5.1176    0.5363 N   0  0  0  0  0  0  0  0  0  0  0  0
   -2.8170    5.4334   -0.7769 C   0  0  0  0  0  0  0  0  0  0  0  0
   -2.1709    5.3318   -1.9729 C   0  0  0  0  0  0  0  0  0  0  0  0
   -0.6051    4.8762   -2.5200 S   0  0  0  0  0  0  0  0  0  0  0  0
   -1.1469    5.4264    1.0573 C   0  0  0  0  0  0  0  0  0  0  0  0
   -0.9040    6.9709    0.7630 C   0  0  0  0  0  0  0  0  0  0  0  0
   -1.7467    3.3444    3.1123 C   0  0  0  0  0  0  0  0  0  0  0  0
   -1.4136    1.8776    2.9655 C   0  0  0  0  0  0  0  0  0  0  0  0
   -3.4039   -1.6066    6.4210 C   0  0  0  0  0  0  0  0  0  0  0  0
   -3.6946   -2.7904    6.9052 C   0  0  0  0  0  0  0  0  0  0  0  0
   -5.1544   -3.2147    6.8666 N   0  0  0  0  0  0  0  0  0  0  0  0
   -5.4047   -3.6089    5.4721 C   0  0  0  0  0  0  0  0  0  0  0  0
   -4.6038   -4.5763    4.8321 C   0  0  0  0  0  0  0  0  0  0  0  0
   -4.6841   -4.7995    3.4615 C   0  0  0  0  0  0  0  0  0  0  0  0
   -5.5439   -4.0841    2.6901 C   0  0  0  0  0  0  0  0  0  0  0  0
   -5.6899   -4.2539    1.2102 C   0  0  0  0  0  0  0  0  0  0  0  0
   -6.3321   -3.1356    3.2913 C   0  0  0  0  0  0  0  0  0  0  0  0
   -6.2416   -2.9217    4.6768 C   0  0  0  0  0  0  0  0  0  0  0  0
   -6.0872   -3.3162    7.8219 C   0  0  0  0  0  0  0  0  0  0  0  0
   -7.4180   -2.9473    7.5492 C   0  0  0  0  0  0  0  0  0  0  0  0
   -8.3719   -2.9060    8.5351 C   0  0  0  0  0  0  0  0  0  0  0  0
   -8.1103   -3.2211    9.8330 C   0  0  0  0  0  0  0  0  0  0  0  0
   -9.1982   -3.0969   10.8685 C   0  0  0  0  0  0  0  0  0  0  0  0
   -6.8323   -3.5981   10.1505 C   0  0  0  0  0  0  0  0  0  0  0  0
   -5.8648   -3.6340    9.1496 C   0  0  0  0  0  0  0  0  0  0  0  0
   -2.7379   -3.7886    6.8709 C   0  0  0  0  0  0  0  0  0  0  0  0
   -2.4350   -5.3718    7.5703 S   0  0  0  0  0  0  0  0  0  0  0  0
   -0.8455   -5.6236    7.0789 C   0  0  0  0  0  0  0  0  0  0  0  0
   -0.5595   -4.4850    6.3570 C   0  0  0  0  0  0  0  0  0  0  0  0
    0.4946   -4.5112    5.3616 N   0  0  0  0  0  0  0  0  0  0  0  0
    1.0394   -5.8040    4.9487 C   0  0  0  0  0  0  0  0  0  0  0  0
    0.1452   -6.7839    4.6239 C   0  0  0  0  0  0  0  0  0  0  0  0
    0.6194   -8.0115    4.1535 C   0  0  0  0  0  0  0  0  0  0  0  0
    1.9965   -8.2180    4.0226 C   0  0  0  0  0  0  0  0  0  0  0  0
    2.5066   -9.5613    3.5420 C   0  0  0  0  0  0  0  0  0  0  0  0
    2.8514   -7.2167    4.3552 C   0  0  0  0  0  0  0  0  0  0  0  0
    2.3627   -6.0052    4.8207 C   0  0  0  0  0  0  0  0  0  0  0  0
    0.9363   -3.4876    4.5161 C   0  0  0  0  0  0  0  0  0  0  0  0
    1.0562   -3.9325    3.1332 C   0  0  0  0  0  0  0  0  0  0  0  0
    1.4648   -3.1398    2.1248 C   0  0  0  0  0  0  0  0  0  0  0  0
    1.7958   -1.8281    2.3737 C   0  0  0  0  0  0  0  0  0  0  0  0
    2.2406   -0.9875    1.2230 C   0  0  0  0  0  0  0  0  0  0  0  0
    1.6949   -1.3803    3.6627 C   0  0  0  0  0  0  0  0  0  0  0  0
    1.2732   -2.2109    4.7076 C   0  0  0  0  0  0  0  0  0  0  0  0
   -1.5739   -3.5586    6.3022 C   0  0  0  0  0  0  0  0  0  0  0  0
   -1.7299   -1.8928    5.8333 S   0  0  0  0  0  0  0  0  0  0  0  0
    0.2651   -6.5600    7.4894 C   0  0  0  0  0  0  0  0  0  0  0  0
    0.8532   -6.1176    8.5942 C   0  0  0  0  0  0  0  0  0  0  0  0
    0.5197   -4.9313    9.3519 C   0  0  0  0  0  0  0  0  0  0  0  0
   -0.4702   -4.1769    9.1536 O   0  0  0  0  0  0  0  0  0  0  0  0
    1.5171   -4.7488   10.3824 C   0  0  0  0  0  0  0  0  0  0  0  0
    2.4748   -5.7682   10.3132 C   0  0  0  0  0  0  0  0  0  0  0  0
    3.4851   -5.7706   11.2577 C   0  0  0  0  0  0  0  0  0  0  0  0
    3.5768   -4.8097   12.2390 C   0  0  0  0  0  0  0  0  0  0  0  0
    2.6406   -3.8070   12.3069 C   0  0  0  0  0  0  0  0  0  0  0  0
    2.7604   -2.5421   13.7150 Br  0  0  0  0  0  0  0  0  0  0  0  0
    1.6440   -3.8287   11.3592 C   0  0  0  0  0  0  0  0  0  0  0  0
    0.4496   -2.5067   11.3785 Cl  0  0  0  0  0  0  0  0  0  0  0  0
    2.1177   -6.6382    9.2295 C   0  0  0  0  0  0  0  0  0  0  0  0
    2.7198   -7.7126    8.7748 C   0  0  0  0  0  0  0  0  0  0  0  0
    2.5385   -8.5113    7.9326 C   0  0  0  0  0  0  0  0  0  0  0  0
    2.3203   -9.5068    6.8864 N   0  0  0  0  0  0  0  0  0  0  0  0
    4.3291   -7.5352    9.1269 C   0  0  0  0  0  0  0  0  0  0  0  0
    5.3932   -7.4305    9.3639 N   0  0  0  0  0  0  0  0  0  0  0  0
    5.0522    3.3288   -9.6390 H   0  0  0  0  0  0  0  0  0  0  0  0
    8.3972   -0.0828  -11.8145 H   0  0  0  0  0  0  0  0  0  0  0  0
    8.7775   -2.5449  -11.7295 H   0  0  0  0  0  0  0  0  0  0  0  0
    7.0635   -4.6646   -9.2635 H   0  0  0  0  0  0  0  0  0  0  0  0
    7.9875   -4.8403  -10.8636 H   0  0  0  0  0  0  0  0  0  0  0  0
    6.2065   -4.7050  -10.7860 H   0  0  0  0  0  0  0  0  0  0  0  0
    5.5338   -2.9724   -9.1903 H   0  0  0  0  0  0  0  0  0  0  0  0
   -0.0253    4.9388  -11.1861 H   0  0  0  0  0  0  0  0  0  0  0  0
    0.1304    7.2493  -11.8979 H   0  0  0  0  0  0  0  0  0  0  0  0
    1.1606    9.3640  -11.5440 H   0  0  0  0  0  0  0  0  0  0  0  0
    2.5063    8.8817  -12.6229 H   0  0  0  0  0  0  0  0  0  0  0  0
    2.9123    9.4590  -10.9368 H   0  0  0  0  0  0  0  0  0  0  0  0
    4.0182    7.5434  -10.1888 H   0  0  0  0  0  0  0  0  0  0  0  0
    3.8661    5.2048   -9.4049 H   0  0  0  0  0  0  0  0  0  0  0  0
    2.1931    2.8244  -12.3423 H   0  0  0  0  0  0  0  0  0  0  0  0
    0.8639    1.3211  -13.6561 H   0  0  0  0  0  0  0  0  0  0  0  0
   -1.5092    0.2150  -13.8790 H   0  0  0  0  0  0  0  0  0  0  0  0
   -2.4192   -0.1602  -12.3899 H   0  0  0  0  0  0  0  0  0  0  0  0
   -0.9858   -1.1400  -12.8167 H   0  0  0  0  0  0  0  0  0  0  0  0
   -1.6143    0.5284  -10.2897 H   0  0  0  0  0  0  0  0  0  0  0  0
   -0.2167    2.1177   -8.9748 H   0  0  0  0  0  0  0  0  0  0  0  0
    2.5562    6.4306   -3.6135 H   0  0  0  0  0  0  0  0  0  0  0  0
    2.9335    7.7217   -1.5225 H   0  0  0  0  0  0  0  0  0  0  0  0
    3.3396    7.7740    0.7690 H   0  0  0  0  0  0  0  0  0  0  0  0
    2.0683    6.7532    1.6163 H   0  0  0  0  0  0  0  0  0  0  0  0
    3.7184    6.1272    1.5451 H   0  0  0  0  0  0  0  0  0  0  0  0
    2.3817    4.2039    0.7190 H   0  0  0  0  0  0  0  0  0  0  0  0
    2.0020    2.9096   -1.3068 H   0  0  0  0  0  0  0  0  0  0  0  0
    4.5732    3.5039   -2.8211 H   0  0  0  0  0  0  0  0  0  0  0  0
    5.8508    1.4927   -2.5654 H   0  0  0  0  0  0  0  0  0  0  0  0
    4.5442   -1.8170   -3.6695 H   0  0  0  0  0  0  0  0  0  0  0  0
    5.2175   -1.2010   -2.0438 H   0  0  0  0  0  0  0  0  0  0  0  0
    6.0301   -0.7720   -3.6089 H   0  0  0  0  0  0  0  0  0  0  0  0
    2.5753   -0.8503   -3.9072 H   0  0  0  0  0  0  0  0  0  0  0  0
    1.2085    1.2414   -4.2645 H   0  0  0  0  0  0  0  0  0  0  0  0
   -3.8347    5.1916   -5.6533 H   0  0  0  0  0  0  0  0  0  0  0  0
   -2.3382    4.5933   -6.3448 H   0  0  0  0  0  0  0  0  0  0  0  0
   -1.5621    7.1667   -5.6671 H   0  0  0  0  0  0  0  0  0  0  0  0
   -2.3294    6.7415   -7.3061 H   0  0  0  0  0  0  0  0  0  0  0  0
   -3.2719    7.4781   -6.0181 H   0  0  0  0  0  0  0  0  0  0  0  0
   -6.1198   -0.6988    7.7095 H   0  0  0  0  0  0  0  0  0  0  0  0
   -7.0147    0.7158    7.0247 H   0  0  0  0  0  0  0  0  0  0  0  0
   -4.6942    0.8994    8.9000 H   0  0  0  0  0  0  0  0  0  0  0  0
   -5.7604    2.2385    8.2546 H   0  0  0  0  0  0  0  0  0  0  0  0
   -6.4860    1.0509    9.3833 H   0  0  0  0  0  0  0  0  0  0  0  0
   -0.8379    5.3062    2.0362 H   0  0  0  0  0  0  0  0  0  0  0  0
   -0.4588    4.9692    0.3497 H   0  0  0  0  0  0  0  0  0  0  0  0
   -0.4710    7.1015   -0.2093 H   0  0  0  0  0  0  0  0  0  0  0  0
   -0.3235    7.4441    1.5372 H   0  0  0  0  0  0  0  0  0  0  0  0
   -1.9205    7.3776    0.7372 H   0  0  0  0  0  0  0  0  0  0  0  0
   -1.0392    3.7874    3.7419 H   0  0  0  0  0  0  0  0  0  0  0  0
   -1.5302    3.5450    1.9451 H   0  0  0  0  0  0  0  0  0  0  0  0
   -0.7848    1.5368    3.8062 H   0  0  0  0  0  0  0  0  0  0  0  0
   -0.6453    1.8078    2.1142 H   0  0  0  0  0  0  0  0  0  0  0  0
   -2.2465    1.3403    2.6055 H   0  0  0  0  0  0  0  0  0  0  0  0
   -3.9285   -5.1573    5.3942 H   0  0  0  0  0  0  0  0  0  0  0  0
   -4.0363   -5.5564    3.0096 H   0  0  0  0  0  0  0  0  0  0  0  0
   -4.8052   -3.8799    0.6500 H   0  0  0  0  0  0  0  0  0  0  0  0
   -6.5528   -3.6736    0.8501 H   0  0  0  0  0  0  0  0  0  0  0  0
   -5.8133   -5.3220    1.0055 H   0  0  0  0  0  0  0  0  0  0  0  0
   -7.0450   -2.5280    2.7476 H   0  0  0  0  0  0  0  0  0  0  0  0
   -6.8275   -2.0885    5.0319 H   0  0  0  0  0  0  0  0  0  0  0  0
   -7.7500   -2.7394    6.5799 H   0  0  0  0  0  0  0  0  0  0  0  0
   -9.4084   -2.5953    8.3025 H   0  0  0  0  0  0  0  0  0  0  0  0
   -9.7209   -4.0433   10.9981 H   0  0  0  0  0  0  0  0  0  0  0  0
   -8.8108   -2.6899   11.8094 H   0  0  0  0  0  0  0  0  0  0  0  0
   -9.9561   -2.3711   10.4426 H   0  0  0  0  0  0  0  0  0  0  0  0
   -6.5935   -3.8700   11.1606 H   0  0  0  0  0  0  0  0  0  0  0  0
   -4.8880   -3.9354    9.4574 H   0  0  0  0  0  0  0  0  0  0  0  0
   -0.9264   -6.6962    4.7035 H   0  0  0  0  0  0  0  0  0  0  0  0
   -0.0365   -8.8008    3.8838 H   0  0  0  0  0  0  0  0  0  0  0  0
    2.2897  -10.3558    4.2990 H   0  0  0  0  0  0  0  0  0  0  0  0
    3.6098   -9.4917    3.5388 H   0  0  0  0  0  0  0  0  0  0  0  0
    2.1606   -9.8207    2.5428 H   0  0  0  0  0  0  0  0  0  0  0  0
    3.9229   -7.3098    4.2684 H   0  0  0  0  0  0  0  0  0  0  0  0
    3.0782   -5.1953    5.0861 H   0  0  0  0  0  0  0  0  0  0  0  0
    0.8035   -4.9455    2.9097 H   0  0  0  0  0  0  0  0  0  0  0  0
    1.5379   -3.5009    1.0767 H   0  0  0  0  0  0  0  0  0  0  0  0
    1.3831   -0.3691    0.9262 H   0  0  0  0  0  0  0  0  0  0  0  0
    2.4245   -1.6486    0.3343 H   0  0  0  0  0  0  0  0  0  0  0  0
    3.1455   -0.4129    1.4333 H   0  0  0  0  0  0  0  0  0  0  0  0
    1.9550   -0.3359    3.8949 H   0  0  0  0  0  0  0  0  0  0  0  0
    1.2093   -1.8399    5.7421 H   0  0  0  0  0  0  0  0  0  0  0  0
    0.5114   -7.4285    6.9851 H   0  0  0  0  0  0  0  0  0  0  0  0
    4.2023   -6.5706   11.3292 H   0  0  0  0  0  0  0  0  0  0  0  0
    4.3936   -4.8339   12.9238 H   0  0  0  0  0  0  0  0  0  0  0  0
  1  2  2  3
  2  3  1  0
  3  4  2  0
  3  5  1  0
  5  6  2  0
  6  7  1  0
  7  8  2  0
  8  9  1  0
  8 10  1  0
 10 11  2  0
 11 12  1  0
 12 13  2  3
 13 14  1  0
 14 15  3  0
 13 16  1  0
 16 17  3  0
  1 18  1  0
 18 19  2  0
 19 20  1  0
 20 21  1  0
 21 22  2  0
 22 23  1  0
 23 24  2  0
 24 25  1  0
 24 26  1  0
 26 27  2  0
 20 28  1  0
 28 29  2  0
 29 30  1  0
 30 31  2  0
 31 32  1  0
 31 33  1  0
 33 34  2  0
 19 35  1  0
 35 36  1  0
 36 37  1  0
 37 38  2  0
 38 39  1  0
 39 40  1  0
 40 41  2  0
 41 42  1  0
 42 43  2  0
 43 44  1  0
 43 45  1  0
 45 46  2  0
 39 47  1  0
 47 48  2  0
 48 49  1  0
 49 50  2  0
 50 51  1  0
 50 52  1  0
 52 53  2  0
 38 54  1  0
 54 55  1  0
 37 56  1  0
 56 57  2  0
 57 58  1  0
 58 59  1  0
 57 60  1  0
 60 61  1  0
 61 62  1  0
 62 63  1  0
 63 64  1  0
 64 65  1  0
 65 66  2  0
 66 67  1  0
 67 68  1  0
 65 69  1  0
 69 70  1  0
 70 71  1  0
 71 72  1  0
 72 73  1  0
 73 74  1  0
 74 75  1  0
 73 76  2  0
 76 77  1  0
 77 78  1  0
 78 79  1  0
 79 80  1  0
 80 81  1  0
 81 82  1  0
 82 83  1  0
 83 84  1  0
 84 85  1  0
 85 86  1  0
 83 87  1  0
 87 88  1  0
 80 89  1  0
 89 90  1  0
 76 91  1  0
 91 92  2  0
 92 93  1  0
 93 94  1  0
 94 95  2  0
 95 96  1  0
 96 97  2  0
 97 98  1  0
 97 99  1  0
 99100  2  0
 93101  1  0
101102  2  0
102103  1  0
103104  2  0
104105  1  0
104106  1  0
106107  2  0
 92108  1  0
108109  1  0
109110  1  0
110111  2  0
111112  1  0
112113  1  0
113114  2  0
114115  1  0
115116  2  0
116117  1  0
116118  1  0
118119  2  0
112120  1  0
120121  2  0
121122  1  0
122123  2  0
123124  1  0
123125  1  0
125126  2  0
111127  1  0
127128  1  0
110129  1  0
129130  2  3
130131  1  0
131132  2  0
131133  1  0
133134  2  0
134135  1  0
135136  2  0
136137  1  0
137138  1  0
137139  2  0
139140  1  0
134141  1  0
141142  2  3
142143  1  0
143144  3  0
142145  1  0
145146  3  0
 12  2  1  0
 55 18  1  0
 86 56  1  0
128 91  1  0
141130  1  0
 11  5  1  0
 27 21  1  0
 34 28  1  0
 54 35  2  0
 85 60  2  0
100 94  1  0
107101  1  0
127108  2  0
139133  1  0
 46 40  1  0
 53 47  1  0
 84 62  2  0
119113  1  0
126120  1  0
 82 63  2  0
 68 64  2  0
 81 69  2  0
 79 70  2  0
 78 72  2  0
  1147  1  0
  6148  1  0
  7149  1  0
  9150  1  0
  9151  1  0
  9152  1  0
 10153  1  0
 22154  1  0
 23155  1  0
 25156  1  0
 25157  1  0
 25158  1  0
 26159  1  0
 27160  1  0
 29161  1  0
 30162  1  0
 32163  1  0
 32164  1  0
 32165  1  0
 33166  1  0
 34167  1  0
 41168  1  0
 42169  1  0
 44170  1  0
 44171  1  0
 44172  1  0
 45173  1  0
 46174  1  0
 48175  1  0
 49176  1  0
 51177  1  0
 51178  1  0
 51179  1  0
 52180  1  0
 53181  1  0
 58182  1  0
 58183  1  0
 59184  1  0
 59185  1  0
 59186  1  0
 74187  1  0
 74188  1  0
 75189  1  0
 75190  1  0
 75191  1  0
 87192  1  0
 87193  1  0
 88194  1  0
 88195  1  0
 88196  1  0
 89197  1  0
 89198  1  0
 90199  1  0
 90200  1  0
 90201  1  0
 95202  1  0
 96203  1  0
 98204  1  0
 98205  1  0
 98206  1  0
 99207  1  0
100208  1  0
102209  1  0
103210  1  0
105211  1  0
105212  1  0
105213  1  0
106214  1  0
107215  1  0
114216  1  0
115217  1  0
117218  1  0
117219  1  0
117220  1  0
118221  1  0
119222  1  0
121223  1  0
122224  1  0
124225  1  0
124226  1  0
124227  1  0
125228  1  0
126229  1  0
129230  1  0
135231  1  0
136232  1  0
M  END

