
     RDKit          3D

265293  0  0  0  0  0  0  0  0999 V2000
   -8.4754   -0.0614    7.7613 C   0  0  0  0  0  0  0  0  0  0  0  0
   -8.4510    1.1854    7.2619 C   0  0  0  0  0  0  0  0  0  0  0  0
   -8.8856    1.4308    5.8833 C   0  0  0  0  0  0  0  0  0  0  0  0
   -9.8091    0.8111    5.2949 O   0  0  0  0  0  0  0  0  0  0  0  0
   -8.0160    2.4024    5.2629 C   0  0  0  0  0  0  0  0  0  0  0  0
   -8.0541    2.8908    3.9569 C   0  0  0  0  0  0  0  0  0  0  0  0
   -7.0516    3.7724    3.5365 C   0  0  0  0  0  0  0  0  0  0  0  0
   -6.0010    4.1209    4.4145 C   0  0  0  0  0  0  0  0  0  0  0  0
   -4.9216    5.0568    3.9576 C   0  0  0  0  0  0  0  0  0  0  0  0
   -5.9996    3.6327    5.7346 C   0  0  0  0  0  0  0  0  0  0  0  0
   -7.0265    2.7705    6.1560 C   0  0  0  0  0  0  0  0  0  0  0  0
   -7.2699    2.0937    7.4549 C   0  0  0  0  0  0  0  0  0  0  0  0
   -6.6120    2.2906    8.6261 C   0  0  0  0  0  0  0  0  0  0  0  0
   -5.4495    3.1322    8.7487 C   0  0  0  0  0  0  0  0  0  0  0  0
   -4.5067    3.7955    8.8681 N   0  0  0  0  0  0  0  0  0  0  0  0
   -7.0178    1.6565    9.8533 C   0  0  0  0  0  0  0  0  0  0  0  0
   -7.3267    1.1483   10.8412 N   0  0  0  0  0  0  0  0  0  0  0  0
   -7.5155   -1.0680    7.2394 C   0  0  0  0  0  0  0  0  0  0  0  0
   -6.5695   -1.7508    8.0360 C   0  0  0  0  0  0  0  0  0  0  0  0
   -6.7653   -2.0623    9.4365 N   0  0  0  0  0  0  0  0  0  0  0  0
   -8.0888   -2.4241    9.9066 C   0  0  0  0  0  0  0  0  0  0  0  0
   -8.5537   -1.9576   11.1488 C   0  0  0  0  0  0  0  0  0  0  0  0
   -9.8594   -2.2276   11.5665 C   0  0  0  0  0  0  0  0  0  0  0  0
  -10.7141   -2.9973   10.7663 C   0  0  0  0  0  0  0  0  0  0  0  0
  -12.1375   -3.2416   11.1783 C   0  0  0  0  0  0  0  0  0  0  0  0
  -10.2468   -3.4905    9.5377 C   0  0  0  0  0  0  0  0  0  0  0  0
   -8.9438   -3.2153    9.1154 C   0  0  0  0  0  0  0  0  0  0  0  0
   -5.6530   -2.1595   10.3496 C   0  0  0  0  0  0  0  0  0  0  0  0
   -4.7151   -1.1186   10.4421 C   0  0  0  0  0  0  0  0  0  0  0  0
   -3.6982   -1.1724   11.3991 C   0  0  0  0  0  0  0  0  0  0  0  0
   -3.5828   -2.2863   12.2532 C   0  0  0  0  0  0  0  0  0  0  0  0
   -2.5168   -2.3458   13.3031 C   0  0  0  0  0  0  0  0  0  0  0  0
   -4.5159   -3.3273   12.1513 C   0  0  0  0  0  0  0  0  0  0  0  0
   -5.5399   -3.2658   11.2082 C   0  0  0  0  0  0  0  0  0  0  0  0
   -5.4973   -2.2086    7.2548 C   0  0  0  0  0  0  0  0  0  0  0  0
   -3.8908   -2.6144    7.5604 S   0  0  0  0  0  0  0  0  0  0  0  0
   -3.3913   -2.5581    5.9233 C   0  0  0  0  0  0  0  0  0  0  0  0
   -4.5320   -2.2864    5.1375 C   0  0  0  0  0  0  0  0  0  0  0  0
   -4.5921   -2.4245    3.7039 N   0  0  0  0  0  0  0  0  0  0  0  0
   -4.2319   -3.7085    3.1353 C   0  0  0  0  0  0  0  0  0  0  0  0
   -4.5797   -4.8987    3.8037 C   0  0  0  0  0  0  0  0  0  0  0  0
   -4.1284   -6.1341    3.3383 C   0  0  0  0  0  0  0  0  0  0  0  0
   -3.3349   -6.2094    2.1848 C   0  0  0  0  0  0  0  0  0  0  0  0
   -2.7699   -7.5286    1.7528 C   0  0  0  0  0  0  0  0  0  0  0  0
   -2.9983   -5.0297    1.5026 C   0  0  0  0  0  0  0  0  0  0  0  0
   -3.4445   -3.7900    1.9703 C   0  0  0  0  0  0  0  0  0  0  0  0
   -4.9429   -1.2914    2.8734 C   0  0  0  0  0  0  0  0  0  0  0  0
   -5.6003   -1.4786    1.6413 C   0  0  0  0  0  0  0  0  0  0  0  0
   -5.8670   -0.3914    0.8043 C   0  0  0  0  0  0  0  0  0  0  0  0
   -5.4950    0.9036    1.1898 C   0  0  0  0  0  0  0  0  0  0  0  0
   -5.7968    2.0687    0.2963 C   0  0  0  0  0  0  0  0  0  0  0  0
   -4.8786    1.1030    2.4338 C   0  0  0  0  0  0  0  0  0  0  0  0
   -4.6033    0.0172    3.2669 C   0  0  0  0  0  0  0  0  0  0  0  0
   -5.6508   -2.0321    5.9183 C   0  0  0  0  0  0  0  0  0  0  0  0
   -7.0594   -1.1941    5.6000 S   0  0  0  0  0  0  0  0  0  0  0  0
   -1.9982   -2.2941    5.4591 C   0  0  0  0  0  0  0  0  0  0  0  0
   -0.8389   -2.1278    6.2554 C   0  0  0  0  0  0  0  0  0  0  0  0
   -0.6809   -2.5408    7.6536 C   0  0  0  0  0  0  0  0  0  0  0  0
   -0.9497   -1.6500    8.6995 C   0  0  0  0  0  0  0  0  0  0  0  0
   -0.6912   -2.0240   10.0209 C   0  0  0  0  0  0  0  0  0  0  0  0
   -0.1715   -3.2908   10.3027 C   0  0  0  0  0  0  0  0  0  0  0  0
    0.1333   -4.1784    9.2554 C   0  0  0  0  0  0  0  0  0  0  0  0
    0.7672   -5.5139    9.5386 C   0  0  0  0  0  0  0  0  0  0  0  0
   -0.2083   -6.6597    9.2813 C   0  0  0  0  0  0  0  0  0  0  0  0
   -0.1264   -3.7977    7.9310 C   0  0  0  0  0  0  0  0  0  0  0  0
    0.1990   -1.5155    5.5481 C   0  0  0  0  0  0  0  0  0  0  0  0
    1.7082   -0.8508    6.0192 S   0  0  0  0  0  0  0  0  0  0  0  0
    1.9123   -0.1746    4.4687 C   0  0  0  0  0  0  0  0  0  0  0  0
    2.7824    0.6192    3.7788 C   0  0  0  0  0  0  0  0  0  0  0  0
    4.0373    1.1223    4.1325 C   0  0  0  0  0  0  0  0  0  0  0  0
    4.7813    1.8488    3.1623 C   0  0  0  0  0  0  0  0  0  0  0  0
    6.0041    2.3053    3.5357 N   0  0  0  0  0  0  0  0  0  0  0  0
    6.0454    1.7354    5.0911 S   0  0  0  0  0  0  0  0  0  0  0  0
    4.6151    0.9354    5.3463 N   0  0  0  0  0  0  0  0  0  0  0  0
    4.2094    2.0738    1.9084 C   0  0  0  0  0  0  0  0  0  0  0  0
    4.6832    2.7358    0.8114 C   0  0  0  0  0  0  0  0  0  0  0  0
    6.1416    3.3759    0.2061 S   0  0  0  0  0  0  0  0  0  0  0  0
    5.4406    3.5648   -1.3451 C   0  0  0  0  0  0  0  0  0  0  0  0
    5.9955    3.7368   -2.6166 C   0  0  0  0  0  0  0  0  0  0  0  0
    7.3009    4.3477   -2.8852 C   0  0  0  0  0  0  0  0  0  0  0  0
    8.4513    3.5694   -3.0711 C   0  0  0  0  0  0  0  0  0  0  0  0
    9.6647    4.1889   -3.3876 C   0  0  0  0  0  0  0  0  0  0  0  0
    9.7323    5.5806   -3.5176 C   0  0  0  0  0  0  0  0  0  0  0  0
    8.5775    6.3666   -3.3498 C   0  0  0  0  0  0  0  0  0  0  0  0
    8.6369    7.8668   -3.4639 C   0  0  0  0  0  0  0  0  0  0  0  0
    8.7061    8.5221   -2.0898 C   0  0  0  0  0  0  0  0  0  0  0  0
    7.3661    5.7383   -3.0348 C   0  0  0  0  0  0  0  0  0  0  0  0
    5.0838    3.3977   -3.6225 C   0  0  0  0  0  0  0  0  0  0  0  0
    3.6138    2.8960   -2.9181 S   0  0  0  0  0  0  0  0  0  0  0  0
    4.1335    3.1479   -1.3533 C   0  0  0  0  0  0  0  0  0  0  0  0
    3.7088    2.6875   -0.1202 C   0  0  0  0  0  0  0  0  0  0  0  0
    2.5829    2.0633    0.2986 N   0  0  0  0  0  0  0  0  0  0  0  0
    2.9211    1.6139    1.5572 C   0  0  0  0  0  0  0  0  0  0  0  0
    2.2113    0.8038    2.4998 C   0  0  0  0  0  0  0  0  0  0  0  0
    1.0478    0.0664    2.3938 N   0  0  0  0  0  0  0  0  0  0  0  0
    0.8971   -0.4690    3.6298 C   0  0  0  0  0  0  0  0  0  0  0  0
   -0.0837   -1.2292    4.2432 C   0  0  0  0  0  0  0  0  0  0  0  0
   -1.6516   -1.6688    3.9052 S   0  0  0  0  0  0  0  0  0  0  0  0
    0.3016   -0.4025    1.2191 C   0  0  0  0  0  0  0  0  0  0  0  0
    1.2071   -1.1354    0.2290 C   0  0  0  0  0  0  0  0  0  0  0  0
    1.2656    2.3621   -0.2787 C   0  0  0  0  0  0  0  0  0  0  0  0
    0.3774    3.1210    0.7130 C   0  0  0  0  0  0  0  0  0  0  0  0
    5.4548    2.9203   -4.9573 C   0  0  0  0  0  0  0  0  0  0  0  0
    4.8340    3.4219   -6.1109 C   0  0  0  0  0  0  0  0  0  0  0  0
    4.8149    4.8184   -6.4524 N   0  0  0  0  0  0  0  0  0  0  0  0
    6.0819    5.5087   -6.6154 C   0  0  0  0  0  0  0  0  0  0  0  0
    6.1665    6.9054   -6.4677 C   0  0  0  0  0  0  0  0  0  0  0  0
    7.3843    7.5697   -6.6600 C   0  0  0  0  0  0  0  0  0  0  0  0
    8.5453    6.8501   -6.9678 C   0  0  0  0  0  0  0  0  0  0  0  0
    9.8653    7.5479   -7.1148 C   0  0  0  0  0  0  0  0  0  0  0  0
    8.4770    5.4570   -7.0913 C   0  0  0  0  0  0  0  0  0  0  0  0
    7.2564    4.7943   -6.9380 C   0  0  0  0  0  0  0  0  0  0  0  0
    3.5705    5.4060   -6.8797 C   0  0  0  0  0  0  0  0  0  0  0  0
    3.5030    6.1793   -8.0514 C   0  0  0  0  0  0  0  0  0  0  0  0
    2.2868    6.7222   -8.4723 C   0  0  0  0  0  0  0  0  0  0  0  0
    1.1172    6.4921   -7.7363 C   0  0  0  0  0  0  0  0  0  0  0  0
   -0.1827    7.0696   -8.2107 C   0  0  0  0  0  0  0  0  0  0  0  0
    1.1730    5.7023   -6.5777 C   0  0  0  0  0  0  0  0  0  0  0  0
    2.3917    5.1623   -6.1551 C   0  0  0  0  0  0  0  0  0  0  0  0
    4.5474    2.4152   -7.0276 C   0  0  0  0  0  0  0  0  0  0  0  0
    3.4263    2.2955   -8.2821 S   0  0  0  0  0  0  0  0  0  0  0  0
    3.5070    0.5862   -8.3332 C   0  0  0  0  0  0  0  0  0  0  0  0
    4.4305    0.1344   -7.3852 C   0  0  0  0  0  0  0  0  0  0  0  0
    4.7840   -1.2391   -7.1862 N   0  0  0  0  0  0  0  0  0  0  0  0
    6.0645   -1.6995   -7.6545 C   0  0  0  0  0  0  0  0  0  0  0  0
    6.5316   -1.3185   -8.9261 C   0  0  0  0  0  0  0  0  0  0  0  0
    7.8173   -1.6683   -9.3409 C   0  0  0  0  0  0  0  0  0  0  0  0
    8.6544   -2.4147   -8.4957 C   0  0  0  0  0  0  0  0  0  0  0  0
   10.0681   -2.7042   -8.9019 C   0  0  0  0  0  0  0  0  0  0  0  0
    8.1850   -2.8094   -7.2316 C   0  0  0  0  0  0  0  0  0  0  0  0
    6.8914   -2.4699   -6.8215 C   0  0  0  0  0  0  0  0  0  0  0  0
    3.9023   -2.1241   -6.4824 C   0  0  0  0  0  0  0  0  0  0  0  0
    3.6381   -1.9249   -5.1190 C   0  0  0  0  0  0  0  0  0  0  0  0
    2.8465   -2.8357   -4.4158 C   0  0  0  0  0  0  0  0  0  0  0  0
    2.2966   -3.9477   -5.0740 C   0  0  0  0  0  0  0  0  0  0  0  0
    1.4509   -4.9242   -4.3151 C   0  0  0  0  0  0  0  0  0  0  0  0
    2.5156   -4.1155   -6.4523 C   0  0  0  0  0  0  0  0  0  0  0  0
    3.3296   -3.2181   -7.1499 C   0  0  0  0  0  0  0  0  0  0  0  0
    4.9780    1.1836   -6.6705 C   0  0  0  0  0  0  0  0  0  0  0  0
    5.7011    1.2465   -5.1673 S   0  0  0  0  0  0  0  0  0  0  0  0
    2.5185   -0.2970   -8.9557 C   0  0  0  0  0  0  0  0  0  0  0  0
    1.3630   -0.6058   -8.3271 C   0  0  0  0  0  0  0  0  0  0  0  0
    0.9225   -0.0224   -7.0468 C   0  0  0  0  0  0  0  0  0  0  0  0
    1.2382    1.1056   -6.5828 O   0  0  0  0  0  0  0  0  0  0  0  0
    0.0336   -0.9568   -6.3878 C   0  0  0  0  0  0  0  0  0  0  0  0
   -0.5849   -0.7949   -5.1241 C   0  0  0  0  0  0  0  0  0  0  0  0
   -1.3613   -1.8686   -4.7447 C   0  0  0  0  0  0  0  0  0  0  0  0
   -1.5087   -3.0518   -5.5400 C   0  0  0  0  0  0  0  0  0  0  0  0
   -0.9113   -3.2140   -6.7814 C   0  0  0  0  0  0  0  0  0  0  0  0
   -0.1327   -2.1002   -7.2146 C   0  0  0  0  0  0  0  0  0  0  0  0
    0.6033   -1.8877   -8.4982 C   0  0  0  0  0  0  0  0  0  0  0  0
    0.4989   -2.6243   -9.6324 C   0  0  0  0  0  0  0  0  0  0  0  0
    1.1012   -2.2227  -10.8771 C   0  0  0  0  0  0  0  0  0  0  0  0
    1.6045   -1.9278  -11.8782 N   0  0  0  0  0  0  0  0  0  0  0  0
   -0.0237   -3.9577   -9.6384 C   0  0  0  0  0  0  0  0  0  0  0  0
   -0.4117   -5.0463   -9.6606 N   0  0  0  0  0  0  0  0  0  0  0  0
   -2.4011   -3.6570   -4.4996 C   0  0  0  0  0  0  0  0  0  0  0  0
   -3.9141   -3.7166   -4.8528 C   0  0  0  0  0  0  0  0  0  0  0  0
   -4.6369   -3.9615   -3.5503 C   0  0  0  0  0  0  0  0  0  0  0  0
   -4.5276   -2.8348   -2.8349 C   0  0  0  0  0  0  0  0  0  0  0  0
   -3.7302   -1.8674   -3.6758 C   0  0  0  0  0  0  0  0  0  0  0  0
   -4.2788   -2.2532   -5.0427 C   0  0  0  0  0  0  0  0  0  0  0  0
   -2.2777   -2.4312   -3.7005 C   0  0  0  0  0  0  0  0  0  0  0  0
   -8.6803   -0.1315    8.8174 H   0  0  0  0  0  0  0  0  0  0  0  0
   -8.8481    2.6044    3.2762 H   0  0  0  0  0  0  0  0  0  0  0  0
   -7.0711    4.1571    2.5210 H   0  0  0  0  0  0  0  0  0  0  0  0
   -3.9453    4.7715    4.4036 H   0  0  0  0  0  0  0  0  0  0  0  0
   -4.8155    5.0309    2.8518 H   0  0  0  0  0  0  0  0  0  0  0  0
   -5.1779    6.0888    4.2710 H   0  0  0  0  0  0  0  0  0  0  0  0
   -5.1884    3.9140    6.3861 H   0  0  0  0  0  0  0  0  0  0  0  0
   -7.9132   -1.3538   11.7816 H   0  0  0  0  0  0  0  0  0  0  0  0
  -10.2100   -1.8228   12.5117 H   0  0  0  0  0  0  0  0  0  0  0  0
  -12.2726   -3.0766   12.2696 H   0  0  0  0  0  0  0  0  0  0  0  0
  -12.4311   -4.2874   10.9447 H   0  0  0  0  0  0  0  0  0  0  0  0
  -12.8048   -2.5467   10.6270 H   0  0  0  0  0  0  0  0  0  0  0  0
  -10.8969   -4.0812    8.9049 H   0  0  0  0  0  0  0  0  0  0  0  0
   -8.6049   -3.6023    8.1634 H   0  0  0  0  0  0  0  0  0  0  0  0
   -4.7888   -0.2593    9.7898 H   0  0  0  0  0  0  0  0  0  0  0  0
   -3.0008   -0.3436   11.4816 H   0  0  0  0  0  0  0  0  0  0  0  0
   -2.9539   -2.0757   14.2884 H   0  0  0  0  0  0  0  0  0  0  0  0
   -1.6834   -1.6452   13.0788 H   0  0  0  0  0  0  0  0  0  0  0  0
   -2.0996   -3.3749   13.3598 H   0  0  0  0  0  0  0  0  0  0  0  0
   -4.4532   -4.1811   12.8158 H   0  0  0  0  0  0  0  0  0  0  0  0
   -6.2576   -4.0780   11.1506 H   0  0  0  0  0  0  0  0  0  0  0  0
   -5.1800   -4.8665    4.7029 H   0  0  0  0  0  0  0  0  0  0  0  0
   -4.3758   -7.0317    3.8899 H   0  0  0  0  0  0  0  0  0  0  0  0
   -1.8351   -7.7335    2.3179 H   0  0  0  0  0  0  0  0  0  0  0  0
   -3.4970   -8.3450    1.9477 H   0  0  0  0  0  0  0  0  0  0  0  0
   -2.5391   -7.5253    0.6661 H   0  0  0  0  0  0  0  0  0  0  0  0
   -2.3672   -5.0669    0.6223 H   0  0  0  0  0  0  0  0  0  0  0  0
   -3.1334   -2.8894    1.4504 H   0  0  0  0  0  0  0  0  0  0  0  0
   -5.9077   -2.4700    1.3299 H   0  0  0  0  0  0  0  0  0  0  0  0
   -6.3607   -0.5586   -0.1482 H   0  0  0  0  0  0  0  0  0  0  0  0
   -5.5805    1.8069   -0.7636 H   0  0  0  0  0  0  0  0  0  0  0  0
   -6.8699    2.3393    0.3944 H   0  0  0  0  0  0  0  0  0  0  0  0
   -5.1766    2.9515    0.5641 H   0  0  0  0  0  0  0  0  0  0  0  0
   -4.5989    2.0990    2.7519 H   0  0  0  0  0  0  0  0  0  0  0  0
   -4.1078    0.2001    4.2130 H   0  0  0  0  0  0  0  0  0  0  0  0
   -1.3497   -0.6630    8.4895 H   0  0  0  0  0  0  0  0  0  0  0  0
   -0.8778   -1.3231   10.8246 H   0  0  0  0  0  0  0  0  0  0  0  0
    0.0235   -3.5655   11.3317 H   0  0  0  0  0  0  0  0  0  0  0  0
    1.1219   -5.5721   10.5899 H   0  0  0  0  0  0  0  0  0  0  0  0
    1.6559   -5.6412    8.8828 H   0  0  0  0  0  0  0  0  0  0  0  0
   -1.0224   -6.6430   10.0407 H   0  0  0  0  0  0  0  0  0  0  0  0
   -0.6586   -6.5843    8.2657 H   0  0  0  0  0  0  0  0  0  0  0  0
    0.3299   -7.6308    9.3579 H   0  0  0  0  0  0  0  0  0  0  0  0
    0.1236   -4.4660    7.1143 H   0  0  0  0  0  0  0  0  0  0  0  0
    8.4057    2.4898   -2.9779 H   0  0  0  0  0  0  0  0  0  0  0  0
   10.5567    3.5889   -3.5321 H   0  0  0  0  0  0  0  0  0  0  0  0
   10.6802    6.0496   -3.7578 H   0  0  0  0  0  0  0  0  0  0  0  0
    7.7303    8.2353   -3.9893 H   0  0  0  0  0  0  0  0  0  0  0  0
    9.5200    8.1811   -4.0602 H   0  0  0  0  0  0  0  0  0  0  0  0
    7.8173    8.2402   -1.4865 H   0  0  0  0  0  0  0  0  0  0  0  0
    9.6315    8.2061   -1.5630 H   0  0  0  0  0  0  0  0  0  0  0  0
    8.7165    9.6255   -2.2107 H   0  0  0  0  0  0  0  0  0  0  0  0
    6.4634    6.3336   -2.9091 H   0  0  0  0  0  0  0  0  0  0  0  0
   -0.2858    0.4120    0.7669 H   0  0  0  0  0  0  0  0  0  0  0  0
   -0.4692   -1.1367    1.5233 H   0  0  0  0  0  0  0  0  0  0  0  0
    0.6037   -1.4797   -0.6388 H   0  0  0  0  0  0  0  0  0  0  0  0
    2.0239   -0.4870   -0.1416 H   0  0  0  0  0  0  0  0  0  0  0  0
    1.6591   -2.0230    0.7197 H   0  0  0  0  0  0  0  0  0  0  0  0
    1.3803    3.0223   -1.1614 H   0  0  0  0  0  0  0  0  0  0  0  0
    0.7897    1.4574   -0.6885 H   0  0  0  0  0  0  0  0  0  0  0  0
    0.1863    2.5287    1.6268 H   0  0  0  0  0  0  0  0  0  0  0  0
    0.8743    4.0739    1.0034 H   0  0  0  0  0  0  0  0  0  0  0  0
   -0.5969    3.3565    0.2388 H   0  0  0  0  0  0  0  0  0  0  0  0
    5.2894    7.4820   -6.1979 H   0  0  0  0  0  0  0  0  0  0  0  0
    7.4252    8.6472   -6.5441 H   0  0  0  0  0  0  0  0  0  0  0  0
   10.4155    7.5029   -6.1526 H   0  0  0  0  0  0  0  0  0  0  0  0
    9.7268    8.6122   -7.4050 H   0  0  0  0  0  0  0  0  0  0  0  0
   10.4792    7.0545   -7.8977 H   0  0  0  0  0  0  0  0  0  0  0  0
    9.3679    4.8871   -7.3136 H   0  0  0  0  0  0  0  0  0  0  0  0
    7.2348    3.7196   -7.0844 H   0  0  0  0  0  0  0  0  0  0  0  0
    4.3917    6.3504   -8.6478 H   0  0  0  0  0  0  0  0  0  0  0  0
    2.2563    7.3169   -9.3775 H   0  0  0  0  0  0  0  0  0  0  0  0
   -0.9990    6.8988   -7.4750 H   0  0  0  0  0  0  0  0  0  0  0  0
   -0.0704    8.1659   -8.3606 H   0  0  0  0  0  0  0  0  0  0  0  0
   -0.4664    6.5977   -9.1770 H   0  0  0  0  0  0  0  0  0  0  0  0
    0.2749    5.5062   -5.9981 H   0  0  0  0  0  0  0  0  0  0  0  0
    2.4183    4.5586   -5.2576 H   0  0  0  0  0  0  0  0  0  0  0  0
    5.9026   -0.7324   -9.5863 H   0  0  0  0  0  0  0  0  0  0  0  0
    8.1745   -1.3327  -10.3077 H   0  0  0  0  0  0  0  0  0  0  0  0
   10.4511   -3.6134   -8.3894 H   0  0  0  0  0  0  0  0  0  0  0  0
   10.7121   -1.8385   -8.6372 H   0  0  0  0  0  0  0  0  0  0  0  0
   10.1295   -2.8757   -9.9988 H   0  0  0  0  0  0  0  0  0  0  0  0
    8.8310   -3.3610   -6.5577 H   0  0  0  0  0  0  0  0  0  0  0  0
    6.5527   -2.7647   -5.8360 H   0  0  0  0  0  0  0  0  0  0  0  0
    4.0811   -1.0857   -4.5952 H   0  0  0  0  0  0  0  0  0  0  0  0
    2.6675   -2.6830   -3.3564 H   0  0  0  0  0  0  0  0  0  0  0  0
    1.9020   -5.1291   -3.3216 H   0  0  0  0  0  0  0  0  0  0  0  0
    0.4392   -4.5022   -4.1622 H   0  0  0  0  0  0  0  0  0  0  0  0
    1.3656   -5.8883   -4.8602 H   0  0  0  0  0  0  0  0  0  0  0  0
    2.0661   -4.9444   -6.9841 H   0  0  0  0  0  0  0  0  0  0  0  0
    3.5166   -3.3667   -8.2073 H   0  0  0  0  0  0  0  0  0  0  0  0
    2.9073   -0.9345   -9.7338 H   0  0  0  0  0  0  0  0  0  0  0  0
   -0.4593    0.0875   -4.5071 H   0  0  0  0  0  0  0  0  0  0  0  0
   -1.0502   -4.1245   -7.3373 H   0  0  0  0  0  0  0  0  0  0  0  0
   -1.9850   -4.5724   -4.0193 H   0  0  0  0  0  0  0  0  0  0  0  0
   -4.1886   -4.3965   -5.6865 H   0  0  0  0  0  0  0  0  0  0  0  0
   -5.2290   -4.8323   -3.2745 H   0  0  0  0  0  0  0  0  0  0  0  0
   -5.0158   -2.6346   -1.8833 H   0  0  0  0  0  0  0  0  0  0  0  0
   -3.8307   -0.7979   -3.3954 H   0  0  0  0  0  0  0  0  0  0  0  0
   -5.3780   -2.0796   -5.1554 H   0  0  0  0  0  0  0  0  0  0  0  0
   -3.7581   -1.7663   -5.8964 H   0  0  0  0  0  0  0  0  0  0  0  0
   -1.8001   -2.5724   -2.7026 H   0  0  0  0  0  0  0  0  0  0  0  0
  1  2  2  3
  2  3  1  0
  3  4  2  0
  3  5  1  0
  5  6  2  0
  6  7  1  0
  7  8  2  0
  8  9  1  0
  8 10  1  0
 10 11  2  0
 11 12  1  0
 12 13  2  3
 13 14  1  0
 14 15  3  0
 13 16  1  0
 16 17  3  0
  1 18  1  0
 18 19  2  0
 19 20  1  0
 20 21  1  0
 21 22  2  0
 22 23  1  0
 23 24  2  0
 24 25  1  0
 24 26  1  0
 26 27  2  0
 20 28  1  0
 28 29  2  0
 29 30  1  0
 30 31  2  0
 31 32  1  0
 31 33  1  0
 33 34  2  0
 19 35  1  0
 35 36  1  0
 36 37  1  0
 37 38  2  0
 38 39  1  0
 39 40  1  0
 40 41  2  0
 41 42  1  0
 42 43  2  0
 43 44  1  0
 43 45  1  0
 45 46  2  0
 39 47  1  0
 47 48  2  0
 48 49  1  0
 49 50  2  0
 50 51  1  0
 50 52  1  0
 52 53  2  0
 38 54  1  0
 54 55  1  0
 37 56  1  0
 56 57  2  0
 57 58  1  0
 58 59  2  0
 59 60  1  0
 60 61  2  0
 61 62  1  0
 62 63  1  0
 63 64  1  0
 62 65  2  0
 57 66  1  0
 66 67  1  0
 67 68  1  0
 68 69  1  0
 69 70  1  0
 70 71  1  0
 71 72  2  0
 72 73  1  0
 73 74  1  0
 71 75  1  0
 75 76  1  0
 76 77  1  0
 77 78  1  0
 78 79  1  0
 79 80  1  0
 80 81  2  0
 81 82  1  0
 82 83  2  0
 83 84  1  0
 84 85  1  0
 85 86  1  0
 84 87  2  0
 79 88  2  0
 88 89  1  0
 89 90  1  0
 90 91  1  0
 91 92  1  0
 92 93  1  0
 93 94  1  0
 94 95  1  0
 95 96  1  0
 96 97  1  0
 97 98  1  0
 95 99  1  0
 99100  1  0
 92101  1  0
101102  1  0
 88103  1  0
103104  2  0
104105  1  0
105106  1  0
106107  2  0
107108  1  0
108109  2  0
109110  1  0
109111  1  0
111112  2  0
105113  1  0
113114  2  0
114115  1  0
115116  2  0
116117  1  0
116118  1  0
118119  2  0
104120  1  0
120121  1  0
121122  1  0
122123  2  0
123124  1  0
124125  1  0
125126  2  0
126127  1  0
127128  2  0
128129  1  0
128130  1  0
130131  2  0
124132  1  0
132133  2  0
133134  1  0
134135  2  0
135136  1  0
135137  1  0
137138  2  0
123139  1  0
139140  1  0
122141  1  0
141142  2  3
142143  1  0
143144  2  0
143145  1  0
145146  2  0
146147  1  0
147148  2  0
148149  1  0
149150  2  0
150151  1  0
151152  2  3
152153  1  0
153154  3  0
152155  1  0
155156  3  0
148157  1  0
157158  1  0
158159  1  0
159160  2  0
160161  1  0
161162  1  0
161163  1  0
 12  2  1  0
 55 18  1  0
 98 56  1  0
140103  1  0
151142  1  0
163157  1  0
 11  5  1  0
 27 21  1  0
 34 28  1  0
 54 35  2  0
 65 58  1  0
 97 66  2  0
112106  1  0
119113  1  0
139120  2  0
150145  1  0
162158  1  0
 46 40  1  0
 53 47  1  0
 96 68  2  0
131125  1  0
138132  1  0
163147  1  0
 94 69  2  0
 74 70  2  0
 93 75  2  0
 91 76  2  0
 90 78  2  0
 87 80  1  0
  1164  1  0
  6165  1  0
  7166  1  0
  9167  1  0
  9168  1  0
  9169  1  0
 10170  1  0
 22171  1  0
 23172  1  0
 25173  1  0
 25174  1  0
 25175  1  0
 26176  1  0
 27177  1  0
 29178  1  0
 30179  1  0
 32180  1  0
 32181  1  0
 32182  1  0
 33183  1  0
 34184  1  0
 41185  1  0
 42186  1  0
 44187  1  0
 44188  1  0
 44189  1  0
 45190  1  0
 46191  1  0
 48192  1  0
 49193  1  0
 51194  1  0
 51195  1  0
 51196  1  0
 52197  1  0
 53198  1  0
 59199  1  0
 60200  1  0
 61201  1  0
 63202  1  0
 63203  1  0
 64204  1  0
 64205  1  0
 64206  1  0
 65207  1  0
 81208  1  0
 82209  1  0
 83210  1  0
 85211  1  0
 85212  1  0
 86213  1  0
 86214  1  0
 86215  1  0
 87216  1  0
 99217  1  0
 99218  1  0
100219  1  0
100220  1  0
100221  1  0
101222  1  0
101223  1  0
102224  1  0
102225  1  0
102226  1  0
107227  1  0
108228  1  0
110229  1  0
110230  1  0
110231  1  0
111232  1  0
112233  1  0
114234  1  0
115235  1  0
117236  1  0
117237  1  0
117238  1  0
118239  1  0
119240  1  0
126241  1  0
127242  1  0
129243  1  0
129244  1  0
129245  1  0
130246  1  0
131247  1  0
133248  1  0
134249  1  0
136250  1  0
136251  1  0
136252  1  0
137253  1  0
138254  1  0
141255  1  0
146256  1  0
149257  1  0
157258  1  0
158259  1  0
159260  1  0
160261  1  0
161262  1  0
162263  1  0
162264  1  0
163265  1  0
M  END

