
     RDKit          3D

261291  0  0  0  0  0  0  0  0999 V2000
    0.6426    3.5276   -8.4089 C   0  0  0  0  0  0  0  0  0  0  0  0
    0.0610    4.2491   -7.4322 C   0  0  0  0  0  0  0  0  0  0  0  0
   -0.8135    5.3875   -7.6807 C   0  0  0  0  0  0  0  0  0  0  0  0
   -0.9567    5.9887   -8.7778 O   0  0  0  0  0  0  0  0  0  0  0  0
   -1.5189    5.6974   -6.4521 C   0  0  0  0  0  0  0  0  0  0  0  0
   -2.4100    6.7439   -6.2095 C   0  0  0  0  0  0  0  0  0  0  0  0
   -2.8789    6.9351   -4.9029 C   0  0  0  0  0  0  0  0  0  0  0  0
   -2.4650    6.0790   -3.8621 C   0  0  0  0  0  0  0  0  0  0  0  0
   -2.9177    6.3496   -2.4548 C   0  0  0  0  0  0  0  0  0  0  0  0
   -1.5807    5.0153   -4.1357 C   0  0  0  0  0  0  0  0  0  0  0  0
   -1.1092    4.8325   -5.4493 C   0  0  0  0  0  0  0  0  0  0  0  0
   -0.0378    3.9382   -5.9744 C   0  0  0  0  0  0  0  0  0  0  0  0
    0.9374    3.3805   -5.2248 C   0  0  0  0  0  0  0  0  0  0  0  0
    2.3222    3.5214   -5.6055 C   0  0  0  0  0  0  0  0  0  0  0  0
    3.4398    3.6772   -5.8770 N   0  0  0  0  0  0  0  0  0  0  0  0
    0.7129    2.9067   -3.8862 C   0  0  0  0  0  0  0  0  0  0  0  0
    0.5381    2.5277   -2.8082 N   0  0  0  0  0  0  0  0  0  0  0  0
    1.2205    2.1958   -8.1834 C   0  0  0  0  0  0  0  0  0  0  0  0
    2.5746    1.8986   -8.2947 C   0  0  0  0  0  0  0  0  0  0  0  0
    2.9252    0.7046   -7.6409 C   0  0  0  0  0  0  0  0  0  0  0  0
    4.2363    0.2976   -7.3268 C   0  0  0  0  0  0  0  0  0  0  0  0
    5.4173    0.9755   -7.9047 C   0  0  0  0  0  0  0  0  0  0  0  0
    5.6120    1.2400   -9.2577 C   0  0  0  0  0  0  0  0  0  0  0  0
    6.8487    1.8358   -9.5361 C   0  0  0  0  0  0  0  0  0  0  0  0
    7.6396    2.0094   -8.4093 C   0  0  0  0  0  0  0  0  0  0  0  0
    8.9803    2.6136   -8.4049 C   0  0  0  0  0  0  0  0  0  0  0  0
   10.0206    2.1590   -7.6901 C   0  0  0  0  0  0  0  0  0  0  0  0
   10.0580    0.8815   -6.9515 C   0  0  0  0  0  0  0  0  0  0  0  0
   10.8223    0.6561   -5.8140 C   0  0  0  0  0  0  0  0  0  0  0  0
   10.7521   -0.6621   -5.3456 C   0  0  0  0  0  0  0  0  0  0  0  0
    9.9384   -1.4812   -6.1226 C   0  0  0  0  0  0  0  0  0  0  0  0
    9.6699   -2.9383   -5.8982 C   0  0  0  0  0  0  0  0  0  0  0  0
    9.1112   -3.1949   -4.5018 C   0  0  0  0  0  0  0  0  0  0  0  0
    9.3473   -0.5792   -7.4115 S   0  0  0  0  0  0  0  0  0  0  0  0
    6.7703    1.5052   -7.0549 S   0  0  0  0  0  0  0  0  0  0  0  0
    4.3627   -0.7516   -6.3951 C   0  0  0  0  0  0  0  0  0  0  0  0
    3.2588   -1.4394   -5.8706 C   0  0  0  0  0  0  0  0  0  0  0  0
    1.9462   -1.0807   -6.2508 C   0  0  0  0  0  0  0  0  0  0  0  0
    0.7428   -1.7624   -5.7333 C   0  0  0  0  0  0  0  0  0  0  0  0
    0.4067   -1.9584   -4.3983 C   0  0  0  0  0  0  0  0  0  0  0  0
   -0.8449   -2.5656   -4.2262 C   0  0  0  0  0  0  0  0  0  0  0  0
   -1.4942   -2.8625   -5.4216 C   0  0  0  0  0  0  0  0  0  0  0  0
   -2.8807   -3.3646   -5.5157 C   0  0  0  0  0  0  0  0  0  0  0  0
   -3.4229   -3.9701   -6.5827 C   0  0  0  0  0  0  0  0  0  0  0  0
   -2.6736   -4.4647   -7.7508 C   0  0  0  0  0  0  0  0  0  0  0  0
   -1.4788   -5.1775   -7.7256 C   0  0  0  0  0  0  0  0  0  0  0  0
   -1.0631   -5.6061   -8.9912 C   0  0  0  0  0  0  0  0  0  0  0  0
   -1.9492   -5.2594  -10.0044 C   0  0  0  0  0  0  0  0  0  0  0  0
   -1.7861   -5.5761  -11.4572 C   0  0  0  0  0  0  0  0  0  0  0  0
   -0.6849   -4.7251  -12.0819 C   0  0  0  0  0  0  0  0  0  0  0  0
   -3.2447   -4.4195   -9.3314 S   0  0  0  0  0  0  0  0  0  0  0  0
   -0.5285   -2.3119   -6.6874 S   0  0  0  0  0  0  0  0  0  0  0  0
    1.8226    0.0260   -7.1072 C   0  0  0  0  0  0  0  0  0  0  0  0
    0.4350    0.9329   -7.3918 S   0  0  0  0  0  0  0  0  0  0  0  0
    3.6124   -2.3872   -4.8910 C   0  0  0  0  0  0  0  0  0  0  0  0
    4.9767   -2.3994   -4.6135 C   0  0  0  0  0  0  0  0  0  0  0  0
    5.7493   -1.2826   -5.6085 S   0  0  0  0  0  0  0  0  0  0  0  0
    5.5398   -2.8704   -3.3425 C   0  0  0  0  0  0  0  0  0  0  0  0
    5.3583   -4.1473   -2.7804 C   0  0  0  0  0  0  0  0  0  0  0  0
    4.7137   -5.2743   -3.4698 C   0  0  0  0  0  0  0  0  0  0  0  0
    3.4824   -5.7698   -3.0171 C   0  0  0  0  0  0  0  0  0  0  0  0
    2.8575   -6.8200   -3.6927 C   0  0  0  0  0  0  0  0  0  0  0  0
    3.4673   -7.3946   -4.8104 C   0  0  0  0  0  0  0  0  0  0  0  0
    4.7144   -6.9258   -5.2562 C   0  0  0  0  0  0  0  0  0  0  0  0
    5.3850   -7.5566   -6.4494 C   0  0  0  0  0  0  0  0  0  0  0  0
    5.2003   -6.6938   -7.6925 C   0  0  0  0  0  0  0  0  0  0  0  0
    5.3239   -5.8471   -4.5934 C   0  0  0  0  0  0  0  0  0  0  0  0
    5.7269   -4.1602   -1.4356 C   0  0  0  0  0  0  0  0  0  0  0  0
    5.5005   -5.2993   -0.1790 S   0  0  0  0  0  0  0  0  0  0  0  0
    5.9375   -4.1377    0.9799 C   0  0  0  0  0  0  0  0  0  0  0  0
    5.7963   -3.9374    2.3248 C   0  0  0  0  0  0  0  0  0  0  0  0
    5.5767   -4.8090    3.3961 C   0  0  0  0  0  0  0  0  0  0  0  0
    5.4792   -4.2583    4.7110 C   0  0  0  0  0  0  0  0  0  0  0  0
    5.2564   -5.1326    5.7237 N   0  0  0  0  0  0  0  0  0  0  0  0
    5.2282   -6.5521    4.8693 S   0  0  0  0  0  0  0  0  0  0  0  0
    5.4618   -6.1551    3.2781 N   0  0  0  0  0  0  0  0  0  0  0  0
    5.5310   -2.8617    4.8671 C   0  0  0  0  0  0  0  0  0  0  0  0
    5.1068   -2.0759    5.9023 C   0  0  0  0  0  0  0  0  0  0  0  0
    4.2923   -2.3600    7.3636 S   0  0  0  0  0  0  0  0  0  0  0  0
    3.6159   -0.7981    7.3389 C   0  0  0  0  0  0  0  0  0  0  0  0
    2.6518   -0.1625    8.1258 C   0  0  0  0  0  0  0  0  0  0  0  0
    2.1428   -0.7166    9.3972 C   0  0  0  0  0  0  0  0  0  0  0  0
    1.6558   -2.0337    9.4594 C   0  0  0  0  0  0  0  0  0  0  0  0
    1.2015   -2.5572   10.6735 C   0  0  0  0  0  0  0  0  0  0  0  0
    1.2389   -1.7788   11.8307 C   0  0  0  0  0  0  0  0  0  0  0  0
    1.7294   -0.4644   11.7854 C   0  0  0  0  0  0  0  0  0  0  0  0
    1.7434    0.3877   13.0248 C   0  0  0  0  0  0  0  0  0  0  0  0
    0.4507    1.1854   13.1443 C   0  0  0  0  0  0  0  0  0  0  0  0
    2.1646    0.0663   10.5610 C   0  0  0  0  0  0  0  0  0  0  0  0
    2.2616    1.0685    7.5508 C   0  0  0  0  0  0  0  0  0  0  0  0
    3.1259    1.3087    6.0958 S   0  0  0  0  0  0  0  0  0  0  0  0
    3.9848   -0.1193    6.2088 C   0  0  0  0  0  0  0  0  0  0  0  0
    4.8335   -0.8458    5.3811 C   0  0  0  0  0  0  0  0  0  0  0  0
    5.0720   -0.7775    4.0455 N   0  0  0  0  0  0  0  0  0  0  0  0
    5.6212   -1.9993    3.7617 C   0  0  0  0  0  0  0  0  0  0  0  0
    5.9014   -2.5552    2.4989 C   0  0  0  0  0  0  0  0  0  0  0  0
    6.2222   -1.9227    1.3321 N   0  0  0  0  0  0  0  0  0  0  0  0
    6.2122   -2.9287    0.4293 C   0  0  0  0  0  0  0  0  0  0  0  0
    6.1316   -2.9439   -0.9486 C   0  0  0  0  0  0  0  0  0  0  0  0
    6.0813   -1.7811   -2.1435 S   0  0  0  0  0  0  0  0  0  0  0  0
    6.9736   -0.6660    1.1836 C   0  0  0  0  0  0  0  0  0  0  0  0
    8.4692   -0.9393    1.1020 C   0  0  0  0  0  0  0  0  0  0  0  0
    4.2401    0.0206    3.1241 C   0  0  0  0  0  0  0  0  0  0  0  0
    2.8630   -0.6179    2.9454 C   0  0  0  0  0  0  0  0  0  0  0  0
    1.0573    1.8550    7.8879 C   0  0  0  0  0  0  0  0  0  0  0  0
   -0.1267    1.3050    8.3797 C   0  0  0  0  0  0  0  0  0  0  0  0
   -1.2501    2.1272    8.1883 C   0  0  0  0  0  0  0  0  0  0  0  0
   -2.5973    1.7348    8.3569 C   0  0  0  0  0  0  0  0  0  0  0  0
   -2.9528    0.3300    8.6295 C   0  0  0  0  0  0  0  0  0  0  0  0
   -3.9023   -0.1324    9.5368 C   0  0  0  0  0  0  0  0  0  0  0  0
   -4.1265   -1.5135    9.4452 C   0  0  0  0  0  0  0  0  0  0  0  0
   -3.3944   -2.1226    8.4321 C   0  0  0  0  0  0  0  0  0  0  0  0
   -3.4363   -3.5542    8.0823 C   0  0  0  0  0  0  0  0  0  0  0  0
   -3.3426   -4.0227    6.8261 C   0  0  0  0  0  0  0  0  0  0  0  0
   -3.4337   -3.1837    5.6165 C   0  0  0  0  0  0  0  0  0  0  0  0
   -2.6255   -3.3111    4.4928 C   0  0  0  0  0  0  0  0  0  0  0  0
   -2.9202   -2.3765    3.4894 C   0  0  0  0  0  0  0  0  0  0  0  0
   -3.9794   -1.5337    3.8163 C   0  0  0  0  0  0  0  0  0  0  0  0
   -4.4842   -0.3897    2.9903 C   0  0  0  0  0  0  0  0  0  0  0  0
   -5.9096   -0.6421    2.5103 C   0  0  0  0  0  0  0  0  0  0  0  0
   -4.5526   -1.9500    5.3424 S   0  0  0  0  0  0  0  0  0  0  0  0
   -2.4157   -0.9669    7.7086 S   0  0  0  0  0  0  0  0  0  0  0  0
   -3.5808    2.6510    7.9361 C   0  0  0  0  0  0  0  0  0  0  0  0
   -3.2599    3.8790    7.3511 C   0  0  0  0  0  0  0  0  0  0  0  0
   -1.9166    4.2706    7.1938 C   0  0  0  0  0  0  0  0  0  0  0  0
   -1.5672    5.4248    6.3569 C   0  0  0  0  0  0  0  0  0  0  0  0
   -1.6168    6.7632    6.7256 C   0  0  0  0  0  0  0  0  0  0  0  0
   -1.4023    7.6372    5.6462 C   0  0  0  0  0  0  0  0  0  0  0  0
   -1.2175    6.9906    4.4245 C   0  0  0  0  0  0  0  0  0  0  0  0
   -1.0809    7.6941    3.1247 C   0  0  0  0  0  0  0  0  0  0  0  0
   -0.9978    7.1251    1.9101 C   0  0  0  0  0  0  0  0  0  0  0  0
   -0.9382    5.6803    1.6614 C   0  0  0  0  0  0  0  0  0  0  0  0
    0.1440    4.8525    1.9335 C   0  0  0  0  0  0  0  0  0  0  0  0
   -0.1323    3.5004    1.6999 C   0  0  0  0  0  0  0  0  0  0  0  0
   -1.4206    3.2784    1.2269 C   0  0  0  0  0  0  0  0  0  0  0  0
   -2.0124    1.9418    0.9058 C   0  0  0  0  0  0  0  0  0  0  0  0
   -1.5451    1.4517   -0.4584 C   0  0  0  0  0  0  0  0  0  0  0  0
   -2.2175    4.7531    1.0818 S   0  0  0  0  0  0  0  0  0  0  0  0
   -1.3228    5.3324    4.7046 S   0  0  0  0  0  0  0  0  0  0  0  0
   -0.9333    3.3593    7.6109 C   0  0  0  0  0  0  0  0  0  0  0  0
    0.7141    3.3895    7.2685 S   0  0  0  0  0  0  0  0  0  0  0  0
   -4.3683    4.5238    6.7779 C   0  0  0  0  0  0  0  0  0  0  0  0
   -5.5477    3.7853    6.8574 C   0  0  0  0  0  0  0  0  0  0  0  0
   -5.2237    2.3708    7.7170 S   0  0  0  0  0  0  0  0  0  0  0  0
   -6.7877    4.2167    6.1784 C   0  0  0  0  0  0  0  0  0  0  0  0
   -7.6233    3.4603    5.4309 C   0  0  0  0  0  0  0  0  0  0  0  0
   -7.8711    2.0105    5.5189 C   0  0  0  0  0  0  0  0  0  0  0  0
   -7.2470    1.1688    6.2197 O   0  0  0  0  0  0  0  0  0  0  0  0
   -9.0394    1.6829    4.7388 C   0  0  0  0  0  0  0  0  0  0  0  0
   -9.6102    0.4005    4.5737 C   0  0  0  0  0  0  0  0  0  0  0  0
  -10.6789    0.3710    3.6991 C   0  0  0  0  0  0  0  0  0  0  0  0
  -11.1653    1.5342    3.0212 C   0  0  0  0  0  0  0  0  0  0  0  0
  -10.6240    2.7960    3.1939 C   0  0  0  0  0  0  0  0  0  0  0  0
   -9.5259    2.8538    4.1014 C   0  0  0  0  0  0  0  0  0  0  0  0
   -8.6342    3.9959    4.4554 C   0  0  0  0  0  0  0  0  0  0  0  0
   -8.5812    5.1992    3.8210 C   0  0  0  0  0  0  0  0  0  0  0  0
   -9.6481    5.6966    2.9950 C   0  0  0  0  0  0  0  0  0  0  0  0
  -10.4972    6.1182    2.3316 N   0  0  0  0  0  0  0  0  0  0  0  0
   -7.4020    6.0292    3.8317 C   0  0  0  0  0  0  0  0  0  0  0  0
   -6.4528    6.6880    3.8154 N   0  0  0  0  0  0  0  0  0  0  0  0
  -12.1816    0.7078    2.2908 C   0  0  0  0  0  0  0  0  0  0  0  0
  -11.9082    0.3814    0.7915 C   0  0  0  0  0  0  0  0  0  0  0  0
  -10.4176    0.3000    0.5382 C   0  0  0  0  0  0  0  0  0  0  0  0
   -9.9849   -0.7900    1.1741 C   0  0  0  0  0  0  0  0  0  0  0  0
  -11.1914   -1.4084    1.8440 C   0  0  0  0  0  0  0  0  0  0  0  0
  -12.2354   -1.1000    0.7876 C   0  0  0  0  0  0  0  0  0  0  0  0
  -11.6926   -0.4822    2.9946 C   0  0  0  0  0  0  0  0  0  0  0  0
    0.6746    3.9210   -9.4149 H   0  0  0  0  0  0  0  0  0  0  0  0
   -2.7068    7.4165   -7.0048 H   0  0  0  0  0  0  0  0  0  0  0  0
   -3.5597    7.7540   -4.6941 H   0  0  0  0  0  0  0  0  0  0  0  0
   -4.0278    6.3397   -2.4072 H   0  0  0  0  0  0  0  0  0  0  0  0
   -2.5287    5.5860   -1.7482 H   0  0  0  0  0  0  0  0  0  0  0  0
   -2.5460    7.3469   -2.1345 H   0  0  0  0  0  0  0  0  0  0  0  0
   -1.2675    4.3767   -3.3326 H   0  0  0  0  0  0  0  0  0  0  0  0
    3.2900    2.6109   -8.6790 H   0  0  0  0  0  0  0  0  0  0  0  0
    4.8897    0.9939  -10.0239 H   0  0  0  0  0  0  0  0  0  0  0  0
    7.1613    2.1094  -10.5349 H   0  0  0  0  0  0  0  0  0  0  0  0
    9.1227    3.5034   -9.0055 H   0  0  0  0  0  0  0  0  0  0  0  0
   10.9198    2.7638   -7.6739 H   0  0  0  0  0  0  0  0  0  0  0  0
   11.4144    1.4229   -5.3330 H   0  0  0  0  0  0  0  0  0  0  0  0
   11.2811   -1.0040   -4.4677 H   0  0  0  0  0  0  0  0  0  0  0  0
    8.9356   -3.2999   -6.6494 H   0  0  0  0  0  0  0  0  0  0  0  0
   10.6117   -3.5099   -6.0343 H   0  0  0  0  0  0  0  0  0  0  0  0
    9.8760   -2.9745   -3.7284 H   0  0  0  0  0  0  0  0  0  0  0  0
    8.8110   -4.2593   -4.4084 H   0  0  0  0  0  0  0  0  0  0  0  0
    8.2227   -2.5577   -4.3217 H   0  0  0  0  0  0  0  0  0  0  0  0
    1.0253   -1.6345   -3.5704 H   0  0  0  0  0  0  0  0  0  0  0  0
   -1.2747   -2.7576   -3.2501 H   0  0  0  0  0  0  0  0  0  0  0  0
   -3.5276   -3.1679   -4.6694 H   0  0  0  0  0  0  0  0  0  0  0  0
   -4.4901   -4.1479   -6.5769 H   0  0  0  0  0  0  0  0  0  0  0  0
   -0.9297   -5.3951   -6.8200 H   0  0  0  0  0  0  0  0  0  0  0  0
   -0.1500   -6.1608   -9.1580 H   0  0  0  0  0  0  0  0  0  0  0  0
   -1.5319   -6.6525  -11.5728 H   0  0  0  0  0  0  0  0  0  0  0  0
   -2.7410   -5.3888  -11.9926 H   0  0  0  0  0  0  0  0  0  0  0  0
   -0.5851   -4.9779  -13.1578 H   0  0  0  0  0  0  0  0  0  0  0  0
    0.2877   -4.9155  -11.5803 H   0  0  0  0  0  0  0  0  0  0  0  0
   -0.9386   -3.6466  -11.9949 H   0  0  0  0  0  0  0  0  0  0  0  0
    2.9009   -2.9644   -4.3196 H   0  0  0  0  0  0  0  0  0  0  0  0
    2.9991   -5.3288   -2.1543 H   0  0  0  0  0  0  0  0  0  0  0  0
    1.8988   -7.1858   -3.3515 H   0  0  0  0  0  0  0  0  0  0  0  0
    2.9691   -8.2064   -5.3262 H   0  0  0  0  0  0  0  0  0  0  0  0
    4.9633   -8.5669   -6.6433 H   0  0  0  0  0  0  0  0  0  0  0  0
    6.4701   -7.6840   -6.2471 H   0  0  0  0  0  0  0  0  0  0  0  0
    4.1194   -6.5280   -7.8906 H   0  0  0  0  0  0  0  0  0  0  0  0
    5.6483   -7.2054   -8.5706 H   0  0  0  0  0  0  0  0  0  0  0  0
    5.7030   -5.7118   -7.5586 H   0  0  0  0  0  0  0  0  0  0  0  0
    6.2769   -5.4669   -4.9420 H   0  0  0  0  0  0  0  0  0  0  0  0
    1.6065   -2.6474    8.5678 H   0  0  0  0  0  0  0  0  0  0  0  0
    0.8195   -3.5695   10.7116 H   0  0  0  0  0  0  0  0  0  0  0  0
    0.8832   -2.1986   12.7650 H   0  0  0  0  0  0  0  0  0  0  0  0
    2.6071    1.0876   12.9966 H   0  0  0  0  0  0  0  0  0  0  0  0
    1.8655   -0.2511   13.9275 H   0  0  0  0  0  0  0  0  0  0  0  0
    0.4880    1.8215   14.0518 H   0  0  0  0  0  0  0  0  0  0  0  0
    0.3149    1.8403   12.2579 H   0  0  0  0  0  0  0  0  0  0  0  0
   -0.4168    0.4975   13.2284 H   0  0  0  0  0  0  0  0  0  0  0  0
    2.5321    1.0822   10.5151 H   0  0  0  0  0  0  0  0  0  0  0  0
    6.6325   -0.1270    0.2741 H   0  0  0  0  0  0  0  0  0  0  0  0
    6.8227   -0.0088    2.0611 H   0  0  0  0  0  0  0  0  0  0  0  0
    8.8037   -1.4958    2.0029 H   0  0  0  0  0  0  0  0  0  0  0  0
    9.0178    0.0259    1.0535 H   0  0  0  0  0  0  0  0  0  0  0  0
    8.7099   -1.5293    0.1936 H   0  0  0  0  0  0  0  0  0  0  0  0
    4.1343    1.0584    3.5023 H   0  0  0  0  0  0  0  0  0  0  0  0
    4.6885    0.1049    2.1233 H   0  0  0  0  0  0  0  0  0  0  0  0
    2.9738   -1.6390    2.5181 H   0  0  0  0  0  0  0  0  0  0  0  0
    2.2549   -0.0098    2.2436 H   0  0  0  0  0  0  0  0  0  0  0  0
    2.3285   -0.6843    3.9139 H   0  0  0  0  0  0  0  0  0  0  0  0
   -0.1921    0.2985    8.7541 H   0  0  0  0  0  0  0  0  0  0  0  0
   -4.4320    0.5107   10.2263 H   0  0  0  0  0  0  0  0  0  0  0  0
   -4.8288   -2.0438   10.0731 H   0  0  0  0  0  0  0  0  0  0  0  0
   -3.4891   -4.2673    8.8951 H   0  0  0  0  0  0  0  0  0  0  0  0
   -3.2188   -5.0880    6.6857 H   0  0  0  0  0  0  0  0  0  0  0  0
   -1.8190   -4.0293    4.4134 H   0  0  0  0  0  0  0  0  0  0  0  0
   -2.3644   -2.3073    2.5636 H   0  0  0  0  0  0  0  0  0  0  0  0
   -4.4572    0.5376    3.6037 H   0  0  0  0  0  0  0  0  0  0  0  0
   -3.8248   -0.2386    2.1081 H   0  0  0  0  0  0  0  0  0  0  0  0
   -6.5957   -0.7803    3.3721 H   0  0  0  0  0  0  0  0  0  0  0  0
   -6.2580    0.2292    1.9179 H   0  0  0  0  0  0  0  0  0  0  0  0
   -5.9410   -1.5476    1.8663 H   0  0  0  0  0  0  0  0  0  0  0  0
   -1.8249    7.1001    7.7329 H   0  0  0  0  0  0  0  0  0  0  0  0
   -1.4189    8.7119    5.7529 H   0  0  0  0  0  0  0  0  0  0  0  0
   -1.1127    8.7765    3.1541 H   0  0  0  0  0  0  0  0  0  0  0  0
   -1.0019    7.7725    1.0413 H   0  0  0  0  0  0  0  0  0  0  0  0
    1.0814    5.2082    2.3389 H   0  0  0  0  0  0  0  0  0  0  0  0
    0.5774    2.7091    1.8975 H   0  0  0  0  0  0  0  0  0  0  0  0
   -3.1216    2.0147    0.9126 H   0  0  0  0  0  0  0  0  0  0  0  0
   -1.7072    1.2143    1.6901 H   0  0  0  0  0  0  0  0  0  0  0  0
   -1.8641    2.1620   -1.2491 H   0  0  0  0  0  0  0  0  0  0  0  0
   -0.4382    1.3497   -0.4746 H   0  0  0  0  0  0  0  0  0  0  0  0
   -1.9992    0.4609   -0.6689 H   0  0  0  0  0  0  0  0  0  0  0  0
   -4.3014    5.4580    6.2306 H   0  0  0  0  0  0  0  0  0  0  0  0
   -6.9010    5.2877    6.1416 H   0  0  0  0  0  0  0  0  0  0  0  0
   -9.2276   -0.4862    5.0636 H   0  0  0  0  0  0  0  0  0  0  0  0
  -11.0198    3.6285    2.6394 H   0  0  0  0  0  0  0  0  0  0  0  0
  -13.2349    0.9738    2.5329 H   0  0  0  0  0  0  0  0  0  0  0  0
  -12.4769    0.9963    0.0629 H   0  0  0  0  0  0  0  0  0  0  0  0
   -9.8231    0.9481   -0.0959 H   0  0  0  0  0  0  0  0  0  0  0  0
   -8.9740   -1.1829    1.1500 H   0  0  0  0  0  0  0  0  0  0  0  0
  -11.0840   -2.4812    2.1137 H   0  0  0  0  0  0  0  0  0  0  0  0
  -12.0336   -1.5959   -0.1933 H   0  0  0  0  0  0  0  0  0  0  0  0
  -13.2771   -1.3291    1.1113 H   0  0  0  0  0  0  0  0  0  0  0  0
  -12.4477   -0.9408    3.6732 H   0  0  0  0  0  0  0  0  0  0  0  0
  1  2  2  3
  2  3  1  0
  3  4  2  0
  3  5  1  0
  5  6  2  0
  6  7  1  0
  7  8  2  0
  8  9  1  0
  8 10  1  0
 10 11  2  0
 11 12  1  0
 12 13  2  3
 13 14  1  0
 14 15  3  0
 13 16  1  0
 16 17  3  0
  1 18  1  0
 18 19  2  0
 19 20  1  0
 20 21  2  0
 21 22  1  0
 22 23  2  0
 23 24  1  0
 24 25  2  0
 25 26  1  0
 26 27  2  3
 27 28  1  0
 28 29  2  0
 29 30  1  0
 30 31  2  0
 31 32  1  0
 32 33  1  0
 31 34  1  0
 25 35  1  0
 21 36  1  0
 36 37  2  0
 37 38  1  0
 38 39  1  0
 39 40  2  0
 40 41  1  0
 41 42  2  0
 42 43  1  0
 43 44  2  3
 44 45  1  0
 45 46  2  0
 46 47  1  0
 47 48  2  0
 48 49  1  0
 49 50  1  0
 48 51  1  0
 42 52  1  0
 38 53  2  0
 53 54  1  0
 37 55  1  0
 55 56  2  0
 56 57  1  0
 56 58  1  0
 58 59  2  0
 59 60  1  0
 60 61  2  0
 61 62  1  0
 62 63  2  0
 63 64  1  0
 64 65  1  0
 65 66  1  0
 64 67  2  0
 59 68  1  0
 68 69  1  0
 69 70  1  0
 70 71  1  0
 71 72  1  0
 72 73  1  0
 73 74  2  0
 74 75  1  0
 75 76  1  0
 73 77  1  0
 77 78  1  0
 78 79  1  0
 79 80  1  0
 80 81  1  0
 81 82  1  0
 82 83  2  0
 83 84  1  0
 84 85  2  0
 85 86  1  0
 86 87  1  0
 87 88  1  0
 86 89  2  0
 81 90  2  0
 90 91  1  0
 91 92  1  0
 92 93  1  0
 93 94  1  0
 94 95  1  0
 95 96  1  0
 96 97  1  0
 97 98  1  0
 98 99  1  0
 99100  1  0
 97101  1  0
101102  1  0
 94103  1  0
103104  1  0
 90105  1  0
105106  2  0
106107  1  0
107108  2  0
108109  1  0
109110  2  0
110111  1  0
111112  2  0
112113  1  0
113114  2  3
114115  1  0
115116  2  0
116117  1  0
117118  2  0
118119  1  0
119120  1  0
118121  1  0
112122  1  0
108123  1  0
123124  2  0
124125  1  0
125126  1  0
126127  2  0
127128  1  0
128129  2  0
129130  1  0
130131  2  3
131132  1  0
132133  2  0
133134  1  0
134135  2  0
135136  1  0
136137  1  0
135138  1  0
129139  1  0
125140  2  0
140141  1  0
124142  1  0
142143  2  0
143144  1  0
143145  1  0
145146  2  3
146147  1  0
147148  2  0
147149  1  0
149150  2  0
150151  1  0
151152  2  0
152153  1  0
153154  2  0
154155  1  0
155156  2  3
156157  1  0
157158  3  0
156159  1  0
159160  3  0
152161  1  0
161162  1  0
162163  1  0
163164  2  0
164165  1  0
165166  1  0
165167  1  0
 12  2  1  0
 54 18  1  0
100 58  1  0
141105  1  0
155146  1  0
167161  1  0
 11  5  1  0
 53 20  1  0
 67 60  1  0
 99 68  2  0
140107  1  0
154149  1  0
166162  1  0
 35 22  1  0
 57 36  1  0
 98 70  2  0
122109  1  0
144123  1  0
167151  1  0
 34 28  1  0
 52 39  1  0
 96 71  2  0
121115  1  0
139126  1  0
 51 45  1  0
 76 72  2  0
 95 77  2  0
138132  1  0
 93 78  2  0
 92 80  2  0
 89 82  1  0
  1168  1  0
  6169  1  0
  7170  1  0
  9171  1  0
  9172  1  0
  9173  1  0
 10174  1  0
 19175  1  0
 23176  1  0
 24177  1  0
 26178  1  0
 27179  1  0
 29180  1  0
 30181  1  0
 32182  1  0
 32183  1  0
 33184  1  0
 33185  1  0
 33186  1  0
 40187  1  0
 41188  1  0
 43189  1  0
 44190  1  0
 46191  1  0
 47192  1  0
 49193  1  0
 49194  1  0
 50195  1  0
 50196  1  0
 50197  1  0
 55198  1  0
 61199  1  0
 62200  1  0
 63201  1  0
 65202  1  0
 65203  1  0
 66204  1  0
 66205  1  0
 66206  1  0
 67207  1  0
 83208  1  0
 84209  1  0
 85210  1  0
 87211  1  0
 87212  1  0
 88213  1  0
 88214  1  0
 88215  1  0
 89216  1  0
101217  1  0
101218  1  0
102219  1  0
102220  1  0
102221  1  0
103222  1  0
103223  1  0
104224  1  0
104225  1  0
104226  1  0
106227  1  0
110228  1  0
111229  1  0
113230  1  0
114231  1  0
116232  1  0
117233  1  0
119234  1  0
119235  1  0
120236  1  0
120237  1  0
120238  1  0
127239  1  0
128240  1  0
130241  1  0
131242  1  0
133243  1  0
134244  1  0
136245  1  0
136246  1  0
137247  1  0
137248  1  0
137249  1  0
142250  1  0
145251  1  0
150252  1  0
153253  1  0
161254  1  0
162255  1  0
163256  1  0
164257  1  0
165258  1  0
166259  1  0
166260  1  0
167261  1  0
M  END

