
     RDKit          3D

201222  0  0  0  0  0  0  0  0999 V2000
    3.8376   -2.1833  -11.3985 C   0  0  0  0  0  0  0  0  0  0  0  0
    3.2807   -3.3986  -11.5464 C   0  0  0  0  0  0  0  0  0  0  0  0
    3.3797   -4.1795  -12.7812 C   0  0  0  0  0  0  0  0  0  0  0  0
    3.6088   -3.7238  -13.9337 O   0  0  0  0  0  0  0  0  0  0  0  0
    3.2994   -5.5883  -12.4323 C   0  0  0  0  0  0  0  0  0  0  0  0
    3.4968   -6.7015  -13.2487 C   0  0  0  0  0  0  0  0  0  0  0  0
    3.4837   -7.9735  -12.6587 C   0  0  0  0  0  0  0  0  0  0  0  0
    3.3190   -8.1121  -11.2612 C   0  0  0  0  0  0  0  0  0  0  0  0
    3.3383   -9.4707  -10.6288 C   0  0  0  0  0  0  0  0  0  0  0  0
    3.1119   -6.9715  -10.4602 C   0  0  0  0  0  0  0  0  0  0  0  0
    3.0831   -5.7093  -11.0705 C   0  0  0  0  0  0  0  0  0  0  0  0
    2.8933   -4.3614  -10.4777 C   0  0  0  0  0  0  0  0  0  0  0  0
    2.0946   -4.0775   -9.4205 C   0  0  0  0  0  0  0  0  0  0  0  0
    1.4704   -2.7861   -9.2780 C   0  0  0  0  0  0  0  0  0  0  0  0
    0.9453   -1.7585   -9.1669 N   0  0  0  0  0  0  0  0  0  0  0  0
    1.6254   -5.0939   -8.5127 C   0  0  0  0  0  0  0  0  0  0  0  0
    1.2371   -5.9027   -7.7783 N   0  0  0  0  0  0  0  0  0  0  0  0
    4.3477   -1.7185  -10.1071 C   0  0  0  0  0  0  0  0  0  0  0  0
    3.8011   -0.6822   -9.3623 C   0  0  0  0  0  0  0  0  0  0  0  0
    4.2698   -0.6650   -8.0370 C   0  0  0  0  0  0  0  0  0  0  0  0
    3.7087    0.0709   -6.9721 C   0  0  0  0  0  0  0  0  0  0  0  0
    2.6265    1.0605   -7.1861 C   0  0  0  0  0  0  0  0  0  0  0  0
    2.8672    2.2064   -7.9613 C   0  0  0  0  0  0  0  0  0  0  0  0
    1.8652    3.1685   -8.1315 C   0  0  0  0  0  0  0  0  0  0  0  0
    0.6168    2.9929   -7.5291 C   0  0  0  0  0  0  0  0  0  0  0  0
    0.3603    1.8440   -6.7700 C   0  0  0  0  0  0  0  0  0  0  0  0
   -1.2385    1.6492   -5.9743 S   0  0  0  0  0  0  0  0  0  0  0  0
   -2.0338    0.8226   -7.3922 C   0  0  0  0  0  0  0  0  0  0  0  0
   -1.9884   -0.6877   -7.2095 C   0  0  0  0  0  0  0  0  0  0  0  0
    1.3594    0.8777   -6.6031 C   0  0  0  0  0  0  0  0  0  0  0  0
    4.1458   -0.2713   -5.6778 C   0  0  0  0  0  0  0  0  0  0  0  0
    5.1321   -1.2355   -5.4362 C   0  0  0  0  0  0  0  0  0  0  0  0
    5.7627   -1.8953   -6.5094 C   0  0  0  0  0  0  0  0  0  0  0  0
    6.8369   -2.8873   -6.3150 C   0  0  0  0  0  0  0  0  0  0  0  0
    6.5657   -4.1241   -5.7155 C   0  0  0  0  0  0  0  0  0  0  0  0
    7.5839   -5.0728   -5.5697 C   0  0  0  0  0  0  0  0  0  0  0  0
    8.8793   -4.7846   -6.0085 C   0  0  0  0  0  0  0  0  0  0  0  0
    9.1631   -3.5521   -6.6089 C   0  0  0  0  0  0  0  0  0  0  0  0
   10.8017   -3.2425   -7.2696 S   0  0  0  0  0  0  0  0  0  0  0  0
   11.4938   -2.5438   -5.7292 C   0  0  0  0  0  0  0  0  0  0  0  0
   11.1932   -1.0559   -5.6317 C   0  0  0  0  0  0  0  0  0  0  0  0
    8.1392   -2.6068   -6.7664 C   0  0  0  0  0  0  0  0  0  0  0  0
    5.2587   -1.6279   -7.7905 C   0  0  0  0  0  0  0  0  0  0  0  0
    5.4914   -2.5424   -9.1820 S   0  0  0  0  0  0  0  0  0  0  0  0
    5.2960   -1.5296   -4.0732 C   0  0  0  0  0  0  0  0  0  0  0  0
    4.4069   -0.8344   -3.2527 C   0  0  0  0  0  0  0  0  0  0  0  0
    3.4952    0.2105   -4.2128 S   0  0  0  0  0  0  0  0  0  0  0  0
    4.0082   -1.1843   -1.8748 C   0  0  0  0  0  0  0  0  0  0  0  0
    3.9788   -2.4902   -1.3254 C   0  0  0  0  0  0  0  0  0  0  0  0
    4.5305   -3.7051   -1.9423 C   0  0  0  0  0  0  0  0  0  0  0  0
    3.7451   -4.4728   -2.8114 C   0  0  0  0  0  0  0  0  0  0  0  0
    4.2353   -5.6869   -3.3055 C   0  0  0  0  0  0  0  0  0  0  0  0
    5.5038   -6.1351   -2.9342 C   0  0  0  0  0  0  0  0  0  0  0  0
    6.3127   -5.3538   -2.0950 C   0  0  0  0  0  0  0  0  0  0  0  0
    7.6905   -5.8204   -1.7022 C   0  0  0  0  0  0  0  0  0  0  0  0
    7.6618   -6.5023   -0.3362 C   0  0  0  0  0  0  0  0  0  0  0  0
    5.8130   -4.1442   -1.5878 C   0  0  0  0  0  0  0  0  0  0  0  0
    3.1473   -2.5496   -0.2056 C   0  0  0  0  0  0  0  0  0  0  0  0
    2.4345   -3.8646    0.6316 S   0  0  0  0  0  0  0  0  0  0  0  0
    1.3405   -2.8078    1.3943 C   0  0  0  0  0  0  0  0  0  0  0  0
    0.2631   -2.8329    2.2373 C   0  0  0  0  0  0  0  0  0  0  0  0
   -0.3083   -3.8511    3.0108 C   0  0  0  0  0  0  0  0  0  0  0  0
   -1.3939   -3.5230    3.8805 C   0  0  0  0  0  0  0  0  0  0  0  0
   -1.8980   -4.5275    4.6350 N   0  0  0  0  0  0  0  0  0  0  0  0
   -0.9113   -5.7702    4.1460 S   0  0  0  0  0  0  0  0  0  0  0  0
    0.1290   -5.1343    3.0262 N   0  0  0  0  0  0  0  0  0  0  0  0
   -1.8894   -2.2123    3.8691 C   0  0  0  0  0  0  0  0  0  0  0  0
   -2.9239   -1.6056    4.5298 C   0  0  0  0  0  0  0  0  0  0  0  0
   -4.0071   -1.8786    5.8119 S   0  0  0  0  0  0  0  0  0  0  0  0
   -4.5857   -0.2637    5.7138 C   0  0  0  0  0  0  0  0  0  0  0  0
   -5.3961    0.5518    6.5227 C   0  0  0  0  0  0  0  0  0  0  0  0
   -6.1813    0.0934    7.6984 C   0  0  0  0  0  0  0  0  0  0  0  0
   -7.4462    0.6583    7.9490 C   0  0  0  0  0  0  0  0  0  0  0  0
   -8.2094    0.2344    9.0356 C   0  0  0  0  0  0  0  0  0  0  0  0
   -7.7288   -0.7658    9.8840 C   0  0  0  0  0  0  0  0  0  0  0  0
   -6.4659   -1.3354    9.6615 C   0  0  0  0  0  0  0  0  0  0  0  0
   -5.9741   -2.4445   10.5565 C   0  0  0  0  0  0  0  0  0  0  0  0
   -6.4304   -3.8020   10.0296 C   0  0  0  0  0  0  0  0  0  0  0  0
   -5.6969   -0.9040    8.5670 C   0  0  0  0  0  0  0  0  0  0  0  0
   -5.3647    1.8869    6.0606 C   0  0  0  0  0  0  0  0  0  0  0  0
   -4.3454    2.0266    4.7065 S   0  0  0  0  0  0  0  0  0  0  0  0
   -3.9677    0.4078    4.6856 C   0  0  0  0  0  0  0  0  0  0  0  0
   -3.0207   -0.3523    4.0332 C   0  0  0  0  0  0  0  0  0  0  0  0
   -2.1234   -0.0848    3.0593 N   0  0  0  0  0  0  0  0  0  0  0  0
   -1.3591   -1.2197    3.0262 C   0  0  0  0  0  0  0  0  0  0  0  0
   -0.1972   -1.5074    2.2820 C   0  0  0  0  0  0  0  0  0  0  0  0
    0.6414   -0.6658    1.5971 N   0  0  0  0  0  0  0  0  0  0  0  0
    1.5237   -1.5193    1.0310 C   0  0  0  0  0  0  0  0  0  0  0  0
    2.5590   -1.3606    0.1325 C   0  0  0  0  0  0  0  0  0  0  0  0
    3.0096   -0.1605   -0.9378 S   0  0  0  0  0  0  0  0  0  0  0  0
    0.9392    0.7471    1.8814 C   0  0  0  0  0  0  0  0  0  0  0  0
    2.2234    0.8944    2.6962 C   0  0  0  0  0  0  0  0  0  0  0  0
   -2.3322    0.9047    1.9864 C   0  0  0  0  0  0  0  0  0  0  0  0
   -3.6806    0.7112    1.2902 C   0  0  0  0  0  0  0  0  0  0  0  0
   -5.6903    3.0744    6.8566 C   0  0  0  0  0  0  0  0  0  0  0  0
   -4.7158    3.5380    8.1443 S   0  0  0  0  0  0  0  0  0  0  0  0
   -5.0758    5.1755    8.1029 C   0  0  0  0  0  0  0  0  0  0  0  0
   -5.9966    5.3974    7.0739 C   0  0  0  0  0  0  0  0  0  0  0  0
   -6.5182    6.7147    6.6427 C   0  0  0  0  0  0  0  0  0  0  0  0
   -6.2109    7.7609    7.2760 O   0  0  0  0  0  0  0  0  0  0  0  0
   -7.4093    6.7672    5.4560 C   0  0  0  0  0  0  0  0  0  0  0  0
   -7.9855    7.9206    4.9080 C   0  0  0  0  0  0  0  0  0  0  0  0
   -7.8114    9.3464    5.3475 C   0  0  0  0  0  0  0  0  0  0  0  0
   -8.7731    9.6952    6.4802 C   0  0  0  0  0  0  0  0  0  0  0  0
   -8.9885    7.4521    3.6429 S   0  0  0  0  0  0  0  0  0  0  0  0
   -8.6855    5.8010    3.7321 C   0  0  0  0  0  0  0  0  0  0  0  0
   -9.3510    4.7840    2.8497 C   0  0  0  0  0  0  0  0  0  0  0  0
  -10.5208    4.1106    3.5631 C   0  0  0  0  0  0  0  0  0  0  0  0
   -7.7894    5.5788    4.7856 C   0  0  0  0  0  0  0  0  0  0  0  0
   -7.2507    4.2603    5.2120 C   0  0  0  0  0  0  0  0  0  0  0  0
   -7.5713    3.1971    4.6156 O   0  0  0  0  0  0  0  0  0  0  0  0
   -6.3333    4.2211    6.3762 C   0  0  0  0  0  0  0  0  0  0  0  0
   -4.3162    6.1967    8.8376 C   0  0  0  0  0  0  0  0  0  0  0  0
   -3.0218    6.4621    8.5658 C   0  0  0  0  0  0  0  0  0  0  0  0
   -2.1899    5.7699    7.5675 C   0  0  0  0  0  0  0  0  0  0  0  0
   -2.5946    5.1001    6.5803 O   0  0  0  0  0  0  0  0  0  0  0  0
   -0.8031    6.0335    7.8731 C   0  0  0  0  0  0  0  0  0  0  0  0
    0.3311    5.4823    7.2713 C   0  0  0  0  0  0  0  0  0  0  0  0
    1.5876    5.8189    7.7856 C   0  0  0  0  0  0  0  0  0  0  0  0
    1.7012    6.6749    8.9019 C   0  0  0  0  0  0  0  0  0  0  0  0
    3.0578    7.0162    9.4393 C   0  0  0  0  0  0  0  0  0  0  0  0
    0.5378    7.2326    9.4798 C   0  0  0  0  0  0  0  0  0  0  0  0
   -0.7190    6.9120    8.9406 C   0  0  0  0  0  0  0  0  0  0  0  0
   -2.0942    7.3248    9.3539 C   0  0  0  0  0  0  0  0  0  0  0  0
   -2.4288    8.4180   10.0897 C   0  0  0  0  0  0  0  0  0  0  0  0
   -3.7848    8.8932   10.1968 C   0  0  0  0  0  0  0  0  0  0  0  0
   -4.8728    9.2805   10.2833 N   0  0  0  0  0  0  0  0  0  0  0  0
   -1.4481    9.2745   10.7039 C   0  0  0  0  0  0  0  0  0  0  0  0
   -0.6685    9.9749   11.2004 N   0  0  0  0  0  0  0  0  0  0  0  0
    4.1082   -1.6110  -12.2754 H   0  0  0  0  0  0  0  0  0  0  0  0
    3.6684   -6.5856  -14.3121 H   0  0  0  0  0  0  0  0  0  0  0  0
    3.6372   -8.8458  -13.2800 H   0  0  0  0  0  0  0  0  0  0  0  0
    3.9100  -10.1878  -11.2500 H   0  0  0  0  0  0  0  0  0  0  0  0
    3.8191   -9.4273   -9.6326 H   0  0  0  0  0  0  0  0  0  0  0  0
    2.2982   -9.8393  -10.5139 H   0  0  0  0  0  0  0  0  0  0  0  0
    3.0157   -7.0809   -9.3917 H   0  0  0  0  0  0  0  0  0  0  0  0
    2.9957   -0.0559   -9.7270 H   0  0  0  0  0  0  0  0  0  0  0  0
    3.8355    2.3637   -8.4185 H   0  0  0  0  0  0  0  0  0  0  0  0
    2.0600    4.0509   -8.7223 H   0  0  0  0  0  0  0  0  0  0  0  0
   -0.1546    3.7404   -7.6542 H   0  0  0  0  0  0  0  0  0  0  0  0
   -3.0958    1.1486   -7.4411 H   0  0  0  0  0  0  0  0  0  0  0  0
   -1.5515    1.1046   -8.3543 H   0  0  0  0  0  0  0  0  0  0  0  0
   -2.4866   -1.1849   -8.0703 H   0  0  0  0  0  0  0  0  0  0  0  0
   -0.9381   -1.0402   -7.1520 H   0  0  0  0  0  0  0  0  0  0  0  0
   -2.5260   -0.9704   -6.2805 H   0  0  0  0  0  0  0  0  0  0  0  0
    1.1536   -0.0092   -6.0175 H   0  0  0  0  0  0  0  0  0  0  0  0
    5.5659   -4.3565   -5.3764 H   0  0  0  0  0  0  0  0  0  0  0  0
    7.3701   -6.0353   -5.1229 H   0  0  0  0  0  0  0  0  0  0  0  0
    9.6523   -5.5342   -5.9078 H   0  0  0  0  0  0  0  0  0  0  0  0
   12.5980   -2.6810   -5.7553 H   0  0  0  0  0  0  0  0  0  0  0  0
   11.1058   -3.0789   -4.8385 H   0  0  0  0  0  0  0  0  0  0  0  0
   10.1002   -0.8861   -5.5342 H   0  0  0  0  0  0  0  0  0  0  0  0
   11.7027   -0.6368   -4.7382 H   0  0  0  0  0  0  0  0  0  0  0  0
   11.5752   -0.5330   -6.5392 H   0  0  0  0  0  0  0  0  0  0  0  0
    8.3518   -1.6564   -7.2413 H   0  0  0  0  0  0  0  0  0  0  0  0
    5.9765   -2.2811   -3.7056 H   0  0  0  0  0  0  0  0  0  0  0  0
    2.7512   -4.1424   -3.0959 H   0  0  0  0  0  0  0  0  0  0  0  0
    3.6295   -6.2798   -3.9774 H   0  0  0  0  0  0  0  0  0  0  0  0
    5.8687   -7.0806   -3.3226 H   0  0  0  0  0  0  0  0  0  0  0  0
    8.3850   -4.9550   -1.6645 H   0  0  0  0  0  0  0  0  0  0  0  0
    8.0904   -6.5295   -2.4558 H   0  0  0  0  0  0  0  0  0  0  0  0
    7.2421   -5.8167    0.4330 H   0  0  0  0  0  0  0  0  0  0  0  0
    8.6925   -6.7798   -0.0324 H   0  0  0  0  0  0  0  0  0  0  0  0
    7.0440   -7.4262   -0.3765 H   0  0  0  0  0  0  0  0  0  0  0  0
    6.4167   -3.5492   -0.9093 H   0  0  0  0  0  0  0  0  0  0  0  0
   -7.8564    1.4144    7.2931 H   0  0  0  0  0  0  0  0  0  0  0  0
   -9.1827    0.6700    9.2193 H   0  0  0  0  0  0  0  0  0  0  0  0
   -8.3417   -1.0983   10.7137 H   0  0  0  0  0  0  0  0  0  0  0  0
   -6.3670   -2.3006   11.5875 H   0  0  0  0  0  0  0  0  0  0  0  0
   -4.8647   -2.4258   10.6191 H   0  0  0  0  0  0  0  0  0  0  0  0
   -7.5384   -3.8360    9.9622 H   0  0  0  0  0  0  0  0  0  0  0  0
   -5.9842   -4.0038    9.0293 H   0  0  0  0  0  0  0  0  0  0  0  0
   -6.1081   -4.6017   10.7326 H   0  0  0  0  0  0  0  0  0  0  0  0
   -4.7200   -1.3440    8.4097 H   0  0  0  0  0  0  0  0  0  0  0  0
    0.1489    1.2104    2.4957 H   0  0  0  0  0  0  0  0  0  0  0  0
    1.0271    1.3144    0.9271 H   0  0  0  0  0  0  0  0  0  0  0  0
    2.4201    1.9699    2.8911 H   0  0  0  0  0  0  0  0  0  0  0  0
    3.0918    0.4675    2.1621 H   0  0  0  0  0  0  0  0  0  0  0  0
    2.1117    0.3802    3.6714 H   0  0  0  0  0  0  0  0  0  0  0  0
   -2.2668    1.9321    2.4044 H   0  0  0  0  0  0  0  0  0  0  0  0
   -1.5708    0.7888    1.1942 H   0  0  0  0  0  0  0  0  0  0  0  0
   -4.5166    0.9740    1.9683 H   0  0  0  0  0  0  0  0  0  0  0  0
   -3.7979   -0.3443    0.9718 H   0  0  0  0  0  0  0  0  0  0  0  0
   -3.7324    1.3673    0.3969 H   0  0  0  0  0  0  0  0  0  0  0  0
   -6.7590    9.5306    5.6570 H   0  0  0  0  0  0  0  0  0  0  0  0
   -8.0099   10.0256    4.4857 H   0  0  0  0  0  0  0  0  0  0  0  0
   -8.4810   10.6663    6.9284 H   0  0  0  0  0  0  0  0  0  0  0  0
   -9.8084    9.7695    6.0920 H   0  0  0  0  0  0  0  0  0  0  0  0
   -8.7361    8.9278    7.2800 H   0  0  0  0  0  0  0  0  0  0  0  0
   -9.7377    5.2909    1.9379 H   0  0  0  0  0  0  0  0  0  0  0  0
   -8.6176    4.0297    2.5099 H   0  0  0  0  0  0  0  0  0  0  0  0
  -10.1679    3.5804    4.4713 H   0  0  0  0  0  0  0  0  0  0  0  0
  -10.9917    3.3708    2.8844 H   0  0  0  0  0  0  0  0  0  0  0  0
  -11.2787    4.8669    3.8592 H   0  0  0  0  0  0  0  0  0  0  0  0
   -4.8294    6.6699    9.6571 H   0  0  0  0  0  0  0  0  0  0  0  0
    0.2430    4.7988    6.4352 H   0  0  0  0  0  0  0  0  0  0  0  0
    2.4756    5.3987    7.3303 H   0  0  0  0  0  0  0  0  0  0  0  0
    3.7218    6.1280    9.3982 H   0  0  0  0  0  0  0  0  0  0  0  0
    3.5046    7.8305    8.8298 H   0  0  0  0  0  0  0  0  0  0  0  0
    2.9992    7.3494   10.4960 H   0  0  0  0  0  0  0  0  0  0  0  0
    0.6378    7.8660   10.3474 H   0  0  0  0  0  0  0  0  0  0  0  0
  1  2  2  3
  2  3  1  0
  3  4  2  0
  3  5  1  0
  5  6  2  0
  6  7  1  0
  7  8  2  0
  8  9  1  0
  8 10  1  0
 10 11  2  0
 11 12  1  0
 12 13  2  3
 13 14  1  0
 14 15  3  0
 13 16  1  0
 16 17  3  0
  1 18  1  0
 18 19  2  0
 19 20  1  0
 20 21  2  0
 21 22  1  0
 22 23  2  0
 23 24  1  0
 24 25  2  0
 25 26  1  0
 26 27  1  0
 27 28  1  0
 28 29  1  0
 26 30  2  0
 21 31  1  0
 31 32  2  0
 32 33  1  0
 33 34  1  0
 34 35  2  0
 35 36  1  0
 36 37  2  0
 37 38  1  0
 38 39  1  0
 39 40  1  0
 40 41  1  0
 38 42  2  0
 33 43  2  0
 43 44  1  0
 32 45  1  0
 45 46  2  0
 46 47  1  0
 46 48  1  0
 48 49  2  0
 49 50  1  0
 50 51  2  0
 51 52  1  0
 52 53  2  0
 53 54  1  0
 54 55  1  0
 55 56  1  0
 54 57  2  0
 49 58  1  0
 58 59  1  0
 59 60  1  0
 60 61  1  0
 61 62  1  0
 62 63  1  0
 63 64  2  0
 64 65  1  0
 65 66  1  0
 63 67  1  0
 67 68  1  0
 68 69  1  0
 69 70  1  0
 70 71  1  0
 71 72  1  0
 72 73  2  0
 73 74  1  0
 74 75  2  0
 75 76  1  0
 76 77  1  0
 77 78  1  0
 76 79  2  0
 71 80  2  0
 80 81  1  0
 81 82  1  0
 82 83  1  0
 83 84  1  0
 84 85  1  0
 85 86  1  0
 86 87  1  0
 87 88  1  0
 88 89  1  0
 89 90  1  0
 87 91  1  0
 91 92  1  0
 84 93  1  0
 93 94  1  0
 80 95  1  0
 95 96  1  0
 96 97  1  0
 97 98  2  0
 98 99  1  0
 99100  2  0
 99101  1  0
101102  2  0
102103  1  0
103104  1  0
102105  1  0
105106  1  0
106107  1  0
107108  1  0
106109  2  0
109110  1  0
110111  2  0
110112  1  0
 97113  1  0
113114  2  3
114115  1  0
115116  2  0
115117  1  0
117118  2  0
118119  1  0
119120  2  0
120121  1  0
120122  1  0
122123  2  0
123124  1  0
124125  2  3
125126  1  0
126127  3  0
125128  1  0
128129  3  0
 12  2  1  0
 44 18  1  0
 90 48  1  0
112 95  2  0
124114  1  0
 11  5  1  0
 43 20  1  0
 57 50  1  0
 89 58  2  0
112 98  1  0
123117  1  0
 30 22  1  0
 47 31  1  0
 88 60  2  0
109101  1  0
 42 34  1  0
 86 61  2  0
 66 62  2  0
 85 67  2  0
 83 68  2  0
 82 70  2  0
 79 72  1  0
  1130  1  0
  6131  1  0
  7132  1  0
  9133  1  0
  9134  1  0
  9135  1  0
 10136  1  0
 19137  1  0
 23138  1  0
 24139  1  0
 25140  1  0
 28141  1  0
 28142  1  0
 29143  1  0
 29144  1  0
 29145  1  0
 30146  1  0
 35147  1  0
 36148  1  0
 37149  1  0
 40150  1  0
 40151  1  0
 41152  1  0
 41153  1  0
 41154  1  0
 42155  1  0
 45156  1  0
 51157  1  0
 52158  1  0
 53159  1  0
 55160  1  0
 55161  1  0
 56162  1  0
 56163  1  0
 56164  1  0
 57165  1  0
 73166  1  0
 74167  1  0
 75168  1  0
 77169  1  0
 77170  1  0
 78171  1  0
 78172  1  0
 78173  1  0
 79174  1  0
 91175  1  0
 91176  1  0
 92177  1  0
 92178  1  0
 92179  1  0
 93180  1  0
 93181  1  0
 94182  1  0
 94183  1  0
 94184  1  0
103185  1  0
103186  1  0
104187  1  0
104188  1  0
104189  1  0
107190  1  0
107191  1  0
108192  1  0
108193  1  0
108194  1  0
113195  1  0
118196  1  0
119197  1  0
121198  1  0
121199  1  0
121200  1  0
122201  1  0
M  END

