
     RDKit          3D

197219  0  0  0  0  0  0  0  0999 V2000
   -1.9005    2.3735   -9.5797 C   0  0  0  0  0  0  0  0  0  0  0  0
   -2.8354    2.3578   -8.6020 C   0  0  0  0  0  0  0  0  0  0  0  0
   -2.6377    1.7795   -7.2491 C   0  0  0  0  0  0  0  0  0  0  0  0
   -1.5881    1.2567   -6.7979 O   0  0  0  0  0  0  0  0  0  0  0  0
   -3.7876    2.1255   -6.4574 C   0  0  0  0  0  0  0  0  0  0  0  0
   -4.1942    1.7693   -5.1811 C   0  0  0  0  0  0  0  0  0  0  0  0
   -5.7368    2.4319   -5.0179 S   0  0  0  0  0  0  0  0  0  0  0  0
   -5.8594    3.1659   -6.5382 C   0  0  0  0  0  0  0  0  0  0  0  0
   -4.6657    2.8803   -7.1948 C   0  0  0  0  0  0  0  0  0  0  0  0
   -4.1505    3.0972   -8.5697 C   0  0  0  0  0  0  0  0  0  0  0  0
   -4.7790    3.7861   -9.5525 C   0  0  0  0  0  0  0  0  0  0  0  0
   -4.3433    3.7711  -10.9192 C   0  0  0  0  0  0  0  0  0  0  0  0
   -4.0106    3.7539  -12.0275 N   0  0  0  0  0  0  0  0  0  0  0  0
   -5.9364    4.5996   -9.2862 C   0  0  0  0  0  0  0  0  0  0  0  0
   -6.8630    5.2640   -9.0757 N   0  0  0  0  0  0  0  0  0  0  0  0
   -0.5867    1.7234   -9.4362 C   0  0  0  0  0  0  0  0  0  0  0  0
    0.5570    2.5340   -9.3063 C   0  0  0  0  0  0  0  0  0  0  0  0
    1.7643    1.9340   -8.9553 C   0  0  0  0  0  0  0  0  0  0  0  0
    2.9696    2.5596   -8.4275 C   0  0  0  0  0  0  0  0  0  0  0  0
    3.2088    3.7968   -8.3785 O   0  0  0  0  0  0  0  0  0  0  0  0
    3.7703    1.4933   -7.8378 C   0  0  0  0  0  0  0  0  0  0  0  0
    3.1162    0.2906   -8.0442 C   0  0  0  0  0  0  0  0  0  0  0  0
    1.8550    0.5647   -8.7446 C   0  0  0  0  0  0  0  0  0  0  0  0
    0.7475   -0.2674   -8.9276 C   0  0  0  0  0  0  0  0  0  0  0  0
   -0.4747    0.3190   -9.2983 C   0  0  0  0  0  0  0  0  0  0  0  0
    3.5289   -0.8712   -7.3871 C   0  0  0  0  0  0  0  0  0  0  0  0
    4.5820   -0.7819   -6.4597 C   0  0  0  0  0  0  0  0  0  0  0  0
    5.1851    0.4674   -6.1733 C   0  0  0  0  0  0  0  0  0  0  0  0
    4.7990    1.6093   -6.9036 C   0  0  0  0  0  0  0  0  0  0  0  0
    5.9118    0.6593   -4.9071 C   0  0  0  0  0  0  0  0  0  0  0  0
    6.8851   -0.1786   -4.3235 C   0  0  0  0  0  0  0  0  0  0  0  0
    7.6051   -1.2543   -5.0129 C   0  0  0  0  0  0  0  0  0  0  0  0
    7.3628   -2.5949   -4.6899 C   0  0  0  0  0  0  0  0  0  0  0  0
    8.1219   -3.6048   -5.2900 C   0  0  0  0  0  0  0  0  0  0  0  0
    9.1443   -3.2782   -6.1844 C   0  0  0  0  0  0  0  0  0  0  0  0
    9.3985   -1.9365   -6.5116 C   0  0  0  0  0  0  0  0  0  0  0  0
   10.5495   -1.5699   -7.4127 C   0  0  0  0  0  0  0  0  0  0  0  0
   11.7462   -1.0826   -6.5974 C   0  0  0  0  0  0  0  0  0  0  0  0
    8.6147   -0.9270   -5.9322 C   0  0  0  0  0  0  0  0  0  0  0  0
    7.1254    0.1780   -2.9907 C   0  0  0  0  0  0  0  0  0  0  0  0
    7.9646   -0.5721   -1.7092 S   0  0  0  0  0  0  0  0  0  0  0  0
    7.3566    0.5594   -0.5935 C   0  0  0  0  0  0  0  0  0  0  0  0
    7.0993    0.5750    0.7525 C   0  0  0  0  0  0  0  0  0  0  0  0
    7.4194   -0.3769    1.7264 C   0  0  0  0  0  0  0  0  0  0  0  0
    6.7416   -0.3377    2.9789 C   0  0  0  0  0  0  0  0  0  0  0  0
    7.0213   -1.3270    3.8627 N   0  0  0  0  0  0  0  0  0  0  0  0
    8.1096   -2.1974    2.9710 S   0  0  0  0  0  0  0  0  0  0  0  0
    8.2588   -1.4158    1.5180 N   0  0  0  0  0  0  0  0  0  0  0  0
    5.8057    0.6713    3.2082 C   0  0  0  0  0  0  0  0  0  0  0  0
    4.8800    0.8125    4.2105 C   0  0  0  0  0  0  0  0  0  0  0  0
    4.1129   -0.2501    5.2921 S   0  0  0  0  0  0  0  0  0  0  0  0
    2.6533    0.6371    5.2527 C   0  0  0  0  0  0  0  0  0  0  0  0
    1.3416    0.1839    5.4667 C   0  0  0  0  0  0  0  0  0  0  0  0
    0.9090   -0.2057    6.8247 C   0  0  0  0  0  0  0  0  0  0  0  0
    1.4728   -1.3174    7.4663 C   0  0  0  0  0  0  0  0  0  0  0  0
    1.1147   -1.6189    8.7820 C   0  0  0  0  0  0  0  0  0  0  0  0
    0.2765   -0.7627    9.4988 C   0  0  0  0  0  0  0  0  0  0  0  0
   -0.2192    0.4050    8.9032 C   0  0  0  0  0  0  0  0  0  0  0  0
   -0.9847    1.4105    9.7222 C   0  0  0  0  0  0  0  0  0  0  0  0
   -2.4665    1.0642    9.8009 C   0  0  0  0  0  0  0  0  0  0  0  0
    0.0638    0.6547    7.5506 C   0  0  0  0  0  0  0  0  0  0  0  0
    0.4639    0.7347    4.5031 C   0  0  0  0  0  0  0  0  0  0  0  0
    1.3148    1.8635    3.5538 S   0  0  0  0  0  0  0  0  0  0  0  0
    2.7709    1.6435    4.3241 C   0  0  0  0  0  0  0  0  0  0  0  0
    4.0458    1.8001    3.8126 C   0  0  0  0  0  0  0  0  0  0  0  0
    4.4116    2.3906    2.6564 N   0  0  0  0  0  0  0  0  0  0  0  0
    5.4826    1.6417    2.2355 C   0  0  0  0  0  0  0  0  0  0  0  0
    6.0996    1.5565    0.9458 C   0  0  0  0  0  0  0  0  0  0  0  0
    5.7203    2.0853   -0.2704 N   0  0  0  0  0  0  0  0  0  0  0  0
    6.5110    1.4503   -1.1694 C   0  0  0  0  0  0  0  0  0  0  0  0
    6.3858    1.2386   -2.5368 C   0  0  0  0  0  0  0  0  0  0  0  0
    5.3711    1.7803   -3.7481 S   0  0  0  0  0  0  0  0  0  0  0  0
    4.5649    2.9087   -0.6422 C   0  0  0  0  0  0  0  0  0  0  0  0
    3.2625    2.1187   -0.5332 C   0  0  0  0  0  0  0  0  0  0  0  0
    4.1631    3.8324    2.4878 C   0  0  0  0  0  0  0  0  0  0  0  0
    5.4627    4.6399    2.4198 C   0  0  0  0  0  0  0  0  0  0  0  0
   -0.9560    0.4112    4.2310 C   0  0  0  0  0  0  0  0  0  0  0  0
   -1.7947   -0.6031    4.7738 C   0  0  0  0  0  0  0  0  0  0  0  0
   -1.3443   -1.8389    5.3878 N   0  0  0  0  0  0  0  0  0  0  0  0
   -0.2319   -2.5967    4.8315 C   0  0  0  0  0  0  0  0  0  0  0  0
    0.1713   -2.4364    3.4891 C   0  0  0  0  0  0  0  0  0  0  0  0
    1.2089   -3.2130    2.9580 C   0  0  0  0  0  0  0  0  0  0  0  0
    1.8360   -4.1858    3.7447 C   0  0  0  0  0  0  0  0  0  0  0  0
    2.9080   -5.0641    3.1659 C   0  0  0  0  0  0  0  0  0  0  0  0
    1.4148   -4.3803    5.0651 C   0  0  0  0  0  0  0  0  0  0  0  0
    0.4039   -3.5871    5.6078 C   0  0  0  0  0  0  0  0  0  0  0  0
   -2.2539   -2.5085    6.2870 C   0  0  0  0  0  0  0  0  0  0  0  0
   -2.8112   -1.8203    7.3767 C   0  0  0  0  0  0  0  0  0  0  0  0
   -3.7582   -2.4365    8.2015 C   0  0  0  0  0  0  0  0  0  0  0  0
   -4.1531   -3.7636    7.9554 C   0  0  0  0  0  0  0  0  0  0  0  0
   -5.2051   -4.4261    8.7933 C   0  0  0  0  0  0  0  0  0  0  0  0
   -3.5978   -4.4557    6.8704 C   0  0  0  0  0  0  0  0  0  0  0  0
   -2.6728   -3.8292    6.0316 C   0  0  0  0  0  0  0  0  0  0  0  0
   -3.1051   -0.4484    4.2852 C   0  0  0  0  0  0  0  0  0  0  0  0
   -4.5961   -1.1955    4.5555 S   0  0  0  0  0  0  0  0  0  0  0  0
   -5.4097   -0.2962    3.3634 C   0  0  0  0  0  0  0  0  0  0  0  0
   -4.4887    0.4976    2.6677 C   0  0  0  0  0  0  0  0  0  0  0  0
   -4.6411    0.8188    1.2727 N   0  0  0  0  0  0  0  0  0  0  0  0
   -5.2497    2.0665    0.8844 C   0  0  0  0  0  0  0  0  0  0  0  0
   -6.1234    2.1225   -0.2156 C   0  0  0  0  0  0  0  0  0  0  0  0
   -6.7820    3.3122   -0.5383 C   0  0  0  0  0  0  0  0  0  0  0  0
   -6.5977    4.4565    0.2475 C   0  0  0  0  0  0  0  0  0  0  0  0
   -7.2751    5.7423   -0.1205 C   0  0  0  0  0  0  0  0  0  0  0  0
   -5.6910    4.4188    1.3148 C   0  0  0  0  0  0  0  0  0  0  0  0
   -5.0226    3.2333    1.6310 C   0  0  0  0  0  0  0  0  0  0  0  0
   -4.2620   -0.1750    0.2867 C   0  0  0  0  0  0  0  0  0  0  0  0
   -3.5364    0.2001   -0.8566 C   0  0  0  0  0  0  0  0  0  0  0  0
   -3.1163   -0.7634   -1.7837 C   0  0  0  0  0  0  0  0  0  0  0  0
   -3.4310   -2.1194   -1.5885 C   0  0  0  0  0  0  0  0  0  0  0  0
   -2.9410   -3.1682   -2.5434 C   0  0  0  0  0  0  0  0  0  0  0  0
   -4.1525   -2.4967   -0.4496 C   0  0  0  0  0  0  0  0  0  0  0  0
   -4.5704   -1.5375    0.4724 C   0  0  0  0  0  0  0  0  0  0  0  0
   -3.2462    0.4509    3.2791 C   0  0  0  0  0  0  0  0  0  0  0  0
   -1.8159    1.2512    3.0190 S   0  0  0  0  0  0  0  0  0  0  0  0
   -6.8390   -0.3684    3.0412 C   0  0  0  0  0  0  0  0  0  0  0  0
   -7.5913    0.7475    2.9995 C   0  0  0  0  0  0  0  0  0  0  0  0
   -7.2345    2.0363    3.6390 C   0  0  0  0  0  0  0  0  0  0  0  0
   -6.2199    2.2815    4.3444 O   0  0  0  0  0  0  0  0  0  0  0  0
   -8.3070    2.9648    3.3850 C   0  0  0  0  0  0  0  0  0  0  0  0
   -8.5202    4.2819    3.7502 C   0  0  0  0  0  0  0  0  0  0  0  0
  -10.0637    4.6431    3.1643 S   0  0  0  0  0  0  0  0  0  0  0  0
  -10.4236    3.1468    2.4586 C   0  0  0  0  0  0  0  0  0  0  0  0
   -9.3085    2.3461    2.6817 C   0  0  0  0  0  0  0  0  0  0  0  0
   -8.9372    0.9424    2.3593 C   0  0  0  0  0  0  0  0  0  0  0  0
   -9.5635    0.1533    1.4509 C   0  0  0  0  0  0  0  0  0  0  0  0
   -9.0395   -1.1163    1.0264 C   0  0  0  0  0  0  0  0  0  0  0  0
   -8.6279   -2.1401    0.6740 N   0  0  0  0  0  0  0  0  0  0  0  0
  -10.7267    0.6046    0.7334 C   0  0  0  0  0  0  0  0  0  0  0  0
  -11.6467    0.9888    0.1376 N   0  0  0  0  0  0  0  0  0  0  0  0
   -2.0246    2.9743  -10.4657 H   0  0  0  0  0  0  0  0  0  0  0  0
   -3.6732    1.1416   -4.4708 H   0  0  0  0  0  0  0  0  0  0  0  0
   -6.7276    3.6616   -6.9344 H   0  0  0  0  0  0  0  0  0  0  0  0
    0.4788    3.6130   -9.3656 H   0  0  0  0  0  0  0  0  0  0  0  0
    0.8057   -1.3239   -8.7081 H   0  0  0  0  0  0  0  0  0  0  0  0
   -1.3485   -0.3104   -9.3964 H   0  0  0  0  0  0  0  0  0  0  0  0
    2.9824   -1.7939   -7.5072 H   0  0  0  0  0  0  0  0  0  0  0  0
    4.8303   -1.6579   -5.8701 H   0  0  0  0  0  0  0  0  0  0  0  0
    5.1885    2.5908   -6.6537 H   0  0  0  0  0  0  0  0  0  0  0  0
    6.5855   -2.8548   -3.9778 H   0  0  0  0  0  0  0  0  0  0  0  0
    7.9272   -4.6404   -5.0432 H   0  0  0  0  0  0  0  0  0  0  0  0
    9.7401   -4.0716   -6.6185 H   0  0  0  0  0  0  0  0  0  0  0  0
   10.8606   -2.4468   -8.0203 H   0  0  0  0  0  0  0  0  0  0  0  0
   10.2340   -0.7704   -8.1178 H   0  0  0  0  0  0  0  0  0  0  0  0
   12.5924   -0.8592   -7.2791 H   0  0  0  0  0  0  0  0  0  0  0  0
   11.4894   -0.1544   -6.0452 H   0  0  0  0  0  0  0  0  0  0  0  0
   12.0670   -1.8632   -5.8726 H   0  0  0  0  0  0  0  0  0  0  0  0
    8.8142    0.1143   -6.1629 H   0  0  0  0  0  0  0  0  0  0  0  0
    2.1781   -1.9523    6.9436 H   0  0  0  0  0  0  0  0  0  0  0  0
    1.5194   -2.5025    9.2571 H   0  0  0  0  0  0  0  0  0  0  0  0
    0.0490   -0.9895   10.5307 H   0  0  0  0  0  0  0  0  0  0  0  0
   -0.5644    1.4509   10.7523 H   0  0  0  0  0  0  0  0  0  0  0  0
   -0.8708    2.4295    9.2894 H   0  0  0  0  0  0  0  0  0  0  0  0
   -2.6033    0.0373   10.2065 H   0  0  0  0  0  0  0  0  0  0  0  0
   -2.9319    1.1394    8.7944 H   0  0  0  0  0  0  0  0  0  0  0  0
   -2.9774    1.7838   10.4735 H   0  0  0  0  0  0  0  0  0  0  0  0
   -0.3122    1.5597    7.0839 H   0  0  0  0  0  0  0  0  0  0  0  0
    4.6622    3.2645   -1.6832 H   0  0  0  0  0  0  0  0  0  0  0  0
    4.5600    3.8511   -0.0911 H   0  0  0  0  0  0  0  0  0  0  0  0
    2.4136    2.7483   -0.8734 H   0  0  0  0  0  0  0  0  0  0  0  0
    3.3196    1.2179   -1.1794 H   0  0  0  0  0  0  0  0  0  0  0  0
    3.0726    1.7969    0.5101 H   0  0  0  0  0  0  0  0  0  0  0  0
    3.4681    4.0280    1.6527 H   0  0  0  0  0  0  0  0  0  0  0  0
    3.6131    4.2223    3.3730 H   0  0  0  0  0  0  0  0  0  0  0  0
    6.0524    4.3985    1.5133 H   0  0  0  0  0  0  0  0  0  0  0  0
    5.2242    5.7238    2.4111 H   0  0  0  0  0  0  0  0  0  0  0  0
    6.0855    4.4184    3.3125 H   0  0  0  0  0  0  0  0  0  0  0  0
   -0.3249   -1.7396    2.8334 H   0  0  0  0  0  0  0  0  0  0  0  0
    1.5008   -3.0724    1.9239 H   0  0  0  0  0  0  0  0  0  0  0  0
    3.3281   -4.6234    2.2368 H   0  0  0  0  0  0  0  0  0  0  0  0
    2.4817   -6.0631    2.9312 H   0  0  0  0  0  0  0  0  0  0  0  0
    3.7361   -5.1855    3.8975 H   0  0  0  0  0  0  0  0  0  0  0  0
    1.8619   -5.1555    5.6693 H   0  0  0  0  0  0  0  0  0  0  0  0
    0.1085   -3.7595    6.6342 H   0  0  0  0  0  0  0  0  0  0  0  0
   -2.5375   -0.7932    7.5556 H   0  0  0  0  0  0  0  0  0  0  0  0
   -4.1998   -1.8746    9.0149 H   0  0  0  0  0  0  0  0  0  0  0  0
   -6.1091   -4.5999    8.1751 H   0  0  0  0  0  0  0  0  0  0  0  0
   -4.8276   -5.3994    9.1670 H   0  0  0  0  0  0  0  0  0  0  0  0
   -5.4874   -3.8001    9.6629 H   0  0  0  0  0  0  0  0  0  0  0  0
   -3.9015   -5.4723    6.6564 H   0  0  0  0  0  0  0  0  0  0  0  0
   -2.2917   -4.3708    5.1758 H   0  0  0  0  0  0  0  0  0  0  0  0
   -6.3099    1.2395   -0.8145 H   0  0  0  0  0  0  0  0  0  0  0  0
   -7.4486    3.3312   -1.3897 H   0  0  0  0  0  0  0  0  0  0  0  0
   -7.4031    6.3910    0.7740 H   0  0  0  0  0  0  0  0  0  0  0  0
   -8.2816    5.5426   -0.5460 H   0  0  0  0  0  0  0  0  0  0  0  0
   -6.6558    6.2735   -0.8793 H   0  0  0  0  0  0  0  0  0  0  0  0
   -5.5116    5.2992    1.9142 H   0  0  0  0  0  0  0  0  0  0  0  0
   -4.3403    3.2209    2.4721 H   0  0  0  0  0  0  0  0  0  0  0  0
   -3.2757    1.2358   -1.0196 H   0  0  0  0  0  0  0  0  0  0  0  0
   -2.5392   -0.4544   -2.6474 H   0  0  0  0  0  0  0  0  0  0  0  0
   -2.7561   -2.7391   -3.5494 H   0  0  0  0  0  0  0  0  0  0  0  0
   -1.9975   -3.6014   -2.1561 H   0  0  0  0  0  0  0  0  0  0  0  0
   -3.6920   -3.9815   -2.6474 H   0  0  0  0  0  0  0  0  0  0  0  0
   -4.3944   -3.5371   -0.2738 H   0  0  0  0  0  0  0  0  0  0  0  0
   -5.1395   -1.8735    1.3249 H   0  0  0  0  0  0  0  0  0  0  0  0
   -7.2437   -1.3300    2.7779 H   0  0  0  0  0  0  0  0  0  0  0  0
   -7.8529    4.9263    4.3028 H   0  0  0  0  0  0  0  0  0  0  0  0
  -11.3483    2.8763    1.9787 H   0  0  0  0  0  0  0  0  0  0  0  0
  1  2  2  3
  2  3  1  0
  3  4  2  0
  3  5  1  0
  5  6  2  0
  6  7  1  0
  7  8  1  0
  8  9  2  0
  9 10  1  0
 10 11  2  3
 11 12  1  0
 12 13  3  0
 11 14  1  0
 14 15  3  0
  1 16  1  0
 16 17  2  0
 17 18  1  0
 18 19  1  0
 19 20  2  0
 19 21  1  0
 21 22  2  0
 22 23  1  0
 23 24  1  0
 24 25  2  0
 22 26  1  0
 26 27  2  0
 27 28  1  0
 28 29  2  0
 28 30  1  0
 30 31  2  0
 31 32  1  0
 32 33  2  0
 33 34  1  0
 34 35  2  0
 35 36  1  0
 36 37  1  0
 37 38  1  0
 36 39  2  0
 31 40  1  0
 40 41  1  0
 41 42  1  0
 42 43  1  0
 43 44  1  0
 44 45  1  0
 45 46  2  0
 46 47  1  0
 47 48  1  0
 45 49  1  0
 49 50  1  0
 50 51  1  0
 51 52  1  0
 52 53  1  0
 53 54  1  0
 54 55  2  0
 55 56  1  0
 56 57  2  0
 57 58  1  0
 58 59  1  0
 59 60  1  0
 58 61  2  0
 53 62  2  0
 62 63  1  0
 63 64  1  0
 64 65  1  0
 65 66  1  0
 66 67  1  0
 67 68  1  0
 68 69  1  0
 69 70  1  0
 70 71  1  0
 71 72  1  0
 69 73  1  0
 73 74  1  0
 66 75  1  0
 75 76  1  0
 62 77  1  0
 77 78  2  0
 78 79  1  0
 79 80  1  0
 80 81  2  0
 81 82  1  0
 82 83  2  0
 83 84  1  0
 83 85  1  0
 85 86  2  0
 79 87  1  0
 87 88  2  0
 88 89  1  0
 89 90  2  0
 90 91  1  0
 90 92  1  0
 92 93  2  0
 78 94  1  0
 94 95  1  0
 95 96  1  0
 96 97  2  0
 97 98  1  0
 98 99  1  0
 99100  2  0
100101  1  0
101102  2  0
102103  1  0
102104  1  0
104105  2  0
 98106  1  0
106107  2  0
107108  1  0
108109  2  0
109110  1  0
109111  1  0
111112  2  0
 97113  1  0
113114  1  0
 96115  1  0
115116  2  3
116117  1  0
117118  2  0
117119  1  0
119120  2  0
120121  1  0
121122  1  0
122123  2  0
123124  1  0
124125  2  3
125126  1  0
126127  3  0
125128  1  0
128129  3  0
 10  2  1  0
 25 16  1  0
 72 30  1  0
114 77  1  0
124116  1  0
  9  5  1  0
 23 18  2  0
 39 32  1  0
 71 40  2  0
 86 80  1  0
 93 87  1  0
113 94  2  0
123119  1  0
 29 21  1  0
 70 42  2  0
105 99  1  0
112106  1  0
 68 43  2  0
 48 44  2  0
 67 49  2  0
 65 50  2  0
 64 52  2  0
 61 54  1  0
  1130  1  0
  6131  1  0
  8132  1  0
 17133  1  0
 24134  1  0
 25135  1  0
 26136  1  0
 27137  1  0
 29138  1  0
 33139  1  0
 34140  1  0
 35141  1  0
 37142  1  0
 37143  1  0
 38144  1  0
 38145  1  0
 38146  1  0
 39147  1  0
 55148  1  0
 56149  1  0
 57150  1  0
 59151  1  0
 59152  1  0
 60153  1  0
 60154  1  0
 60155  1  0
 61156  1  0
 73157  1  0
 73158  1  0
 74159  1  0
 74160  1  0
 74161  1  0
 75162  1  0
 75163  1  0
 76164  1  0
 76165  1  0
 76166  1  0
 81167  1  0
 82168  1  0
 84169  1  0
 84170  1  0
 84171  1  0
 85172  1  0
 86173  1  0
 88174  1  0
 89175  1  0
 91176  1  0
 91177  1  0
 91178  1  0
 92179  1  0
 93180  1  0
100181  1  0
101182  1  0
103183  1  0
103184  1  0
103185  1  0
104186  1  0
105187  1  0
107188  1  0
108189  1  0
110190  1  0
110191  1  0
110192  1  0
111193  1  0
112194  1  0
115195  1  0
120196  1  0
122197  1  0
M  END

