
     RDKit          3D

150167  0  0  0  0  0  0  0  0999 V2000
   -1.4102   -6.8431   -9.3073 C   0  0  0  0  0  0  0  0  0  0  0  0
   -0.0728   -7.0176   -9.3590 C   0  0  0  0  0  0  0  0  0  0  0  0
    0.9500   -5.9623   -9.1830 C   0  0  0  0  0  0  0  0  0  0  0  0
    0.7937   -4.7227   -9.3414 O   0  0  0  0  0  0  0  0  0  0  0  0
    2.2141   -6.6148   -8.9458 C   0  0  0  0  0  0  0  0  0  0  0  0
    3.4931   -6.1475   -8.6985 C   0  0  0  0  0  0  0  0  0  0  0  0
    4.4496   -7.5356   -8.5700 S   0  0  0  0  0  0  0  0  0  0  0  0
    3.2431   -8.6948   -8.8280 C   0  0  0  0  0  0  0  0  0  0  0  0
    2.0637   -7.9798   -9.0225 C   0  0  0  0  0  0  0  0  0  0  0  0
    0.6641   -8.3331   -9.3613 C   0  0  0  0  0  0  0  0  0  0  0  0
    0.2001   -9.5725   -9.6618 C   0  0  0  0  0  0  0  0  0  0  0  0
   -1.0982   -9.8004  -10.2380 C   0  0  0  0  0  0  0  0  0  0  0  0
   -2.1354   -9.9968  -10.7174 N   0  0  0  0  0  0  0  0  0  0  0  0
    1.0095  -10.7511   -9.4899 C   0  0  0  0  0  0  0  0  0  0  0  0
    1.6471  -11.7087   -9.3485 N   0  0  0  0  0  0  0  0  0  0  0  0
   -2.0958   -5.6105   -8.8749 C   0  0  0  0  0  0  0  0  0  0  0  0
   -3.4452   -5.3523   -9.1127 C   0  0  0  0  0  0  0  0  0  0  0  0
   -3.9995   -4.3855   -8.3303 N   0  0  0  0  0  0  0  0  0  0  0  0
   -3.0989   -3.8441   -7.4817 C   0  0  0  0  0  0  0  0  0  0  0  0
   -1.6088   -4.6021   -7.6153 S   0  0  0  0  0  0  0  0  0  0  0  0
   -3.4714   -3.0200   -6.3370 C   0  0  0  0  0  0  0  0  0  0  0  0
   -3.8613   -3.5652   -5.1128 C   0  0  0  0  0  0  0  0  0  0  0  0
   -3.7419   -2.6367   -4.0879 C   0  0  0  0  0  0  0  0  0  0  0  0
   -3.5624   -2.8736   -2.4272 S   0  0  0  0  0  0  0  0  0  0  0  0
   -2.9650   -1.3042   -2.2021 C   0  0  0  0  0  0  0  0  0  0  0  0
   -1.9608   -0.8229   -1.2981 C   0  0  0  0  0  0  0  0  0  0  0  0
   -1.2531    0.1807   -1.9163 C   0  0  0  0  0  0  0  0  0  0  0  0
   -1.7578    0.4771   -3.3179 C   0  0  0  0  0  0  0  0  0  0  0  0
   -2.8229   -0.6196   -3.3990 C   0  0  0  0  0  0  0  0  0  0  0  0
   -3.2778   -1.4026   -4.4632 C   0  0  0  0  0  0  0  0  0  0  0  0
   -2.9452   -1.4171   -6.1125 S   0  0  0  0  0  0  0  0  0  0  0  0
   -2.3292    1.9028   -3.3195 C   0  0  0  0  0  0  0  0  0  0  0  0
   -1.4435    2.9981   -3.2793 C   0  0  0  0  0  0  0  0  0  0  0  0
   -1.9181    4.3070   -3.2267 C   0  0  0  0  0  0  0  0  0  0  0  0
   -3.2937    4.5609   -3.1926 C   0  0  0  0  0  0  0  0  0  0  0  0
   -3.8057    5.9763   -3.1526 C   0  0  0  0  0  0  0  0  0  0  0  0
   -4.0804    6.4904   -4.5623 C   0  0  0  0  0  0  0  0  0  0  0  0
   -4.1886    3.4836   -3.2439 C   0  0  0  0  0  0  0  0  0  0  0  0
   -3.7139    2.1691   -3.2979 C   0  0  0  0  0  0  0  0  0  0  0  0
   -0.6799    0.2371   -4.3866 C   0  0  0  0  0  0  0  0  0  0  0  0
    0.2434   -0.8228   -4.2543 C   0  0  0  0  0  0  0  0  0  0  0  0
    1.1949   -1.0733   -5.2477 C   0  0  0  0  0  0  0  0  0  0  0  0
    1.2191   -0.3013   -6.4152 C   0  0  0  0  0  0  0  0  0  0  0  0
    2.2522   -0.5491   -7.4817 C   0  0  0  0  0  0  0  0  0  0  0  0
    3.3595    0.4984   -7.4156 C   0  0  0  0  0  0  0  0  0  0  0  0
    0.2745    0.7223   -6.5800 C   0  0  0  0  0  0  0  0  0  0  0  0
   -0.6734    0.9761   -5.5857 C   0  0  0  0  0  0  0  0  0  0  0  0
   -0.0368    0.3970   -1.2796 C   0  0  0  0  0  0  0  0  0  0  0  0
    1.2174    1.5274   -1.4321 S   0  0  0  0  0  0  0  0  0  0  0  0
    2.0768    0.8124   -0.1558 C   0  0  0  0  0  0  0  0  0  0  0  0
    2.9933    1.3300    0.8243 C   0  0  0  0  0  0  0  0  0  0  0  0
    2.8670    0.5650    1.9667 C   0  0  0  0  0  0  0  0  0  0  0  0
    1.9042   -0.6070    1.7927 C   0  0  0  0  0  0  0  0  0  0  0  0
    0.7264   -0.5824    2.7774 C   0  0  0  0  0  0  0  0  0  0  0  0
    0.1706   -1.7697    3.2939 C   0  0  0  0  0  0  0  0  0  0  0  0
   -0.9260   -1.7298    4.1574 C   0  0  0  0  0  0  0  0  0  0  0  0
   -1.5119   -0.5053    4.5065 C   0  0  0  0  0  0  0  0  0  0  0  0
   -2.6517   -0.4653    5.4848 C   0  0  0  0  0  0  0  0  0  0  0  0
   -2.1325   -0.5816    6.9178 C   0  0  0  0  0  0  0  0  0  0  0  0
   -1.0032    0.6768    3.9581 C   0  0  0  0  0  0  0  0  0  0  0  0
    0.0830    0.6369    3.0815 C   0  0  0  0  0  0  0  0  0  0  0  0
    2.7523   -1.8814    1.8339 C   0  0  0  0  0  0  0  0  0  0  0  0
    3.3482   -2.2693    3.0519 C   0  0  0  0  0  0  0  0  0  0  0  0
    4.2582   -3.3286    3.0994 C   0  0  0  0  0  0  0  0  0  0  0  0
    4.6008   -4.0193    1.9271 C   0  0  0  0  0  0  0  0  0  0  0  0
    5.5933   -5.1533    1.9750 C   0  0  0  0  0  0  0  0  0  0  0  0
    4.8829   -6.4890    2.1694 C   0  0  0  0  0  0  0  0  0  0  0  0
    3.9828   -3.6727    0.7194 C   0  0  0  0  0  0  0  0  0  0  0  0
    3.0759   -2.6110    0.6669 C   0  0  0  0  0  0  0  0  0  0  0  0
    1.4020   -0.2522    0.4060 C   0  0  0  0  0  0  0  0  0  0  0  0
    0.1910   -0.4672   -0.2358 C   0  0  0  0  0  0  0  0  0  0  0  0
   -1.0945   -1.5505   -0.0285 S   0  0  0  0  0  0  0  0  0  0  0  0
    3.2719    1.2745    3.0908 C   0  0  0  0  0  0  0  0  0  0  0  0
    3.6500    2.5639    2.8257 C   0  0  0  0  0  0  0  0  0  0  0  0
    3.4769    2.9164    1.1794 S   0  0  0  0  0  0  0  0  0  0  0  0
    3.7092    3.4036    3.9351 C   0  0  0  0  0  0  0  0  0  0  0  0
    3.3441    2.7201    5.1062 C   0  0  0  0  0  0  0  0  0  0  0  0
    2.9478    1.1068    4.7290 S   0  0  0  0  0  0  0  0  0  0  0  0
    2.9544    3.3781    6.3574 C   0  0  0  0  0  0  0  0  0  0  0  0
    3.2805    4.6785    6.7294 C   0  0  0  0  0  0  0  0  0  0  0  0
    2.5455    5.1755    7.7574 N   0  0  0  0  0  0  0  0  0  0  0  0
    1.6476    4.2761    8.2181 C   0  0  0  0  0  0  0  0  0  0  0  0
    1.7212    2.8306    7.3680 S   0  0  0  0  0  0  0  0  0  0  0  0
    0.5733    4.6089    9.1569 C   0  0  0  0  0  0  0  0  0  0  0  0
   -0.3569    5.5469    8.8937 C   0  0  0  0  0  0  0  0  0  0  0  0
   -0.5620    6.1984    7.5903 C   0  0  0  0  0  0  0  0  0  0  0  0
    0.2137    6.1718    6.5985 O   0  0  0  0  0  0  0  0  0  0  0  0
   -1.8789    6.7930    7.5826 C   0  0  0  0  0  0  0  0  0  0  0  0
   -2.5338    7.4060    6.5143 C   0  0  0  0  0  0  0  0  0  0  0  0
   -3.8533    7.8335    6.6934 C   0  0  0  0  0  0  0  0  0  0  0  0
   -4.5083    7.6306    7.9269 C   0  0  0  0  0  0  0  0  0  0  0  0
   -5.9397    8.0407    8.0871 C   0  0  0  0  0  0  0  0  0  0  0  0
   -3.8345    6.9747    8.9792 C   0  0  0  0  0  0  0  0  0  0  0  0
   -2.4947    6.5860    8.8023 C   0  0  0  0  0  0  0  0  0  0  0  0
   -1.5540    5.8855    9.7236 C   0  0  0  0  0  0  0  0  0  0  0  0
   -1.6657    5.7673   11.0724 C   0  0  0  0  0  0  0  0  0  0  0  0
   -0.5853    5.2877   11.8958 C   0  0  0  0  0  0  0  0  0  0  0  0
    0.2783    4.9091   12.5706 N   0  0  0  0  0  0  0  0  0  0  0  0
   -2.8206    6.2252   11.8005 C   0  0  0  0  0  0  0  0  0  0  0  0
   -3.7397    6.5948   12.3996 N   0  0  0  0  0  0  0  0  0  0  0  0
   -2.0670   -7.6782   -9.4436 H   0  0  0  0  0  0  0  0  0  0  0  0
    3.8112   -5.1181   -8.6192 H   0  0  0  0  0  0  0  0  0  0  0  0
    3.3879   -9.7633   -8.8528 H   0  0  0  0  0  0  0  0  0  0  0  0
   -4.0377   -5.9278   -9.8118 H   0  0  0  0  0  0  0  0  0  0  0  0
   -4.0488   -4.6212   -4.9501 H   0  0  0  0  0  0  0  0  0  0  0  0
   -0.3750    2.8408   -3.3124 H   0  0  0  0  0  0  0  0  0  0  0  0
   -1.2089    5.1260   -3.2136 H   0  0  0  0  0  0  0  0  0  0  0  0
   -3.0584    6.6412   -2.6607 H   0  0  0  0  0  0  0  0  0  0  0  0
   -4.7381    6.0254   -2.5459 H   0  0  0  0  0  0  0  0  0  0  0  0
   -4.8420    5.8569   -5.0646 H   0  0  0  0  0  0  0  0  0  0  0  0
   -4.4584    7.5304   -4.5103 H   0  0  0  0  0  0  0  0  0  0  0  0
   -3.1436    6.4835   -5.1601 H   0  0  0  0  0  0  0  0  0  0  0  0
   -5.2565    3.6638   -3.2444 H   0  0  0  0  0  0  0  0  0  0  0  0
   -4.4428    1.3709   -3.3187 H   0  0  0  0  0  0  0  0  0  0  0  0
    0.2260   -1.4704   -3.3858 H   0  0  0  0  0  0  0  0  0  0  0  0
    1.9048   -1.8796   -5.1057 H   0  0  0  0  0  0  0  0  0  0  0  0
    1.7687   -0.5115   -8.4805 H   0  0  0  0  0  0  0  0  0  0  0  0
    2.6989   -1.5593   -7.3676 H   0  0  0  0  0  0  0  0  0  0  0  0
    4.0706    0.3428   -8.2542 H   0  0  0  0  0  0  0  0  0  0  0  0
    2.9343    1.5246   -7.4980 H   0  0  0  0  0  0  0  0  0  0  0  0
    3.9123    0.4149   -6.4566 H   0  0  0  0  0  0  0  0  0  0  0  0
    0.2629    1.3154   -7.4867 H   0  0  0  0  0  0  0  0  0  0  0  0
   -1.4113    1.7461   -5.7718 H   0  0  0  0  0  0  0  0  0  0  0  0
    0.5724   -2.7379    3.0267 H   0  0  0  0  0  0  0  0  0  0  0  0
   -1.3180   -2.6555    4.5609 H   0  0  0  0  0  0  0  0  0  0  0  0
   -3.3548   -1.3041    5.2806 H   0  0  0  0  0  0  0  0  0  0  0  0
   -3.2287    0.4830    5.3849 H   0  0  0  0  0  0  0  0  0  0  0  0
   -2.9856   -0.5378    7.6267 H   0  0  0  0  0  0  0  0  0  0  0  0
   -1.4311    0.2519    7.1437 H   0  0  0  0  0  0  0  0  0  0  0  0
   -1.6093   -1.5520    7.0611 H   0  0  0  0  0  0  0  0  0  0  0  0
   -1.4487    1.6323    4.1999 H   0  0  0  0  0  0  0  0  0  0  0  0
    0.4298    1.5652    2.6484 H   0  0  0  0  0  0  0  0  0  0  0  0
    3.1228   -1.7369    3.9664 H   0  0  0  0  0  0  0  0  0  0  0  0
    4.7115   -3.5943    4.0459 H   0  0  0  0  0  0  0  0  0  0  0  0
    6.3145   -4.9953    2.8066 H   0  0  0  0  0  0  0  0  0  0  0  0
    6.1791   -5.1832    1.0331 H   0  0  0  0  0  0  0  0  0  0  0  0
    5.6362   -7.3069    2.1993 H   0  0  0  0  0  0  0  0  0  0  0  0
    4.3192   -6.4895    3.1249 H   0  0  0  0  0  0  0  0  0  0  0  0
    4.1826   -6.6827    1.3313 H   0  0  0  0  0  0  0  0  0  0  0  0
    4.2184   -4.2113   -0.1909 H   0  0  0  0  0  0  0  0  0  0  0  0
    2.6539   -2.3517   -0.2931 H   0  0  0  0  0  0  0  0  0  0  0  0
    3.8346    4.4753    3.8671 H   0  0  0  0  0  0  0  0  0  0  0  0
    4.0144    5.2814    6.2108 H   0  0  0  0  0  0  0  0  0  0  0  0
    0.4711    3.9619   10.0119 H   0  0  0  0  0  0  0  0  0  0  0  0
   -2.0371    7.5379    5.5619 H   0  0  0  0  0  0  0  0  0  0  0  0
   -4.3738    8.3036    5.8668 H   0  0  0  0  0  0  0  0  0  0  0  0
   -6.1388    8.9801    7.5318 H   0  0  0  0  0  0  0  0  0  0  0  0
   -6.1828    8.2165    9.1568 H   0  0  0  0  0  0  0  0  0  0  0  0
   -6.5987    7.2386    7.6943 H   0  0  0  0  0  0  0  0  0  0  0  0
   -4.3723    6.7602    9.8851 H   0  0  0  0  0  0  0  0  0  0  0  0
  1  2  2  3
  2  3  1  0
  3  4  2  0
  3  5  1  0
  5  6  2  0
  6  7  1  0
  7  8  1  0
  8  9  2  0
  9 10  1  0
 10 11  2  3
 11 12  1  0
 12 13  3  0
 11 14  1  0
 14 15  3  0
  1 16  1  0
 16 17  2  0
 17 18  1  0
 18 19  2  0
 19 20  1  0
 19 21  1  0
 21 22  2  0
 22 23  1  0
 23 24  1  0
 24 25  1  0
 25 26  1  0
 26 27  2  0
 27 28  1  0
 28 29  1  0
 29 30  1  0
 30 31  1  0
 28 32  1  0
 32 33  2  0
 33 34  1  0
 34 35  2  0
 35 36  1  0
 36 37  1  0
 35 38  1  0
 38 39  2  0
 28 40  1  0
 40 41  2  0
 41 42  1  0
 42 43  2  0
 43 44  1  0
 44 45  1  0
 43 46  1  0
 46 47  2  0
 27 48  1  0
 48 49  1  0
 49 50  1  0
 50 51  1  0
 51 52  2  0
 52 53  1  0
 53 54  1  0
 54 55  2  0
 55 56  1  0
 56 57  2  0
 57 58  1  0
 58 59  1  0
 57 60  1  0
 60 61  2  0
 53 62  1  0
 62 63  2  0
 63 64  1  0
 64 65  2  0
 65 66  1  0
 66 67  1  0
 65 68  1  0
 68 69  2  0
 53 70  1  0
 70 71  1  0
 71 72  1  0
 52 73  1  0
 73 74  2  0
 74 75  1  0
 74 76  1  0
 76 77  2  0
 77 78  1  0
 77 79  1  0
 79 80  2  0
 80 81  1  0
 81 82  2  0
 82 83  1  0
 82 84  1  0
 84 85  2  3
 85 86  1  0
 86 87  2  0
 86 88  1  0
 88 89  2  0
 89 90  1  0
 90 91  2  0
 91 92  1  0
 91 93  1  0
 93 94  2  0
 94 95  1  0
 95 96  2  3
 96 97  1  0
 97 98  3  0
 96 99  1  0
 99100  3  0
 10  2  1  0
 20 16  1  0
 31 21  1  0
 39 32  1  0
 47 40  1  0
 71 48  2  0
 78 73  1  0
 83 79  1  0
 95 85  1  0
  9  5  1  0
 30 23  2  0
 70 50  2  0
 94 88  1  0
 29 25  2  0
 75 51  1  0
 72 26  1  0
 61 54  1  0
 69 62  1  0
  1101  1  0
  6102  1  0
  8103  1  0
 17104  1  0
 22105  1  0
 33106  1  0
 34107  1  0
 36108  1  0
 36109  1  0
 37110  1  0
 37111  1  0
 37112  1  0
 38113  1  0
 39114  1  0
 41115  1  0
 42116  1  0
 44117  1  0
 44118  1  0
 45119  1  0
 45120  1  0
 45121  1  0
 46122  1  0
 47123  1  0
 55124  1  0
 56125  1  0
 58126  1  0
 58127  1  0
 59128  1  0
 59129  1  0
 59130  1  0
 60131  1  0
 61132  1  0
 63133  1  0
 64134  1  0
 66135  1  0
 66136  1  0
 67137  1  0
 67138  1  0
 67139  1  0
 68140  1  0
 69141  1  0
 76142  1  0
 80143  1  0
 84144  1  0
 89145  1  0
 90146  1  0
 92147  1  0
 92148  1  0
 92149  1  0
 93150  1  0
M  END

