
     RDKit          3D

261288  0  0  0  0  0  0  0  0999 V2000
   -5.2499    6.1256    9.5440 C   0  0  0  0  0  0  0  0  0  0  0  0
   -4.8002    6.1009    8.0891 C   0  0  0  0  0  0  0  0  0  0  0  0
   -5.3941    4.9538    7.3860 N   0  0  0  0  0  0  0  0  0  0  0  0
   -4.7716    3.6561    7.4453 C   0  0  0  0  0  0  0  0  0  0  0  0
   -3.7955    3.4576    8.2191 O   0  0  0  0  0  0  0  0  0  0  0  0
   -5.2609    2.5676    6.5683 C   0  0  0  0  0  0  0  0  0  0  0  0
   -4.6028    1.3279    6.5451 C   0  0  0  0  0  0  0  0  0  0  0  0
   -4.9770    0.3429    5.6350 C   0  0  0  0  0  0  0  0  0  0  0  0
   -6.0244    0.5651    4.7335 C   0  0  0  0  0  0  0  0  0  0  0  0
   -6.7660    1.7703    4.8049 C   0  0  0  0  0  0  0  0  0  0  0  0
   -7.8862    1.9890    3.9803 C   0  0  0  0  0  0  0  0  0  0  0  0
   -8.5902    3.1866    4.0430 C   0  0  0  0  0  0  0  0  0  0  0  0
   -8.1834    4.1954    4.9109 C   0  0  0  0  0  0  0  0  0  0  0  0
   -7.0704    4.0093    5.7490 C   0  0  0  0  0  0  0  0  0  0  0  0
   -6.3688    2.7834    5.7176 C   0  0  0  0  0  0  0  0  0  0  0  0
   -6.6137    5.1026    6.6376 C   0  0  0  0  0  0  0  0  0  0  0  0
   -7.2912    6.1613    6.7358 O   0  0  0  0  0  0  0  0  0  0  0  0
   -6.1729   -0.3614    3.5971 C   0  0  0  0  0  0  0  0  0  0  0  0
   -6.2575   -1.7646    3.6321 C   0  0  0  0  0  0  0  0  0  0  0  0
   -6.4427   -2.5360    4.8368 N   0  0  0  0  0  0  0  0  0  0  0  0
   -5.7009   -3.7566    5.0235 C   0  0  0  0  0  0  0  0  0  0  0  0
   -4.3246   -3.7995    4.7482 C   0  0  0  0  0  0  0  0  0  0  0  0
   -3.6170   -4.9974    4.8667 C   0  0  0  0  0  0  0  0  0  0  0  0
   -4.2754   -6.1708    5.2686 C   0  0  0  0  0  0  0  0  0  0  0  0
   -3.5370   -7.4718    5.3622 C   0  0  0  0  0  0  0  0  0  0  0  0
   -5.6451   -6.1260    5.5636 C   0  0  0  0  0  0  0  0  0  0  0  0
   -6.3545   -4.9274    5.4407 C   0  0  0  0  0  0  0  0  0  0  0  0
   -7.3526   -2.0746    5.8608 C   0  0  0  0  0  0  0  0  0  0  0  0
   -8.5751   -1.4703    5.5153 C   0  0  0  0  0  0  0  0  0  0  0  0
   -9.4398   -1.0016    6.5081 C   0  0  0  0  0  0  0  0  0  0  0  0
   -9.0962   -1.1183    7.8622 C   0  0  0  0  0  0  0  0  0  0  0  0
  -10.0447   -0.6607    8.9288 C   0  0  0  0  0  0  0  0  0  0  0  0
   -7.8845   -1.7321    8.2119 C   0  0  0  0  0  0  0  0  0  0  0  0
   -7.0149   -2.1969    7.2212 C   0  0  0  0  0  0  0  0  0  0  0  0
   -6.1087   -2.3076    2.3453 C   0  0  0  0  0  0  0  0  0  0  0  0
   -5.9581   -3.8519    1.7142 S   0  0  0  0  0  0  0  0  0  0  0  0
   -5.6627   -3.3448    0.1101 C   0  0  0  0  0  0  0  0  0  0  0  0
   -5.6595   -1.9253    0.0638 C   0  0  0  0  0  0  0  0  0  0  0  0
   -5.4178   -1.0798   -1.0996 N   0  0  0  0  0  0  0  0  0  0  0  0
   -4.8568   -1.5361   -2.3410 C   0  0  0  0  0  0  0  0  0  0  0  0
   -3.5132   -1.9245   -2.4179 C   0  0  0  0  0  0  0  0  0  0  0  0
   -2.9185   -2.1587   -3.6642 C   0  0  0  0  0  0  0  0  0  0  0  0
   -3.6473   -1.9575   -4.8444 C   0  0  0  0  0  0  0  0  0  0  0  0
   -3.0072   -2.1370   -6.1843 C   0  0  0  0  0  0  0  0  0  0  0  0
   -4.9843   -1.5554   -4.7684 C   0  0  0  0  0  0  0  0  0  0  0  0
   -5.5785   -1.3335   -3.5271 C   0  0  0  0  0  0  0  0  0  0  0  0
   -5.7572    0.3158   -1.0525 C   0  0  0  0  0  0  0  0  0  0  0  0
   -7.0982    0.7229   -0.9947 C   0  0  0  0  0  0  0  0  0  0  0  0
   -7.4165    2.0801   -0.8761 C   0  0  0  0  0  0  0  0  0  0  0  0
   -6.3967    3.0443   -0.8189 C   0  0  0  0  0  0  0  0  0  0  0  0
   -6.7339    4.5004   -0.6960 C   0  0  0  0  0  0  0  0  0  0  0  0
   -5.0569    2.6378   -0.9266 C   0  0  0  0  0  0  0  0  0  0  0  0
   -4.7393    1.2811   -1.0418 C   0  0  0  0  0  0  0  0  0  0  0  0
   -5.9211   -1.4072    1.3446 C   0  0  0  0  0  0  0  0  0  0  0  0
   -5.8960    0.1345    2.0051 S   0  0  0  0  0  0  0  0  0  0  0  0
   -5.0637   -4.2552   -0.8758 C   0  0  0  0  0  0  0  0  0  0  0  0
   -5.6782   -4.8045   -2.0234 C   0  0  0  0  0  0  0  0  0  0  0  0
   -7.1294   -5.1381   -2.0426 C   0  0  0  0  0  0  0  0  0  0  0  0
   -7.6374   -5.8258   -0.9200 C   0  0  0  0  0  0  0  0  0  0  0  0
   -8.9559   -6.2732   -0.8878 C   0  0  0  0  0  0  0  0  0  0  0  0
   -9.7901   -6.0685   -1.9817 C   0  0  0  0  0  0  0  0  0  0  0  0
   -9.3133   -5.3929   -3.1030 C   0  0  0  0  0  0  0  0  0  0  0  0
   -7.9949   -4.8912   -3.1418 C   0  0  0  0  0  0  0  0  0  0  0  0
   -7.5695   -4.1093   -4.3626 C   0  0  0  0  0  0  0  0  0  0  0  0
   -8.4661   -2.8909   -4.5930 C   0  0  0  0  0  0  0  0  0  0  0  0
   -4.7301   -5.5410   -2.7630 C   0  0  0  0  0  0  0  0  0  0  0  0
   -4.5150   -5.6653   -4.4516 S   0  0  0  0  0  0  0  0  0  0  0  0
   -2.8522   -5.9951   -4.3227 C   0  0  0  0  0  0  0  0  0  0  0  0
   -1.7570   -5.5560   -5.0386 C   0  0  0  0  0  0  0  0  0  0  0  0
   -1.6155   -5.2284   -6.3927 C   0  0  0  0  0  0  0  0  0  0  0  0
   -0.4199   -4.5748   -6.8225 C   0  0  0  0  0  0  0  0  0  0  0  0
   -0.3351   -4.2500   -8.1359 N   0  0  0  0  0  0  0  0  0  0  0  0
   -1.7893   -4.8449   -8.6632 S   0  0  0  0  0  0  0  0  0  0  0  0
   -2.5529   -5.4825   -7.3402 N   0  0  0  0  0  0  0  0  0  0  0  0
    0.5430   -4.2347   -5.8649 C   0  0  0  0  0  0  0  0  0  0  0  0
    1.6249   -3.3950   -5.9412 C   0  0  0  0  0  0  0  0  0  0  0  0
    2.4261   -2.3694   -7.0499 S   0  0  0  0  0  0  0  0  0  0  0  0
    3.3991   -1.7091   -5.8069 C   0  0  0  0  0  0  0  0  0  0  0  0
    4.4440   -0.7700   -5.7462 C   0  0  0  0  0  0  0  0  0  0  0  0
    4.9842   -0.0231   -6.8942 C   0  0  0  0  0  0  0  0  0  0  0  0
    6.3038   -0.2300   -7.3669 C   0  0  0  0  0  0  0  0  0  0  0  0
    7.1638   -1.3738   -6.8743 C   0  0  0  0  0  0  0  0  0  0  0  0
    6.8580   -2.6495   -7.6543 C   0  0  0  0  0  0  0  0  0  0  0  0
    6.7927    0.5852   -8.4044 C   0  0  0  0  0  0  0  0  0  0  0  0
    5.9907    1.5845   -8.9595 C   0  0  0  0  0  0  0  0  0  0  0  0
    4.6856    1.7672   -8.5076 C   0  0  0  0  0  0  0  0  0  0  0  0
    4.1824    0.9670   -7.4811 C   0  0  0  0  0  0  0  0  0  0  0  0
    4.8998   -0.6288   -4.4200 C   0  0  0  0  0  0  0  0  0  0  0  0
    4.0157   -1.6422   -3.3867 S   0  0  0  0  0  0  0  0  0  0  0  0
    3.0626   -2.2621   -4.5973 C   0  0  0  0  0  0  0  0  0  0  0  0
    2.0586   -3.2066   -4.6759 C   0  0  0  0  0  0  0  0  0  0  0  0
    1.3281   -3.8691   -3.7449 N   0  0  0  0  0  0  0  0  0  0  0  0
    0.3959   -4.5505   -4.4968 C   0  0  0  0  0  0  0  0  0  0  0  0
   -0.7446   -5.3073   -4.0971 C   0  0  0  0  0  0  0  0  0  0  0  0
   -1.1591   -5.6793   -2.8482 N   0  0  0  0  0  0  0  0  0  0  0  0
   -2.4619   -5.9941   -3.0147 C   0  0  0  0  0  0  0  0  0  0  0  0
   -3.4999   -5.6742   -2.1555 C   0  0  0  0  0  0  0  0  0  0  0  0
   -3.4595   -4.7880   -0.7421 S   0  0  0  0  0  0  0  0  0  0  0  0
   -0.3798   -6.3078   -1.7670 C   0  0  0  0  0  0  0  0  0  0  0  0
    0.8140   -7.1115   -2.2970 C   0  0  0  0  0  0  0  0  0  0  0  0
    1.3863   -3.6020   -2.2995 C   0  0  0  0  0  0  0  0  0  0  0  0
    0.1922   -2.7818   -1.8269 C   0  0  0  0  0  0  0  0  0  0  0  0
    5.9948    0.1938   -3.8927 C   0  0  0  0  0  0  0  0  0  0  0  0
    5.8941    1.5718   -3.6251 C   0  0  0  0  0  0  0  0  0  0  0  0
    5.0714    2.4933   -4.3611 N   0  0  0  0  0  0  0  0  0  0  0  0
    3.8148    2.8804   -3.7773 C   0  0  0  0  0  0  0  0  0  0  0  0
    3.6842    4.1271   -3.1441 C   0  0  0  0  0  0  0  0  0  0  0  0
    2.4723    4.5024   -2.5588 C   0  0  0  0  0  0  0  0  0  0  0  0
    1.3586    3.6498   -2.6316 C   0  0  0  0  0  0  0  0  0  0  0  0
    0.0605    4.0325   -1.9874 C   0  0  0  0  0  0  0  0  0  0  0  0
    1.4856    2.4067   -3.2719 C   0  0  0  0  0  0  0  0  0  0  0  0
    2.7022    2.0290   -3.8476 C   0  0  0  0  0  0  0  0  0  0  0  0
    5.6581    3.2608   -5.4466 C   0  0  0  0  0  0  0  0  0  0  0  0
    7.0223    3.1166   -5.7841 C   0  0  0  0  0  0  0  0  0  0  0  0
    7.5866    3.8638   -6.8210 C   0  0  0  0  0  0  0  0  0  0  0  0
    6.8044    4.7603   -7.5563 C   0  0  0  0  0  0  0  0  0  0  0  0
    7.4208    5.5263   -8.6900 C   0  0  0  0  0  0  0  0  0  0  0  0
    5.4443    4.8943   -7.2511 C   0  0  0  0  0  0  0  0  0  0  0  0
    4.8761    4.1565   -6.2055 C   0  0  0  0  0  0  0  0  0  0  0  0
    6.6583    1.9412   -2.5133 C   0  0  0  0  0  0  0  0  0  0  0  0
    6.5233    3.2273   -1.4355 S   0  0  0  0  0  0  0  0  0  0  0  0
    7.3014    2.4081   -0.1589 C   0  0  0  0  0  0  0  0  0  0  0  0
    7.6892    1.1330   -0.5944 C   0  0  0  0  0  0  0  0  0  0  0  0
    8.0629    0.0607    0.2887 N   0  0  0  0  0  0  0  0  0  0  0  0
    9.3173   -0.6188    0.0881 C   0  0  0  0  0  0  0  0  0  0  0  0
   10.4525    0.0965   -0.3310 C   0  0  0  0  0  0  0  0  0  0  0  0
   11.6690   -0.5575   -0.5341 C   0  0  0  0  0  0  0  0  0  0  0  0
   11.7725   -1.9390   -0.3178 C   0  0  0  0  0  0  0  0  0  0  0  0
   13.0713   -2.6442   -0.5723 C   0  0  0  0  0  0  0  0  0  0  0  0
   10.6357   -2.6625    0.0735 C   0  0  0  0  0  0  0  0  0  0  0  0
    9.4197   -2.0065    0.2818 C   0  0  0  0  0  0  0  0  0  0  0  0
    7.1350   -0.3645    1.3049 C   0  0  0  0  0  0  0  0  0  0  0  0
    7.5669   -0.5474    2.6277 C   0  0  0  0  0  0  0  0  0  0  0  0
    6.6493   -0.8791    3.6302 C   0  0  0  0  0  0  0  0  0  0  0  0
    5.2873   -1.0200    3.3266 C   0  0  0  0  0  0  0  0  0  0  0  0
    4.3029   -1.3799    4.3979 C   0  0  0  0  0  0  0  0  0  0  0  0
    4.8617   -0.8796    1.9979 C   0  0  0  0  0  0  0  0  0  0  0  0
    5.7765   -0.5485    0.9963 C   0  0  0  0  0  0  0  0  0  0  0  0
    7.3337    0.9210   -1.9191 C   0  0  0  0  0  0  0  0  0  0  0  0
    7.0335   -0.4974   -2.7369 S   0  0  0  0  0  0  0  0  0  0  0  0
    7.2873    2.8107    1.2602 C   0  0  0  0  0  0  0  0  0  0  0  0
    8.5225    3.0118    1.8836 C   0  0  0  0  0  0  0  0  0  0  0  0
    8.6112    3.1496    3.2650 C   0  0  0  0  0  0  0  0  0  0  0  0
    7.4659    3.0627    4.0672 C   0  0  0  0  0  0  0  0  0  0  0  0
    7.5866    3.1095    5.5422 C   0  0  0  0  0  0  0  0  0  0  0  0
    8.7239    3.2332    6.0791 O   0  0  0  0  0  0  0  0  0  0  0  0
    6.4084    3.0097    6.3620 N   0  0  0  0  0  0  0  0  0  0  0  0
    6.5101    3.1097    7.8253 C   0  0  0  0  0  0  0  0  0  0  0  0
    6.5168    4.5726    8.2564 C   0  0  0  0  0  0  0  0  0  0  0  0
    5.1223    2.9069    5.7254 C   0  0  0  0  0  0  0  0  0  0  0  0
    4.0668    2.9308    6.4202 O   0  0  0  0  0  0  0  0  0  0  0  0
    5.0354    2.7809    4.2548 C   0  0  0  0  0  0  0  0  0  0  0  0
    3.7936    2.5502    3.6432 C   0  0  0  0  0  0  0  0  0  0  0  0
    3.7014    2.4246    2.2621 C   0  0  0  0  0  0  0  0  0  0  0  0
    4.8396    2.5278    1.4678 C   0  0  0  0  0  0  0  0  0  0  0  0
    6.1050    2.7626    2.0459 C   0  0  0  0  0  0  0  0  0  0  0  0
    6.2023    2.8821    3.4615 C   0  0  0  0  0  0  0  0  0  0  0  0
   -4.8909    5.2166   10.0683 H   0  0  0  0  0  0  0  0  0  0  0  0
   -6.3578    6.1726    9.6014 H   0  0  0  0  0  0  0  0  0  0  0  0
   -4.8305    7.0231   10.0444 H   0  0  0  0  0  0  0  0  0  0  0  0
   -3.6919    6.0463    8.0371 H   0  0  0  0  0  0  0  0  0  0  0  0
   -5.0928    7.0538    7.5961 H   0  0  0  0  0  0  0  0  0  0  0  0
   -3.7622    1.1359    7.2008 H   0  0  0  0  0  0  0  0  0  0  0  0
   -4.4001   -0.5727    5.5891 H   0  0  0  0  0  0  0  0  0  0  0  0
   -8.2325    1.2322    3.2898 H   0  0  0  0  0  0  0  0  0  0  0  0
   -9.4484    3.3378    3.3989 H   0  0  0  0  0  0  0  0  0  0  0  0
   -8.7301    5.1291    4.9200 H   0  0  0  0  0  0  0  0  0  0  0  0
   -3.8032   -2.9036    4.4355 H   0  0  0  0  0  0  0  0  0  0  0  0
   -2.5607   -5.0120    4.6321 H   0  0  0  0  0  0  0  0  0  0  0  0
   -4.0103   -8.2141    4.6855 H   0  0  0  0  0  0  0  0  0  0  0  0
   -3.5798   -7.8497    6.4041 H   0  0  0  0  0  0  0  0  0  0  0  0
   -2.4714   -7.3575    5.0695 H   0  0  0  0  0  0  0  0  0  0  0  0
   -6.1706   -7.0258    5.8624 H   0  0  0  0  0  0  0  0  0  0  0  0
   -7.4192   -4.9156    5.6432 H   0  0  0  0  0  0  0  0  0  0  0  0
   -8.8606   -1.3715    4.4774 H   0  0  0  0  0  0  0  0  0  0  0  0
  -10.3788   -0.5480    6.2192 H   0  0  0  0  0  0  0  0  0  0  0  0
  -10.6893   -1.5076    9.2386 H   0  0  0  0  0  0  0  0  0  0  0  0
  -10.6890    0.1654    8.5591 H   0  0  0  0  0  0  0  0  0  0  0  0
   -9.4864   -0.2874    9.8137 H   0  0  0  0  0  0  0  0  0  0  0  0
   -7.6075   -1.8461    9.2528 H   0  0  0  0  0  0  0  0  0  0  0  0
   -6.0703   -2.6441    7.5162 H   0  0  0  0  0  0  0  0  0  0  0  0
   -2.9186   -2.0008   -1.5162 H   0  0  0  0  0  0  0  0  0  0  0  0
   -1.8839   -2.4598   -3.7156 H   0  0  0  0  0  0  0  0  0  0  0  0
   -3.5051   -2.9710   -6.7214 H   0  0  0  0  0  0  0  0  0  0  0  0
   -3.1194   -1.2083   -6.7823 H   0  0  0  0  0  0  0  0  0  0  0  0
   -1.9231   -2.3529   -6.0893 H   0  0  0  0  0  0  0  0  0  0  0  0
   -5.5609   -1.3924   -5.6717 H   0  0  0  0  0  0  0  0  0  0  0  0
   -6.5937   -0.9634   -3.4864 H   0  0  0  0  0  0  0  0  0  0  0  0
   -7.8881   -0.0159   -1.0107 H   0  0  0  0  0  0  0  0  0  0  0  0
   -8.4552    2.3754   -0.8085 H   0  0  0  0  0  0  0  0  0  0  0  0
   -6.8348    4.9439   -1.7083 H   0  0  0  0  0  0  0  0  0  0  0  0
   -7.6860    4.6358   -0.1420 H   0  0  0  0  0  0  0  0  0  0  0  0
   -5.9360    5.0407   -0.1434 H   0  0  0  0  0  0  0  0  0  0  0  0
   -4.2546    3.3682   -0.8991 H   0  0  0  0  0  0  0  0  0  0  0  0
   -3.6991    0.9742   -1.0844 H   0  0  0  0  0  0  0  0  0  0  0  0
   -6.9980   -6.0558   -0.0771 H   0  0  0  0  0  0  0  0  0  0  0  0
   -9.3224   -6.8033   -0.0188 H   0  0  0  0  0  0  0  0  0  0  0  0
  -10.8088   -6.4306   -1.9592 H   0  0  0  0  0  0  0  0  0  0  0  0
   -9.9812   -5.2552   -3.9439 H   0  0  0  0  0  0  0  0  0  0  0  0
   -6.5295   -3.7572   -4.2645 H   0  0  0  0  0  0  0  0  0  0  0  0
   -7.6140   -4.7689   -5.2566 H   0  0  0  0  0  0  0  0  0  0  0  0
   -8.0196   -2.2436   -5.3780 H   0  0  0  0  0  0  0  0  0  0  0  0
   -8.5665   -2.3041   -3.6554 H   0  0  0  0  0  0  0  0  0  0  0  0
   -9.4731   -3.2017   -4.9390 H   0  0  0  0  0  0  0  0  0  0  0  0
    8.2414   -1.1235   -6.9919 H   0  0  0  0  0  0  0  0  0  0  0  0
    7.0069   -1.5653   -5.7971 H   0  0  0  0  0  0  0  0  0  0  0  0
    7.4584   -3.4856   -7.2394 H   0  0  0  0  0  0  0  0  0  0  0  0
    5.7809   -2.9088   -7.5693 H   0  0  0  0  0  0  0  0  0  0  0  0
    7.1254   -2.5138   -8.7233 H   0  0  0  0  0  0  0  0  0  0  0  0
    7.7968    0.4416   -8.7885 H   0  0  0  0  0  0  0  0  0  0  0  0
    6.3848    2.2196   -9.7416 H   0  0  0  0  0  0  0  0  0  0  0  0
    4.0697    2.5478   -8.9340 H   0  0  0  0  0  0  0  0  0  0  0  0
    3.1772    1.1433   -7.1180 H   0  0  0  0  0  0  0  0  0  0  0  0
   -1.0216   -7.0386   -1.2300 H   0  0  0  0  0  0  0  0  0  0  0  0
   -0.1066   -5.5704   -0.9924 H   0  0  0  0  0  0  0  0  0  0  0  0
    1.5185   -6.4846   -2.8737 H   0  0  0  0  0  0  0  0  0  0  0  0
    1.3702   -7.5539   -1.4449 H   0  0  0  0  0  0  0  0  0  0  0  0
    0.4502   -7.9356   -2.9487 H   0  0  0  0  0  0  0  0  0  0  0  0
    2.2818   -3.0186   -2.0484 H   0  0  0  0  0  0  0  0  0  0  0  0
    1.5411   -4.5244   -1.7266 H   0  0  0  0  0  0  0  0  0  0  0  0
    0.3453   -2.4638   -0.7750 H   0  0  0  0  0  0  0  0  0  0  0  0
   -0.7402   -3.3683   -1.8682 H   0  0  0  0  0  0  0  0  0  0  0  0
    0.0883   -1.8693   -2.4510 H   0  0  0  0  0  0  0  0  0  0  0  0
    4.5307    4.8011   -3.0922 H   0  0  0  0  0  0  0  0  0  0  0  0
    2.4000    5.4589   -2.0516 H   0  0  0  0  0  0  0  0  0  0  0  0
   -0.7917    3.7354   -2.6357 H   0  0  0  0  0  0  0  0  0  0  0  0
    0.0034    5.1294   -1.8239 H   0  0  0  0  0  0  0  0  0  0  0  0
   -0.0303    3.5174   -1.0082 H   0  0  0  0  0  0  0  0  0  0  0  0
    0.6392    1.7308   -3.3297 H   0  0  0  0  0  0  0  0  0  0  0  0
    2.7728    1.0765   -4.3530 H   0  0  0  0  0  0  0  0  0  0  0  0
    7.6644    2.4239   -5.2556 H   0  0  0  0  0  0  0  0  0  0  0  0
    8.6346    3.7327   -7.0578 H   0  0  0  0  0  0  0  0  0  0  0  0
    7.6056    4.8393   -9.5425 H   0  0  0  0  0  0  0  0  0  0  0  0
    6.7569    6.3502   -9.0280 H   0  0  0  0  0  0  0  0  0  0  0  0
    8.3865    5.9707   -8.3652 H   0  0  0  0  0  0  0  0  0  0  0  0
    4.8172    5.5654   -7.8249 H   0  0  0  0  0  0  0  0  0  0  0  0
    3.8197    4.2825   -6.0047 H   0  0  0  0  0  0  0  0  0  0  0  0
   10.3966    1.1659   -0.4921 H   0  0  0  0  0  0  0  0  0  0  0  0
   12.5307    0.0126   -0.8584 H   0  0  0  0  0  0  0  0  0  0  0  0
   13.1715   -2.8509   -1.6584 H   0  0  0  0  0  0  0  0  0  0  0  0
   13.1170   -3.6055   -0.0153 H   0  0  0  0  0  0  0  0  0  0  0  0
   13.9231   -2.0147   -0.2396 H   0  0  0  0  0  0  0  0  0  0  0  0
   10.6900   -3.7354    0.2184 H   0  0  0  0  0  0  0  0  0  0  0  0
    8.5531   -2.5861    0.5741 H   0  0  0  0  0  0  0  0  0  0  0  0
    8.6102   -0.4081    2.8832 H   0  0  0  0  0  0  0  0  0  0  0  0
    7.0022   -1.0092    4.6468 H   0  0  0  0  0  0  0  0  0  0  0  0
    4.6639   -1.0479    5.3947 H   0  0  0  0  0  0  0  0  0  0  0  0
    4.1590   -2.4803    4.4126 H   0  0  0  0  0  0  0  0  0  0  0  0
    3.3264   -0.8875    4.2059 H   0  0  0  0  0  0  0  0  0  0  0  0
    3.8186   -1.0075    1.7412 H   0  0  0  0  0  0  0  0  0  0  0  0
    5.4197   -0.4217   -0.0184 H   0  0  0  0  0  0  0  0  0  0  0  0
    9.4341    3.0202    1.2962 H   0  0  0  0  0  0  0  0  0  0  0  0
    9.5889    3.2810    3.7083 H   0  0  0  0  0  0  0  0  0  0  0  0
    7.4358    2.6093    8.1857 H   0  0  0  0  0  0  0  0  0  0  0  0
    5.6593    2.5859    8.3149 H   0  0  0  0  0  0  0  0  0  0  0  0
    5.6227    5.1003    7.8598 H   0  0  0  0  0  0  0  0  0  0  0  0
    6.5012    4.6354    9.3659 H   0  0  0  0  0  0  0  0  0  0  0  0
    7.4354    5.0766    7.8817 H   0  0  0  0  0  0  0  0  0  0  0  0
    2.8929    2.4522    4.2388 H   0  0  0  0  0  0  0  0  0  0  0  0
    2.7432    2.2254    1.8029 H   0  0  0  0  0  0  0  0  0  0  0  0
    4.7124    2.3906    0.4066 H   0  0  0  0  0  0  0  0  0  0  0  0
  1  2  1  0
  2  3  1  0
  3  4  1  0
  4  5  2  0
  4  6  1  0
  6  7  1  0
  7  8  2  0
  8  9  1  0
  9 10  2  0
 10 11  1  0
 11 12  2  0
 12 13  1  0
 13 14  2  0
 14 15  1  0
 14 16  1  0
 16 17  2  0
  9 18  1  0
 18 19  2  0
 19 20  1  0
 20 21  1  0
 21 22  2  0
 22 23  1  0
 23 24  2  0
 24 25  1  0
 24 26  1  0
 26 27  2  0
 20 28  1  0
 28 29  2  0
 29 30  1  0
 30 31  2  0
 31 32  1  0
 31 33  1  0
 33 34  2  0
 19 35  1  0
 35 36  1  0
 36 37  1  0
 37 38  2  0
 38 39  1  0
 39 40  1  0
 40 41  2  0
 41 42  1  0
 42 43  2  0
 43 44  1  0
 43 45  1  0
 45 46  2  0
 39 47  1  0
 47 48  2  0
 48 49  1  0
 49 50  2  0
 50 51  1  0
 50 52  1  0
 52 53  2  0
 38 54  1  0
 54 55  1  0
 37 56  1  0
 56 57  2  0
 57 58  1  0
 58 59  2  0
 59 60  1  0
 60 61  2  0
 61 62  1  0
 62 63  2  0
 63 64  1  0
 64 65  1  0
 57 66  1  0
 66 67  1  0
 67 68  1  0
 68 69  1  0
 69 70  1  0
 70 71  1  0
 71 72  2  0
 72 73  1  0
 73 74  1  0
 71 75  1  0
 75 76  1  0
 76 77  1  0
 77 78  1  0
 78 79  1  0
 79 80  1  0
 80 81  2  0
 81 82  1  0
 82 83  1  0
 81 84  1  0
 84 85  2  0
 85 86  1  0
 86 87  2  0
 79 88  2  0
 88 89  1  0
 89 90  1  0
 90 91  1  0
 91 92  1  0
 92 93  1  0
 93 94  1  0
 94 95  1  0
 95 96  1  0
 96 97  1  0
 97 98  1  0
 95 99  1  0
 99100  1  0
 92101  1  0
101102  1  0
 88103  1  0
103104  2  0
104105  1  0
105106  1  0
106107  2  0
107108  1  0
108109  2  0
109110  1  0
109111  1  0
111112  2  0
105113  1  0
113114  2  0
114115  1  0
115116  2  0
116117  1  0
116118  1  0
118119  2  0
104120  1  0
120121  1  0
121122  1  0
122123  2  0
123124  1  0
124125  1  0
125126  2  0
126127  1  0
127128  2  0
128129  1  0
128130  1  0
130131  2  0
124132  1  0
132133  2  0
133134  1  0
134135  2  0
135136  1  0
135137  1  0
137138  2  0
123139  1  0
139140  1  0
122141  1  0
141142  2  0
142143  1  0
143144  2  0
144145  1  0
145146  2  0
145147  1  0
147148  1  0
148149  1  0
147150  1  0
150151  2  0
150152  1  0
152153  1  0
153154  2  0
154155  1  0
155156  2  0
156157  1  0
 16  3  1  0
 55 18  1  0
 98 56  1  0
140103  1  0
156141  1  0
 15  6  2  0
 27 21  1  0
 34 28  1  0
 54 35  2  0
 63 58  1  0
 97 66  2  0
112106  1  0
119113  1  0
139120  2  0
157144  1  0
 15 10  1  0
 46 40  1  0
 53 47  1  0
 96 68  2  0
131125  1  0
138132  1  0
157152  2  0
 94 69  2  0
 74 70  2  0
 93 75  2  0
 91 76  2  0
 90 78  2  0
 87 80  1  0
  1158  1  0
  1159  1  0
  1160  1  0
  2161  1  0
  2162  1  0
  7163  1  0
  8164  1  0
 11165  1  0
 12166  1  0
 13167  1  0
 22168  1  0
 23169  1  0
 25170  1  0
 25171  1  0
 25172  1  0
 26173  1  0
 27174  1  0
 29175  1  0
 30176  1  0
 32177  1  0
 32178  1  0
 32179  1  0
 33180  1  0
 34181  1  0
 41182  1  0
 42183  1  0
 44184  1  0
 44185  1  0
 44186  1  0
 45187  1  0
 46188  1  0
 48189  1  0
 49190  1  0
 51191  1  0
 51192  1  0
 51193  1  0
 52194  1  0
 53195  1  0
 59196  1  0
 60197  1  0
 61198  1  0
 62199  1  0
 64200  1  0
 64201  1  0
 65202  1  0
 65203  1  0
 65204  1  0
 82205  1  0
 82206  1  0
 83207  1  0
 83208  1  0
 83209  1  0
 84210  1  0
 85211  1  0
 86212  1  0
 87213  1  0
 99214  1  0
 99215  1  0
100216  1  0
100217  1  0
100218  1  0
101219  1  0
101220  1  0
102221  1  0
102222  1  0
102223  1  0
107224  1  0
108225  1  0
110226  1  0
110227  1  0
110228  1  0
111229  1  0
112230  1  0
114231  1  0
115232  1  0
117233  1  0
117234  1  0
117235  1  0
118236  1  0
119237  1  0
126238  1  0
127239  1  0
129240  1  0
129241  1  0
129242  1  0
130243  1  0
131244  1  0
133245  1  0
134246  1  0
136247  1  0
136248  1  0
136249  1  0
137250  1  0
138251  1  0
142252  1  0
143253  1  0
148254  1  0
148255  1  0
149256  1  0
149257  1  0
149258  1  0
153259  1  0
154260  1  0
155261  1  0
M  END

