
     RDKit          3D

209229  0  0  0  0  0  0  0  0999 V2000
   -7.5327   -8.4826    5.2702 C   0  0  0  0  0  0  0  0  0  0  0  0
   -8.3225   -8.9997    4.3073 C   0  0  0  0  0  0  0  0  0  0  0  0
   -8.1256   -8.8740    2.8593 C   0  0  0  0  0  0  0  0  0  0  0  0
   -7.0259   -8.7224    2.2625 O   0  0  0  0  0  0  0  0  0  0  0  0
   -9.4207   -8.9759    2.2213 C   0  0  0  0  0  0  0  0  0  0  0  0
   -9.7531   -8.7076    0.8928 C   0  0  0  0  0  0  0  0  0  0  0  0
  -11.1071   -8.7325    0.5283 C   0  0  0  0  0  0  0  0  0  0  0  0
  -12.0957   -9.0063    1.4897 C   0  0  0  0  0  0  0  0  0  0  0  0
  -13.9410   -8.9727    0.9915 Br  0  0  0  0  0  0  0  0  0  0  0  0
  -11.7369   -9.2772    2.8216 C   0  0  0  0  0  0  0  0  0  0  0  0
  -10.3783   -9.2818    3.1705 C   0  0  0  0  0  0  0  0  0  0  0  0
   -9.7267   -9.4615    4.4969 C   0  0  0  0  0  0  0  0  0  0  0  0
  -10.2268  -10.1265    5.5682 C   0  0  0  0  0  0  0  0  0  0  0  0
  -11.5678  -10.6501    5.5959 C   0  0  0  0  0  0  0  0  0  0  0  0
  -12.6437  -11.0758    5.6312 N   0  0  0  0  0  0  0  0  0  0  0  0
   -9.4042  -10.4874    6.6922 C   0  0  0  0  0  0  0  0  0  0  0  0
   -8.7466  -10.7831    7.5973 N   0  0  0  0  0  0  0  0  0  0  0  0
   -6.3041   -7.6826    5.0407 C   0  0  0  0  0  0  0  0  0  0  0  0
   -6.2903   -6.5801    4.1521 C   0  0  0  0  0  0  0  0  0  0  0  0
   -7.4528   -6.1741    3.4828 O   0  0  0  0  0  0  0  0  0  0  0  0
   -8.5707   -5.5889    4.1514 C   0  0  0  0  0  0  0  0  0  0  0  0
   -8.2580   -4.1567    4.5642 C   0  0  0  0  0  0  0  0  0  0  0  0
   -5.1097   -5.8289    3.9817 C   0  0  0  0  0  0  0  0  0  0  0  0
   -4.9788   -4.8416    2.9906 O   0  0  0  0  0  0  0  0  0  0  0  0
   -5.6418   -4.8503    1.7304 C   0  0  0  0  0  0  0  0  0  0  0  0
   -4.8203   -4.0496    0.7345 C   0  0  0  0  0  0  0  0  0  0  0  0
   -4.0225   -6.0305    4.8484 C   0  0  0  0  0  0  0  0  0  0  0  0
   -4.0417   -7.0885    5.7630 C   0  0  0  0  0  0  0  0  0  0  0  0
   -5.1755   -7.9262    5.8478 C   0  0  0  0  0  0  0  0  0  0  0  0
   -5.1737   -8.9422    6.7566 N   0  0  0  0  0  0  0  0  0  0  0  0
   -4.1146   -9.1599    7.5780 C   0  0  0  0  0  0  0  0  0  0  0  0
   -2.9987   -8.3265    7.4952 C   0  0  0  0  0  0  0  0  0  0  0  0
   -2.9868   -7.3093    6.5949 N   0  0  0  0  0  0  0  0  0  0  0  0
   -2.9585   -5.0149    4.8776 C   0  0  0  0  0  0  0  0  0  0  0  0
   -3.2358   -3.6729    5.1556 C   0  0  0  0  0  0  0  0  0  0  0  0
   -2.2372   -2.8459    4.6832 C   0  0  0  0  0  0  0  0  0  0  0  0
   -2.2935   -1.2104    4.2768 S   0  0  0  0  0  0  0  0  0  0  0  0
   -0.8654   -1.3228    3.3676 C   0  0  0  0  0  0  0  0  0  0  0  0
   -0.3758   -0.5894    2.2215 C   0  0  0  0  0  0  0  0  0  0  0  0
    0.5036   -1.4297    1.5453 C   0  0  0  0  0  0  0  0  0  0  0  0
    0.6702   -2.7813    2.2506 C   0  0  0  0  0  0  0  0  0  0  0  0
    2.0681   -2.8403    2.9501 C   0  0  0  0  0  0  0  0  0  0  0  0
    3.2490   -2.5606    2.0454 C   0  0  0  0  0  0  0  0  0  0  0  0
    3.8387   -1.2827    2.0410 C   0  0  0  0  0  0  0  0  0  0  0  0
    4.9671   -1.0241    1.2583 C   0  0  0  0  0  0  0  0  0  0  0  0
    5.5206   -2.0340    0.4599 C   0  0  0  0  0  0  0  0  0  0  0  0
    6.7476   -1.7601   -0.3683 C   0  0  0  0  0  0  0  0  0  0  0  0
    6.3950   -0.9728   -1.6277 C   0  0  0  0  0  0  0  0  0  0  0  0
    4.9144   -3.3019    0.4358 C   0  0  0  0  0  0  0  0  0  0  0  0
    3.7943   -3.5655    1.2307 C   0  0  0  0  0  0  0  0  0  0  0  0
    0.3201   -3.9672    1.3343 C   0  0  0  0  0  0  0  0  0  0  0  0
   -0.6143   -3.8095    0.2848 C   0  0  0  0  0  0  0  0  0  0  0  0
   -0.9517   -4.8794   -0.5472 C   0  0  0  0  0  0  0  0  0  0  0  0
   -0.3786   -6.1417   -0.3452 C   0  0  0  0  0  0  0  0  0  0  0  0
   -0.7269   -7.2924   -1.2497 C   0  0  0  0  0  0  0  0  0  0  0  0
   -1.9746   -8.0202   -0.7574 C   0  0  0  0  0  0  0  0  0  0  0  0
    0.4892   -6.3326    0.7355 C   0  0  0  0  0  0  0  0  0  0  0  0
    0.8145   -5.2662    1.5794 C   0  0  0  0  0  0  0  0  0  0  0  0
   -0.3826   -2.6065    3.3233 C   0  0  0  0  0  0  0  0  0  0  0  0
   -1.1852   -3.4741    4.0697 C   0  0  0  0  0  0  0  0  0  0  0  0
   -1.4773   -5.1303    4.0293 S   0  0  0  0  0  0  0  0  0  0  0  0
    1.0649   -1.0351    0.3232 C   0  0  0  0  0  0  0  0  0  0  0  0
    0.6509    0.1760   -0.2528 C   0  0  0  0  0  0  0  0  0  0  0  0
    1.4239    0.8327   -1.3295 C   0  0  0  0  0  0  0  0  0  0  0  0
    0.8817    2.0016   -1.9084 C   0  0  0  0  0  0  0  0  0  0  0  0
   -0.6398    2.2080   -1.8241 C   0  0  0  0  0  0  0  0  0  0  0  0
   -0.8802    2.1096   -0.2924 C   0  0  0  0  0  0  0  0  0  0  0  0
   -0.3714    0.9503    0.3664 C   0  0  0  0  0  0  0  0  0  0  0  0
   -0.8016    0.6286    1.6740 C   0  0  0  0  0  0  0  0  0  0  0  0
   -1.5806    1.5552    2.3846 C   0  0  0  0  0  0  0  0  0  0  0  0
   -1.8886    2.7929    1.8152 C   0  0  0  0  0  0  0  0  0  0  0  0
   -1.5261    3.0805    0.4974 C   0  0  0  0  0  0  0  0  0  0  0  0
   -1.3441    1.0312   -2.5349 C   0  0  0  0  0  0  0  0  0  0  0  0
   -2.6056    0.5678   -2.0988 C   0  0  0  0  0  0  0  0  0  0  0  0
   -3.2819   -0.4349   -2.8019 C   0  0  0  0  0  0  0  0  0  0  0  0
   -2.7221   -0.9893   -3.9622 C   0  0  0  0  0  0  0  0  0  0  0  0
   -3.4685   -2.0380   -4.7466 C   0  0  0  0  0  0  0  0  0  0  0  0
   -4.2866   -1.3924   -5.8612 C   0  0  0  0  0  0  0  0  0  0  0  0
   -1.4877   -0.5206   -4.4196 C   0  0  0  0  0  0  0  0  0  0  0  0
   -0.8136    0.4843   -3.7252 C   0  0  0  0  0  0  0  0  0  0  0  0
   -1.1791    3.4493   -2.5693 C   0  0  0  0  0  0  0  0  0  0  0  0
   -2.4612    3.9760   -2.2854 C   0  0  0  0  0  0  0  0  0  0  0  0
   -2.9643    5.0731   -2.9901 C   0  0  0  0  0  0  0  0  0  0  0  0
   -2.2469    5.6075   -4.0705 C   0  0  0  0  0  0  0  0  0  0  0  0
   -2.7717    6.8024   -4.8168 C   0  0  0  0  0  0  0  0  0  0  0  0
   -3.6732    6.3813   -5.9715 C   0  0  0  0  0  0  0  0  0  0  0  0
   -1.0875    4.9570   -4.4993 C   0  0  0  0  0  0  0  0  0  0  0  0
   -0.5852    3.8690   -3.7829 C   0  0  0  0  0  0  0  0  0  0  0  0
    1.8981    2.9483   -2.1021 C   0  0  0  0  0  0  0  0  0  0  0  0
    3.1667    2.5051   -1.8690 C   0  0  0  0  0  0  0  0  0  0  0  0
    3.1233    0.9465   -1.2641 S   0  0  0  0  0  0  0  0  0  0  0  0
    4.1587    3.4802   -1.8330 C   0  0  0  0  0  0  0  0  0  0  0  0
    3.6091    4.7548   -2.0413 C   0  0  0  0  0  0  0  0  0  0  0  0
    1.9288    4.6215   -2.2091 S   0  0  0  0  0  0  0  0  0  0  0  0
    4.3279    6.0389   -1.9544 C   0  0  0  0  0  0  0  0  0  0  0  0
    5.2214    6.2998   -0.8910 C   0  0  0  0  0  0  0  0  0  0  0  0
    5.4289    5.3663    0.1291 O   0  0  0  0  0  0  0  0  0  0  0  0
    4.4484    5.0963    1.1275 C   0  0  0  0  0  0  0  0  0  0  0  0
    4.9151    3.9507    2.0049 C   0  0  0  0  0  0  0  0  0  0  0  0
    5.9326    7.5078   -0.8386 C   0  0  0  0  0  0  0  0  0  0  0  0
    6.7575    7.7502    0.2643 O   0  0  0  0  0  0  0  0  0  0  0  0
    6.5687    8.8796    1.1134 C   0  0  0  0  0  0  0  0  0  0  0  0
    7.6644    8.9234    2.1562 C   0  0  0  0  0  0  0  0  0  0  0  0
    5.8101    8.4461   -1.8844 C   0  0  0  0  0  0  0  0  0  0  0  0
    4.8479    8.2343   -2.8897 C   0  0  0  0  0  0  0  0  0  0  0  0
    4.1072    7.0343   -2.9253 C   0  0  0  0  0  0  0  0  0  0  0  0
    3.2244    6.8383   -3.9470 N   0  0  0  0  0  0  0  0  0  0  0  0
    3.0322    7.7693   -4.9165 C   0  0  0  0  0  0  0  0  0  0  0  0
    3.7628    8.9542   -4.8795 C   0  0  0  0  0  0  0  0  0  0  0  0
    4.6547    9.1566   -3.8753 N   0  0  0  0  0  0  0  0  0  0  0  0
    6.8182    9.5202   -2.0709 C   0  0  0  0  0  0  0  0  0  0  0  0
    7.9705    9.1951   -2.6808 C   0  0  0  0  0  0  0  0  0  0  0  0
    8.7999    8.1039   -2.1447 C   0  0  0  0  0  0  0  0  0  0  0  0
    9.2348    8.0441   -0.9656 O   0  0  0  0  0  0  0  0  0  0  0  0
    8.9997    7.0866   -3.1562 C   0  0  0  0  0  0  0  0  0  0  0  0
    9.4525    5.7796   -2.9821 C   0  0  0  0  0  0  0  0  0  0  0  0
    9.2779    4.8653   -4.0338 C   0  0  0  0  0  0  0  0  0  0  0  0
    9.6818    3.5294   -3.8924 C   0  0  0  0  0  0  0  0  0  0  0  0
    9.4211    2.6081   -4.9094 C   0  0  0  0  0  0  0  0  0  0  0  0
    8.7549    3.0069   -6.0723 C   0  0  0  0  0  0  0  0  0  0  0  0
    8.4945    2.1009   -7.0435 F   0  0  0  0  0  0  0  0  0  0  0  0
    8.3641    4.3394   -6.2368 C   0  0  0  0  0  0  0  0  0  0  0  0
    8.6237    5.2815   -5.2327 C   0  0  0  0  0  0  0  0  0  0  0  0
    8.2062    6.6193   -5.3809 C   0  0  0  0  0  0  0  0  0  0  0  0
    8.4363    7.5212   -4.3333 C   0  0  0  0  0  0  0  0  0  0  0  0
    7.9400    8.9030   -4.1427 C   0  0  0  0  0  0  0  0  0  0  0  0
    7.6321    9.7957   -5.1099 C   0  0  0  0  0  0  0  0  0  0  0  0
    7.7728    9.4907   -6.5106 C   0  0  0  0  0  0  0  0  0  0  0  0
    7.8903    9.2557   -7.6363 N   0  0  0  0  0  0  0  0  0  0  0  0
    7.2605   11.1510   -4.7801 C   0  0  0  0  0  0  0  0  0  0  0  0
    6.9585   12.2377   -4.5227 N   0  0  0  0  0  0  0  0  0  0  0  0
   -7.8408   -8.5537    6.3006 H   0  0  0  0  0  0  0  0  0  0  0  0
   -8.9917   -8.4509    0.1702 H   0  0  0  0  0  0  0  0  0  0  0  0
  -11.3909   -8.5168   -0.4936 H   0  0  0  0  0  0  0  0  0  0  0  0
  -12.5137   -9.4272    3.5535 H   0  0  0  0  0  0  0  0  0  0  0  0
   -9.4401   -5.5871    3.4590 H   0  0  0  0  0  0  0  0  0  0  0  0
   -8.8509   -6.1786    5.0495 H   0  0  0  0  0  0  0  0  0  0  0  0
   -7.3891   -4.1398    5.2573 H   0  0  0  0  0  0  0  0  0  0  0  0
   -8.0239   -3.5446    3.6675 H   0  0  0  0  0  0  0  0  0  0  0  0
   -9.1361   -3.7165    5.0806 H   0  0  0  0  0  0  0  0  0  0  0  0
   -5.7408   -5.8933    1.3541 H   0  0  0  0  0  0  0  0  0  0  0  0
   -6.6450   -4.3888    1.8301 H   0  0  0  0  0  0  0  0  0  0  0  0
   -4.6820   -3.0082    1.0972 H   0  0  0  0  0  0  0  0  0  0  0  0
   -3.8220   -4.5188    0.6000 H   0  0  0  0  0  0  0  0  0  0  0  0
   -5.3354   -4.0185   -0.2467 H   0  0  0  0  0  0  0  0  0  0  0  0
   -4.1391   -9.9738    8.2913 H   0  0  0  0  0  0  0  0  0  0  0  0
   -2.1476   -8.4831    8.1444 H   0  0  0  0  0  0  0  0  0  0  0  0
   -4.1910   -3.3141    5.5224 H   0  0  0  0  0  0  0  0  0  0  0  0
    2.2189   -3.7960    3.4842 H   0  0  0  0  0  0  0  0  0  0  0  0
    2.0851   -2.0851    3.7673 H   0  0  0  0  0  0  0  0  0  0  0  0
    3.4306   -0.4875    2.6518 H   0  0  0  0  0  0  0  0  0  0  0  0
    5.4130   -0.0382    1.2827 H   0  0  0  0  0  0  0  0  0  0  0  0
    7.4882   -1.1863    0.2308 H   0  0  0  0  0  0  0  0  0  0  0  0
    7.2341   -2.7134   -0.6662 H   0  0  0  0  0  0  0  0  0  0  0  0
    7.2937   -0.8886   -2.2724 H   0  0  0  0  0  0  0  0  0  0  0  0
    6.0612    0.0498   -1.3555 H   0  0  0  0  0  0  0  0  0  0  0  0
    5.5910   -1.4867   -2.1964 H   0  0  0  0  0  0  0  0  0  0  0  0
    5.3194   -4.0925   -0.1820 H   0  0  0  0  0  0  0  0  0  0  0  0
    3.3727   -4.5585    1.2207 H   0  0  0  0  0  0  0  0  0  0  0  0
   -1.0939   -2.8579    0.1021 H   0  0  0  0  0  0  0  0  0  0  0  0
   -1.6622   -4.7248   -1.3526 H   0  0  0  0  0  0  0  0  0  0  0  0
    0.1198   -8.0078   -1.3013 H   0  0  0  0  0  0  0  0  0  0  0  0
   -0.9052   -6.9199   -2.2822 H   0  0  0  0  0  0  0  0  0  0  0  0
   -2.8447   -7.3303   -0.7443 H   0  0  0  0  0  0  0  0  0  0  0  0
   -1.8088   -8.4199    0.2669 H   0  0  0  0  0  0  0  0  0  0  0  0
   -2.2026   -8.8668   -1.4384 H   0  0  0  0  0  0  0  0  0  0  0  0
    0.9078   -7.3094    0.9353 H   0  0  0  0  0  0  0  0  0  0  0  0
    1.4531   -5.4802    2.4189 H   0  0  0  0  0  0  0  0  0  0  0  0
    1.8097   -1.6515   -0.1669 H   0  0  0  0  0  0  0  0  0  0  0  0
   -1.8786    1.3696    3.4076 H   0  0  0  0  0  0  0  0  0  0  0  0
   -2.4233    3.5330    2.4008 H   0  0  0  0  0  0  0  0  0  0  0  0
   -1.7425    4.0655    0.1272 H   0  0  0  0  0  0  0  0  0  0  0  0
   -3.0785    0.9870   -1.2206 H   0  0  0  0  0  0  0  0  0  0  0  0
   -4.2509   -0.7673   -2.4498 H   0  0  0  0  0  0  0  0  0  0  0  0
   -2.7465   -2.7546   -5.1963 H   0  0  0  0  0  0  0  0  0  0  0  0
   -4.1452   -2.6143   -4.0786 H   0  0  0  0  0  0  0  0  0  0  0  0
   -4.8518   -2.1755   -6.4079 H   0  0  0  0  0  0  0  0  0  0  0  0
   -3.6176   -0.8732   -6.5796 H   0  0  0  0  0  0  0  0  0  0  0  0
   -5.0078   -0.6607   -5.4409 H   0  0  0  0  0  0  0  0  0  0  0  0
   -1.0548   -0.9166   -5.3299 H   0  0  0  0  0  0  0  0  0  0  0  0
    0.1262    0.8410   -4.1279 H   0  0  0  0  0  0  0  0  0  0  0  0
   -3.0976    3.5275   -1.5352 H   0  0  0  0  0  0  0  0  0  0  0  0
   -3.9183    5.4963   -2.7062 H   0  0  0  0  0  0  0  0  0  0  0  0
   -1.9239    7.4043   -5.2145 H   0  0  0  0  0  0  0  0  0  0  0  0
   -3.3480    7.4591   -4.1283 H   0  0  0  0  0  0  0  0  0  0  0  0
   -4.0352    7.2830   -6.5065 H   0  0  0  0  0  0  0  0  0  0  0  0
   -3.1128    5.7445   -6.6903 H   0  0  0  0  0  0  0  0  0  0  0  0
   -4.5508    5.8178   -5.5909 H   0  0  0  0  0  0  0  0  0  0  0  0
   -0.5733    5.2850   -5.3945 H   0  0  0  0  0  0  0  0  0  0  0  0
    0.2686    3.3486   -4.1913 H   0  0  0  0  0  0  0  0  0  0  0  0
    5.1931    3.2857   -1.5792 H   0  0  0  0  0  0  0  0  0  0  0  0
    4.2976    6.0018    1.7552 H   0  0  0  0  0  0  0  0  0  0  0  0
    3.4788    4.8246    0.6606 H   0  0  0  0  0  0  0  0  0  0  0  0
    5.8527    4.2249    2.5320 H   0  0  0  0  0  0  0  0  0  0  0  0
    5.0974    3.0478    1.3842 H   0  0  0  0  0  0  0  0  0  0  0  0
    4.1357    3.7128    2.7594 H   0  0  0  0  0  0  0  0  0  0  0  0
    6.5865    9.8248    0.5323 H   0  0  0  0  0  0  0  0  0  0  0  0
    5.5826    8.7996    1.6194 H   0  0  0  0  0  0  0  0  0  0  0  0
    7.6776    7.9705    2.7274 H   0  0  0  0  0  0  0  0  0  0  0  0
    7.4890    9.7716    2.8534 H   0  0  0  0  0  0  0  0  0  0  0  0
    8.6480    9.0705    1.6591 H   0  0  0  0  0  0  0  0  0  0  0  0
    2.3216    7.5861   -5.7107 H   0  0  0  0  0  0  0  0  0  0  0  0
    3.6336    9.7017   -5.6524 H   0  0  0  0  0  0  0  0  0  0  0  0
    6.3692   10.4578   -2.3663 H   0  0  0  0  0  0  0  0  0  0  0  0
    9.8765    5.4716   -2.0331 H   0  0  0  0  0  0  0  0  0  0  0  0
   10.1754    3.1961   -2.9871 H   0  0  0  0  0  0  0  0  0  0  0  0
    9.7214    1.5756   -4.7897 H   0  0  0  0  0  0  0  0  0  0  0  0
    7.8448    4.6280   -7.1432 H   0  0  0  0  0  0  0  0  0  0  0  0
    7.6492    6.9159   -6.2586 H   0  0  0  0  0  0  0  0  0  0  0  0
  1  2  2  3
  2  3  1  0
  3  4  2  0
  3  5  1  0
  5  6  2  0
  6  7  1  0
  7  8  2  0
  8  9  1  0
  8 10  1  0
 10 11  2  0
 11 12  1  0
 12 13  2  3
 13 14  1  0
 14 15  3  0
 13 16  1  0
 16 17  3  0
  1 18  1  0
 18 19  2  0
 19 20  1  0
 20 21  1  0
 21 22  1  0
 19 23  1  0
 23 24  1  0
 24 25  1  0
 25 26  1  0
 23 27  2  0
 27 28  1  0
 28 29  2  0
 29 30  1  0
 30 31  2  0
 31 32  1  0
 32 33  2  0
 27 34  1  0
 34 35  2  0
 35 36  1  0
 36 37  1  0
 37 38  1  0
 38 39  1  0
 39 40  2  0
 40 41  1  0
 41 42  1  0
 42 43  1  0
 43 44  2  0
 44 45  1  0
 45 46  2  0
 46 47  1  0
 47 48  1  0
 46 49  1  0
 49 50  2  0
 41 51  1  0
 51 52  2  0
 52 53  1  0
 53 54  2  0
 54 55  1  0
 55 56  1  0
 54 57  1  0
 57 58  2  0
 41 59  1  0
 59 60  1  0
 60 61  1  0
 40 62  1  0
 62 63  2  0
 63 64  1  0
 64 65  2  0
 65 66  1  0
 66 67  1  0
 67 68  1  0
 68 69  2  0
 69 70  1  0
 70 71  2  0
 71 72  1  0
 66 73  1  0
 73 74  2  0
 74 75  1  0
 75 76  2  0
 76 77  1  0
 77 78  1  0
 76 79  1  0
 79 80  2  0
 66 81  1  0
 81 82  2  0
 82 83  1  0
 83 84  2  0
 84 85  1  0
 85 86  1  0
 84 87  1  0
 87 88  2  0
 65 89  1  0
 89 90  2  0
 90 91  1  0
 90 92  1  0
 92 93  2  0
 93 94  1  0
 93 95  1  0
 95 96  2  0
 96 97  1  0
 97 98  1  0
 98 99  1  0
 96100  1  0
100101  1  0
101102  1  0
102103  1  0
100104  2  0
104105  1  0
105106  2  0
106107  1  0
107108  2  0
108109  1  0
109110  2  0
104111  1  0
111112  2  3
112113  1  0
113114  2  0
113115  1  0
115116  2  0
116117  1  0
117118  2  0
118119  1  0
119120  2  0
120121  1  0
120122  1  0
122123  2  0
123124  1  0
124125  2  0
125126  1  0
126127  2  3
127128  1  0
128129  3  0
127130  1  0
130131  3  0
 12  2  1  0
 29 18  1  0
 61 34  1  0
 68 63  1  0
 80 73  1  0
 88 81  1  0
 94 89  1  0
106 95  1  0
126112  1  0
 11  5  1  0
 33 28  1  0
 60 36  2  0
 91 64  1  0
110105  1  0
125115  1  0
 59 38  2  0
 72 67  2  0
123117  1  0
 69 39  1  0
 50 43  1  0
 58 51  1  0
  1132  1  0
  6133  1  0
  7134  1  0
 10135  1  0
 21136  1  0
 21137  1  0
 22138  1  0
 22139  1  0
 22140  1  0
 25141  1  0
 25142  1  0
 26143  1  0
 26144  1  0
 26145  1  0
 31146  1  0
 32147  1  0
 35148  1  0
 42149  1  0
 42150  1  0
 44151  1  0
 45152  1  0
 47153  1  0
 47154  1  0
 48155  1  0
 48156  1  0
 48157  1  0
 49158  1  0
 50159  1  0
 52160  1  0
 53161  1  0
 55162  1  0
 55163  1  0
 56164  1  0
 56165  1  0
 56166  1  0
 57167  1  0
 58168  1  0
 62169  1  0
 70170  1  0
 71171  1  0
 72172  1  0
 74173  1  0
 75174  1  0
 77175  1  0
 77176  1  0
 78177  1  0
 78178  1  0
 78179  1  0
 79180  1  0
 80181  1  0
 82182  1  0
 83183  1  0
 85184  1  0
 85185  1  0
 86186  1  0
 86187  1  0
 86188  1  0
 87189  1  0
 88190  1  0
 92191  1  0
 98192  1  0
 98193  1  0
 99194  1  0
 99195  1  0
 99196  1  0
102197  1  0
102198  1  0
103199  1  0
103200  1  0
103201  1  0
108202  1  0
109203  1  0
111204  1  0
116205  1  0
118206  1  0
119207  1  0
122208  1  0
124209  1  0
M  END

