
     RDKit          3D

130143  0  0  0  0  0  0  0  0999 V2000
   -0.0080    2.5945    7.6633 C   0  0  0  0  0  0  0  0  0  0  0  0
    1.1961    3.1988    7.5820 C   0  0  0  0  0  0  0  0  0  0  0  0
    1.7672    3.7881    6.3616 C   0  0  0  0  0  0  0  0  0  0  0  0
    1.1918    3.9285    5.2510 O   0  0  0  0  0  0  0  0  0  0  0  0
    3.1652    4.0670    6.5973 C   0  0  0  0  0  0  0  0  0  0  0  0
    4.0941    4.5864    5.6974 C   0  0  0  0  0  0  0  0  0  0  0  0
    5.4206    4.7347    6.1181 C   0  0  0  0  0  0  0  0  0  0  0  0
    5.7993    4.3444    7.4173 C   0  0  0  0  0  0  0  0  0  0  0  0
    7.6216    4.5371    7.9711 Br  0  0  0  0  0  0  0  0  0  0  0  0
    4.8478    3.8141    8.3068 C   0  0  0  0  0  0  0  0  0  0  0  0
    3.5101    3.6887    7.8863 C   0  0  0  0  0  0  0  0  0  0  0  0
    2.2955    3.1921    8.6033 C   0  0  0  0  0  0  0  0  0  0  0  0
    2.1716    2.9618    9.9375 C   0  0  0  0  0  0  0  0  0  0  0  0
    3.2849    3.0160   10.8489 C   0  0  0  0  0  0  0  0  0  0  0  0
    4.1660    3.0501   11.5990 N   0  0  0  0  0  0  0  0  0  0  0  0
    0.9018    2.7295   10.5722 C   0  0  0  0  0  0  0  0  0  0  0  0
   -0.1164    2.5426   11.0953 N   0  0  0  0  0  0  0  0  0  0  0  0
   -1.0115    2.6476    6.5793 C   0  0  0  0  0  0  0  0  0  0  0  0
   -1.5813    3.8718    6.2022 C   0  0  0  0  0  0  0  0  0  0  0  0
   -1.2724    5.0048    6.8820 F   0  0  0  0  0  0  0  0  0  0  0  0
   -2.4585    3.9397    5.1174 C   0  0  0  0  0  0  0  0  0  0  0  0
   -2.9984    5.1438    4.7928 F   0  0  0  0  0  0  0  0  0  0  0  0
   -2.7789    2.7845    4.3755 C   0  0  0  0  0  0  0  0  0  0  0  0
   -2.2523    1.5402    4.7923 C   0  0  0  0  0  0  0  0  0  0  0  0
   -2.5137    0.3979    4.1036 N   0  0  0  0  0  0  0  0  0  0  0  0
   -2.0132   -0.8112    4.4766 C   0  0  0  0  0  0  0  0  0  0  0  0
   -2.3588   -2.0106    3.6347 C   0  0  0  0  0  0  0  0  0  0  0  0
   -3.7220   -2.5649    4.0212 C   0  0  0  0  0  0  0  0  0  0  0  0
   -1.2260   -0.8885    5.6499 C   0  0  0  0  0  0  0  0  0  0  0  0
   -0.9159    0.2624    6.3031 N   0  0  0  0  0  0  0  0  0  0  0  0
   -1.3928    1.4730    5.9089 C   0  0  0  0  0  0  0  0  0  0  0  0
   -0.6678   -2.1770    6.1951 C   0  0  0  0  0  0  0  0  0  0  0  0
    0.7406   -2.4310    5.6669 C   0  0  0  0  0  0  0  0  0  0  0  0
   -3.6053    2.9152    3.1481 C   0  0  0  0  0  0  0  0  0  0  0  0
   -4.7588    1.7794    2.5806 S   0  0  0  0  0  0  0  0  0  0  0  0
   -5.0951    2.6649    1.2003 C   0  0  0  0  0  0  0  0  0  0  0  0
   -5.5037    2.3729   -0.0744 C   0  0  0  0  0  0  0  0  0  0  0  0
   -5.8336    0.9296   -0.8995 S   0  0  0  0  0  0  0  0  0  0  0  0
   -5.3153    1.5961   -2.3787 C   0  0  0  0  0  0  0  0  0  0  0  0
   -4.8116    2.8781   -2.2026 C   0  0  0  0  0  0  0  0  0  0  0  0
   -4.9128    3.3151   -0.8831 C   0  0  0  0  0  0  0  0  0  0  0  0
   -4.1476    4.1915   -0.1746 N   0  0  0  0  0  0  0  0  0  0  0  0
   -4.2776    3.7518    1.1065 C   0  0  0  0  0  0  0  0  0  0  0  0
   -3.4324    3.9350    2.1988 C   0  0  0  0  0  0  0  0  0  0  0  0
   -3.1303    5.1073   -0.6925 C   0  0  0  0  0  0  0  0  0  0  0  0
   -3.7832    6.2895   -1.3976 C   0  0  0  0  0  0  0  0  0  0  0  0
   -3.8420    3.3456   -3.5199 S   0  0  0  0  0  0  0  0  0  0  0  0
   -4.2072    1.9217   -4.3629 C   0  0  0  0  0  0  0  0  0  0  0  0
   -3.5002    1.1431   -5.2407 C   0  0  0  0  0  0  0  0  0  0  0  0
   -3.8307   -0.1531   -4.9679 C   0  0  0  0  0  0  0  0  0  0  0  0
   -4.7475   -0.2481   -3.9708 N   0  0  0  0  0  0  0  0  0  0  0  0
   -5.1053   -1.4532   -3.2196 C   0  0  0  0  0  0  0  0  0  0  0  0
   -4.0246   -1.8122   -2.1977 C   0  0  0  0  0  0  0  0  0  0  0  0
   -4.9578    1.0482   -3.6091 C   0  0  0  0  0  0  0  0  0  0  0  0
   -2.8884   -1.0924   -5.3876 C   0  0  0  0  0  0  0  0  0  0  0  0
   -1.7711   -0.4734   -5.9808 C   0  0  0  0  0  0  0  0  0  0  0  0
   -1.9779    1.2263   -5.9258 S   0  0  0  0  0  0  0  0  0  0  0  0
   -0.5260   -1.1891   -6.3748 C   0  0  0  0  0  0  0  0  0  0  0  0
   -0.6152   -2.4906   -6.9093 C   0  0  0  0  0  0  0  0  0  0  0  0
   -1.8174   -3.0519   -7.1758 F   0  0  0  0  0  0  0  0  0  0  0  0
    0.5381   -3.2345   -7.1821 C   0  0  0  0  0  0  0  0  0  0  0  0
    0.4168   -4.4994   -7.6619 F   0  0  0  0  0  0  0  0  0  0  0  0
    1.8061   -2.6948   -6.9370 C   0  0  0  0  0  0  0  0  0  0  0  0
    1.9160   -1.3756   -6.4704 C   0  0  0  0  0  0  0  0  0  0  0  0
    3.1376   -0.8131   -6.2775 N   0  0  0  0  0  0  0  0  0  0  0  0
    3.2875    0.4497   -5.7983 C   0  0  0  0  0  0  0  0  0  0  0  0
    4.6864    0.9765   -5.6145 C   0  0  0  0  0  0  0  0  0  0  0  0
    5.2331    0.5791   -4.2458 C   0  0  0  0  0  0  0  0  0  0  0  0
    2.1337    1.1883   -5.4500 C   0  0  0  0  0  0  0  0  0  0  0  0
    0.9117    0.6268   -5.6711 N   0  0  0  0  0  0  0  0  0  0  0  0
    0.7588   -0.6271   -6.1755 C   0  0  0  0  0  0  0  0  0  0  0  0
    2.2149    2.6081   -4.9278 C   0  0  0  0  0  0  0  0  0  0  0  0
    0.9685    3.0245   -4.1530 C   0  0  0  0  0  0  0  0  0  0  0  0
    3.0038   -3.5224   -7.1818 C   0  0  0  0  0  0  0  0  0  0  0  0
    3.7097   -4.1043   -6.1929 C   0  0  0  0  0  0  0  0  0  0  0  0
    3.4788   -3.9002   -4.7564 C   0  0  0  0  0  0  0  0  0  0  0  0
    2.4901   -3.3237   -4.2294 O   0  0  0  0  0  0  0  0  0  0  0  0
    4.5930   -4.4583   -4.0275 C   0  0  0  0  0  0  0  0  0  0  0  0
    4.8363   -4.4037   -2.6536 C   0  0  0  0  0  0  0  0  0  0  0  0
    6.0253   -4.9577   -2.1636 C   0  0  0  0  0  0  0  0  0  0  0  0
    6.9514   -5.5352   -3.0471 C   0  0  0  0  0  0  0  0  0  0  0  0
    8.4522   -6.2012   -2.4225 Cl  0  0  0  0  0  0  0  0  0  0  0  0
    6.6893   -5.5777   -4.4288 C   0  0  0  0  0  0  0  0  0  0  0  0
    5.4819   -5.0441   -4.9143 C   0  0  0  0  0  0  0  0  0  0  0  0
    4.9490   -4.9415   -6.3065 C   0  0  0  0  0  0  0  0  0  0  0  0
    5.3827   -5.6305   -7.3957 C   0  0  0  0  0  0  0  0  0  0  0  0
    6.5006   -6.5380   -7.3478 C   0  0  0  0  0  0  0  0  0  0  0  0
    7.3921   -7.2769   -7.3275 N   0  0  0  0  0  0  0  0  0  0  0  0
    4.6952   -5.6128   -8.6595 C   0  0  0  0  0  0  0  0  0  0  0  0
    4.1567   -5.6184   -9.6864 N   0  0  0  0  0  0  0  0  0  0  0  0
   -0.2472    1.9538    8.4933 H   0  0  0  0  0  0  0  0  0  0  0  0
    3.8025    4.8671    4.6936 H   0  0  0  0  0  0  0  0  0  0  0  0
    6.1580    5.1393    5.4371 H   0  0  0  0  0  0  0  0  0  0  0  0
    5.1834    3.5082    9.2828 H   0  0  0  0  0  0  0  0  0  0  0  0
   -2.3885   -1.7042    2.5678 H   0  0  0  0  0  0  0  0  0  0  0  0
   -1.5886   -2.8056    3.7155 H   0  0  0  0  0  0  0  0  0  0  0  0
   -4.5172   -1.8163    3.8091 H   0  0  0  0  0  0  0  0  0  0  0  0
   -3.9373   -3.4841    3.4342 H   0  0  0  0  0  0  0  0  0  0  0  0
   -3.7493   -2.8227    5.1033 H   0  0  0  0  0  0  0  0  0  0  0  0
   -1.3266   -3.0355    5.9586 H   0  0  0  0  0  0  0  0  0  0  0  0
   -0.6241   -2.1117    7.3044 H   0  0  0  0  0  0  0  0  0  0  0  0
    1.1095   -3.4013    6.0559 H   0  0  0  0  0  0  0  0  0  0  0  0
    0.7425   -2.4633    4.5565 H   0  0  0  0  0  0  0  0  0  0  0  0
    1.4257   -1.6295    6.0151 H   0  0  0  0  0  0  0  0  0  0  0  0
   -2.6591    4.6877    2.2622 H   0  0  0  0  0  0  0  0  0  0  0  0
   -2.4989    5.5010    0.1333 H   0  0  0  0  0  0  0  0  0  0  0  0
   -2.4528    4.5675   -1.3846 H   0  0  0  0  0  0  0  0  0  0  0  0
   -2.9999    6.9078   -1.8893 H   0  0  0  0  0  0  0  0  0  0  0  0
   -4.3274    6.9143   -0.6586 H   0  0  0  0  0  0  0  0  0  0  0  0
   -4.4950    5.9421   -2.1757 H   0  0  0  0  0  0  0  0  0  0  0  0
   -5.2433   -2.3035   -3.9217 H   0  0  0  0  0  0  0  0  0  0  0  0
   -6.0752   -1.2932   -2.7049 H   0  0  0  0  0  0  0  0  0  0  0  0
   -3.7037   -0.9153   -1.6289 H   0  0  0  0  0  0  0  0  0  0  0  0
   -4.4210   -2.5633   -1.4853 H   0  0  0  0  0  0  0  0  0  0  0  0
   -3.1410   -2.2390   -2.7102 H   0  0  0  0  0  0  0  0  0  0  0  0
   -2.9427   -2.1440   -5.1415 H   0  0  0  0  0  0  0  0  0  0  0  0
    5.3450    0.5523   -6.4017 H   0  0  0  0  0  0  0  0  0  0  0  0
    4.7212    2.0778   -5.7379 H   0  0  0  0  0  0  0  0  0  0  0  0
    4.5282    0.8699   -3.4390 H   0  0  0  0  0  0  0  0  0  0  0  0
    5.3935   -0.5182   -4.2074 H   0  0  0  0  0  0  0  0  0  0  0  0
    6.2028    1.0895   -4.0711 H   0  0  0  0  0  0  0  0  0  0  0  0
    3.0808    2.7162   -4.2427 H   0  0  0  0  0  0  0  0  0  0  0  0
    2.3566    3.2960   -5.7878 H   0  0  0  0  0  0  0  0  0  0  0  0
    0.0949    3.0914   -4.8350 H   0  0  0  0  0  0  0  0  0  0  0  0
    0.7513    2.2997   -3.3383 H   0  0  0  0  0  0  0  0  0  0  0  0
    1.1305    4.0269   -3.7024 H   0  0  0  0  0  0  0  0  0  0  0  0
    3.2943   -3.6241   -8.2104 H   0  0  0  0  0  0  0  0  0  0  0  0
    4.1310   -3.9335   -1.9792 H   0  0  0  0  0  0  0  0  0  0  0  0
    6.2338   -4.9240   -1.1014 H   0  0  0  0  0  0  0  0  0  0  0  0
    7.4404   -5.9980   -5.0770 H   0  0  0  0  0  0  0  0  0  0  0  0
  1  2  2  3
  2  3  1  0
  3  4  2  0
  3  5  1  0
  5  6  2  0
  6  7  1  0
  7  8  2  0
  8  9  1  0
  8 10  1  0
 10 11  2  0
 11 12  1  0
 12 13  2  3
 13 14  1  0
 14 15  3  0
 13 16  1  0
 16 17  3  0
  1 18  1  0
 18 19  2  0
 19 20  1  0
 19 21  1  0
 21 22  1  0
 21 23  2  0
 23 24  1  0
 24 25  2  0
 25 26  1  0
 26 27  1  0
 27 28  1  0
 26 29  2  0
 29 30  1  0
 30 31  2  0
 29 32  1  0
 32 33  1  0
 23 34  1  0
 34 35  1  0
 35 36  1  0
 36 37  1  0
 37 38  1  0
 38 39  1  0
 39 40  2  0
 40 41  1  0
 41 42  1  0
 42 43  1  0
 43 44  1  0
 42 45  1  0
 45 46  1  0
 40 47  1  0
 47 48  1  0
 48 49  1  0
 49 50  2  0
 50 51  1  0
 51 52  1  0
 52 53  1  0
 51 54  1  0
 50 55  1  0
 55 56  2  0
 56 57  1  0
 56 58  1  0
 58 59  2  0
 59 60  1  0
 59 61  1  0
 61 62  1  0
 61 63  2  0
 63 64  1  0
 64 65  2  0
 65 66  1  0
 66 67  1  0
 67 68  1  0
 66 69  2  0
 69 70  1  0
 70 71  2  0
 69 72  1  0
 72 73  1  0
 63 74  1  0
 74 75  2  3
 75 76  1  0
 76 77  2  0
 76 78  1  0
 78 79  2  0
 79 80  1  0
 80 81  2  0
 81 82  1  0
 81 83  1  0
 83 84  2  0
 84 85  1  0
 85 86  2  3
 86 87  1  0
 87 88  3  0
 86 89  1  0
 89 90  3  0
 12  2  1  0
 31 18  1  0
 44 34  2  0
 54 48  2  0
 71 58  1  0
 85 75  1  0
 11  5  1  0
 31 24  1  0
 43 36  2  0
 57 49  1  0
 71 64  1  0
 84 78  1  0
 41 37  2  0
 54 39  1  0
  1 91  1  0
  6 92  1  0
  7 93  1  0
 10 94  1  0
 27 95  1  0
 27 96  1  0
 28 97  1  0
 28 98  1  0
 28 99  1  0
 32100  1  0
 32101  1  0
 33102  1  0
 33103  1  0
 33104  1  0
 44105  1  0
 45106  1  0
 45107  1  0
 46108  1  0
 46109  1  0
 46110  1  0
 52111  1  0
 52112  1  0
 53113  1  0
 53114  1  0
 53115  1  0
 55116  1  0
 67117  1  0
 67118  1  0
 68119  1  0
 68120  1  0
 68121  1  0
 72122  1  0
 72123  1  0
 73124  1  0
 73125  1  0
 73126  1  0
 74127  1  0
 79128  1  0
 80129  1  0
 83130  1  0
M  END

