
     RDKit          3D

169186  0  0  0  0  0  0  0  0999 V2000
    2.9898   -3.1501    8.1616 C   0  0  0  0  0  0  0  0  0  0  0  0
    2.9336   -4.1610    7.2787 C   0  0  0  0  0  0  0  0  0  0  0  0
    2.3129   -5.4443    7.6295 C   0  0  0  0  0  0  0  0  0  0  0  0
    1.4455   -5.6260    8.5284 O   0  0  0  0  0  0  0  0  0  0  0  0
    2.9583   -6.5013    6.8786 C   0  0  0  0  0  0  0  0  0  0  0  0
    2.6751   -7.8671    6.8919 C   0  0  0  0  0  0  0  0  0  0  0  0
    3.4514   -8.7207    6.0933 C   0  0  0  0  0  0  0  0  0  0  0  0
    4.4967   -8.1949    5.3019 C   0  0  0  0  0  0  0  0  0  0  0  0
    5.5524   -9.3536    4.1934 Br  0  0  0  0  0  0  0  0  0  0  0  0
    4.7644   -6.8191    5.3069 C   0  0  0  0  0  0  0  0  0  0  0  0
    3.9807   -5.9722    6.1159 C   0  0  0  0  0  0  0  0  0  0  0  0
    4.0295   -4.4969    6.3166 C   0  0  0  0  0  0  0  0  0  0  0  0
    4.7982   -3.5925    5.6526 C   0  0  0  0  0  0  0  0  0  0  0  0
    5.8370   -3.9627    4.7250 C   0  0  0  0  0  0  0  0  0  0  0  0
    6.6787   -4.2345    3.9772 N   0  0  0  0  0  0  0  0  0  0  0  0
    4.5737   -2.1713    5.7747 C   0  0  0  0  0  0  0  0  0  0  0  0
    4.4013   -1.0317    5.8619 N   0  0  0  0  0  0  0  0  0  0  0  0
    1.9847   -2.0466    8.1174 C   0  0  0  0  0  0  0  0  0  0  0  0
    0.6614   -2.2586    7.6776 C   0  0  0  0  0  0  0  0  0  0  0  0
    0.1500   -3.5071    7.5550 F   0  0  0  0  0  0  0  0  0  0  0  0
   -0.1324   -1.1842    7.2681 C   0  0  0  0  0  0  0  0  0  0  0  0
   -1.3687   -1.4587    6.7726 F   0  0  0  0  0  0  0  0  0  0  0  0
    0.3845    0.1242    7.2361 C   0  0  0  0  0  0  0  0  0  0  0  0
    1.6264    0.3694    7.8553 C   0  0  0  0  0  0  0  0  0  0  0  0
    2.1372    1.6272    7.9468 N   0  0  0  0  0  0  0  0  0  0  0  0
    3.3481    1.8902    8.5040 C   0  0  0  0  0  0  0  0  0  0  0  0
    3.7735    3.3297    8.6214 C   0  0  0  0  0  0  0  0  0  0  0  0
    3.4697    3.8791   10.0176 C   0  0  0  0  0  0  0  0  0  0  0  0
    4.1170    0.8115    8.9964 C   0  0  0  0  0  0  0  0  0  0  0  0
    3.6258   -0.4491    8.8688 N   0  0  0  0  0  0  0  0  0  0  0  0
    2.4064   -0.7112    8.3246 C   0  0  0  0  0  0  0  0  0  0  0  0
    5.5099    0.9699    9.5532 C   0  0  0  0  0  0  0  0  0  0  0  0
    6.5555    0.6794    8.4797 C   0  0  0  0  0  0  0  0  0  0  0  0
   -0.2232    1.0890    6.2828 C   0  0  0  0  0  0  0  0  0  0  0  0
   -0.3173    2.5087    6.3638 C   0  0  0  0  0  0  0  0  0  0  0  0
   -0.2076    3.3071    7.6119 C   0  0  0  0  0  0  0  0  0  0  0  0
    0.3483    4.6011    7.6098 C   0  0  0  0  0  0  0  0  0  0  0  0
    0.4049    5.3502    8.7854 C   0  0  0  0  0  0  0  0  0  0  0  0
   -0.0559    4.8086    9.9862 C   0  0  0  0  0  0  0  0  0  0  0  0
   -0.5649    3.5021   10.0200 C   0  0  0  0  0  0  0  0  0  0  0  0
   -0.9772    2.8722   11.3234 C   0  0  0  0  0  0  0  0  0  0  0  0
   -2.4959    2.8461   11.4667 C   0  0  0  0  0  0  0  0  0  0  0  0
   -0.6712    2.7702    8.8274 C   0  0  0  0  0  0  0  0  0  0  0  0
   -0.6554    3.0502    5.1055 C   0  0  0  0  0  0  0  0  0  0  0  0
   -0.7660    4.6287    4.4299 S   0  0  0  0  0  0  0  0  0  0  0  0
   -1.0688    3.9998    2.8779 C   0  0  0  0  0  0  0  0  0  0  0  0
   -1.3096    4.3878    1.5804 C   0  0  0  0  0  0  0  0  0  0  0  0
   -1.4298    5.6343    0.9495 C   0  0  0  0  0  0  0  0  0  0  0  0
   -1.7167    5.6712   -0.4558 C   0  0  0  0  0  0  0  0  0  0  0  0
   -1.8001    6.8954   -1.0328 N   0  0  0  0  0  0  0  0  0  0  0  0
   -1.5166    7.8444    0.2930 S   0  0  0  0  0  0  0  0  0  0  0  0
   -1.2816    6.8232    1.5770 N   0  0  0  0  0  0  0  0  0  0  0  0
   -1.8457    4.4589   -1.1515 C   0  0  0  0  0  0  0  0  0  0  0  0
   -1.9231    4.1627   -2.4902 C   0  0  0  0  0  0  0  0  0  0  0  0
   -1.8230    4.9397   -4.0050 S   0  0  0  0  0  0  0  0  0  0  0  0
   -1.5755    3.4458   -4.8102 C   0  0  0  0  0  0  0  0  0  0  0  0
   -1.3709    3.0383   -6.1398 C   0  0  0  0  0  0  0  0  0  0  0  0
   -1.2966    3.9491   -7.3003 C   0  0  0  0  0  0  0  0  0  0  0  0
   -0.5339    5.1291   -7.2293 C   0  0  0  0  0  0  0  0  0  0  0  0
   -0.4526    5.9849   -8.3303 C   0  0  0  0  0  0  0  0  0  0  0  0
   -1.1443    5.6792   -9.5022 C   0  0  0  0  0  0  0  0  0  0  0  0
   -1.9302    4.5211   -9.5833 C   0  0  0  0  0  0  0  0  0  0  0  0
   -2.6708    4.1900  -10.8527 C   0  0  0  0  0  0  0  0  0  0  0  0
   -1.8060    3.3463  -11.7810 C   0  0  0  0  0  0  0  0  0  0  0  0
   -1.9906    3.6499   -8.4839 C   0  0  0  0  0  0  0  0  0  0  0  0
   -1.2160    1.6354   -6.1891 C   0  0  0  0  0  0  0  0  0  0  0  0
   -1.3071    0.9615   -4.6353 S   0  0  0  0  0  0  0  0  0  0  0  0
   -1.5495    2.4247   -3.8987 C   0  0  0  0  0  0  0  0  0  0  0  0
   -1.7334    2.8261   -2.5998 C   0  0  0  0  0  0  0  0  0  0  0  0
   -1.4733    2.2141   -1.4216 N   0  0  0  0  0  0  0  0  0  0  0  0
   -1.6517    3.2213   -0.5166 C   0  0  0  0  0  0  0  0  0  0  0  0
   -1.4763    3.1866    0.8767 C   0  0  0  0  0  0  0  0  0  0  0  0
   -1.4545    2.1008    1.7070 N   0  0  0  0  0  0  0  0  0  0  0  0
   -1.1257    2.6477    2.8947 C   0  0  0  0  0  0  0  0  0  0  0  0
   -0.8905    2.1122    4.1374 C   0  0  0  0  0  0  0  0  0  0  0  0
   -0.6284    0.5771    4.7056 S   0  0  0  0  0  0  0  0  0  0  0  0
   -2.2379    0.8622    1.5607 C   0  0  0  0  0  0  0  0  0  0  0  0
   -3.5801    0.9694    2.2897 C   0  0  0  0  0  0  0  0  0  0  0  0
   -0.5279    1.0886   -1.2915 C   0  0  0  0  0  0  0  0  0  0  0  0
    0.8854    1.5000   -1.7257 C   0  0  0  0  0  0  0  0  0  0  0  0
   -0.8893    0.7554   -7.3171 C   0  0  0  0  0  0  0  0  0  0  0  0
    0.4421    0.3439   -7.4163 C   0  0  0  0  0  0  0  0  0  0  0  0
    1.4290    1.1424   -6.9329 F   0  0  0  0  0  0  0  0  0  0  0  0
    0.7530   -0.9708   -7.7706 C   0  0  0  0  0  0  0  0  0  0  0  0
    2.0296   -1.3843   -7.5744 F   0  0  0  0  0  0  0  0  0  0  0  0
   -0.2754   -1.8844   -8.1114 C   0  0  0  0  0  0  0  0  0  0  0  0
   -1.5966   -1.4012   -8.2032 C   0  0  0  0  0  0  0  0  0  0  0  0
   -2.6187   -2.2206   -8.5799 N   0  0  0  0  0  0  0  0  0  0  0  0
   -3.9176   -1.8112   -8.5850 C   0  0  0  0  0  0  0  0  0  0  0  0
   -4.9588   -2.7752   -9.0926 C   0  0  0  0  0  0  0  0  0  0  0  0
   -5.7305   -3.4358   -7.9503 C   0  0  0  0  0  0  0  0  0  0  0  0
   -4.2226   -0.5076   -8.1233 C   0  0  0  0  0  0  0  0  0  0  0  0
   -3.2000    0.3006   -7.7408 N   0  0  0  0  0  0  0  0  0  0  0  0
   -1.9013   -0.0899   -7.7953 C   0  0  0  0  0  0  0  0  0  0  0  0
   -5.6240    0.0373   -7.9912 C   0  0  0  0  0  0  0  0  0  0  0  0
   -5.9923    0.2188   -6.5193 C   0  0  0  0  0  0  0  0  0  0  0  0
   -0.0624   -3.3552   -7.9699 C   0  0  0  0  0  0  0  0  0  0  0  0
    1.0681   -4.0257   -8.2592 C   0  0  0  0  0  0  0  0  0  0  0  0
    2.0521   -3.6319   -9.2717 C   0  0  0  0  0  0  0  0  0  0  0  0
    1.9769   -2.6276  -10.0322 O   0  0  0  0  0  0  0  0  0  0  0  0
    3.0622   -4.6638   -9.3557 C   0  0  0  0  0  0  0  0  0  0  0  0
    4.1750   -4.7106  -10.1989 C   0  0  0  0  0  0  0  0  0  0  0  0
    5.0268   -5.8212  -10.1134 C   0  0  0  0  0  0  0  0  0  0  0  0
    4.7481   -6.8665   -9.2099 C   0  0  0  0  0  0  0  0  0  0  0  0
    5.9150   -8.3785   -9.1047 Br  0  0  0  0  0  0  0  0  0  0  0  0
    3.6128   -6.8054   -8.3825 C   0  0  0  0  0  0  0  0  0  0  0  0
    2.7670   -5.6826   -8.4595 C   0  0  0  0  0  0  0  0  0  0  0  0
    1.5229   -5.3467   -7.6962 C   0  0  0  0  0  0  0  0  0  0  0  0
    1.0339   -5.9863   -6.5889 C   0  0  0  0  0  0  0  0  0  0  0  0
   -0.0647   -5.4861   -5.8108 C   0  0  0  0  0  0  0  0  0  0  0  0
   -0.9668   -5.0946   -5.1902 N   0  0  0  0  0  0  0  0  0  0  0  0
    1.6103   -7.1988   -6.0684 C   0  0  0  0  0  0  0  0  0  0  0  0
    2.0487   -8.1814   -5.6423 N   0  0  0  0  0  0  0  0  0  0  0  0
    3.9914   -2.8250    8.4128 H   0  0  0  0  0  0  0  0  0  0  0  0
    1.8813   -8.2708    7.5048 H   0  0  0  0  0  0  0  0  0  0  0  0
    3.2437   -9.7865    6.0673 H   0  0  0  0  0  0  0  0  0  0  0  0
    5.5683   -6.4558    4.6882 H   0  0  0  0  0  0  0  0  0  0  0  0
    3.2206    3.9383    7.8722 H   0  0  0  0  0  0  0  0  0  0  0  0
    4.8530    3.4454    8.3929 H   0  0  0  0  0  0  0  0  0  0  0  0
    2.4281    3.6394   10.3155 H   0  0  0  0  0  0  0  0  0  0  0  0
    4.1594    3.4611   10.7793 H   0  0  0  0  0  0  0  0  0  0  0  0
    3.5838    4.9838   10.0100 H   0  0  0  0  0  0  0  0  0  0  0  0
    5.6499    0.2580   10.3949 H   0  0  0  0  0  0  0  0  0  0  0  0
    5.6890    1.9836    9.9687 H   0  0  0  0  0  0  0  0  0  0  0  0
    7.5738    0.8406    8.8991 H   0  0  0  0  0  0  0  0  0  0  0  0
    6.4686   -0.3731    8.1333 H   0  0  0  0  0  0  0  0  0  0  0  0
    6.4213    1.3618    7.6132 H   0  0  0  0  0  0  0  0  0  0  0  0
    0.7507    5.0264    6.7048 H   0  0  0  0  0  0  0  0  0  0  0  0
    0.8253    6.3508    8.7720 H   0  0  0  0  0  0  0  0  0  0  0  0
    0.0128    5.3952   10.8930 H   0  0  0  0  0  0  0  0  0  0  0  0
   -0.5426    3.4229   12.1843 H   0  0  0  0  0  0  0  0  0  0  0  0
   -0.5873    1.8334   11.3658 H   0  0  0  0  0  0  0  0  0  0  0  0
   -2.9024    3.8795   11.4549 H   0  0  0  0  0  0  0  0  0  0  0  0
   -2.7683    2.3682   12.4323 H   0  0  0  0  0  0  0  0  0  0  0  0
   -2.9507    2.2615   10.6390 H   0  0  0  0  0  0  0  0  0  0  0  0
   -1.1157    1.7821    8.8501 H   0  0  0  0  0  0  0  0  0  0  0  0
    0.0181    5.3706   -6.3327 H   0  0  0  0  0  0  0  0  0  0  0  0
    0.1479    6.8845   -8.2745 H   0  0  0  0  0  0  0  0  0  0  0  0
   -1.0672    6.3463  -10.3543 H   0  0  0  0  0  0  0  0  0  0  0  0
   -3.6097    3.6426  -10.6137 H   0  0  0  0  0  0  0  0  0  0  0  0
   -2.9646    5.1291  -11.3755 H   0  0  0  0  0  0  0  0  0  0  0  0
   -0.8955    3.9105  -12.0737 H   0  0  0  0  0  0  0  0  0  0  0  0
   -2.3811    3.0965  -12.6950 H   0  0  0  0  0  0  0  0  0  0  0  0
   -1.5073    2.4033  -11.2764 H   0  0  0  0  0  0  0  0  0  0  0  0
   -2.5948    2.7533   -8.5477 H   0  0  0  0  0  0  0  0  0  0  0  0
   -1.6639    0.0008    1.9666 H   0  0  0  0  0  0  0  0  0  0  0  0
   -2.4741    0.6555    0.4975 H   0  0  0  0  0  0  0  0  0  0  0  0
   -4.1579    1.8351    1.9059 H   0  0  0  0  0  0  0  0  0  0  0  0
   -4.1668    0.0424    2.1197 H   0  0  0  0  0  0  0  0  0  0  0  0
   -3.4301    1.0855    3.3825 H   0  0  0  0  0  0  0  0  0  0  0  0
   -0.4369    0.7415   -0.2459 H   0  0  0  0  0  0  0  0  0  0  0  0
   -0.8715    0.2265   -1.8947 H   0  0  0  0  0  0  0  0  0  0  0  0
    0.9409    1.6459   -2.8246 H   0  0  0  0  0  0  0  0  0  0  0  0
    1.6131    0.7111   -1.4393 H   0  0  0  0  0  0  0  0  0  0  0  0
    1.1737    2.4443   -1.2256 H   0  0  0  0  0  0  0  0  0  0  0  0
   -5.6588   -2.2644   -9.7894 H   0  0  0  0  0  0  0  0  0  0  0  0
   -4.4607   -3.5734   -9.6832 H   0  0  0  0  0  0  0  0  0  0  0  0
   -6.3225   -2.6868   -7.3845 H   0  0  0  0  0  0  0  0  0  0  0  0
   -6.4414   -4.1710   -8.3797 H   0  0  0  0  0  0  0  0  0  0  0  0
   -5.0315   -3.9611   -7.2650 H   0  0  0  0  0  0  0  0  0  0  0  0
   -6.3858   -0.6002   -8.4808 H   0  0  0  0  0  0  0  0  0  0  0  0
   -5.6598    1.0298   -8.4900 H   0  0  0  0  0  0  0  0  0  0  0  0
   -5.2879    0.9105   -6.0142 H   0  0  0  0  0  0  0  0  0  0  0  0
   -5.9772   -0.7592   -5.9948 H   0  0  0  0  0  0  0  0  0  0  0  0
   -7.0176    0.6410   -6.4410 H   0  0  0  0  0  0  0  0  0  0  0  0
   -0.8628   -3.8785   -7.4859 H   0  0  0  0  0  0  0  0  0  0  0  0
    4.3731   -3.9165  -10.9074 H   0  0  0  0  0  0  0  0  0  0  0  0
    5.8967   -5.8797  -10.7549 H   0  0  0  0  0  0  0  0  0  0  0  0
    3.4195   -7.6317   -7.7266 H   0  0  0  0  0  0  0  0  0  0  0  0
  1  2  2  3
  2  3  1  0
  3  4  2  0
  3  5  1  0
  5  6  2  0
  6  7  1  0
  7  8  2  0
  8  9  1  0
  8 10  1  0
 10 11  2  0
 11 12  1  0
 12 13  2  3
 13 14  1  0
 14 15  3  0
 13 16  1  0
 16 17  3  0
  1 18  1  0
 18 19  2  0
 19 20  1  0
 19 21  1  0
 21 22  1  0
 21 23  2  0
 23 24  1  0
 24 25  2  0
 25 26  1  0
 26 27  1  0
 27 28  1  0
 26 29  2  0
 29 30  1  0
 30 31  2  0
 29 32  1  0
 32 33  1  0
 23 34  1  0
 34 35  2  0
 35 36  1  0
 36 37  2  0
 37 38  1  0
 38 39  2  0
 39 40  1  0
 40 41  1  0
 41 42  1  0
 40 43  2  0
 35 44  1  0
 44 45  1  0
 45 46  1  0
 46 47  1  0
 47 48  1  0
 48 49  1  0
 49 50  2  0
 50 51  1  0
 51 52  1  0
 49 53  1  0
 53 54  1  0
 54 55  1  0
 55 56  1  0
 56 57  1  0
 57 58  1  0
 58 59  2  0
 59 60  1  0
 60 61  2  0
 61 62  1  0
 62 63  1  0
 63 64  1  0
 62 65  2  0
 57 66  2  0
 66 67  1  0
 67 68  1  0
 68 69  1  0
 69 70  1  0
 70 71  1  0
 71 72  1  0
 72 73  1  0
 73 74  1  0
 74 75  1  0
 75 76  1  0
 73 77  1  0
 77 78  1  0
 70 79  1  0
 79 80  1  0
 66 81  1  0
 81 82  2  0
 82 83  1  0
 82 84  1  0
 84 85  1  0
 84 86  2  0
 86 87  1  0
 87 88  2  0
 88 89  1  0
 89 90  1  0
 90 91  1  0
 89 92  2  0
 92 93  1  0
 93 94  2  0
 92 95  1  0
 95 96  1  0
 86 97  1  0
 97 98  2  3
 98 99  1  0
 99100  2  0
 99101  1  0
101102  2  0
102103  1  0
103104  2  0
104105  1  0
104106  1  0
106107  2  0
107108  1  0
108109  2  3
109110  1  0
110111  3  0
109112  1  0
112113  3  0
 12  2  1  0
 31 18  1  0
 76 34  1  0
 94 81  1  0
108 98  1  0
 11  5  1  0
 31 24  1  0
 43 36  1  0
 75 44  2  0
 94 87  1  0
107101  1  0
 74 46  2  0
 72 47  2  0
 52 48  2  0
 71 53  2  0
 69 54  2  0
 68 56  2  0
 65 58  1  0
  1114  1  0
  6115  1  0
  7116  1  0
 10117  1  0
 27118  1  0
 27119  1  0
 28120  1  0
 28121  1  0
 28122  1  0
 32123  1  0
 32124  1  0
 33125  1  0
 33126  1  0
 33127  1  0
 37128  1  0
 38129  1  0
 39130  1  0
 41131  1  0
 41132  1  0
 42133  1  0
 42134  1  0
 42135  1  0
 43136  1  0
 59137  1  0
 60138  1  0
 61139  1  0
 63140  1  0
 63141  1  0
 64142  1  0
 64143  1  0
 64144  1  0
 65145  1  0
 77146  1  0
 77147  1  0
 78148  1  0
 78149  1  0
 78150  1  0
 79151  1  0
 79152  1  0
 80153  1  0
 80154  1  0
 80155  1  0
 90156  1  0
 90157  1  0
 91158  1  0
 91159  1  0
 91160  1  0
 95161  1  0
 95162  1  0
 96163  1  0
 96164  1  0
 96165  1  0
 97166  1  0
102167  1  0
103168  1  0
106169  1  0
M  END

