
     RDKit          3D

202220  0  0  0  0  0  0  0  0999 V2000
   -3.2661   -4.1537    4.3971 C   0  0  0  0  0  0  0  0  0  0  0  0
   -4.1120   -4.7564    5.2510 C   0  0  0  0  0  0  0  0  0  0  0  0
   -3.7157   -5.5484    6.4174 C   0  0  0  0  0  0  0  0  0  0  0  0
   -2.5633   -5.6166    6.9274 O   0  0  0  0  0  0  0  0  0  0  0  0
   -4.8728   -6.3022    6.8582 C   0  0  0  0  0  0  0  0  0  0  0  0
   -4.9414   -7.2546    7.8759 C   0  0  0  0  0  0  0  0  0  0  0  0
   -6.1604   -7.9072    8.0912 C   0  0  0  0  0  0  0  0  0  0  0  0
   -7.2755   -7.6192    7.2800 C   0  0  0  0  0  0  0  0  0  0  0  0
   -8.9215   -8.5347    7.5800 Br  0  0  0  0  0  0  0  0  0  0  0  0
   -7.1821   -6.6706    6.2520 C   0  0  0  0  0  0  0  0  0  0  0  0
   -5.9657   -5.9940    6.0631 C   0  0  0  0  0  0  0  0  0  0  0  0
   -5.5867   -4.9388    5.0783 C   0  0  0  0  0  0  0  0  0  0  0  0
   -6.4328   -4.1403    4.3712 C   0  0  0  0  0  0  0  0  0  0  0  0
   -5.9830   -2.9421    3.7031 C   0  0  0  0  0  0  0  0  0  0  0  0
   -5.6235   -1.9733    3.1810 N   0  0  0  0  0  0  0  0  0  0  0  0
   -7.8570   -4.3430    4.3451 C   0  0  0  0  0  0  0  0  0  0  0  0
   -9.0031   -4.4938    4.3013 N   0  0  0  0  0  0  0  0  0  0  0  0
   -1.8417   -3.9091    4.6620 C   0  0  0  0  0  0  0  0  0  0  0  0
   -0.8694   -4.8717    4.3614 C   0  0  0  0  0  0  0  0  0  0  0  0
   -1.2339   -6.1472    4.0697 F   0  0  0  0  0  0  0  0  0  0  0  0
    0.4894   -4.5152    4.3360 C   0  0  0  0  0  0  0  0  0  0  0  0
    1.4166   -5.4964    4.2100 F   0  0  0  0  0  0  0  0  0  0  0  0
    0.8823   -3.1700    4.4802 C   0  0  0  0  0  0  0  0  0  0  0  0
   -0.0830   -2.2588    4.9792 C   0  0  0  0  0  0  0  0  0  0  0  0
    0.2675   -1.0184    5.4083 N   0  0  0  0  0  0  0  0  0  0  0  0
   -0.6228   -0.1362    5.9425 C   0  0  0  0  0  0  0  0  0  0  0  0
   -0.0826    1.1620    6.4792 C   0  0  0  0  0  0  0  0  0  0  0  0
    0.3008    1.0417    7.9535 C   0  0  0  0  0  0  0  0  0  0  0  0
   -1.9770   -0.5245    6.0505 C   0  0  0  0  0  0  0  0  0  0  0  0
   -2.3416   -1.7517    5.5852 N   0  0  0  0  0  0  0  0  0  0  0  0
   -1.4369   -2.6359    5.0750 C   0  0  0  0  0  0  0  0  0  0  0  0
   -3.0472    0.3456    6.6602 C   0  0  0  0  0  0  0  0  0  0  0  0
   -3.8257    1.0808    5.5782 C   0  0  0  0  0  0  0  0  0  0  0  0
    2.2539   -2.7232    4.0505 C   0  0  0  0  0  0  0  0  0  0  0  0
    2.9430   -3.1169    2.8640 C   0  0  0  0  0  0  0  0  0  0  0  0
    2.3493   -3.9290    1.7349 C   0  0  0  0  0  0  0  0  0  0  0  0
    1.2834   -3.1299    0.9872 C   0  0  0  0  0  0  0  0  0  0  0  0
    4.0604   -2.2952    2.6277 C   0  0  0  0  0  0  0  0  0  0  0  0
    4.9223   -2.0049    1.2048 S   0  0  0  0  0  0  0  0  0  0  0  0
    5.4621   -0.4714    1.6905 C   0  0  0  0  0  0  0  0  0  0  0  0
    5.5025    0.7008    0.8418 C   0  0  0  0  0  0  0  0  0  0  0  0
    5.7224    0.7207   -0.5432 C   0  0  0  0  0  0  0  0  0  0  0  0
    5.1257    1.7549   -1.2822 C   0  0  0  0  0  0  0  0  0  0  0  0
    4.9604    1.8378   -2.7986 C   0  0  0  0  0  0  0  0  0  0  0  0
    6.0018    2.7626   -3.4543 C   0  0  0  0  0  0  0  0  0  0  0  0
    5.8131    3.1733   -4.7922 C   0  0  0  0  0  0  0  0  0  0  0  0
    6.6695    4.1033   -5.3848 C   0  0  0  0  0  0  0  0  0  0  0  0
    7.7377    4.6555   -4.6544 C   0  0  0  0  0  0  0  0  0  0  0  0
    8.6096    5.7134   -5.2704 C   0  0  0  0  0  0  0  0  0  0  0  0
    7.9781    7.0993   -5.1341 C   0  0  0  0  0  0  0  0  0  0  0  0
    7.9440    4.2422   -3.3335 C   0  0  0  0  0  0  0  0  0  0  0  0
    7.0968    3.2983   -2.7427 C   0  0  0  0  0  0  0  0  0  0  0  0
    4.8906    0.4302   -3.4124 C   0  0  0  0  0  0  0  0  0  0  0  0
    5.8750   -0.0445   -4.3083 C   0  0  0  0  0  0  0  0  0  0  0  0
    5.8074   -1.3379   -4.8270 C   0  0  0  0  0  0  0  0  0  0  0  0
    4.7662   -2.1969   -4.4535 C   0  0  0  0  0  0  0  0  0  0  0  0
    4.7099   -3.6027   -4.9881 C   0  0  0  0  0  0  0  0  0  0  0  0
    5.3933   -4.5780   -4.0308 C   0  0  0  0  0  0  0  0  0  0  0  0
    3.8099   -1.7587   -3.5281 C   0  0  0  0  0  0  0  0  0  0  0  0
    3.8757   -0.4632   -3.0064 C   0  0  0  0  0  0  0  0  0  0  0  0
    3.6399    2.5838   -2.8289 C   0  0  0  0  0  0  0  0  0  0  0  0
    3.3363    3.1514   -1.6101 C   0  0  0  0  0  0  0  0  0  0  0  0
    4.2893    2.6744   -0.6377 C   0  0  0  0  0  0  0  0  0  0  0  0
    4.1703    2.7192    0.7505 C   0  0  0  0  0  0  0  0  0  0  0  0
    4.8240    1.7208    1.4997 C   0  0  0  0  0  0  0  0  0  0  0  0
    4.5050    1.3499    2.9497 C   0  0  0  0  0  0  0  0  0  0  0  0
    3.0125    1.6254    3.2065 C   0  0  0  0  0  0  0  0  0  0  0  0
    2.5880    2.7485    3.9585 C   0  0  0  0  0  0  0  0  0  0  0  0
    1.2523    3.1506    3.9448 C   0  0  0  0  0  0  0  0  0  0  0  0
    0.2977    2.4256    3.2228 C   0  0  0  0  0  0  0  0  0  0  0  0
   -1.1357    2.8888    3.1747 C   0  0  0  0  0  0  0  0  0  0  0  0
   -1.3279    3.9262    2.0737 C   0  0  0  0  0  0  0  0  0  0  0  0
    0.6954    1.3083    2.4872 C   0  0  0  0  0  0  0  0  0  0  0  0
    2.0343    0.9235    2.4669 C   0  0  0  0  0  0  0  0  0  0  0  0
    5.4460    2.0724    3.9314 C   0  0  0  0  0  0  0  0  0  0  0  0
    5.7502    1.4939    5.1818 C   0  0  0  0  0  0  0  0  0  0  0  0
    6.6234    2.1260    6.0703 C   0  0  0  0  0  0  0  0  0  0  0  0
    7.1965    3.3634    5.7436 C   0  0  0  0  0  0  0  0  0  0  0  0
    8.1474    4.0386    6.6921 C   0  0  0  0  0  0  0  0  0  0  0  0
    7.4019    5.0017    7.6089 C   0  0  0  0  0  0  0  0  0  0  0  0
    6.8404    3.9830    4.5382 C   0  0  0  0  0  0  0  0  0  0  0  0
    5.9740    3.3492    3.6434 C   0  0  0  0  0  0  0  0  0  0  0  0
    4.8728   -0.1342    2.8999 C   0  0  0  0  0  0  0  0  0  0  0  0
    4.1947   -1.2235    3.4629 C   0  0  0  0  0  0  0  0  0  0  0  0
    3.0225   -1.3214    4.6460 S   0  0  0  0  0  0  0  0  0  0  0  0
    1.6495    3.3061   -1.4298 S   0  0  0  0  0  0  0  0  0  0  0  0
    1.3347    2.7523   -2.9961 C   0  0  0  0  0  0  0  0  0  0  0  0
    0.1635    2.3010   -3.6159 C   0  0  0  0  0  0  0  0  0  0  0  0
   -1.1745    2.2656   -2.9251 C   0  0  0  0  0  0  0  0  0  0  0  0
   -1.3588    0.9486   -2.1667 C   0  0  0  0  0  0  0  0  0  0  0  0
    0.4718    1.5998   -4.8030 C   0  0  0  0  0  0  0  0  0  0  0  0
    2.1640    1.5182   -5.0022 S   0  0  0  0  0  0  0  0  0  0  0  0
    2.5011    2.4050   -3.6201 C   0  0  0  0  0  0  0  0  0  0  0  0
   -0.4879    0.8178   -5.6092 C   0  0  0  0  0  0  0  0  0  0  0  0
   -0.3549   -0.5775   -5.6865 C   0  0  0  0  0  0  0  0  0  0  0  0
    0.6918   -1.2132   -5.0966 F   0  0  0  0  0  0  0  0  0  0  0  0
   -1.3460   -1.3494   -6.3187 C   0  0  0  0  0  0  0  0  0  0  0  0
   -1.2215   -2.7047   -6.3442 F   0  0  0  0  0  0  0  0  0  0  0  0
   -2.4752   -0.7325   -6.8795 C   0  0  0  0  0  0  0  0  0  0  0  0
   -2.5784    0.6681   -6.8596 C   0  0  0  0  0  0  0  0  0  0  0  0
   -3.6565    1.2896   -7.4013 N   0  0  0  0  0  0  0  0  0  0  0  0
   -3.7961    2.6417   -7.3910 C   0  0  0  0  0  0  0  0  0  0  0  0
   -5.0706    3.2195   -7.9472 C   0  0  0  0  0  0  0  0  0  0  0  0
   -6.1467    3.2977   -6.8632 C   0  0  0  0  0  0  0  0  0  0  0  0
   -2.7848    3.4261   -6.7796 C   0  0  0  0  0  0  0  0  0  0  0  0
   -1.7120    2.7938   -6.2325 N   0  0  0  0  0  0  0  0  0  0  0  0
   -1.5852    1.4414   -6.2378 C   0  0  0  0  0  0  0  0  0  0  0  0
   -2.8267    4.9293   -6.7321 C   0  0  0  0  0  0  0  0  0  0  0  0
   -2.2309    5.5311   -8.0028 C   0  0  0  0  0  0  0  0  0  0  0  0
   -3.5669   -1.5553   -7.4257 C   0  0  0  0  0  0  0  0  0  0  0  0
   -4.5024   -2.1163   -6.6377 C   0  0  0  0  0  0  0  0  0  0  0  0
   -4.6683   -1.8466   -5.2011 C   0  0  0  0  0  0  0  0  0  0  0  0
   -3.8378   -1.2759   -4.4377 O   0  0  0  0  0  0  0  0  0  0  0  0
   -5.9944   -2.2762   -4.8120 C   0  0  0  0  0  0  0  0  0  0  0  0
   -6.6302   -2.0907   -3.5862 C   0  0  0  0  0  0  0  0  0  0  0  0
   -7.9684   -2.4856   -3.4627 C   0  0  0  0  0  0  0  0  0  0  0  0
   -8.6506   -3.0342   -4.5698 C   0  0  0  0  0  0  0  0  0  0  0  0
  -10.3441   -3.4646   -4.4257 Cl  0  0  0  0  0  0  0  0  0  0  0  0
   -7.9914   -3.2024   -5.8014 C   0  0  0  0  0  0  0  0  0  0  0  0
   -6.6381   -2.8385   -5.9001 C   0  0  0  0  0  0  0  0  0  0  0  0
   -5.7104   -2.8793   -7.0681 C   0  0  0  0  0  0  0  0  0  0  0  0
   -5.8385   -3.6455   -8.1819 C   0  0  0  0  0  0  0  0  0  0  0  0
   -4.7682   -3.7957   -9.1381 C   0  0  0  0  0  0  0  0  0  0  0  0
   -3.9136   -3.9277   -9.9076 N   0  0  0  0  0  0  0  0  0  0  0  0
   -6.9870   -4.4818   -8.4107 C   0  0  0  0  0  0  0  0  0  0  0  0
   -7.9036   -5.1623   -8.5995 N   0  0  0  0  0  0  0  0  0  0  0  0
   -3.6273   -3.7570    3.4622 H   0  0  0  0  0  0  0  0  0  0  0  0
   -4.0705   -7.4954    8.4770 H   0  0  0  0  0  0  0  0  0  0  0  0
   -6.2333   -8.6442    8.8763 H   0  0  0  0  0  0  0  0  0  0  0  0
   -8.0339   -6.5008    5.6192 H   0  0  0  0  0  0  0  0  0  0  0  0
    0.8387    1.4087    5.9158 H   0  0  0  0  0  0  0  0  0  0  0  0
   -0.7991    1.9948    6.3251 H   0  0  0  0  0  0  0  0  0  0  0  0
    0.9621    0.1630    8.1108 H   0  0  0  0  0  0  0  0  0  0  0  0
    0.8576    1.9484    8.2624 H   0  0  0  0  0  0  0  0  0  0  0  0
   -0.5992    0.9395    8.5907 H   0  0  0  0  0  0  0  0  0  0  0  0
   -3.7547   -0.2920    7.2302 H   0  0  0  0  0  0  0  0  0  0  0  0
   -2.6351    1.0829    7.3768 H   0  0  0  0  0  0  0  0  0  0  0  0
   -3.1593    1.7787    5.0282 H   0  0  0  0  0  0  0  0  0  0  0  0
   -4.6467    1.6736    6.0386 H   0  0  0  0  0  0  0  0  0  0  0  0
   -4.2769    0.3559    4.8656 H   0  0  0  0  0  0  0  0  0  0  0  0
    3.1547   -4.2123    1.0168 H   0  0  0  0  0  0  0  0  0  0  0  0
    1.9252   -4.8850    2.0757 H   0  0  0  0  0  0  0  0  0  0  0  0
    0.4263   -2.9023    1.6551 H   0  0  0  0  0  0  0  0  0  0  0  0
    0.9164   -3.7158    0.1203 H   0  0  0  0  0  0  0  0  0  0  0  0
    1.7130   -2.1743    0.6092 H   0  0  0  0  0  0  0  0  0  0  0  0
    6.1979   -0.1167   -1.0377 H   0  0  0  0  0  0  0  0  0  0  0  0
    4.9909    2.7802   -5.3714 H   0  0  0  0  0  0  0  0  0  0  0  0
    6.4858    4.4181   -6.4057 H   0  0  0  0  0  0  0  0  0  0  0  0
    8.7782    5.4889   -6.3493 H   0  0  0  0  0  0  0  0  0  0  0  0
    9.6086    5.7203   -4.7786 H   0  0  0  0  0  0  0  0  0  0  0  0
    7.0208    7.1360   -5.6967 H   0  0  0  0  0  0  0  0  0  0  0  0
    8.6677    7.8645   -5.5475 H   0  0  0  0  0  0  0  0  0  0  0  0
    7.7905    7.3303   -4.0661 H   0  0  0  0  0  0  0  0  0  0  0  0
    8.7526    4.6672   -2.7494 H   0  0  0  0  0  0  0  0  0  0  0  0
    7.2931    3.0220   -1.7150 H   0  0  0  0  0  0  0  0  0  0  0  0
    6.7073    0.5735   -4.6087 H   0  0  0  0  0  0  0  0  0  0  0  0
    6.5790   -1.6707   -5.5115 H   0  0  0  0  0  0  0  0  0  0  0  0
    3.6518   -3.9112   -5.1320 H   0  0  0  0  0  0  0  0  0  0  0  0
    5.2077   -3.6618   -5.9826 H   0  0  0  0  0  0  0  0  0  0  0  0
    5.2747   -5.6172   -4.4097 H   0  0  0  0  0  0  0  0  0  0  0  0
    6.4785   -4.3475   -3.9595 H   0  0  0  0  0  0  0  0  0  0  0  0
    4.9384   -4.5116   -3.0166 H   0  0  0  0  0  0  0  0  0  0  0  0
    3.0164   -2.4204   -3.2053 H   0  0  0  0  0  0  0  0  0  0  0  0
    3.1296   -0.1599   -2.2831 H   0  0  0  0  0  0  0  0  0  0  0  0
    3.4679    3.4010    1.2165 H   0  0  0  0  0  0  0  0  0  0  0  0
    3.2904    3.3509    4.5186 H   0  0  0  0  0  0  0  0  0  0  0  0
    0.9605    4.0383    4.4985 H   0  0  0  0  0  0  0  0  0  0  0  0
   -1.8125    2.0286    2.9838 H   0  0  0  0  0  0  0  0  0  0  0  0
   -1.4255    3.3336    4.1504 H   0  0  0  0  0  0  0  0  0  0  0  0
   -2.3989    4.2248    2.0335 H   0  0  0  0  0  0  0  0  0  0  0  0
   -0.7130    4.8283    2.2795 H   0  0  0  0  0  0  0  0  0  0  0  0
   -1.0390    3.5017    1.0869 H   0  0  0  0  0  0  0  0  0  0  0  0
   -0.0194    0.7510    1.8942 H   0  0  0  0  0  0  0  0  0  0  0  0
    2.3247    0.1049    1.8178 H   0  0  0  0  0  0  0  0  0  0  0  0
    5.3254    0.5422    5.4674 H   0  0  0  0  0  0  0  0  0  0  0  0
    6.8622    1.6489    7.0122 H   0  0  0  0  0  0  0  0  0  0  0  0
    8.6762    3.2808    7.3108 H   0  0  0  0  0  0  0  0  0  0  0  0
    8.9210    4.6027    6.1244 H   0  0  0  0  0  0  0  0  0  0  0  0
    6.8944    5.7916    7.0112 H   0  0  0  0  0  0  0  0  0  0  0  0
    6.6445    4.4554    8.2113 H   0  0  0  0  0  0  0  0  0  0  0  0
    8.1211    5.4895    8.3002 H   0  0  0  0  0  0  0  0  0  0  0  0
    7.2419    4.9579    4.2806 H   0  0  0  0  0  0  0  0  0  0  0  0
    5.7226    3.8643    2.7272 H   0  0  0  0  0  0  0  0  0  0  0  0
   -1.2427    3.1099   -2.2072 H   0  0  0  0  0  0  0  0  0  0  0  0
   -1.9998    2.3870   -3.6552 H   0  0  0  0  0  0  0  0  0  0  0  0
   -0.5085    0.7706   -1.4789 H   0  0  0  0  0  0  0  0  0  0  0  0
   -2.2996    0.9828   -1.5801 H   0  0  0  0  0  0  0  0  0  0  0  0
   -1.4184    0.0944   -2.8820 H   0  0  0  0  0  0  0  0  0  0  0  0
   -4.9116    4.2271   -8.3868 H   0  0  0  0  0  0  0  0  0  0  0  0
   -5.4404    2.5628   -8.7664 H   0  0  0  0  0  0  0  0  0  0  0  0
   -6.2934    2.3023   -6.3927 H   0  0  0  0  0  0  0  0  0  0  0  0
   -7.1055    3.6068   -7.3232 H   0  0  0  0  0  0  0  0  0  0  0  0
   -5.8703    4.0453   -6.0949 H   0  0  0  0  0  0  0  0  0  0  0  0
   -3.8624    5.3001   -6.5828 H   0  0  0  0  0  0  0  0  0  0  0  0
   -2.2268    5.2816   -5.8596 H   0  0  0  0  0  0  0  0  0  0  0  0
   -2.1756    6.6334   -7.8986 H   0  0  0  0  0  0  0  0  0  0  0  0
   -2.8669    5.2993   -8.8797 H   0  0  0  0  0  0  0  0  0  0  0  0
   -1.2043    5.1437   -8.1692 H   0  0  0  0  0  0  0  0  0  0  0  0
   -3.6429   -1.6158   -8.5029 H   0  0  0  0  0  0  0  0  0  0  0  0
   -6.1102   -1.6332   -2.7538 H   0  0  0  0  0  0  0  0  0  0  0  0
   -8.4832   -2.3440   -2.5189 H   0  0  0  0  0  0  0  0  0  0  0  0
   -8.5557   -3.5671   -6.6452 H   0  0  0  0  0  0  0  0  0  0  0  0
  1  2  2  3
  2  3  1  0
  3  4  2  0
  3  5  1  0
  5  6  2  0
  6  7  1  0
  7  8  2  0
  8  9  1  0
  8 10  1  0
 10 11  2  0
 11 12  1  0
 12 13  2  3
 13 14  1  0
 14 15  3  0
 13 16  1  0
 16 17  3  0
  1 18  1  0
 18 19  2  0
 19 20  1  0
 19 21  1  0
 21 22  1  0
 21 23  2  0
 23 24  1  0
 24 25  2  0
 25 26  1  0
 26 27  1  0
 27 28  1  0
 26 29  2  0
 29 30  1  0
 30 31  2  0
 29 32  1  0
 32 33  1  0
 23 34  1  0
 34 35  2  0
 35 36  1  0
 36 37  1  0
 35 38  1  0
 38 39  1  0
 39 40  1  0
 40 41  1  0
 41 42  2  0
 42 43  1  0
 43 44  1  0
 44 45  1  0
 45 46  2  0
 46 47  1  0
 47 48  2  0
 48 49  1  0
 49 50  1  0
 48 51  1  0
 51 52  2  0
 44 53  1  0
 53 54  2  0
 54 55  1  0
 55 56  2  0
 56 57  1  0
 57 58  1  0
 56 59  1  0
 59 60  2  0
 44 61  1  0
 61 62  2  0
 62 63  1  0
 63 64  1  0
 64 65  2  0
 65 66  1  0
 66 67  1  0
 67 68  2  0
 68 69  1  0
 69 70  2  0
 70 71  1  0
 71 72  1  0
 70 73  1  0
 73 74  2  0
 66 75  1  0
 75 76  2  0
 76 77  1  0
 77 78  2  0
 78 79  1  0
 79 80  1  0
 78 81  1  0
 81 82  2  0
 66 83  1  0
 83 84  1  0
 84 85  1  0
 62 86  1  0
 86 87  1  0
 87 88  1  0
 88 89  1  0
 89 90  1  0
 88 91  2  0
 91 92  1  0
 92 93  1  0
 91 94  1  0
 94 95  2  0
 95 96  1  0
 95 97  1  0
 97 98  1  0
 97 99  2  0
 99100  1  0
100101  2  0
101102  1  0
102103  1  0
103104  1  0
102105  2  0
105106  1  0
106107  2  0
105108  1  0
108109  1  0
 99110  1  0
110111  2  3
111112  1  0
112113  2  0
112114  1  0
114115  2  0
115116  1  0
116117  2  0
117118  1  0
117119  1  0
119120  2  0
120121  1  0
121122  2  3
122123  1  0
123124  3  0
122125  1  0
125126  3  0
 12  2  1  0
 31 18  1  0
 85 34  1  0
 93 87  2  0
107 94  1  0
121111  1  0
 11  5  1  0
 31 24  1  0
 84 38  2  0
107100  1  0
120114  1  0
 83 40  2  0
 65 41  1  0
 74 67  1  0
 82 75  1  0
 63 43  2  0
 52 45  1  0
 60 53  1  0
 93 61  1  0
  1127  1  0
  6128  1  0
  7129  1  0
 10130  1  0
 27131  1  0
 27132  1  0
 28133  1  0
 28134  1  0
 28135  1  0
 32136  1  0
 32137  1  0
 33138  1  0
 33139  1  0
 33140  1  0
 36141  1  0
 36142  1  0
 37143  1  0
 37144  1  0
 37145  1  0
 42146  1  0
 46147  1  0
 47148  1  0
 49149  1  0
 49150  1  0
 50151  1  0
 50152  1  0
 50153  1  0
 51154  1  0
 52155  1  0
 54156  1  0
 55157  1  0
 57158  1  0
 57159  1  0
 58160  1  0
 58161  1  0
 58162  1  0
 59163  1  0
 60164  1  0
 64165  1  0
 68166  1  0
 69167  1  0
 71168  1  0
 71169  1  0
 72170  1  0
 72171  1  0
 72172  1  0
 73173  1  0
 74174  1  0
 76175  1  0
 77176  1  0
 79177  1  0
 79178  1  0
 80179  1  0
 80180  1  0
 80181  1  0
 81182  1  0
 82183  1  0
 89184  1  0
 89185  1  0
 90186  1  0
 90187  1  0
 90188  1  0
103189  1  0
103190  1  0
104191  1  0
104192  1  0
104193  1  0
108194  1  0
108195  1  0
109196  1  0
109197  1  0
109198  1  0
110199  1  0
115200  1  0
116201  1  0
119202  1  0
M  END

