
     RDKit          3D

249274  0  0  0  0  0  0  0  0999 V2000
   -5.9156   -3.0113   -4.5077 C   0  0  0  0  0  0  0  0  0  0  0  0
   -5.3082   -3.9110   -5.3048 C   0  0  0  0  0  0  0  0  0  0  0  0
   -4.1575   -4.7375   -4.9142 C   0  0  0  0  0  0  0  0  0  0  0  0
   -3.6015   -4.7599   -3.7829 O   0  0  0  0  0  0  0  0  0  0  0  0
   -3.7465   -5.5279   -6.0442 C   0  0  0  0  0  0  0  0  0  0  0  0
   -2.7661   -6.5170   -6.0823 C   0  0  0  0  0  0  0  0  0  0  0  0
   -2.5838   -7.2367   -7.2660 C   0  0  0  0  0  0  0  0  0  0  0  0
   -3.3836   -6.9661   -8.3881 C   0  0  0  0  0  0  0  0  0  0  0  0
   -3.1321   -7.9569  -10.0004 Br  0  0  0  0  0  0  0  0  0  0  0  0
   -4.3758   -5.9703   -8.3269 C   0  0  0  0  0  0  0  0  0  0  0  0
   -4.5513   -5.2400   -7.1345 C   0  0  0  0  0  0  0  0  0  0  0  0
   -5.5557   -4.1918   -6.7641 C   0  0  0  0  0  0  0  0  0  0  0  0
   -6.4365   -3.5786   -7.6028 C   0  0  0  0  0  0  0  0  0  0  0  0
   -6.4573   -3.8135   -9.0217 C   0  0  0  0  0  0  0  0  0  0  0  0
   -6.4855   -3.9823  -10.1673 N   0  0  0  0  0  0  0  0  0  0  0  0
   -7.4245   -2.6280   -7.1702 C   0  0  0  0  0  0  0  0  0  0  0  0
   -8.2325   -1.8597   -6.8487 N   0  0  0  0  0  0  0  0  0  0  0  0
   -5.3856   -2.6284   -3.1925 C   0  0  0  0  0  0  0  0  0  0  0  0
   -4.7379   -1.4136   -2.9269 C   0  0  0  0  0  0  0  0  0  0  0  0
   -4.6861   -0.3146   -3.8559 N   0  0  0  0  0  0  0  0  0  0  0  0
   -5.3395    0.9156   -3.4768 C   0  0  0  0  0  0  0  0  0  0  0  0
   -4.6637    2.1385   -3.5892 C   0  0  0  0  0  0  0  0  0  0  0  0
   -5.2632    3.3189   -3.1426 C   0  0  0  0  0  0  0  0  0  0  0  0
   -6.5539    3.2951   -2.5944 C   0  0  0  0  0  0  0  0  0  0  0  0
   -7.1733    4.5527   -2.0602 C   0  0  0  0  0  0  0  0  0  0  0  0
   -7.2287    2.0716   -2.4701 C   0  0  0  0  0  0  0  0  0  0  0  0
   -6.6272    0.8923   -2.9155 C   0  0  0  0  0  0  0  0  0  0  0  0
   -4.1469   -0.5019   -5.1859 C   0  0  0  0  0  0  0  0  0  0  0  0
   -4.6463    0.2305   -6.2812 C   0  0  0  0  0  0  0  0  0  0  0  0
   -4.1339    0.0241   -7.5672 C   0  0  0  0  0  0  0  0  0  0  0  0
   -3.1174   -0.9176   -7.7805 C   0  0  0  0  0  0  0  0  0  0  0  0
   -2.5657   -1.1368   -9.1571 C   0  0  0  0  0  0  0  0  0  0  0  0
   -2.6448   -1.6757   -6.7020 C   0  0  0  0  0  0  0  0  0  0  0  0
   -3.1418   -1.4558   -5.4144 C   0  0  0  0  0  0  0  0  0  0  0  0
   -4.4331   -1.2924   -1.5729 C   0  0  0  0  0  0  0  0  0  0  0  0
   -3.7974   -0.0625   -0.6268 S   0  0  0  0  0  0  0  0  0  0  0  0
   -4.1152   -0.8610    0.8454 C   0  0  0  0  0  0  0  0  0  0  0  0
   -4.7658   -2.0828    0.5844 C   0  0  0  0  0  0  0  0  0  0  0  0
   -5.6303   -2.7329    1.5286 N   0  0  0  0  0  0  0  0  0  0  0  0
   -5.2100   -3.9062    2.2539 C   0  0  0  0  0  0  0  0  0  0  0  0
   -4.3031   -4.8245    1.6920 C   0  0  0  0  0  0  0  0  0  0  0  0
   -3.9152   -5.9613    2.4092 C   0  0  0  0  0  0  0  0  0  0  0  0
   -4.4086   -6.1824    3.7041 C   0  0  0  0  0  0  0  0  0  0  0  0
   -4.0027   -7.4017    4.4781 C   0  0  0  0  0  0  0  0  0  0  0  0
   -5.3252   -5.2802    4.2567 C   0  0  0  0  0  0  0  0  0  0  0  0
   -5.7230   -4.1520    3.5369 C   0  0  0  0  0  0  0  0  0  0  0  0
   -7.0183   -2.3412    1.5290 C   0  0  0  0  0  0  0  0  0  0  0  0
   -7.3728   -0.9929    1.6984 C   0  0  0  0  0  0  0  0  0  0  0  0
   -8.7089   -0.5951    1.6037 C   0  0  0  0  0  0  0  0  0  0  0  0
   -9.7054   -1.5345    1.3073 C   0  0  0  0  0  0  0  0  0  0  0  0
  -11.1350   -1.0978    1.1982 C   0  0  0  0  0  0  0  0  0  0  0  0
   -9.3572   -2.8868    1.1521 C   0  0  0  0  0  0  0  0  0  0  0  0
   -8.0217   -3.2877    1.2641 C   0  0  0  0  0  0  0  0  0  0  0  0
   -4.8854   -2.2992   -0.7880 C   0  0  0  0  0  0  0  0  0  0  0  0
   -5.6738   -3.4540   -1.7298 S   0  0  0  0  0  0  0  0  0  0  0  0
   -3.8045   -0.2852    2.1680 C   0  0  0  0  0  0  0  0  0  0  0  0
   -3.2100   -0.9619    3.2568 C   0  0  0  0  0  0  0  0  0  0  0  0
   -2.4862   -2.2525    3.1480 C   0  0  0  0  0  0  0  0  0  0  0  0
   -2.4426   -3.1401    4.2351 C   0  0  0  0  0  0  0  0  0  0  0  0
   -1.6259   -4.2725    4.1924 C   0  0  0  0  0  0  0  0  0  0  0  0
   -0.8477   -4.5376    3.0622 C   0  0  0  0  0  0  0  0  0  0  0  0
   -0.8751   -3.6639    1.9682 C   0  0  0  0  0  0  0  0  0  0  0  0
   -0.0476   -3.9460    0.7406 C   0  0  0  0  0  0  0  0  0  0  0  0
   -0.8656   -4.7092   -0.2920 C   0  0  0  0  0  0  0  0  0  0  0  0
   -1.7055   -2.5351    2.0101 C   0  0  0  0  0  0  0  0  0  0  0  0
   -2.9919   -0.0773    4.3272 C   0  0  0  0  0  0  0  0  0  0  0  0
   -1.9548   -0.1870    5.6731 S   0  0  0  0  0  0  0  0  0  0  0  0
   -1.9557    1.4882    5.9090 C   0  0  0  0  0  0  0  0  0  0  0  0
   -0.9588    2.3458    6.2884 C   0  0  0  0  0  0  0  0  0  0  0  0
    0.1374    2.1551    7.1306 C   0  0  0  0  0  0  0  0  0  0  0  0
    1.1387    3.1677    7.1900 C   0  0  0  0  0  0  0  0  0  0  0  0
    2.1997    2.9239    8.0001 N   0  0  0  0  0  0  0  0  0  0  0  0
    1.7754    1.4390    8.5944 S   0  0  0  0  0  0  0  0  0  0  0  0
    0.3279    1.0471    7.8921 N   0  0  0  0  0  0  0  0  0  0  0  0
    1.0443    4.2745    6.3257 C   0  0  0  0  0  0  0  0  0  0  0  0
    2.0822    5.0311    5.8437 C   0  0  0  0  0  0  0  0  0  0  0  0
    3.7439    4.6801    5.8690 S   0  0  0  0  0  0  0  0  0  0  0  0
    3.9838    5.2358    4.2895 C   0  0  0  0  0  0  0  0  0  0  0  0
    4.9528    4.8504    3.3426 C   0  0  0  0  0  0  0  0  0  0  0  0
    6.1250    4.0444    3.7200 C   0  0  0  0  0  0  0  0  0  0  0  0
    7.3983    4.6205    3.6803 C   0  0  0  0  0  0  0  0  0  0  0  0
    8.5046    3.9180    4.1609 C   0  0  0  0  0  0  0  0  0  0  0  0
    8.3393    2.6539    4.7316 C   0  0  0  0  0  0  0  0  0  0  0  0
    7.0606    2.0805    4.8220 C   0  0  0  0  0  0  0  0  0  0  0  0
    6.8680    0.7469    5.4991 C   0  0  0  0  0  0  0  0  0  0  0  0
    7.2095   -0.4040    4.5624 C   0  0  0  0  0  0  0  0  0  0  0  0
    5.9604    2.7692    4.2843 C   0  0  0  0  0  0  0  0  0  0  0  0
    4.5256    5.0833    2.0147 C   0  0  0  0  0  0  0  0  0  0  0  0
    2.9900    5.8175    2.1214 S   0  0  0  0  0  0  0  0  0  0  0  0
    2.8062    5.7149    3.7769 C   0  0  0  0  0  0  0  0  0  0  0  0
    1.6959    5.5099    4.6158 C   0  0  0  0  0  0  0  0  0  0  0  0
    0.4294    5.0939    4.2934 N   0  0  0  0  0  0  0  0  0  0  0  0
   -0.0025    4.3929    5.3968 C   0  0  0  0  0  0  0  0  0  0  0  0
   -1.0957    3.4799    5.4842 C   0  0  0  0  0  0  0  0  0  0  0  0
   -2.2104    3.3787    4.7010 N   0  0  0  0  0  0  0  0  0  0  0  0
   -2.6833    2.1308    4.9475 C   0  0  0  0  0  0  0  0  0  0  0  0
   -3.2981    1.2398    4.0681 C   0  0  0  0  0  0  0  0  0  0  0  0
   -3.8901    1.3831    2.5093 S   0  0  0  0  0  0  0  0  0  0  0  0
   -3.0591    4.4923    4.2491 C   0  0  0  0  0  0  0  0  0  0  0  0
   -4.3357    4.6026    5.0853 C   0  0  0  0  0  0  0  0  0  0  0  0
   -0.0160    4.8589    2.9099 C   0  0  0  0  0  0  0  0  0  0  0  0
    0.4219    3.4789    2.4205 C   0  0  0  0  0  0  0  0  0  0  0  0
    4.7163    4.1217    0.9000 C   0  0  0  0  0  0  0  0  0  0  0  0
    5.8792    3.5965    0.2735 C   0  0  0  0  0  0  0  0  0  0  0  0
    7.2298    4.0484    0.4754 N   0  0  0  0  0  0  0  0  0  0  0  0
    7.5578    5.4462    0.2750 C   0  0  0  0  0  0  0  0  0  0  0  0
    6.7556    6.2648   -0.5451 C   0  0  0  0  0  0  0  0  0  0  0  0
    7.0871    7.6032   -0.7563 C   0  0  0  0  0  0  0  0  0  0  0  0
    8.2202    8.1587   -0.1490 C   0  0  0  0  0  0  0  0  0  0  0  0
    8.6063    9.5804   -0.4307 C   0  0  0  0  0  0  0  0  0  0  0  0
    9.0345    7.3507    0.6541 C   0  0  0  0  0  0  0  0  0  0  0  0
    8.7060    6.0102    0.8671 C   0  0  0  0  0  0  0  0  0  0  0  0
    8.2692    3.0427    0.5889 C   0  0  0  0  0  0  0  0  0  0  0  0
    9.4546    3.1336   -0.1637 C   0  0  0  0  0  0  0  0  0  0  0  0
   10.4105    2.1140   -0.1160 C   0  0  0  0  0  0  0  0  0  0  0  0
   10.1956    0.9769    0.6766 C   0  0  0  0  0  0  0  0  0  0  0  0
   11.1947   -0.1440    0.6883 C   0  0  0  0  0  0  0  0  0  0  0  0
    9.0047    0.8649    1.4024 C   0  0  0  0  0  0  0  0  0  0  0  0
    8.0537    1.8878    1.3654 C   0  0  0  0  0  0  0  0  0  0  0  0
    5.5369    2.5872   -0.6447 C   0  0  0  0  0  0  0  0  0  0  0  0
    6.3720    1.4764   -1.6071 S   0  0  0  0  0  0  0  0  0  0  0  0
    4.9634    0.6277   -2.0820 C   0  0  0  0  0  0  0  0  0  0  0  0
    3.8478    1.2399   -1.5035 C   0  0  0  0  0  0  0  0  0  0  0  0
    2.5374    0.6551   -1.4228 N   0  0  0  0  0  0  0  0  0  0  0  0
    1.6235    0.8651   -2.5172 C   0  0  0  0  0  0  0  0  0  0  0  0
    0.7971   -0.1788   -2.9602 C   0  0  0  0  0  0  0  0  0  0  0  0
   -0.0429    0.0084   -4.0624 C   0  0  0  0  0  0  0  0  0  0  0  0
   -0.0779    1.2436   -4.7295 C   0  0  0  0  0  0  0  0  0  0  0  0
   -0.9643    1.4320   -5.9239 C   0  0  0  0  0  0  0  0  0  0  0  0
    0.7196    2.2984   -4.2632 C   0  0  0  0  0  0  0  0  0  0  0  0
    1.5699    2.1083   -3.1737 C   0  0  0  0  0  0  0  0  0  0  0  0
    2.0939    0.1595   -0.1362 C   0  0  0  0  0  0  0  0  0  0  0  0
    0.7782    0.3723    0.3186 C   0  0  0  0  0  0  0  0  0  0  0  0
    0.4242    0.0561    1.6363 C   0  0  0  0  0  0  0  0  0  0  0  0
    1.3732   -0.4970    2.5130 C   0  0  0  0  0  0  0  0  0  0  0  0
    1.0167   -0.7723    3.9417 C   0  0  0  0  0  0  0  0  0  0  0  0
    2.6725   -0.7329    2.0589 C   0  0  0  0  0  0  0  0  0  0  0  0
    3.0272   -0.4082    0.7537 C   0  0  0  0  0  0  0  0  0  0  0  0
    4.2152    2.3205   -0.7305 C   0  0  0  0  0  0  0  0  0  0  0  0
    3.3575    3.2881    0.2952 S   0  0  0  0  0  0  0  0  0  0  0  0
    4.8955   -0.6376   -2.8244 C   0  0  0  0  0  0  0  0  0  0  0  0
    5.1904   -1.8244   -2.2627 C   0  0  0  0  0  0  0  0  0  0  0  0
    5.7114   -2.0171   -0.9050 C   0  0  0  0  0  0  0  0  0  0  0  0
    6.4874   -1.2429   -0.2836 O   0  0  0  0  0  0  0  0  0  0  0  0
    5.1730   -3.2562   -0.3806 C   0  0  0  0  0  0  0  0  0  0  0  0
    5.2021   -3.7219    0.9335 C   0  0  0  0  0  0  0  0  0  0  0  0
    4.4707   -4.8742    1.2504 C   0  0  0  0  0  0  0  0  0  0  0  0
    3.7007   -5.5183    0.2638 C   0  0  0  0  0  0  0  0  0  0  0  0
    2.7442   -6.9316    0.6823 Cl  0  0  0  0  0  0  0  0  0  0  0  0
    3.6720   -5.0203   -1.0501 C   0  0  0  0  0  0  0  0  0  0  0  0
    4.4450   -3.8925   -1.3698 C   0  0  0  0  0  0  0  0  0  0  0  0
    4.5381   -3.1129   -2.6324 C   0  0  0  0  0  0  0  0  0  0  0  0
    4.2589   -3.5450   -3.8867 C   0  0  0  0  0  0  0  0  0  0  0  0
    3.7318   -4.8581   -4.1505 C   0  0  0  0  0  0  0  0  0  0  0  0
    3.3047   -5.9113   -4.3734 N   0  0  0  0  0  0  0  0  0  0  0  0
    4.5900   -2.7588   -5.0486 C   0  0  0  0  0  0  0  0  0  0  0  0
    4.8573   -2.1345   -5.9857 N   0  0  0  0  0  0  0  0  0  0  0  0
   -6.7083   -2.3857   -4.8606 H   0  0  0  0  0  0  0  0  0  0  0  0
   -2.1685   -6.7409   -5.2078 H   0  0  0  0  0  0  0  0  0  0  0  0
   -1.8380   -8.0214   -7.3042 H   0  0  0  0  0  0  0  0  0  0  0  0
   -5.0010   -5.8298   -9.1861 H   0  0  0  0  0  0  0  0  0  0  0  0
   -3.6598    2.1659   -3.9897 H   0  0  0  0  0  0  0  0  0  0  0  0
   -4.7158    4.2497   -3.2149 H   0  0  0  0  0  0  0  0  0  0  0  0
   -6.8427    4.7082   -1.0098 H   0  0  0  0  0  0  0  0  0  0  0  0
   -6.8709    5.4297   -2.6754 H   0  0  0  0  0  0  0  0  0  0  0  0
   -8.2830    4.4859   -2.0826 H   0  0  0  0  0  0  0  0  0  0  0  0
   -8.2192    2.0295   -2.0282 H   0  0  0  0  0  0  0  0  0  0  0  0
   -7.1637   -0.0447   -2.8131 H   0  0  0  0  0  0  0  0  0  0  0  0
   -5.4407    0.9540   -6.1459 H   0  0  0  0  0  0  0  0  0  0  0  0
   -4.5285    0.5990   -8.3925 H   0  0  0  0  0  0  0  0  0  0  0  0
   -2.5567   -0.1820   -9.7264 H   0  0  0  0  0  0  0  0  0  0  0  0
   -3.1892   -1.8777   -9.7010 H   0  0  0  0  0  0  0  0  0  0  0  0
   -1.5208   -1.5099   -9.1079 H   0  0  0  0  0  0  0  0  0  0  0  0
   -1.8806   -2.4290   -6.8507 H   0  0  0  0  0  0  0  0  0  0  0  0
   -2.7413   -2.0387   -4.5947 H   0  0  0  0  0  0  0  0  0  0  0  0
   -3.8996   -4.6658    0.7006 H   0  0  0  0  0  0  0  0  0  0  0  0
   -3.2130   -6.6532    1.9626 H   0  0  0  0  0  0  0  0  0  0  0  0
   -4.7805   -8.1858    4.3674 H   0  0  0  0  0  0  0  0  0  0  0  0
   -3.0321   -7.8002    4.1154 H   0  0  0  0  0  0  0  0  0  0  0  0
   -3.8904   -7.1517    5.5549 H   0  0  0  0  0  0  0  0  0  0  0  0
   -5.7236   -5.4394    5.2518 H   0  0  0  0  0  0  0  0  0  0  0  0
   -6.4229   -3.4603    3.9876 H   0  0  0  0  0  0  0  0  0  0  0  0
   -6.6182   -0.2472    1.9015 H   0  0  0  0  0  0  0  0  0  0  0  0
   -8.9634    0.4482    1.7450 H   0  0  0  0  0  0  0  0  0  0  0  0
  -11.7280   -1.8217    0.5982 H   0  0  0  0  0  0  0  0  0  0  0  0
  -11.5817   -1.0181    2.2131 H   0  0  0  0  0  0  0  0  0  0  0  0
  -11.1973   -0.1058    0.7010 H   0  0  0  0  0  0  0  0  0  0  0  0
  -10.1109   -3.6255    0.9201 H   0  0  0  0  0  0  0  0  0  0  0  0
   -7.7650   -4.3269    1.1015 H   0  0  0  0  0  0  0  0  0  0  0  0
   -3.0308   -2.9457    5.1237 H   0  0  0  0  0  0  0  0  0  0  0  0
   -1.6014   -4.9503    5.0369 H   0  0  0  0  0  0  0  0  0  0  0  0
   -0.2226   -5.4222    3.0429 H   0  0  0  0  0  0  0  0  0  0  0  0
    0.8547   -4.5355    1.0072 H   0  0  0  0  0  0  0  0  0  0  0  0
    0.3066   -2.9904    0.2924 H   0  0  0  0  0  0  0  0  0  0  0  0
   -1.7306   -4.0938   -0.6322 H   0  0  0  0  0  0  0  0  0  0  0  0
   -1.2441   -5.6648    0.1342 H   0  0  0  0  0  0  0  0  0  0  0  0
   -0.2352   -4.9384   -1.1773 H   0  0  0  0  0  0  0  0  0  0  0  0
   -1.6895   -1.8514    1.1714 H   0  0  0  0  0  0  0  0  0  0  0  0
    7.5259    5.6257    3.3056 H   0  0  0  0  0  0  0  0  0  0  0  0
    9.4871    4.3678    4.1149 H   0  0  0  0  0  0  0  0  0  0  0  0
    9.2038    2.1311    5.1254 H   0  0  0  0  0  0  0  0  0  0  0  0
    5.8154    0.6374    5.8414 H   0  0  0  0  0  0  0  0  0  0  0  0
    7.5135    0.6900    6.4032 H   0  0  0  0  0  0  0  0  0  0  0  0
    6.6147   -0.3360    3.6246 H   0  0  0  0  0  0  0  0  0  0  0  0
    6.9717   -1.3683    5.0608 H   0  0  0  0  0  0  0  0  0  0  0  0
    8.2924   -0.3928    4.3205 H   0  0  0  0  0  0  0  0  0  0  0  0
    4.9713    2.3272    4.3371 H   0  0  0  0  0  0  0  0  0  0  0  0
   -2.5207    5.4611    4.3617 H   0  0  0  0  0  0  0  0  0  0  0  0
   -3.3326    4.3458    3.1811 H   0  0  0  0  0  0  0  0  0  0  0  0
   -4.0765    4.7558    6.1554 H   0  0  0  0  0  0  0  0  0  0  0  0
   -4.9482    3.6822    4.9800 H   0  0  0  0  0  0  0  0  0  0  0  0
   -4.9426    5.4655    4.7359 H   0  0  0  0  0  0  0  0  0  0  0  0
   -1.1008    4.9359    2.7997 H   0  0  0  0  0  0  0  0  0  0  0  0
    0.3635    5.6495    2.2344 H   0  0  0  0  0  0  0  0  0  0  0  0
    0.1917    3.3731    1.3375 H   0  0  0  0  0  0  0  0  0  0  0  0
    1.5134    3.3278    2.5709 H   0  0  0  0  0  0  0  0  0  0  0  0
   -0.1199    2.6753    2.9677 H   0  0  0  0  0  0  0  0  0  0  0  0
    5.8818    5.8656   -1.0453 H   0  0  0  0  0  0  0  0  0  0  0  0
    6.4627    8.2080   -1.4032 H   0  0  0  0  0  0  0  0  0  0  0  0
    9.3174    9.6014   -1.2814 H   0  0  0  0  0  0  0  0  0  0  0  0
    7.7134   10.1888   -0.6912 H   0  0  0  0  0  0  0  0  0  0  0  0
    9.0871   10.0384    0.4594 H   0  0  0  0  0  0  0  0  0  0  0  0
    9.9286    7.7572    1.1129 H   0  0  0  0  0  0  0  0  0  0  0  0
    9.3474    5.4084    1.4983 H   0  0  0  0  0  0  0  0  0  0  0  0
    9.6275    3.9795   -0.8195 H   0  0  0  0  0  0  0  0  0  0  0  0
   11.3104    2.2042   -0.7112 H   0  0  0  0  0  0  0  0  0  0  0  0
   10.8638   -0.9454   -0.0044 H   0  0  0  0  0  0  0  0  0  0  0  0
   12.1981    0.2120    0.3737 H   0  0  0  0  0  0  0  0  0  0  0  0
   11.2860   -0.5696    1.7101 H   0  0  0  0  0  0  0  0  0  0  0  0
    8.8031   -0.0264    1.9867 H   0  0  0  0  0  0  0  0  0  0  0  0
    7.1315    1.7646    1.9150 H   0  0  0  0  0  0  0  0  0  0  0  0
    0.8252   -1.1400   -2.4675 H   0  0  0  0  0  0  0  0  0  0  0  0
   -0.6465   -0.8171   -4.4082 H   0  0  0  0  0  0  0  0  0  0  0  0
   -0.7949    0.6108   -6.6496 H   0  0  0  0  0  0  0  0  0  0  0  0
   -0.7586    2.3948   -6.4389 H   0  0  0  0  0  0  0  0  0  0  0  0
   -2.0244    1.4281   -5.6053 H   0  0  0  0  0  0  0  0  0  0  0  0
    0.6940    3.2639   -4.7519 H   0  0  0  0  0  0  0  0  0  0  0  0
    2.1859    2.9347   -2.8396 H   0  0  0  0  0  0  0  0  0  0  0  0
    0.0415    0.8427   -0.3198 H   0  0  0  0  0  0  0  0  0  0  0  0
   -0.5798    0.2662    1.9832 H   0  0  0  0  0  0  0  0  0  0  0  0
    1.8502   -1.2721    4.4811 H   0  0  0  0  0  0  0  0  0  0  0  0
    0.7898    0.1833    4.4580 H   0  0  0  0  0  0  0  0  0  0  0  0
    0.1368   -1.4423    3.9847 H   0  0  0  0  0  0  0  0  0  0  0  0
    3.4268   -1.1376    2.7230 H   0  0  0  0  0  0  0  0  0  0  0  0
    4.0524   -0.5394    0.4599 H   0  0  0  0  0  0  0  0  0  0  0  0
    4.2559   -0.6146   -3.6940 H   0  0  0  0  0  0  0  0  0  0  0  0
    5.7554   -3.1955    1.6992 H   0  0  0  0  0  0  0  0  0  0  0  0
    4.4842   -5.2507    2.2648 H   0  0  0  0  0  0  0  0  0  0  0  0
    3.0251   -5.4901   -1.7695 H   0  0  0  0  0  0  0  0  0  0  0  0
  1  2  2  3
  2  3  1  0
  3  4  2  0
  3  5  1  0
  5  6  2  0
  6  7  1  0
  7  8  2  0
  8  9  1  0
  8 10  1  0
 10 11  2  0
 11 12  1  0
 12 13  2  3
 13 14  1  0
 14 15  3  0
 13 16  1  0
 16 17  3  0
  1 18  1  0
 18 19  2  0
 19 20  1  0
 20 21  1  0
 21 22  2  0
 22 23  1  0
 23 24  2  0
 24 25  1  0
 24 26  1  0
 26 27  2  0
 20 28  1  0
 28 29  2  0
 29 30  1  0
 30 31  2  0
 31 32  1  0
 31 33  1  0
 33 34  2  0
 19 35  1  0
 35 36  1  0
 36 37  1  0
 37 38  2  0
 38 39  1  0
 39 40  1  0
 40 41  2  0
 41 42  1  0
 42 43  2  0
 43 44  1  0
 43 45  1  0
 45 46  2  0
 39 47  1  0
 47 48  2  0
 48 49  1  0
 49 50  2  0
 50 51  1  0
 50 52  1  0
 52 53  2  0
 38 54  1  0
 54 55  1  0
 37 56  1  0
 56 57  2  0
 57 58  1  0
 58 59  2  0
 59 60  1  0
 60 61  2  0
 61 62  1  0
 62 63  1  0
 63 64  1  0
 62 65  2  0
 57 66  1  0
 66 67  1  0
 67 68  1  0
 68 69  1  0
 69 70  1  0
 70 71  1  0
 71 72  2  0
 72 73  1  0
 73 74  1  0
 71 75  1  0
 75 76  1  0
 76 77  1  0
 77 78  1  0
 78 79  1  0
 79 80  1  0
 80 81  2  0
 81 82  1  0
 82 83  2  0
 83 84  1  0
 84 85  1  0
 85 86  1  0
 84 87  2  0
 79 88  2  0
 88 89  1  0
 89 90  1  0
 90 91  1  0
 91 92  1  0
 92 93  1  0
 93 94  1  0
 94 95  1  0
 95 96  1  0
 96 97  1  0
 97 98  1  0
 95 99  1  0
 99100  1  0
 92101  1  0
101102  1  0
 88103  1  0
103104  2  0
104105  1  0
105106  1  0
106107  2  0
107108  1  0
108109  2  0
109110  1  0
109111  1  0
111112  2  0
105113  1  0
113114  2  0
114115  1  0
115116  2  0
116117  1  0
116118  1  0
118119  2  0
104120  1  0
120121  1  0
121122  1  0
122123  2  0
123124  1  0
124125  1  0
125126  2  0
126127  1  0
127128  2  0
128129  1  0
128130  1  0
130131  2  0
124132  1  0
132133  2  0
133134  1  0
134135  2  0
135136  1  0
135137  1  0
137138  2  0
123139  1  0
139140  1  0
122141  1  0
141142  2  3
142143  1  0
143144  2  0
143145  1  0
145146  2  0
146147  1  0
147148  2  0
148149  1  0
148150  1  0
150151  2  0
151152  1  0
152153  2  3
153154  1  0
154155  3  0
153156  1  0
156157  3  0
 12  2  1  0
 55 18  1  0
 98 56  1  0
140103  1  0
152142  1  0
 11  5  1  0
 27 21  1  0
 34 28  1  0
 54 35  2  0
 65 58  1  0
 97 66  2  0
112106  1  0
119113  1  0
139120  2  0
151145  1  0
 46 40  1  0
 53 47  1  0
 96 68  2  0
131125  1  0
138132  1  0
 94 69  2  0
 74 70  2  0
 93 75  2  0
 91 76  2  0
 90 78  2  0
 87 80  1  0
  1158  1  0
  6159  1  0
  7160  1  0
 10161  1  0
 22162  1  0
 23163  1  0
 25164  1  0
 25165  1  0
 25166  1  0
 26167  1  0
 27168  1  0
 29169  1  0
 30170  1  0
 32171  1  0
 32172  1  0
 32173  1  0
 33174  1  0
 34175  1  0
 41176  1  0
 42177  1  0
 44178  1  0
 44179  1  0
 44180  1  0
 45181  1  0
 46182  1  0
 48183  1  0
 49184  1  0
 51185  1  0
 51186  1  0
 51187  1  0
 52188  1  0
 53189  1  0
 59190  1  0
 60191  1  0
 61192  1  0
 63193  1  0
 63194  1  0
 64195  1  0
 64196  1  0
 64197  1  0
 65198  1  0
 81199  1  0
 82200  1  0
 83201  1  0
 85202  1  0
 85203  1  0
 86204  1  0
 86205  1  0
 86206  1  0
 87207  1  0
 99208  1  0
 99209  1  0
100210  1  0
100211  1  0
100212  1  0
101213  1  0
101214  1  0
102215  1  0
102216  1  0
102217  1  0
107218  1  0
108219  1  0
110220  1  0
110221  1  0
110222  1  0
111223  1  0
112224  1  0
114225  1  0
115226  1  0
117227  1  0
117228  1  0
117229  1  0
118230  1  0
119231  1  0
126232  1  0
127233  1  0
129234  1  0
129235  1  0
129236  1  0
130237  1  0
131238  1  0
133239  1  0
134240  1  0
136241  1  0
136242  1  0
136243  1  0
137244  1  0
138245  1  0
141246  1  0
146247  1  0
147248  1  0
150249  1  0
M  END

