
     RDKit          3D

249274  0  0  0  0  0  0  0  0999 V2000
    5.2024   -5.8277   -7.2619 C   0  0  0  0  0  0  0  0  0  0  0  0
    6.0354   -6.8840   -7.2308 C   0  0  0  0  0  0  0  0  0  0  0  0
    6.7382   -7.3826   -6.0349 C   0  0  0  0  0  0  0  0  0  0  0  0
    6.4416   -7.1429   -4.8319 O   0  0  0  0  0  0  0  0  0  0  0  0
    7.8743   -8.1661   -6.4676 C   0  0  0  0  0  0  0  0  0  0  0  0
    8.9034   -8.6953   -5.6873 C   0  0  0  0  0  0  0  0  0  0  0  0
    9.9767   -9.3176   -6.3384 C   0  0  0  0  0  0  0  0  0  0  0  0
   10.0197   -9.3721   -7.7438 C   0  0  0  0  0  0  0  0  0  0  0  0
   11.5188  -10.1712   -8.6213 Br  0  0  0  0  0  0  0  0  0  0  0  0
    8.9808   -8.8154   -8.5096 C   0  0  0  0  0  0  0  0  0  0  0  0
    7.8830   -8.2381   -7.8475 C   0  0  0  0  0  0  0  0  0  0  0  0
    6.6881   -7.5439   -8.4013 C   0  0  0  0  0  0  0  0  0  0  0  0
    6.1703   -7.6861   -9.6479 C   0  0  0  0  0  0  0  0  0  0  0  0
    4.8943   -7.1338  -10.0231 C   0  0  0  0  0  0  0  0  0  0  0  0
    3.8653   -6.7059  -10.3405 N   0  0  0  0  0  0  0  0  0  0  0  0
    6.7601   -8.5630  -10.6287 C   0  0  0  0  0  0  0  0  0  0  0  0
    7.2184   -9.2716  -11.4209 N   0  0  0  0  0  0  0  0  0  0  0  0
    4.7583   -5.1488   -6.0346 C   0  0  0  0  0  0  0  0  0  0  0  0
    3.8706   -5.6766   -5.0881 C   0  0  0  0  0  0  0  0  0  0  0  0
    2.8136   -6.5816   -5.4259 N   0  0  0  0  0  0  0  0  0  0  0  0
    1.6444   -6.0466   -6.0569 C   0  0  0  0  0  0  0  0  0  0  0  0
    0.5355   -5.6803   -5.2835 C   0  0  0  0  0  0  0  0  0  0  0  0
   -0.5597   -5.0535   -5.8823 C   0  0  0  0  0  0  0  0  0  0  0  0
   -0.5633   -4.8013   -7.2652 C   0  0  0  0  0  0  0  0  0  0  0  0
   -1.6921   -4.0454   -7.8977 C   0  0  0  0  0  0  0  0  0  0  0  0
    0.5452   -5.1866   -8.0382 C   0  0  0  0  0  0  0  0  0  0  0  0
    1.6415   -5.8092   -7.4367 C   0  0  0  0  0  0  0  0  0  0  0  0
    2.8693   -7.9773   -5.1060 C   0  0  0  0  0  0  0  0  0  0  0  0
    2.5836   -8.4175   -3.8070 C   0  0  0  0  0  0  0  0  0  0  0  0
    2.4399   -9.7832   -3.5411 C   0  0  0  0  0  0  0  0  0  0  0  0
    2.5789  -10.7244   -4.5745 C   0  0  0  0  0  0  0  0  0  0  0  0
    2.2898  -12.1722   -4.3150 C   0  0  0  0  0  0  0  0  0  0  0  0
    2.8883  -10.2843   -5.8699 C   0  0  0  0  0  0  0  0  0  0  0  0
    3.0304   -8.9182   -6.1367 C   0  0  0  0  0  0  0  0  0  0  0  0
    3.8744   -4.8999   -3.9315 C   0  0  0  0  0  0  0  0  0  0  0  0
    3.0833   -4.9896   -2.4627 S   0  0  0  0  0  0  0  0  0  0  0  0
    3.8428   -3.6095   -1.8205 C   0  0  0  0  0  0  0  0  0  0  0  0
    4.6722   -3.0210   -2.7983 C   0  0  0  0  0  0  0  0  0  0  0  0
    5.2327   -1.6903   -2.7269 N   0  0  0  0  0  0  0  0  0  0  0  0
    4.4415   -0.5937   -2.2021 C   0  0  0  0  0  0  0  0  0  0  0  0
    5.0679    0.5137   -1.5951 C   0  0  0  0  0  0  0  0  0  0  0  0
    4.3099    1.5628   -1.0660 C   0  0  0  0  0  0  0  0  0  0  0  0
    2.9101    1.5423   -1.1596 C   0  0  0  0  0  0  0  0  0  0  0  0
    2.0971    2.6502   -0.5550 C   0  0  0  0  0  0  0  0  0  0  0  0
    2.2785    0.4611   -1.7854 C   0  0  0  0  0  0  0  0  0  0  0  0
    3.0360   -0.5889   -2.3147 C   0  0  0  0  0  0  0  0  0  0  0  0
    6.4845   -1.4175   -3.3978 C   0  0  0  0  0  0  0  0  0  0  0  0
    7.5632   -2.3092   -3.2805 C   0  0  0  0  0  0  0  0  0  0  0  0
    8.7372   -2.1042   -4.0094 C   0  0  0  0  0  0  0  0  0  0  0  0
    8.8520   -1.0024   -4.8728 C   0  0  0  0  0  0  0  0  0  0  0  0
   10.0782   -0.8130   -5.7136 C   0  0  0  0  0  0  0  0  0  0  0  0
    7.7819   -0.1048   -4.9877 C   0  0  0  0  0  0  0  0  0  0  0  0
    6.6064   -0.3125   -4.2622 C   0  0  0  0  0  0  0  0  0  0  0  0
    4.6882   -3.8100   -3.9547 C   0  0  0  0  0  0  0  0  0  0  0  0
    5.4821   -3.7338   -5.4341 S   0  0  0  0  0  0  0  0  0  0  0  0
    3.6590   -3.1921   -0.4217 C   0  0  0  0  0  0  0  0  0  0  0  0
    4.6686   -2.8715    0.5116 C   0  0  0  0  0  0  0  0  0  0  0  0
    6.1217   -2.8019    0.2619 C   0  0  0  0  0  0  0  0  0  0  0  0
    6.7468   -1.5455    0.3747 C   0  0  0  0  0  0  0  0  0  0  0  0
    8.1274   -1.4254    0.2420 C   0  0  0  0  0  0  0  0  0  0  0  0
    8.9102   -2.5583    0.0345 C   0  0  0  0  0  0  0  0  0  0  0  0
    8.3112   -3.8197   -0.0251 C   0  0  0  0  0  0  0  0  0  0  0  0
    6.9152   -3.9635    0.0883 C   0  0  0  0  0  0  0  0  0  0  0  0
    6.3326   -5.3644    0.1195 C   0  0  0  0  0  0  0  0  0  0  0  0
    6.5387   -6.0924   -1.2046 C   0  0  0  0  0  0  0  0  0  0  0  0
    4.1307   -2.7229    1.7887 C   0  0  0  0  0  0  0  0  0  0  0  0
    4.8130   -2.2957    3.2823 S   0  0  0  0  0  0  0  0  0  0  0  0
    3.3032   -2.4582    4.0401 C   0  0  0  0  0  0  0  0  0  0  0  0
    2.7208   -1.9649    5.1680 C   0  0  0  0  0  0  0  0  0  0  0  0
    3.2757   -1.1080    6.1229 C   0  0  0  0  0  0  0  0  0  0  0  0
    2.4050   -0.3331    6.9299 C   0  0  0  0  0  0  0  0  0  0  0  0
    2.9765    0.5677    7.7703 N   0  0  0  0  0  0  0  0  0  0  0  0
    4.5732    0.3096    7.4077 S   0  0  0  0  0  0  0  0  0  0  0  0
    4.6066   -0.8682    6.2451 N   0  0  0  0  0  0  0  0  0  0  0  0
    1.0279   -0.5253    6.8085 C   0  0  0  0  0  0  0  0  0  0  0  0
    0.0015    0.2502    7.2774 C   0  0  0  0  0  0  0  0  0  0  0  0
   -0.0593    1.9404    7.4085 S   0  0  0  0  0  0  0  0  0  0  0  0
   -1.6086    2.0045    6.7269 C   0  0  0  0  0  0  0  0  0  0  0  0
   -2.2626    3.0358    6.0516 C   0  0  0  0  0  0  0  0  0  0  0  0
   -1.8369    4.4425    6.1407 C   0  0  0  0  0  0  0  0  0  0  0  0
   -0.7357    4.9517    5.4063 C   0  0  0  0  0  0  0  0  0  0  0  0
    0.0832    4.1032    4.4499 C   0  0  0  0  0  0  0  0  0  0  0  0
   -0.4876    4.1310    3.0363 C   0  0  0  0  0  0  0  0  0  0  0  0
   -0.4161    6.3100    5.5257 C   0  0  0  0  0  0  0  0  0  0  0  0
   -1.1615    7.1469    6.3623 C   0  0  0  0  0  0  0  0  0  0  0  0
   -2.2592    6.6487    7.0564 C   0  0  0  0  0  0  0  0  0  0  0  0
   -2.5972    5.3017    6.9537 C   0  0  0  0  0  0  0  0  0  0  0  0
   -3.3010    2.5427    5.2299 C   0  0  0  0  0  0  0  0  0  0  0  0
   -3.2949    0.8457    5.3135 S   0  0  0  0  0  0  0  0  0  0  0  0
   -2.0618    0.7493    6.4333 C   0  0  0  0  0  0  0  0  0  0  0  0
   -1.1426   -0.2498    6.7058 C   0  0  0  0  0  0  0  0  0  0  0  0
   -0.9013   -1.3219    5.9238 N   0  0  0  0  0  0  0  0  0  0  0  0
    0.4638   -1.4425    5.9081 C   0  0  0  0  0  0  0  0  0  0  0  0
    1.3267   -2.0925    4.9724 C   0  0  0  0  0  0  0  0  0  0  0  0
    1.0746   -2.5718    3.7012 N   0  0  0  0  0  0  0  0  0  0  0  0
    2.3089   -2.7815    3.1830 C   0  0  0  0  0  0  0  0  0  0  0  0
    2.7816   -2.9271    1.8817 C   0  0  0  0  0  0  0  0  0  0  0  0
    2.1547   -3.2954    0.3756 S   0  0  0  0  0  0  0  0  0  0  0  0
   -0.1526   -2.5372    2.8952 C   0  0  0  0  0  0  0  0  0  0  0  0
   -0.5729   -1.1022    2.5747 C   0  0  0  0  0  0  0  0  0  0  0  0
   -1.9515   -2.3112    5.6410 C   0  0  0  0  0  0  0  0  0  0  0  0
   -1.5168   -3.7351    5.9970 C   0  0  0  0  0  0  0  0  0  0  0  0
   -4.1888    3.3329    4.3542 C   0  0  0  0  0  0  0  0  0  0  0  0
   -5.3790    2.8986    3.7367 C   0  0  0  0  0  0  0  0  0  0  0  0
   -5.8079    1.5337    3.6369 N   0  0  0  0  0  0  0  0  0  0  0  0
   -6.8997    1.1090    4.4754 C   0  0  0  0  0  0  0  0  0  0  0  0
   -6.9288    1.4630    5.8366 C   0  0  0  0  0  0  0  0  0  0  0  0
   -8.0033    1.0874    6.6433 C   0  0  0  0  0  0  0  0  0  0  0  0
   -9.0680    0.3495    6.1055 C   0  0  0  0  0  0  0  0  0  0  0  0
  -10.2406   -0.0147    6.9653 C   0  0  0  0  0  0  0  0  0  0  0  0
   -9.0541    0.0120    4.7433 C   0  0  0  0  0  0  0  0  0  0  0  0
   -7.9800    0.3930    3.9336 C   0  0  0  0  0  0  0  0  0  0  0  0
   -5.2302    0.6704    2.6203 C   0  0  0  0  0  0  0  0  0  0  0  0
   -4.6101    1.2127    1.4757 C   0  0  0  0  0  0  0  0  0  0  0  0
   -4.0485    0.3788    0.5028 C   0  0  0  0  0  0  0  0  0  0  0  0
   -4.0902   -1.0103    0.6509 C   0  0  0  0  0  0  0  0  0  0  0  0
   -3.4512   -1.8933   -0.3834 C   0  0  0  0  0  0  0  0  0  0  0  0
   -4.6680   -1.5616    1.8020 C   0  0  0  0  0  0  0  0  0  0  0  0
   -5.2345   -0.7296    2.7756 C   0  0  0  0  0  0  0  0  0  0  0  0
   -5.9891    3.9238    3.0259 C   0  0  0  0  0  0  0  0  0  0  0  0
   -7.2601    3.9726    1.9368 S   0  0  0  0  0  0  0  0  0  0  0  0
   -6.9308    5.5726    1.4499 C   0  0  0  0  0  0  0  0  0  0  0  0
   -5.7760    6.0482    2.1079 C   0  0  0  0  0  0  0  0  0  0  0  0
   -4.9397    7.1105    1.6120 N   0  0  0  0  0  0  0  0  0  0  0  0
   -4.5087    6.9845    0.2454 C   0  0  0  0  0  0  0  0  0  0  0  0
   -3.8050    5.8395   -0.1652 C   0  0  0  0  0  0  0  0  0  0  0  0
   -3.4003    5.6960   -1.4885 C   0  0  0  0  0  0  0  0  0  0  0  0
   -3.6907    6.7004   -2.4269 C   0  0  0  0  0  0  0  0  0  0  0  0
   -3.3063    6.5120   -3.8640 C   0  0  0  0  0  0  0  0  0  0  0  0
   -4.3839    7.8520   -2.0184 C   0  0  0  0  0  0  0  0  0  0  0  0
   -4.7764    8.0019   -0.6871 C   0  0  0  0  0  0  0  0  0  0  0  0
   -4.2151    7.9782    2.5234 C   0  0  0  0  0  0  0  0  0  0  0  0
   -4.6982    8.2192    3.8274 C   0  0  0  0  0  0  0  0  0  0  0  0
   -3.9639    8.9969    4.7309 C   0  0  0  0  0  0  0  0  0  0  0  0
   -2.7326    9.5473    4.3557 C   0  0  0  0  0  0  0  0  0  0  0  0
   -1.9545   10.4206    5.2982 C   0  0  0  0  0  0  0  0  0  0  0  0
   -2.2527    9.3297    3.0582 C   0  0  0  0  0  0  0  0  0  0  0  0
   -2.9806    8.5529    2.1551 C   0  0  0  0  0  0  0  0  0  0  0  0
   -5.3126    5.0985    3.0110 C   0  0  0  0  0  0  0  0  0  0  0  0
   -3.9106    4.9467    3.8971 S   0  0  0  0  0  0  0  0  0  0  0  0
   -7.7005    6.2601    0.4043 C   0  0  0  0  0  0  0  0  0  0  0  0
   -8.0097    7.5656    0.4278 C   0  0  0  0  0  0  0  0  0  0  0  0
   -8.4020    8.3187   -0.7593 C   0  0  0  0  0  0  0  0  0  0  0  0
   -8.7904    7.8150   -1.8491 O   0  0  0  0  0  0  0  0  0  0  0  0
   -8.1421    9.7269   -0.5121 C   0  0  0  0  0  0  0  0  0  0  0  0
   -8.1692   10.7948   -1.4155 C   0  0  0  0  0  0  0  0  0  0  0  0
   -8.7820   10.5654   -3.0550 Cl  0  0  0  0  0  0  0  0  0  0  0  0
   -7.6726   12.0403   -0.9912 C   0  0  0  0  0  0  0  0  0  0  0  0
   -7.7116   13.4159   -2.0908 Cl  0  0  0  0  0  0  0  0  0  0  0  0
   -7.0846   12.1749    0.2898 C   0  0  0  0  0  0  0  0  0  0  0  0
   -6.3749   13.7179    0.7744 Cl  0  0  0  0  0  0  0  0  0  0  0  0
   -7.0365   11.0724    1.1676 C   0  0  0  0  0  0  0  0  0  0  0  0
   -5.9899   11.1539    2.5855 Cl  0  0  0  0  0  0  0  0  0  0  0  0
   -7.6628    9.8719    0.7843 C   0  0  0  0  0  0  0  0  0  0  0  0
   -7.7654    8.5701    1.4981 C   0  0  0  0  0  0  0  0  0  0  0  0
   -8.1618    8.4211    2.7900 C   0  0  0  0  0  0  0  0  0  0  0  0
   -8.3318    9.5368    3.6813 C   0  0  0  0  0  0  0  0  0  0  0  0
   -8.4552   10.4180    4.4235 N   0  0  0  0  0  0  0  0  0  0  0  0
   -8.6347    7.1705    3.3197 C   0  0  0  0  0  0  0  0  0  0  0  0
   -9.0154    6.1683    3.7694 N   0  0  0  0  0  0  0  0  0  0  0  0
    4.9604   -5.3467   -8.1938 H   0  0  0  0  0  0  0  0  0  0  0  0
    8.8828   -8.6109   -4.6101 H   0  0  0  0  0  0  0  0  0  0  0  0
   10.7922   -9.7266   -5.7531 H   0  0  0  0  0  0  0  0  0  0  0  0
    9.0713   -8.8046   -9.5830 H   0  0  0  0  0  0  0  0  0  0  0  0
    0.5302   -5.8673   -4.2165 H   0  0  0  0  0  0  0  0  0  0  0  0
   -1.4019   -4.7594   -5.2657 H   0  0  0  0  0  0  0  0  0  0  0  0
   -2.6269   -4.1563   -7.3038 H   0  0  0  0  0  0  0  0  0  0  0  0
   -1.4221   -2.9672   -7.9494 H   0  0  0  0  0  0  0  0  0  0  0  0
   -1.8844   -4.4239   -8.9258 H   0  0  0  0  0  0  0  0  0  0  0  0
    0.5639   -4.9917   -9.1046 H   0  0  0  0  0  0  0  0  0  0  0  0
    2.4923   -6.0936   -8.0394 H   0  0  0  0  0  0  0  0  0  0  0  0
    2.4070   -7.7032   -3.0156 H   0  0  0  0  0  0  0  0  0  0  0  0
    2.1688  -10.1057   -2.5431 H   0  0  0  0  0  0  0  0  0  0  0  0
    2.6772  -12.4679   -3.3154 H   0  0  0  0  0  0  0  0  0  0  0  0
    2.7738  -12.8205   -5.0785 H   0  0  0  0  0  0  0  0  0  0  0  0
    1.1909  -12.3411   -4.3407 H   0  0  0  0  0  0  0  0  0  0  0  0
    2.9715  -10.9933   -6.6882 H   0  0  0  0  0  0  0  0  0  0  0  0
    3.2309   -8.5853   -7.1505 H   0  0  0  0  0  0  0  0  0  0  0  0
    6.1465    0.5592   -1.5135 H   0  0  0  0  0  0  0  0  0  0  0  0
    4.8156    2.3916   -0.5828 H   0  0  0  0  0  0  0  0  0  0  0  0
    1.8891    2.4213    0.5128 H   0  0  0  0  0  0  0  0  0  0  0  0
    2.6463    3.6156   -0.6186 H   0  0  0  0  0  0  0  0  0  0  0  0
    1.1326    2.7675   -1.0949 H   0  0  0  0  0  0  0  0  0  0  0  0
    1.2017    0.4295   -1.8656 H   0  0  0  0  0  0  0  0  0  0  0  0
    2.5206   -1.4011   -2.8121 H   0  0  0  0  0  0  0  0  0  0  0  0
    7.4762   -3.1870   -2.6544 H   0  0  0  0  0  0  0  0  0  0  0  0
    9.5465   -2.8209   -3.9204 H   0  0  0  0  0  0  0  0  0  0  0  0
   10.4249    0.2433   -5.6505 H   0  0  0  0  0  0  0  0  0  0  0  0
    9.8347   -1.0488   -6.7729 H   0  0  0  0  0  0  0  0  0  0  0  0
   10.9077   -1.4745   -5.3813 H   0  0  0  0  0  0  0  0  0  0  0  0
    7.8452    0.7426   -5.6611 H   0  0  0  0  0  0  0  0  0  0  0  0
    5.7777    0.3691   -4.4065 H   0  0  0  0  0  0  0  0  0  0  0  0
    6.1599   -0.6644    0.5974 H   0  0  0  0  0  0  0  0  0  0  0  0
    8.5904   -0.4505    0.3210 H   0  0  0  0  0  0  0  0  0  0  0  0
    9.9813   -2.4602   -0.0670 H   0  0  0  0  0  0  0  0  0  0  0  0
    8.9438   -4.6905   -0.1363 H   0  0  0  0  0  0  0  0  0  0  0  0
    5.2478   -5.3604    0.3515 H   0  0  0  0  0  0  0  0  0  0  0  0
    6.8207   -5.9396    0.9333 H   0  0  0  0  0  0  0  0  0  0  0  0
    6.1425   -5.4946   -2.0494 H   0  0  0  0  0  0  0  0  0  0  0  0
    6.0033   -7.0655   -1.1768 H   0  0  0  0  0  0  0  0  0  0  0  0
    7.6166   -6.2899   -1.3786 H   0  0  0  0  0  0  0  0  0  0  0  0
    0.1533    3.0530    4.7931 H   0  0  0  0  0  0  0  0  0  0  0  0
    1.1243    4.4932    4.4202 H   0  0  0  0  0  0  0  0  0  0  0  0
    0.2233    3.6283    2.3448 H   0  0  0  0  0  0  0  0  0  0  0  0
   -0.6338    5.1763    2.6920 H   0  0  0  0  0  0  0  0  0  0  0  0
   -1.4558    3.5859    2.9970 H   0  0  0  0  0  0  0  0  0  0  0  0
    0.4181    6.7287    4.9782 H   0  0  0  0  0  0  0  0  0  0  0  0
   -0.8724    8.1779    6.4775 H   0  0  0  0  0  0  0  0  0  0  0  0
   -2.8466    7.3056    7.6853 H   0  0  0  0  0  0  0  0  0  0  0  0
   -3.4555    4.9256    7.4974 H   0  0  0  0  0  0  0  0  0  0  0  0
   -0.0063   -3.0671    1.9396 H   0  0  0  0  0  0  0  0  0  0  0  0
   -0.9438   -3.1312    3.3628 H   0  0  0  0  0  0  0  0  0  0  0  0
   -1.5613   -1.1064    2.0786 H   0  0  0  0  0  0  0  0  0  0  0  0
    0.1719   -0.6384    1.8932 H   0  0  0  0  0  0  0  0  0  0  0  0
   -0.6443   -0.4850    3.4896 H   0  0  0  0  0  0  0  0  0  0  0  0
   -2.8470   -2.0895    6.2654 H   0  0  0  0  0  0  0  0  0  0  0  0
   -2.3211   -2.2067    4.6098 H   0  0  0  0  0  0  0  0  0  0  0  0
   -2.3354   -4.4436    5.7504 H   0  0  0  0  0  0  0  0  0  0  0  0
   -1.2926   -3.7908    7.0814 H   0  0  0  0  0  0  0  0  0  0  0  0
   -0.6112   -4.0381    5.4346 H   0  0  0  0  0  0  0  0  0  0  0  0
   -6.1211    2.0353    6.2738 H   0  0  0  0  0  0  0  0  0  0  0  0
   -8.0104    1.3743    7.6880 H   0  0  0  0  0  0  0  0  0  0  0  0
   -9.9062   -0.2553    7.9967 H   0  0  0  0  0  0  0  0  0  0  0  0
  -10.9481    0.8403    7.0043 H   0  0  0  0  0  0  0  0  0  0  0  0
  -10.7671   -0.9049    6.5565 H   0  0  0  0  0  0  0  0  0  0  0  0
   -9.8828   -0.5303    4.3033 H   0  0  0  0  0  0  0  0  0  0  0  0
   -8.0043    0.1519    2.8784 H   0  0  0  0  0  0  0  0  0  0  0  0
   -4.5645    2.2829    1.3228 H   0  0  0  0  0  0  0  0  0  0  0  0
   -3.5829    0.8284   -0.3687 H   0  0  0  0  0  0  0  0  0  0  0  0
   -3.5961   -1.4647   -1.4011 H   0  0  0  0  0  0  0  0  0  0  0  0
   -2.3623   -1.9849   -0.1810 H   0  0  0  0  0  0  0  0  0  0  0  0
   -3.9089   -2.9064   -0.3710 H   0  0  0  0  0  0  0  0  0  0  0  0
   -4.6803   -2.6328    1.9511 H   0  0  0  0  0  0  0  0  0  0  0  0
   -5.6590   -1.1844    3.6616 H   0  0  0  0  0  0  0  0  0  0  0  0
   -3.5675    5.0586    0.5483 H   0  0  0  0  0  0  0  0  0  0  0  0
   -2.8763    4.7991   -1.7912 H   0  0  0  0  0  0  0  0  0  0  0  0
   -3.3907    7.4598   -4.4360 H   0  0  0  0  0  0  0  0  0  0  0  0
   -2.2548    6.1592   -3.9414 H   0  0  0  0  0  0  0  0  0  0  0  0
   -3.9751    5.7558   -4.3249 H   0  0  0  0  0  0  0  0  0  0  0  0
   -4.6360    8.6267   -2.7356 H   0  0  0  0  0  0  0  0  0  0  0  0
   -5.3006    8.8954   -0.3854 H   0  0  0  0  0  0  0  0  0  0  0  0
   -5.6454    7.8072    4.1464 H   0  0  0  0  0  0  0  0  0  0  0  0
   -4.3573    9.1628    5.7261 H   0  0  0  0  0  0  0  0  0  0  0  0
   -0.8690   10.1840    5.2277 H   0  0  0  0  0  0  0  0  0  0  0  0
   -2.2790   10.2622    6.3526 H   0  0  0  0  0  0  0  0  0  0  0  0
   -2.1054   11.4903    5.0351 H   0  0  0  0  0  0  0  0  0  0  0  0
   -1.3083    9.7594    2.7470 H   0  0  0  0  0  0  0  0  0  0  0  0
   -2.5544    8.3924    1.1734 H   0  0  0  0  0  0  0  0  0  0  0  0
   -7.9914    5.6690   -0.4551 H   0  0  0  0  0  0  0  0  0  0  0  0
  1  2  2  3
  2  3  1  0
  3  4  2  0
  3  5  1  0
  5  6  2  0
  6  7  1  0
  7  8  2  0
  8  9  1  0
  8 10  1  0
 10 11  2  0
 11 12  1  0
 12 13  2  3
 13 14  1  0
 14 15  3  0
 13 16  1  0
 16 17  3  0
  1 18  1  0
 18 19  2  0
 19 20  1  0
 20 21  1  0
 21 22  2  0
 22 23  1  0
 23 24  2  0
 24 25  1  0
 24 26  1  0
 26 27  2  0
 20 28  1  0
 28 29  2  0
 29 30  1  0
 30 31  2  0
 31 32  1  0
 31 33  1  0
 33 34  2  0
 19 35  1  0
 35 36  1  0
 36 37  1  0
 37 38  2  0
 38 39  1  0
 39 40  1  0
 40 41  2  0
 41 42  1  0
 42 43  2  0
 43 44  1  0
 43 45  1  0
 45 46  2  0
 39 47  1  0
 47 48  2  0
 48 49  1  0
 49 50  2  0
 50 51  1  0
 50 52  1  0
 52 53  2  0
 38 54  1  0
 54 55  1  0
 37 56  1  0
 56 57  2  0
 57 58  1  0
 58 59  2  0
 59 60  1  0
 60 61  2  0
 61 62  1  0
 62 63  2  0
 63 64  1  0
 64 65  1  0
 57 66  1  0
 66 67  1  0
 67 68  1  0
 68 69  1  0
 69 70  1  0
 70 71  1  0
 71 72  2  0
 72 73  1  0
 73 74  1  0
 71 75  1  0
 75 76  1  0
 76 77  1  0
 77 78  1  0
 78 79  1  0
 79 80  1  0
 80 81  2  0
 81 82  1  0
 82 83  1  0
 81 84  1  0
 84 85  2  0
 85 86  1  0
 86 87  2  0
 79 88  2  0
 88 89  1  0
 89 90  1  0
 90 91  1  0
 91 92  1  0
 92 93  1  0
 93 94  1  0
 94 95  1  0
 95 96  1  0
 96 97  1  0
 97 98  1  0
 95 99  1  0
 99100  1  0
 92101  1  0
101102  1  0
 88103  1  0
103104  2  0
104105  1  0
105106  1  0
106107  2  0
107108  1  0
108109  2  0
109110  1  0
109111  1  0
111112  2  0
105113  1  0
113114  2  0
114115  1  0
115116  2  0
116117  1  0
116118  1  0
118119  2  0
104120  1  0
120121  1  0
121122  1  0
122123  2  0
123124  1  0
124125  1  0
125126  2  0
126127  1  0
127128  2  0
128129  1  0
128130  1  0
130131  2  0
124132  1  0
132133  2  0
133134  1  0
134135  2  0
135136  1  0
135137  1  0
137138  2  0
123139  1  0
139140  1  0
122141  1  0
141142  2  3
142143  1  0
143144  2  0
143145  1  0
145146  2  0
146147  1  0
146148  1  0
148149  1  0
148150  2  0
150151  1  0
150152  1  0
152153  1  0
152154  2  0
154155  1  0
155156  2  3
156157  1  0
157158  3  0
156159  1  0
159160  3  0
 12  2  1  0
 55 18  1  0
 98 56  1  0
140103  1  0
155142  1  0
 11  5  1  0
 27 21  1  0
 34 28  1  0
 54 35  2  0
 63 58  1  0
 97 66  2  0
112106  1  0
119113  1  0
139120  2  0
154145  1  0
 46 40  1  0
 53 47  1  0
 96 68  2  0
131125  1  0
138132  1  0
 94 69  2  0
 74 70  2  0
 93 75  2  0
 91 76  2  0
 90 78  2  0
 87 80  1  0
  1161  1  0
  6162  1  0
  7163  1  0
 10164  1  0
 22165  1  0
 23166  1  0
 25167  1  0
 25168  1  0
 25169  1  0
 26170  1  0
 27171  1  0
 29172  1  0
 30173  1  0
 32174  1  0
 32175  1  0
 32176  1  0
 33177  1  0
 34178  1  0
 41179  1  0
 42180  1  0
 44181  1  0
 44182  1  0
 44183  1  0
 45184  1  0
 46185  1  0
 48186  1  0
 49187  1  0
 51188  1  0
 51189  1  0
 51190  1  0
 52191  1  0
 53192  1  0
 59193  1  0
 60194  1  0
 61195  1  0
 62196  1  0
 64197  1  0
 64198  1  0
 65199  1  0
 65200  1  0
 65201  1  0
 82202  1  0
 82203  1  0
 83204  1  0
 83205  1  0
 83206  1  0
 84207  1  0
 85208  1  0
 86209  1  0
 87210  1  0
 99211  1  0
 99212  1  0
100213  1  0
100214  1  0
100215  1  0
101216  1  0
101217  1  0
102218  1  0
102219  1  0
102220  1  0
107221  1  0
108222  1  0
110223  1  0
110224  1  0
110225  1  0
111226  1  0
112227  1  0
114228  1  0
115229  1  0
117230  1  0
117231  1  0
117232  1  0
118233  1  0
119234  1  0
126235  1  0
127236  1  0
129237  1  0
129238  1  0
129239  1  0
130240  1  0
131241  1  0
133242  1  0
134243  1  0
136244  1  0
136245  1  0
136246  1  0
137247  1  0
138248  1  0
141249  1  0
M  END

