
     RDKit          3D

249274  0  0  0  0  0  0  0  0999 V2000
    4.5911    1.2299    5.0878 C   0  0  0  0  0  0  0  0  0  0  0  0
    3.6646    2.2072    5.0759 C   0  0  0  0  0  0  0  0  0  0  0  0
    3.9548    3.6290    5.2186 C   0  0  0  0  0  0  0  0  0  0  0  0
    5.0432    4.1317    5.6038 O   0  0  0  0  0  0  0  0  0  0  0  0
    2.7645    4.3666    4.8420 C   0  0  0  0  0  0  0  0  0  0  0  0
    2.5193    5.7346    4.9594 C   0  0  0  0  0  0  0  0  0  0  0  0
    1.2315    6.2103    4.6576 C   0  0  0  0  0  0  0  0  0  0  0  0
    0.2473    5.3363    4.1728 C   0  0  0  0  0  0  0  0  0  0  0  0
   -1.4760    6.0063    3.6965 Br  0  0  0  0  0  0  0  0  0  0  0  0
    0.5071    3.9542    4.0841 C   0  0  0  0  0  0  0  0  0  0  0  0
    1.7740    3.4780    4.4610 C   0  0  0  0  0  0  0  0  0  0  0  0
    2.2144    2.0900    4.7540 C   0  0  0  0  0  0  0  0  0  0  0  0
    1.3956    1.1639    5.2972 C   0  0  0  0  0  0  0  0  0  0  0  0
    1.8097    0.4171    6.4609 C   0  0  0  0  0  0  0  0  0  0  0  0
    2.1403   -0.1532    7.4085 N   0  0  0  0  0  0  0  0  0  0  0  0
    0.0131    1.0256    4.9258 C   0  0  0  0  0  0  0  0  0  0  0  0
   -1.0998    0.9096    4.6336 N   0  0  0  0  0  0  0  0  0  0  0  0
    4.2848   -0.1516    4.6802 C   0  0  0  0  0  0  0  0  0  0  0  0
    3.6312   -0.5424    3.4955 C   0  0  0  0  0  0  0  0  0  0  0  0
    3.6286    0.2426    2.2838 N   0  0  0  0  0  0  0  0  0  0  0  0
    4.8123    0.9772    1.9122 C   0  0  0  0  0  0  0  0  0  0  0  0
    4.7053    2.2713    1.3745 C   0  0  0  0  0  0  0  0  0  0  0  0
    5.8526    2.9737    0.9954 C   0  0  0  0  0  0  0  0  0  0  0  0
    7.1223    2.3874    1.1308 C   0  0  0  0  0  0  0  0  0  0  0  0
    8.3531    3.1598    0.7642 C   0  0  0  0  0  0  0  0  0  0  0  0
    7.2297    1.0969    1.6691 C   0  0  0  0  0  0  0  0  0  0  0  0
    6.0837    0.3934    2.0461 C   0  0  0  0  0  0  0  0  0  0  0  0
    2.6222    0.0651    1.2799 C   0  0  0  0  0  0  0  0  0  0  0  0
    1.3759    0.6882    1.4110 C   0  0  0  0  0  0  0  0  0  0  0  0
    0.4644    0.6698    0.3495 C   0  0  0  0  0  0  0  0  0  0  0  0
    0.7981    0.0226   -0.8526 C   0  0  0  0  0  0  0  0  0  0  0  0
   -0.1131    0.1103   -2.0366 C   0  0  0  0  0  0  0  0  0  0  0  0
    2.0293   -0.6371   -0.9671 C   0  0  0  0  0  0  0  0  0  0  0  0
    2.9373   -0.6086    0.0928 C   0  0  0  0  0  0  0  0  0  0  0  0
    3.2452   -1.8867    3.5730 C   0  0  0  0  0  0  0  0  0  0  0  0
    2.4167   -2.9322    2.5676 S   0  0  0  0  0  0  0  0  0  0  0  0
    2.5168   -4.2638    3.6232 C   0  0  0  0  0  0  0  0  0  0  0  0
    3.2478   -3.8965    4.7721 C   0  0  0  0  0  0  0  0  0  0  0  0
    3.6640   -4.7970    5.8214 N   0  0  0  0  0  0  0  0  0  0  0  0
    4.1787   -6.1135    5.4938 C   0  0  0  0  0  0  0  0  0  0  0  0
    4.0397   -7.1851    6.3986 C   0  0  0  0  0  0  0  0  0  0  0  0
    4.5472   -8.4484    6.0894 C   0  0  0  0  0  0  0  0  0  0  0  0
    5.1986   -8.6726    4.8660 C   0  0  0  0  0  0  0  0  0  0  0  0
    5.7799  -10.0172    4.5429 C   0  0  0  0  0  0  0  0  0  0  0  0
    5.3654   -7.6046    3.9732 C   0  0  0  0  0  0  0  0  0  0  0  0
    4.8678   -6.3371    4.2869 C   0  0  0  0  0  0  0  0  0  0  0  0
    3.7380   -4.3012    7.1773 C   0  0  0  0  0  0  0  0  0  0  0  0
    4.8787   -4.5467    7.9656 C   0  0  0  0  0  0  0  0  0  0  0  0
    4.9970   -3.9742    9.2333 C   0  0  0  0  0  0  0  0  0  0  0  0
    3.9874   -3.1423    9.7373 C   0  0  0  0  0  0  0  0  0  0  0  0
    4.1572   -2.4829   11.0722 C   0  0  0  0  0  0  0  0  0  0  0  0
    2.8304   -2.9269    8.9700 C   0  0  0  0  0  0  0  0  0  0  0  0
    2.7151   -3.4907    7.6975 C   0  0  0  0  0  0  0  0  0  0  0  0
    3.6246   -2.5495    4.6998 C   0  0  0  0  0  0  0  0  0  0  0  0
    4.4795   -1.5020    5.7001 S   0  0  0  0  0  0  0  0  0  0  0  0
    1.8186   -5.5303    3.3443 C   0  0  0  0  0  0  0  0  0  0  0  0
    0.7535   -6.0629    4.1040 C   0  0  0  0  0  0  0  0  0  0  0  0
    0.3557   -5.5904    5.4379 C   0  0  0  0  0  0  0  0  0  0  0  0
    0.6895   -6.3547    6.5647 C   0  0  0  0  0  0  0  0  0  0  0  0
    0.2831   -5.9504    7.8352 C   0  0  0  0  0  0  0  0  0  0  0  0
   -0.4984   -4.8046    7.9880 C   0  0  0  0  0  0  0  0  0  0  0  0
   -0.8947   -4.0630    6.8626 C   0  0  0  0  0  0  0  0  0  0  0  0
   -1.7762   -2.8559    7.0296 C   0  0  0  0  0  0  0  0  0  0  0  0
   -0.9401   -1.6114    7.2791 C   0  0  0  0  0  0  0  0  0  0  0  0
   -0.4378   -4.4416    5.5900 C   0  0  0  0  0  0  0  0  0  0  0  0
   -0.0606   -6.9071    3.3340 C   0  0  0  0  0  0  0  0  0  0  0  0
   -1.7471   -7.1474    3.4403 S   0  0  0  0  0  0  0  0  0  0  0  0
   -1.8884   -7.5147    1.7871 C   0  0  0  0  0  0  0  0  0  0  0  0
   -2.8290   -7.1080    0.8621 C   0  0  0  0  0  0  0  0  0  0  0  0
   -4.2213   -6.9405    0.9255 C   0  0  0  0  0  0  0  0  0  0  0  0
   -4.9007   -6.3938   -0.2185 C   0  0  0  0  0  0  0  0  0  0  0  0
   -6.2458   -6.2603   -0.1206 N   0  0  0  0  0  0  0  0  0  0  0  0
   -6.4779   -6.8619    1.4072 S   0  0  0  0  0  0  0  0  0  0  0  0
   -4.9843   -7.2850    1.9897 N   0  0  0  0  0  0  0  0  0  0  0  0
   -4.1358   -5.9397   -1.3108 C   0  0  0  0  0  0  0  0  0  0  0  0
   -4.4452   -5.0321   -2.2918 C   0  0  0  0  0  0  0  0  0  0  0  0
   -5.7892   -4.0748   -2.7268 S   0  0  0  0  0  0  0  0  0  0  0  0
   -4.7872   -2.9004   -3.4533 C   0  0  0  0  0  0  0  0  0  0  0  0
   -4.9974   -1.6096   -3.9695 C   0  0  0  0  0  0  0  0  0  0  0  0
   -6.2718   -1.1098   -4.5345 C   0  0  0  0  0  0  0  0  0  0  0  0
   -7.4918   -1.2912   -3.8707 C   0  0  0  0  0  0  0  0  0  0  0  0
   -8.6826   -0.8496   -4.4557 C   0  0  0  0  0  0  0  0  0  0  0  0
   -8.6679   -0.2489   -5.7174 C   0  0  0  0  0  0  0  0  0  0  0  0
   -7.4595   -0.0930   -6.4144 C   0  0  0  0  0  0  0  0  0  0  0  0
   -7.4427    0.5180   -7.7940 C   0  0  0  0  0  0  0  0  0  0  0  0
   -7.2391    2.0258   -7.7123 C   0  0  0  0  0  0  0  0  0  0  0  0
   -6.2637   -0.5065   -5.8082 C   0  0  0  0  0  0  0  0  0  0  0  0
   -3.7664   -0.9374   -4.1003 C   0  0  0  0  0  0  0  0  0  0  0  0
   -2.4777   -1.9620   -3.6901 S   0  0  0  0  0  0  0  0  0  0  0  0
   -3.4657   -3.2427   -3.2942 C   0  0  0  0  0  0  0  0  0  0  0  0
   -3.2691   -4.4598   -2.6688 C   0  0  0  0  0  0  0  0  0  0  0  0
   -2.1875   -4.9833   -2.0340 N   0  0  0  0  0  0  0  0  0  0  0  0
   -2.7367   -5.9791   -1.2727 C   0  0  0  0  0  0  0  0  0  0  0  0
   -2.1052   -6.7165   -0.2578 C   0  0  0  0  0  0  0  0  0  0  0  0
   -0.7836   -6.9771   -0.1157 N   0  0  0  0  0  0  0  0  0  0  0  0
   -0.6662   -7.4119    1.1579 C   0  0  0  0  0  0  0  0  0  0  0  0
    0.3588   -7.0795    2.0338 C   0  0  0  0  0  0  0  0  0  0  0  0
    1.7092   -6.1295    1.7616 S   0  0  0  0  0  0  0  0  0  0  0  0
    0.0984   -7.4288   -1.2016 C   0  0  0  0  0  0  0  0  0  0  0  0
   -0.0757   -8.9219   -1.4497 C   0  0  0  0  0  0  0  0  0  0  0  0
   -0.9640   -4.2201   -1.7173 C   0  0  0  0  0  0  0  0  0  0  0  0
   -1.1915   -3.2906   -0.5281 C   0  0  0  0  0  0  0  0  0  0  0  0
   -3.5298    0.4884   -4.3465 C   0  0  0  0  0  0  0  0  0  0  0  0
   -3.4211    1.4465   -3.3003 C   0  0  0  0  0  0  0  0  0  0  0  0
   -4.3327    1.5966   -2.1786 N   0  0  0  0  0  0  0  0  0  0  0  0
   -4.9617    0.4859   -1.5011 C   0  0  0  0  0  0  0  0  0  0  0  0
   -4.1906   -0.5457   -0.9511 C   0  0  0  0  0  0  0  0  0  0  0  0
   -4.7895   -1.5700   -0.2122 C   0  0  0  0  0  0  0  0  0  0  0  0
   -6.1691   -1.5589    0.0210 C   0  0  0  0  0  0  0  0  0  0  0  0
   -6.7925   -2.6608    0.8286 C   0  0  0  0  0  0  0  0  0  0  0  0
   -6.9413   -0.5010   -0.4768 C   0  0  0  0  0  0  0  0  0  0  0  0
   -6.3457    0.5065   -1.2474 C   0  0  0  0  0  0  0  0  0  0  0  0
   -4.6532    2.9259   -1.7190 C   0  0  0  0  0  0  0  0  0  0  0  0
   -5.0734    3.9128   -2.6274 C   0  0  0  0  0  0  0  0  0  0  0  0
   -5.2928    5.2245   -2.1950 C   0  0  0  0  0  0  0  0  0  0  0  0
   -5.1046    5.5651   -0.8465 C   0  0  0  0  0  0  0  0  0  0  0  0
   -5.3681    6.9656   -0.3836 C   0  0  0  0  0  0  0  0  0  0  0  0
   -4.7315    4.5692    0.0721 C   0  0  0  0  0  0  0  0  0  0  0  0
   -4.5016    3.2606   -0.3622 C   0  0  0  0  0  0  0  0  0  0  0  0
   -2.4147    2.3795   -3.5914 C   0  0  0  0  0  0  0  0  0  0  0  0
   -1.6789    3.6321   -2.7462 S   0  0  0  0  0  0  0  0  0  0  0  0
   -0.5253    3.9698   -3.9577 C   0  0  0  0  0  0  0  0  0  0  0  0
   -0.7747    3.1249   -5.0515 C   0  0  0  0  0  0  0  0  0  0  0  0
   -0.2085    3.3076   -6.3558 N   0  0  0  0  0  0  0  0  0  0  0  0
   -0.9492    4.0734   -7.3404 C   0  0  0  0  0  0  0  0  0  0  0  0
   -1.8833    5.0502   -6.9384 C   0  0  0  0  0  0  0  0  0  0  0  0
   -2.5893    5.7946   -7.8856 C   0  0  0  0  0  0  0  0  0  0  0  0
   -2.3727    5.5904   -9.2525 C   0  0  0  0  0  0  0  0  0  0  0  0
   -3.1431    6.3913  -10.2605 C   0  0  0  0  0  0  0  0  0  0  0  0
   -1.4773    4.5916   -9.6641 C   0  0  0  0  0  0  0  0  0  0  0  0
   -0.7715    3.8392   -8.7184 C   0  0  0  0  0  0  0  0  0  0  0  0
    1.1192    2.8081   -6.6098 C   0  0  0  0  0  0  0  0  0  0  0  0
    1.4966    1.5290   -6.1647 C   0  0  0  0  0  0  0  0  0  0  0  0
    2.7900    1.0493   -6.3974 C   0  0  0  0  0  0  0  0  0  0  0  0
    3.7338    1.8501   -7.0583 C   0  0  0  0  0  0  0  0  0  0  0  0
    5.1201    1.3415   -7.3219 C   0  0  0  0  0  0  0  0  0  0  0  0
    3.3565    3.1224   -7.5141 C   0  0  0  0  0  0  0  0  0  0  0  0
    2.0602    3.5957   -7.2943 C   0  0  0  0  0  0  0  0  0  0  0  0
   -1.8121    2.2398   -4.7927 C   0  0  0  0  0  0  0  0  0  0  0  0
   -2.4407    0.9169   -5.5889 S   0  0  0  0  0  0  0  0  0  0  0  0
    0.4034    5.1182   -3.9777 C   0  0  0  0  0  0  0  0  0  0  0  0
    0.9879    5.6635   -2.8896 C   0  0  0  0  0  0  0  0  0  0  0  0
    0.8746    5.1942   -1.5059 C   0  0  0  0  0  0  0  0  0  0  0  0
    0.7119    4.0019   -1.1286 O   0  0  0  0  0  0  0  0  0  0  0  0
    1.1490    6.3119   -0.6280 C   0  0  0  0  0  0  0  0  0  0  0  0
    0.9608    6.3953    0.7498 C   0  0  0  0  0  0  0  0  0  0  0  0
    1.1820    7.6298    1.3790 C   0  0  0  0  0  0  0  0  0  0  0  0
    1.5745    8.7477    0.6279 C   0  0  0  0  0  0  0  0  0  0  0  0
    1.7704    9.9393    1.2452 F   0  0  0  0  0  0  0  0  0  0  0  0
    1.7651    8.6387   -0.7604 C   0  0  0  0  0  0  0  0  0  0  0  0
    1.5682    7.3917   -1.3797 C   0  0  0  0  0  0  0  0  0  0  0  0
    1.6393    7.0049   -2.8133 C   0  0  0  0  0  0  0  0  0  0  0  0
    2.3704    7.6228   -3.7742 C   0  0  0  0  0  0  0  0  0  0  0  0
    2.5783    7.0472   -5.0747 C   0  0  0  0  0  0  0  0  0  0  0  0
    2.7606    6.5953   -6.1236 N   0  0  0  0  0  0  0  0  0  0  0  0
    3.1512    8.7999   -3.5069 C   0  0  0  0  0  0  0  0  0  0  0  0
    3.7802    9.7531   -3.3105 N   0  0  0  0  0  0  0  0  0  0  0  0
    5.6008    1.4534    5.4016 H   0  0  0  0  0  0  0  0  0  0  0  0
    3.2834    6.4059    5.3227 H   0  0  0  0  0  0  0  0  0  0  0  0
    1.0162    7.2622    4.7630 H   0  0  0  0  0  0  0  0  0  0  0  0
   -0.2695    3.2903    3.7374 H   0  0  0  0  0  0  0  0  0  0  0  0
    3.7343    2.7349    1.2630 H   0  0  0  0  0  0  0  0  0  0  0  0
    5.7546    3.9745    0.5954 H   0  0  0  0  0  0  0  0  0  0  0  0
    8.1945    3.7005   -0.1926 H   0  0  0  0  0  0  0  0  0  0  0  0
    9.2252    2.4829    0.6403 H   0  0  0  0  0  0  0  0  0  0  0  0
    8.5805    3.8926    1.5662 H   0  0  0  0  0  0  0  0  0  0  0  0
    8.2014    0.6284    1.7973 H   0  0  0  0  0  0  0  0  0  0  0  0
    6.1880   -0.6117    2.4372 H   0  0  0  0  0  0  0  0  0  0  0  0
    1.1330    1.2409    2.3054 H   0  0  0  0  0  0  0  0  0  0  0  0
   -0.4831    1.1909    0.4482 H   0  0  0  0  0  0  0  0  0  0  0  0
    0.0926    1.0526   -2.5805 H   0  0  0  0  0  0  0  0  0  0  0  0
   -1.1613    0.1081   -1.7040 H   0  0  0  0  0  0  0  0  0  0  0  0
    0.0438   -0.7496   -2.7216 H   0  0  0  0  0  0  0  0  0  0  0  0
    2.3037   -1.1431   -1.8859 H   0  0  0  0  0  0  0  0  0  0  0  0
    3.8971   -1.0936   -0.0219 H   0  0  0  0  0  0  0  0  0  0  0  0
    3.5420   -7.0413    7.3461 H   0  0  0  0  0  0  0  0  0  0  0  0
    4.4358   -9.2522    6.8076 H   0  0  0  0  0  0  0  0  0  0  0  0
    5.6404  -10.2449    3.4639 H   0  0  0  0  0  0  0  0  0  0  0  0
    5.2802  -10.8162    5.1296 H   0  0  0  0  0  0  0  0  0  0  0  0
    6.8670  -10.0127    4.7730 H   0  0  0  0  0  0  0  0  0  0  0  0
    5.8845   -7.7511    3.0348 H   0  0  0  0  0  0  0  0  0  0  0  0
    5.0325   -5.5262    3.5863 H   0  0  0  0  0  0  0  0  0  0  0  0
    5.6901   -5.1504    7.5847 H   0  0  0  0  0  0  0  0  0  0  0  0
    5.8921   -4.1587    9.8150 H   0  0  0  0  0  0  0  0  0  0  0  0
    5.1226   -1.9298   11.0910 H   0  0  0  0  0  0  0  0  0  0  0  0
    4.1621   -3.2565   11.8694 H   0  0  0  0  0  0  0  0  0  0  0  0
    3.3352   -1.7636   11.2731 H   0  0  0  0  0  0  0  0  0  0  0  0
    2.0382   -2.2917    9.3385 H   0  0  0  0  0  0  0  0  0  0  0  0
    1.8436   -3.2608    7.1005 H   0  0  0  0  0  0  0  0  0  0  0  0
    1.2514   -7.2718    6.4549 H   0  0  0  0  0  0  0  0  0  0  0  0
    0.5614   -6.5277    8.7040 H   0  0  0  0  0  0  0  0  0  0  0  0
   -0.8184   -4.5044    8.9801 H   0  0  0  0  0  0  0  0  0  0  0  0
   -2.3988   -2.7066    6.1204 H   0  0  0  0  0  0  0  0  0  0  0  0
   -2.4740   -3.0086    7.8824 H   0  0  0  0  0  0  0  0  0  0  0  0
   -1.6104   -0.7352    7.4239 H   0  0  0  0  0  0  0  0  0  0  0  0
   -0.2824   -1.4227    6.4072 H   0  0  0  0  0  0  0  0  0  0  0  0
   -0.3232   -1.7352    8.1943 H   0  0  0  0  0  0  0  0  0  0  0  0
   -0.7183   -3.8654    4.7143 H   0  0  0  0  0  0  0  0  0  0  0  0
   -7.5263   -1.7699   -2.9059 H   0  0  0  0  0  0  0  0  0  0  0  0
   -9.6194   -0.9933   -3.9365 H   0  0  0  0  0  0  0  0  0  0  0  0
   -9.6012    0.0718   -6.1653 H   0  0  0  0  0  0  0  0  0  0  0  0
   -8.4035    0.3074   -8.3115 H   0  0  0  0  0  0  0  0  0  0  0  0
   -6.6274    0.0738   -8.4064 H   0  0  0  0  0  0  0  0  0  0  0  0
   -8.0123    2.4937   -7.0641 H   0  0  0  0  0  0  0  0  0  0  0  0
   -6.2303    2.2524   -7.3020 H   0  0  0  0  0  0  0  0  0  0  0  0
   -7.3158    2.4683   -8.7314 H   0  0  0  0  0  0  0  0  0  0  0  0
   -5.3299   -0.4039   -6.3498 H   0  0  0  0  0  0  0  0  0  0  0  0
   -0.1542   -6.9172   -2.1529 H   0  0  0  0  0  0  0  0  0  0  0  0
    1.1588   -7.2045   -0.9504 H   0  0  0  0  0  0  0  0  0  0  0  0
   -1.1447   -9.1537   -1.6437 H   0  0  0  0  0  0  0  0  0  0  0  0
    0.2748   -9.4989   -0.5689 H   0  0  0  0  0  0  0  0  0  0  0  0
    0.5212   -9.2165   -2.3364 H   0  0  0  0  0  0  0  0  0  0  0  0
   -0.1195   -4.8762   -1.4579 H   0  0  0  0  0  0  0  0  0  0  0  0
   -0.6309   -3.6354   -2.5982 H   0  0  0  0  0  0  0  0  0  0  0  0
   -0.2481   -2.7670   -0.2703 H   0  0  0  0  0  0  0  0  0  0  0  0
   -1.5252   -3.8708    0.3614 H   0  0  0  0  0  0  0  0  0  0  0  0
   -1.9603   -2.5394   -0.7779 H   0  0  0  0  0  0  0  0  0  0  0  0
   -3.1239   -0.5470   -1.0766 H   0  0  0  0  0  0  0  0  0  0  0  0
   -4.1766   -2.3690    0.1830 H   0  0  0  0  0  0  0  0  0  0  0  0
   -7.9011   -2.6084    0.8119 H   0  0  0  0  0  0  0  0  0  0  0  0
   -6.4410   -2.5938    1.8788 H   0  0  0  0  0  0  0  0  0  0  0  0
   -6.4883   -3.6451    0.4172 H   0  0  0  0  0  0  0  0  0  0  0  0
   -8.0069   -0.4598   -0.2878 H   0  0  0  0  0  0  0  0  0  0  0  0
   -6.9604    1.3035   -1.6470 H   0  0  0  0  0  0  0  0  0  0  0  0
   -5.2046    3.6721   -3.6762 H   0  0  0  0  0  0  0  0  0  0  0  0
   -5.6072    5.9730   -2.9140 H   0  0  0  0  0  0  0  0  0  0  0  0
   -4.8145    7.1784    0.5584 H   0  0  0  0  0  0  0  0  0  0  0  0
   -6.4566    7.0969   -0.2055 H   0  0  0  0  0  0  0  0  0  0  0  0
   -5.0329    7.6948   -1.1516 H   0  0  0  0  0  0  0  0  0  0  0  0
   -4.6069    4.8076    1.1212 H   0  0  0  0  0  0  0  0  0  0  0  0
   -4.1858    2.5128    0.3538 H   0  0  0  0  0  0  0  0  0  0  0  0
   -2.0715    5.2505   -5.8922 H   0  0  0  0  0  0  0  0  0  0  0  0
   -3.3032    6.5371   -7.5493 H   0  0  0  0  0  0  0  0  0  0  0  0
   -4.1418    5.9338  -10.4149 H   0  0  0  0  0  0  0  0  0  0  0  0
   -2.6077    6.4330  -11.2315 H   0  0  0  0  0  0  0  0  0  0  0  0
   -3.2735    7.4343   -9.8996 H   0  0  0  0  0  0  0  0  0  0  0  0
   -1.3206    4.3997  -10.7185 H   0  0  0  0  0  0  0  0  0  0  0  0
   -0.0907    3.0719   -9.0664 H   0  0  0  0  0  0  0  0  0  0  0  0
    0.7869    0.8955   -5.6485 H   0  0  0  0  0  0  0  0  0  0  0  0
    3.0537    0.0581   -6.0546 H   0  0  0  0  0  0  0  0  0  0  0  0
    5.8680    2.1334   -7.0963 H   0  0  0  0  0  0  0  0  0  0  0  0
    5.2127    1.0528   -8.3897 H   0  0  0  0  0  0  0  0  0  0  0  0
    5.3523    0.4577   -6.6915 H   0  0  0  0  0  0  0  0  0  0  0  0
    4.0660    3.7508   -8.0395 H   0  0  0  0  0  0  0  0  0  0  0  0
    1.7935    4.5825   -7.6456 H   0  0  0  0  0  0  0  0  0  0  0  0
    0.5258    5.5895   -4.9388 H   0  0  0  0  0  0  0  0  0  0  0  0
    0.6251    5.5364    1.3135 H   0  0  0  0  0  0  0  0  0  0  0  0
    1.0305    7.7321    2.4377 H   0  0  0  0  0  0  0  0  0  0  0  0
    2.0085    9.5221   -1.3263 H   0  0  0  0  0  0  0  0  0  0  0  0
  1  2  2  3
  2  3  1  0
  3  4  2  0
  3  5  1  0
  5  6  2  0
  6  7  1  0
  7  8  2  0
  8  9  1  0
  8 10  1  0
 10 11  2  0
 11 12  1  0
 12 13  2  3
 13 14  1  0
 14 15  3  0
 13 16  1  0
 16 17  3  0
  1 18  1  0
 18 19  2  0
 19 20  1  0
 20 21  1  0
 21 22  2  0
 22 23  1  0
 23 24  2  0
 24 25  1  0
 24 26  1  0
 26 27  2  0
 20 28  1  0
 28 29  2  0
 29 30  1  0
 30 31  2  0
 31 32  1  0
 31 33  1  0
 33 34  2  0
 19 35  1  0
 35 36  1  0
 36 37  1  0
 37 38  2  0
 38 39  1  0
 39 40  1  0
 40 41  2  0
 41 42  1  0
 42 43  2  0
 43 44  1  0
 43 45  1  0
 45 46  2  0
 39 47  1  0
 47 48  2  0
 48 49  1  0
 49 50  2  0
 50 51  1  0
 50 52  1  0
 52 53  2  0
 38 54  1  0
 54 55  1  0
 37 56  1  0
 56 57  2  0
 57 58  1  0
 58 59  2  0
 59 60  1  0
 60 61  2  0
 61 62  1  0
 62 63  1  0
 63 64  1  0
 62 65  2  0
 57 66  1  0
 66 67  1  0
 67 68  1  0
 68 69  1  0
 69 70  1  0
 70 71  1  0
 71 72  2  0
 72 73  1  0
 73 74  1  0
 71 75  1  0
 75 76  1  0
 76 77  1  0
 77 78  1  0
 78 79  1  0
 79 80  1  0
 80 81  2  0
 81 82  1  0
 82 83  2  0
 83 84  1  0
 84 85  1  0
 85 86  1  0
 84 87  2  0
 79 88  2  0
 88 89  1  0
 89 90  1  0
 90 91  1  0
 91 92  1  0
 92 93  1  0
 93 94  1  0
 94 95  1  0
 95 96  1  0
 96 97  1  0
 97 98  1  0
 95 99  1  0
 99100  1  0
 92101  1  0
101102  1  0
 88103  1  0
103104  2  0
104105  1  0
105106  1  0
106107  2  0
107108  1  0
108109  2  0
109110  1  0
109111  1  0
111112  2  0
105113  1  0
113114  2  0
114115  1  0
115116  2  0
116117  1  0
116118  1  0
118119  2  0
104120  1  0
120121  1  0
121122  1  0
122123  2  0
123124  1  0
124125  1  0
125126  2  0
126127  1  0
127128  2  0
128129  1  0
128130  1  0
130131  2  0
124132  1  0
132133  2  0
133134  1  0
134135  2  0
135136  1  0
135137  1  0
137138  2  0
123139  1  0
139140  1  0
122141  1  0
141142  2  3
142143  1  0
143144  2  0
143145  1  0
145146  2  0
146147  1  0
147148  2  0
148149  1  0
148150  1  0
150151  2  0
151152  1  0
152153  2  3
153154  1  0
154155  3  0
153156  1  0
156157  3  0
 12  2  1  0
 55 18  1  0
 98 56  1  0
140103  1  0
152142  1  0
 11  5  1  0
 27 21  1  0
 34 28  1  0
 54 35  2  0
 65 58  1  0
 97 66  2  0
112106  1  0
119113  1  0
139120  2  0
151145  1  0
 46 40  1  0
 53 47  1  0
 96 68  2  0
131125  1  0
138132  1  0
 94 69  2  0
 74 70  2  0
 93 75  2  0
 91 76  2  0
 90 78  2  0
 87 80  1  0
  1158  1  0
  6159  1  0
  7160  1  0
 10161  1  0
 22162  1  0
 23163  1  0
 25164  1  0
 25165  1  0
 25166  1  0
 26167  1  0
 27168  1  0
 29169  1  0
 30170  1  0
 32171  1  0
 32172  1  0
 32173  1  0
 33174  1  0
 34175  1  0
 41176  1  0
 42177  1  0
 44178  1  0
 44179  1  0
 44180  1  0
 45181  1  0
 46182  1  0
 48183  1  0
 49184  1  0
 51185  1  0
 51186  1  0
 51187  1  0
 52188  1  0
 53189  1  0
 59190  1  0
 60191  1  0
 61192  1  0
 63193  1  0
 63194  1  0
 64195  1  0
 64196  1  0
 64197  1  0
 65198  1  0
 81199  1  0
 82200  1  0
 83201  1  0
 85202  1  0
 85203  1  0
 86204  1  0
 86205  1  0
 86206  1  0
 87207  1  0
 99208  1  0
 99209  1  0
100210  1  0
100211  1  0
100212  1  0
101213  1  0
101214  1  0
102215  1  0
102216  1  0
102217  1  0
107218  1  0
108219  1  0
110220  1  0
110221  1  0
110222  1  0
111223  1  0
112224  1  0
114225  1  0
115226  1  0
117227  1  0
117228  1  0
117229  1  0
118230  1  0
119231  1  0
126232  1  0
127233  1  0
129234  1  0
129235  1  0
129236  1  0
130237  1  0
131238  1  0
133239  1  0
134240  1  0
136241  1  0
136242  1  0
136243  1  0
137244  1  0
138245  1  0
141246  1  0
146247  1  0
147248  1  0
150249  1  0
M  END

