
     RDKit          3D

235258  0  0  0  0  0  0  0  0999 V2000
    4.7769   -0.1346   -8.5376 C   0  0  0  0  0  0  0  0  0  0  0  0
    5.5017    0.3121   -7.4950 C   0  0  0  0  0  0  0  0  0  0  0  0
    4.9942    0.6062   -6.1404 C   0  0  0  0  0  0  0  0  0  0  0  0
    3.7874    0.6459   -5.7768 O   0  0  0  0  0  0  0  0  0  0  0  0
    6.1344    0.8215   -5.2861 C   0  0  0  0  0  0  0  0  0  0  0  0
    6.1399    1.2816   -3.9736 C   0  0  0  0  0  0  0  0  0  0  0  0
    7.3736    1.5318   -3.3502 C   0  0  0  0  0  0  0  0  0  0  0  0
    8.5705    1.3391   -4.0610 C   0  0  0  0  0  0  0  0  0  0  0  0
   10.2502    1.7198   -3.2206 Br  0  0  0  0  0  0  0  0  0  0  0  0
    8.5469    0.9114   -5.4029 C   0  0  0  0  0  0  0  0  0  0  0  0
    7.3046    0.6335   -6.0018 C   0  0  0  0  0  0  0  0  0  0  0  0
    6.9802    0.3311   -7.4249 C   0  0  0  0  0  0  0  0  0  0  0  0
    7.8080    0.5137   -8.4716 C   0  0  0  0  0  0  0  0  0  0  0  0
    7.4643    1.5201   -9.4502 C   0  0  0  0  0  0  0  0  0  0  0  0
    7.1955    2.4001  -10.1413 N   0  0  0  0  0  0  0  0  0  0  0  0
    9.1805    0.1124   -8.4074 C   0  0  0  0  0  0  0  0  0  0  0  0
   10.2864   -0.2419   -8.3480 N   0  0  0  0  0  0  0  0  0  0  0  0
    3.3204   -0.2845   -8.4707 C   0  0  0  0  0  0  0  0  0  0  0  0
    2.4186    0.7637   -8.6386 C   0  0  0  0  0  0  0  0  0  0  0  0
    2.7198    1.9957   -9.2985 N   0  0  0  0  0  0  0  0  0  0  0  0
    2.3935    2.1134  -10.7038 C   0  0  0  0  0  0  0  0  0  0  0  0
    1.9618    3.3509  -11.2309 C   0  0  0  0  0  0  0  0  0  0  0  0
    1.6190    3.4579  -12.5857 C   0  0  0  0  0  0  0  0  0  0  0  0
    1.6948    2.3436  -13.4302 C   0  0  0  0  0  0  0  0  0  0  0  0
    1.2775    2.4524  -14.8644 C   0  0  0  0  0  0  0  0  0  0  0  0
    2.0890    1.1061  -12.8981 C   0  0  0  0  0  0  0  0  0  0  0  0
    2.4391    0.9915  -11.5538 C   0  0  0  0  0  0  0  0  0  0  0  0
    3.3922    3.0475   -8.5669 C   0  0  0  0  0  0  0  0  0  0  0  0
    4.3601    3.8468   -9.1902 C   0  0  0  0  0  0  0  0  0  0  0  0
    5.0824    4.7934   -8.4454 C   0  0  0  0  0  0  0  0  0  0  0  0
    4.8242    4.9653   -7.0828 C   0  0  0  0  0  0  0  0  0  0  0  0
    5.6066    5.9407   -6.2642 C   0  0  0  0  0  0  0  0  0  0  0  0
    3.8545    4.1627   -6.4572 C   0  0  0  0  0  0  0  0  0  0  0  0
    3.1304    3.2297   -7.1953 C   0  0  0  0  0  0  0  0  0  0  0  0
    1.1664    0.4455   -8.1326 C   0  0  0  0  0  0  0  0  0  0  0  0
   -0.2110    1.3146   -7.7752 S   0  0  0  0  0  0  0  0  0  0  0  0
   -0.9693    0.0494   -6.9212 C   0  0  0  0  0  0  0  0  0  0  0  0
   -0.1389   -1.1008   -6.9718 C   0  0  0  0  0  0  0  0  0  0  0  0
   -0.5926   -2.4487   -6.7983 N   0  0  0  0  0  0  0  0  0  0  0  0
   -0.5982   -3.0784   -5.4953 C   0  0  0  0  0  0  0  0  0  0  0  0
   -1.5550   -4.0808   -5.2074 C   0  0  0  0  0  0  0  0  0  0  0  0
   -1.5001   -4.7788   -3.9995 C   0  0  0  0  0  0  0  0  0  0  0  0
   -0.5108   -4.4797   -3.0475 C   0  0  0  0  0  0  0  0  0  0  0  0
   -0.4062   -5.2867   -1.7885 C   0  0  0  0  0  0  0  0  0  0  0  0
    0.4243   -3.4594   -3.3204 C   0  0  0  0  0  0  0  0  0  0  0  0
    0.3730   -2.7636   -4.5273 C   0  0  0  0  0  0  0  0  0  0  0  0
   -0.7599   -3.2362   -8.0008 C   0  0  0  0  0  0  0  0  0  0  0  0
   -0.1815   -4.5124   -8.1138 C   0  0  0  0  0  0  0  0  0  0  0  0
   -0.2586   -5.2221   -9.3156 C   0  0  0  0  0  0  0  0  0  0  0  0
   -0.9150   -4.6675  -10.4227 C   0  0  0  0  0  0  0  0  0  0  0  0
   -0.8994   -5.3772  -11.7508 C   0  0  0  0  0  0  0  0  0  0  0  0
   -1.4837   -3.3907  -10.3238 C   0  0  0  0  0  0  0  0  0  0  0  0
   -1.4066   -2.6792   -9.1260 C   0  0  0  0  0  0  0  0  0  0  0  0
    1.0531   -0.8107   -7.6190 C   0  0  0  0  0  0  0  0  0  0  0  0
    2.5316   -1.5982   -7.7367 S   0  0  0  0  0  0  0  0  0  0  0  0
   -2.1825    0.2172   -6.0916 C   0  0  0  0  0  0  0  0  0  0  0  0
   -2.5679    1.4205   -5.4599 C   0  0  0  0  0  0  0  0  0  0  0  0
   -1.6705    2.5805   -5.2571 C   0  0  0  0  0  0  0  0  0  0  0  0
   -0.3752    2.3839   -4.7316 C   0  0  0  0  0  0  0  0  0  0  0  0
    0.4732    3.4680   -4.5441 C   0  0  0  0  0  0  0  0  0  0  0  0
    0.0272    4.7646   -4.8167 C   0  0  0  0  0  0  0  0  0  0  0  0
   -1.2732    4.9803   -5.3062 C   0  0  0  0  0  0  0  0  0  0  0  0
   -1.7654    6.3869   -5.5528 C   0  0  0  0  0  0  0  0  0  0  0  0
   -2.2083    7.0470   -4.2439 C   0  0  0  0  0  0  0  0  0  0  0  0
   -2.1237    3.8800   -5.5245 C   0  0  0  0  0  0  0  0  0  0  0  0
   -3.7492    1.2680   -4.7282 C   0  0  0  0  0  0  0  0  0  0  0  0
   -4.4739    2.2204   -3.5093 S   0  0  0  0  0  0  0  0  0  0  0  0
   -5.4473    0.9343   -2.9981 C   0  0  0  0  0  0  0  0  0  0  0  0
   -5.9479    0.5537   -1.7821 C   0  0  0  0  0  0  0  0  0  0  0  0
   -6.4578    1.2950   -0.7038 C   0  0  0  0  0  0  0  0  0  0  0  0
   -6.8980    0.5947    0.4607 C   0  0  0  0  0  0  0  0  0  0  0  0
   -7.3674    1.3442    1.4876 N   0  0  0  0  0  0  0  0  0  0  0  0
   -7.2110    2.8566    0.8140 S   0  0  0  0  0  0  0  0  0  0  0  0
   -6.5729    2.6416   -0.6926 N   0  0  0  0  0  0  0  0  0  0  0  0
   -6.7087   -0.7957    0.5342 C   0  0  0  0  0  0  0  0  0  0  0  0
   -6.5652   -1.5576    1.6629 C   0  0  0  0  0  0  0  0  0  0  0  0
   -6.5930   -1.1990    3.3091 S   0  0  0  0  0  0  0  0  0  0  0  0
   -5.3943   -2.3561    3.6772 C   0  0  0  0  0  0  0  0  0  0  0  0
   -4.4805   -2.3031    4.7363 C   0  0  0  0  0  0  0  0  0  0  0  0
   -4.8791   -2.3480    6.1672 C   0  0  0  0  0  0  0  0  0  0  0  0
   -6.0266   -1.6679    6.6511 C   0  0  0  0  0  0  0  0  0  0  0  0
   -6.4690   -1.8728    7.9677 C   0  0  0  0  0  0  0  0  0  0  0  0
   -5.8047   -2.7659    8.8121 C   0  0  0  0  0  0  0  0  0  0  0  0
   -4.6549   -3.4350    8.3675 C   0  0  0  0  0  0  0  0  0  0  0  0
   -3.9193   -4.3935    9.2660 C   0  0  0  0  0  0  0  0  0  0  0  0
   -4.0401   -5.8513    8.7744 C   0  0  0  0  0  0  0  0  0  0  0  0
   -4.2004   -3.2179    7.0503 C   0  0  0  0  0  0  0  0  0  0  0  0
   -3.1975   -2.6459    4.2990 C   0  0  0  0  0  0  0  0  0  0  0  0
   -3.2454   -3.1145    2.6716 S   0  0  0  0  0  0  0  0  0  0  0  0
   -4.9072   -2.8967    2.5002 C   0  0  0  0  0  0  0  0  0  0  0  0
   -5.6494   -2.5215    1.3701 C   0  0  0  0  0  0  0  0  0  0  0  0
   -5.3212   -2.5285    0.0557 N   0  0  0  0  0  0  0  0  0  0  0  0
   -6.0383   -1.4943   -0.4907 C   0  0  0  0  0  0  0  0  0  0  0  0
   -5.8410   -0.8418   -1.7378 C   0  0  0  0  0  0  0  0  0  0  0  0
   -5.4273   -1.3319   -2.9553 N   0  0  0  0  0  0  0  0  0  0  0  0
   -5.1659   -0.2194   -3.6848 C   0  0  0  0  0  0  0  0  0  0  0  0
   -4.2317   -0.0173   -4.7000 C   0  0  0  0  0  0  0  0  0  0  0  0
   -3.2479   -1.0261   -5.6059 S   0  0  0  0  0  0  0  0  0  0  0  0
   -5.5628   -2.6745   -3.5437 C   0  0  0  0  0  0  0  0  0  0  0  0
   -6.8681   -3.3598   -3.1234 C   0  0  0  0  0  0  0  0  0  0  0  0
   -4.2279   -3.3246   -0.5131 C   0  0  0  0  0  0  0  0  0  0  0  0
   -3.0176   -2.4610   -0.8520 C   0  0  0  0  0  0  0  0  0  0  0  0
   -1.9785   -2.2571    5.0281 C   0  0  0  0  0  0  0  0  0  0  0  0
   -0.7372   -2.8946    5.0190 C   0  0  0  0  0  0  0  0  0  0  0  0
    0.0126   -2.2093    5.9513 C   0  0  0  0  0  0  0  0  0  0  0  0
    1.3243   -2.4190    6.4382 C   0  0  0  0  0  0  0  0  0  0  0  0
    2.2407   -3.4029    5.8367 C   0  0  0  0  0  0  0  0  0  0  0  0
    2.6734   -3.2092    4.5202 C   0  0  0  0  0  0  0  0  0  0  0  0
    3.5960   -4.0827    3.9440 C   0  0  0  0  0  0  0  0  0  0  0  0
    4.0790   -5.1891    4.6752 C   0  0  0  0  0  0  0  0  0  0  0  0
    5.1170   -6.1021    4.0734 C   0  0  0  0  0  0  0  0  0  0  0  0
    6.5166   -5.6517    4.4510 C   0  0  0  0  0  0  0  0  0  0  0  0
    3.6467   -5.3718    6.0034 C   0  0  0  0  0  0  0  0  0  0  0  0
    2.7380   -4.4773    6.5848 C   0  0  0  0  0  0  0  0  0  0  0  0
    1.7286   -1.5675    7.4813 C   0  0  0  0  0  0  0  0  0  0  0  0
    0.9209   -0.5319    7.9258 C   0  0  0  0  0  0  0  0  0  0  0  0
   -0.3518   -0.2689    7.3973 C   0  0  0  0  0  0  0  0  0  0  0  0
   -1.0653    0.9713    7.7028 C   0  0  0  0  0  0  0  0  0  0  0  0
   -0.4821    2.2016    7.3360 C   0  0  0  0  0  0  0  0  0  0  0  0
   -1.0733    3.4084    7.7046 C   0  0  0  0  0  0  0  0  0  0  0  0
   -2.2704    3.4142    8.4418 C   0  0  0  0  0  0  0  0  0  0  0  0
   -2.8913    4.7173    8.8533 C   0  0  0  0  0  0  0  0  0  0  0  0
   -3.7261    5.3041    7.7181 C   0  0  0  0  0  0  0  0  0  0  0  0
   -2.8849    2.1942    8.7637 C   0  0  0  0  0  0  0  0  0  0  0  0
   -2.2908    0.9702    8.3956 C   0  0  0  0  0  0  0  0  0  0  0  0
   -0.7951   -1.1894    6.4343 C   0  0  0  0  0  0  0  0  0  0  0  0
   -1.9660   -1.2319    5.8580 O   0  0  0  0  0  0  0  0  0  0  0  0
    1.5955    0.1054    8.9377 C   0  0  0  0  0  0  0  0  0  0  0  0
    2.7803   -0.6070    9.0576 C   0  0  0  0  0  0  0  0  0  0  0  0
    2.8601   -1.5825    8.1615 O   0  0  0  0  0  0  0  0  0  0  0  0
    3.8089   -0.3092   10.0703 C   0  0  0  0  0  0  0  0  0  0  0  0
    3.5061   -0.0402   11.3597 C   0  0  0  0  0  0  0  0  0  0  0  0
    2.2440   -0.5052   12.0237 C   0  0  0  0  0  0  0  0  0  0  0  0
    1.5413   -1.4111   11.4852 O   0  0  0  0  0  0  0  0  0  0  0  0
    1.8729    0.0217   13.3136 N   0  0  0  0  0  0  0  0  0  0  0  0
    0.6697   -0.4856   13.9917 C   0  0  0  0  0  0  0  0  0  0  0  0
   -0.5678    0.2946   13.5946 C   0  0  0  0  0  0  0  0  0  0  0  0
    2.6421    1.0912   13.8875 C   0  0  0  0  0  0  0  0  0  0  0  0
    2.3616    1.5209   15.0465 O   0  0  0  0  0  0  0  0  0  0  0  0
    3.7093    1.7575   13.0852 C   0  0  0  0  0  0  0  0  0  0  0  0
    3.0683    2.7928   12.2621 C   0  0  0  0  0  0  0  0  0  0  0  0
    2.5405    3.5844   11.6057 N   0  0  0  0  0  0  0  0  0  0  0  0
    4.4729    0.7280   12.2306 C   0  0  0  0  0  0  0  0  0  0  0  0
    5.2874   -0.2417   13.1068 C   0  0  0  0  0  0  0  0  0  0  0  0
    5.2847   -0.4692   -9.4303 H   0  0  0  0  0  0  0  0  0  0  0  0
    5.2121    1.4875   -3.4445 H   0  0  0  0  0  0  0  0  0  0  0  0
    7.3943    1.8975   -2.3275 H   0  0  0  0  0  0  0  0  0  0  0  0
    9.4768    0.8121   -5.9427 H   0  0  0  0  0  0  0  0  0  0  0  0
    1.8777    4.2193  -10.5982 H   0  0  0  0  0  0  0  0  0  0  0  0
    1.2910    4.4167  -12.9714 H   0  0  0  0  0  0  0  0  0  0  0  0
    1.8810    1.7686  -15.4886 H   0  0  0  0  0  0  0  0  0  0  0  0
    0.1997    2.1968  -14.9666 H   0  0  0  0  0  0  0  0  0  0  0  0
    1.4419    3.4884  -15.2396 H   0  0  0  0  0  0  0  0  0  0  0  0
    2.1290    0.2254  -13.5401 H   0  0  0  0  0  0  0  0  0  0  0  0
    2.7529    0.0212  -11.1825 H   0  0  0  0  0  0  0  0  0  0  0  0
    4.5920    3.7156  -10.2381 H   0  0  0  0  0  0  0  0  0  0  0  0
    5.8501    5.3777   -8.9507 H   0  0  0  0  0  0  0  0  0  0  0  0
    6.1481    6.6587   -6.9141 H   0  0  0  0  0  0  0  0  0  0  0  0
    6.3427    5.3900   -5.6364 H   0  0  0  0  0  0  0  0  0  0  0  0
    4.9176    6.5033   -5.5985 H   0  0  0  0  0  0  0  0  0  0  0  0
    3.6583    4.2682   -5.3951 H   0  0  0  0  0  0  0  0  0  0  0  0
    2.3960    2.6261   -6.6874 H   0  0  0  0  0  0  0  0  0  0  0  0
   -2.3107   -4.3399   -5.9303 H   0  0  0  0  0  0  0  0  0  0  0  0
   -2.2206   -5.5719   -3.8071 H   0  0  0  0  0  0  0  0  0  0  0  0
    0.3143   -6.1208   -1.9484 H   0  0  0  0  0  0  0  0  0  0  0  0
   -1.3894   -5.7086   -1.5000 H   0  0  0  0  0  0  0  0  0  0  0  0
   -0.0434   -4.6511   -0.9430 H   0  0  0  0  0  0  0  0  0  0  0  0
    1.2054   -3.2370   -2.6039 H   0  0  0  0  0  0  0  0  0  0  0  0
    1.1210   -2.0094   -4.7323 H   0  0  0  0  0  0  0  0  0  0  0  0
    0.3618   -4.9459   -7.2824 H   0  0  0  0  0  0  0  0  0  0  0  0
    0.2220   -6.1897   -9.3906 H   0  0  0  0  0  0  0  0  0  0  0  0
   -1.8742   -5.2467  -12.2653 H   0  0  0  0  0  0  0  0  0  0  0  0
   -0.7208   -6.4630  -11.6133 H   0  0  0  0  0  0  0  0  0  0  0  0
   -0.0935   -4.9500  -12.3844 H   0  0  0  0  0  0  0  0  0  0  0  0
   -1.9612   -2.9365  -11.1853 H   0  0  0  0  0  0  0  0  0  0  0  0
   -1.8357   -1.6813   -9.0782 H   0  0  0  0  0  0  0  0  0  0  0  0
   -0.0182    1.3793   -4.4882 H   0  0  0  0  0  0  0  0  0  0  0  0
    1.4747    3.3224   -4.1784 H   0  0  0  0  0  0  0  0  0  0  0  0
    0.6866    5.6092   -4.6448 H   0  0  0  0  0  0  0  0  0  0  0  0
   -2.6264    6.3716   -6.2585 H   0  0  0  0  0  0  0  0  0  0  0  0
   -0.9580    6.9889   -6.0237 H   0  0  0  0  0  0  0  0  0  0  0  0
   -2.9899    6.4295   -3.7523 H   0  0  0  0  0  0  0  0  0  0  0  0
   -1.3461    7.1664   -3.5558 H   0  0  0  0  0  0  0  0  0  0  0  0
   -2.6156    8.0504   -4.4655 H   0  0  0  0  0  0  0  0  0  0  0  0
   -3.1214    4.0284   -5.9208 H   0  0  0  0  0  0  0  0  0  0  0  0
   -6.5550   -0.9714    6.0279 H   0  0  0  0  0  0  0  0  0  0  0  0
   -7.3495   -1.3512    8.3224 H   0  0  0  0  0  0  0  0  0  0  0  0
   -6.1728   -2.9277    9.8275 H   0  0  0  0  0  0  0  0  0  0  0  0
   -2.8444   -4.1186    9.2936 H   0  0  0  0  0  0  0  0  0  0  0  0
   -4.3017   -4.3389   10.3138 H   0  0  0  0  0  0  0  0  0  0  0  0
   -5.1067   -6.1513    8.7420 H   0  0  0  0  0  0  0  0  0  0  0  0
   -3.5685   -5.9583    7.7701 H   0  0  0  0  0  0  0  0  0  0  0  0
   -3.5131   -6.5258    9.4811 H   0  0  0  0  0  0  0  0  0  0  0  0
   -3.3347   -3.7691    6.7125 H   0  0  0  0  0  0  0  0  0  0  0  0
   -4.6695   -3.2848   -3.3323 H   0  0  0  0  0  0  0  0  0  0  0  0
   -5.5773   -2.5846   -4.6558 H   0  0  0  0  0  0  0  0  0  0  0  0
   -7.7251   -2.6831   -3.3803 H   0  0  0  0  0  0  0  0  0  0  0  0
   -6.8775   -3.5970   -2.0456 H   0  0  0  0  0  0  0  0  0  0  0  0
   -6.9801   -4.3170   -3.6779 H   0  0  0  0  0  0  0  0  0  0  0  0
   -4.5822   -3.9078   -1.3803 H   0  0  0  0  0  0  0  0  0  0  0  0
   -3.9139   -4.1220    0.1941 H   0  0  0  0  0  0  0  0  0  0  0  0
   -2.6747   -1.8935    0.0476 H   0  0  0  0  0  0  0  0  0  0  0  0
   -2.1725   -3.1121   -1.1781 H   0  0  0  0  0  0  0  0  0  0  0  0
   -3.2352   -1.7433   -1.6666 H   0  0  0  0  0  0  0  0  0  0  0  0
   -0.4573   -3.7884    4.4609 H   0  0  0  0  0  0  0  0  0  0  0  0
    2.3280   -2.3493    3.9511 H   0  0  0  0  0  0  0  0  0  0  0  0
    3.9437   -3.8997    2.9342 H   0  0  0  0  0  0  0  0  0  0  0  0
    4.9537   -7.1463    4.4334 H   0  0  0  0  0  0  0  0  0  0  0  0
    5.0196   -6.1176    2.9638 H   0  0  0  0  0  0  0  0  0  0  0  0
    6.7172   -4.6431    4.0312 H   0  0  0  0  0  0  0  0  0  0  0  0
    7.2644   -6.3501    4.0301 H   0  0  0  0  0  0  0  0  0  0  0  0
    6.6379   -5.6263    5.5590 H   0  0  0  0  0  0  0  0  0  0  0  0
    4.0279   -6.2011    6.5905 H   0  0  0  0  0  0  0  0  0  0  0  0
    2.4231   -4.6252    7.6133 H   0  0  0  0  0  0  0  0  0  0  0  0
    0.4547    2.2155    6.7791 H   0  0  0  0  0  0  0  0  0  0  0  0
   -0.5949    4.3444    7.4210 H   0  0  0  0  0  0  0  0  0  0  0  0
   -2.0924    5.4405    9.1311 H   0  0  0  0  0  0  0  0  0  0  0  0
   -3.5389    4.5781    9.7516 H   0  0  0  0  0  0  0  0  0  0  0  0
   -3.0834    5.4864    6.8324 H   0  0  0  0  0  0  0  0  0  0  0  0
   -4.1795    6.2637    8.0334 H   0  0  0  0  0  0  0  0  0  0  0  0
   -4.5382    4.5925    7.4393 H   0  0  0  0  0  0  0  0  0  0  0  0
   -3.8191    2.1734    9.3121 H   0  0  0  0  0  0  0  0  0  0  0  0
   -2.7514    0.0347    8.6820 H   0  0  0  0  0  0  0  0  0  0  0  0
    1.2542    0.9211    9.5484 H   0  0  0  0  0  0  0  0  0  0  0  0
    4.8014   -0.1017    9.7044 H   0  0  0  0  0  0  0  0  0  0  0  0
    0.5256   -1.5691   13.7633 H   0  0  0  0  0  0  0  0  0  0  0  0
    0.8058   -0.4244   15.1047 H   0  0  0  0  0  0  0  0  0  0  0  0
   -0.4368    1.3785   13.8046 H   0  0  0  0  0  0  0  0  0  0  0  0
   -1.4441   -0.0743   14.1642 H   0  0  0  0  0  0  0  0  0  0  0  0
   -0.7793    0.1718   12.5051 H   0  0  0  0  0  0  0  0  0  0  0  0
    4.4280    2.2813   13.7750 H   0  0  0  0  0  0  0  0  0  0  0  0
    5.2157    1.2919   11.5950 H   0  0  0  0  0  0  0  0  0  0  0  0
    5.9332    0.3211   13.8178 H   0  0  0  0  0  0  0  0  0  0  0  0
    5.9397   -0.8850   12.4759 H   0  0  0  0  0  0  0  0  0  0  0  0
    4.5975   -0.8895   13.7054 H   0  0  0  0  0  0  0  0  0  0  0  0
  1  2  2  3
  2  3  1  0
  3  4  2  0
  3  5  1  0
  5  6  2  0
  6  7  1  0
  7  8  2  0
  8  9  1  0
  8 10  1  0
 10 11  2  0
 11 12  1  0
 12 13  2  3
 13 14  1  0
 14 15  3  0
 13 16  1  0
 16 17  3  0
  1 18  1  0
 18 19  2  0
 19 20  1  0
 20 21  1  0
 21 22  2  0
 22 23  1  0
 23 24  2  0
 24 25  1  0
 24 26  1  0
 26 27  2  0
 20 28  1  0
 28 29  2  0
 29 30  1  0
 30 31  2  0
 31 32  1  0
 31 33  1  0
 33 34  2  0
 19 35  1  0
 35 36  1  0
 36 37  1  0
 37 38  2  0
 38 39  1  0
 39 40  1  0
 40 41  2  0
 41 42  1  0
 42 43  2  0
 43 44  1  0
 43 45  1  0
 45 46  2  0
 39 47  1  0
 47 48  2  0
 48 49  1  0
 49 50  2  0
 50 51  1  0
 50 52  1  0
 52 53  2  0
 38 54  1  0
 54 55  1  0
 37 56  1  0
 56 57  2  0
 57 58  1  0
 58 59  2  0
 59 60  1  0
 60 61  2  0
 61 62  1  0
 62 63  1  0
 63 64  1  0
 62 65  2  0
 57 66  1  0
 66 67  1  0
 67 68  1  0
 68 69  1  0
 69 70  1  0
 70 71  1  0
 71 72  2  0
 72 73  1  0
 73 74  1  0
 71 75  1  0
 75 76  1  0
 76 77  1  0
 77 78  1  0
 78 79  1  0
 79 80  1  0
 80 81  2  0
 81 82  1  0
 82 83  2  0
 83 84  1  0
 84 85  1  0
 85 86  1  0
 84 87  2  0
 79 88  2  0
 88 89  1  0
 89 90  1  0
 90 91  1  0
 91 92  1  0
 92 93  1  0
 93 94  1  0
 94 95  1  0
 95 96  1  0
 96 97  1  0
 97 98  1  0
 95 99  1  0
 99100  1  0
 92101  1  0
101102  1  0
 88103  1  0
103104  2  0
104105  1  0
105106  2  0
106107  1  0
107108  2  0
108109  1  0
109110  2  0
110111  1  0
111112  1  0
110113  1  0
113114  2  0
106115  1  0
115116  2  0
116117  1  0
117118  1  0
118119  2  0
119120  1  0
120121  2  0
121122  1  0
122123  1  0
121124  1  0
124125  2  0
117126  2  0
126127  1  0
116128  1  0
128129  2  0
129130  1  0
129131  1  0
131132  2  3
132133  1  0
133134  2  0
133135  1  0
135136  1  0
136137  1  0
135138  1  0
138139  2  0
138140  1  0
140141  1  0
141142  3  0
140143  1  0
143144  1  0
 12  2  1  0
 55 18  1  0
 98 56  1  0
127103  1  0
143132  1  0
 11  5  1  0
 27 21  1  0
 34 28  1  0
 54 35  2  0
 65 58  1  0
 97 66  2  0
126105  1  0
 46 40  1  0
 53 47  1  0
 96 68  2  0
114107  1  0
130115  1  0
 94 69  2  0
125118  1  0
 74 70  2  0
 93 75  2  0
 91 76  2  0
 90 78  2  0
 87 80  1  0
  1145  1  0
  6146  1  0
  7147  1  0
 10148  1  0
 22149  1  0
 23150  1  0
 25151  1  0
 25152  1  0
 25153  1  0
 26154  1  0
 27155  1  0
 29156  1  0
 30157  1  0
 32158  1  0
 32159  1  0
 32160  1  0
 33161  1  0
 34162  1  0
 41163  1  0
 42164  1  0
 44165  1  0
 44166  1  0
 44167  1  0
 45168  1  0
 46169  1  0
 48170  1  0
 49171  1  0
 51172  1  0
 51173  1  0
 51174  1  0
 52175  1  0
 53176  1  0
 59177  1  0
 60178  1  0
 61179  1  0
 63180  1  0
 63181  1  0
 64182  1  0
 64183  1  0
 64184  1  0
 65185  1  0
 81186  1  0
 82187  1  0
 83188  1  0
 85189  1  0
 85190  1  0
 86191  1  0
 86192  1  0
 86193  1  0
 87194  1  0
 99195  1  0
 99196  1  0
100197  1  0
100198  1  0
100199  1  0
101200  1  0
101201  1  0
102202  1  0
102203  1  0
102204  1  0
104205  1  0
108206  1  0
109207  1  0
111208  1  0
111209  1  0
112210  1  0
112211  1  0
112212  1  0
113213  1  0
114214  1  0
119215  1  0
120216  1  0
122217  1  0
122218  1  0
123219  1  0
123220  1  0
123221  1  0
124222  1  0
125223  1  0
128224  1  0
131225  1  0
136226  1  0
136227  1  0
137228  1  0
137229  1  0
137230  1  0
140231  1  0
143232  1  0
144233  1  0
144234  1  0
144235  1  0
M  END

