
     RDKit          3D

191211  0  0  0  0  0  0  0  0999 V2000
    3.9407   -0.3185   -6.1594 C   0  0  0  0  0  0  0  0  0  0  0  0
    5.0067   -0.7919   -6.8272 C   0  0  0  0  0  0  0  0  0  0  0  0
    6.3889   -0.7953   -6.3332 C   0  0  0  0  0  0  0  0  0  0  0  0
    6.8337   -0.1687   -5.3330 O   0  0  0  0  0  0  0  0  0  0  0  0
    7.1633   -1.6914   -7.1672 C   0  0  0  0  0  0  0  0  0  0  0  0
    8.5006   -2.0612   -7.0196 C   0  0  0  0  0  0  0  0  0  0  0  0
    9.0294   -3.0072   -7.9100 C   0  0  0  0  0  0  0  0  0  0  0  0
    8.2135   -3.5776   -8.9048 C   0  0  0  0  0  0  0  0  0  0  0  0
    8.9339   -4.9046  -10.0748 Br  0  0  0  0  0  0  0  0  0  0  0  0
    6.8744   -3.1855   -9.0366 C   0  0  0  0  0  0  0  0  0  0  0  0
    6.3612   -2.2059   -8.1695 C   0  0  0  0  0  0  0  0  0  0  0  0
    5.0060   -1.5917   -8.0898 C   0  0  0  0  0  0  0  0  0  0  0  0
    4.0762   -1.5418   -9.0806 C   0  0  0  0  0  0  0  0  0  0  0  0
    2.9122   -0.6964   -9.0011 C   0  0  0  0  0  0  0  0  0  0  0  0
    1.9782   -0.0127   -8.9536 N   0  0  0  0  0  0  0  0  0  0  0  0
    4.2533   -2.2078  -10.3412 C   0  0  0  0  0  0  0  0  0  0  0  0
    4.3860   -2.7249  -11.3711 N   0  0  0  0  0  0  0  0  0  0  0  0
    4.0734    0.3968   -4.8892 C   0  0  0  0  0  0  0  0  0  0  0  0
    4.0283   -0.1974   -3.6257 C   0  0  0  0  0  0  0  0  0  0  0  0
    3.5994   -1.5495   -3.3929 N   0  0  0  0  0  0  0  0  0  0  0  0
    2.2505   -1.7767   -2.9107 C   0  0  0  0  0  0  0  0  0  0  0  0
    1.9811   -2.7886   -1.9716 C   0  0  0  0  0  0  0  0  0  0  0  0
    0.7054   -2.9110   -1.4091 C   0  0  0  0  0  0  0  0  0  0  0  0
   -0.3242   -2.0336   -1.7791 C   0  0  0  0  0  0  0  0  0  0  0  0
   -1.6678   -2.1032   -1.1133 C   0  0  0  0  0  0  0  0  0  0  0  0
   -0.0686   -1.0338   -2.7275 C   0  0  0  0  0  0  0  0  0  0  0  0
    1.2009   -0.9111   -3.2912 C   0  0  0  0  0  0  0  0  0  0  0  0
    4.5180   -2.6313   -3.6541 C   0  0  0  0  0  0  0  0  0  0  0  0
    4.0926   -3.7861   -4.3324 C   0  0  0  0  0  0  0  0  0  0  0  0
    4.9966   -4.8168   -4.6098 C   0  0  0  0  0  0  0  0  0  0  0  0
    6.3411   -4.7038   -4.2123 C   0  0  0  0  0  0  0  0  0  0  0  0
    7.3206   -5.8098   -4.4834 C   0  0  0  0  0  0  0  0  0  0  0  0
    6.7621   -3.5568   -3.5268 C   0  0  0  0  0  0  0  0  0  0  0  0
    5.8607   -2.5265   -3.2524 C   0  0  0  0  0  0  0  0  0  0  0  0
    4.0342    0.7660   -2.6257 C   0  0  0  0  0  0  0  0  0  0  0  0
    3.8223    0.6996   -0.9720 S   0  0  0  0  0  0  0  0  0  0  0  0
    3.7147    2.3929   -0.7775 C   0  0  0  0  0  0  0  0  0  0  0  0
    3.7806    3.0035   -2.0508 C   0  0  0  0  0  0  0  0  0  0  0  0
    3.3602    4.3463   -2.3529 N   0  0  0  0  0  0  0  0  0  0  0  0
    1.9973    4.7371   -2.0842 C   0  0  0  0  0  0  0  0  0  0  0  0
    0.9377    3.8269   -2.2671 C   0  0  0  0  0  0  0  0  0  0  0  0
   -0.3689    4.1865   -1.9284 C   0  0  0  0  0  0  0  0  0  0  0  0
   -0.6365    5.4619   -1.4016 C   0  0  0  0  0  0  0  0  0  0  0  0
   -2.0368    5.8492   -1.0192 C   0  0  0  0  0  0  0  0  0  0  0  0
    0.4070    6.3896   -1.2756 C   0  0  0  0  0  0  0  0  0  0  0  0
    1.7138    6.0280   -1.6151 C   0  0  0  0  0  0  0  0  0  0  0  0
    4.1772    5.1596   -3.2199 C   0  0  0  0  0  0  0  0  0  0  0  0
    3.6226    5.7653   -4.3618 C   0  0  0  0  0  0  0  0  0  0  0  0
    4.4124    6.5535   -5.2028 C   0  0  0  0  0  0  0  0  0  0  0  0
    5.7686    6.7609   -4.9057 C   0  0  0  0  0  0  0  0  0  0  0  0
    6.6050    7.6187   -5.8098 C   0  0  0  0  0  0  0  0  0  0  0  0
    6.3264    6.1549   -3.7646 C   0  0  0  0  0  0  0  0  0  0  0  0
    5.5376    5.3553   -2.9326 C   0  0  0  0  0  0  0  0  0  0  0  0
    4.0173    2.0539   -3.0461 C   0  0  0  0  0  0  0  0  0  0  0  0
    4.0159    2.0914   -4.7265 S   0  0  0  0  0  0  0  0  0  0  0  0
    3.4995    3.0125    0.5422 C   0  0  0  0  0  0  0  0  0  0  0  0
    4.1090    2.5416    1.7394 C   0  0  0  0  0  0  0  0  0  0  0  0
    5.5449    2.1151    1.8965 C   0  0  0  0  0  0  0  0  0  0  0  0
    6.4175    1.9796    0.7938 C   0  0  0  0  0  0  0  0  0  0  0  0
    7.7521    1.6056    0.9667 C   0  0  0  0  0  0  0  0  0  0  0  0
    8.2668    1.4134    2.2430 C   0  0  0  0  0  0  0  0  0  0  0  0
    7.4603    1.6269    3.3660 C   0  0  0  0  0  0  0  0  0  0  0  0
    8.0203    1.4499    4.7540 C   0  0  0  0  0  0  0  0  0  0  0  0
    7.7397    0.0445    5.2725 C   0  0  0  0  0  0  0  0  0  0  0  0
    6.1107    1.9786    3.1868 C   0  0  0  0  0  0  0  0  0  0  0  0
    3.2056    2.6578    2.8171 C   0  0  0  0  0  0  0  0  0  0  0  0
    2.9578    1.6614    4.1944 S   0  0  0  0  0  0  0  0  0  0  0  0
    1.3931    2.2602    4.4158 C   0  0  0  0  0  0  0  0  0  0  0  0
    0.2458    1.9278    5.0760 C   0  0  0  0  0  0  0  0  0  0  0  0
    0.0190    0.9774    6.0716 C   0  0  0  0  0  0  0  0  0  0  0  0
   -1.3144    0.7678    6.5214 C   0  0  0  0  0  0  0  0  0  0  0  0
   -1.4985   -0.1774    7.4760 N   0  0  0  0  0  0  0  0  0  0  0  0
    0.0611   -0.6806    7.6828 S   0  0  0  0  0  0  0  0  0  0  0  0
    0.9857    0.2100    6.6339 N   0  0  0  0  0  0  0  0  0  0  0  0
   -2.3491    1.4994    5.9304 C   0  0  0  0  0  0  0  0  0  0  0  0
   -3.6961    1.2724    5.9870 C   0  0  0  0  0  0  0  0  0  0  0  0
   -4.6257   -0.0888    6.4173 S   0  0  0  0  0  0  0  0  0  0  0  0
   -5.8458    0.3369    5.3051 C   0  0  0  0  0  0  0  0  0  0  0  0
   -6.9203   -0.3925    4.7747 C   0  0  0  0  0  0  0  0  0  0  0  0
   -7.2561   -1.7427    5.2650 C   0  0  0  0  0  0  0  0  0  0  0  0
   -6.9617   -2.8711    4.4844 C   0  0  0  0  0  0  0  0  0  0  0  0
   -7.2165   -4.1478    4.9842 C   0  0  0  0  0  0  0  0  0  0  0  0
   -7.7438   -4.3094    6.2717 C   0  0  0  0  0  0  0  0  0  0  0  0
   -8.0388   -3.1842    7.0575 C   0  0  0  0  0  0  0  0  0  0  0  0
   -8.5621   -3.3521    8.4594 C   0  0  0  0  0  0  0  0  0  0  0  0
   -7.4213   -3.6233    9.4385 C   0  0  0  0  0  0  0  0  0  0  0  0
   -7.7791   -1.8999    6.5535 C   0  0  0  0  0  0  0  0  0  0  0  0
   -7.4417    0.2343    3.6157 C   0  0  0  0  0  0  0  0  0  0  0  0
   -6.5145    1.6205    3.3003 S   0  0  0  0  0  0  0  0  0  0  0  0
   -5.5029    1.4633    4.6100 C   0  0  0  0  0  0  0  0  0  0  0  0
   -4.2613    1.9826    4.9735 C   0  0  0  0  0  0  0  0  0  0  0  0
   -3.3479    2.7030    4.2689 N   0  0  0  0  0  0  0  0  0  0  0  0
   -2.1407    2.4194    4.8791 C   0  0  0  0  0  0  0  0  0  0  0  0
   -0.7874    2.6820    4.4726 C   0  0  0  0  0  0  0  0  0  0  0  0
   -0.2548    3.4937    3.4897 N   0  0  0  0  0  0  0  0  0  0  0  0
    1.0536    3.1551    3.4727 C   0  0  0  0  0  0  0  0  0  0  0  0
    2.0563    3.3573    2.5420 C   0  0  0  0  0  0  0  0  0  0  0  0
    1.9792    3.6717    0.9164 S   0  0  0  0  0  0  0  0  0  0  0  0
   -0.7150    4.7708    2.9352 C   0  0  0  0  0  0  0  0  0  0  0  0
   -1.2468    5.7033    4.0294 C   0  0  0  0  0  0  0  0  0  0  0  0
   -3.6334    3.3137    2.9669 C   0  0  0  0  0  0  0  0  0  0  0  0
   -3.1399    2.4326    1.8180 C   0  0  0  0  0  0  0  0  0  0  0  0
   -8.5347   -0.2400    2.7217 C   0  0  0  0  0  0  0  0  0  0  0  0
   -8.9075    0.2943    1.4795 C   0  0  0  0  0  0  0  0  0  0  0  0
   -8.3130    1.4369    0.8381 C   0  0  0  0  0  0  0  0  0  0  0  0
   -7.8415    2.3570    0.3203 N   0  0  0  0  0  0  0  0  0  0  0  0
   -9.9420   -0.4017    0.8506 C   0  0  0  0  0  0  0  0  0  0  0  0
  -10.4085   -1.4926    1.5686 C   0  0  0  0  0  0  0  0  0  0  0  0
   -9.5349   -1.5766    3.0026 S   0  0  0  0  0  0  0  0  0  0  0  0
  -11.3250   -2.4888    0.9889 C   0  0  0  0  0  0  0  0  0  0  0  0
  -10.8703   -3.7151    0.6628 C   0  0  0  0  0  0  0  0  0  0  0  0
   -9.9685   -4.4776    1.5325 C   0  0  0  0  0  0  0  0  0  0  0  0
  -10.0456   -4.5588    2.7904 O   0  0  0  0  0  0  0  0  0  0  0  0
   -9.0103   -5.1932    0.7182 C   0  0  0  0  0  0  0  0  0  0  0  0
   -7.9313   -5.9676    1.1433 C   0  0  0  0  0  0  0  0  0  0  0  0
   -7.0788   -6.5190    0.1785 C   0  0  0  0  0  0  0  0  0  0  0  0
   -7.3174   -6.2840   -1.1853 C   0  0  0  0  0  0  0  0  0  0  0  0
   -6.1294   -7.0160   -2.4886 Br  0  0  0  0  0  0  0  0  0  0  0  0
   -8.4112   -5.4979   -1.5957 C   0  0  0  0  0  0  0  0  0  0  0  0
   -9.2672   -4.9523   -0.6203 C   0  0  0  0  0  0  0  0  0  0  0  0
  -10.4807   -4.0877   -0.7392 C   0  0  0  0  0  0  0  0  0  0  0  0
  -11.1158   -3.7129   -1.8827 C   0  0  0  0  0  0  0  0  0  0  0  0
  -12.4072   -3.0723   -1.8687 C   0  0  0  0  0  0  0  0  0  0  0  0
  -13.4426   -2.5537   -1.8656 N   0  0  0  0  0  0  0  0  0  0  0  0
  -10.5816   -3.9487   -3.1959 C   0  0  0  0  0  0  0  0  0  0  0  0
  -10.1457   -4.1140   -4.2592 N   0  0  0  0  0  0  0  0  0  0  0  0
    2.9403   -0.5298   -6.4880 H   0  0  0  0  0  0  0  0  0  0  0  0
    9.1150   -1.6458   -6.2332 H   0  0  0  0  0  0  0  0  0  0  0  0
   10.0651   -3.3078   -7.8174 H   0  0  0  0  0  0  0  0  0  0  0  0
    6.2555   -3.6734   -9.7671 H   0  0  0  0  0  0  0  0  0  0  0  0
    2.7672   -3.4523   -1.6471 H   0  0  0  0  0  0  0  0  0  0  0  0
    0.5281   -3.6800   -0.6644 H   0  0  0  0  0  0  0  0  0  0  0  0
   -1.6694   -1.4332   -0.2244 H   0  0  0  0  0  0  0  0  0  0  0  0
   -1.8923   -3.1420   -0.7831 H   0  0  0  0  0  0  0  0  0  0  0  0
   -2.4683   -1.7800   -1.8095 H   0  0  0  0  0  0  0  0  0  0  0  0
   -0.8451   -0.3365   -3.0171 H   0  0  0  0  0  0  0  0  0  0  0  0
    1.3735   -0.1214   -4.0117 H   0  0  0  0  0  0  0  0  0  0  0  0
    3.0635   -3.8793   -4.6594 H   0  0  0  0  0  0  0  0  0  0  0  0
    4.6497   -5.6976   -5.1391 H   0  0  0  0  0  0  0  0  0  0  0  0
    8.2472   -5.3949   -4.9427 H   0  0  0  0  0  0  0  0  0  0  0  0
    6.8952   -6.5629   -5.1831 H   0  0  0  0  0  0  0  0  0  0  0  0
    7.5819   -6.3133   -3.5353 H   0  0  0  0  0  0  0  0  0  0  0  0
    7.7906   -3.4584   -3.2080 H   0  0  0  0  0  0  0  0  0  0  0  0
    6.2029   -1.6453   -2.7227 H   0  0  0  0  0  0  0  0  0  0  0  0
    1.1252    2.8331   -2.6613 H   0  0  0  0  0  0  0  0  0  0  0  0
   -1.1709    3.4677   -2.0677 H   0  0  0  0  0  0  0  0  0  0  0  0
   -2.0249    6.4752   -0.1022 H   0  0  0  0  0  0  0  0  0  0  0  0
   -2.6598    4.9500   -0.8158 H   0  0  0  0  0  0  0  0  0  0  0  0
   -2.4930    6.4244   -1.8484 H   0  0  0  0  0  0  0  0  0  0  0  0
    0.2102    7.3835   -0.8976 H   0  0  0  0  0  0  0  0  0  0  0  0
    2.5141    6.7456   -1.4810 H   0  0  0  0  0  0  0  0  0  0  0  0
    2.5839    5.6105   -4.6127 H   0  0  0  0  0  0  0  0  0  0  0  0
    3.9717    6.9981   -6.0872 H   0  0  0  0  0  0  0  0  0  0  0  0
    6.6231    7.1816   -6.8311 H   0  0  0  0  0  0  0  0  0  0  0  0
    7.6534    7.6949   -5.4410 H   0  0  0  0  0  0  0  0  0  0  0  0
    6.1763    8.6414   -5.8581 H   0  0  0  0  0  0  0  0  0  0  0  0
    7.3731    6.2999   -3.5248 H   0  0  0  0  0  0  0  0  0  0  0  0
    5.9779    4.9062   -2.0512 H   0  0  0  0  0  0  0  0  0  0  0  0
    6.1106    2.1887   -0.2124 H   0  0  0  0  0  0  0  0  0  0  0  0
    8.3959    1.4828    0.1033 H   0  0  0  0  0  0  0  0  0  0  0  0
    9.3025    1.1233    2.3611 H   0  0  0  0  0  0  0  0  0  0  0  0
    7.5629    2.1925    5.4432 H   0  0  0  0  0  0  0  0  0  0  0  0
    9.1198    1.6332    4.7531 H   0  0  0  0  0  0  0  0  0  0  0  0
    8.2167   -0.7076    4.6119 H   0  0  0  0  0  0  0  0  0  0  0  0
    6.6440   -0.1421    5.3063 H   0  0  0  0  0  0  0  0  0  0  0  0
    8.1488   -0.0655    6.2958 H   0  0  0  0  0  0  0  0  0  0  0  0
    5.5357    2.1882    4.0693 H   0  0  0  0  0  0  0  0  0  0  0  0
   -6.5273   -2.7589    3.4998 H   0  0  0  0  0  0  0  0  0  0  0  0
   -6.9833   -5.0154    4.3859 H   0  0  0  0  0  0  0  0  0  0  0  0
   -7.9168   -5.3094    6.6521 H   0  0  0  0  0  0  0  0  0  0  0  0
   -9.2906   -4.1936    8.4971 H   0  0  0  0  0  0  0  0  0  0  0  0
   -9.1034   -2.4331    8.7770 H   0  0  0  0  0  0  0  0  0  0  0  0
   -7.0227   -4.6474    9.2866 H   0  0  0  0  0  0  0  0  0  0  0  0
   -6.6042   -2.8857    9.3011 H   0  0  0  0  0  0  0  0  0  0  0  0
   -7.7980   -3.5379   10.4814 H   0  0  0  0  0  0  0  0  0  0  0  0
   -7.9749   -1.0255    7.1654 H   0  0  0  0  0  0  0  0  0  0  0  0
   -1.4074    4.6147    2.0903 H   0  0  0  0  0  0  0  0  0  0  0  0
    0.1375    5.3114    2.4681 H   0  0  0  0  0  0  0  0  0  0  0  0
   -1.6744    6.6168    3.5614 H   0  0  0  0  0  0  0  0  0  0  0  0
   -2.0379    5.2175    4.6389 H   0  0  0  0  0  0  0  0  0  0  0  0
   -0.4204    5.9967    4.7041 H   0  0  0  0  0  0  0  0  0  0  0  0
   -3.2581    4.3418    2.9251 H   0  0  0  0  0  0  0  0  0  0  0  0
   -4.7227    3.4807    2.8467 H   0  0  0  0  0  0  0  0  0  0  0  0
   -3.6822    1.4689    1.8184 H   0  0  0  0  0  0  0  0  0  0  0  0
   -2.0542    2.2288    1.9139 H   0  0  0  0  0  0  0  0  0  0  0  0
   -3.3235    2.9466    0.8509 H   0  0  0  0  0  0  0  0  0  0  0  0
  -10.2886   -0.1613   -0.1507 H   0  0  0  0  0  0  0  0  0  0  0  0
  -12.0467   -2.0262    0.3436 H   0  0  0  0  0  0  0  0  0  0  0  0
   -7.7500   -6.1339    2.1980 H   0  0  0  0  0  0  0  0  0  0  0  0
   -6.2396   -7.1330    0.4931 H   0  0  0  0  0  0  0  0  0  0  0  0
   -8.5501   -5.3243   -2.6458 H   0  0  0  0  0  0  0  0  0  0  0  0
  1  2  2  3
  2  3  1  0
  3  4  2  0
  3  5  1  0
  5  6  2  0
  6  7  1  0
  7  8  2  0
  8  9  1  0
  8 10  1  0
 10 11  2  0
 11 12  1  0
 12 13  2  3
 13 14  1  0
 14 15  3  0
 13 16  1  0
 16 17  3  0
  1 18  1  0
 18 19  2  0
 19 20  1  0
 20 21  1  0
 21 22  2  0
 22 23  1  0
 23 24  2  0
 24 25  1  0
 24 26  1  0
 26 27  2  0
 20 28  1  0
 28 29  2  0
 29 30  1  0
 30 31  2  0
 31 32  1  0
 31 33  1  0
 33 34  2  0
 19 35  1  0
 35 36  1  0
 36 37  1  0
 37 38  2  0
 38 39  1  0
 39 40  1  0
 40 41  2  0
 41 42  1  0
 42 43  2  0
 43 44  1  0
 43 45  1  0
 45 46  2  0
 39 47  1  0
 47 48  2  0
 48 49  1  0
 49 50  2  0
 50 51  1  0
 50 52  1  0
 52 53  2  0
 38 54  1  0
 54 55  1  0
 37 56  1  0
 56 57  2  0
 57 58  1  0
 58 59  2  0
 59 60  1  0
 60 61  2  0
 61 62  1  0
 62 63  1  0
 63 64  1  0
 62 65  2  0
 57 66  1  0
 66 67  1  0
 67 68  1  0
 68 69  1  0
 69 70  1  0
 70 71  1  0
 71 72  2  0
 72 73  1  0
 73 74  1  0
 71 75  1  0
 75 76  1  0
 76 77  1  0
 77 78  1  0
 78 79  1  0
 79 80  1  0
 80 81  2  0
 81 82  1  0
 82 83  2  0
 83 84  1  0
 84 85  1  0
 85 86  1  0
 84 87  2  0
 79 88  2  0
 88 89  1  0
 89 90  1  0
 90 91  1  0
 91 92  1  0
 92 93  1  0
 93 94  1  0
 94 95  1  0
 95 96  1  0
 96 97  1  0
 97 98  1  0
 95 99  1  0
 99100  1  0
 92101  1  0
101102  1  0
 88103  1  0
103104  2  0
104105  1  0
105106  3  0
104107  1  0
107108  2  0
108109  1  0
108110  1  0
110111  2  3
111112  1  0
112113  2  0
112114  1  0
114115  2  0
115116  1  0
116117  2  0
117118  1  0
117119  1  0
119120  2  0
120121  1  0
121122  2  3
122123  1  0
123124  3  0
122125  1  0
125126  3  0
 12  2  1  0
 55 18  1  0
 98 56  1  0
109103  1  0
121111  1  0
 11  5  1  0
 27 21  1  0
 34 28  1  0
 54 35  2  0
 65 58  1  0
 97 66  2  0
120114  1  0
 46 40  1  0
 53 47  1  0
 96 68  2  0
 94 69  2  0
 74 70  2  0
 93 75  2  0
 91 76  2  0
 90 78  2  0
 87 80  1  0
  1127  1  0
  6128  1  0
  7129  1  0
 10130  1  0
 22131  1  0
 23132  1  0
 25133  1  0
 25134  1  0
 25135  1  0
 26136  1  0
 27137  1  0
 29138  1  0
 30139  1  0
 32140  1  0
 32141  1  0
 32142  1  0
 33143  1  0
 34144  1  0
 41145  1  0
 42146  1  0
 44147  1  0
 44148  1  0
 44149  1  0
 45150  1  0
 46151  1  0
 48152  1  0
 49153  1  0
 51154  1  0
 51155  1  0
 51156  1  0
 52157  1  0
 53158  1  0
 59159  1  0
 60160  1  0
 61161  1  0
 63162  1  0
 63163  1  0
 64164  1  0
 64165  1  0
 64166  1  0
 65167  1  0
 81168  1  0
 82169  1  0
 83170  1  0
 85171  1  0
 85172  1  0
 86173  1  0
 86174  1  0
 86175  1  0
 87176  1  0
 99177  1  0
 99178  1  0
100179  1  0
100180  1  0
100181  1  0
101182  1  0
101183  1  0
102184  1  0
102185  1  0
102186  1  0
107187  1  0
110188  1  0
115189  1  0
116190  1  0
119191  1  0
M  END

