
     RDKit          3D

249274  0  0  0  0  0  0  0  0999 V2000
   -7.2338    2.4784   -6.9298 C   0  0  0  0  0  0  0  0  0  0  0  0
   -7.3369    3.6128   -7.6443 C   0  0  0  0  0  0  0  0  0  0  0  0
   -7.5518    3.5493   -9.0927 C   0  0  0  0  0  0  0  0  0  0  0  0
   -8.2855    2.7211   -9.7047 O   0  0  0  0  0  0  0  0  0  0  0  0
   -6.6778    4.5249   -9.7261 C   0  0  0  0  0  0  0  0  0  0  0  0
   -6.3984    4.6982  -11.0825 C   0  0  0  0  0  0  0  0  0  0  0  0
   -5.4134    5.6353  -11.4413 C   0  0  0  0  0  0  0  0  0  0  0  0
   -4.7037    6.3419  -10.4538 C   0  0  0  0  0  0  0  0  0  0  0  0
   -3.3466    7.5903  -10.9607 Br  0  0  0  0  0  0  0  0  0  0  0  0
   -4.9943    6.1445   -9.0917 C   0  0  0  0  0  0  0  0  0  0  0  0
   -6.0092    5.2427   -8.7484 C   0  0  0  0  0  0  0  0  0  0  0  0
   -6.4973    4.8161   -7.4203 C   0  0  0  0  0  0  0  0  0  0  0  0
   -6.4998    5.5402   -6.2761 C   0  0  0  0  0  0  0  0  0  0  0  0
   -7.3760    5.1966   -5.1849 C   0  0  0  0  0  0  0  0  0  0  0  0
   -8.0859    4.9163   -4.3133 N   0  0  0  0  0  0  0  0  0  0  0  0
   -5.7298    6.7435   -6.1231 C   0  0  0  0  0  0  0  0  0  0  0  0
   -5.1057    7.7061   -5.9953 N   0  0  0  0  0  0  0  0  0  0  0  0
   -5.9312    2.1361   -6.3321 C   0  0  0  0  0  0  0  0  0  0  0  0
   -4.9914    1.3133   -6.9628 C   0  0  0  0  0  0  0  0  0  0  0  0
   -5.3137    0.3857   -8.0083 N   0  0  0  0  0  0  0  0  0  0  0  0
   -5.7580   -0.9363   -7.6288 C   0  0  0  0  0  0  0  0  0  0  0  0
   -5.2714   -2.0668   -8.3086 C   0  0  0  0  0  0  0  0  0  0  0  0
   -5.5650   -3.3526   -7.8384 C   0  0  0  0  0  0  0  0  0  0  0  0
   -6.3590   -3.5293   -6.6944 C   0  0  0  0  0  0  0  0  0  0  0  0
   -6.5914   -4.8938   -6.1181 C   0  0  0  0  0  0  0  0  0  0  0  0
   -6.8640   -2.4058   -6.0306 C   0  0  0  0  0  0  0  0  0  0  0  0
   -6.5710   -1.1256   -6.4936 C   0  0  0  0  0  0  0  0  0  0  0  0
   -5.0920    0.7506   -9.3830 C   0  0  0  0  0  0  0  0  0  0  0  0
   -3.8817    1.3385   -9.7782 C   0  0  0  0  0  0  0  0  0  0  0  0
   -3.6576    1.6694  -11.1179 C   0  0  0  0  0  0  0  0  0  0  0  0
   -4.6547    1.4501  -12.0753 C   0  0  0  0  0  0  0  0  0  0  0  0
   -4.3911    1.7807  -13.5145 C   0  0  0  0  0  0  0  0  0  0  0  0
   -5.8664    0.8565  -11.6869 C   0  0  0  0  0  0  0  0  0  0  0  0
   -6.0809    0.5076  -10.3494 C   0  0  0  0  0  0  0  0  0  0  0  0
   -3.7898    1.2922   -6.2671 C   0  0  0  0  0  0  0  0  0  0  0  0
   -2.3298    0.5112   -6.4776 S   0  0  0  0  0  0  0  0  0  0  0  0
   -1.6196    1.1329   -5.0529 C   0  0  0  0  0  0  0  0  0  0  0  0
   -2.5921    1.9002   -4.3742 C   0  0  0  0  0  0  0  0  0  0  0  0
   -2.5555    2.1968   -2.9702 N   0  0  0  0  0  0  0  0  0  0  0  0
   -2.5683    1.0931   -2.0327 C   0  0  0  0  0  0  0  0  0  0  0  0
   -3.1603   -0.1399   -2.3807 C   0  0  0  0  0  0  0  0  0  0  0  0
   -3.1301   -1.2197   -1.4935 C   0  0  0  0  0  0  0  0  0  0  0  0
   -2.5373   -1.0783   -0.2333 C   0  0  0  0  0  0  0  0  0  0  0  0
   -2.4631   -2.2527    0.7001 C   0  0  0  0  0  0  0  0  0  0  0  0
   -1.9523    0.1455    0.1206 C   0  0  0  0  0  0  0  0  0  0  0  0
   -1.9692    1.2226   -0.7695 C   0  0  0  0  0  0  0  0  0  0  0  0
   -2.8568    3.5456   -2.5458 C   0  0  0  0  0  0  0  0  0  0  0  0
   -3.7458    3.7865   -1.4836 C   0  0  0  0  0  0  0  0  0  0  0  0
   -4.1001    5.0942   -1.1361 C   0  0  0  0  0  0  0  0  0  0  0  0
   -3.5621    6.1826   -1.8447 C   0  0  0  0  0  0  0  0  0  0  0  0
   -3.9593    7.5894   -1.5054 C   0  0  0  0  0  0  0  0  0  0  0  0
   -2.6818    5.9454   -2.9093 C   0  0  0  0  0  0  0  0  0  0  0  0
   -2.3232    4.6387   -3.2521 C   0  0  0  0  0  0  0  0  0  0  0  0
   -3.7667    2.0046   -5.1186 C   0  0  0  0  0  0  0  0  0  0  0  0
   -5.2604    2.7400   -4.8807 S   0  0  0  0  0  0  0  0  0  0  0  0
   -0.2055    0.9010   -4.6586 C   0  0  0  0  0  0  0  0  0  0  0  0
    0.8065    0.3925   -5.5043 C   0  0  0  0  0  0  0  0  0  0  0  0
    0.7362    0.4388   -6.9697 C   0  0  0  0  0  0  0  0  0  0  0  0
    0.6280   -0.7296   -7.7325 C   0  0  0  0  0  0  0  0  0  0  0  0
    0.4413   -0.6422   -9.1131 C   0  0  0  0  0  0  0  0  0  0  0  0
    0.3578    0.6137   -9.7349 C   0  0  0  0  0  0  0  0  0  0  0  0
    0.4921    1.7908   -8.9770 C   0  0  0  0  0  0  0  0  0  0  0  0
    0.4259    3.1512   -9.6238 C   0  0  0  0  0  0  0  0  0  0  0  0
   -0.7945    3.9393   -9.1466 C   0  0  0  0  0  0  0  0  0  0  0  0
    0.7061    1.6900   -7.5974 C   0  0  0  0  0  0  0  0  0  0  0  0
    2.0171    0.2729   -4.8308 C   0  0  0  0  0  0  0  0  0  0  0  0
    3.5234   -0.3897   -5.2685 S   0  0  0  0  0  0  0  0  0  0  0  0
    4.1753    0.0437   -3.7649 C   0  0  0  0  0  0  0  0  0  0  0  0
    5.2314   -0.3335   -2.9854 C   0  0  0  0  0  0  0  0  0  0  0  0
    6.0879   -1.4319   -3.1385 C   0  0  0  0  0  0  0  0  0  0  0  0
    6.7544   -1.9467   -1.9863 C   0  0  0  0  0  0  0  0  0  0  0  0
    7.5090   -3.0585   -2.1546 N   0  0  0  0  0  0  0  0  0  0  0  0
    7.2466   -3.3294   -3.7660 S   0  0  0  0  0  0  0  0  0  0  0  0
    6.2395   -2.1267   -4.2924 N   0  0  0  0  0  0  0  0  0  0  0  0
    6.6172   -1.2605   -0.7762 C   0  0  0  0  0  0  0  0  0  0  0  0
    7.1484   -1.4994    0.4630 C   0  0  0  0  0  0  0  0  0  0  0  0
    7.0103   -2.9056    1.4067 S   0  0  0  0  0  0  0  0  0  0  0  0
    6.7308   -2.0416    2.8451 C   0  0  0  0  0  0  0  0  0  0  0  0
    6.0761   -2.4049    4.0396 C   0  0  0  0  0  0  0  0  0  0  0  0
    5.5856   -3.7834    4.2919 C   0  0  0  0  0  0  0  0  0  0  0  0
    6.4487   -4.8820    4.1352 C   0  0  0  0  0  0  0  0  0  0  0  0
    6.0138   -6.1755    4.4379 C   0  0  0  0  0  0  0  0  0  0  0  0
    4.7132   -6.3853    4.9019 C   0  0  0  0  0  0  0  0  0  0  0  0
    3.8303   -5.3063    5.0431 C   0  0  0  0  0  0  0  0  0  0  0  0
    2.4364   -5.5249    5.5716 C   0  0  0  0  0  0  0  0  0  0  0  0
    1.4908   -5.9543    4.4551 C   0  0  0  0  0  0  0  0  0  0  0  0
    4.2550   -4.0178    4.6848 C   0  0  0  0  0  0  0  0  0  0  0  0
    5.6879   -1.2468    4.7645 C   0  0  0  0  0  0  0  0  0  0  0  0
    6.0308    0.1255    3.8325 S   0  0  0  0  0  0  0  0  0  0  0  0
    6.7395   -0.6977    2.5798 C   0  0  0  0  0  0  0  0  0  0  0  0
    6.8397   -0.3967    1.2257 C   0  0  0  0  0  0  0  0  0  0  0  0
    6.0770    0.4975    0.5454 N   0  0  0  0  0  0  0  0  0  0  0  0
    5.8628   -0.0928   -0.6661 C   0  0  0  0  0  0  0  0  0  0  0  0
    4.9987    0.2567   -1.7316 C   0  0  0  0  0  0  0  0  0  0  0  0
    3.7328    0.7929   -1.6797 N   0  0  0  0  0  0  0  0  0  0  0  0
    3.2801    0.6592   -2.9501 C   0  0  0  0  0  0  0  0  0  0  0  0
    2.0242    0.7455   -3.5472 C   0  0  0  0  0  0  0  0  0  0  0  0
    0.4882    1.2676   -3.1375 S   0  0  0  0  0  0  0  0  0  0  0  0
    2.8584    0.9608   -0.5079 C   0  0  0  0  0  0  0  0  0  0  0  0
    2.5618   -0.3839    0.1534 C   0  0  0  0  0  0  0  0  0  0  0  0
    5.8331    1.8753    1.0035 C   0  0  0  0  0  0  0  0  0  0  0  0
    5.9163    2.9033   -0.1262 C   0  0  0  0  0  0  0  0  0  0  0  0
    4.7606   -1.1435    5.9091 C   0  0  0  0  0  0  0  0  0  0  0  0
    4.5667   -2.0098    7.0182 C   0  0  0  0  0  0  0  0  0  0  0  0
    5.5474   -2.9317    7.5652 N   0  0  0  0  0  0  0  0  0  0  0  0
    6.9301   -2.9324    7.1562 C   0  0  0  0  0  0  0  0  0  0  0  0
    7.6521   -1.7313    7.0478 C   0  0  0  0  0  0  0  0  0  0  0  0
    8.9936   -1.7472    6.6538 C   0  0  0  0  0  0  0  0  0  0  0  0
    9.6365   -2.9669    6.3920 C   0  0  0  0  0  0  0  0  0  0  0  0
   11.0825   -2.9887    5.9978 C   0  0  0  0  0  0  0  0  0  0  0  0
    8.9402   -4.1690    6.5806 C   0  0  0  0  0  0  0  0  0  0  0  0
    7.5994   -4.1517    6.9686 C   0  0  0  0  0  0  0  0  0  0  0  0
    5.2868   -3.5629    8.8284 C   0  0  0  0  0  0  0  0  0  0  0  0
    5.4866   -2.8407   10.0146 C   0  0  0  0  0  0  0  0  0  0  0  0
    5.2172   -3.4297   11.2537 C   0  0  0  0  0  0  0  0  0  0  0  0
    4.7700   -4.7604   11.3197 C   0  0  0  0  0  0  0  0  0  0  0  0
    4.4447   -5.3808   12.6475 C   0  0  0  0  0  0  0  0  0  0  0  0
    4.5564   -5.4760   10.1300 C   0  0  0  0  0  0  0  0  0  0  0  0
    4.8186   -4.8829    8.8886 C   0  0  0  0  0  0  0  0  0  0  0  0
    3.3117   -1.7467    7.6034 C   0  0  0  0  0  0  0  0  0  0  0  0
    2.3119   -2.5165    8.7306 S   0  0  0  0  0  0  0  0  0  0  0  0
    1.0266   -1.4127    8.5528 C   0  0  0  0  0  0  0  0  0  0  0  0
    1.3838   -0.4229    7.6299 C   0  0  0  0  0  0  0  0  0  0  0  0
    0.6428    0.7940    7.4051 N   0  0  0  0  0  0  0  0  0  0  0  0
    0.5695    1.3563    6.0786 C   0  0  0  0  0  0  0  0  0  0  0  0
    0.2259    0.5479    4.9816 C   0  0  0  0  0  0  0  0  0  0  0  0
    0.2446    1.0660    3.6851 C   0  0  0  0  0  0  0  0  0  0  0  0
    0.6002    2.4018    3.4601 C   0  0  0  0  0  0  0  0  0  0  0  0
    0.5667    2.9734    2.0748 C   0  0  0  0  0  0  0  0  0  0  0  0
    0.9273    3.2225    4.5540 C   0  0  0  0  0  0  0  0  0  0  0  0
    0.9186    2.7000    5.8514 C   0  0  0  0  0  0  0  0  0  0  0  0
    0.2024    1.5675    8.5467 C   0  0  0  0  0  0  0  0  0  0  0  0
   -1.0036    2.2891    8.5055 C   0  0  0  0  0  0  0  0  0  0  0  0
   -1.4256    3.0226    9.6187 C   0  0  0  0  0  0  0  0  0  0  0  0
   -0.6558    3.0385   10.7907 C   0  0  0  0  0  0  0  0  0  0  0  0
   -1.0958    3.8343   11.9817 C   0  0  0  0  0  0  0  0  0  0  0  0
    0.5638    2.3445   10.8262 C   0  0  0  0  0  0  0  0  0  0  0  0
    0.9884    1.6149    9.7167 C   0  0  0  0  0  0  0  0  0  0  0  0
    2.6441   -0.6716    7.1046 C   0  0  0  0  0  0  0  0  0  0  0  0
    3.4972   -0.0080    5.8482 S   0  0  0  0  0  0  0  0  0  0  0  0
   -0.3412   -1.6110    9.0559 C   0  0  0  0  0  0  0  0  0  0  0  0
   -1.3608   -1.8752    8.2129 C   0  0  0  0  0  0  0  0  0  0  0  0
   -1.1958   -2.4093    6.8530 C   0  0  0  0  0  0  0  0  0  0  0  0
   -0.1076   -2.7320    6.3002 O   0  0  0  0  0  0  0  0  0  0  0  0
   -2.5037   -2.6644    6.2995 C   0  0  0  0  0  0  0  0  0  0  0  0
   -2.8089   -3.1712    5.0344 C   0  0  0  0  0  0  0  0  0  0  0  0
   -4.1542   -3.3775    4.7068 C   0  0  0  0  0  0  0  0  0  0  0  0
   -5.1599   -3.0940    5.6471 C   0  0  0  0  0  0  0  0  0  0  0  0
   -7.1819   -3.4342    5.1401 I   0  0  0  0  0  0  0  0  0  0  0  0
   -4.8312   -2.5897    6.9202 C   0  0  0  0  0  0  0  0  0  0  0  0
   -3.4792   -2.3593    7.2370 C   0  0  0  0  0  0  0  0  0  0  0  0
   -2.8382   -1.8028    8.4714 C   0  0  0  0  0  0  0  0  0  0  0  0
   -3.4621   -1.1675    9.4992 C   0  0  0  0  0  0  0  0  0  0  0  0
   -2.7369   -0.4444   10.5091 C   0  0  0  0  0  0  0  0  0  0  0  0
   -2.1625    0.1418   11.3232 N   0  0  0  0  0  0  0  0  0  0  0  0
   -4.8934   -1.0726    9.6120 C   0  0  0  0  0  0  0  0  0  0  0  0
   -6.0423   -0.9808    9.7204 N   0  0  0  0  0  0  0  0  0  0  0  0
   -7.8118    1.6270   -7.2733 H   0  0  0  0  0  0  0  0  0  0  0  0
   -6.9141    4.1202  -11.8352 H   0  0  0  0  0  0  0  0  0  0  0  0
   -5.1862    5.7890  -12.4905 H   0  0  0  0  0  0  0  0  0  0  0  0
   -4.4074    6.6567   -8.3434 H   0  0  0  0  0  0  0  0  0  0  0  0
   -4.6194   -1.9537   -9.1659 H   0  0  0  0  0  0  0  0  0  0  0  0
   -5.1462   -4.2108   -8.3521 H   0  0  0  0  0  0  0  0  0  0  0  0
   -5.9851   -5.0096   -5.1949 H   0  0  0  0  0  0  0  0  0  0  0  0
   -6.3070   -5.6900   -6.8373 H   0  0  0  0  0  0  0  0  0  0  0  0
   -7.6640   -5.0223   -5.8615 H   0  0  0  0  0  0  0  0  0  0  0  0
   -7.4641   -2.5159   -5.1374 H   0  0  0  0  0  0  0  0  0  0  0  0
   -6.9677   -0.2869   -5.9393 H   0  0  0  0  0  0  0  0  0  0  0  0
   -3.0970    1.5147   -9.0570 H   0  0  0  0  0  0  0  0  0  0  0  0
   -2.7007    2.0930  -11.4085 H   0  0  0  0  0  0  0  0  0  0  0  0
   -3.7080    1.0220  -13.9510 H   0  0  0  0  0  0  0  0  0  0  0  0
   -5.3356    1.7938  -14.0993 H   0  0  0  0  0  0  0  0  0  0  0  0
   -3.9183    2.7823  -13.5952 H   0  0  0  0  0  0  0  0  0  0  0  0
   -6.6437    0.6656  -12.4158 H   0  0  0  0  0  0  0  0  0  0  0  0
   -7.0216    0.0579  -10.0608 H   0  0  0  0  0  0  0  0  0  0  0  0
   -3.6355   -0.2764   -3.3438 H   0  0  0  0  0  0  0  0  0  0  0  0
   -3.5665   -2.1644   -1.7937 H   0  0  0  0  0  0  0  0  0  0  0  0
   -1.5286   -2.8210    0.5051 H   0  0  0  0  0  0  0  0  0  0  0  0
   -3.3337   -2.9272    0.5493 H   0  0  0  0  0  0  0  0  0  0  0  0
   -2.4684   -1.9135    1.7592 H   0  0  0  0  0  0  0  0  0  0  0  0
   -1.4711    0.2615    1.0805 H   0  0  0  0  0  0  0  0  0  0  0  0
   -1.4868    2.1522   -0.4846 H   0  0  0  0  0  0  0  0  0  0  0  0
   -4.2021    2.9639   -0.9492 H   0  0  0  0  0  0  0  0  0  0  0  0
   -4.7952    5.2517   -0.3234 H   0  0  0  0  0  0  0  0  0  0  0  0
   -4.5698    8.0122   -2.3304 H   0  0  0  0  0  0  0  0  0  0  0  0
   -4.5496    7.6279   -0.5652 H   0  0  0  0  0  0  0  0  0  0  0  0
   -3.0520    8.2139   -1.3736 H   0  0  0  0  0  0  0  0  0  0  0  0
   -2.2635    6.7754   -3.4691 H   0  0  0  0  0  0  0  0  0  0  0  0
   -1.6440    4.4746   -4.0792 H   0  0  0  0  0  0  0  0  0  0  0  0
    0.6583   -1.6991   -7.2536 H   0  0  0  0  0  0  0  0  0  0  0  0
    0.3399   -1.5453   -9.7061 H   0  0  0  0  0  0  0  0  0  0  0  0
    0.1945    0.6651  -10.8041 H   0  0  0  0  0  0  0  0  0  0  0  0
    1.3436    3.7218   -9.3644 H   0  0  0  0  0  0  0  0  0  0  0  0
    0.3899    3.0672  -10.7334 H   0  0  0  0  0  0  0  0  0  0  0  0
   -0.8060    4.0260   -8.0386 H   0  0  0  0  0  0  0  0  0  0  0  0
   -1.7253    3.4352   -9.4787 H   0  0  0  0  0  0  0  0  0  0  0  0
   -0.7717    4.9651   -9.5702 H   0  0  0  0  0  0  0  0  0  0  0  0
    0.8141    2.5884   -7.0018 H   0  0  0  0  0  0  0  0  0  0  0  0
    7.4717   -4.7332    3.8139 H   0  0  0  0  0  0  0  0  0  0  0  0
    6.6918   -7.0130    4.3370 H   0  0  0  0  0  0  0  0  0  0  0  0
    4.3990   -7.3882    5.1605 H   0  0  0  0  0  0  0  0  0  0  0  0
    2.0501   -4.5940    6.0396 H   0  0  0  0  0  0  0  0  0  0  0  0
    2.4482   -6.3056    6.3611 H   0  0  0  0  0  0  0  0  0  0  0  0
    0.4613   -6.0718    4.8606 H   0  0  0  0  0  0  0  0  0  0  0  0
    1.8144   -6.9305    4.0314 H   0  0  0  0  0  0  0  0  0  0  0  0
    1.4705   -5.1914    3.6463 H   0  0  0  0  0  0  0  0  0  0  0  0
    3.5470   -3.1993    4.7295 H   0  0  0  0  0  0  0  0  0  0  0  0
    1.9011    1.4251   -0.8075 H   0  0  0  0  0  0  0  0  0  0  0  0
    3.2889    1.6544    0.2198 H   0  0  0  0  0  0  0  0  0  0  0  0
    3.4720   -0.8006    0.6341 H   0  0  0  0  0  0  0  0  0  0  0  0
    2.1868   -1.1074   -0.6016 H   0  0  0  0  0  0  0  0  0  0  0  0
    1.7852   -0.2530    0.9364 H   0  0  0  0  0  0  0  0  0  0  0  0
    6.6289    2.1580    1.7257 H   0  0  0  0  0  0  0  0  0  0  0  0
    4.8840    1.9429    1.5670 H   0  0  0  0  0  0  0  0  0  0  0  0
    6.8546    2.7577   -0.7069 H   0  0  0  0  0  0  0  0  0  0  0  0
    5.9262    3.9272    0.3037 H   0  0  0  0  0  0  0  0  0  0  0  0
    5.0483    2.8340   -0.8074 H   0  0  0  0  0  0  0  0  0  0  0  0
    7.1740   -0.7829    7.2597 H   0  0  0  0  0  0  0  0  0  0  0  0
    9.5274   -0.8131    6.5553 H   0  0  0  0  0  0  0  0  0  0  0  0
   11.3437   -2.0831    5.4109 H   0  0  0  0  0  0  0  0  0  0  0  0
   11.7159   -3.0254    6.9091 H   0  0  0  0  0  0  0  0  0  0  0  0
   11.3042   -3.8752    5.3681 H   0  0  0  0  0  0  0  0  0  0  0  0
    9.4331   -5.1197    6.4181 H   0  0  0  0  0  0  0  0  0  0  0  0
    7.0772   -5.0892    7.0977 H   0  0  0  0  0  0  0  0  0  0  0  0
    5.8386   -1.8196    9.9699 H   0  0  0  0  0  0  0  0  0  0  0  0
    5.3637   -2.8535   12.1571 H   0  0  0  0  0  0  0  0  0  0  0  0
    5.0575   -4.9256   13.4576 H   0  0  0  0  0  0  0  0  0  0  0  0
    3.3697   -5.2187   12.8755 H   0  0  0  0  0  0  0  0  0  0  0  0
    4.6568   -6.4704   12.6288 H   0  0  0  0  0  0  0  0  0  0  0  0
    4.1809   -6.4929   10.1650 H   0  0  0  0  0  0  0  0  0  0  0  0
    4.6407   -5.4403    7.9783 H   0  0  0  0  0  0  0  0  0  0  0  0
   -0.0390   -0.4847    5.1293 H   0  0  0  0  0  0  0  0  0  0  0  0
   -0.0109    0.4156    2.8589 H   0  0  0  0  0  0  0  0  0  0  0  0
    0.7522    2.1810    1.3201 H   0  0  0  0  0  0  0  0  0  0  0  0
   -0.4313    3.4247    1.8879 H   0  0  0  0  0  0  0  0  0  0  0  0
    1.3485    3.7541    1.9560 H   0  0  0  0  0  0  0  0  0  0  0  0
    1.1972    4.2606    4.3995 H   0  0  0  0  0  0  0  0  0  0  0  0
    1.2128    3.3354    6.6787 H   0  0  0  0  0  0  0  0  0  0  0  0
   -1.6174    2.2702    7.6148 H   0  0  0  0  0  0  0  0  0  0  0  0
   -2.3556    3.5745    9.5674 H   0  0  0  0  0  0  0  0  0  0  0  0
   -0.7666    3.3410   12.9232 H   0  0  0  0  0  0  0  0  0  0  0  0
   -2.2025    3.9219   12.0092 H   0  0  0  0  0  0  0  0  0  0  0  0
   -0.6486    4.8489   11.9331 H   0  0  0  0  0  0  0  0  0  0  0  0
    1.1844    2.3646   11.7137 H   0  0  0  0  0  0  0  0  0  0  0  0
    1.9325    1.0915    9.7681 H   0  0  0  0  0  0  0  0  0  0  0  0
   -0.4966   -1.4716   10.1091 H   0  0  0  0  0  0  0  0  0  0  0  0
   -2.0271   -3.3995    4.3243 H   0  0  0  0  0  0  0  0  0  0  0  0
   -4.4122   -3.7654    3.7281 H   0  0  0  0  0  0  0  0  0  0  0  0
   -5.6334   -2.4076    7.6147 H   0  0  0  0  0  0  0  0  0  0  0  0
  1  2  2  3
  2  3  1  0
  3  4  2  0
  3  5  1  0
  5  6  2  0
  6  7  1  0
  7  8  2  0
  8  9  1  0
  8 10  1  0
 10 11  2  0
 11 12  1  0
 12 13  2  3
 13 14  1  0
 14 15  3  0
 13 16  1  0
 16 17  3  0
  1 18  1  0
 18 19  2  0
 19 20  1  0
 20 21  1  0
 21 22  2  0
 22 23  1  0
 23 24  2  0
 24 25  1  0
 24 26  1  0
 26 27  2  0
 20 28  1  0
 28 29  2  0
 29 30  1  0
 30 31  2  0
 31 32  1  0
 31 33  1  0
 33 34  2  0
 19 35  1  0
 35 36  1  0
 36 37  1  0
 37 38  2  0
 38 39  1  0
 39 40  1  0
 40 41  2  0
 41 42  1  0
 42 43  2  0
 43 44  1  0
 43 45  1  0
 45 46  2  0
 39 47  1  0
 47 48  2  0
 48 49  1  0
 49 50  2  0
 50 51  1  0
 50 52  1  0
 52 53  2  0
 38 54  1  0
 54 55  1  0
 37 56  1  0
 56 57  2  0
 57 58  1  0
 58 59  2  0
 59 60  1  0
 60 61  2  0
 61 62  1  0
 62 63  1  0
 63 64  1  0
 62 65  2  0
 57 66  1  0
 66 67  1  0
 67 68  1  0
 68 69  1  0
 69 70  1  0
 70 71  1  0
 71 72  2  0
 72 73  1  0
 73 74  1  0
 71 75  1  0
 75 76  1  0
 76 77  1  0
 77 78  1  0
 78 79  1  0
 79 80  1  0
 80 81  2  0
 81 82  1  0
 82 83  2  0
 83 84  1  0
 84 85  1  0
 85 86  1  0
 84 87  2  0
 79 88  2  0
 88 89  1  0
 89 90  1  0
 90 91  1  0
 91 92  1  0
 92 93  1  0
 93 94  1  0
 94 95  1  0
 95 96  1  0
 96 97  1  0
 97 98  1  0
 95 99  1  0
 99100  1  0
 92101  1  0
101102  1  0
 88103  1  0
103104  2  0
104105  1  0
105106  1  0
106107  2  0
107108  1  0
108109  2  0
109110  1  0
109111  1  0
111112  2  0
105113  1  0
113114  2  0
114115  1  0
115116  2  0
116117  1  0
116118  1  0
118119  2  0
104120  1  0
120121  1  0
121122  1  0
122123  2  0
123124  1  0
124125  1  0
125126  2  0
126127  1  0
127128  2  0
128129  1  0
128130  1  0
130131  2  0
124132  1  0
132133  2  0
133134  1  0
134135  2  0
135136  1  0
135137  1  0
137138  2  0
123139  1  0
139140  1  0
122141  1  0
141142  2  3
142143  1  0
143144  2  0
143145  1  0
145146  2  0
146147  1  0
147148  2  0
148149  1  0
148150  1  0
150151  2  0
151152  1  0
152153  2  3
153154  1  0
154155  3  0
153156  1  0
156157  3  0
 12  2  1  0
 55 18  1  0
 98 56  1  0
140103  1  0
152142  1  0
 11  5  1  0
 27 21  1  0
 34 28  1  0
 54 35  2  0
 65 58  1  0
 97 66  2  0
112106  1  0
119113  1  0
139120  2  0
151145  1  0
 46 40  1  0
 53 47  1  0
 96 68  2  0
131125  1  0
138132  1  0
 94 69  2  0
 74 70  2  0
 93 75  2  0
 91 76  2  0
 90 78  2  0
 87 80  1  0
  1158  1  0
  6159  1  0
  7160  1  0
 10161  1  0
 22162  1  0
 23163  1  0
 25164  1  0
 25165  1  0
 25166  1  0
 26167  1  0
 27168  1  0
 29169  1  0
 30170  1  0
 32171  1  0
 32172  1  0
 32173  1  0
 33174  1  0
 34175  1  0
 41176  1  0
 42177  1  0
 44178  1  0
 44179  1  0
 44180  1  0
 45181  1  0
 46182  1  0
 48183  1  0
 49184  1  0
 51185  1  0
 51186  1  0
 51187  1  0
 52188  1  0
 53189  1  0
 59190  1  0
 60191  1  0
 61192  1  0
 63193  1  0
 63194  1  0
 64195  1  0
 64196  1  0
 64197  1  0
 65198  1  0
 81199  1  0
 82200  1  0
 83201  1  0
 85202  1  0
 85203  1  0
 86204  1  0
 86205  1  0
 86206  1  0
 87207  1  0
 99208  1  0
 99209  1  0
100210  1  0
100211  1  0
100212  1  0
101213  1  0
101214  1  0
102215  1  0
102216  1  0
102217  1  0
107218  1  0
108219  1  0
110220  1  0
110221  1  0
110222  1  0
111223  1  0
112224  1  0
114225  1  0
115226  1  0
117227  1  0
117228  1  0
117229  1  0
118230  1  0
119231  1  0
126232  1  0
127233  1  0
129234  1  0
129235  1  0
129236  1  0
130237  1  0
131238  1  0
133239  1  0
134240  1  0
136241  1  0
136242  1  0
136243  1  0
137244  1  0
138245  1  0
141246  1  0
146247  1  0
147248  1  0
150249  1  0
M  END

