
     RDKit          3D

249274  0  0  0  0  0  0  0  0999 V2000
    1.0372    8.8943    3.9445 C   0  0  0  0  0  0  0  0  0  0  0  0
    0.2009    9.0659    2.9050 C   0  0  0  0  0  0  0  0  0  0  0  0
    0.2055    8.2712    1.6650 C   0  0  0  0  0  0  0  0  0  0  0  0
    0.8329    7.2046    1.4614 O   0  0  0  0  0  0  0  0  0  0  0  0
   -0.5526    8.9883    0.6597 C   0  0  0  0  0  0  0  0  0  0  0  0
   -0.6875    8.6831   -0.6959 C   0  0  0  0  0  0  0  0  0  0  0  0
   -1.3161    9.6198   -1.5311 C   0  0  0  0  0  0  0  0  0  0  0  0
   -1.7564   10.8492   -1.0127 C   0  0  0  0  0  0  0  0  0  0  0  0
   -2.4973   12.1665   -2.1783 Br  0  0  0  0  0  0  0  0  0  0  0  0
   -1.6144   11.1304    0.3605 C   0  0  0  0  0  0  0  0  0  0  0  0
   -1.0270   10.1678    1.1955 C   0  0  0  0  0  0  0  0  0  0  0  0
   -0.7035   10.2307    2.6468 C   0  0  0  0  0  0  0  0  0  0  0  0
   -1.3678   10.9579    3.5771 C   0  0  0  0  0  0  0  0  0  0  0  0
   -1.1149   10.8107    4.9848 C   0  0  0  0  0  0  0  0  0  0  0  0
   -0.9264   10.6864    6.1238 N   0  0  0  0  0  0  0  0  0  0  0  0
   -2.5366   11.7352    3.2377 C   0  0  0  0  0  0  0  0  0  0  0  0
   -3.4959   12.3249    2.9808 N   0  0  0  0  0  0  0  0  0  0  0  0
    1.8758    7.6971    4.0850 C   0  0  0  0  0  0  0  0  0  0  0  0
    1.4012    6.3821    4.2282 C   0  0  0  0  0  0  0  0  0  0  0  0
    0.0866    6.0396    4.7239 N   0  0  0  0  0  0  0  0  0  0  0  0
   -0.4779    6.7821    5.8250 C   0  0  0  0  0  0  0  0  0  0  0  0
    0.3385    7.2350    6.8764 C   0  0  0  0  0  0  0  0  0  0  0  0
   -0.2169    7.8905    7.9778 C   0  0  0  0  0  0  0  0  0  0  0  0
   -1.6048    8.0819    8.0584 C   0  0  0  0  0  0  0  0  0  0  0  0
   -2.1902    8.8123    9.2291 C   0  0  0  0  0  0  0  0  0  0  0  0
   -2.4205    7.6544    7.0009 C   0  0  0  0  0  0  0  0  0  0  0  0
   -1.8661    6.9984    5.8972 C   0  0  0  0  0  0  0  0  0  0  0  0
   -0.4651    4.7524    4.3975 C   0  0  0  0  0  0  0  0  0  0  0  0
   -0.7172    3.8151    5.4124 C   0  0  0  0  0  0  0  0  0  0  0  0
   -1.0619    2.5011    5.0892 C   0  0  0  0  0  0  0  0  0  0  0  0
   -1.1565    2.1028    3.7467 C   0  0  0  0  0  0  0  0  0  0  0  0
   -1.4794    0.6818    3.3945 C   0  0  0  0  0  0  0  0  0  0  0  0
   -0.9717    3.0570    2.7335 C   0  0  0  0  0  0  0  0  0  0  0  0
   -0.6261    4.3700    3.0556 C   0  0  0  0  0  0  0  0  0  0  0  0
    2.4438    5.4656    4.0721 C   0  0  0  0  0  0  0  0  0  0  0  0
    2.5643    3.8003    4.1141 S   0  0  0  0  0  0  0  0  0  0  0  0
    4.2473    3.7676    3.8589 C   0  0  0  0  0  0  0  0  0  0  0  0
    4.7408    5.0959    3.8267 C   0  0  0  0  0  0  0  0  0  0  0  0
    6.0543    5.4596    4.2839 N   0  0  0  0  0  0  0  0  0  0  0  0
    7.1185    5.5818    3.3350 C   0  0  0  0  0  0  0  0  0  0  0  0
    8.3538    4.9655    3.5934 C   0  0  0  0  0  0  0  0  0  0  0  0
    9.4434    5.1880    2.7460 C   0  0  0  0  0  0  0  0  0  0  0  0
    9.3052    6.0050    1.6149 C   0  0  0  0  0  0  0  0  0  0  0  0
   10.4605    6.1497    0.6729 C   0  0  0  0  0  0  0  0  0  0  0  0
    8.0703    6.6350    1.3629 C   0  0  0  0  0  0  0  0  0  0  0  0
    6.9844    6.4131    2.2126 C   0  0  0  0  0  0  0  0  0  0  0  0
    6.2024    6.0320    5.6188 C   0  0  0  0  0  0  0  0  0  0  0  0
    5.2799    5.7197    6.6395 C   0  0  0  0  0  0  0  0  0  0  0  0
    5.3456    6.3630    7.8804 C   0  0  0  0  0  0  0  0  0  0  0  0
    6.3552    7.2963    8.1480 C   0  0  0  0  0  0  0  0  0  0  0  0
    6.4199    8.0061    9.4675 C   0  0  0  0  0  0  0  0  0  0  0  0
    7.2947    7.5950    7.1494 C   0  0  0  0  0  0  0  0  0  0  0  0
    7.2141    6.9800    5.8977 C   0  0  0  0  0  0  0  0  0  0  0  0
    3.6757    6.0022    3.8982 C   0  0  0  0  0  0  0  0  0  0  0  0
    3.5690    7.6797    3.8727 S   0  0  0  0  0  0  0  0  0  0  0  0
    4.9512    2.4970    3.5803 C   0  0  0  0  0  0  0  0  0  0  0  0
    5.7112    2.1775    2.4254 C   0  0  0  0  0  0  0  0  0  0  0  0
    5.9742    3.0816    1.2809 C   0  0  0  0  0  0  0  0  0  0  0  0
    7.3111    3.2437    0.8782 C   0  0  0  0  0  0  0  0  0  0  0  0
    7.6255    3.9677   -0.2749 C   0  0  0  0  0  0  0  0  0  0  0  0
    6.6162    4.5770   -1.0109 C   0  0  0  0  0  0  0  0  0  0  0  0
    5.2828    4.3760   -0.6671 C   0  0  0  0  0  0  0  0  0  0  0  0
    4.9339    3.5955    0.4545 C   0  0  0  0  0  0  0  0  0  0  0  0
    3.4866    3.1681    0.5908 C   0  0  0  0  0  0  0  0  0  0  0  0
    2.5284    4.3574    0.6461 C   0  0  0  0  0  0  0  0  0  0  0  0
    5.8917    0.7920    2.2955 C   0  0  0  0  0  0  0  0  0  0  0  0
    6.4359   -0.1512    0.9790 S   0  0  0  0  0  0  0  0  0  0  0  0
    5.7552   -1.5474    1.6546 C   0  0  0  0  0  0  0  0  0  0  0  0
    5.3715   -2.7804    1.2095 C   0  0  0  0  0  0  0  0  0  0  0  0
    5.8134   -3.5736    0.1538 C   0  0  0  0  0  0  0  0  0  0  0  0
    5.2216   -4.8658   -0.0252 C   0  0  0  0  0  0  0  0  0  0  0  0
    5.6632   -5.5937   -1.0783 N   0  0  0  0  0  0  0  0  0  0  0  0
    6.8104   -4.5617   -1.6784 S   0  0  0  0  0  0  0  0  0  0  0  0
    6.7950   -3.2169   -0.7140 N   0  0  0  0  0  0  0  0  0  0  0  0
    4.1503   -5.2467    0.8064 C   0  0  0  0  0  0  0  0  0  0  0  0
    3.1481   -6.1375    0.5216 C   0  0  0  0  0  0  0  0  0  0  0  0
    2.7813   -7.0257   -0.8783 S   0  0  0  0  0  0  0  0  0  0  0  0
    1.1186   -6.7783   -0.7031 C   0  0  0  0  0  0  0  0  0  0  0  0
    0.0787   -6.8855   -1.6415 C   0  0  0  0  0  0  0  0  0  0  0  0
    0.1303   -7.8949   -2.7221 C   0  0  0  0  0  0  0  0  0  0  0  0
    1.0278   -7.8016   -3.8170 C   0  0  0  0  0  0  0  0  0  0  0  0
    1.8357   -6.5431   -4.0686 C   0  0  0  0  0  0  0  0  0  0  0  0
    1.9667   -6.1901   -5.5504 C   0  0  0  0  0  0  0  0  0  0  0  0
    1.2632   -8.9548   -4.6025 C   0  0  0  0  0  0  0  0  0  0  0  0
    0.6090  -10.1567   -4.3205 C   0  0  0  0  0  0  0  0  0  0  0  0
   -0.2929  -10.2344   -3.2616 C   0  0  0  0  0  0  0  0  0  0  0  0
   -0.5256   -9.1151   -2.4642 C   0  0  0  0  0  0  0  0  0  0  0  0
   -1.0354   -6.0929   -1.2661 C   0  0  0  0  0  0  0  0  0  0  0  0
   -0.6462   -5.3412    0.2215 S   0  0  0  0  0  0  0  0  0  0  0  0
    0.8700   -6.0019    0.4001 C   0  0  0  0  0  0  0  0  0  0  0  0
    2.0192   -5.6580    1.1262 C   0  0  0  0  0  0  0  0  0  0  0  0
    2.2795   -4.5811    1.9162 N   0  0  0  0  0  0  0  0  0  0  0  0
    3.6281   -4.3697    1.7711 C   0  0  0  0  0  0  0  0  0  0  0  0
    4.3579   -3.1840    2.0791 C   0  0  0  0  0  0  0  0  0  0  0  0
    4.1901   -2.2968    3.1108 N   0  0  0  0  0  0  0  0  0  0  0  0
    5.0727   -1.3025    2.8026 C   0  0  0  0  0  0  0  0  0  0  0  0
    5.1919    0.0265    3.2019 C   0  0  0  0  0  0  0  0  0  0  0  0
    4.4050    1.0350    4.2720 S   0  0  0  0  0  0  0  0  0  0  0  0
    3.8381   -2.6936    4.4795 C   0  0  0  0  0  0  0  0  0  0  0  0
    2.8397   -1.7355    5.1251 C   0  0  0  0  0  0  0  0  0  0  0  0
    1.2663   -3.6194    2.3610 C   0  0  0  0  0  0  0  0  0  0  0  0
    1.1060   -2.4781    1.3588 C   0  0  0  0  0  0  0  0  0  0  0  0
   -2.1377   -5.5428   -2.1036 C   0  0  0  0  0  0  0  0  0  0  0  0
   -3.0863   -6.1699   -2.9510 C   0  0  0  0  0  0  0  0  0  0  0  0
   -2.9336   -7.4334   -3.6231 N   0  0  0  0  0  0  0  0  0  0  0  0
   -3.9102   -8.4322   -3.2649 C   0  0  0  0  0  0  0  0  0  0  0  0
   -4.8305   -8.9069   -4.2182 C   0  0  0  0  0  0  0  0  0  0  0  0
   -5.8554   -9.7781   -3.8468 C   0  0  0  0  0  0  0  0  0  0  0  0
   -5.9939  -10.1756   -2.5134 C   0  0  0  0  0  0  0  0  0  0  0  0
   -7.1149  -11.0792   -2.0986 C   0  0  0  0  0  0  0  0  0  0  0  0
   -5.0836   -9.7002   -1.5547 C   0  0  0  0  0  0  0  0  0  0  0  0
   -4.0558   -8.8311   -1.9256 C   0  0  0  0  0  0  0  0  0  0  0  0
   -2.3108   -7.4497   -4.9410 C   0  0  0  0  0  0  0  0  0  0  0  0
   -1.9969   -6.2537   -5.6238 C   0  0  0  0  0  0  0  0  0  0  0  0
   -1.5126   -6.2778   -6.9307 C   0  0  0  0  0  0  0  0  0  0  0  0
   -1.2738   -7.4988   -7.5723 C   0  0  0  0  0  0  0  0  0  0  0  0
   -0.7098   -7.5044   -8.9623 C   0  0  0  0  0  0  0  0  0  0  0  0
   -1.5303   -8.6937   -6.8955 C   0  0  0  0  0  0  0  0  0  0  0  0
   -2.0513   -8.6740   -5.5966 C   0  0  0  0  0  0  0  0  0  0  0  0
   -4.1019   -5.2843   -3.3229 C   0  0  0  0  0  0  0  0  0  0  0  0
   -5.3901   -5.3797   -4.3987 S   0  0  0  0  0  0  0  0  0  0  0  0
   -5.8027   -3.7369   -4.2540 C   0  0  0  0  0  0  0  0  0  0  0  0
   -4.8780   -3.0915   -3.4100 C   0  0  0  0  0  0  0  0  0  0  0  0
   -4.6528   -1.6733   -3.4184 N   0  0  0  0  0  0  0  0  0  0  0  0
   -5.0406   -0.8397   -2.3054 C   0  0  0  0  0  0  0  0  0  0  0  0
   -5.1530   -1.3703   -1.0042 C   0  0  0  0  0  0  0  0  0  0  0  0
   -5.5298   -0.5625    0.0680 C   0  0  0  0  0  0  0  0  0  0  0  0
   -5.8131    0.7947   -0.1315 C   0  0  0  0  0  0  0  0  0  0  0  0
   -6.2683    1.6481    1.0128 C   0  0  0  0  0  0  0  0  0  0  0  0
   -5.7227    1.3291   -1.4238 C   0  0  0  0  0  0  0  0  0  0  0  0
   -5.3229    0.5276   -2.4940 C   0  0  0  0  0  0  0  0  0  0  0  0
   -3.9637   -1.1201   -4.5547 C   0  0  0  0  0  0  0  0  0  0  0  0
   -2.5630   -1.1659   -4.6164 C   0  0  0  0  0  0  0  0  0  0  0  0
   -1.8906   -0.6345   -5.7202 C   0  0  0  0  0  0  0  0  0  0  0  0
   -2.6115   -0.0557   -6.7784 C   0  0  0  0  0  0  0  0  0  0  0  0
   -1.8999    0.4891   -7.9827 C   0  0  0  0  0  0  0  0  0  0  0  0
   -4.0117   -0.0297   -6.7207 C   0  0  0  0  0  0  0  0  0  0  0  0
   -4.6852   -0.5484   -5.6122 C   0  0  0  0  0  0  0  0  0  0  0  0
   -3.9667   -4.0096   -2.8877 C   0  0  0  0  0  0  0  0  0  0  0  0
   -2.5885   -3.8973   -1.9546 S   0  0  0  0  0  0  0  0  0  0  0  0
   -6.8587   -3.0786   -5.0479 C   0  0  0  0  0  0  0  0  0  0  0  0
   -7.7590   -2.2295   -4.5118 C   0  0  0  0  0  0  0  0  0  0  0  0
   -8.0119   -2.0908   -3.0744 C   0  0  0  0  0  0  0  0  0  0  0  0
   -7.5792   -2.8499   -2.1654 O   0  0  0  0  0  0  0  0  0  0  0  0
   -8.9254   -0.9998   -2.8626 C   0  0  0  0  0  0  0  0  0  0  0  0
   -9.3333   -0.4498   -1.6453 C   0  0  0  0  0  0  0  0  0  0  0  0
  -10.1711    0.6723   -1.6690 C   0  0  0  0  0  0  0  0  0  0  0  0
  -10.5663    1.2262   -2.8949 C   0  0  0  0  0  0  0  0  0  0  0  0
  -11.6743    2.7797   -2.9087 Br  0  0  0  0  0  0  0  0  0  0  0  0
  -10.1357    0.6644   -4.1081 C   0  0  0  0  0  0  0  0  0  0  0  0
   -9.3254   -0.4874   -4.0833 C   0  0  0  0  0  0  0  0  0  0  0  0
   -8.6751   -1.2512   -5.1952 C   0  0  0  0  0  0  0  0  0  0  0  0
   -8.8711   -1.0737   -6.5344 C   0  0  0  0  0  0  0  0  0  0  0  0
   -8.0855   -1.7427   -7.5357 C   0  0  0  0  0  0  0  0  0  0  0  0
   -7.4578   -2.2639   -8.3642 N   0  0  0  0  0  0  0  0  0  0  0  0
   -9.8871   -0.2005   -7.0542 C   0  0  0  0  0  0  0  0  0  0  0  0
  -10.6876    0.5464   -7.4676 N   0  0  0  0  0  0  0  0  0  0  0  0
    1.1765    9.6807    4.6685 H   0  0  0  0  0  0  0  0  0  0  0  0
   -0.2912    7.7613   -1.0995 H   0  0  0  0  0  0  0  0  0  0  0  0
   -1.4197    9.4069   -2.5867 H   0  0  0  0  0  0  0  0  0  0  0  0
   -1.8922   12.1050    0.7331 H   0  0  0  0  0  0  0  0  0  0  0  0
    1.4096    7.0739    6.8483 H   0  0  0  0  0  0  0  0  0  0  0  0
    0.4340    8.2390    8.7710 H   0  0  0  0  0  0  0  0  0  0  0  0
   -3.1867    8.3893    9.4929 H   0  0  0  0  0  0  0  0  0  0  0  0
   -1.5305    8.7234   10.1214 H   0  0  0  0  0  0  0  0  0  0  0  0
   -2.3012    9.8858    8.9717 H   0  0  0  0  0  0  0  0  0  0  0  0
   -3.4900    7.8176    7.0334 H   0  0  0  0  0  0  0  0  0  0  0  0
   -2.5098    6.6757    5.0937 H   0  0  0  0  0  0  0  0  0  0  0  0
   -0.5937    4.0884    6.4547 H   0  0  0  0  0  0  0  0  0  0  0  0
   -1.2166    1.7759    5.8798 H   0  0  0  0  0  0  0  0  0  0  0  0
   -1.1944   -0.0042    4.2228 H   0  0  0  0  0  0  0  0  0  0  0  0
   -0.9223    0.3661    2.4869 H   0  0  0  0  0  0  0  0  0  0  0  0
   -2.5694    0.5884    3.2041 H   0  0  0  0  0  0  0  0  0  0  0  0
   -1.0625    2.7685    1.6931 H   0  0  0  0  0  0  0  0  0  0  0  0
   -0.4509    5.0787    2.2590 H   0  0  0  0  0  0  0  0  0  0  0  0
    8.4618    4.3098    4.4506 H   0  0  0  0  0  0  0  0  0  0  0  0
   10.3832    4.6772    2.9433 H   0  0  0  0  0  0  0  0  0  0  0  0
   11.3066    6.6403    1.1965 H   0  0  0  0  0  0  0  0  0  0  0  0
   10.1911    6.7522   -0.2237 H   0  0  0  0  0  0  0  0  0  0  0  0
   10.7821    5.1443    0.3309 H   0  0  0  0  0  0  0  0  0  0  0  0
    7.9322    7.2545    0.4848 H   0  0  0  0  0  0  0  0  0  0  0  0
    6.0430    6.9135    2.0119 H   0  0  0  0  0  0  0  0  0  0  0  0
    4.5050    4.9864    6.4730 H   0  0  0  0  0  0  0  0  0  0  0  0
    4.6041    6.1254    8.6320 H   0  0  0  0  0  0  0  0  0  0  0  0
    6.0434    9.0439    9.3503 H   0  0  0  0  0  0  0  0  0  0  0  0
    7.4720    8.0510    9.8311 H   0  0  0  0  0  0  0  0  0  0  0  0
    5.8022    7.4996   10.2395 H   0  0  0  0  0  0  0  0  0  0  0  0
    8.0563    8.3460    7.3225 H   0  0  0  0  0  0  0  0  0  0  0  0
    7.9294    7.2780    5.1435 H   0  0  0  0  0  0  0  0  0  0  0  0
    8.1124    2.7960    1.4456 H   0  0  0  0  0  0  0  0  0  0  0  0
    8.6564    4.0662   -0.5880 H   0  0  0  0  0  0  0  0  0  0  0  0
    6.8583    5.1733   -1.8799 H   0  0  0  0  0  0  0  0  0  0  0  0
    4.5129    4.7912   -1.3069 H   0  0  0  0  0  0  0  0  0  0  0  0
    3.3197    2.5333    1.4784 H   0  0  0  0  0  0  0  0  0  0  0  0
    3.2238    2.5312   -0.2813 H   0  0  0  0  0  0  0  0  0  0  0  0
    1.5597    4.0287    1.0833 H   0  0  0  0  0  0  0  0  0  0  0  0
    2.3322    4.7540   -0.3757 H   0  0  0  0  0  0  0  0  0  0  0  0
    2.9443    5.1695    1.2773 H   0  0  0  0  0  0  0  0  0  0  0  0
    2.8603   -6.6728   -3.6610 H   0  0  0  0  0  0  0  0  0  0  0  0
    1.3680   -5.6721   -3.5625 H   0  0  0  0  0  0  0  0  0  0  0  0
    2.3900   -5.1661   -5.6406 H   0  0  0  0  0  0  0  0  0  0  0  0
    2.6557   -6.8937   -6.0635 H   0  0  0  0  0  0  0  0  0  0  0  0
    0.9762   -6.2108   -6.0346 H   0  0  0  0  0  0  0  0  0  0  0  0
    1.9594   -8.9409   -5.4269 H   0  0  0  0  0  0  0  0  0  0  0  0
    0.8040  -11.0330   -4.9263 H   0  0  0  0  0  0  0  0  0  0  0  0
   -0.8036  -11.1624   -3.0461 H   0  0  0  0  0  0  0  0  0  0  0  0
   -1.1776   -9.2172   -1.6083 H   0  0  0  0  0  0  0  0  0  0  0  0
    4.7616   -2.7376    5.0936 H   0  0  0  0  0  0  0  0  0  0  0  0
    3.4168   -3.7254    4.4830 H   0  0  0  0  0  0  0  0  0  0  0  0
    2.3042   -1.1413    4.3523 H   0  0  0  0  0  0  0  0  0  0  0  0
    3.3618   -1.0567    5.8282 H   0  0  0  0  0  0  0  0  0  0  0  0
    2.0908   -2.3133    5.7066 H   0  0  0  0  0  0  0  0  0  0  0  0
    1.5111   -3.2144    3.3524 H   0  0  0  0  0  0  0  0  0  0  0  0
    0.2914   -4.1314    2.4959 H   0  0  0  0  0  0  0  0  0  0  0  0
    1.0595   -2.8684    0.3234 H   0  0  0  0  0  0  0  0  0  0  0  0
    0.1720   -1.9230    1.5692 H   0  0  0  0  0  0  0  0  0  0  0  0
    1.9579   -1.7708    1.4370 H   0  0  0  0  0  0  0  0  0  0  0  0
   -4.7832   -8.5691   -5.2490 H   0  0  0  0  0  0  0  0  0  0  0  0
   -6.5518  -10.1204   -4.5993 H   0  0  0  0  0  0  0  0  0  0  0  0
   -6.7078  -12.0527   -1.7607 H   0  0  0  0  0  0  0  0  0  0  0  0
   -7.6853  -10.6101   -1.2720 H   0  0  0  0  0  0  0  0  0  0  0  0
   -7.8122  -11.2651   -2.9428 H   0  0  0  0  0  0  0  0  0  0  0  0
   -5.1801   -9.9885   -0.5159 H   0  0  0  0  0  0  0  0  0  0  0  0
   -3.3886   -8.4464   -1.1638 H   0  0  0  0  0  0  0  0  0  0  0  0
   -2.1576   -5.2862   -5.1761 H   0  0  0  0  0  0  0  0  0  0  0  0
   -1.2933   -5.3461   -7.4339 H   0  0  0  0  0  0  0  0  0  0  0  0
   -0.5639   -8.5396   -9.3446 H   0  0  0  0  0  0  0  0  0  0  0  0
   -1.3994   -6.9696   -9.6455 H   0  0  0  0  0  0  0  0  0  0  0  0
    0.2746   -6.9890   -8.9690 H   0  0  0  0  0  0  0  0  0  0  0  0
   -1.3481   -9.6493   -7.3685 H   0  0  0  0  0  0  0  0  0  0  0  0
   -2.2758   -9.6144   -5.1088 H   0  0  0  0  0  0  0  0  0  0  0  0
   -4.9545   -2.4155   -0.8074 H   0  0  0  0  0  0  0  0  0  0  0  0
   -5.6139   -0.9963    1.0551 H   0  0  0  0  0  0  0  0  0  0  0  0
   -5.9297    2.6985    0.8715 H   0  0  0  0  0  0  0  0  0  0  0  0
   -7.3776    1.6316    1.0664 H   0  0  0  0  0  0  0  0  0  0  0  0
   -5.8549    1.2733    1.9726 H   0  0  0  0  0  0  0  0  0  0  0  0
   -5.9612    2.3714   -1.5953 H   0  0  0  0  0  0  0  0  0  0  0  0
   -5.2643    0.9771   -3.4755 H   0  0  0  0  0  0  0  0  0  0  0  0
   -1.9975   -1.6146   -3.8090 H   0  0  0  0  0  0  0  0  0  0  0  0
   -0.8123   -0.6745   -5.7522 H   0  0  0  0  0  0  0  0  0  0  0  0
   -1.9727   -0.2313   -8.8274 H   0  0  0  0  0  0  0  0  0  0  0  0
   -0.8271    0.6812   -7.7647 H   0  0  0  0  0  0  0  0  0  0  0  0
   -2.3601    1.4532   -8.2903 H   0  0  0  0  0  0  0  0  0  0  0  0
   -4.5830    0.3911   -7.5365 H   0  0  0  0  0  0  0  0  0  0  0  0
   -5.7660   -0.5057   -5.5761 H   0  0  0  0  0  0  0  0  0  0  0  0
   -6.8330   -3.2768   -6.1014 H   0  0  0  0  0  0  0  0  0  0  0  0
   -8.9943   -0.8641   -0.7073 H   0  0  0  0  0  0  0  0  0  0  0  0
  -10.4838    1.1304   -0.7413 H   0  0  0  0  0  0  0  0  0  0  0  0
  -10.4162    1.1545   -5.0209 H   0  0  0  0  0  0  0  0  0  0  0  0
  1  2  2  3
  2  3  1  0
  3  4  2  0
  3  5  1  0
  5  6  2  0
  6  7  1  0
  7  8  2  0
  8  9  1  0
  8 10  1  0
 10 11  2  0
 11 12  1  0
 12 13  2  3
 13 14  1  0
 14 15  3  0
 13 16  1  0
 16 17  3  0
  1 18  1  0
 18 19  2  0
 19 20  1  0
 20 21  1  0
 21 22  2  0
 22 23  1  0
 23 24  2  0
 24 25  1  0
 24 26  1  0
 26 27  2  0
 20 28  1  0
 28 29  2  0
 29 30  1  0
 30 31  2  0
 31 32  1  0
 31 33  1  0
 33 34  2  0
 19 35  1  0
 35 36  1  0
 36 37  1  0
 37 38  2  0
 38 39  1  0
 39 40  1  0
 40 41  2  0
 41 42  1  0
 42 43  2  0
 43 44  1  0
 43 45  1  0
 45 46  2  0
 39 47  1  0
 47 48  2  0
 48 49  1  0
 49 50  2  0
 50 51  1  0
 50 52  1  0
 52 53  2  0
 38 54  1  0
 54 55  1  0
 37 56  1  0
 56 57  2  0
 57 58  1  0
 58 59  2  0
 59 60  1  0
 60 61  2  0
 61 62  1  0
 62 63  2  0
 63 64  1  0
 64 65  1  0
 57 66  1  0
 66 67  1  0
 67 68  1  0
 68 69  1  0
 69 70  1  0
 70 71  1  0
 71 72  2  0
 72 73  1  0
 73 74  1  0
 71 75  1  0
 75 76  1  0
 76 77  1  0
 77 78  1  0
 78 79  1  0
 79 80  1  0
 80 81  2  0
 81 82  1  0
 82 83  1  0
 81 84  1  0
 84 85  2  0
 85 86  1  0
 86 87  2  0
 79 88  2  0
 88 89  1  0
 89 90  1  0
 90 91  1  0
 91 92  1  0
 92 93  1  0
 93 94  1  0
 94 95  1  0
 95 96  1  0
 96 97  1  0
 97 98  1  0
 95 99  1  0
 99100  1  0
 92101  1  0
101102  1  0
 88103  1  0
103104  2  0
104105  1  0
105106  1  0
106107  2  0
107108  1  0
108109  2  0
109110  1  0
109111  1  0
111112  2  0
105113  1  0
113114  2  0
114115  1  0
115116  2  0
116117  1  0
116118  1  0
118119  2  0
104120  1  0
120121  1  0
121122  1  0
122123  2  0
123124  1  0
124125  1  0
125126  2  0
126127  1  0
127128  2  0
128129  1  0
128130  1  0
130131  2  0
124132  1  0
132133  2  0
133134  1  0
134135  2  0
135136  1  0
135137  1  0
137138  2  0
123139  1  0
139140  1  0
122141  1  0
141142  2  3
142143  1  0
143144  2  0
143145  1  0
145146  2  0
146147  1  0
147148  2  0
148149  1  0
148150  1  0
150151  2  0
151152  1  0
152153  2  3
153154  1  0
154155  3  0
153156  1  0
156157  3  0
 12  2  1  0
 55 18  1  0
 98 56  1  0
140103  1  0
152142  1  0
 11  5  1  0
 27 21  1  0
 34 28  1  0
 54 35  2  0
 63 58  1  0
 97 66  2  0
112106  1  0
119113  1  0
139120  2  0
151145  1  0
 46 40  1  0
 53 47  1  0
 96 68  2  0
131125  1  0
138132  1  0
 94 69  2  0
 74 70  2  0
 93 75  2  0
 91 76  2  0
 90 78  2  0
 87 80  1  0
  1158  1  0
  6159  1  0
  7160  1  0
 10161  1  0
 22162  1  0
 23163  1  0
 25164  1  0
 25165  1  0
 25166  1  0
 26167  1  0
 27168  1  0
 29169  1  0
 30170  1  0
 32171  1  0
 32172  1  0
 32173  1  0
 33174  1  0
 34175  1  0
 41176  1  0
 42177  1  0
 44178  1  0
 44179  1  0
 44180  1  0
 45181  1  0
 46182  1  0
 48183  1  0
 49184  1  0
 51185  1  0
 51186  1  0
 51187  1  0
 52188  1  0
 53189  1  0
 59190  1  0
 60191  1  0
 61192  1  0
 62193  1  0
 64194  1  0
 64195  1  0
 65196  1  0
 65197  1  0
 65198  1  0
 82199  1  0
 82200  1  0
 83201  1  0
 83202  1  0
 83203  1  0
 84204  1  0
 85205  1  0
 86206  1  0
 87207  1  0
 99208  1  0
 99209  1  0
100210  1  0
100211  1  0
100212  1  0
101213  1  0
101214  1  0
102215  1  0
102216  1  0
102217  1  0
107218  1  0
108219  1  0
110220  1  0
110221  1  0
110222  1  0
111223  1  0
112224  1  0
114225  1  0
115226  1  0
117227  1  0
117228  1  0
117229  1  0
118230  1  0
119231  1  0
126232  1  0
127233  1  0
129234  1  0
129235  1  0
129236  1  0
130237  1  0
131238  1  0
133239  1  0
134240  1  0
136241  1  0
136242  1  0
136243  1  0
137244  1  0
138245  1  0
141246  1  0
146247  1  0
147248  1  0
150249  1  0
M  END

