
     RDKit          3D

249274  0  0  0  0  0  0  0  0999 V2000
   -1.9463    6.3432   -7.3928 C   0  0  0  0  0  0  0  0  0  0  0  0
   -2.9377    5.5794   -7.8806 C   0  0  0  0  0  0  0  0  0  0  0  0
   -3.6130    4.4943   -7.1581 C   0  0  0  0  0  0  0  0  0  0  0  0
   -3.1269    3.8075   -6.2233 O   0  0  0  0  0  0  0  0  0  0  0  0
   -4.9235    4.3098   -7.7440 C   0  0  0  0  0  0  0  0  0  0  0  0
   -5.9769    3.5269   -7.2724 C   0  0  0  0  0  0  0  0  0  0  0  0
   -7.2236    3.6321   -7.9070 C   0  0  0  0  0  0  0  0  0  0  0  0
   -7.3974    4.5239   -8.9791 C   0  0  0  0  0  0  0  0  0  0  0  0
   -9.1168    4.7091   -9.7943 Br  0  0  0  0  0  0  0  0  0  0  0  0
   -6.3187    5.2966   -9.4445 C   0  0  0  0  0  0  0  0  0  0  0  0
   -5.0625    5.1470   -8.8346 C   0  0  0  0  0  0  0  0  0  0  0  0
   -3.7838    5.8742   -9.0734 C   0  0  0  0  0  0  0  0  0  0  0  0
   -3.3985    6.4770  -10.2244 C   0  0  0  0  0  0  0  0  0  0  0  0
   -4.2374    6.4961  -11.3921 C   0  0  0  0  0  0  0  0  0  0  0  0
   -4.9047    6.5131  -12.3388 N   0  0  0  0  0  0  0  0  0  0  0  0
   -2.0733    7.0078  -10.4087 C   0  0  0  0  0  0  0  0  0  0  0  0
   -1.0144    7.4406  -10.5668 N   0  0  0  0  0  0  0  0  0  0  0  0
   -1.4941    6.2364   -6.0014 C   0  0  0  0  0  0  0  0  0  0  0  0
   -2.1283    6.8204   -4.8977 C   0  0  0  0  0  0  0  0  0  0  0  0
   -3.3579    7.5596   -4.9658 N   0  0  0  0  0  0  0  0  0  0  0  0
   -4.6453    6.9013   -4.8286 C   0  0  0  0  0  0  0  0  0  0  0  0
   -5.8232    7.5262   -5.2851 C   0  0  0  0  0  0  0  0  0  0  0  0
   -7.0529    6.8689   -5.2157 C   0  0  0  0  0  0  0  0  0  0  0  0
   -7.1370    5.5715   -4.7001 C   0  0  0  0  0  0  0  0  0  0  0  0
   -8.4564    4.8631   -4.6643 C   0  0  0  0  0  0  0  0  0  0  0  0
   -5.9774    4.9535   -4.2142 C   0  0  0  0  0  0  0  0  0  0  0  0
   -4.7478    5.6091   -4.2763 C   0  0  0  0  0  0  0  0  0  0  0  0
   -3.2721    8.9706   -5.1968 C   0  0  0  0  0  0  0  0  0  0  0  0
   -3.2908    9.8600   -4.1145 C   0  0  0  0  0  0  0  0  0  0  0  0
   -3.2471   11.2421   -4.3398 C   0  0  0  0  0  0  0  0  0  0  0  0
   -3.1938   11.7456   -5.6489 C   0  0  0  0  0  0  0  0  0  0  0  0
   -3.1988   13.2273   -5.8835 C   0  0  0  0  0  0  0  0  0  0  0  0
   -3.1910   10.8526   -6.7305 C   0  0  0  0  0  0  0  0  0  0  0  0
   -3.2324    9.4730   -6.5041 C   0  0  0  0  0  0  0  0  0  0  0  0
   -1.5084    6.4537   -3.7087 C   0  0  0  0  0  0  0  0  0  0  0  0
   -1.8948    6.6764   -2.1012 S   0  0  0  0  0  0  0  0  0  0  0  0
   -0.6759    5.6324   -1.5330 C   0  0  0  0  0  0  0  0  0  0  0  0
    0.0482    5.0837   -2.6227 C   0  0  0  0  0  0  0  0  0  0  0  0
    1.0995    4.0821   -2.5288 N   0  0  0  0  0  0  0  0  0  0  0  0
    1.6190    3.4402   -3.7010 C   0  0  0  0  0  0  0  0  0  0  0  0
    0.9573    2.3404   -4.2594 C   0  0  0  0  0  0  0  0  0  0  0  0
    1.4606    1.7278   -5.4116 C   0  0  0  0  0  0  0  0  0  0  0  0
    2.6299    2.2148   -6.0195 C   0  0  0  0  0  0  0  0  0  0  0  0
    3.1881    1.5363   -7.2352 C   0  0  0  0  0  0  0  0  0  0  0  0
    3.3102    3.2952   -5.4358 C   0  0  0  0  0  0  0  0  0  0  0  0
    2.8046    3.9094   -4.2849 C   0  0  0  0  0  0  0  0  0  0  0  0
    1.7314    3.7491   -1.2817 C   0  0  0  0  0  0  0  0  0  0  0  0
    1.5624    2.4689   -0.7340 C   0  0  0  0  0  0  0  0  0  0  0  0
    2.1240    2.1566    0.5079 C   0  0  0  0  0  0  0  0  0  0  0  0
    2.8729    3.1155    1.2074 C   0  0  0  0  0  0  0  0  0  0  0  0
    3.4644    2.7987    2.5492 C   0  0  0  0  0  0  0  0  0  0  0  0
    3.0946    4.3754    0.6280 C   0  0  0  0  0  0  0  0  0  0  0  0
    2.5401    4.6852   -0.6180 C   0  0  0  0  0  0  0  0  0  0  0  0
   -0.4593    5.5948   -3.8313 C   0  0  0  0  0  0  0  0  0  0  0  0
   -0.2037    5.2673   -5.4671 S   0  0  0  0  0  0  0  0  0  0  0  0
   -0.6889    5.1468   -0.1513 C   0  0  0  0  0  0  0  0  0  0  0  0
   -0.4408    5.8986    1.0199 C   0  0  0  0  0  0  0  0  0  0  0  0
   -0.1489    7.3521    1.0698 C   0  0  0  0  0  0  0  0  0  0  0  0
    0.7739    7.9475    0.1961 C   0  0  0  0  0  0  0  0  0  0  0  0
    1.0147    9.3243    0.2492 C   0  0  0  0  0  0  0  0  0  0  0  0
    0.3279   10.1252    1.1651 C   0  0  0  0  0  0  0  0  0  0  0  0
   -0.6212    9.5529    2.0265 C   0  0  0  0  0  0  0  0  0  0  0  0
   -1.3723   10.4074    3.0099 C   0  0  0  0  0  0  0  0  0  0  0  0
   -0.7168   10.3578    4.3850 C   0  0  0  0  0  0  0  0  0  0  0  0
   -0.8429    8.1679    1.9859 C   0  0  0  0  0  0  0  0  0  0  0  0
   -0.6461    5.1085    2.1558 C   0  0  0  0  0  0  0  0  0  0  0  0
   -0.2420    5.2982    3.8039 S   0  0  0  0  0  0  0  0  0  0  0  0
   -0.8133    3.7377    4.1556 C   0  0  0  0  0  0  0  0  0  0  0  0
   -0.6196    2.7897    5.1238 C   0  0  0  0  0  0  0  0  0  0  0  0
    0.2145    2.7997    6.2510 C   0  0  0  0  0  0  0  0  0  0  0  0
    0.5464    1.5555    6.8766 C   0  0  0  0  0  0  0  0  0  0  0  0
    1.3977    1.6042    7.9307 N   0  0  0  0  0  0  0  0  0  0  0  0
    1.6799    3.2349    7.9825 S   0  0  0  0  0  0  0  0  0  0  0  0
    0.8044    3.9136    6.7512 N   0  0  0  0  0  0  0  0  0  0  0  0
   -0.0396    0.3815    6.3863 C   0  0  0  0  0  0  0  0  0  0  0  0
    0.1194   -0.9447    6.7158 C   0  0  0  0  0  0  0  0  0  0  0  0
    1.4219   -1.8838    7.2653 S   0  0  0  0  0  0  0  0  0  0  0  0
    0.8434   -3.2629    6.4375 C   0  0  0  0  0  0  0  0  0  0  0  0
    1.5116   -4.4101    5.9972 C   0  0  0  0  0  0  0  0  0  0  0  0
    2.9082   -4.6949    6.3554 C   0  0  0  0  0  0  0  0  0  0  0  0
    3.2205   -5.2754    7.5918 C   0  0  0  0  0  0  0  0  0  0  0  0
    4.5576   -5.4566    7.9640 C   0  0  0  0  0  0  0  0  0  0  0  0
    5.5864   -5.0327    7.1155 C   0  0  0  0  0  0  0  0  0  0  0  0
    5.2848   -4.4346    5.8818 C   0  0  0  0  0  0  0  0  0  0  0  0
    6.3831   -3.8886    5.0114 C   0  0  0  0  0  0  0  0  0  0  0  0
    6.6550   -2.4231    5.3413 C   0  0  0  0  0  0  0  0  0  0  0  0
    3.9415   -4.2694    5.5065 C   0  0  0  0  0  0  0  0  0  0  0  0
    0.8447   -4.9961    4.9039 C   0  0  0  0  0  0  0  0  0  0  0  0
   -0.4981   -4.0464    4.4734 S   0  0  0  0  0  0  0  0  0  0  0  0
   -0.2975   -2.9661    5.7340 C   0  0  0  0  0  0  0  0  0  0  0  0
   -0.6976   -1.6530    5.8874 C   0  0  0  0  0  0  0  0  0  0  0  0
   -1.3884   -0.8644    5.0343 N   0  0  0  0  0  0  0  0  0  0  0  0
   -0.9282    0.3905    5.3033 C   0  0  0  0  0  0  0  0  0  0  0  0
   -1.1169    1.5922    4.5765 C   0  0  0  0  0  0  0  0  0  0  0  0
   -1.4613    1.7653    3.2588 N   0  0  0  0  0  0  0  0  0  0  0  0
   -1.2706    3.0901    3.0527 C   0  0  0  0  0  0  0  0  0  0  0  0
   -1.1306    3.8524    1.9065 C   0  0  0  0  0  0  0  0  0  0  0  0
   -1.2653    3.6011    0.2574 S   0  0  0  0  0  0  0  0  0  0  0  0
   -1.5455    0.7652    2.1853 C   0  0  0  0  0  0  0  0  0  0  0  0
   -2.9423    0.7406    1.5519 C   0  0  0  0  0  0  0  0  0  0  0  0
   -2.7140   -1.2181    4.5055 C   0  0  0  0  0  0  0  0  0  0  0  0
   -3.6807   -1.5626    5.6399 C   0  0  0  0  0  0  0  0  0  0  0  0
    1.3952   -6.0262    4.0168 C   0  0  0  0  0  0  0  0  0  0  0  0
    1.3930   -7.4114    4.2425 C   0  0  0  0  0  0  0  0  0  0  0  0
    0.6658   -8.0389    5.3084 N   0  0  0  0  0  0  0  0  0  0  0  0
    1.2994   -8.3075    6.5746 C   0  0  0  0  0  0  0  0  0  0  0  0
    2.6856   -8.5345    6.6454 C   0  0  0  0  0  0  0  0  0  0  0  0
    3.3050   -8.7618    7.8748 C   0  0  0  0  0  0  0  0  0  0  0  0
    2.5562   -8.7435    9.0616 C   0  0  0  0  0  0  0  0  0  0  0  0
    3.2172   -8.9835   10.3864 C   0  0  0  0  0  0  0  0  0  0  0  0
    1.1701   -8.5399    8.9941 C   0  0  0  0  0  0  0  0  0  0  0  0
    0.5469   -8.3244    7.7619 C   0  0  0  0  0  0  0  0  0  0  0  0
   -0.6564   -8.5217    5.0159 C   0  0  0  0  0  0  0  0  0  0  0  0
   -0.8854   -9.8918    4.8331 C   0  0  0  0  0  0  0  0  0  0  0  0
   -2.1179  -10.3425    4.3475 C   0  0  0  0  0  0  0  0  0  0  0  0
   -3.1364   -9.4266    4.0437 C   0  0  0  0  0  0  0  0  0  0  0  0
   -4.4484   -9.9091    3.4936 C   0  0  0  0  0  0  0  0  0  0  0  0
   -2.9323   -8.0623    4.2964 C   0  0  0  0  0  0  0  0  0  0  0  0
   -1.6971   -7.6131    4.7670 C   0  0  0  0  0  0  0  0  0  0  0  0
    1.8142   -8.1015    3.1078 C   0  0  0  0  0  0  0  0  0  0  0  0
    1.7297   -9.7097    2.6510 S   0  0  0  0  0  0  0  0  0  0  0  0
    2.0749   -9.4071    1.0126 C   0  0  0  0  0  0  0  0  0  0  0  0
    2.1646   -8.0148    0.8120 C   0  0  0  0  0  0  0  0  0  0  0  0
    1.8451   -7.3757   -0.4339 N   0  0  0  0  0  0  0  0  0  0  0  0
    2.8981   -7.0568   -1.3603 C   0  0  0  0  0  0  0  0  0  0  0  0
    4.1477   -6.6109   -0.9002 C   0  0  0  0  0  0  0  0  0  0  0  0
    5.1809   -6.3490   -1.8029 C   0  0  0  0  0  0  0  0  0  0  0  0
    4.9805   -6.5320   -3.1784 C   0  0  0  0  0  0  0  0  0  0  0  0
    6.1057   -6.2963   -4.1431 C   0  0  0  0  0  0  0  0  0  0  0  0
    3.7222   -6.9387   -3.6432 C   0  0  0  0  0  0  0  0  0  0  0  0
    2.6905   -7.2100   -2.7400 C   0  0  0  0  0  0  0  0  0  0  0  0
    0.4965   -6.8784   -0.6265 C   0  0  0  0  0  0  0  0  0  0  0  0
    0.2689   -5.6410   -1.2591 C   0  0  0  0  0  0  0  0  0  0  0  0
   -1.0262   -5.1254   -1.3695 C   0  0  0  0  0  0  0  0  0  0  0  0
   -2.1180   -5.8268   -0.8342 C   0  0  0  0  0  0  0  0  0  0  0  0
   -3.5077   -5.2745   -0.9641 C   0  0  0  0  0  0  0  0  0  0  0  0
   -1.9008   -7.0635   -0.2161 C   0  0  0  0  0  0  0  0  0  0  0  0
   -0.6077   -7.5803   -0.1083 C   0  0  0  0  0  0  0  0  0  0  0  0
    2.0722   -7.3311    2.0219 C   0  0  0  0  0  0  0  0  0  0  0  0
    1.8159   -5.7153    2.3988 S   0  0  0  0  0  0  0  0  0  0  0  0
    1.8495  -10.4253   -0.0240 C   0  0  0  0  0  0  0  0  0  0  0  0
    2.6152  -10.6350   -1.1105 C   0  0  0  0  0  0  0  0  0  0  0  0
    2.1075  -11.3446   -2.2851 C   0  0  0  0  0  0  0  0  0  0  0  0
    1.0429  -12.0138   -2.3433 O   0  0  0  0  0  0  0  0  0  0  0  0
    2.9984  -11.0934   -3.3916 C   0  0  0  0  0  0  0  0  0  0  0  0
    2.8731  -11.5081   -4.7207 C   0  0  0  0  0  0  0  0  0  0  0  0
    1.8259  -12.2726   -5.1180 F   0  0  0  0  0  0  0  0  0  0  0  0
    3.8461  -11.1016   -5.6410 C   0  0  0  0  0  0  0  0  0  0  0  0
    4.9161  -10.2909   -5.2248 C   0  0  0  0  0  0  0  0  0  0  0  0
    5.0269   -9.8866   -3.8808 C   0  0  0  0  0  0  0  0  0  0  0  0
    4.0649  -10.3223   -2.9586 C   0  0  0  0  0  0  0  0  0  0  0  0
    3.9613  -10.1010   -1.4871 C   0  0  0  0  0  0  0  0  0  0  0  0
    5.0067   -9.8644   -0.6535 C   0  0  0  0  0  0  0  0  0  0  0  0
    4.9317  -10.0998    0.7625 C   0  0  0  0  0  0  0  0  0  0  0  0
    4.8955  -10.2923    1.9031 N   0  0  0  0  0  0  0  0  0  0  0  0
    6.3255   -9.5457   -1.1317 C   0  0  0  0  0  0  0  0  0  0  0  0
    7.3918   -9.2894   -1.5047 N   0  0  0  0  0  0  0  0  0  0  0  0
   -1.5932    7.2076   -7.9326 H   0  0  0  0  0  0  0  0  0  0  0  0
   -5.8477    2.8813   -6.4105 H   0  0  0  0  0  0  0  0  0  0  0  0
   -8.0585    3.0512   -7.5422 H   0  0  0  0  0  0  0  0  0  0  0  0
   -6.4877    6.0223  -10.2260 H   0  0  0  0  0  0  0  0  0  0  0  0
   -5.7948    8.5160   -5.7134 H   0  0  0  0  0  0  0  0  0  0  0  0
   -7.9438    7.3692   -5.5763 H   0  0  0  0  0  0  0  0  0  0  0  0
   -8.3276    3.7717   -4.4942 H   0  0  0  0  0  0  0  0  0  0  0  0
   -9.0758    5.2836   -3.8457 H   0  0  0  0  0  0  0  0  0  0  0  0
   -8.9912    4.9961   -5.6305 H   0  0  0  0  0  0  0  0  0  0  0  0
   -6.0246    3.9507   -3.8091 H   0  0  0  0  0  0  0  0  0  0  0  0
   -3.8790    5.0861   -3.9073 H   0  0  0  0  0  0  0  0  0  0  0  0
   -3.3491    9.4843   -3.1007 H   0  0  0  0  0  0  0  0  0  0  0  0
   -3.2707   11.9177   -3.4921 H   0  0  0  0  0  0  0  0  0  0  0  0
   -4.2198   13.6222   -5.7206 H   0  0  0  0  0  0  0  0  0  0  0  0
   -2.4970   13.7250   -5.1830 H   0  0  0  0  0  0  0  0  0  0  0  0
   -2.8839   13.4677   -6.9189 H   0  0  0  0  0  0  0  0  0  0  0  0
   -3.1723   11.2173   -7.7488 H   0  0  0  0  0  0  0  0  0  0  0  0
   -3.2688    8.7978   -7.3470 H   0  0  0  0  0  0  0  0  0  0  0  0
    0.0522    1.9570   -3.8008 H   0  0  0  0  0  0  0  0  0  0  0  0
    0.9390    0.8794   -5.8345 H   0  0  0  0  0  0  0  0  0  0  0  0
    3.6493    2.2821   -7.9195 H   0  0  0  0  0  0  0  0  0  0  0  0
    2.3889    1.0051   -7.7939 H   0  0  0  0  0  0  0  0  0  0  0  0
    3.9631    0.8014   -6.9272 H   0  0  0  0  0  0  0  0  0  0  0  0
    4.2180    3.6802   -5.8881 H   0  0  0  0  0  0  0  0  0  0  0  0
    3.3248    4.7600   -3.8614 H   0  0  0  0  0  0  0  0  0  0  0  0
    0.9559    1.7265   -1.2379 H   0  0  0  0  0  0  0  0  0  0  0  0
    1.9623    1.1710    0.9295 H   0  0  0  0  0  0  0  0  0  0  0  0
    4.5711    2.7779    2.4705 H   0  0  0  0  0  0  0  0  0  0  0  0
    3.1132    1.8176    2.9287 H   0  0  0  0  0  0  0  0  0  0  0  0
    3.1697    3.5762    3.2816 H   0  0  0  0  0  0  0  0  0  0  0  0
    3.6996    5.1151    1.1373 H   0  0  0  0  0  0  0  0  0  0  0  0
    2.7441    5.6516   -1.0611 H   0  0  0  0  0  0  0  0  0  0  0  0
    1.3138    7.3482   -0.5253 H   0  0  0  0  0  0  0  0  0  0  0  0
    1.7417    9.7692   -0.4192 H   0  0  0  0  0  0  0  0  0  0  0  0
    0.5304   11.1873    1.1964 H   0  0  0  0  0  0  0  0  0  0  0  0
   -2.4250   10.0572    3.0878 H   0  0  0  0  0  0  0  0  0  0  0  0
   -1.4065   11.4615    2.6614 H   0  0  0  0  0  0  0  0  0  0  0  0
    0.3356   10.7034    4.3213 H   0  0  0  0  0  0  0  0  0  0  0  0
   -0.7411    9.3217    4.7814 H   0  0  0  0  0  0  0  0  0  0  0  0
   -1.2677   11.0156    5.0896 H   0  0  0  0  0  0  0  0  0  0  0  0
   -1.5840    7.7301    2.6454 H   0  0  0  0  0  0  0  0  0  0  0  0
    2.4343   -5.5852    8.2630 H   0  0  0  0  0  0  0  0  0  0  0  0
    4.7952   -5.9093    8.9176 H   0  0  0  0  0  0  0  0  0  0  0  0
    6.6163   -5.1456    7.4338 H   0  0  0  0  0  0  0  0  0  0  0  0
    7.3164   -4.4784    5.1515 H   0  0  0  0  0  0  0  0  0  0  0  0
    6.0968   -3.9694    3.9419 H   0  0  0  0  0  0  0  0  0  0  0  0
    6.9877   -2.3197    6.3965 H   0  0  0  0  0  0  0  0  0  0  0  0
    5.7344   -1.8163    5.1905 H   0  0  0  0  0  0  0  0  0  0  0  0
    7.4534   -2.0312    4.6777 H   0  0  0  0  0  0  0  0  0  0  0  0
    3.7012   -3.7770    4.5721 H   0  0  0  0  0  0  0  0  0  0  0  0
   -1.2735   -0.2376    2.5545 H   0  0  0  0  0  0  0  0  0  0  0  0
   -0.7899    0.9926    1.4043 H   0  0  0  0  0  0  0  0  0  0  0  0
   -2.9852    1.4199    0.6793 H   0  0  0  0  0  0  0  0  0  0  0  0
   -3.7121    1.0778    2.2750 H   0  0  0  0  0  0  0  0  0  0  0  0
   -3.1850   -0.2855    1.2059 H   0  0  0  0  0  0  0  0  0  0  0  0
   -3.1538   -0.3619    3.9677 H   0  0  0  0  0  0  0  0  0  0  0  0
   -2.6291   -2.0810    3.8160 H   0  0  0  0  0  0  0  0  0  0  0  0
   -3.3221   -2.4441    6.2064 H   0  0  0  0  0  0  0  0  0  0  0  0
   -4.6801   -1.7956    5.2163 H   0  0  0  0  0  0  0  0  0  0  0  0
   -3.7828   -0.6922    6.3245 H   0  0  0  0  0  0  0  0  0  0  0  0
    3.2857   -8.5451    5.7443 H   0  0  0  0  0  0  0  0  0  0  0  0
    4.3736   -8.9386    7.9014 H   0  0  0  0  0  0  0  0  0  0  0  0
    4.3204   -8.8748   10.3087 H   0  0  0  0  0  0  0  0  0  0  0  0
    2.9816  -10.0119   10.7354 H   0  0  0  0  0  0  0  0  0  0  0  0
    2.8504   -8.2471   11.1349 H   0  0  0  0  0  0  0  0  0  0  0  0
    0.5726   -8.5443    9.8982 H   0  0  0  0  0  0  0  0  0  0  0  0
   -0.5222   -8.1467    7.7345 H   0  0  0  0  0  0  0  0  0  0  0  0
   -0.0869  -10.6019    5.0127 H   0  0  0  0  0  0  0  0  0  0  0  0
   -2.2676  -11.4015    4.1803 H   0  0  0  0  0  0  0  0  0  0  0  0
   -4.2877  -10.7406    2.7737 H   0  0  0  0  0  0  0  0  0  0  0  0
   -4.9808   -9.0951    2.9550 H   0  0  0  0  0  0  0  0  0  0  0  0
   -5.0898  -10.2684    4.3246 H   0  0  0  0  0  0  0  0  0  0  0  0
   -3.7186   -7.3422    4.1055 H   0  0  0  0  0  0  0  0  0  0  0  0
   -1.5485   -6.5593    4.9326 H   0  0  0  0  0  0  0  0  0  0  0  0
    4.3236   -6.4600    0.1572 H   0  0  0  0  0  0  0  0  0  0  0  0
    6.1385   -6.0113   -1.4268 H   0  0  0  0  0  0  0  0  0  0  0  0
    6.1612   -5.2166   -4.3746 H   0  0  0  0  0  0  0  0  0  0  0  0
    7.0702   -6.6273   -3.7009 H   0  0  0  0  0  0  0  0  0  0  0  0
    5.9436   -6.8652   -5.0836 H   0  0  0  0  0  0  0  0  0  0  0  0
    3.5474   -7.0825   -4.7017 H   0  0  0  0  0  0  0  0  0  0  0  0
    1.7344   -7.5595   -3.1128 H   0  0  0  0  0  0  0  0  0  0  0  0
    1.0963   -5.0619   -1.6464 H   0  0  0  0  0  0  0  0  0  0  0  0
   -1.1798   -4.1697   -1.8590 H   0  0  0  0  0  0  0  0  0  0  0  0
   -3.9194   -5.5305   -1.9614 H   0  0  0  0  0  0  0  0  0  0  0  0
   -4.1732   -5.6965   -0.1817 H   0  0  0  0  0  0  0  0  0  0  0  0
   -3.4980   -4.1718   -0.8446 H   0  0  0  0  0  0  0  0  0  0  0  0
   -2.7332   -7.6250    0.1886 H   0  0  0  0  0  0  0  0  0  0  0  0
   -0.4690   -8.5276    0.3924 H   0  0  0  0  0  0  0  0  0  0  0  0
    0.9213  -10.9750    0.0598 H   0  0  0  0  0  0  0  0  0  0  0  0
    3.7817  -11.4182   -6.6761 H   0  0  0  0  0  0  0  0  0  0  0  0
    5.6538   -9.9636   -5.9476 H   0  0  0  0  0  0  0  0  0  0  0  0
    5.8334   -9.2353   -3.5992 H   0  0  0  0  0  0  0  0  0  0  0  0
  1  2  2  3
  2  3  1  0
  3  4  2  0
  3  5  1  0
  5  6  2  0
  6  7  1  0
  7  8  2  0
  8  9  1  0
  8 10  1  0
 10 11  2  0
 11 12  1  0
 12 13  2  3
 13 14  1  0
 14 15  3  0
 13 16  1  0
 16 17  3  0
  1 18  1  0
 18 19  2  0
 19 20  1  0
 20 21  1  0
 21 22  2  0
 22 23  1  0
 23 24  2  0
 24 25  1  0
 24 26  1  0
 26 27  2  0
 20 28  1  0
 28 29  2  0
 29 30  1  0
 30 31  2  0
 31 32  1  0
 31 33  1  0
 33 34  2  0
 19 35  1  0
 35 36  1  0
 36 37  1  0
 37 38  2  0
 38 39  1  0
 39 40  1  0
 40 41  2  0
 41 42  1  0
 42 43  2  0
 43 44  1  0
 43 45  1  0
 45 46  2  0
 39 47  1  0
 47 48  2  0
 48 49  1  0
 49 50  2  0
 50 51  1  0
 50 52  1  0
 52 53  2  0
 38 54  1  0
 54 55  1  0
 37 56  1  0
 56 57  2  0
 57 58  1  0
 58 59  2  0
 59 60  1  0
 60 61  2  0
 61 62  1  0
 62 63  1  0
 63 64  1  0
 62 65  2  0
 57 66  1  0
 66 67  1  0
 67 68  1  0
 68 69  1  0
 69 70  1  0
 70 71  1  0
 71 72  2  0
 72 73  1  0
 73 74  1  0
 71 75  1  0
 75 76  1  0
 76 77  1  0
 77 78  1  0
 78 79  1  0
 79 80  1  0
 80 81  2  0
 81 82  1  0
 82 83  2  0
 83 84  1  0
 84 85  1  0
 85 86  1  0
 84 87  2  0
 79 88  2  0
 88 89  1  0
 89 90  1  0
 90 91  1  0
 91 92  1  0
 92 93  1  0
 93 94  1  0
 94 95  1  0
 95 96  1  0
 96 97  1  0
 97 98  1  0
 95 99  1  0
 99100  1  0
 92101  1  0
101102  1  0
 88103  1  0
103104  2  0
104105  1  0
105106  1  0
106107  2  0
107108  1  0
108109  2  0
109110  1  0
109111  1  0
111112  2  0
105113  1  0
113114  2  0
114115  1  0
115116  2  0
116117  1  0
116118  1  0
118119  2  0
104120  1  0
120121  1  0
121122  1  0
122123  2  0
123124  1  0
124125  1  0
125126  2  0
126127  1  0
127128  2  0
128129  1  0
128130  1  0
130131  2  0
124132  1  0
132133  2  0
133134  1  0
134135  2  0
135136  1  0
135137  1  0
137138  2  0
123139  1  0
139140  1  0
122141  1  0
141142  2  3
142143  1  0
143144  2  0
143145  1  0
145146  2  0
146147  1  0
146148  1  0
148149  2  0
149150  1  0
150151  2  0
151152  1  0
152153  2  3
153154  1  0
154155  3  0
153156  1  0
156157  3  0
 12  2  1  0
 55 18  1  0
 98 56  1  0
140103  1  0
152142  1  0
 11  5  1  0
 27 21  1  0
 34 28  1  0
 54 35  2  0
 65 58  1  0
 97 66  2  0
112106  1  0
119113  1  0
139120  2  0
151145  1  0
 46 40  1  0
 53 47  1  0
 96 68  2  0
131125  1  0
138132  1  0
 94 69  2  0
 74 70  2  0
 93 75  2  0
 91 76  2  0
 90 78  2  0
 87 80  1  0
  1158  1  0
  6159  1  0
  7160  1  0
 10161  1  0
 22162  1  0
 23163  1  0
 25164  1  0
 25165  1  0
 25166  1  0
 26167  1  0
 27168  1  0
 29169  1  0
 30170  1  0
 32171  1  0
 32172  1  0
 32173  1  0
 33174  1  0
 34175  1  0
 41176  1  0
 42177  1  0
 44178  1  0
 44179  1  0
 44180  1  0
 45181  1  0
 46182  1  0
 48183  1  0
 49184  1  0
 51185  1  0
 51186  1  0
 51187  1  0
 52188  1  0
 53189  1  0
 59190  1  0
 60191  1  0
 61192  1  0
 63193  1  0
 63194  1  0
 64195  1  0
 64196  1  0
 64197  1  0
 65198  1  0
 81199  1  0
 82200  1  0
 83201  1  0
 85202  1  0
 85203  1  0
 86204  1  0
 86205  1  0
 86206  1  0
 87207  1  0
 99208  1  0
 99209  1  0
100210  1  0
100211  1  0
100212  1  0
101213  1  0
101214  1  0
102215  1  0
102216  1  0
102217  1  0
107218  1  0
108219  1  0
110220  1  0
110221  1  0
110222  1  0
111223  1  0
112224  1  0
114225  1  0
115226  1  0
117227  1  0
117228  1  0
117229  1  0
118230  1  0
119231  1  0
126232  1  0
127233  1  0
129234  1  0
129235  1  0
129236  1  0
130237  1  0
131238  1  0
133239  1  0
134240  1  0
136241  1  0
136242  1  0
136243  1  0
137244  1  0
138245  1  0
141246  1  0
148247  1  0
149248  1  0
150249  1  0
M  END

