
     RDKit          3D

201222  0  0  0  0  0  0  0  0999 V2000
    3.5641   -0.2866    7.4010 C   0  0  0  0  0  0  0  0  0  0  0  0
    2.5153    0.4973    7.7158 C   0  0  0  0  0  0  0  0  0  0  0  0
    1.9519    1.5561    6.8649 C   0  0  0  0  0  0  0  0  0  0  0  0
    2.1348    1.7070    5.6292 O   0  0  0  0  0  0  0  0  0  0  0  0
    1.2046    2.4604    7.7081 C   0  0  0  0  0  0  0  0  0  0  0  0
    0.6690    3.7055    7.3689 C   0  0  0  0  0  0  0  0  0  0  0  0
    0.1180    4.4921    8.3908 C   0  0  0  0  0  0  0  0  0  0  0  0
    0.1313    4.0350    9.7227 C   0  0  0  0  0  0  0  0  0  0  0  0
   -0.5666    5.1432   11.1098 Br  0  0  0  0  0  0  0  0  0  0  0  0
    0.6850    2.7837   10.0432 C   0  0  0  0  0  0  0  0  0  0  0  0
    1.2023    1.9868    9.0091 C   0  0  0  0  0  0  0  0  0  0  0  0
    1.9016    0.6759    9.0641 C   0  0  0  0  0  0  0  0  0  0  0  0
    1.7902   -0.2607   10.0395 C   0  0  0  0  0  0  0  0  0  0  0  0
    0.9840   -0.0597   11.2165 C   0  0  0  0  0  0  0  0  0  0  0  0
    0.3289    0.0809   12.1595 N   0  0  0  0  0  0  0  0  0  0  0  0
    2.3106   -1.5899    9.8855 C   0  0  0  0  0  0  0  0  0  0  0  0
    2.7231   -2.6681    9.7733 N   0  0  0  0  0  0  0  0  0  0  0  0
    4.1689   -0.2972    6.0656 C   0  0  0  0  0  0  0  0  0  0  0  0
    5.0535    0.6556    5.4937 C   0  0  0  0  0  0  0  0  0  0  0  0
    5.6051    1.8230    6.1639 N   0  0  0  0  0  0  0  0  0  0  0  0
    5.3816    2.0839    7.5603 C   0  0  0  0  0  0  0  0  0  0  0  0
    4.5835    3.1648    7.9589 C   0  0  0  0  0  0  0  0  0  0  0  0
    4.3394    3.3991    9.3161 C   0  0  0  0  0  0  0  0  0  0  0  0
    4.9128    2.5677   10.2896 C   0  0  0  0  0  0  0  0  0  0  0  0
    4.5874    2.7666   11.7425 C   0  0  0  0  0  0  0  0  0  0  0  0
    5.7294    1.5003    9.8906 C   0  0  0  0  0  0  0  0  0  0  0  0
    5.9773    1.2672    8.5336 C   0  0  0  0  0  0  0  0  0  0  0  0
    6.5206    2.6931    5.4821 C   0  0  0  0  0  0  0  0  0  0  0  0
    6.0783    3.9142    4.9553 C   0  0  0  0  0  0  0  0  0  0  0  0
    6.9615    4.7395    4.2564 C   0  0  0  0  0  0  0  0  0  0  0  0
    8.2919    4.3397    4.0586 C   0  0  0  0  0  0  0  0  0  0  0  0
    9.2491    5.2325    3.3265 C   0  0  0  0  0  0  0  0  0  0  0  0
    8.7386    3.1274    4.6084 C   0  0  0  0  0  0  0  0  0  0  0  0
    7.8581    2.3082    5.3161 C   0  0  0  0  0  0  0  0  0  0  0  0
    5.2434    0.3599    4.1291 C   0  0  0  0  0  0  0  0  0  0  0  0
    5.9356    1.1527    2.8101 S   0  0  0  0  0  0  0  0  0  0  0  0
    5.3782    0.0459    1.6444 C   0  0  0  0  0  0  0  0  0  0  0  0
    4.5875   -0.9245    2.2961 C   0  0  0  0  0  0  0  0  0  0  0  0
    3.7600   -1.8958    1.6263 N   0  0  0  0  0  0  0  0  0  0  0  0
    4.4070   -3.0591    1.0907 C   0  0  0  0  0  0  0  0  0  0  0  0
    5.1862   -3.8790    1.9251 C   0  0  0  0  0  0  0  0  0  0  0  0
    5.9551   -4.9101    1.3770 C   0  0  0  0  0  0  0  0  0  0  0  0
    5.9394   -5.1445   -0.0061 C   0  0  0  0  0  0  0  0  0  0  0  0
    6.8059   -6.2237   -0.5902 C   0  0  0  0  0  0  0  0  0  0  0  0
    5.0960   -4.3752   -0.8269 C   0  0  0  0  0  0  0  0  0  0  0  0
    4.3314   -3.3392   -0.2793 C   0  0  0  0  0  0  0  0  0  0  0  0
    2.3116   -1.7905    1.6517 C   0  0  0  0  0  0  0  0  0  0  0  0
    1.5003   -2.9338    1.4988 C   0  0  0  0  0  0  0  0  0  0  0  0
    0.1071   -2.8342    1.5561 C   0  0  0  0  0  0  0  0  0  0  0  0
   -0.5062   -1.5933    1.7808 C   0  0  0  0  0  0  0  0  0  0  0  0
   -2.0006   -1.4951    1.8396 C   0  0  0  0  0  0  0  0  0  0  0  0
    0.2876   -0.4456    1.8993 C   0  0  0  0  0  0  0  0  0  0  0  0
    1.6825   -0.5449    1.8566 C   0  0  0  0  0  0  0  0  0  0  0  0
    4.5608   -0.7236    3.6698 C   0  0  0  0  0  0  0  0  0  0  0  0
    3.6721   -1.4190    4.8949 S   0  0  0  0  0  0  0  0  0  0  0  0
    5.2587    0.3623    0.2224 C   0  0  0  0  0  0  0  0  0  0  0  0
    5.9219   -0.2874   -0.8442 C   0  0  0  0  0  0  0  0  0  0  0  0
    7.2847   -0.8954   -0.7819 C   0  0  0  0  0  0  0  0  0  0  0  0
    7.5859   -1.8235    0.2297 C   0  0  0  0  0  0  0  0  0  0  0  0
    8.8450   -2.4164    0.3205 C   0  0  0  0  0  0  0  0  0  0  0  0
    9.8480   -2.0657   -0.5782 C   0  0  0  0  0  0  0  0  0  0  0  0
    9.5973   -1.1123   -1.5630 C   0  0  0  0  0  0  0  0  0  0  0  0
    8.3263   -0.5113   -1.6804 C   0  0  0  0  0  0  0  0  0  0  0  0
    8.1845    0.6245   -2.6755 C   0  0  0  0  0  0  0  0  0  0  0  0
    8.2218    1.9806   -1.9761 C   0  0  0  0  0  0  0  0  0  0  0  0
    5.1632   -0.1857   -2.0181 C   0  0  0  0  0  0  0  0  0  0  0  0
    5.0289   -1.2280   -3.3692 S   0  0  0  0  0  0  0  0  0  0  0  0
    3.5440   -0.5281   -3.8047 C   0  0  0  0  0  0  0  0  0  0  0  0
    2.4247   -0.9045   -4.4931 C   0  0  0  0  0  0  0  0  0  0  0  0
    2.2392   -1.9531   -5.3959 C   0  0  0  0  0  0  0  0  0  0  0  0
    0.9250   -2.2235   -5.8717 C   0  0  0  0  0  0  0  0  0  0  0  0
    0.7818   -3.2778   -6.7180 N   0  0  0  0  0  0  0  0  0  0  0  0
    2.3586   -3.7774   -6.8111 S   0  0  0  0  0  0  0  0  0  0  0  0
    3.2357   -2.7595   -5.8416 N   0  0  0  0  0  0  0  0  0  0  0  0
   -0.1363   -1.4436   -5.3968 C   0  0  0  0  0  0  0  0  0  0  0  0
   -1.4783   -1.6503   -5.5183 C   0  0  0  0  0  0  0  0  0  0  0  0
   -2.5143   -2.8725   -6.0910 S   0  0  0  0  0  0  0  0  0  0  0  0
   -3.8232   -2.2193   -5.2170 C   0  0  0  0  0  0  0  0  0  0  0  0
   -5.1441   -2.6186   -5.0107 C   0  0  0  0  0  0  0  0  0  0  0  0
   -5.7417   -3.8370   -5.5716 C   0  0  0  0  0  0  0  0  0  0  0  0
   -6.2428   -3.8995   -6.8955 C   0  0  0  0  0  0  0  0  0  0  0  0
   -6.1857   -2.7235   -7.8445 C   0  0  0  0  0  0  0  0  0  0  0  0
   -5.1565   -2.9542   -8.9501 C   0  0  0  0  0  0  0  0  0  0  0  0
   -6.8132   -5.1039   -7.3548 C   0  0  0  0  0  0  0  0  0  0  0  0
   -6.8778   -6.2212   -6.5219 C   0  0  0  0  0  0  0  0  0  0  0  0
   -6.3758   -6.1589   -5.2240 C   0  0  0  0  0  0  0  0  0  0  0  0
   -5.8153   -4.9721   -4.7473 C   0  0  0  0  0  0  0  0  0  0  0  0
   -5.7742   -1.7898   -4.0640 C   0  0  0  0  0  0  0  0  0  0  0  0
   -4.6929   -0.6014   -3.5170 S   0  0  0  0  0  0  0  0  0  0  0  0
   -3.4257   -1.1342   -4.4749 C   0  0  0  0  0  0  0  0  0  0  0  0
   -2.0867   -0.8117   -4.6533 C   0  0  0  0  0  0  0  0  0  0  0  0
   -1.2116   -0.0394   -3.9581 N   0  0  0  0  0  0  0  0  0  0  0  0
    0.0283   -0.4139   -4.4416 C   0  0  0  0  0  0  0  0  0  0  0  0
    1.3638   -0.1050   -4.0076 C   0  0  0  0  0  0  0  0  0  0  0  0
    1.8561    0.7792   -3.0721 N   0  0  0  0  0  0  0  0  0  0  0  0
    3.1600    0.4457   -2.9571 C   0  0  0  0  0  0  0  0  0  0  0  0
    4.0566    0.6226   -1.9239 C   0  0  0  0  0  0  0  0  0  0  0  0
    3.8499    1.1213   -0.3485 S   0  0  0  0  0  0  0  0  0  0  0  0
    1.3656    2.0841   -2.6061 C   0  0  0  0  0  0  0  0  0  0  0  0
    0.9512    2.9763   -3.7781 C   0  0  0  0  0  0  0  0  0  0  0  0
   -1.5823    0.7101   -2.7553 C   0  0  0  0  0  0  0  0  0  0  0  0
   -1.2162   -0.0673   -1.4911 C   0  0  0  0  0  0  0  0  0  0  0  0
   -7.1937   -1.7970   -3.6982 C   0  0  0  0  0  0  0  0  0  0  0  0
   -8.1495   -1.2778   -4.5683 C   0  0  0  0  0  0  0  0  0  0  0  0
   -7.9931   -0.8614   -5.8339 N   0  0  0  0  0  0  0  0  0  0  0  0
   -9.1806   -0.3692   -6.1827 N   0  0  0  0  0  0  0  0  0  0  0  0
   -9.4831    0.1583   -7.5102 C   0  0  0  0  0  0  0  0  0  0  0  0
   -8.3735    1.0878   -7.9976 C   0  0  0  0  0  0  0  0  0  0  0  0
  -10.0782   -0.4457   -5.2043 N   0  0  0  0  0  0  0  0  0  0  0  0
   -9.4221   -1.0062   -4.1749 C   0  0  0  0  0  0  0  0  0  0  0  0
   -9.8577   -1.2100   -2.8625 C   0  0  0  0  0  0  0  0  0  0  0  0
   -8.9482   -1.8289   -1.9734 C   0  0  0  0  0  0  0  0  0  0  0  0
   -7.6162   -2.0998   -2.3831 C   0  0  0  0  0  0  0  0  0  0  0  0
   -6.7257   -2.5977   -1.4855 F   0  0  0  0  0  0  0  0  0  0  0  0
   -9.3080   -2.0813   -0.6883 F   0  0  0  0  0  0  0  0  0  0  0  0
  -11.1745   -0.7293   -2.3879 C   0  0  0  0  0  0  0  0  0  0  0  0
  -11.6553    0.5109   -2.6148 C   0  0  0  0  0  0  0  0  0  0  0  0
  -13.0795    0.8301   -2.5685 C   0  0  0  0  0  0  0  0  0  0  0  0
  -13.9684    0.1702   -1.9624 O   0  0  0  0  0  0  0  0  0  0  0  0
  -13.3092    1.9958   -3.3965 C   0  0  0  0  0  0  0  0  0  0  0  0
  -14.5219    2.5784   -3.7615 C   0  0  0  0  0  0  0  0  0  0  0  0
  -14.5029    3.6409   -4.6794 C   0  0  0  0  0  0  0  0  0  0  0  0
  -13.2831    4.0930   -5.2242 C   0  0  0  0  0  0  0  0  0  0  0  0
  -13.2706    5.4903   -6.5276 Br  0  0  0  0  0  0  0  0  0  0  0  0
  -12.0711    3.4847   -4.8449 C   0  0  0  0  0  0  0  0  0  0  0  0
  -12.0974    2.4434   -3.9027 C   0  0  0  0  0  0  0  0  0  0  0  0
  -10.9908    1.6574   -3.3031 C   0  0  0  0  0  0  0  0  0  0  0  0
   -9.7371    2.1153   -3.0526 C   0  0  0  0  0  0  0  0  0  0  0  0
   -9.2362    3.3401   -3.6191 C   0  0  0  0  0  0  0  0  0  0  0  0
   -8.8155    4.3271   -4.0559 N   0  0  0  0  0  0  0  0  0  0  0  0
   -8.9225    1.5471   -2.0087 C   0  0  0  0  0  0  0  0  0  0  0  0
   -8.2724    1.1114   -1.1568 N   0  0  0  0  0  0  0  0  0  0  0  0
    4.0243   -0.9286    8.1360 H   0  0  0  0  0  0  0  0  0  0  0  0
    0.7041    4.0708    6.3481 H   0  0  0  0  0  0  0  0  0  0  0  0
   -0.2982    5.4645    8.1560 H   0  0  0  0  0  0  0  0  0  0  0  0
    0.7533    2.4861   11.0797 H   0  0  0  0  0  0  0  0  0  0  0  0
    4.1131    3.8044    7.2238 H   0  0  0  0  0  0  0  0  0  0  0  0
    3.6821    4.2107    9.6030 H   0  0  0  0  0  0  0  0  0  0  0  0
    4.2767    3.8139   11.9402 H   0  0  0  0  0  0  0  0  0  0  0  0
    5.4722    2.5437   12.3750 H   0  0  0  0  0  0  0  0  0  0  0  0
    3.7546    2.0890   12.0296 H   0  0  0  0  0  0  0  0  0  0  0  0
    6.1667    0.8364   10.6271 H   0  0  0  0  0  0  0  0  0  0  0  0
    6.6054    0.4362    8.2372 H   0  0  0  0  0  0  0  0  0  0  0  0
    5.0469    4.2159    5.0709 H   0  0  0  0  0  0  0  0  0  0  0  0
    6.6101    5.6872    3.8654 H   0  0  0  0  0  0  0  0  0  0  0  0
    8.7172    5.8358    2.5603 H   0  0  0  0  0  0  0  0  0  0  0  0
   10.0338    4.6374    2.8097 H   0  0  0  0  0  0  0  0  0  0  0  0
    9.7395    5.9200    4.0472 H   0  0  0  0  0  0  0  0  0  0  0  0
    9.7690    2.8148    4.4897 H   0  0  0  0  0  0  0  0  0  0  0  0
    8.2037    1.3629    5.7179 H   0  0  0  0  0  0  0  0  0  0  0  0
    5.2413   -3.6841    2.9902 H   0  0  0  0  0  0  0  0  0  0  0  0
    6.5857   -5.5047    2.0272 H   0  0  0  0  0  0  0  0  0  0  0  0
    7.8005   -6.2266   -0.0932 H   0  0  0  0  0  0  0  0  0  0  0  0
    6.9709   -6.0643   -1.6781 H   0  0  0  0  0  0  0  0  0  0  0  0
    6.3244   -7.2109   -0.4386 H   0  0  0  0  0  0  0  0  0  0  0  0
    5.0591   -4.5540   -1.8914 H   0  0  0  0  0  0  0  0  0  0  0  0
    3.7238   -2.7212   -0.9286 H   0  0  0  0  0  0  0  0  0  0  0  0
    1.9438   -3.9101    1.3551 H   0  0  0  0  0  0  0  0  0  0  0  0
   -0.4908   -3.7250    1.4351 H   0  0  0  0  0  0  0  0  0  0  0  0
   -2.3136   -0.6505    2.4911 H   0  0  0  0  0  0  0  0  0  0  0  0
   -2.4113   -1.3359    0.8215 H   0  0  0  0  0  0  0  0  0  0  0  0
   -2.4398   -2.4285    2.2537 H   0  0  0  0  0  0  0  0  0  0  0  0
   -0.1689    0.5272    2.0372 H   0  0  0  0  0  0  0  0  0  0  0  0
    2.2673    0.3555    1.9783 H   0  0  0  0  0  0  0  0  0  0  0  0
    6.8546   -2.0892    0.9639 H   0  0  0  0  0  0  0  0  0  0  0  0
    9.0544   -3.1337    1.1043 H   0  0  0  0  0  0  0  0  0  0  0  0
   10.8330   -2.5102   -0.4988 H   0  0  0  0  0  0  0  0  0  0  0  0
   10.4077   -0.8218   -2.2219 H   0  0  0  0  0  0  0  0  0  0  0  0
    7.2593    0.5341   -3.2718 H   0  0  0  0  0  0  0  0  0  0  0  0
    9.0077    0.5939   -3.4203 H   0  0  0  0  0  0  0  0  0  0  0  0
    8.1029    2.7890   -2.7270 H   0  0  0  0  0  0  0  0  0  0  0  0
    9.1909    2.1204   -1.4509 H   0  0  0  0  0  0  0  0  0  0  0  0
    7.3961    2.0693   -1.2384 H   0  0  0  0  0  0  0  0  0  0  0  0
   -5.9302   -1.7757   -7.3221 H   0  0  0  0  0  0  0  0  0  0  0  0
   -7.1878   -2.5760   -8.3088 H   0  0  0  0  0  0  0  0  0  0  0  0
   -5.3750   -3.8949   -9.5034 H   0  0  0  0  0  0  0  0  0  0  0  0
   -4.1353   -3.0228   -8.5126 H   0  0  0  0  0  0  0  0  0  0  0  0
   -5.1874   -2.1024   -9.6640 H   0  0  0  0  0  0  0  0  0  0  0  0
   -7.2137   -5.1711   -8.3625 H   0  0  0  0  0  0  0  0  0  0  0  0
   -7.3148   -7.1410   -6.8931 H   0  0  0  0  0  0  0  0  0  0  0  0
   -6.4176   -7.0317   -4.5859 H   0  0  0  0  0  0  0  0  0  0  0  0
   -5.4357   -4.9409   -3.7346 H   0  0  0  0  0  0  0  0  0  0  0  0
    2.1798    2.6330   -2.0834 H   0  0  0  0  0  0  0  0  0  0  0  0
    0.6029    1.9733   -1.8169 H   0  0  0  0  0  0  0  0  0  0  0  0
    0.5313    3.9270   -3.3870 H   0  0  0  0  0  0  0  0  0  0  0  0
    0.1952    2.4795   -4.4174 H   0  0  0  0  0  0  0  0  0  0  0  0
    1.8392    3.2099   -4.4035 H   0  0  0  0  0  0  0  0  0  0  0  0
   -1.1903    1.7296   -2.7890 H   0  0  0  0  0  0  0  0  0  0  0  0
   -2.6718    0.9020   -2.7358 H   0  0  0  0  0  0  0  0  0  0  0  0
   -1.7307   -1.0485   -1.4975 H   0  0  0  0  0  0  0  0  0  0  0  0
   -1.5278    0.5040   -0.5935 H   0  0  0  0  0  0  0  0  0  0  0  0
   -0.1250   -0.2497   -1.4392 H   0  0  0  0  0  0  0  0  0  0  0  0
  -10.4403    0.7271   -7.4784 H   0  0  0  0  0  0  0  0  0  0  0  0
   -9.6059   -0.6850   -8.2218 H   0  0  0  0  0  0  0  0  0  0  0  0
   -8.2068    1.9132   -7.2672 H   0  0  0  0  0  0  0  0  0  0  0  0
   -7.4255    0.5201   -8.1235 H   0  0  0  0  0  0  0  0  0  0  0  0
   -8.6567    1.5307   -8.9751 H   0  0  0  0  0  0  0  0  0  0  0  0
  -11.8079   -1.4530   -1.8947 H   0  0  0  0  0  0  0  0  0  0  0  0
  -15.4577    2.2071   -3.3561 H   0  0  0  0  0  0  0  0  0  0  0  0
  -15.4361    4.1009   -4.9811 H   0  0  0  0  0  0  0  0  0  0  0  0
  -11.1512    3.7914   -5.3155 H   0  0  0  0  0  0  0  0  0  0  0  0
  1  2  2  3
  2  3  1  0
  3  4  2  0
  3  5  1  0
  5  6  2  0
  6  7  1  0
  7  8  2  0
  8  9  1  0
  8 10  1  0
 10 11  2  0
 11 12  1  0
 12 13  2  3
 13 14  1  0
 14 15  3  0
 13 16  1  0
 16 17  3  0
  1 18  1  0
 18 19  2  0
 19 20  1  0
 20 21  1  0
 21 22  2  0
 22 23  1  0
 23 24  2  0
 24 25  1  0
 24 26  1  0
 26 27  2  0
 20 28  1  0
 28 29  2  0
 29 30  1  0
 30 31  2  0
 31 32  1  0
 31 33  1  0
 33 34  2  0
 19 35  1  0
 35 36  1  0
 36 37  1  0
 37 38  2  0
 38 39  1  0
 39 40  1  0
 40 41  2  0
 41 42  1  0
 42 43  2  0
 43 44  1  0
 43 45  1  0
 45 46  2  0
 39 47  1  0
 47 48  2  0
 48 49  1  0
 49 50  2  0
 50 51  1  0
 50 52  1  0
 52 53  2  0
 38 54  1  0
 54 55  1  0
 37 56  1  0
 56 57  2  0
 57 58  1  0
 58 59  2  0
 59 60  1  0
 60 61  2  0
 61 62  1  0
 62 63  2  0
 63 64  1  0
 64 65  1  0
 57 66  1  0
 66 67  1  0
 67 68  1  0
 68 69  1  0
 69 70  1  0
 70 71  1  0
 71 72  2  0
 72 73  1  0
 73 74  1  0
 71 75  1  0
 75 76  1  0
 76 77  1  0
 77 78  1  0
 78 79  1  0
 79 80  1  0
 80 81  2  0
 81 82  1  0
 82 83  1  0
 81 84  1  0
 84 85  2  0
 85 86  1  0
 86 87  2  0
 79 88  2  0
 88 89  1  0
 89 90  1  0
 90 91  1  0
 91 92  1  0
 92 93  1  0
 93 94  1  0
 94 95  1  0
 95 96  1  0
 96 97  1  0
 97 98  1  0
 95 99  1  0
 99100  1  0
 92101  1  0
101102  1  0
 88103  1  0
103104  1  0
104105  2  0
105106  1  0
106107  1  0
107108  1  0
106109  1  0
109110  2  0
110111  1  0
111112  2  0
112113  1  0
113114  1  0
112115  1  0
111116  1  0
116117  2  3
117118  1  0
118119  2  0
118120  1  0
120121  2  0
121122  1  0
122123  2  0
123124  1  0
123125  1  0
125126  2  0
126127  1  0
127128  2  3
128129  1  0
129130  3  0
128131  1  0
131132  3  0
 12  2  1  0
 55 18  1  0
 98 56  1  0
113103  2  0
127117  1  0
 11  5  1  0
 27 21  1  0
 34 28  1  0
 54 35  2  0
 63 58  1  0
 97 66  2  0
110104  1  0
126120  1  0
 46 40  1  0
 53 47  1  0
 96 68  2  0
 94 69  2  0
 74 70  2  0
 93 75  2  0
 91 76  2  0
 90 78  2  0
 87 80  1  0
  1133  1  0
  6134  1  0
  7135  1  0
 10136  1  0
 22137  1  0
 23138  1  0
 25139  1  0
 25140  1  0
 25141  1  0
 26142  1  0
 27143  1  0
 29144  1  0
 30145  1  0
 32146  1  0
 32147  1  0
 32148  1  0
 33149  1  0
 34150  1  0
 41151  1  0
 42152  1  0
 44153  1  0
 44154  1  0
 44155  1  0
 45156  1  0
 46157  1  0
 48158  1  0
 49159  1  0
 51160  1  0
 51161  1  0
 51162  1  0
 52163  1  0
 53164  1  0
 59165  1  0
 60166  1  0
 61167  1  0
 62168  1  0
 64169  1  0
 64170  1  0
 65171  1  0
 65172  1  0
 65173  1  0
 82174  1  0
 82175  1  0
 83176  1  0
 83177  1  0
 83178  1  0
 84179  1  0
 85180  1  0
 86181  1  0
 87182  1  0
 99183  1  0
 99184  1  0
100185  1  0
100186  1  0
100187  1  0
101188  1  0
101189  1  0
102190  1  0
102191  1  0
102192  1  0
107193  1  0
107194  1  0
108195  1  0
108196  1  0
108197  1  0
116198  1  0
121199  1  0
122200  1  0
125201  1  0
M  END

