
     RDKit          3D

249274  0  0  0  0  0  0  0  0999 V2000
    5.5040   -5.4571   -0.7866 C   0  0  0  0  0  0  0  0  0  0  0  0
    5.9721   -4.2439   -0.4296 C   0  0  0  0  0  0  0  0  0  0  0  0
    5.1737   -3.0122   -0.4070 C   0  0  0  0  0  0  0  0  0  0  0  0
    3.9264   -2.9307   -0.2771 O   0  0  0  0  0  0  0  0  0  0  0  0
    6.0659   -1.8842   -0.5532 C   0  0  0  0  0  0  0  0  0  0  0  0
    5.7326   -0.5464   -0.7668 C   0  0  0  0  0  0  0  0  0  0  0  0
    6.7631    0.3692   -0.9988 C   0  0  0  0  0  0  0  0  0  0  0  0
    8.0966   -0.0684   -1.0488 C   0  0  0  0  0  0  0  0  0  0  0  0
    9.4834    1.1885   -1.4212 Br  0  0  0  0  0  0  0  0  0  0  0  0
    8.4097   -1.4253   -0.8584 C   0  0  0  0  0  0  0  0  0  0  0  0
    7.3734   -2.3337   -0.5799 C   0  0  0  0  0  0  0  0  0  0  0  0
    7.3976   -3.8133   -0.3913 C   0  0  0  0  0  0  0  0  0  0  0  0
    8.4648   -4.5810   -0.0590 C   0  0  0  0  0  0  0  0  0  0  0  0
    9.7926   -4.0492    0.0750 C   0  0  0  0  0  0  0  0  0  0  0  0
   10.8703   -3.6349    0.1842 N   0  0  0  0  0  0  0  0  0  0  0  0
    8.3282   -5.9744    0.2860 C   0  0  0  0  0  0  0  0  0  0  0  0
    8.2250   -7.0925    0.5574 N   0  0  0  0  0  0  0  0  0  0  0  0
    4.0980   -5.6733   -1.1471 C   0  0  0  0  0  0  0  0  0  0  0  0
    3.5855   -5.5284   -2.4404 C   0  0  0  0  0  0  0  0  0  0  0  0
    4.3826   -5.2056   -3.5901 N   0  0  0  0  0  0  0  0  0  0  0  0
    4.7651   -6.2433   -4.5221 C   0  0  0  0  0  0  0  0  0  0  0  0
    5.0816   -5.9325   -5.8585 C   0  0  0  0  0  0  0  0  0  0  0  0
    5.4775   -6.9321   -6.7510 C   0  0  0  0  0  0  0  0  0  0  0  0
    5.5698   -8.2646   -6.3226 C   0  0  0  0  0  0  0  0  0  0  0  0
    5.9626   -9.3458   -7.2850 C   0  0  0  0  0  0  0  0  0  0  0  0
    5.2192   -8.5892   -5.0051 C   0  0  0  0  0  0  0  0  0  0  0  0
    4.8267   -7.5882   -4.1122 C   0  0  0  0  0  0  0  0  0  0  0  0
    4.8297   -3.8459   -3.7632 C   0  0  0  0  0  0  0  0  0  0  0  0
    3.9067   -2.7850   -3.7728 C   0  0  0  0  0  0  0  0  0  0  0  0
    4.3346   -1.4758   -4.0026 C   0  0  0  0  0  0  0  0  0  0  0  0
    5.6936   -1.2025   -4.2137 C   0  0  0  0  0  0  0  0  0  0  0  0
    6.1378    0.1913   -4.5377 C   0  0  0  0  0  0  0  0  0  0  0  0
    6.6212   -2.2562   -4.1866 C   0  0  0  0  0  0  0  0  0  0  0  0
    6.1914   -3.5680   -3.9598 C   0  0  0  0  0  0  0  0  0  0  0  0
    2.1983   -5.5565   -2.4410 C   0  0  0  0  0  0  0  0  0  0  0  0
    1.0498   -5.1576   -3.5764 S   0  0  0  0  0  0  0  0  0  0  0  0
   -0.2713   -5.1393   -2.4914 C   0  0  0  0  0  0  0  0  0  0  0  0
    0.2193   -5.4881   -1.2062 C   0  0  0  0  0  0  0  0  0  0  0  0
   -0.5882   -5.7516   -0.0438 N   0  0  0  0  0  0  0  0  0  0  0  0
   -0.5519   -4.8013    1.0342 C   0  0  0  0  0  0  0  0  0  0  0  0
    0.3587   -4.9603    2.0931 C   0  0  0  0  0  0  0  0  0  0  0  0
    0.3794   -4.0488    3.1520 C   0  0  0  0  0  0  0  0  0  0  0  0
   -0.5221   -2.9724    3.1767 C   0  0  0  0  0  0  0  0  0  0  0  0
   -0.4990   -1.9824    4.3030 C   0  0  0  0  0  0  0  0  0  0  0  0
   -1.4746   -2.8556    2.1560 C   0  0  0  0  0  0  0  0  0  0  0  0
   -1.4939   -3.7675    1.0934 C   0  0  0  0  0  0  0  0  0  0  0  0
   -1.0052   -7.1133    0.2462 C   0  0  0  0  0  0  0  0  0  0  0  0
   -1.9511   -7.3644    1.2557 C   0  0  0  0  0  0  0  0  0  0  0  0
   -2.2932   -8.6732    1.6117 C   0  0  0  0  0  0  0  0  0  0  0  0
   -1.6996   -9.7622    0.9640 C   0  0  0  0  0  0  0  0  0  0  0  0
   -2.0732  -11.1584    1.3603 C   0  0  0  0  0  0  0  0  0  0  0  0
   -0.8008   -9.5283   -0.0870 C   0  0  0  0  0  0  0  0  0  0  0  0
   -0.4602   -8.2194   -0.4470 C   0  0  0  0  0  0  0  0  0  0  0  0
    1.6087   -5.6925   -1.2259 C   0  0  0  0  0  0  0  0  0  0  0  0
    2.8058   -5.8335   -0.0479 S   0  0  0  0  0  0  0  0  0  0  0  0
   -1.4256   -4.2623   -2.7950 C   0  0  0  0  0  0  0  0  0  0  0  0
   -2.7914   -4.3727   -2.4356 C   0  0  0  0  0  0  0  0  0  0  0  0
   -3.4168   -5.5456   -1.7954 C   0  0  0  0  0  0  0  0  0  0  0  0
   -4.3592   -5.3782   -0.7696 C   0  0  0  0  0  0  0  0  0  0  0  0
   -5.0223   -6.4807   -0.2281 C   0  0  0  0  0  0  0  0  0  0  0  0
   -4.7551   -7.7637   -0.7115 C   0  0  0  0  0  0  0  0  0  0  0  0
   -3.8054   -7.9515   -1.7260 C   0  0  0  0  0  0  0  0  0  0  0  0
   -3.5462   -9.3314   -2.2716 C   0  0  0  0  0  0  0  0  0  0  0  0
   -4.5150   -9.6571   -3.4034 C   0  0  0  0  0  0  0  0  0  0  0  0
   -3.1477   -6.8380   -2.2756 C   0  0  0  0  0  0  0  0  0  0  0  0
   -3.5256   -3.2635   -2.9153 C   0  0  0  0  0  0  0  0  0  0  0  0
   -5.1359   -2.7044   -2.7373 S   0  0  0  0  0  0  0  0  0  0  0  0
   -4.8092   -1.3036   -3.6573 C   0  0  0  0  0  0  0  0  0  0  0  0
   -5.3244   -0.0367   -3.8096 C   0  0  0  0  0  0  0  0  0  0  0  0
   -6.5017    0.5148   -3.2963 C   0  0  0  0  0  0  0  0  0  0  0  0
   -6.6275    1.9329   -3.2512 C   0  0  0  0  0  0  0  0  0  0  0  0
   -7.7497    2.4305   -2.6741 N   0  0  0  0  0  0  0  0  0  0  0  0
   -8.5133    1.0137   -2.2771 S   0  0  0  0  0  0  0  0  0  0  0  0
   -7.5150   -0.2117   -2.7629 N   0  0  0  0  0  0  0  0  0  0  0  0
   -5.5753    2.7263   -3.7250 C   0  0  0  0  0  0  0  0  0  0  0  0
   -5.2623    4.0225   -3.3913 C   0  0  0  0  0  0  0  0  0  0  0  0
   -5.6021    4.8924   -1.9725 S   0  0  0  0  0  0  0  0  0  0  0  0
   -4.0238    5.5121   -1.8561 C   0  0  0  0  0  0  0  0  0  0  0  0
   -3.3199    5.8634   -0.6952 C   0  0  0  0  0  0  0  0  0  0  0  0
   -3.9664    6.5824    0.4483 C   0  0  0  0  0  0  0  0  0  0  0  0
   -4.9546    7.5487    0.1766 C   0  0  0  0  0  0  0  0  0  0  0  0
   -5.5240    8.3065    1.2080 C   0  0  0  0  0  0  0  0  0  0  0  0
   -5.1333    8.0945    2.5304 C   0  0  0  0  0  0  0  0  0  0  0  0
   -4.1673    7.1254    2.8325 C   0  0  0  0  0  0  0  0  0  0  0  0
   -3.7197    6.8844    4.2529 C   0  0  0  0  0  0  0  0  0  0  0  0
   -2.3293    7.4651    4.4909 C   0  0  0  0  0  0  0  0  0  0  0  0
   -3.5888    6.3828    1.7902 C   0  0  0  0  0  0  0  0  0  0  0  0
   -1.9498    5.5091   -0.8028 C   0  0  0  0  0  0  0  0  0  0  0  0
   -1.6840    4.8286   -2.3340 S   0  0  0  0  0  0  0  0  0  0  0  0
   -3.2573    5.0033   -2.8775 C   0  0  0  0  0  0  0  0  0  0  0  0
   -3.9615    4.2027   -3.7699 C   0  0  0  0  0  0  0  0  0  0  0  0
   -3.4622    3.1452   -4.4453 N   0  0  0  0  0  0  0  0  0  0  0  0
   -4.4271    2.1792   -4.3328 C   0  0  0  0  0  0  0  0  0  0  0  0
   -4.2786    0.7536   -4.3393 C   0  0  0  0  0  0  0  0  0  0  0  0
   -3.1549   -0.0247   -4.5080 N   0  0  0  0  0  0  0  0  0  0  0  0
   -3.5185   -1.2484   -4.0520 C   0  0  0  0  0  0  0  0  0  0  0  0
   -2.7926   -2.3573   -3.6386 C   0  0  0  0  0  0  0  0  0  0  0  0
   -1.2042   -2.8287   -3.6887 S   0  0  0  0  0  0  0  0  0  0  0  0
   -1.7985    0.3233   -4.9218 C   0  0  0  0  0  0  0  0  0  0  0  0
   -1.0263    0.9487   -3.7702 C   0  0  0  0  0  0  0  0  0  0  0  0
   -2.5716    3.4093   -5.5919 C   0  0  0  0  0  0  0  0  0  0  0  0
   -3.2249    3.0418   -6.9284 C   0  0  0  0  0  0  0  0  0  0  0  0
   -1.0889    5.1484    0.3254 C   0  0  0  0  0  0  0  0  0  0  0  0
   -1.2222    3.9661    1.0700 C   0  0  0  0  0  0  0  0  0  0  0  0
   -1.8966    2.7880    0.5990 N   0  0  0  0  0  0  0  0  0  0  0  0
   -1.0923    1.7103    0.0480 C   0  0  0  0  0  0  0  0  0  0  0  0
   -1.5122    0.3709    0.1187 C   0  0  0  0  0  0  0  0  0  0  0  0
   -0.7020   -0.6520   -0.3808 C   0  0  0  0  0  0  0  0  0  0  0  0
    0.5737   -0.3772   -0.8886 C   0  0  0  0  0  0  0  0  0  0  0  0
    1.4182   -1.4882   -1.4345 C   0  0  0  0  0  0  0  0  0  0  0  0
    0.9969    0.9523   -0.9778 C   0  0  0  0  0  0  0  0  0  0  0  0
    0.1723    1.9844   -0.5277 C   0  0  0  0  0  0  0  0  0  0  0  0
   -3.3080    2.6470    0.8613 C   0  0  0  0  0  0  0  0  0  0  0  0
   -3.8495    3.0485    2.0974 C   0  0  0  0  0  0  0  0  0  0  0  0
   -5.2177    2.9273    2.3487 C   0  0  0  0  0  0  0  0  0  0  0  0
   -6.0673    2.3861    1.3727 C   0  0  0  0  0  0  0  0  0  0  0  0
   -7.5359    2.2224    1.6377 C   0  0  0  0  0  0  0  0  0  0  0  0
   -5.5224    1.9435    0.1593 C   0  0  0  0  0  0  0  0  0  0  0  0
   -4.1628    2.1015   -0.1090 C   0  0  0  0  0  0  0  0  0  0  0  0
   -0.3332    3.9374    2.1285 C   0  0  0  0  0  0  0  0  0  0  0  0
   -0.0181    2.8084    3.3113 S   0  0  0  0  0  0  0  0  0  0  0  0
    1.2967    3.6910    3.9381 C   0  0  0  0  0  0  0  0  0  0  0  0
    1.5375    4.8280    3.1484 C   0  0  0  0  0  0  0  0  0  0  0  0
    2.8450    5.4134    3.0124 N   0  0  0  0  0  0  0  0  0  0  0  0
    3.9410    4.5156    2.7125 C   0  0  0  0  0  0  0  0  0  0  0  0
    3.7679    3.4673    1.7868 C   0  0  0  0  0  0  0  0  0  0  0  0
    4.7352    2.4682    1.6523 C   0  0  0  0  0  0  0  0  0  0  0  0
    5.8901    2.4993    2.4421 C   0  0  0  0  0  0  0  0  0  0  0  0
    6.8938    1.3841    2.3650 C   0  0  0  0  0  0  0  0  0  0  0  0
    6.1076    3.5853    3.3022 C   0  0  0  0  0  0  0  0  0  0  0  0
    5.1358    4.5836    3.4442 C   0  0  0  0  0  0  0  0  0  0  0  0
    3.0503    6.8294    3.2185 C   0  0  0  0  0  0  0  0  0  0  0  0
    4.0975    7.4963    2.5657 C   0  0  0  0  0  0  0  0  0  0  0  0
    4.3514    8.8488    2.8153 C   0  0  0  0  0  0  0  0  0  0  0  0
    3.5455    9.5641    3.7155 C   0  0  0  0  0  0  0  0  0  0  0  0
    3.8775   10.9939    4.0344 C   0  0  0  0  0  0  0  0  0  0  0  0
    2.4788    8.9126    4.3494 C   0  0  0  0  0  0  0  0  0  0  0  0
    2.2284    7.5565    4.1007 C   0  0  0  0  0  0  0  0  0  0  0  0
    0.5449    4.9718    2.1814 C   0  0  0  0  0  0  0  0  0  0  0  0
    0.2242    6.0573    0.9287 S   0  0  0  0  0  0  0  0  0  0  0  0
    2.0634    3.2914    5.1320 C   0  0  0  0  0  0  0  0  0  0  0  0
    1.4833    3.1906    6.3438 C   0  0  0  0  0  0  0  0  0  0  0  0
    0.0724    3.4711    6.6379 C   0  0  0  0  0  0  0  0  0  0  0  0
   -0.7034    4.1786    5.9403 O   0  0  0  0  0  0  0  0  0  0  0  0
   -0.2577    2.8845    7.9209 C   0  0  0  0  0  0  0  0  0  0  0  0
    0.8931    2.3495    8.4802 C   0  0  0  0  0  0  0  0  0  0  0  0
    0.8127    1.6234    9.6737 C   0  0  0  0  0  0  0  0  0  0  0  0
   -0.4275    1.4885   10.3127 C   0  0  0  0  0  0  0  0  0  0  0  0
   -1.5854    2.0532    9.7563 C   0  0  0  0  0  0  0  0  0  0  0  0
   -3.2531    1.7953   10.6584 Br  0  0  0  0  0  0  0  0  0  0  0  0
   -1.5151    2.7515    8.5346 C   0  0  0  0  0  0  0  0  0  0  0  0
   -2.9628    3.4099    7.7797 Cl  0  0  0  0  0  0  0  0  0  0  0  0
    2.0632    2.6207    7.5941 C   0  0  0  0  0  0  0  0  0  0  0  0
    3.3715    2.5866    7.9543 C   0  0  0  0  0  0  0  0  0  0  0  0
    4.4227    3.0708    7.1019 C   0  0  0  0  0  0  0  0  0  0  0  0
    5.2872    3.4683    6.4404 N   0  0  0  0  0  0  0  0  0  0  0  0
    3.7979    2.2330    9.2820 C   0  0  0  0  0  0  0  0  0  0  0  0
    4.1575    1.9814   10.3502 N   0  0  0  0  0  0  0  0  0  0  0  0
    6.1842   -6.2552   -1.0401 H   0  0  0  0  0  0  0  0  0  0  0  0
    4.6994   -0.2240   -0.7666 H   0  0  0  0  0  0  0  0  0  0  0  0
    6.5301    1.4117   -1.1642 H   0  0  0  0  0  0  0  0  0  0  0  0
    9.4347   -1.7421   -0.9682 H   0  0  0  0  0  0  0  0  0  0  0  0
    5.0082   -4.9148   -6.2170 H   0  0  0  0  0  0  0  0  0  0  0  0
    5.7149   -6.6690   -7.7750 H   0  0  0  0  0  0  0  0  0  0  0  0
    6.5586  -10.1268   -6.7630 H   0  0  0  0  0  0  0  0  0  0  0  0
    6.5836   -8.9376   -8.1120 H   0  0  0  0  0  0  0  0  0  0  0  0
    5.0501   -9.8154   -7.7110 H   0  0  0  0  0  0  0  0  0  0  0  0
    5.2642   -9.6183   -4.6625 H   0  0  0  0  0  0  0  0  0  0  0  0
    4.5860   -7.8657   -3.0955 H   0  0  0  0  0  0  0  0  0  0  0  0
    2.8555   -2.9726   -3.6303 H   0  0  0  0  0  0  0  0  0  0  0  0
    3.6033   -0.6766   -4.0370 H   0  0  0  0  0  0  0  0  0  0  0  0
    6.0014    0.3706   -5.6244 H   0  0  0  0  0  0  0  0  0  0  0  0
    5.5391    0.9302   -3.9640 H   0  0  0  0  0  0  0  0  0  0  0  0
    7.2086    0.3347   -4.2785 H   0  0  0  0  0  0  0  0  0  0  0  0
    7.6747   -2.0642   -4.3586 H   0  0  0  0  0  0  0  0  0  0  0  0
    6.9195   -4.3706   -3.9388 H   0  0  0  0  0  0  0  0  0  0  0  0
    1.0496   -5.7926    2.0963 H   0  0  0  0  0  0  0  0  0  0  0  0
    1.0978   -4.1878    3.9488 H   0  0  0  0  0  0  0  0  0  0  0  0
   -0.4851   -0.9502    3.8970 H   0  0  0  0  0  0  0  0  0  0  0  0
   -1.4006   -2.1149    4.9362 H   0  0  0  0  0  0  0  0  0  0  0  0
    0.4000   -2.1118    4.9437 H   0  0  0  0  0  0  0  0  0  0  0  0
   -2.1969   -2.0497    2.1818 H   0  0  0  0  0  0  0  0  0  0  0  0
   -2.2414   -3.6646    0.3187 H   0  0  0  0  0  0  0  0  0  0  0  0
   -2.4298   -6.5451    1.7808 H   0  0  0  0  0  0  0  0  0  0  0  0
   -3.0168   -8.8347    2.4007 H   0  0  0  0  0  0  0  0  0  0  0  0
   -1.9607  -11.2797    2.4596 H   0  0  0  0  0  0  0  0  0  0  0  0
   -3.1309  -11.3519    1.0788 H   0  0  0  0  0  0  0  0  0  0  0  0
   -1.4266  -11.9115    0.8558 H   0  0  0  0  0  0  0  0  0  0  0  0
   -0.3490  -10.3563   -0.6210 H   0  0  0  0  0  0  0  0  0  0  0  0
    0.2527   -8.0839   -1.2458 H   0  0  0  0  0  0  0  0  0  0  0  0
   -4.5833   -4.3880   -0.3842 H   0  0  0  0  0  0  0  0  0  0  0  0
   -5.7516   -6.3404    0.5561 H   0  0  0  0  0  0  0  0  0  0  0  0
   -5.2791   -8.6075   -0.2907 H   0  0  0  0  0  0  0  0  0  0  0  0
   -3.6621  -10.0846   -1.4631 H   0  0  0  0  0  0  0  0  0  0  0  0
   -2.5036   -9.4066   -2.6483 H   0  0  0  0  0  0  0  0  0  0  0  0
   -4.3282  -10.6888   -3.7748 H   0  0  0  0  0  0  0  0  0  0  0  0
   -4.3715   -8.9475   -4.2477 H   0  0  0  0  0  0  0  0  0  0  0  0
   -5.5648   -9.5936   -3.0404 H   0  0  0  0  0  0  0  0  0  0  0  0
   -2.4495   -6.9769   -3.0901 H   0  0  0  0  0  0  0  0  0  0  0  0
   -5.2636    7.7553   -0.8412 H   0  0  0  0  0  0  0  0  0  0  0  0
   -6.2605    9.0674    0.9811 H   0  0  0  0  0  0  0  0  0  0  0  0
   -5.5792    8.6905    3.3183 H   0  0  0  0  0  0  0  0  0  0  0  0
   -3.6957    5.7887    4.4503 H   0  0  0  0  0  0  0  0  0  0  0  0
   -4.4370    7.3376    4.9723 H   0  0  0  0  0  0  0  0  0  0  0  0
   -1.5754    6.9552    3.8528 H   0  0  0  0  0  0  0  0  0  0  0  0
   -2.3221    8.5530    4.2710 H   0  0  0  0  0  0  0  0  0  0  0  0
   -2.0409    7.3156    5.5521 H   0  0  0  0  0  0  0  0  0  0  0  0
   -2.8566    5.6496    2.0566 H   0  0  0  0  0  0  0  0  0  0  0  0
   -1.8237    0.9300   -5.8339 H   0  0  0  0  0  0  0  0  0  0  0  0
   -1.2615   -0.5873   -5.2528 H   0  0  0  0  0  0  0  0  0  0  0  0
   -0.0090    1.2368   -4.1055 H   0  0  0  0  0  0  0  0  0  0  0  0
   -0.9455    0.2000   -2.9653 H   0  0  0  0  0  0  0  0  0  0  0  0
   -1.5499    1.8331   -3.3614 H   0  0  0  0  0  0  0  0  0  0  0  0
   -1.5774    2.9570   -5.4563 H   0  0  0  0  0  0  0  0  0  0  0  0
   -2.3410    4.5034   -5.6434 H   0  0  0  0  0  0  0  0  0  0  0  0
   -2.5244    3.2665   -7.7586 H   0  0  0  0  0  0  0  0  0  0  0  0
   -3.4909    1.9651   -6.9724 H   0  0  0  0  0  0  0  0  0  0  0  0
   -4.1518    3.6378   -7.0736 H   0  0  0  0  0  0  0  0  0  0  0  0
   -2.4579    0.1057    0.5734 H   0  0  0  0  0  0  0  0  0  0  0  0
   -1.0695   -1.6647   -0.3843 H   0  0  0  0  0  0  0  0  0  0  0  0
    1.3399   -2.3858   -0.7866 H   0  0  0  0  0  0  0  0  0  0  0  0
    2.4776   -1.1767   -1.4976 H   0  0  0  0  0  0  0  0  0  0  0  0
    1.0760   -1.7423   -2.4527 H   0  0  0  0  0  0  0  0  0  0  0  0
    1.9586    1.1968   -1.4201 H   0  0  0  0  0  0  0  0  0  0  0  0
    0.5250    3.0020   -0.6237 H   0  0  0  0  0  0  0  0  0  0  0  0
   -3.2104    3.4484    2.8760 H   0  0  0  0  0  0  0  0  0  0  0  0
   -5.6161    3.2459    3.3069 H   0  0  0  0  0  0  0  0  0  0  0  0
   -7.8715    2.8824    2.4672 H   0  0  0  0  0  0  0  0  0  0  0  0
   -7.7522    1.1653    1.9087 H   0  0  0  0  0  0  0  0  0  0  0  0
   -8.1235    2.4895    0.7314 H   0  0  0  0  0  0  0  0  0  0  0  0
   -6.1597    1.4738   -0.5744 H   0  0  0  0  0  0  0  0  0  0  0  0
   -3.7735    1.7917   -1.0730 H   0  0  0  0  0  0  0  0  0  0  0  0
    2.8596    3.4053    1.1997 H   0  0  0  0  0  0  0  0  0  0  0  0
    4.5604    1.6567    0.9575 H   0  0  0  0  0  0  0  0  0  0  0  0
    7.3271    1.1828    3.3681 H   0  0  0  0  0  0  0  0  0  0  0  0
    7.7061    1.6646    1.6641 H   0  0  0  0  0  0  0  0  0  0  0  0
    6.4134    0.4462    2.0116 H   0  0  0  0  0  0  0  0  0  0  0  0
    7.0098    3.6319    3.9008 H   0  0  0  0  0  0  0  0  0  0  0  0
    5.2877    5.3657    4.1730 H   0  0  0  0  0  0  0  0  0  0  0  0
    4.7328    6.9681    1.8691 H   0  0  0  0  0  0  0  0  0  0  0  0
    5.1831    9.3323    2.3159 H   0  0  0  0  0  0  0  0  0  0  0  0
    4.7230   11.0195    4.7513 H   0  0  0  0  0  0  0  0  0  0  0  0
    4.1704   11.5345    3.1101 H   0  0  0  0  0  0  0  0  0  0  0  0
    3.0066   11.5174    4.4841 H   0  0  0  0  0  0  0  0  0  0  0  0
    1.8507    9.4453    5.0527 H   0  0  0  0  0  0  0  0  0  0  0  0
    1.4129    7.0706    4.6211 H   0  0  0  0  0  0  0  0  0  0  0  0
    3.0951    3.0266    4.9832 H   0  0  0  0  0  0  0  0  0  0  0  0
    1.6697    1.1342   10.1070 H   0  0  0  0  0  0  0  0  0  0  0  0
   -0.4886    0.9315   11.2420 H   0  0  0  0  0  0  0  0  0  0  0  0
  1  2  2  3
  2  3  1  0
  3  4  2  0
  3  5  1  0
  5  6  2  0
  6  7  1  0
  7  8  2  0
  8  9  1  0
  8 10  1  0
 10 11  2  0
 11 12  1  0
 12 13  2  3
 13 14  1  0
 14 15  3  0
 13 16  1  0
 16 17  3  0
  1 18  1  0
 18 19  2  0
 19 20  1  0
 20 21  1  0
 21 22  2  0
 22 23  1  0
 23 24  2  0
 24 25  1  0
 24 26  1  0
 26 27  2  0
 20 28  1  0
 28 29  2  0
 29 30  1  0
 30 31  2  0
 31 32  1  0
 31 33  1  0
 33 34  2  0
 19 35  1  0
 35 36  1  0
 36 37  1  0
 37 38  2  0
 38 39  1  0
 39 40  1  0
 40 41  2  0
 41 42  1  0
 42 43  2  0
 43 44  1  0
 43 45  1  0
 45 46  2  0
 39 47  1  0
 47 48  2  0
 48 49  1  0
 49 50  2  0
 50 51  1  0
 50 52  1  0
 52 53  2  0
 38 54  1  0
 54 55  1  0
 37 56  1  0
 56 57  2  0
 57 58  1  0
 58 59  2  0
 59 60  1  0
 60 61  2  0
 61 62  1  0
 62 63  1  0
 63 64  1  0
 62 65  2  0
 57 66  1  0
 66 67  1  0
 67 68  1  0
 68 69  1  0
 69 70  1  0
 70 71  1  0
 71 72  2  0
 72 73  1  0
 73 74  1  0
 71 75  1  0
 75 76  1  0
 76 77  1  0
 77 78  1  0
 78 79  1  0
 79 80  1  0
 80 81  2  0
 81 82  1  0
 82 83  2  0
 83 84  1  0
 84 85  1  0
 85 86  1  0
 84 87  2  0
 79 88  2  0
 88 89  1  0
 89 90  1  0
 90 91  1  0
 91 92  1  0
 92 93  1  0
 93 94  1  0
 94 95  1  0
 95 96  1  0
 96 97  1  0
 97 98  1  0
 95 99  1  0
 99100  1  0
 92101  1  0
101102  1  0
 88103  1  0
103104  2  0
104105  1  0
105106  1  0
106107  2  0
107108  1  0
108109  2  0
109110  1  0
109111  1  0
111112  2  0
105113  1  0
113114  2  0
114115  1  0
115116  2  0
116117  1  0
116118  1  0
118119  2  0
104120  1  0
120121  1  0
121122  1  0
122123  2  0
123124  1  0
124125  1  0
125126  2  0
126127  1  0
127128  2  0
128129  1  0
128130  1  0
130131  2  0
124132  1  0
132133  2  0
133134  1  0
134135  2  0
135136  1  0
135137  1  0
137138  2  0
123139  1  0
139140  1  0
122141  1  0
141142  2  3
142143  1  0
143144  2  0
143145  1  0
145146  2  0
146147  1  0
147148  2  0
148149  1  0
149150  1  0
149151  2  0
151152  1  0
146153  1  0
153154  2  3
154155  1  0
155156  3  0
154157  1  0
157158  3  0
 12  2  1  0
 55 18  1  0
 98 56  1  0
140103  1  0
153142  1  0
 11  5  1  0
 27 21  1  0
 34 28  1  0
 54 35  2  0
 65 58  1  0
 97 66  2  0
112106  1  0
119113  1  0
139120  2  0
151145  1  0
 46 40  1  0
 53 47  1  0
 96 68  2  0
131125  1  0
138132  1  0
 94 69  2  0
 74 70  2  0
 93 75  2  0
 91 76  2  0
 90 78  2  0
 87 80  1  0
  1159  1  0
  6160  1  0
  7161  1  0
 10162  1  0
 22163  1  0
 23164  1  0
 25165  1  0
 25166  1  0
 25167  1  0
 26168  1  0
 27169  1  0
 29170  1  0
 30171  1  0
 32172  1  0
 32173  1  0
 32174  1  0
 33175  1  0
 34176  1  0
 41177  1  0
 42178  1  0
 44179  1  0
 44180  1  0
 44181  1  0
 45182  1  0
 46183  1  0
 48184  1  0
 49185  1  0
 51186  1  0
 51187  1  0
 51188  1  0
 52189  1  0
 53190  1  0
 59191  1  0
 60192  1  0
 61193  1  0
 63194  1  0
 63195  1  0
 64196  1  0
 64197  1  0
 64198  1  0
 65199  1  0
 81200  1  0
 82201  1  0
 83202  1  0
 85203  1  0
 85204  1  0
 86205  1  0
 86206  1  0
 86207  1  0
 87208  1  0
 99209  1  0
 99210  1  0
100211  1  0
100212  1  0
100213  1  0
101214  1  0
101215  1  0
102216  1  0
102217  1  0
102218  1  0
107219  1  0
108220  1  0
110221  1  0
110222  1  0
110223  1  0
111224  1  0
112225  1  0
114226  1  0
115227  1  0
117228  1  0
117229  1  0
117230  1  0
118231  1  0
119232  1  0
126233  1  0
127234  1  0
129235  1  0
129236  1  0
129237  1  0
130238  1  0
131239  1  0
133240  1  0
134241  1  0
136242  1  0
136243  1  0
136244  1  0
137245  1  0
138246  1  0
141247  1  0
147248  1  0
148249  1  0
M  END

