
     RDKit          3D

249274  0  0  0  0  0  0  0  0999 V2000
    1.1684   -1.7202  -11.8814 C   0  0  0  0  0  0  0  0  0  0  0  0
    0.4440   -1.6451  -13.0097 C   0  0  0  0  0  0  0  0  0  0  0  0
   -1.0183   -1.5463  -13.0651 C   0  0  0  0  0  0  0  0  0  0  0  0
   -1.7852   -1.2523  -12.1061 O   0  0  0  0  0  0  0  0  0  0  0  0
   -1.4377   -1.8832  -14.4088 C   0  0  0  0  0  0  0  0  0  0  0  0
   -2.7390   -1.9488  -14.9063 C   0  0  0  0  0  0  0  0  0  0  0  0
   -2.9212   -2.3044  -16.2484 C   0  0  0  0  0  0  0  0  0  0  0  0
   -1.8153   -2.5812  -17.0673 C   0  0  0  0  0  0  0  0  0  0  0  0
   -2.0798   -3.0488  -18.8977 Br  0  0  0  0  0  0  0  0  0  0  0  0
   -0.5145   -2.5072  -16.5464 C   0  0  0  0  0  0  0  0  0  0  0  0
   -0.3311   -2.1356  -15.2032 C   0  0  0  0  0  0  0  0  0  0  0  0
    0.9164   -1.9347  -14.4038 C   0  0  0  0  0  0  0  0  0  0  0  0
    2.1943   -1.8785  -14.8711 C   0  0  0  0  0  0  0  0  0  0  0  0
    2.5466   -2.2018  -16.2237 C   0  0  0  0  0  0  0  0  0  0  0  0
    2.8548   -2.4633  -17.3109 N   0  0  0  0  0  0  0  0  0  0  0  0
    3.2949   -1.4134  -14.0678 C   0  0  0  0  0  0  0  0  0  0  0  0
    4.1874   -1.0247  -13.4394 N   0  0  0  0  0  0  0  0  0  0  0  0
    0.6153   -1.5926  -10.5272 C   0  0  0  0  0  0  0  0  0  0  0  0
    0.5129   -2.6497   -9.5908 C   0  0  0  0  0  0  0  0  0  0  0  0
    0.3091   -4.0502   -9.9125 N   0  0  0  0  0  0  0  0  0  0  0  0
   -0.5603   -4.8741   -9.1002 C   0  0  0  0  0  0  0  0  0  0  0  0
   -0.2555   -6.2292   -8.8852 C   0  0  0  0  0  0  0  0  0  0  0  0
   -1.0777   -7.0227   -8.0780 C   0  0  0  0  0  0  0  0  0  0  0  0
   -2.2100   -6.4739   -7.4619 C   0  0  0  0  0  0  0  0  0  0  0  0
   -3.1005   -7.3171   -6.5942 C   0  0  0  0  0  0  0  0  0  0  0  0
   -2.5393   -5.1314   -7.6989 C   0  0  0  0  0  0  0  0  0  0  0  0
   -1.7257   -4.3376   -8.5171 C   0  0  0  0  0  0  0  0  0  0  0  0
    0.7839   -4.5824  -11.1598 C   0  0  0  0  0  0  0  0  0  0  0  0
    2.1600   -4.6723  -11.4018 C   0  0  0  0  0  0  0  0  0  0  0  0
    2.6322   -5.0283  -12.6659 C   0  0  0  0  0  0  0  0  0  0  0  0
    1.7231   -5.3080  -13.7045 C   0  0  0  0  0  0  0  0  0  0  0  0
    2.2106   -5.6441  -15.0808 C   0  0  0  0  0  0  0  0  0  0  0  0
    0.3454   -5.2771  -13.4454 C   0  0  0  0  0  0  0  0  0  0  0  0
   -0.1253   -4.9159  -12.1821 C   0  0  0  0  0  0  0  0  0  0  0  0
    0.5639   -2.1524   -8.2836 C   0  0  0  0  0  0  0  0  0  0  0  0
    0.7743   -2.8505   -6.7783 S   0  0  0  0  0  0  0  0  0  0  0  0
    0.9851   -1.3704   -5.9493 C   0  0  0  0  0  0  0  0  0  0  0  0
    0.8447   -0.3233   -6.8821 C   0  0  0  0  0  0  0  0  0  0  0  0
    0.6564    1.0557   -6.5405 N   0  0  0  0  0  0  0  0  0  0  0  0
    1.7709    1.9724   -6.4360 C   0  0  0  0  0  0  0  0  0  0  0  0
    1.6539    3.1441   -5.6649 C   0  0  0  0  0  0  0  0  0  0  0  0
    2.6932    4.0780   -5.6217 C   0  0  0  0  0  0  0  0  0  0  0  0
    3.8783    3.8518   -6.3380 C   0  0  0  0  0  0  0  0  0  0  0  0
    4.9518    4.8968   -6.3744 C   0  0  0  0  0  0  0  0  0  0  0  0
    4.0114    2.6772   -7.0940 C   0  0  0  0  0  0  0  0  0  0  0  0
    2.9733    1.7381   -7.1308 C   0  0  0  0  0  0  0  0  0  0  0  0
   -0.7046    1.5318   -6.5239 C   0  0  0  0  0  0  0  0  0  0  0  0
   -1.6902    0.8340   -5.8005 C   0  0  0  0  0  0  0  0  0  0  0  0
   -3.0325    1.2134   -5.8853 C   0  0  0  0  0  0  0  0  0  0  0  0
   -3.4099    2.3009   -6.6865 C   0  0  0  0  0  0  0  0  0  0  0  0
   -4.8588    2.6579   -6.8452 C   0  0  0  0  0  0  0  0  0  0  0  0
   -2.4286    3.0022   -7.4080 C   0  0  0  0  0  0  0  0  0  0  0  0
   -1.0861    2.6204   -7.3220 C   0  0  0  0  0  0  0  0  0  0  0  0
    0.6357   -0.8060   -8.1692 C   0  0  0  0  0  0  0  0  0  0  0  0
    0.7057   -0.1073   -9.6876 S   0  0  0  0  0  0  0  0  0  0  0  0
    1.4696   -1.2412   -4.5508 C   0  0  0  0  0  0  0  0  0  0  0  0
    2.2347   -2.1922   -3.8401 C   0  0  0  0  0  0  0  0  0  0  0  0
    2.5039   -3.5760   -4.2659 C   0  0  0  0  0  0  0  0  0  0  0  0
    3.4422   -3.8524   -5.2720 C   0  0  0  0  0  0  0  0  0  0  0  0
    3.6161   -5.1651   -5.7258 C   0  0  0  0  0  0  0  0  0  0  0  0
    2.8716   -6.2127   -5.1634 C   0  0  0  0  0  0  0  0  0  0  0  0
    1.9611   -5.9493   -4.1276 C   0  0  0  0  0  0  0  0  0  0  0  0
    1.1634   -7.0778   -3.5206 C   0  0  0  0  0  0  0  0  0  0  0  0
   -0.1171   -7.3316   -4.3075 C   0  0  0  0  0  0  0  0  0  0  0  0
    1.7791   -4.6302   -3.6820 C   0  0  0  0  0  0  0  0  0  0  0  0
    2.6871   -1.6765   -2.6314 C   0  0  0  0  0  0  0  0  0  0  0  0
    3.7986   -2.2651   -1.4813 S   0  0  0  0  0  0  0  0  0  0  0  0
    3.6574   -0.8317   -0.5944 C   0  0  0  0  0  0  0  0  0  0  0  0
    4.2517   -0.2274    0.4721 C   0  0  0  0  0  0  0  0  0  0  0  0
    5.3074   -0.6258    1.2789 C   0  0  0  0  0  0  0  0  0  0  0  0
    5.7219    0.2334    2.3326 C   0  0  0  0  0  0  0  0  0  0  0  0
    6.7265   -0.2210    3.1289 N   0  0  0  0  0  0  0  0  0  0  0  0
    7.0281   -1.6777    2.3990 S   0  0  0  0  0  0  0  0  0  0  0  0
    5.9657   -1.8027    1.1389 N   0  0  0  0  0  0  0  0  0  0  0  0
    5.0117    1.4192    2.5676 C   0  0  0  0  0  0  0  0  0  0  0  0
    4.9011    2.1080    3.7475 C   0  0  0  0  0  0  0  0  0  0  0  0
    5.3806    1.7251    5.3299 S   0  0  0  0  0  0  0  0  0  0  0  0
    3.9917    2.4256    6.0107 C   0  0  0  0  0  0  0  0  0  0  0  0
    3.3947    2.3187    7.2864 C   0  0  0  0  0  0  0  0  0  0  0  0
    4.1006    1.8947    8.5277 C   0  0  0  0  0  0  0  0  0  0  0  0
    5.0600    0.8671    8.5196 C   0  0  0  0  0  0  0  0  0  0  0  0
    5.7382    0.5123    9.6873 C   0  0  0  0  0  0  0  0  0  0  0  0
    5.4749    1.1815   10.8841 C   0  0  0  0  0  0  0  0  0  0  0  0
    4.5189    2.2064   10.9177 C   0  0  0  0  0  0  0  0  0  0  0  0
    4.2284    2.9217   12.2103 C   0  0  0  0  0  0  0  0  0  0  0  0
    5.0283    4.2178   12.3051 C   0  0  0  0  0  0  0  0  0  0  0  0
    3.8423    2.5640    9.7370 C   0  0  0  0  0  0  0  0  0  0  0  0
    2.0323    2.6941    7.2227 C   0  0  0  0  0  0  0  0  0  0  0  0
    1.6586    3.1972    5.6394 S   0  0  0  0  0  0  0  0  0  0  0  0
    3.1816    2.9202    5.0152 C   0  0  0  0  0  0  0  0  0  0  0  0
    3.6974    2.7447    3.7223 C   0  0  0  0  0  0  0  0  0  0  0  0
    3.0678    2.5837    2.5309 N   0  0  0  0  0  0  0  0  0  0  0  0
    3.8992    1.7893    1.7803 C   0  0  0  0  0  0  0  0  0  0  0  0
    3.5995    1.0085    0.6136 C   0  0  0  0  0  0  0  0  0  0  0  0
    2.7336    1.2292   -0.4356 N   0  0  0  0  0  0  0  0  0  0  0  0
    2.7930    0.0624   -1.1332 C   0  0  0  0  0  0  0  0  0  0  0  0
    2.2710   -0.3991   -2.3409 C   0  0  0  0  0  0  0  0  0  0  0  0
    1.3554    0.1903   -3.6143 S   0  0  0  0  0  0  0  0  0  0  0  0
    2.3022    2.5274   -0.9909 C   0  0  0  0  0  0  0  0  0  0  0  0
    0.7781    2.6009   -1.1664 C   0  0  0  0  0  0  0  0  0  0  0  0
    1.6838    3.0036    2.2614 C   0  0  0  0  0  0  0  0  0  0  0  0
    1.6112    4.5219    2.1028 C   0  0  0  0  0  0  0  0  0  0  0  0
    0.9689    2.4411    8.2190 C   0  0  0  0  0  0  0  0  0  0  0  0
    0.7371    1.2361    8.9423 C   0  0  0  0  0  0  0  0  0  0  0  0
    1.4584    0.0095    8.6962 N   0  0  0  0  0  0  0  0  0  0  0  0
    1.7774   -0.8622    9.8058 C   0  0  0  0  0  0  0  0  0  0  0  0
    1.6797   -2.2585    9.6684 C   0  0  0  0  0  0  0  0  0  0  0  0
    1.9915   -3.1081   10.7351 C   0  0  0  0  0  0  0  0  0  0  0  0
    2.4061   -2.5736   11.9618 C   0  0  0  0  0  0  0  0  0  0  0  0
    2.7112   -3.4768   13.1164 C   0  0  0  0  0  0  0  0  0  0  0  0
    2.4379   -1.1818   12.1305 C   0  0  0  0  0  0  0  0  0  0  0  0
    2.1261   -0.3349   11.0610 C   0  0  0  0  0  0  0  0  0  0  0  0
    1.6088   -0.4412    7.3296 C   0  0  0  0  0  0  0  0  0  0  0  0
    0.6038   -0.1830    6.3754 C   0  0  0  0  0  0  0  0  0  0  0  0
    0.7935   -0.5164    5.0392 C   0  0  0  0  0  0  0  0  0  0  0  0
    1.9761   -1.1459    4.6293 C   0  0  0  0  0  0  0  0  0  0  0  0
    2.2146   -1.4395    3.1835 C   0  0  0  0  0  0  0  0  0  0  0  0
    2.9700   -1.4338    5.5774 C   0  0  0  0  0  0  0  0  0  0  0  0
    2.7798   -1.1015    6.9199 C   0  0  0  0  0  0  0  0  0  0  0  0
   -0.5603    1.2097    9.4658 C   0  0  0  0  0  0  0  0  0  0  0  0
   -1.5300   -0.0789    9.9486 S   0  0  0  0  0  0  0  0  0  0  0  0
   -3.0025    0.7403    9.6974 C   0  0  0  0  0  0  0  0  0  0  0  0
   -2.7246    1.9900    9.1120 C   0  0  0  0  0  0  0  0  0  0  0  0
   -3.6071    2.6351    8.1713 N   0  0  0  0  0  0  0  0  0  0  0  0
   -4.3498    3.8054    8.5746 C   0  0  0  0  0  0  0  0  0  0  0  0
   -3.8380    4.6853    9.5443 C   0  0  0  0  0  0  0  0  0  0  0  0
   -4.6152    5.7378   10.0246 C   0  0  0  0  0  0  0  0  0  0  0  0
   -5.9112    5.9445    9.5289 C   0  0  0  0  0  0  0  0  0  0  0  0
   -6.7800    7.0098   10.1358 C   0  0  0  0  0  0  0  0  0  0  0  0
   -6.4197    5.0766    8.5502 C   0  0  0  0  0  0  0  0  0  0  0  0
   -5.6426    4.0194    8.0704 C   0  0  0  0  0  0  0  0  0  0  0  0
   -3.5075    2.2624    6.7737 C   0  0  0  0  0  0  0  0  0  0  0  0
   -3.3424    3.2440    5.7782 C   0  0  0  0  0  0  0  0  0  0  0  0
   -3.1508    2.8740    4.4425 C   0  0  0  0  0  0  0  0  0  0  0  0
   -3.1225    1.5227    4.0790 C   0  0  0  0  0  0  0  0  0  0  0  0
   -2.9555    1.1311    2.6369 C   0  0  0  0  0  0  0  0  0  0  0  0
   -3.3228    0.5395    5.0600 C   0  0  0  0  0  0  0  0  0  0  0  0
   -3.5042    0.9101    6.3929 C   0  0  0  0  0  0  0  0  0  0  0  0
   -1.3544    2.2447    9.0854 C   0  0  0  0  0  0  0  0  0  0  0  0
   -0.4815    3.3244    8.1593 S   0  0  0  0  0  0  0  0  0  0  0  0
   -4.3173    0.0658    9.6794 C   0  0  0  0  0  0  0  0  0  0  0  0
   -5.4652    0.6857   10.0010 C   0  0  0  0  0  0  0  0  0  0  0  0
   -5.5422    1.9075   10.8089 C   0  0  0  0  0  0  0  0  0  0  0  0
   -4.5943    2.4295   11.4616 O   0  0  0  0  0  0  0  0  0  0  0  0
   -6.9100    2.3466   10.8540 C   0  0  0  0  0  0  0  0  0  0  0  0
   -7.4128    3.4973   11.4588 C   0  0  0  0  0  0  0  0  0  0  0  0
   -8.7830    3.7641   11.3503 C   0  0  0  0  0  0  0  0  0  0  0  0
   -9.6233    2.8673   10.6660 C   0  0  0  0  0  0  0  0  0  0  0  0
  -11.4895    3.2472   10.5112 Br  0  0  0  0  0  0  0  0  0  0  0  0
   -9.0924    1.7058   10.0756 C   0  0  0  0  0  0  0  0  0  0  0  0
   -7.7106    1.4512   10.1658 C   0  0  0  0  0  0  0  0  0  0  0  0
   -6.8713    0.3429    9.6054 C   0  0  0  0  0  0  0  0  0  0  0  0
   -7.2914   -0.6743    8.8049 C   0  0  0  0  0  0  0  0  0  0  0  0
   -6.4031   -1.6573    8.2427 C   0  0  0  0  0  0  0  0  0  0  0  0
   -5.6988   -2.4477    7.7689 N   0  0  0  0  0  0  0  0  0  0  0  0
   -8.6657   -0.8461    8.4052 C   0  0  0  0  0  0  0  0  0  0  0  0
   -9.7618   -1.0053    8.0720 N   0  0  0  0  0  0  0  0  0  0  0  0
    2.2129   -1.9827  -11.9166 H   0  0  0  0  0  0  0  0  0  0  0  0
   -3.5940   -1.7337  -14.2709 H   0  0  0  0  0  0  0  0  0  0  0  0
   -3.9215   -2.3564  -16.6565 H   0  0  0  0  0  0  0  0  0  0  0  0
    0.3049   -2.7293  -17.2017 H   0  0  0  0  0  0  0  0  0  0  0  0
    0.6255   -6.6647   -9.3341 H   0  0  0  0  0  0  0  0  0  0  0  0
   -0.8212   -8.0662   -7.9254 H   0  0  0  0  0  0  0  0  0  0  0  0
   -3.3132   -6.7852   -5.6435 H   0  0  0  0  0  0  0  0  0  0  0  0
   -4.0579   -7.5185   -7.1202 H   0  0  0  0  0  0  0  0  0  0  0  0
   -2.6184   -8.2882   -6.3472 H   0  0  0  0  0  0  0  0  0  0  0  0
   -3.4242   -4.6938   -7.2536 H   0  0  0  0  0  0  0  0  0  0  0  0
   -2.0067   -3.3072   -8.6871 H   0  0  0  0  0  0  0  0  0  0  0  0
    2.8596   -4.4086  -10.6179 H   0  0  0  0  0  0  0  0  0  0  0  0
    3.6974   -5.0521  -12.8443 H   0  0  0  0  0  0  0  0  0  0  0  0
    2.0647   -6.7304  -15.2668 H   0  0  0  0  0  0  0  0  0  0  0  0
    1.6325   -5.0707  -15.8403 H   0  0  0  0  0  0  0  0  0  0  0  0
    3.2873   -5.3951  -15.2024 H   0  0  0  0  0  0  0  0  0  0  0  0
   -0.3631   -5.5064  -14.2301 H   0  0  0  0  0  0  0  0  0  0  0  0
   -1.1887   -4.8497  -12.0053 H   0  0  0  0  0  0  0  0  0  0  0  0
    0.7531    3.3509   -5.1027 H   0  0  0  0  0  0  0  0  0  0  0  0
    2.5714    4.9827   -5.0385 H   0  0  0  0  0  0  0  0  0  0  0  0
    4.9578    5.4949   -5.4380 H   0  0  0  0  0  0  0  0  0  0  0  0
    5.9503    4.4188   -6.4920 H   0  0  0  0  0  0  0  0  0  0  0  0
    4.7724    5.5720   -7.2377 H   0  0  0  0  0  0  0  0  0  0  0  0
    4.9142    2.4932   -7.6622 H   0  0  0  0  0  0  0  0  0  0  0  0
    3.1025    0.8507   -7.7344 H   0  0  0  0  0  0  0  0  0  0  0  0
   -1.4223   -0.0144   -5.1884 H   0  0  0  0  0  0  0  0  0  0  0  0
   -3.7735    0.6461   -5.3372 H   0  0  0  0  0  0  0  0  0  0  0  0
   -5.4534    2.3005   -5.9749 H   0  0  0  0  0  0  0  0  0  0  0  0
   -4.9843    3.7591   -6.9179 H   0  0  0  0  0  0  0  0  0  0  0  0
   -5.2513    2.1859   -7.7688 H   0  0  0  0  0  0  0  0  0  0  0  0
   -2.7055    3.8254   -8.0523 H   0  0  0  0  0  0  0  0  0  0  0  0
   -0.3461    3.1486   -7.9092 H   0  0  0  0  0  0  0  0  0  0  0  0
    4.0100   -3.0536   -5.7295 H   0  0  0  0  0  0  0  0  0  0  0  0
    4.3193   -5.3787   -6.5200 H   0  0  0  0  0  0  0  0  0  0  0  0
    3.0097   -7.2234   -5.5289 H   0  0  0  0  0  0  0  0  0  0  0  0
    1.7700   -8.0127   -3.5082 H   0  0  0  0  0  0  0  0  0  0  0  0
    0.9058   -6.8432   -2.4640 H   0  0  0  0  0  0  0  0  0  0  0  0
   -0.8002   -6.4615   -4.2243 H   0  0  0  0  0  0  0  0  0  0  0  0
    0.1101   -7.5175   -5.3810 H   0  0  0  0  0  0  0  0  0  0  0  0
   -0.6366   -8.2250   -3.8971 H   0  0  0  0  0  0  0  0  0  0  0  0
    1.0558   -4.4175   -2.9047 H   0  0  0  0  0  0  0  0  0  0  0  0
    5.2809    0.3149    7.6182 H   0  0  0  0  0  0  0  0  0  0  0  0
    6.4703   -0.2851    9.6650 H   0  0  0  0  0  0  0  0  0  0  0  0
    6.0132    0.8941   11.7803 H   0  0  0  0  0  0  0  0  0  0  0  0
    3.1426    3.1562   12.2769 H   0  0  0  0  0  0  0  0  0  0  0  0
    4.4778    2.2741   13.0796 H   0  0  0  0  0  0  0  0  0  0  0  0
    4.8210    4.7109   13.2773 H   0  0  0  0  0  0  0  0  0  0  0  0
    6.1192    4.0066   12.2376 H   0  0  0  0  0  0  0  0  0  0  0  0
    4.7323    4.9136   11.4914 H   0  0  0  0  0  0  0  0  0  0  0  0
    3.1283    3.3804    9.7654 H   0  0  0  0  0  0  0  0  0  0  0  0
    2.7821    2.6823   -1.9864 H   0  0  0  0  0  0  0  0  0  0  0  0
    2.6620    3.3478   -0.3449 H   0  0  0  0  0  0  0  0  0  0  0  0
    0.4882    2.3786   -2.2151 H   0  0  0  0  0  0  0  0  0  0  0  0
    0.4291    3.6319   -0.9414 H   0  0  0  0  0  0  0  0  0  0  0  0
    0.2531    1.8810   -0.5028 H   0  0  0  0  0  0  0  0  0  0  0  0
    1.0100    2.6846    3.0794 H   0  0  0  0  0  0  0  0  0  0  0  0
    1.2900    2.4961    1.3830 H   0  0  0  0  0  0  0  0  0  0  0  0
    2.3499    4.8767    1.3539 H   0  0  0  0  0  0  0  0  0  0  0  0
    0.5897    4.8262    1.7836 H   0  0  0  0  0  0  0  0  0  0  0  0
    1.8425    5.0205    3.0719 H   0  0  0  0  0  0  0  0  0  0  0  0
    1.3337   -2.7063    8.7450 H   0  0  0  0  0  0  0  0  0  0  0  0
    1.8979   -4.1815   10.6099 H   0  0  0  0  0  0  0  0  0  0  0  0
    3.0883   -4.4621   12.7593 H   0  0  0  0  0  0  0  0  0  0  0  0
    1.7859   -3.6407   13.7111 H   0  0  0  0  0  0  0  0  0  0  0  0
    3.4892   -3.0290   13.7728 H   0  0  0  0  0  0  0  0  0  0  0  0
    2.7123   -0.7479   13.0843 H   0  0  0  0  0  0  0  0  0  0  0  0
    2.1593    0.7322   11.2126 H   0  0  0  0  0  0  0  0  0  0  0  0
   -0.3200    0.3002    6.6604 H   0  0  0  0  0  0  0  0  0  0  0  0
    0.0249   -0.2787    4.3171 H   0  0  0  0  0  0  0  0  0  0  0  0
    2.7188   -2.4205    3.0584 H   0  0  0  0  0  0  0  0  0  0  0  0
    1.2609   -1.4542    2.6114 H   0  0  0  0  0  0  0  0  0  0  0  0
    2.8582   -0.6435    2.7732 H   0  0  0  0  0  0  0  0  0  0  0  0
    3.9003   -1.9080    5.2778 H   0  0  0  0  0  0  0  0  0  0  0  0
    3.5525   -1.3349    7.6417 H   0  0  0  0  0  0  0  0  0  0  0  0
   -2.8482    4.5366    9.9515 H   0  0  0  0  0  0  0  0  0  0  0  0
   -4.2138    6.3729   10.8025 H   0  0  0  0  0  0  0  0  0  0  0  0
   -6.1629    7.8837   10.4380 H   0  0  0  0  0  0  0  0  0  0  0  0
   -7.5424    7.3568    9.4113 H   0  0  0  0  0  0  0  0  0  0  0  0
   -7.2868    6.5990   11.0315 H   0  0  0  0  0  0  0  0  0  0  0  0
   -7.4300    5.2074    8.1806 H   0  0  0  0  0  0  0  0  0  0  0  0
   -6.0684    3.3381    7.3416 H   0  0  0  0  0  0  0  0  0  0  0  0
   -3.3287    4.2917    6.0418 H   0  0  0  0  0  0  0  0  0  0  0  0
   -3.0129    3.6478    3.6930 H   0  0  0  0  0  0  0  0  0  0  0  0
   -2.3079    1.8649    2.1083 H   0  0  0  0  0  0  0  0  0  0  0  0
   -2.4768    0.1302    2.5565 H   0  0  0  0  0  0  0  0  0  0  0  0
   -3.9500    1.0985    2.1433 H   0  0  0  0  0  0  0  0  0  0  0  0
   -3.3342   -0.5122    4.7942 H   0  0  0  0  0  0  0  0  0  0  0  0
   -3.6406    0.1253    7.1172 H   0  0  0  0  0  0  0  0  0  0  0  0
   -4.3055   -0.9396    9.2997 H   0  0  0  0  0  0  0  0  0  0  0  0
   -6.7571    4.1802   11.9843 H   0  0  0  0  0  0  0  0  0  0  0  0
   -9.2010    4.6686   11.7863 H   0  0  0  0  0  0  0  0  0  0  0  0
   -9.7755    1.0448    9.5716 H   0  0  0  0  0  0  0  0  0  0  0  0
  1  2  2  3
  2  3  1  0
  3  4  2  0
  3  5  1  0
  5  6  2  0
  6  7  1  0
  7  8  2  0
  8  9  1  0
  8 10  1  0
 10 11  2  0
 11 12  1  0
 12 13  2  3
 13 14  1  0
 14 15  3  0
 13 16  1  0
 16 17  3  0
  1 18  1  0
 18 19  2  0
 19 20  1  0
 20 21  1  0
 21 22  2  0
 22 23  1  0
 23 24  2  0
 24 25  1  0
 24 26  1  0
 26 27  2  0
 20 28  1  0
 28 29  2  0
 29 30  1  0
 30 31  2  0
 31 32  1  0
 31 33  1  0
 33 34  2  0
 19 35  1  0
 35 36  1  0
 36 37  1  0
 37 38  2  0
 38 39  1  0
 39 40  1  0
 40 41  2  0
 41 42  1  0
 42 43  2  0
 43 44  1  0
 43 45  1  0
 45 46  2  0
 39 47  1  0
 47 48  2  0
 48 49  1  0
 49 50  2  0
 50 51  1  0
 50 52  1  0
 52 53  2  0
 38 54  1  0
 54 55  1  0
 37 56  1  0
 56 57  2  0
 57 58  1  0
 58 59  2  0
 59 60  1  0
 60 61  2  0
 61 62  1  0
 62 63  1  0
 63 64  1  0
 62 65  2  0
 57 66  1  0
 66 67  1  0
 67 68  1  0
 68 69  1  0
 69 70  1  0
 70 71  1  0
 71 72  2  0
 72 73  1  0
 73 74  1  0
 71 75  1  0
 75 76  1  0
 76 77  1  0
 77 78  1  0
 78 79  1  0
 79 80  1  0
 80 81  2  0
 81 82  1  0
 82 83  2  0
 83 84  1  0
 84 85  1  0
 85 86  1  0
 84 87  2  0
 79 88  2  0
 88 89  1  0
 89 90  1  0
 90 91  1  0
 91 92  1  0
 92 93  1  0
 93 94  1  0
 94 95  1  0
 95 96  1  0
 96 97  1  0
 97 98  1  0
 95 99  1  0
 99100  1  0
 92101  1  0
101102  1  0
 88103  1  0
103104  2  0
104105  1  0
105106  1  0
106107  2  0
107108  1  0
108109  2  0
109110  1  0
109111  1  0
111112  2  0
105113  1  0
113114  2  0
114115  1  0
115116  2  0
116117  1  0
116118  1  0
118119  2  0
104120  1  0
120121  1  0
121122  1  0
122123  2  0
123124  1  0
124125  1  0
125126  2  0
126127  1  0
127128  2  0
128129  1  0
128130  1  0
130131  2  0
124132  1  0
132133  2  0
133134  1  0
134135  2  0
135136  1  0
135137  1  0
137138  2  0
123139  1  0
139140  1  0
122141  1  0
141142  2  3
142143  1  0
143144  2  0
143145  1  0
145146  2  0
146147  1  0
147148  2  0
148149  1  0
148150  1  0
150151  2  0
151152  1  0
152153  2  3
153154  1  0
154155  3  0
153156  1  0
156157  3  0
 12  2  1  0
 55 18  1  0
 98 56  1  0
140103  1  0
152142  1  0
 11  5  1  0
 27 21  1  0
 34 28  1  0
 54 35  2  0
 65 58  1  0
 97 66  2  0
112106  1  0
119113  1  0
139120  2  0
151145  1  0
 46 40  1  0
 53 47  1  0
 96 68  2  0
131125  1  0
138132  1  0
 94 69  2  0
 74 70  2  0
 93 75  2  0
 91 76  2  0
 90 78  2  0
 87 80  1  0
  1158  1  0
  6159  1  0
  7160  1  0
 10161  1  0
 22162  1  0
 23163  1  0
 25164  1  0
 25165  1  0
 25166  1  0
 26167  1  0
 27168  1  0
 29169  1  0
 30170  1  0
 32171  1  0
 32172  1  0
 32173  1  0
 33174  1  0
 34175  1  0
 41176  1  0
 42177  1  0
 44178  1  0
 44179  1  0
 44180  1  0
 45181  1  0
 46182  1  0
 48183  1  0
 49184  1  0
 51185  1  0
 51186  1  0
 51187  1  0
 52188  1  0
 53189  1  0
 59190  1  0
 60191  1  0
 61192  1  0
 63193  1  0
 63194  1  0
 64195  1  0
 64196  1  0
 64197  1  0
 65198  1  0
 81199  1  0
 82200  1  0
 83201  1  0
 85202  1  0
 85203  1  0
 86204  1  0
 86205  1  0
 86206  1  0
 87207  1  0
 99208  1  0
 99209  1  0
100210  1  0
100211  1  0
100212  1  0
101213  1  0
101214  1  0
102215  1  0
102216  1  0
102217  1  0
107218  1  0
108219  1  0
110220  1  0
110221  1  0
110222  1  0
111223  1  0
112224  1  0
114225  1  0
115226  1  0
117227  1  0
117228  1  0
117229  1  0
118230  1  0
119231  1  0
126232  1  0
127233  1  0
129234  1  0
129235  1  0
129236  1  0
130237  1  0
131238  1  0
133239  1  0
134240  1  0
136241  1  0
136242  1  0
136243  1  0
137244  1  0
138245  1  0
141246  1  0
146247  1  0
147248  1  0
150249  1  0
M  END

