
     RDKit          3D

249274  0  0  0  0  0  0  0  0999 V2000
   -6.3268   -3.4473    2.5343 C   0  0  0  0  0  0  0  0  0  0  0  0
   -6.1864   -4.6357    3.1486 C   0  0  0  0  0  0  0  0  0  0  0  0
   -4.9722   -5.1038    3.8427 C   0  0  0  0  0  0  0  0  0  0  0  0
   -3.9274   -4.4406    4.0616 O   0  0  0  0  0  0  0  0  0  0  0  0
   -5.1037   -6.5228    4.0744 C   0  0  0  0  0  0  0  0  0  0  0  0
   -4.1977   -7.3632    4.7165 C   0  0  0  0  0  0  0  0  0  0  0  0
   -4.5194   -8.7218    4.8316 C   0  0  0  0  0  0  0  0  0  0  0  0
   -5.7332   -9.2105    4.3035 C   0  0  0  0  0  0  0  0  0  0  0  0
   -6.1747  -11.0574    4.4679 Br  0  0  0  0  0  0  0  0  0  0  0  0
   -6.6368   -8.3424    3.6692 C   0  0  0  0  0  0  0  0  0  0  0  0
   -6.3054   -6.9811    3.5525 C   0  0  0  0  0  0  0  0  0  0  0  0
   -7.0642   -5.8351    2.9706 C   0  0  0  0  0  0  0  0  0  0  0  0
   -8.3460   -5.8440    2.5162 C   0  0  0  0  0  0  0  0  0  0  0  0
   -9.1061   -4.6356    2.3237 C   0  0  0  0  0  0  0  0  0  0  0  0
   -9.7274   -3.6707    2.1708 N   0  0  0  0  0  0  0  0  0  0  0  0
   -9.0716   -7.0529    2.2493 C   0  0  0  0  0  0  0  0  0  0  0  0
   -9.6643   -8.0192    2.0085 N   0  0  0  0  0  0  0  0  0  0  0  0
   -5.5240   -2.2435    2.8111 C   0  0  0  0  0  0  0  0  0  0  0  0
   -5.2538   -1.2480    1.8590 C   0  0  0  0  0  0  0  0  0  0  0  0
   -5.2176   -1.5065    0.4398 N   0  0  0  0  0  0  0  0  0  0  0  0
   -4.4437   -2.6197   -0.0875 C   0  0  0  0  0  0  0  0  0  0  0  0
   -3.4126   -3.2090    0.6768 C   0  0  0  0  0  0  0  0  0  0  0  0
   -2.7673   -4.3652    0.2319 C   0  0  0  0  0  0  0  0  0  0  0  0
   -3.0984   -4.9356   -1.0002 C   0  0  0  0  0  0  0  0  0  0  0  0
   -2.4265   -6.1963   -1.4657 C   0  0  0  0  0  0  0  0  0  0  0  0
   -4.0465   -4.3074   -1.8123 C   0  0  0  0  0  0  0  0  0  0  0  0
   -4.7156   -3.1642   -1.3623 C   0  0  0  0  0  0  0  0  0  0  0  0
   -6.1718   -0.8237   -0.3852 C   0  0  0  0  0  0  0  0  0  0  0  0
   -5.8362    0.4008   -0.9869 C   0  0  0  0  0  0  0  0  0  0  0  0
   -6.7621    1.0562   -1.8023 C   0  0  0  0  0  0  0  0  0  0  0  0
   -8.0189    0.4819   -2.0502 C   0  0  0  0  0  0  0  0  0  0  0  0
   -8.9913    1.1654   -2.9625 C   0  0  0  0  0  0  0  0  0  0  0  0
   -8.3387   -0.7596   -1.4744 C   0  0  0  0  0  0  0  0  0  0  0  0
   -7.4219   -1.4027   -0.6394 C   0  0  0  0  0  0  0  0  0  0  0  0
   -4.6738   -0.1293    2.4578 C   0  0  0  0  0  0  0  0  0  0  0  0
   -4.0291    1.2964    1.8910 S   0  0  0  0  0  0  0  0  0  0  0  0
   -3.3645    1.7959    3.3857 C   0  0  0  0  0  0  0  0  0  0  0  0
   -3.5973    0.7647    4.3378 C   0  0  0  0  0  0  0  0  0  0  0  0
   -2.8579    0.5456    5.5615 N   0  0  0  0  0  0  0  0  0  0  0  0
   -3.6085    0.0456    6.6916 C   0  0  0  0  0  0  0  0  0  0  0  0
   -3.2362   -1.1541    7.3312 C   0  0  0  0  0  0  0  0  0  0  0  0
   -3.9659   -1.6292    8.4218 C   0  0  0  0  0  0  0  0  0  0  0  0
   -5.1053   -0.9449    8.8700 C   0  0  0  0  0  0  0  0  0  0  0  0
   -5.8383   -1.4197   10.0880 C   0  0  0  0  0  0  0  0  0  0  0  0
   -5.4976    0.2330    8.2168 C   0  0  0  0  0  0  0  0  0  0  0  0
   -4.7634    0.7138    7.1277 C   0  0  0  0  0  0  0  0  0  0  0  0
   -1.4001    0.4755    5.5650 C   0  0  0  0  0  0  0  0  0  0  0  0
   -0.6641    0.4081    4.3642 C   0  0  0  0  0  0  0  0  0  0  0  0
    0.7349    0.3920    4.3832 C   0  0  0  0  0  0  0  0  0  0  0  0
    1.4327    0.3732    5.5935 C   0  0  0  0  0  0  0  0  0  0  0  0
    2.9306    0.3487    5.6026 C   0  0  0  0  0  0  0  0  0  0  0  0
    0.7175    0.4304    6.7958 C   0  0  0  0  0  0  0  0  0  0  0  0
   -0.6771    0.4811    6.7822 C   0  0  0  0  0  0  0  0  0  0  0  0
   -4.4127   -0.2405    3.7887 C   0  0  0  0  0  0  0  0  0  0  0  0
   -4.9777   -1.7221    4.3438 S   0  0  0  0  0  0  0  0  0  0  0  0
   -2.5126    3.0059    3.4584 C   0  0  0  0  0  0  0  0  0  0  0  0
   -1.9050    3.6478    4.5704 C   0  0  0  0  0  0  0  0  0  0  0  0
   -2.4298    3.6616    5.9552 C   0  0  0  0  0  0  0  0  0  0  0  0
   -1.5466    3.4095    7.0129 C   0  0  0  0  0  0  0  0  0  0  0  0
   -1.9865    3.4287    8.3378 C   0  0  0  0  0  0  0  0  0  0  0  0
   -3.3129    3.7496    8.6242 C   0  0  0  0  0  0  0  0  0  0  0  0
   -4.1823    4.1026    7.5905 C   0  0  0  0  0  0  0  0  0  0  0  0
   -3.7565    4.0904    6.2502 C   0  0  0  0  0  0  0  0  0  0  0  0
   -4.6773    4.6997    5.2125 C   0  0  0  0  0  0  0  0  0  0  0  0
   -5.8796    3.8099    4.9062 C   0  0  0  0  0  0  0  0  0  0  0  0
   -0.9426    4.5794    4.1351 C   0  0  0  0  0  0  0  0  0  0  0  0
    0.5010    5.1540    4.8507 S   0  0  0  0  0  0  0  0  0  0  0  0
    1.0688    5.7629    3.3650 C   0  0  0  0  0  0  0  0  0  0  0  0
    2.3015    5.9668    2.7839 C   0  0  0  0  0  0  0  0  0  0  0  0
    3.5848    5.7554    3.3066 C   0  0  0  0  0  0  0  0  0  0  0  0
    4.6772    5.5837    2.3963 C   0  0  0  0  0  0  0  0  0  0  0  0
    5.8815    5.2589    2.9293 N   0  0  0  0  0  0  0  0  0  0  0  0
    5.4673    5.2166    4.5321 S   0  0  0  0  0  0  0  0  0  0  0  0
    3.8501    5.5705    4.6246 N   0  0  0  0  0  0  0  0  0  0  0  0
    4.4480    5.7200    1.0212 C   0  0  0  0  0  0  0  0  0  0  0  0
    5.2180    5.4234   -0.0819 C   0  0  0  0  0  0  0  0  0  0  0  0
    6.4659    4.3017   -0.3715 S   0  0  0  0  0  0  0  0  0  0  0  0
    5.9058    3.9834   -1.9523 C   0  0  0  0  0  0  0  0  0  0  0  0
    6.0696    2.8230   -2.7149 C   0  0  0  0  0  0  0  0  0  0  0  0
    7.4472    2.3658   -2.9987 C   0  0  0  0  0  0  0  0  0  0  0  0
    8.1010    2.6962   -4.2182 C   0  0  0  0  0  0  0  0  0  0  0  0
    7.4345    3.5169   -5.3058 C   0  0  0  0  0  0  0  0  0  0  0  0
    6.8657    2.6429   -6.4163 C   0  0  0  0  0  0  0  0  0  0  0  0
    9.4602    2.3717   -4.3843 C   0  0  0  0  0  0  0  0  0  0  0  0
   10.1893    1.8179   -3.3318 C   0  0  0  0  0  0  0  0  0  0  0  0
    9.5734    1.5693   -2.1112 C   0  0  0  0  0  0  0  0  0  0  0  0
    8.2135    1.8413   -1.9420 C   0  0  0  0  0  0  0  0  0  0  0  0
    4.8984    2.5198   -3.4651 C   0  0  0  0  0  0  0  0  0  0  0  0
    3.7998    3.8013   -3.2289 S   0  0  0  0  0  0  0  0  0  0  0  0
    4.7552    4.6803   -2.1918 C   0  0  0  0  0  0  0  0  0  0  0  0
    4.3950    5.5350   -1.1668 C   0  0  0  0  0  0  0  0  0  0  0  0
    3.1557    5.9534   -0.8498 N   0  0  0  0  0  0  0  0  0  0  0  0
    3.1727    5.9870    0.5141 C   0  0  0  0  0  0  0  0  0  0  0  0
    2.0665    5.9683    1.3961 C   0  0  0  0  0  0  0  0  0  0  0  0
    0.7693    5.6216    1.1339 N   0  0  0  0  0  0  0  0  0  0  0  0
    0.2022    5.5082    2.3523 C   0  0  0  0  0  0  0  0  0  0  0  0
   -0.9080    4.7975    2.7826 C   0  0  0  0  0  0  0  0  0  0  0  0
   -1.9452    3.7398    2.0391 S   0  0  0  0  0  0  0  0  0  0  0  0
    0.1142    5.2375   -0.1313 C   0  0  0  0  0  0  0  0  0  0  0  0
   -0.9718    6.2569   -0.5011 C   0  0  0  0  0  0  0  0  0  0  0  0
    2.4225    6.9010   -1.6978 C   0  0  0  0  0  0  0  0  0  0  0  0
    3.3220    8.0322   -2.1922 C   0  0  0  0  0  0  0  0  0  0  0  0
    4.3844    1.1807   -3.8991 C   0  0  0  0  0  0  0  0  0  0  0  0
    4.9536   -0.1060   -3.7138 C   0  0  0  0  0  0  0  0  0  0  0  0
    6.2633   -0.4047   -3.2161 N   0  0  0  0  0  0  0  0  0  0  0  0
    7.3163   -0.7115   -4.1788 C   0  0  0  0  0  0  0  0  0  0  0  0
    8.6334   -1.0044   -3.7648 C   0  0  0  0  0  0  0  0  0  0  0  0
    9.6473   -1.2458   -4.6993 C   0  0  0  0  0  0  0  0  0  0  0  0
    9.3726   -1.1991   -6.0730 C   0  0  0  0  0  0  0  0  0  0  0  0
   10.4724   -1.3772   -7.0789 C   0  0  0  0  0  0  0  0  0  0  0  0
    8.0748   -0.9048   -6.5001 C   0  0  0  0  0  0  0  0  0  0  0  0
    7.0599   -0.6773   -5.5683 C   0  0  0  0  0  0  0  0  0  0  0  0
    6.3066   -0.7917   -1.8235 C   0  0  0  0  0  0  0  0  0  0  0  0
    5.6276   -0.0183   -0.8546 C   0  0  0  0  0  0  0  0  0  0  0  0
    5.5697   -0.4191    0.4784 C   0  0  0  0  0  0  0  0  0  0  0  0
    6.1702   -1.6203    0.8792 C   0  0  0  0  0  0  0  0  0  0  0  0
    6.0642   -2.0689    2.3043 C   0  0  0  0  0  0  0  0  0  0  0  0
    6.7929   -2.4301   -0.0810 C   0  0  0  0  0  0  0  0  0  0  0  0
    6.8519   -2.0259   -1.4209 C   0  0  0  0  0  0  0  0  0  0  0  0
    4.0154   -1.1229   -3.8765 C   0  0  0  0  0  0  0  0  0  0  0  0
    4.0644   -2.7546   -3.5036 S   0  0  0  0  0  0  0  0  0  0  0  0
    2.3896   -2.9799   -3.6871 C   0  0  0  0  0  0  0  0  0  0  0  0
    1.7838   -1.7633   -4.0578 C   0  0  0  0  0  0  0  0  0  0  0  0
    0.3603   -1.5863   -4.2134 N   0  0  0  0  0  0  0  0  0  0  0  0
   -0.3108   -0.4721   -3.5947 C   0  0  0  0  0  0  0  0  0  0  0  0
   -1.1732    0.3401   -4.3498 C   0  0  0  0  0  0  0  0  0  0  0  0
   -1.9182    1.3469   -3.7330 C   0  0  0  0  0  0  0  0  0  0  0  0
   -1.8267    1.5473   -2.3509 C   0  0  0  0  0  0  0  0  0  0  0  0
   -2.6446    2.6175   -1.6960 C   0  0  0  0  0  0  0  0  0  0  0  0
   -0.9352    0.7633   -1.5963 C   0  0  0  0  0  0  0  0  0  0  0  0
   -0.1836   -0.2402   -2.2166 C   0  0  0  0  0  0  0  0  0  0  0  0
   -0.4018   -2.5137   -5.0191 C   0  0  0  0  0  0  0  0  0  0  0  0
    0.1499   -3.0609   -6.1907 C   0  0  0  0  0  0  0  0  0  0  0  0
   -0.6181   -3.8851   -7.0166 C   0  0  0  0  0  0  0  0  0  0  0  0
   -1.9499   -4.1860   -6.6818 C   0  0  0  0  0  0  0  0  0  0  0  0
   -2.8043   -4.9754   -7.6257 C   0  0  0  0  0  0  0  0  0  0  0  0
   -2.4946   -3.6635   -5.5042 C   0  0  0  0  0  0  0  0  0  0  0  0
   -1.7283   -2.8422   -4.6715 C   0  0  0  0  0  0  0  0  0  0  0  0
    2.7445   -0.7430   -4.1484 C   0  0  0  0  0  0  0  0  0  0  0  0
    2.7169    0.9316   -4.2606 S   0  0  0  0  0  0  0  0  0  0  0  0
    1.6934   -4.1647   -3.1624 C   0  0  0  0  0  0  0  0  0  0  0  0
    1.6829   -4.4650   -1.8476 C   0  0  0  0  0  0  0  0  0  0  0  0
    1.9819   -3.5239   -0.7603 C   0  0  0  0  0  0  0  0  0  0  0  0
    2.4942   -2.3762   -0.8847 O   0  0  0  0  0  0  0  0  0  0  0  0
    1.5235   -4.0961    0.4903 C   0  0  0  0  0  0  0  0  0  0  0  0
    1.0186   -5.3630    0.2487 C   0  0  0  0  0  0  0  0  0  0  0  0
    0.4230   -6.0847    1.2991 C   0  0  0  0  0  0  0  0  0  0  0  0
    0.3563   -5.5047    2.5719 C   0  0  0  0  0  0  0  0  0  0  0  0
    0.8762   -4.2214    2.8115 C   0  0  0  0  0  0  0  0  0  0  0  0
    0.6761   -3.4631    4.5537 Br  0  0  0  0  0  0  0  0  0  0  0  0
    1.4739   -3.4995    1.7597 C   0  0  0  0  0  0  0  0  0  0  0  0
    2.1159   -1.8795    2.0191 Cl  0  0  0  0  0  0  0  0  0  0  0  0
    1.1673   -5.7075   -1.1965 C   0  0  0  0  0  0  0  0  0  0  0  0
    1.1323   -6.9442   -1.7499 C   0  0  0  0  0  0  0  0  0  0  0  0
    1.5989   -7.1929   -3.0889 C   0  0  0  0  0  0  0  0  0  0  0  0
    1.9918   -7.3935   -4.1563 N   0  0  0  0  0  0  0  0  0  0  0  0
    0.7807   -8.1253   -0.9971 C   0  0  0  0  0  0  0  0  0  0  0  0
    0.5011   -9.0741   -0.3950 N   0  0  0  0  0  0  0  0  0  0  0  0
   -7.0733   -3.3291    1.7625 H   0  0  0  0  0  0  0  0  0  0  0  0
   -3.2645   -6.9830    5.1047 H   0  0  0  0  0  0  0  0  0  0  0  0
   -3.8293   -9.3965    5.3255 H   0  0  0  0  0  0  0  0  0  0  0  0
   -7.5570   -8.7532    3.2950 H   0  0  0  0  0  0  0  0  0  0  0  0
   -3.1108   -2.7935    1.6255 H   0  0  0  0  0  0  0  0  0  0  0  0
   -2.0158   -4.8206    0.8639 H   0  0  0  0  0  0  0  0  0  0  0  0
   -3.1668   -6.8850   -1.9271 H   0  0  0  0  0  0  0  0  0  0  0  0
   -1.6491   -5.9450   -2.2143 H   0  0  0  0  0  0  0  0  0  0  0  0
   -1.9513   -6.7382   -0.6174 H   0  0  0  0  0  0  0  0  0  0  0  0
   -4.2952   -4.7155   -2.7792 H   0  0  0  0  0  0  0  0  0  0  0  0
   -5.4569   -2.7229   -2.0164 H   0  0  0  0  0  0  0  0  0  0  0  0
   -4.8624    0.8437   -0.8169 H   0  0  0  0  0  0  0  0  0  0  0  0
   -6.4919    1.9987   -2.2584 H   0  0  0  0  0  0  0  0  0  0  0  0
  -10.0172    0.7568   -2.8321 H   0  0  0  0  0  0  0  0  0  0  0  0
   -9.0242    2.2510   -2.7395 H   0  0  0  0  0  0  0  0  0  0  0  0
   -8.6775    1.0153   -4.0170 H   0  0  0  0  0  0  0  0  0  0  0  0
   -9.2861   -1.2423   -1.6893 H   0  0  0  0  0  0  0  0  0  0  0  0
   -7.6808   -2.3622   -0.2122 H   0  0  0  0  0  0  0  0  0  0  0  0
   -2.3801   -1.7179    6.9845 H   0  0  0  0  0  0  0  0  0  0  0  0
   -3.6461   -2.5378    8.9178 H   0  0  0  0  0  0  0  0  0  0  0  0
   -5.3649   -0.9870   10.9924 H   0  0  0  0  0  0  0  0  0  0  0  0
   -6.9035   -1.1095   10.0524 H   0  0  0  0  0  0  0  0  0  0  0  0
   -5.8024   -2.5278   10.1595 H   0  0  0  0  0  0  0  0  0  0  0  0
   -6.3724    0.7767    8.5482 H   0  0  0  0  0  0  0  0  0  0  0  0
   -5.0932    1.6145    6.6298 H   0  0  0  0  0  0  0  0  0  0  0  0
   -1.1571    0.3516    3.4035 H   0  0  0  0  0  0  0  0  0  0  0  0
    1.2705    0.3895    3.4460 H   0  0  0  0  0  0  0  0  0  0  0  0
    3.3216    1.3799    5.4739 H   0  0  0  0  0  0  0  0  0  0  0  0
    3.3100   -0.2934    4.7788 H   0  0  0  0  0  0  0  0  0  0  0  0
    3.3134   -0.0632    6.5592 H   0  0  0  0  0  0  0  0  0  0  0  0
    1.2359    0.4419    7.7439 H   0  0  0  0  0  0  0  0  0  0  0  0
   -1.1922    0.5559    7.7298 H   0  0  0  0  0  0  0  0  0  0  0  0
   -0.5060    3.1784    6.8175 H   0  0  0  0  0  0  0  0  0  0  0  0
   -1.3054    3.1987    9.1395 H   0  0  0  0  0  0  0  0  0  0  0  0
   -3.6609    3.7654    9.6467 H   0  0  0  0  0  0  0  0  0  0  0  0
   -5.1930    4.4134    7.8368 H   0  0  0  0  0  0  0  0  0  0  0  0
   -5.0504    5.6686    5.6014 H   0  0  0  0  0  0  0  0  0  0  0  0
   -4.1486    4.9399    4.2722 H   0  0  0  0  0  0  0  0  0  0  0  0
   -6.5561    4.3382    4.2001 H   0  0  0  0  0  0  0  0  0  0  0  0
   -6.4519    3.5861    5.8340 H   0  0  0  0  0  0  0  0  0  0  0  0
   -5.5627    2.8595    4.4384 H   0  0  0  0  0  0  0  0  0  0  0  0
    6.6373    4.1724   -4.8960 H   0  0  0  0  0  0  0  0  0  0  0  0
    8.1837    4.2097   -5.7497 H   0  0  0  0  0  0  0  0  0  0  0  0
    5.9519    2.1280   -6.0671 H   0  0  0  0  0  0  0  0  0  0  0  0
    6.5959    3.2838   -7.2858 H   0  0  0  0  0  0  0  0  0  0  0  0
    7.6185    1.9003   -6.7463 H   0  0  0  0  0  0  0  0  0  0  0  0
    9.9641    2.5850   -5.3154 H   0  0  0  0  0  0  0  0  0  0  0  0
   11.2340    1.5811   -3.4666 H   0  0  0  0  0  0  0  0  0  0  0  0
   10.1481    1.1670   -1.2888 H   0  0  0  0  0  0  0  0  0  0  0  0
    7.7688    1.6704   -0.9700 H   0  0  0  0  0  0  0  0  0  0  0  0
    0.8300    5.1005   -0.9549 H   0  0  0  0  0  0  0  0  0  0  0  0
   -0.3572    4.2342   -0.0340 H   0  0  0  0  0  0  0  0  0  0  0  0
   -1.3288    6.0736   -1.5426 H   0  0  0  0  0  0  0  0  0  0  0  0
   -0.5610    7.2887   -0.4357 H   0  0  0  0  0  0  0  0  0  0  0  0
   -1.8284    6.1575    0.1952 H   0  0  0  0  0  0  0  0  0  0  0  0
    1.5948    7.3670   -1.1305 H   0  0  0  0  0  0  0  0  0  0  0  0
    1.9981    6.3677   -2.5714 H   0  0  0  0  0  0  0  0  0  0  0  0
    2.7015    8.8274   -2.6697 H   0  0  0  0  0  0  0  0  0  0  0  0
    4.0358    7.6256   -2.9545 H   0  0  0  0  0  0  0  0  0  0  0  0
    3.8997    8.4770   -1.3471 H   0  0  0  0  0  0  0  0  0  0  0  0
    8.9034   -1.0155   -2.7225 H   0  0  0  0  0  0  0  0  0  0  0  0
   10.6533   -1.4509   -4.3533 H   0  0  0  0  0  0  0  0  0  0  0  0
   10.9330   -0.3919   -7.3041 H   0  0  0  0  0  0  0  0  0  0  0  0
   10.0732   -1.8076   -8.0259 H   0  0  0  0  0  0  0  0  0  0  0  0
   11.2561   -2.0670   -6.6959 H   0  0  0  0  0  0  0  0  0  0  0  0
    7.8529   -0.8291   -7.5561 H   0  0  0  0  0  0  0  0  0  0  0  0
    6.0799   -0.4497   -5.9534 H   0  0  0  0  0  0  0  0  0  0  0  0
    5.1240    0.8950   -1.1303 H   0  0  0  0  0  0  0  0  0  0  0  0
    5.0419    0.1987    1.1945 H   0  0  0  0  0  0  0  0  0  0  0  0
    6.9404   -2.6925    2.5850 H   0  0  0  0  0  0  0  0  0  0  0  0
    5.1365   -2.6659    2.4353 H   0  0  0  0  0  0  0  0  0  0  0  0
    6.0318   -1.1952    2.9909 H   0  0  0  0  0  0  0  0  0  0  0  0
    7.2196   -3.3846    0.2035 H   0  0  0  0  0  0  0  0  0  0  0  0
    7.2896   -2.6996   -2.1465 H   0  0  0  0  0  0  0  0  0  0  0  0
   -1.2779    0.1773   -5.4138 H   0  0  0  0  0  0  0  0  0  0  0  0
   -2.5862    1.9522   -4.3339 H   0  0  0  0  0  0  0  0  0  0  0  0
   -2.7875    2.4017   -0.6174 H   0  0  0  0  0  0  0  0  0  0  0  0
   -3.6459    2.6846   -2.1760 H   0  0  0  0  0  0  0  0  0  0  0  0
   -2.1237    3.5918   -1.8049 H   0  0  0  0  0  0  0  0  0  0  0  0
   -0.8395    0.9160   -0.5272 H   0  0  0  0  0  0  0  0  0  0  0  0
    0.4687   -0.8597   -1.6195 H   0  0  0  0  0  0  0  0  0  0  0  0
    1.1661   -2.8270   -6.4865 H   0  0  0  0  0  0  0  0  0  0  0  0
   -0.1861   -4.2756   -7.9267 H   0  0  0  0  0  0  0  0  0  0  0  0
   -3.2662   -4.2907   -8.3676 H   0  0  0  0  0  0  0  0  0  0  0  0
   -2.1961   -5.7317   -8.1667 H   0  0  0  0  0  0  0  0  0  0  0  0
   -3.6097   -5.5110   -7.0776 H   0  0  0  0  0  0  0  0  0  0  0  0
   -3.5178   -3.8783   -5.2288 H   0  0  0  0  0  0  0  0  0  0  0  0
   -2.1656   -2.4563   -3.7619 H   0  0  0  0  0  0  0  0  0  0  0  0
    1.2200   -4.8109   -3.8830 H   0  0  0  0  0  0  0  0  0  0  0  0
   -0.0398   -7.0461    1.1496 H   0  0  0  0  0  0  0  0  0  0  0  0
   -0.1210   -6.0475    3.3798 H   0  0  0  0  0  0  0  0  0  0  0  0
  1  2  2  3
  2  3  1  0
  3  4  2  0
  3  5  1  0
  5  6  2  0
  6  7  1  0
  7  8  2  0
  8  9  1  0
  8 10  1  0
 10 11  2  0
 11 12  1  0
 12 13  2  3
 13 14  1  0
 14 15  3  0
 13 16  1  0
 16 17  3  0
  1 18  1  0
 18 19  2  0
 19 20  1  0
 20 21  1  0
 21 22  2  0
 22 23  1  0
 23 24  2  0
 24 25  1  0
 24 26  1  0
 26 27  2  0
 20 28  1  0
 28 29  2  0
 29 30  1  0
 30 31  2  0
 31 32  1  0
 31 33  1  0
 33 34  2  0
 19 35  1  0
 35 36  1  0
 36 37  1  0
 37 38  2  0
 38 39  1  0
 39 40  1  0
 40 41  2  0
 41 42  1  0
 42 43  2  0
 43 44  1  0
 43 45  1  0
 45 46  2  0
 39 47  1  0
 47 48  2  0
 48 49  1  0
 49 50  2  0
 50 51  1  0
 50 52  1  0
 52 53  2  0
 38 54  1  0
 54 55  1  0
 37 56  1  0
 56 57  2  0
 57 58  1  0
 58 59  2  0
 59 60  1  0
 60 61  2  0
 61 62  1  0
 62 63  2  0
 63 64  1  0
 64 65  1  0
 57 66  1  0
 66 67  1  0
 67 68  1  0
 68 69  1  0
 69 70  1  0
 70 71  1  0
 71 72  2  0
 72 73  1  0
 73 74  1  0
 71 75  1  0
 75 76  1  0
 76 77  1  0
 77 78  1  0
 78 79  1  0
 79 80  1  0
 80 81  2  0
 81 82  1  0
 82 83  1  0
 81 84  1  0
 84 85  2  0
 85 86  1  0
 86 87  2  0
 79 88  2  0
 88 89  1  0
 89 90  1  0
 90 91  1  0
 91 92  1  0
 92 93  1  0
 93 94  1  0
 94 95  1  0
 95 96  1  0
 96 97  1  0
 97 98  1  0
 95 99  1  0
 99100  1  0
 92101  1  0
101102  1  0
 88103  1  0
103104  2  0
104105  1  0
105106  1  0
106107  2  0
107108  1  0
108109  2  0
109110  1  0
109111  1  0
111112  2  0
105113  1  0
113114  2  0
114115  1  0
115116  2  0
116117  1  0
116118  1  0
118119  2  0
104120  1  0
120121  1  0
121122  1  0
122123  2  0
123124  1  0
124125  1  0
125126  2  0
126127  1  0
127128  2  0
128129  1  0
128130  1  0
130131  2  0
124132  1  0
132133  2  0
133134  1  0
134135  2  0
135136  1  0
135137  1  0
137138  2  0
123139  1  0
139140  1  0
122141  1  0
141142  2  3
142143  1  0
143144  2  0
143145  1  0
145146  2  0
146147  1  0
147148  2  0
148149  1  0
149150  1  0
149151  2  0
151152  1  0
146153  1  0
153154  2  3
154155  1  0
155156  3  0
154157  1  0
157158  3  0
 12  2  1  0
 55 18  1  0
 98 56  1  0
140103  1  0
153142  1  0
 11  5  1  0
 27 21  1  0
 34 28  1  0
 54 35  2  0
 63 58  1  0
 97 66  2  0
112106  1  0
119113  1  0
139120  2  0
151145  1  0
 46 40  1  0
 53 47  1  0
 96 68  2  0
131125  1  0
138132  1  0
 94 69  2  0
 74 70  2  0
 93 75  2  0
 91 76  2  0
 90 78  2  0
 87 80  1  0
  1159  1  0
  6160  1  0
  7161  1  0
 10162  1  0
 22163  1  0
 23164  1  0
 25165  1  0
 25166  1  0
 25167  1  0
 26168  1  0
 27169  1  0
 29170  1  0
 30171  1  0
 32172  1  0
 32173  1  0
 32174  1  0
 33175  1  0
 34176  1  0
 41177  1  0
 42178  1  0
 44179  1  0
 44180  1  0
 44181  1  0
 45182  1  0
 46183  1  0
 48184  1  0
 49185  1  0
 51186  1  0
 51187  1  0
 51188  1  0
 52189  1  0
 53190  1  0
 59191  1  0
 60192  1  0
 61193  1  0
 62194  1  0
 64195  1  0
 64196  1  0
 65197  1  0
 65198  1  0
 65199  1  0
 82200  1  0
 82201  1  0
 83202  1  0
 83203  1  0
 83204  1  0
 84205  1  0
 85206  1  0
 86207  1  0
 87208  1  0
 99209  1  0
 99210  1  0
100211  1  0
100212  1  0
100213  1  0
101214  1  0
101215  1  0
102216  1  0
102217  1  0
102218  1  0
107219  1  0
108220  1  0
110221  1  0
110222  1  0
110223  1  0
111224  1  0
112225  1  0
114226  1  0
115227  1  0
117228  1  0
117229  1  0
117230  1  0
118231  1  0
119232  1  0
126233  1  0
127234  1  0
129235  1  0
129236  1  0
129237  1  0
130238  1  0
131239  1  0
133240  1  0
134241  1  0
136242  1  0
136243  1  0
136244  1  0
137245  1  0
138246  1  0
141247  1  0
147248  1  0
148249  1  0
M  END

