
     RDKit          3D

149167  0  0  0  0  0  0  0  0999 V2000
   -9.7921   -5.3001    0.3144 C   0  0  0  0  0  0  0  0  0  0  0  0
  -10.1437   -6.4389   -0.3124 C   0  0  0  0  0  0  0  0  0  0  0  0
   -9.3599   -7.1298   -1.3439 C   0  0  0  0  0  0  0  0  0  0  0  0
   -8.4208   -6.6421   -2.0326 O   0  0  0  0  0  0  0  0  0  0  0  0
   -9.8508   -8.4855   -1.4489 C   0  0  0  0  0  0  0  0  0  0  0  0
   -9.3285   -9.5322   -2.2088 C   0  0  0  0  0  0  0  0  0  0  0  0
   -9.9177  -10.7973   -2.0948 C   0  0  0  0  0  0  0  0  0  0  0  0
  -11.0057  -10.9967   -1.2276 C   0  0  0  0  0  0  0  0  0  0  0  0
  -11.7926  -12.7310   -1.0802 Br  0  0  0  0  0  0  0  0  0  0  0  0
  -11.5183   -9.9304   -0.4693 C   0  0  0  0  0  0  0  0  0  0  0  0
  -10.9352   -8.6569   -0.6025 C   0  0  0  0  0  0  0  0  0  0  0  0
  -11.2589   -7.3607    0.0577 C   0  0  0  0  0  0  0  0  0  0  0  0
  -12.4328   -7.0145    0.6435 C   0  0  0  0  0  0  0  0  0  0  0  0
  -13.4927   -7.9605    0.8702 C   0  0  0  0  0  0  0  0  0  0  0  0
  -14.3586   -8.7046    1.0620 N   0  0  0  0  0  0  0  0  0  0  0  0
  -12.7638   -5.6483    0.9490 C   0  0  0  0  0  0  0  0  0  0  0  0
  -13.0411   -4.5502    1.1901 N   0  0  0  0  0  0  0  0  0  0  0  0
   -8.6129   -4.4945   -0.0763 C   0  0  0  0  0  0  0  0  0  0  0  0
   -8.7714   -3.2299   -0.6824 C   0  0  0  0  0  0  0  0  0  0  0  0
  -10.1068   -2.7034   -0.8984 C   0  0  0  0  0  0  0  0  0  0  0  0
  -11.1745   -2.2946   -1.0658 N   0  0  0  0  0  0  0  0  0  0  0  0
   -7.6365   -2.4887   -1.0978 C   0  0  0  0  0  0  0  0  0  0  0  0
   -7.8190   -1.1762   -1.6865 C   0  0  0  0  0  0  0  0  0  0  0  0
   -7.9643   -0.1285   -2.1579 N   0  0  0  0  0  0  0  0  0  0  0  0
   -6.3318   -3.0055   -0.9082 C   0  0  0  0  0  0  0  0  0  0  0  0
   -6.1825   -4.2353   -0.2445 C   0  0  0  0  0  0  0  0  0  0  0  0
   -7.3213   -4.9732    0.1769 C   0  0  0  0  0  0  0  0  0  0  0  0
   -7.0809   -6.1557    0.8052 N   0  0  0  0  0  0  0  0  0  0  0  0
   -5.4299   -6.1887    0.7703 S   0  0  0  0  0  0  0  0  0  0  0  0
   -4.9728   -4.7990    0.0059 N   0  0  0  0  0  0  0  0  0  0  0  0
   -5.1277   -2.2845   -1.3877 C   0  0  0  0  0  0  0  0  0  0  0  0
   -4.8531   -1.8678   -2.7099 C   0  0  0  0  0  0  0  0  0  0  0  0
   -5.7099   -2.1142   -3.8947 C   0  0  0  0  0  0  0  0  0  0  0  0
   -6.3399   -3.3536   -4.0800 C   0  0  0  0  0  0  0  0  0  0  0  0
   -7.1473   -3.5764   -5.1998 C   0  0  0  0  0  0  0  0  0  0  0  0
   -7.3163   -2.5713   -6.1566 C   0  0  0  0  0  0  0  0  0  0  0  0
   -6.6901   -1.3297   -5.9869 C   0  0  0  0  0  0  0  0  0  0  0  0
   -6.8008   -0.2706   -7.0479 C   0  0  0  0  0  0  0  0  0  0  0  0
   -5.6839   -0.4200   -8.0824 C   0  0  0  0  0  0  0  0  0  0  0  0
   -5.8905   -1.1055   -4.8535 C   0  0  0  0  0  0  0  0  0  0  0  0
   -3.6056   -1.2335   -2.7762 C   0  0  0  0  0  0  0  0  0  0  0  0
   -2.6709   -0.6250   -4.0680 S   0  0  0  0  0  0  0  0  0  0  0  0
   -1.4120   -0.2362   -3.0039 C   0  0  0  0  0  0  0  0  0  0  0  0
   -0.1066    0.1311   -3.0764 C   0  0  0  0  0  0  0  0  0  0  0  0
    0.6923    0.4089   -4.1861 C   0  0  0  0  0  0  0  0  0  0  0  0
    2.0843    0.6160   -3.9883 C   0  0  0  0  0  0  0  0  0  0  0  0
    2.8290    0.8940   -5.0870 N   0  0  0  0  0  0  0  0  0  0  0  0
    1.6496    0.8451   -6.2439 S   0  0  0  0  0  0  0  0  0  0  0  0
    0.2322    0.4946   -5.4587 N   0  0  0  0  0  0  0  0  0  0  0  0
    2.5951    0.5589   -2.6885 C   0  0  0  0  0  0  0  0  0  0  0  0
    3.8155    0.9406   -2.2183 C   0  0  0  0  0  0  0  0  0  0  0  0
    5.1601    1.7785   -2.8355 S   0  0  0  0  0  0  0  0  0  0  0  0
    5.6697    2.1786   -1.2619 C   0  0  0  0  0  0  0  0  0  0  0  0
    6.6791    3.0120   -0.7712 C   0  0  0  0  0  0  0  0  0  0  0  0
    7.5875    3.7706   -1.6423 C   0  0  0  0  0  0  0  0  0  0  0  0
    8.5585    3.0951   -2.3937 C   0  0  0  0  0  0  0  0  0  0  0  0
    9.3729    3.7989   -3.2837 C   0  0  0  0  0  0  0  0  0  0  0  0
    9.1927    5.1744   -3.4570 C   0  0  0  0  0  0  0  0  0  0  0  0
    8.2104    5.8586   -2.7207 C   0  0  0  0  0  0  0  0  0  0  0  0
    7.9368    7.3103   -3.0126 C   0  0  0  0  0  0  0  0  0  0  0  0
    7.0615    7.4485   -4.2575 C   0  0  0  0  0  0  0  0  0  0  0  0
    7.4144    5.1524   -1.8048 C   0  0  0  0  0  0  0  0  0  0  0  0
    6.5632    3.1704    0.6221 C   0  0  0  0  0  0  0  0  0  0  0  0
    5.2242    2.2759    1.1916 S   0  0  0  0  0  0  0  0  0  0  0  0
    4.7934    1.7034   -0.3202 C   0  0  0  0  0  0  0  0  0  0  0  0
    3.7214    1.0061   -0.8693 C   0  0  0  0  0  0  0  0  0  0  0  0
    2.4765    0.6896   -0.4102 N   0  0  0  0  0  0  0  0  0  0  0  0
    1.7869    0.3380   -1.5537 C   0  0  0  0  0  0  0  0  0  0  0  0
    0.4037    0.0318   -1.7646 C   0  0  0  0  0  0  0  0  0  0  0  0
   -0.5609   -0.4920   -0.9279 N   0  0  0  0  0  0  0  0  0  0  0  0
   -1.6574   -0.5931   -1.7256 C   0  0  0  0  0  0  0  0  0  0  0  0
   -2.9184   -1.1644   -1.5891 C   0  0  0  0  0  0  0  0  0  0  0  0
   -3.8191   -1.8704   -0.3685 S   0  0  0  0  0  0  0  0  0  0  0  0
   -0.4368   -1.1667    0.3725 C   0  0  0  0  0  0  0  0  0  0  0  0
    0.7133   -2.1779    0.3917 C   0  0  0  0  0  0  0  0  0  0  0  0
    1.9375    1.1656    0.8721 C   0  0  0  0  0  0  0  0  0  0  0  0
    1.0072    2.3602    0.6723 C   0  0  0  0  0  0  0  0  0  0  0  0
    7.4195    3.9723    1.5250 C   0  0  0  0  0  0  0  0  0  0  0  0
    6.8213    4.8167    2.4907 C   0  0  0  0  0  0  0  0  0  0  0  0
    5.4371    5.2171    2.3352 C   0  0  0  0  0  0  0  0  0  0  0  0
    4.3258    5.5244    2.2160 N   0  0  0  0  0  0  0  0  0  0  0  0
    7.5486    5.2242    3.6318 C   0  0  0  0  0  0  0  0  0  0  0  0
    6.9059    6.0334    4.6506 C   0  0  0  0  0  0  0  0  0  0  0  0
    6.4020    6.6827    5.4652 N   0  0  0  0  0  0  0  0  0  0  0  0
    8.9013    4.8317    3.7915 C   0  0  0  0  0  0  0  0  0  0  0  0
    9.5487    4.2069    2.7216 C   0  0  0  0  0  0  0  0  0  0  0  0
    8.8019    3.7403    1.6008 C   0  0  0  0  0  0  0  0  0  0  0  0
    9.4875    3.0185    0.6771 N   0  0  0  0  0  0  0  0  0  0  0  0
   11.0067    3.0579    1.3247 S   0  0  0  0  0  0  0  0  0  0  0  0
   10.8731    3.9079    2.7363 N   0  0  0  0  0  0  0  0  0  0  0  0
    9.5708    4.9551    5.1068 C   0  0  0  0  0  0  0  0  0  0  0  0
    9.0980    4.3284    6.2067 C   0  0  0  0  0  0  0  0  0  0  0  0
    9.2281    4.8818    7.5547 C   0  0  0  0  0  0  0  0  0  0  0  0
   10.0819    5.7311    7.9274 O   0  0  0  0  0  0  0  0  0  0  0  0
    8.1308    4.3821    8.3600 C   0  0  0  0  0  0  0  0  0  0  0  0
    7.8201    4.6858    9.6857 C   0  0  0  0  0  0  0  0  0  0  0  0
    6.6991    4.0734   10.2755 C   0  0  0  0  0  0  0  0  0  0  0  0
    6.3569    4.3383   11.6114 C   0  0  0  0  0  0  0  0  0  0  0  0
    5.2447    3.7168   12.1886 C   0  0  0  0  0  0  0  0  0  0  0  0
    4.4691    2.8211   11.4438 C   0  0  0  0  0  0  0  0  0  0  0  0
    3.4012    2.2143   12.0214 F   0  0  0  0  0  0  0  0  0  0  0  0
    4.7931    2.5509   10.1109 C   0  0  0  0  0  0  0  0  0  0  0  0
    5.9048    3.1665    9.5134 C   0  0  0  0  0  0  0  0  0  0  0  0
    6.2416    2.8828    8.1754 C   0  0  0  0  0  0  0  0  0  0  0  0
    7.3692    3.5007    7.6098 C   0  0  0  0  0  0  0  0  0  0  0  0
    7.9981    3.3209    6.2744 C   0  0  0  0  0  0  0  0  0  0  0  0
    7.8750    2.2279    5.4777 C   0  0  0  0  0  0  0  0  0  0  0  0
    8.9664    1.7766    4.6539 C   0  0  0  0  0  0  0  0  0  0  0  0
    9.8420    1.3803    4.0109 N   0  0  0  0  0  0  0  0  0  0  0  0
    6.7519    1.3318    5.5350 C   0  0  0  0  0  0  0  0  0  0  0  0
    5.8537    0.6035    5.5710 N   0  0  0  0  0  0  0  0  0  0  0  0
  -10.3630   -4.9334    1.1530 H   0  0  0  0  0  0  0  0  0  0  0  0
   -8.4780   -9.3717   -2.8621 H   0  0  0  0  0  0  0  0  0  0  0  0
   -9.5191  -11.6206   -2.6745 H   0  0  0  0  0  0  0  0  0  0  0  0
  -12.3229  -10.1230    0.2170 H   0  0  0  0  0  0  0  0  0  0  0  0
   -6.2002   -4.1574   -3.3681 H   0  0  0  0  0  0  0  0  0  0  0  0
   -7.6390   -4.5344   -5.3311 H   0  0  0  0  0  0  0  0  0  0  0  0
   -7.9295   -2.7617   -7.0312 H   0  0  0  0  0  0  0  0  0  0  0  0
   -6.7396    0.7398   -6.5896 H   0  0  0  0  0  0  0  0  0  0  0  0
   -7.7868   -0.3388   -7.5589 H   0  0  0  0  0  0  0  0  0  0  0  0
   -5.7872   -1.3852   -8.6205 H   0  0  0  0  0  0  0  0  0  0  0  0
   -5.7405    0.4086   -8.8161 H   0  0  0  0  0  0  0  0  0  0  0  0
   -4.6908   -0.3830   -7.5860 H   0  0  0  0  0  0  0  0  0  0  0  0
   -5.4256   -0.1370   -4.7189 H   0  0  0  0  0  0  0  0  0  0  0  0
    8.6776    2.0257   -2.2946 H   0  0  0  0  0  0  0  0  0  0  0  0
   10.1127    3.2728   -3.8697 H   0  0  0  0  0  0  0  0  0  0  0  0
    9.8088    5.7026   -4.1756 H   0  0  0  0  0  0  0  0  0  0  0  0
    7.4230    7.7990   -2.1545 H   0  0  0  0  0  0  0  0  0  0  0  0
    8.8947    7.8474   -3.1809 H   0  0  0  0  0  0  0  0  0  0  0  0
    6.0729    6.9619   -4.0960 H   0  0  0  0  0  0  0  0  0  0  0  0
    6.9015    8.5231   -4.4887 H   0  0  0  0  0  0  0  0  0  0  0  0
    7.5608    6.9737   -5.1328 H   0  0  0  0  0  0  0  0  0  0  0  0
    6.6344    5.6678   -1.2563 H   0  0  0  0  0  0  0  0  0  0  0  0
   -1.3463   -1.7571    0.5864 H   0  0  0  0  0  0  0  0  0  0  0  0
   -0.4176   -0.4292    1.1917 H   0  0  0  0  0  0  0  0  0  0  0  0
    1.6991   -1.6803    0.4108 H   0  0  0  0  0  0  0  0  0  0  0  0
    0.6670   -2.8219   -0.5084 H   0  0  0  0  0  0  0  0  0  0  0  0
    0.6326   -2.8184    1.2936 H   0  0  0  0  0  0  0  0  0  0  0  0
    1.4745    0.3566    1.4399 H   0  0  0  0  0  0  0  0  0  0  0  0
    2.7513    1.4847    1.5435 H   0  0  0  0  0  0  0  0  0  0  0  0
    1.4943    3.1130    0.0218 H   0  0  0  0  0  0  0  0  0  0  0  0
    0.0556    2.0383    0.1983 H   0  0  0  0  0  0  0  0  0  0  0  0
    0.7851    2.8319    1.6459 H   0  0  0  0  0  0  0  0  0  0  0  0
   10.3340    5.7138    5.2102 H   0  0  0  0  0  0  0  0  0  0  0  0
    8.4399    5.3741   10.2476 H   0  0  0  0  0  0  0  0  0  0  0  0
    6.9472    5.0221   12.2070 H   0  0  0  0  0  0  0  0  0  0  0  0
    4.9855    3.9267   13.2192 H   0  0  0  0  0  0  0  0  0  0  0  0
    4.1837    1.8502    9.5500 H   0  0  0  0  0  0  0  0  0  0  0  0
    5.6231    2.2046    7.6137 H   0  0  0  0  0  0  0  0  0  0  0  0
  1  2  2  3
  2  3  1  0
  3  4  2  0
  3  5  1  0
  5  6  2  0
  6  7  1  0
  7  8  2  0
  8  9  1  0
  8 10  1  0
 10 11  2  0
 11 12  1  0
 12 13  2  3
 13 14  1  0
 14 15  3  0
 13 16  1  0
 16 17  3  0
  1 18  1  0
 18 19  2  0
 19 20  1  0
 20 21  3  0
 19 22  1  0
 22 23  1  0
 23 24  3  0
 22 25  2  0
 25 26  1  0
 26 27  1  0
 27 28  2  0
 28 29  1  0
 29 30  1  0
 25 31  1  0
 31 32  2  0
 32 33  1  0
 33 34  2  0
 34 35  1  0
 35 36  2  0
 36 37  1  0
 37 38  1  0
 38 39  1  0
 37 40  2  0
 32 41  1  0
 41 42  1  0
 42 43  1  0
 43 44  1  0
 44 45  1  0
 45 46  1  0
 46 47  2  0
 47 48  1  0
 48 49  1  0
 46 50  1  0
 50 51  1  0
 51 52  1  0
 52 53  1  0
 53 54  1  0
 54 55  1  0
 55 56  2  0
 56 57  1  0
 57 58  2  0
 58 59  1  0
 59 60  1  0
 60 61  1  0
 59 62  2  0
 54 63  2  0
 63 64  1  0
 64 65  1  0
 65 66  1  0
 66 67  1  0
 67 68  1  0
 68 69  1  0
 69 70  1  0
 70 71  1  0
 71 72  1  0
 72 73  1  0
 70 74  1  0
 74 75  1  0
 67 76  1  0
 76 77  1  0
 63 78  1  0
 78 79  2  0
 79 80  1  0
 80 81  3  0
 79 82  1  0
 82 83  1  0
 83 84  3  0
 82 85  2  0
 85 86  1  0
 86 87  1  0
 87 88  2  0
 88 89  1  0
 89 90  1  0
 85 91  1  0
 91 92  2  3
 92 93  1  0
 93 94  2  0
 93 95  1  0
 95 96  2  0
 96 97  1  0
 97 98  2  0
 98 99  1  0
 99100  2  0
100101  1  0
100102  1  0
102103  2  0
103104  1  0
104105  2  0
105106  1  0
106107  2  3
107108  1  0
108109  3  0
107110  1  0
110111  3  0
 12  2  1  0
 27 18  1  0
 73 31  1  0
 87 78  1  0
106 92  1  0
 11  5  1  0
 30 26  2  0
 40 33  1  0
 72 41  2  0
 90 86  2  0
105 95  1  0
 71 43  2  0
103 97  1  0
 69 44  2  0
 49 45  2  0
 68 50  2  0
 66 51  2  0
 65 53  2  0
 62 55  1  0
  1112  1  0
  6113  1  0
  7114  1  0
 10115  1  0
 34116  1  0
 35117  1  0
 36118  1  0
 38119  1  0
 38120  1  0
 39121  1  0
 39122  1  0
 39123  1  0
 40124  1  0
 56125  1  0
 57126  1  0
 58127  1  0
 60128  1  0
 60129  1  0
 61130  1  0
 61131  1  0
 61132  1  0
 62133  1  0
 74134  1  0
 74135  1  0
 75136  1  0
 75137  1  0
 75138  1  0
 76139  1  0
 76140  1  0
 77141  1  0
 77142  1  0
 77143  1  0
 91144  1  0
 96145  1  0
 98146  1  0
 99147  1  0
102148  1  0
104149  1  0
M  END

