
     RDKit          3D

134149  0  0  0  0  0  0  0  0999 V2000
    3.4608    2.5218    8.1871 C   0  0  0  0  0  0  0  0  0  0  0  0
    4.3285    3.4171    8.6968 C   0  0  0  0  0  0  0  0  0  0  0  0
    4.6906    4.6977    8.0749 C   0  0  0  0  0  0  0  0  0  0  0  0
    4.0891    5.2699    7.1275 O   0  0  0  0  0  0  0  0  0  0  0  0
    5.8374    5.2342    8.7693 C   0  0  0  0  0  0  0  0  0  0  0  0
    6.5641    6.3846    8.4636 C   0  0  0  0  0  0  0  0  0  0  0  0
    7.6928    6.6865    9.2356 C   0  0  0  0  0  0  0  0  0  0  0  0
    8.0855    5.8290   10.2776 C   0  0  0  0  0  0  0  0  0  0  0  0
    9.6552    6.2260   11.2932 Br  0  0  0  0  0  0  0  0  0  0  0  0
    7.3389    4.6746   10.5698 C   0  0  0  0  0  0  0  0  0  0  0  0
    6.1843    4.3961    9.8162 C   0  0  0  0  0  0  0  0  0  0  0  0
    5.2078    3.2684    9.9048 C   0  0  0  0  0  0  0  0  0  0  0  0
    5.0444    2.4165   10.9545 C   0  0  0  0  0  0  0  0  0  0  0  0
    3.9410    1.4974   11.0550 C   0  0  0  0  0  0  0  0  0  0  0  0
    3.0565    0.7569   11.1540 N   0  0  0  0  0  0  0  0  0  0  0  0
    5.8929    2.4404   12.1172 C   0  0  0  0  0  0  0  0  0  0  0  0
    6.5616    2.4477   13.0625 N   0  0  0  0  0  0  0  0  0  0  0  0
    2.7800    2.6943    6.8977 C   0  0  0  0  0  0  0  0  0  0  0  0
    1.4148    2.5826    6.6951 C   0  0  0  0  0  0  0  0  0  0  0  0
    1.0460    2.6287    5.3425 C   0  0  0  0  0  0  0  0  0  0  0  0
   -0.6825    2.5715    4.8620 S   0  0  0  0  0  0  0  0  0  0  0  0
   -0.8852    4.3828    4.9990 C   0  0  0  0  0  0  0  0  0  0  0  0
   -2.1882    4.8165    4.3461 C   0  0  0  0  0  0  0  0  0  0  0  0
    2.1362    2.7184    4.4593 C   0  0  0  0  0  0  0  0  0  0  0  0
    3.5336    2.7865    5.4002 S   0  0  0  0  0  0  0  0  0  0  0  0
    2.1165    2.7075    2.9731 C   0  0  0  0  0  0  0  0  0  0  0  0
    3.1756    2.3061    2.1192 C   0  0  0  0  0  0  0  0  0  0  0  0
    4.4546    1.7143    2.5461 C   0  0  0  0  0  0  0  0  0  0  0  0
    4.4777    0.5114    3.2679 C   0  0  0  0  0  0  0  0  0  0  0  0
    5.6970   -0.0439    3.6664 C   0  0  0  0  0  0  0  0  0  0  0  0
    6.8985    0.5920    3.3388 C   0  0  0  0  0  0  0  0  0  0  0  0
    6.8866    1.7953    2.6134 C   0  0  0  0  0  0  0  0  0  0  0  0
    8.1769    2.4733    2.2352 C   0  0  0  0  0  0  0  0  0  0  0  0
    8.5872    2.0991    0.8147 C   0  0  0  0  0  0  0  0  0  0  0  0
    5.6600    2.3421    2.2033 C   0  0  0  0  0  0  0  0  0  0  0  0
    2.8060    2.3906    0.7755 C   0  0  0  0  0  0  0  0  0  0  0  0
    3.4962    1.7463   -0.6514 S   0  0  0  0  0  0  0  0  0  0  0  0
    2.0721    2.0737   -1.5135 C   0  0  0  0  0  0  0  0  0  0  0  0
    1.4822    1.7163   -2.6904 C   0  0  0  0  0  0  0  0  0  0  0  0
    1.9937    1.1237   -3.8452 C   0  0  0  0  0  0  0  0  0  0  0  0
    1.0977    0.8343   -4.9163 C   0  0  0  0  0  0  0  0  0  0  0  0
    1.6314    0.2398   -6.0129 N   0  0  0  0  0  0  0  0  0  0  0  0
    3.2169    0.1443   -5.5419 S   0  0  0  0  0  0  0  0  0  0  0  0
    3.2976    0.7965   -4.0211 N   0  0  0  0  0  0  0  0  0  0  0  0
   -0.2711    1.0967   -4.7480 C   0  0  0  0  0  0  0  0  0  0  0  0
   -1.3377    0.5679   -5.4252 C   0  0  0  0  0  0  0  0  0  0  0  0
   -1.4646   -0.7287   -6.5148 S   0  0  0  0  0  0  0  0  0  0  0  0
   -3.0087   -1.1409   -5.9422 C   0  0  0  0  0  0  0  0  0  0  0  0
   -3.7377   -2.3291   -6.0537 C   0  0  0  0  0  0  0  0  0  0  0  0
   -3.3065   -3.4558   -6.9032 C   0  0  0  0  0  0  0  0  0  0  0  0
   -2.9356   -4.6795   -6.3221 C   0  0  0  0  0  0  0  0  0  0  0  0
   -2.5477   -5.7513   -7.1273 C   0  0  0  0  0  0  0  0  0  0  0  0
   -2.5194   -5.6105   -8.5164 C   0  0  0  0  0  0  0  0  0  0  0  0
   -2.8782   -4.3903   -9.1126 C   0  0  0  0  0  0  0  0  0  0  0  0
   -2.8140   -4.2332  -10.6086 C   0  0  0  0  0  0  0  0  0  0  0  0
   -1.4149   -3.8161  -11.0491 C   0  0  0  0  0  0  0  0  0  0  0  0
   -3.2529   -3.3077   -8.2977 C   0  0  0  0  0  0  0  0  0  0  0  0
   -4.7296   -2.4086   -5.0560 C   0  0  0  0  0  0  0  0  0  0  0  0
   -4.6351   -1.0397   -4.0548 S   0  0  0  0  0  0  0  0  0  0  0  0
   -3.3755   -0.3220   -4.8985 C   0  0  0  0  0  0  0  0  0  0  0  0
   -2.4187    0.6522   -4.5937 C   0  0  0  0  0  0  0  0  0  0  0  0
   -2.1105    1.2604   -3.4149 N   0  0  0  0  0  0  0  0  0  0  0  0
   -0.7879    1.6010   -3.5408 C   0  0  0  0  0  0  0  0  0  0  0  0
    0.1224    2.0296   -2.5378 C   0  0  0  0  0  0  0  0  0  0  0  0
   -0.1026    2.6750   -1.3446 N   0  0  0  0  0  0  0  0  0  0  0  0
    1.1124    2.6390   -0.7472 C   0  0  0  0  0  0  0  0  0  0  0  0
    1.5268    2.8312    0.5576 C   0  0  0  0  0  0  0  0  0  0  0  0
    0.7648    3.1288    2.0136 S   0  0  0  0  0  0  0  0  0  0  0  0
   -1.1039    3.7155   -1.0417 C   0  0  0  0  0  0  0  0  0  0  0  0
   -1.2189    4.7233   -2.1859 C   0  0  0  0  0  0  0  0  0  0  0  0
   -2.8701    1.0863   -2.1713 C   0  0  0  0  0  0  0  0  0  0  0  0
   -4.0850    2.0102   -2.1515 C   0  0  0  0  0  0  0  0  0  0  0  0
   -5.5209   -3.6006   -4.7176 C   0  0  0  0  0  0  0  0  0  0  0  0
   -6.0695   -4.5167   -5.6095 C   0  0  0  0  0  0  0  0  0  0  0  0
   -6.5977   -5.6284   -5.0295 N   0  0  0  0  0  0  0  0  0  0  0  0
   -6.4565   -5.6112   -3.6872 C   0  0  0  0  0  0  0  0  0  0  0  0
   -5.7154   -4.1979   -3.1580 S   0  0  0  0  0  0  0  0  0  0  0  0
   -6.9272   -6.6910   -2.8135 C   0  0  0  0  0  0  0  0  0  0  0  0
   -6.1254   -7.3612   -1.9651 C   0  0  0  0  0  0  0  0  0  0  0  0
   -4.6455   -7.3539   -1.9933 C   0  0  0  0  0  0  0  0  0  0  0  0
   -3.8998   -6.6058   -2.6794 O   0  0  0  0  0  0  0  0  0  0  0  0
   -4.1893   -8.4571   -1.1811 C   0  0  0  0  0  0  0  0  0  0  0  0
   -2.9401   -8.9923   -0.9260 C   0  0  0  0  0  0  0  0  0  0  0  0
   -3.2391  -10.3677    0.0067 S   0  0  0  0  0  0  0  0  0  0  0  0
   -4.9269  -10.2635    0.0752 C   0  0  0  0  0  0  0  0  0  0  0  0
   -5.2636   -9.1278   -0.6510 C   0  0  0  0  0  0  0  0  0  0  0  0
   -6.5317   -8.4658   -1.0313 C   0  0  0  0  0  0  0  0  0  0  0  0
   -7.7499   -8.6977   -0.4879 C   0  0  0  0  0  0  0  0  0  0  0  0
   -7.9730   -9.7623    0.4563 C   0  0  0  0  0  0  0  0  0  0  0  0
   -8.1665  -10.6133    1.2163 N   0  0  0  0  0  0  0  0  0  0  0  0
   -8.8754   -7.8316   -0.7248 C   0  0  0  0  0  0  0  0  0  0  0  0
   -9.7818   -7.1360   -0.9079 N   0  0  0  0  0  0  0  0  0  0  0  0
    3.2677    1.5874    8.6809 H   0  0  0  0  0  0  0  0  0  0  0  0
    6.2702    7.0241    7.6414 H   0  0  0  0  0  0  0  0  0  0  0  0
    8.2716    7.5733    9.0122 H   0  0  0  0  0  0  0  0  0  0  0  0
    7.6932    4.0186   11.3445 H   0  0  0  0  0  0  0  0  0  0  0  0
    0.7018    2.4734    7.5022 H   0  0  0  0  0  0  0  0  0  0  0  0
   -0.0419    4.9031    4.4973 H   0  0  0  0  0  0  0  0  0  0  0  0
   -0.8935    4.6696    6.0715 H   0  0  0  0  0  0  0  0  0  0  0  0
   -2.2981    5.9182    4.4337 H   0  0  0  0  0  0  0  0  0  0  0  0
   -3.0505    4.3274    4.8440 H   0  0  0  0  0  0  0  0  0  0  0  0
   -2.1813    4.5435    3.2696 H   0  0  0  0  0  0  0  0  0  0  0  0
    3.5524    0.0101    3.5295 H   0  0  0  0  0  0  0  0  0  0  0  0
    5.7109   -0.9672    4.2317 H   0  0  0  0  0  0  0  0  0  0  0  0
    7.8354    0.1462    3.6510 H   0  0  0  0  0  0  0  0  0  0  0  0
    8.0518    3.5780    2.3034 H   0  0  0  0  0  0  0  0  0  0  0  0
    8.9879    2.1860    2.9403 H   0  0  0  0  0  0  0  0  0  0  0  0
    8.7598    1.0038    0.7406 H   0  0  0  0  0  0  0  0  0  0  0  0
    9.5263    2.6294    0.5473 H   0  0  0  0  0  0  0  0  0  0  0  0
    7.7949    2.3941    0.0945 H   0  0  0  0  0  0  0  0  0  0  0  0
    5.6438    3.2617    1.6329 H   0  0  0  0  0  0  0  0  0  0  0  0
   -2.9474   -4.8036   -5.2473 H   0  0  0  0  0  0  0  0  0  0  0  0
   -2.2680   -6.6938   -6.6738 H   0  0  0  0  0  0  0  0  0  0  0  0
   -2.2135   -6.4501   -9.1297 H   0  0  0  0  0  0  0  0  0  0  0  0
   -3.0845   -5.1919  -11.1016 H   0  0  0  0  0  0  0  0  0  0  0  0
   -3.5497   -3.4707  -10.9462 H   0  0  0  0  0  0  0  0  0  0  0  0
   -1.3858   -3.7348  -12.1557 H   0  0  0  0  0  0  0  0  0  0  0  0
   -1.1524   -2.8297  -10.6131 H   0  0  0  0  0  0  0  0  0  0  0  0
   -0.6676   -4.5731  -10.7291 H   0  0  0  0  0  0  0  0  0  0  0  0
   -3.5232   -2.3591   -8.7488 H   0  0  0  0  0  0  0  0  0  0  0  0
   -2.0878    3.2926   -0.7955 H   0  0  0  0  0  0  0  0  0  0  0  0
   -0.7982    4.2790   -0.1333 H   0  0  0  0  0  0  0  0  0  0  0  0
   -0.2120    5.0850   -2.4754 H   0  0  0  0  0  0  0  0  0  0  0  0
   -1.6992    4.2558   -3.0717 H   0  0  0  0  0  0  0  0  0  0  0  0
   -1.8326    5.5895   -1.8661 H   0  0  0  0  0  0  0  0  0  0  0  0
   -2.2315    1.2346   -1.2842 H   0  0  0  0  0  0  0  0  0  0  0  0
   -3.2009    0.0354   -2.0656 H   0  0  0  0  0  0  0  0  0  0  0  0
   -4.8158    1.7076   -2.9288 H   0  0  0  0  0  0  0  0  0  0  0  0
   -3.7801    3.0577   -2.3592 H   0  0  0  0  0  0  0  0  0  0  0  0
   -4.5775    1.9656   -1.1583 H   0  0  0  0  0  0  0  0  0  0  0  0
   -6.0662   -4.3779   -6.6834 H   0  0  0  0  0  0  0  0  0  0  0  0
   -7.9622   -6.9798   -2.9253 H   0  0  0  0  0  0  0  0  0  0  0  0
   -1.9846   -8.6266   -1.2777 H   0  0  0  0  0  0  0  0  0  0  0  0
   -5.5881  -10.9695    0.5495 H   0  0  0  0  0  0  0  0  0  0  0  0
  1  2  2  3
  2  3  1  0
  3  4  2  0
  3  5  1  0
  5  6  2  0
  6  7  1  0
  7  8  2  0
  8  9  1  0
  8 10  1  0
 10 11  2  0
 11 12  1  0
 12 13  2  3
 13 14  1  0
 14 15  3  0
 13 16  1  0
 16 17  3  0
  1 18  1  0
 18 19  2  0
 19 20  1  0
 20 21  1  0
 21 22  1  0
 22 23  1  0
 20 24  2  0
 24 25  1  0
 24 26  1  0
 26 27  2  0
 27 28  1  0
 28 29  2  0
 29 30  1  0
 30 31  2  0
 31 32  1  0
 32 33  1  0
 33 34  1  0
 32 35  2  0
 27 36  1  0
 36 37  1  0
 37 38  1  0
 38 39  1  0
 39 40  1  0
 40 41  1  0
 41 42  2  0
 42 43  1  0
 43 44  1  0
 41 45  1  0
 45 46  1  0
 46 47  1  0
 47 48  1  0
 48 49  1  0
 49 50  1  0
 50 51  2  0
 51 52  1  0
 52 53  2  0
 53 54  1  0
 54 55  1  0
 55 56  1  0
 54 57  2  0
 49 58  2  0
 58 59  1  0
 59 60  1  0
 60 61  1  0
 61 62  1  0
 62 63  1  0
 63 64  1  0
 64 65  1  0
 65 66  1  0
 66 67  1  0
 67 68  1  0
 65 69  1  0
 69 70  1  0
 62 71  1  0
 71 72  1  0
 58 73  1  0
 73 74  2  0
 74 75  1  0
 75 76  2  0
 76 77  1  0
 76 78  1  0
 78 79  2  3
 79 80  1  0
 80 81  2  0
 80 82  1  0
 82 83  2  0
 83 84  1  0
 84 85  1  0
 85 86  2  0
 86 87  1  0
 87 88  2  3
 88 89  1  0
 89 90  3  0
 88 91  1  0
 91 92  3  0
 12  2  1  0
 25 18  1  0
 68 26  1  0
 77 73  1  0
 87 79  1  0
 11  5  1  0
 35 28  1  0
 67 36  2  0
 86 82  1  0
 66 38  2  0
 64 39  2  0
 44 40  2  0
 63 45  2  0
 61 46  2  0
 60 48  2  0
 57 50  1  0
  1 93  1  0
  6 94  1  0
  7 95  1  0
 10 96  1  0
 19 97  1  0
 22 98  1  0
 22 99  1  0
 23100  1  0
 23101  1  0
 23102  1  0
 29103  1  0
 30104  1  0
 31105  1  0
 33106  1  0
 33107  1  0
 34108  1  0
 34109  1  0
 34110  1  0
 35111  1  0
 51112  1  0
 52113  1  0
 53114  1  0
 55115  1  0
 55116  1  0
 56117  1  0
 56118  1  0
 56119  1  0
 57120  1  0
 69121  1  0
 69122  1  0
 70123  1  0
 70124  1  0
 70125  1  0
 71126  1  0
 71127  1  0
 72128  1  0
 72129  1  0
 72130  1  0
 74131  1  0
 78132  1  0
 83133  1  0
 85134  1  0
M  END

