
     RDKit          3D

151167  0  0  0  0  0  0  0  0999 V2000
    6.4083   -5.9325    1.3674 C   0  0  0  0  0  0  0  0  0  0  0  0
    6.2513   -5.6822    0.0533 C   0  0  0  0  0  0  0  0  0  0  0  0
    5.7590   -4.4372   -0.5546 C   0  0  0  0  0  0  0  0  0  0  0  0
    5.9312   -3.2687   -0.1187 O   0  0  0  0  0  0  0  0  0  0  0  0
    5.1655   -4.7624   -1.8342 C   0  0  0  0  0  0  0  0  0  0  0  0
    4.4145   -3.9391   -2.6724 C   0  0  0  0  0  0  0  0  0  0  0  0
    3.8327   -4.5019   -3.8150 C   0  0  0  0  0  0  0  0  0  0  0  0
    3.9964   -5.8724   -4.0920 C   0  0  0  0  0  0  0  0  0  0  0  0
    3.1452   -6.6351   -5.6205 Br  0  0  0  0  0  0  0  0  0  0  0  0
    4.7629   -6.6846   -3.2354 C   0  0  0  0  0  0  0  0  0  0  0  0
    5.3693   -6.1027   -2.1103 C   0  0  0  0  0  0  0  0  0  0  0  0
    6.1891   -6.7140   -1.0262 C   0  0  0  0  0  0  0  0  0  0  0  0
    6.9130   -7.8597   -1.0992 C   0  0  0  0  0  0  0  0  0  0  0  0
    6.8599   -8.7313   -2.2423 C   0  0  0  0  0  0  0  0  0  0  0  0
    6.8298   -9.4418   -3.1562 N   0  0  0  0  0  0  0  0  0  0  0  0
    7.8991   -8.2075   -0.1064 C   0  0  0  0  0  0  0  0  0  0  0  0
    8.6930   -8.4926    0.6852 N   0  0  0  0  0  0  0  0  0  0  0  0
    6.0533   -5.0133    2.4716 C   0  0  0  0  0  0  0  0  0  0  0  0
    6.4560   -5.1954    3.7920 C   0  0  0  0  0  0  0  0  0  0  0  0
    5.7815   -4.3753    4.7125 C   0  0  0  0  0  0  0  0  0  0  0  0
    5.9492   -4.5838    6.4910 S   0  0  0  0  0  0  0  0  0  0  0  0
    7.6969   -4.0601    6.6012 C   0  0  0  0  0  0  0  0  0  0  0  0
    7.8324   -2.5480    6.5201 C   0  0  0  0  0  0  0  0  0  0  0  0
    4.8172   -3.5594    4.1202 C   0  0  0  0  0  0  0  0  0  0  0  0
    4.7886   -3.9069    2.4803 S   0  0  0  0  0  0  0  0  0  0  0  0
    3.7110   -2.8724    4.7975 C   0  0  0  0  0  0  0  0  0  0  0  0
    3.7583   -1.6400    5.4781 C   0  0  0  0  0  0  0  0  0  0  0  0
    4.9281   -0.7395    5.5281 C   0  0  0  0  0  0  0  0  0  0  0  0
    5.6737   -0.4747    4.3663 C   0  0  0  0  0  0  0  0  0  0  0  0
    6.7483    0.4173    4.4067 C   0  0  0  0  0  0  0  0  0  0  0  0
    7.0834    1.0590    5.6010 C   0  0  0  0  0  0  0  0  0  0  0  0
    6.3433    0.8124    6.7668 C   0  0  0  0  0  0  0  0  0  0  0  0
    6.6674    1.5449    8.0373 C   0  0  0  0  0  0  0  0  0  0  0  0
    5.8534    2.8298    8.1369 C   0  0  0  0  0  0  0  0  0  0  0  0
    5.2570   -0.0774    6.7222 C   0  0  0  0  0  0  0  0  0  0  0  0
    2.4691   -1.2409    5.8606 C   0  0  0  0  0  0  0  0  0  0  0  0
    1.8486    0.2590    6.3571 S   0  0  0  0  0  0  0  0  0  0  0  0
    0.2464   -0.2419    6.0873 C   0  0  0  0  0  0  0  0  0  0  0  0
   -0.8690    0.4271    5.6668 C   0  0  0  0  0  0  0  0  0  0  0  0
   -1.0717    1.8117    5.6062 C   0  0  0  0  0  0  0  0  0  0  0  0
   -2.0886    2.3196    4.7581 C   0  0  0  0  0  0  0  0  0  0  0  0
   -2.2114    3.6677    4.6750 N   0  0  0  0  0  0  0  0  0  0  0  0
   -0.9964    4.1226    5.7017 S   0  0  0  0  0  0  0  0  0  0  0  0
   -0.3020    2.7229    6.2534 N   0  0  0  0  0  0  0  0  0  0  0  0
   -2.8811    1.4182    4.0501 C   0  0  0  0  0  0  0  0  0  0  0  0
   -3.8097    1.6404    3.0760 C   0  0  0  0  0  0  0  0  0  0  0  0
   -4.1798    2.8872    1.9868 S   0  0  0  0  0  0  0  0  0  0  0  0
   -4.9332    1.7803    0.9304 C   0  0  0  0  0  0  0  0  0  0  0  0
   -5.2893    1.8679   -0.4142 C   0  0  0  0  0  0  0  0  0  0  0  0
   -5.2653    3.1204   -1.1914 C   0  0  0  0  0  0  0  0  0  0  0  0
   -6.0872    4.1955   -0.8251 C   0  0  0  0  0  0  0  0  0  0  0  0
   -6.0708    5.3785   -1.5697 C   0  0  0  0  0  0  0  0  0  0  0  0
   -5.2267    5.5011   -2.6786 C   0  0  0  0  0  0  0  0  0  0  0  0
   -4.3959    4.4340   -3.0546 C   0  0  0  0  0  0  0  0  0  0  0  0
   -3.4485    4.5758   -4.2185 C   0  0  0  0  0  0  0  0  0  0  0  0
   -2.0593    4.9848   -3.7359 C   0  0  0  0  0  0  0  0  0  0  0  0
   -4.4122    3.2504   -2.2997 C   0  0  0  0  0  0  0  0  0  0  0  0
   -5.4805    0.5857   -0.9657 C   0  0  0  0  0  0  0  0  0  0  0  0
   -5.1552   -0.6154    0.1947 S   0  0  0  0  0  0  0  0  0  0  0  0
   -4.8498    0.4961    1.4137 C   0  0  0  0  0  0  0  0  0  0  0  0
   -4.2121    0.4281    2.6397 C   0  0  0  0  0  0  0  0  0  0  0  0
   -3.6232   -0.5999    3.2922 N   0  0  0  0  0  0  0  0  0  0  0  0
   -2.7289    0.0180    4.1413 C   0  0  0  0  0  0  0  0  0  0  0  0
   -1.6309   -0.4934    4.9134 C   0  0  0  0  0  0  0  0  0  0  0  0
   -0.9516   -1.6917    4.8320 N   0  0  0  0  0  0  0  0  0  0  0  0
    0.1826   -1.4925    5.5564 C   0  0  0  0  0  0  0  0  0  0  0  0
    1.4508   -2.0699    5.4542 C   0  0  0  0  0  0  0  0  0  0  0  0
    2.0975   -3.3640    4.6115 S   0  0  0  0  0  0  0  0  0  0  0  0
   -1.1295   -2.8108    3.9006 C   0  0  0  0  0  0  0  0  0  0  0  0
   -0.7985   -2.4028    2.4666 C   0  0  0  0  0  0  0  0  0  0  0  0
   -4.2515   -1.9281    3.3567 C   0  0  0  0  0  0  0  0  0  0  0  0
   -4.5669   -2.3415    4.7964 C   0  0  0  0  0  0  0  0  0  0  0  0
   -5.7872    0.3117   -2.3692 C   0  0  0  0  0  0  0  0  0  0  0  0
   -6.9287    0.7273   -3.0303 C   0  0  0  0  0  0  0  0  0  0  0  0
   -6.8399    0.5952   -4.4208 C   0  0  0  0  0  0  0  0  0  0  0  0
   -8.1498    1.1750   -5.5042 S   0  0  0  0  0  0  0  0  0  0  0  0
   -7.4715    2.8655   -5.6792 C   0  0  0  0  0  0  0  0  0  0  0  0
   -7.9736    3.7680   -4.5606 C   0  0  0  0  0  0  0  0  0  0  0  0
   -5.6246    0.0647   -4.8736 C   0  0  0  0  0  0  0  0  0  0  0  0
   -4.6631   -0.1850   -3.5098 S   0  0  0  0  0  0  0  0  0  0  0  0
   -5.1897    0.0654   -6.2937 C   0  0  0  0  0  0  0  0  0  0  0  0
   -4.0452   -0.4426   -6.7962 C   0  0  0  0  0  0  0  0  0  0  0  0
   -2.9885   -1.1594   -6.0720 C   0  0  0  0  0  0  0  0  0  0  0  0
   -3.1506   -1.9961   -5.1417 O   0  0  0  0  0  0  0  0  0  0  0  0
   -1.7305   -0.9131   -6.7500 C   0  0  0  0  0  0  0  0  0  0  0  0
   -0.4402   -1.2098   -6.3103 C   0  0  0  0  0  0  0  0  0  0  0  0
    0.6486   -0.7397   -7.0655 C   0  0  0  0  0  0  0  0  0  0  0  0
    1.9640   -0.9935   -6.6496 C   0  0  0  0  0  0  0  0  0  0  0  0
    3.0419   -0.4910   -7.3847 C   0  0  0  0  0  0  0  0  0  0  0  0
    2.8163    0.2639   -8.5407 C   0  0  0  0  0  0  0  0  0  0  0  0
    3.8674    0.7550   -9.2408 F   0  0  0  0  0  0  0  0  0  0  0  0
    1.5111    0.5194   -8.9726 C   0  0  0  0  0  0  0  0  0  0  0  0
    0.4178    0.0243   -8.2455 C   0  0  0  0  0  0  0  0  0  0  0  0
   -0.8997    0.2902   -8.6681 C   0  0  0  0  0  0  0  0  0  0  0  0
   -1.9701   -0.2123   -7.9172 C   0  0  0  0  0  0  0  0  0  0  0  0
   -3.4344   -0.0365   -8.0955 C   0  0  0  0  0  0  0  0  0  0  0  0
   -4.0832    0.1828   -9.2673 C   0  0  0  0  0  0  0  0  0  0  0  0
   -3.3805    0.3735  -10.5084 C   0  0  0  0  0  0  0  0  0  0  0  0
   -2.8235    0.5184  -11.5120 N   0  0  0  0  0  0  0  0  0  0  0  0
   -5.5141    0.0592   -9.3818 C   0  0  0  0  0  0  0  0  0  0  0  0
   -6.6641   -0.0417   -9.4840 N   0  0  0  0  0  0  0  0  0  0  0  0
    6.6999   -6.9197    1.6864 H   0  0  0  0  0  0  0  0  0  0  0  0
    4.2574   -2.8940   -2.4309 H   0  0  0  0  0  0  0  0  0  0  0  0
    3.2322   -3.8823   -4.4709 H   0  0  0  0  0  0  0  0  0  0  0  0
    4.8289   -7.7399   -3.4397 H   0  0  0  0  0  0  0  0  0  0  0  0
    7.1687   -5.9522    4.0900 H   0  0  0  0  0  0  0  0  0  0  0  0
    8.3007   -4.5396    5.8025 H   0  0  0  0  0  0  0  0  0  0  0  0
    8.1001   -4.4022    7.5781 H   0  0  0  0  0  0  0  0  0  0  0  0
    8.8964   -2.2620    6.6548 H   0  0  0  0  0  0  0  0  0  0  0  0
    7.4948   -2.1940    5.5275 H   0  0  0  0  0  0  0  0  0  0  0  0
    7.2308   -2.0692    7.3201 H   0  0  0  0  0  0  0  0  0  0  0  0
    5.4124   -0.9390    3.4247 H   0  0  0  0  0  0  0  0  0  0  0  0
    7.3148    0.6194    3.5078 H   0  0  0  0  0  0  0  0  0  0  0  0
    7.9130    1.7535    5.6131 H   0  0  0  0  0  0  0  0  0  0  0  0
    6.4437    0.9008    8.9145 H   0  0  0  0  0  0  0  0  0  0  0  0
    7.7513    1.7932    8.0738 H   0  0  0  0  0  0  0  0  0  0  0  0
    6.1056    3.3607    9.0797 H   0  0  0  0  0  0  0  0  0  0  0  0
    6.0864    3.4986    7.2796 H   0  0  0  0  0  0  0  0  0  0  0  0
    4.7652    2.6007    8.1369 H   0  0  0  0  0  0  0  0  0  0  0  0
    4.6742   -0.2590    7.6169 H   0  0  0  0  0  0  0  0  0  0  0  0
   -6.7488    4.1116    0.0298 H   0  0  0  0  0  0  0  0  0  0  0  0
   -6.7083    6.2019   -1.2813 H   0  0  0  0  0  0  0  0  0  0  0  0
   -5.2167    6.4287   -3.2362 H   0  0  0  0  0  0  0  0  0  0  0  0
   -3.8230    5.3398   -4.9363 H   0  0  0  0  0  0  0  0  0  0  0  0
   -3.3788    3.6122   -4.7709 H   0  0  0  0  0  0  0  0  0  0  0  0
   -1.3768    5.0926   -4.6069 H   0  0  0  0  0  0  0  0  0  0  0  0
   -1.6456    4.2103   -3.0528 H   0  0  0  0  0  0  0  0  0  0  0  0
   -2.1065    5.9583   -3.2009 H   0  0  0  0  0  0  0  0  0  0  0  0
   -3.7453    2.4413   -2.5639 H   0  0  0  0  0  0  0  0  0  0  0  0
   -2.1176   -3.2601    4.0085 H   0  0  0  0  0  0  0  0  0  0  0  0
   -0.4823   -3.6578    4.1884 H   0  0  0  0  0  0  0  0  0  0  0  0
   -0.8748   -3.2860    1.7993 H   0  0  0  0  0  0  0  0  0  0  0  0
    0.2347   -1.9998    2.4165 H   0  0  0  0  0  0  0  0  0  0  0  0
   -1.4993   -1.6265    2.1025 H   0  0  0  0  0  0  0  0  0  0  0  0
   -3.6754   -2.6734    2.7847 H   0  0  0  0  0  0  0  0  0  0  0  0
   -5.2333   -1.9001    2.8333 H   0  0  0  0  0  0  0  0  0  0  0  0
   -5.2535   -1.6004    5.2561 H   0  0  0  0  0  0  0  0  0  0  0  0
   -3.6537   -2.4033    5.4162 H   0  0  0  0  0  0  0  0  0  0  0  0
   -5.0602   -3.3356    4.7936 H   0  0  0  0  0  0  0  0  0  0  0  0
   -7.7790    1.1637   -2.5280 H   0  0  0  0  0  0  0  0  0  0  0  0
   -6.3605    2.8558   -5.6845 H   0  0  0  0  0  0  0  0  0  0  0  0
   -7.8126    3.2735   -6.6530 H   0  0  0  0  0  0  0  0  0  0  0  0
   -9.0842    3.7858   -4.5576 H   0  0  0  0  0  0  0  0  0  0  0  0
   -7.6000    4.8017   -4.7194 H   0  0  0  0  0  0  0  0  0  0  0  0
   -7.6068    3.4075   -3.5773 H   0  0  0  0  0  0  0  0  0  0  0  0
   -5.8024    0.6636   -6.9489 H   0  0  0  0  0  0  0  0  0  0  0  0
   -0.2898   -1.7577   -5.3884 H   0  0  0  0  0  0  0  0  0  0  0  0
    2.1575   -1.5676   -5.7513 H   0  0  0  0  0  0  0  0  0  0  0  0
    4.0528   -0.6781   -7.0502 H   0  0  0  0  0  0  0  0  0  0  0  0
    1.3568    1.1096   -9.8677 H   0  0  0  0  0  0  0  0  0  0  0  0
   -1.0678    0.9173   -9.5326 H   0  0  0  0  0  0  0  0  0  0  0  0
  1  2  2  3
  2  3  1  0
  3  4  2  0
  3  5  1  0
  5  6  2  0
  6  7  1  0
  7  8  2  0
  8  9  1  0
  8 10  1  0
 10 11  2  0
 11 12  1  0
 12 13  2  3
 13 14  1  0
 14 15  3  0
 13 16  1  0
 16 17  3  0
  1 18  1  0
 18 19  2  0
 19 20  1  0
 20 21  1  0
 21 22  1  0
 22 23  1  0
 20 24  2  0
 24 25  1  0
 24 26  1  0
 26 27  2  0
 27 28  1  0
 28 29  2  0
 29 30  1  0
 30 31  2  0
 31 32  1  0
 32 33  1  0
 33 34  1  0
 32 35  2  0
 27 36  1  0
 36 37  1  0
 37 38  1  0
 38 39  1  0
 39 40  1  0
 40 41  1  0
 41 42  2  0
 42 43  1  0
 43 44  1  0
 41 45  1  0
 45 46  1  0
 46 47  1  0
 47 48  1  0
 48 49  1  0
 49 50  1  0
 50 51  2  0
 51 52  1  0
 52 53  2  0
 53 54  1  0
 54 55  1  0
 55 56  1  0
 54 57  2  0
 49 58  2  0
 58 59  1  0
 59 60  1  0
 60 61  1  0
 61 62  1  0
 62 63  1  0
 63 64  1  0
 64 65  1  0
 65 66  1  0
 66 67  1  0
 67 68  1  0
 65 69  1  0
 69 70  1  0
 62 71  1  0
 71 72  1  0
 58 73  1  0
 73 74  2  0
 74 75  1  0
 75 76  1  0
 76 77  1  0
 77 78  1  0
 75 79  2  0
 79 80  1  0
 79 81  1  0
 81 82  2  3
 82 83  1  0
 83 84  2  0
 83 85  1  0
 85 86  2  0
 86 87  1  0
 87 88  2  0
 88 89  1  0
 89 90  2  0
 90 91  1  0
 90 92  1  0
 92 93  2  0
 93 94  1  0
 94 95  2  0
 95 96  1  0
 96 97  2  3
 97 98  1  0
 98 99  3  0
 97100  1  0
100101  3  0
 12  2  1  0
 25 18  1  0
 68 26  1  0
 80 73  1  0
 96 82  1  0
 11  5  1  0
 35 28  1  0
 67 36  2  0
 95 85  1  0
 66 38  2  0
 93 87  1  0
 64 39  2  0
 44 40  2  0
 63 45  2  0
 61 46  2  0
 60 48  2  0
 57 50  1  0
  1102  1  0
  6103  1  0
  7104  1  0
 10105  1  0
 19106  1  0
 22107  1  0
 22108  1  0
 23109  1  0
 23110  1  0
 23111  1  0
 29112  1  0
 30113  1  0
 31114  1  0
 33115  1  0
 33116  1  0
 34117  1  0
 34118  1  0
 34119  1  0
 35120  1  0
 51121  1  0
 52122  1  0
 53123  1  0
 55124  1  0
 55125  1  0
 56126  1  0
 56127  1  0
 56128  1  0
 57129  1  0
 69130  1  0
 69131  1  0
 70132  1  0
 70133  1  0
 70134  1  0
 71135  1  0
 71136  1  0
 72137  1  0
 72138  1  0
 72139  1  0
 74140  1  0
 77141  1  0
 77142  1  0
 78143  1  0
 78144  1  0
 78145  1  0
 81146  1  0
 86147  1  0
 88148  1  0
 89149  1  0
 92150  1  0
 94151  1  0
M  END

