
     RDKit          3D

194215  0  0  0  0  0  0  0  0999 V2000
   -8.9478    6.2744    4.5716 C   0  0  0  0  0  0  0  0  0  0  0  0
   -9.2761    5.5956    3.4527 C   0  0  0  0  0  0  0  0  0  0  0  0
   -8.4799    4.4944    2.8488 C   0  0  0  0  0  0  0  0  0  0  0  0
   -7.3288    4.1101    3.1876 O   0  0  0  0  0  0  0  0  0  0  0  0
   -9.2471    3.9443    1.7598 C   0  0  0  0  0  0  0  0  0  0  0  0
   -9.0155    2.9667    0.7965 C   0  0  0  0  0  0  0  0  0  0  0  0
  -10.0730    2.9126   -0.1110 C   0  0  0  0  0  0  0  0  0  0  0  0
  -10.1716    1.8338   -1.4871 Cl  0  0  0  0  0  0  0  0  0  0  0  0
  -11.2462    4.0835    0.2825 S   0  0  0  0  0  0  0  0  0  0  0  0
  -10.4074    4.6349    1.6345 C   0  0  0  0  0  0  0  0  0  0  0  0
  -10.5182    5.7292    2.6159 C   0  0  0  0  0  0  0  0  0  0  0  0
  -11.4747    6.6854    2.6242 C   0  0  0  0  0  0  0  0  0  0  0  0
  -12.5821    6.6345    1.7028 C   0  0  0  0  0  0  0  0  0  0  0  0
  -13.4751    6.5987    0.9681 N   0  0  0  0  0  0  0  0  0  0  0  0
  -11.4309    7.8338    3.4910 C   0  0  0  0  0  0  0  0  0  0  0  0
  -11.4089    8.7661    4.1775 N   0  0  0  0  0  0  0  0  0  0  0  0
   -7.6664    6.0541    5.2679 C   0  0  0  0  0  0  0  0  0  0  0  0
   -6.5851    6.9000    4.9837 C   0  0  0  0  0  0  0  0  0  0  0  0
   -6.7696    8.0092    4.2236 F   0  0  0  0  0  0  0  0  0  0  0  0
   -5.2907    6.5405    5.3679 C   0  0  0  0  0  0  0  0  0  0  0  0
   -4.2423    7.2972    4.9475 F   0  0  0  0  0  0  0  0  0  0  0  0
   -5.0642    5.3382    6.0594 C   0  0  0  0  0  0  0  0  0  0  0  0
   -6.1568    4.5440    6.4397 C   0  0  0  0  0  0  0  0  0  0  0  0
   -5.9630    3.3660    7.0879 N   0  0  0  0  0  0  0  0  0  0  0  0
   -6.9882    2.5229    7.3807 C   0  0  0  0  0  0  0  0  0  0  0  0
   -6.6619    1.2495    8.1102 C   0  0  0  0  0  0  0  0  0  0  0  0
   -6.7201    1.4555    9.6207 C   0  0  0  0  0  0  0  0  0  0  0  0
   -8.3038    2.8942    7.0107 C   0  0  0  0  0  0  0  0  0  0  0  0
   -8.4878    4.0651    6.3419 N   0  0  0  0  0  0  0  0  0  0  0  0
   -7.4599    4.9040    6.0504 C   0  0  0  0  0  0  0  0  0  0  0  0
   -9.5039    2.0094    7.2248 C   0  0  0  0  0  0  0  0  0  0  0  0
   -9.7291    1.1139    6.0095 C   0  0  0  0  0  0  0  0  0  0  0  0
   -3.7291    4.7306    5.9903 C   0  0  0  0  0  0  0  0  0  0  0  0
   -2.7000    4.7325    6.9590 C   0  0  0  0  0  0  0  0  0  0  0  0
   -2.7679    5.4075    8.2735 C   0  0  0  0  0  0  0  0  0  0  0  0
   -3.2444    6.7228    8.3831 C   0  0  0  0  0  0  0  0  0  0  0  0
   -3.3338    7.3393    9.6331 C   0  0  0  0  0  0  0  0  0  0  0  0
   -2.9476    6.6517   10.7845 C   0  0  0  0  0  0  0  0  0  0  0  0
   -2.4754    5.3323   10.6932 C   0  0  0  0  0  0  0  0  0  0  0  0
   -2.0611    4.5847   11.9331 C   0  0  0  0  0  0  0  0  0  0  0  0
   -0.5430    4.5738   12.0817 C   0  0  0  0  0  0  0  0  0  0  0  0
   -2.3793    4.7186    9.4353 C   0  0  0  0  0  0  0  0  0  0  0  0
   -1.6210    3.9505    6.5122 C   0  0  0  0  0  0  0  0  0  0  0  0
   -0.0095    3.7062    7.0428 S   0  0  0  0  0  0  0  0  0  0  0  0
    0.3477    2.7634    5.6664 C   0  0  0  0  0  0  0  0  0  0  0  0
    1.4572    2.3886    4.9456 C   0  0  0  0  0  0  0  0  0  0  0  0
    2.8313    2.5836    5.1634 C   0  0  0  0  0  0  0  0  0  0  0  0
    3.7461    2.3430    4.0850 C   0  0  0  0  0  0  0  0  0  0  0  0
    5.0602    2.5633    4.3305 N   0  0  0  0  0  0  0  0  0  0  0  0
    4.9647    3.0647    5.9072 S   0  0  0  0  0  0  0  0  0  0  0  0
    3.3621    3.0283    6.3278 N   0  0  0  0  0  0  0  0  0  0  0  0
    3.2338    1.8975    2.8576 C   0  0  0  0  0  0  0  0  0  0  0  0
    3.8228    1.4827    1.6882 C   0  0  0  0  0  0  0  0  0  0  0  0
    5.3661    1.2211    1.0140 S   0  0  0  0  0  0  0  0  0  0  0  0
    4.6828    0.4098   -0.3336 C   0  0  0  0  0  0  0  0  0  0  0  0
    5.2065   -0.2712   -1.4429 C   0  0  0  0  0  0  0  0  0  0  0  0
    6.6467   -0.3819   -1.7625 C   0  0  0  0  0  0  0  0  0  0  0  0
    7.4718    0.7533   -1.7397 C   0  0  0  0  0  0  0  0  0  0  0  0
    8.8253    0.6479   -2.0682 C   0  0  0  0  0  0  0  0  0  0  0  0
    9.3684   -0.5894   -2.4209 C   0  0  0  0  0  0  0  0  0  0  0  0
    8.5560   -1.7334   -2.4514 C   0  0  0  0  0  0  0  0  0  0  0  0
    9.1360   -3.0808   -2.7933 C   0  0  0  0  0  0  0  0  0  0  0  0
    9.3749   -3.9061   -1.5323 C   0  0  0  0  0  0  0  0  0  0  0  0
    7.1997   -1.6246   -2.1109 C   0  0  0  0  0  0  0  0  0  0  0  0
    4.1675   -0.9032   -2.1617 C   0  0  0  0  0  0  0  0  0  0  0  0
    2.6623   -0.5994   -1.4261 S   0  0  0  0  0  0  0  0  0  0  0  0
    3.3219    0.3208   -0.2054 C   0  0  0  0  0  0  0  0  0  0  0  0
    2.8370    0.9414    0.9265 C   0  0  0  0  0  0  0  0  0  0  0  0
    1.6260    0.9524    1.5267 N   0  0  0  0  0  0  0  0  0  0  0  0
    1.8677    1.6402    2.6824 C   0  0  0  0  0  0  0  0  0  0  0  0
    0.9633    1.9976    3.6947 C   0  0  0  0  0  0  0  0  0  0  0  0
   -0.3692    2.2742    3.5699 N   0  0  0  0  0  0  0  0  0  0  0  0
   -0.7122    2.6770    4.8171 C   0  0  0  0  0  0  0  0  0  0  0  0
   -1.8144    3.3622    5.2883 C   0  0  0  0  0  0  0  0  0  0  0  0
   -3.2959    3.7743    4.6549 S   0  0  0  0  0  0  0  0  0  0  0  0
   -1.0416    2.7520    2.3474 C   0  0  0  0  0  0  0  0  0  0  0  0
   -0.7597    4.2396    2.1174 C   0  0  0  0  0  0  0  0  0  0  0  0
    0.5731   -0.0528    1.3115 C   0  0  0  0  0  0  0  0  0  0  0  0
    1.0496   -1.4445    1.7249 C   0  0  0  0  0  0  0  0  0  0  0  0
    4.2833   -1.7467   -3.3563 C   0  0  0  0  0  0  0  0  0  0  0  0
    3.4082   -3.1683   -3.5602 S   0  0  0  0  0  0  0  0  0  0  0  0
    3.8257   -3.3614   -5.1661 C   0  0  0  0  0  0  0  0  0  0  0  0
    3.2909   -4.3145   -6.1013 C   0  0  0  0  0  0  0  0  0  0  0  0
    3.5040   -4.1500   -7.4442 C   0  0  0  0  0  0  0  0  0  0  0  0
    4.3096   -3.1067   -7.9285 O   0  0  0  0  0  0  0  0  0  0  0  0
    4.9925   -2.1428   -7.0812 C   0  0  0  0  0  0  0  0  0  0  0  0
    4.5751   -0.7674   -7.6172 C   0  0  0  0  0  0  0  0  0  0  0  0
    3.4092   -0.1332   -7.1387 C   0  0  0  0  0  0  0  0  0  0  0  0
    2.9821    1.0805   -7.6787 C   0  0  0  0  0  0  0  0  0  0  0  0
    3.6777    1.6687   -8.7436 C   0  0  0  0  0  0  0  0  0  0  0  0
    3.2397    3.0009   -9.2900 C   0  0  0  0  0  0  0  0  0  0  0  0
    3.8182    4.1397   -8.4546 C   0  0  0  0  0  0  0  0  0  0  0  0
    4.8034    1.0207   -9.2661 C   0  0  0  0  0  0  0  0  0  0  0  0
    5.2291   -0.1977   -8.7312 C   0  0  0  0  0  0  0  0  0  0  0  0
    6.5025   -2.3793   -7.1715 C   0  0  0  0  0  0  0  0  0  0  0  0
    7.4171   -1.3745   -6.7961 C   0  0  0  0  0  0  0  0  0  0  0  0
    8.7938   -1.5966   -6.8793 C   0  0  0  0  0  0  0  0  0  0  0  0
    9.2895   -2.8340   -7.3175 C   0  0  0  0  0  0  0  0  0  0  0  0
   10.7729   -3.0676   -7.4119 C   0  0  0  0  0  0  0  0  0  0  0  0
   11.3748   -3.3182   -6.0343 C   0  0  0  0  0  0  0  0  0  0  0  0
    8.3880   -3.8583   -7.6329 C   0  0  0  0  0  0  0  0  0  0  0  0
    7.0108   -3.6370   -7.5568 C   0  0  0  0  0  0  0  0  0  0  0  0
    4.6083   -2.3061   -5.5990 C   0  0  0  0  0  0  0  0  0  0  0  0
    4.8948   -1.3978   -4.5593 C   0  0  0  0  0  0  0  0  0  0  0  0
    2.8104   -5.0727   -8.2372 C   0  0  0  0  0  0  0  0  0  0  0  0
    2.0599   -5.9697   -7.4736 C   0  0  0  0  0  0  0  0  0  0  0  0
    2.2252   -5.5712   -5.8339 S   0  0  0  0  0  0  0  0  0  0  0  0
    1.0927   -6.9492   -8.0003 C   0  0  0  0  0  0  0  0  0  0  0  0
    0.7256   -8.0492   -7.3220 C   0  0  0  0  0  0  0  0  0  0  0  0
   -0.6495   -8.5500   -7.3211 C   0  0  0  0  0  0  0  0  0  0  0  0
   -1.5186   -8.3323   -8.2077 O   0  0  0  0  0  0  0  0  0  0  0  0
   -0.8886   -9.2035   -6.0434 C   0  0  0  0  0  0  0  0  0  0  0  0
   -2.1030   -9.6118   -5.4935 C   0  0  0  0  0  0  0  0  0  0  0  0
   -2.1285  -10.0240   -4.1472 C   0  0  0  0  0  0  0  0  0  0  0  0
   -3.3345  -10.4139   -3.5443 C   0  0  0  0  0  0  0  0  0  0  0  0
   -3.3612  -10.7710   -2.1924 C   0  0  0  0  0  0  0  0  0  0  0  0
   -4.5334  -11.1393   -1.6171 F   0  0  0  0  0  0  0  0  0  0  0  0
   -2.1882  -10.7382   -1.4306 C   0  0  0  0  0  0  0  0  0  0  0  0
   -2.2261  -11.0768   -0.1185 F   0  0  0  0  0  0  0  0  0  0  0  0
   -0.9776  -10.3548   -2.0169 C   0  0  0  0  0  0  0  0  0  0  0  0
   -0.9312   -9.9991   -3.3744 C   0  0  0  0  0  0  0  0  0  0  0  0
    0.2820   -9.5888   -3.9625 C   0  0  0  0  0  0  0  0  0  0  0  0
    0.2869   -9.2140   -5.3122 C   0  0  0  0  0  0  0  0  0  0  0  0
    1.3828   -8.6379   -6.1254 C   0  0  0  0  0  0  0  0  0  0  0  0
    2.7077   -8.8919   -6.0034 C   0  0  0  0  0  0  0  0  0  0  0  0
    3.6376   -8.5537   -7.0543 C   0  0  0  0  0  0  0  0  0  0  0  0
    4.3824   -8.2839   -7.9003 N   0  0  0  0  0  0  0  0  0  0  0  0
    3.2485   -9.6452   -4.9021 C   0  0  0  0  0  0  0  0  0  0  0  0
    3.6887  -10.2569   -4.0223 N   0  0  0  0  0  0  0  0  0  0  0  0
   -9.5939    7.0232    4.9879 H   0  0  0  0  0  0  0  0  0  0  0  0
   -8.1301    2.3509    0.7430 H   0  0  0  0  0  0  0  0  0  0  0  0
   -5.6334    0.9264    7.8357 H   0  0  0  0  0  0  0  0  0  0  0  0
   -7.3409    0.4236    7.8143 H   0  0  0  0  0  0  0  0  0  0  0  0
   -5.9854    2.2294    9.9300 H   0  0  0  0  0  0  0  0  0  0  0  0
   -7.7371    1.7715    9.9342 H   0  0  0  0  0  0  0  0  0  0  0  0
   -6.4727    0.5010   10.1348 H   0  0  0  0  0  0  0  0  0  0  0  0
  -10.4017    2.6466    7.3707 H   0  0  0  0  0  0  0  0  0  0  0  0
   -9.3986    1.3904    8.1389 H   0  0  0  0  0  0  0  0  0  0  0  0
   -9.7918    1.7251    5.0814 H   0  0  0  0  0  0  0  0  0  0  0  0
   -8.8963    0.3877    5.9015 H   0  0  0  0  0  0  0  0  0  0  0  0
  -10.6800    0.5538    6.1274 H   0  0  0  0  0  0  0  0  0  0  0  0
   -3.5353    7.2819    7.5028 H   0  0  0  0  0  0  0  0  0  0  0  0
   -3.7011    8.3546    9.7113 H   0  0  0  0  0  0  0  0  0  0  0  0
   -3.0230    7.1431   11.7465 H   0  0  0  0  0  0  0  0  0  0  0  0
   -2.4346    3.5394   11.8831 H   0  0  0  0  0  0  0  0  0  0  0  0
   -2.5089    5.0520   12.8377 H   0  0  0  0  0  0  0  0  0  0  0  0
   -0.0702    4.0664   11.2132 H   0  0  0  0  0  0  0  0  0  0  0  0
   -0.2656    4.0258   13.0064 H   0  0  0  0  0  0  0  0  0  0  0  0
   -0.1557    5.6125   12.1535 H   0  0  0  0  0  0  0  0  0  0  0  0
   -2.0252    3.6973    9.3656 H   0  0  0  0  0  0  0  0  0  0  0  0
    7.0625    1.7246   -1.4875 H   0  0  0  0  0  0  0  0  0  0  0  0
    9.4543    1.5269   -2.0476 H   0  0  0  0  0  0  0  0  0  0  0  0
   10.4202   -0.6576   -2.6716 H   0  0  0  0  0  0  0  0  0  0  0  0
   10.0984   -2.9639   -3.3336 H   0  0  0  0  0  0  0  0  0  0  0  0
    8.4400   -3.6278   -3.4677 H   0  0  0  0  0  0  0  0  0  0  0  0
    8.4160   -4.0858   -0.9996 H   0  0  0  0  0  0  0  0  0  0  0  0
    9.8154   -4.8875   -1.8109 H   0  0  0  0  0  0  0  0  0  0  0  0
   10.0776   -3.3755   -0.8533 H   0  0  0  0  0  0  0  0  0  0  0  0
    6.5825   -2.5162   -2.0973 H   0  0  0  0  0  0  0  0  0  0  0  0
   -2.1334    2.5764    2.4232 H   0  0  0  0  0  0  0  0  0  0  0  0
   -0.6986    2.2202    1.4453 H   0  0  0  0  0  0  0  0  0  0  0  0
    0.3062    4.3796    1.8441 H   0  0  0  0  0  0  0  0  0  0  0  0
   -1.3902    4.6137    1.2854 H   0  0  0  0  0  0  0  0  0  0  0  0
   -0.9765    4.8365    3.0258 H   0  0  0  0  0  0  0  0  0  0  0  0
   -0.3181    0.1591    1.9309 H   0  0  0  0  0  0  0  0  0  0  0  0
    0.2661   -0.0555    0.2441 H   0  0  0  0  0  0  0  0  0  0  0  0
    1.4054   -1.4348    2.7761 H   0  0  0  0  0  0  0  0  0  0  0  0
    0.2099   -2.1640    1.6340 H   0  0  0  0  0  0  0  0  0  0  0  0
    1.8776   -1.7914    1.0732 H   0  0  0  0  0  0  0  0  0  0  0  0
    2.8150   -0.5794   -6.3526 H   0  0  0  0  0  0  0  0  0  0  0  0
    2.0970    1.5551   -7.2728 H   0  0  0  0  0  0  0  0  0  0  0  0
    3.5733    3.1143  -10.3453 H   0  0  0  0  0  0  0  0  0  0  0  0
    2.1290    3.0675   -9.2833 H   0  0  0  0  0  0  0  0  0  0  0  0
    4.9290    4.0950   -8.4601 H   0  0  0  0  0  0  0  0  0  0  0  0
    3.4539    4.0734   -7.4074 H   0  0  0  0  0  0  0  0  0  0  0  0
    3.4976    5.1154   -8.8793 H   0  0  0  0  0  0  0  0  0  0  0  0
    5.3451    1.4520  -10.0973 H   0  0  0  0  0  0  0  0  0  0  0  0
    6.0736   -0.6954   -9.1936 H   0  0  0  0  0  0  0  0  0  0  0  0
    7.0670   -0.4086   -6.4580 H   0  0  0  0  0  0  0  0  0  0  0  0
    9.4766   -0.8046   -6.6012 H   0  0  0  0  0  0  0  0  0  0  0  0
   11.2615   -2.1844   -7.8728 H   0  0  0  0  0  0  0  0  0  0  0  0
   10.9871   -3.9403   -8.0629 H   0  0  0  0  0  0  0  0  0  0  0  0
   10.8770   -4.1863   -5.5481 H   0  0  0  0  0  0  0  0  0  0  0  0
   11.2553   -2.4171   -5.3939 H   0  0  0  0  0  0  0  0  0  0  0  0
   12.4579   -3.5388   -6.1361 H   0  0  0  0  0  0  0  0  0  0  0  0
    8.7490   -4.8317   -7.9425 H   0  0  0  0  0  0  0  0  0  0  0  0
    6.3499   -4.4584   -7.7961 H   0  0  0  0  0  0  0  0  0  0  0  0
    5.4460   -0.4758   -4.7022 H   0  0  0  0  0  0  0  0  0  0  0  0
    2.8321   -5.0666   -9.3221 H   0  0  0  0  0  0  0  0  0  0  0  0
    0.5035   -6.6396   -8.8530 H   0  0  0  0  0  0  0  0  0  0  0  0
   -3.0122   -9.5673   -6.0822 H   0  0  0  0  0  0  0  0  0  0  0  0
   -4.2561  -10.4329   -4.1147 H   0  0  0  0  0  0  0  0  0  0  0  0
   -0.0800  -10.3348   -1.4108 H   0  0  0  0  0  0  0  0  0  0  0  0
    1.1757   -9.5075   -3.3583 H   0  0  0  0  0  0  0  0  0  0  0  0
  1  2  2  3
  2  3  1  0
  3  4  2  0
  3  5  1  0
  5  6  1  0
  6  7  2  0
  7  8  1  0
  7  9  1  0
  9 10  1  0
 10 11  1  0
 11 12  2  3
 12 13  1  0
 13 14  3  0
 12 15  1  0
 15 16  3  0
  1 17  1  0
 17 18  2  0
 18 19  1  0
 18 20  1  0
 20 21  1  0
 20 22  2  0
 22 23  1  0
 23 24  2  0
 24 25  1  0
 25 26  1  0
 26 27  1  0
 25 28  2  0
 28 29  1  0
 29 30  2  0
 28 31  1  0
 31 32  1  0
 22 33  1  0
 33 34  2  0
 34 35  1  0
 35 36  2  0
 36 37  1  0
 37 38  2  0
 38 39  1  0
 39 40  1  0
 40 41  1  0
 39 42  2  0
 34 43  1  0
 43 44  1  0
 44 45  1  0
 45 46  1  0
 46 47  1  0
 47 48  1  0
 48 49  2  0
 49 50  1  0
 50 51  1  0
 48 52  1  0
 52 53  1  0
 53 54  1  0
 54 55  1  0
 55 56  1  0
 56 57  1  0
 57 58  2  0
 58 59  1  0
 59 60  2  0
 60 61  1  0
 61 62  1  0
 62 63  1  0
 61 64  2  0
 56 65  2  0
 65 66  1  0
 66 67  1  0
 67 68  1  0
 68 69  1  0
 69 70  1  0
 70 71  1  0
 71 72  1  0
 72 73  1  0
 73 74  1  0
 74 75  1  0
 72 76  1  0
 76 77  1  0
 69 78  1  0
 78 79  1  0
 65 80  1  0
 80 81  1  0
 81 82  1  0
 82 83  1  0
 83 84  2  0
 84 85  1  0
 85 86  1  0
 86 87  1  0
 87 88  2  0
 88 89  1  0
 89 90  2  0
 90 91  1  0
 91 92  1  0
 90 93  1  0
 93 94  2  0
 86 95  1  0
 95 96  2  0
 96 97  1  0
 97 98  2  0
 98 99  1  0
 99100  1  0
 98101  1  0
101102  2  0
 86103  1  0
103104  1  0
 84105  1  0
105106  2  0
106107  1  0
106108  1  0
108109  2  3
109110  1  0
110111  2  0
110112  1  0
112113  2  0
113114  1  0
114115  2  0
115116  1  0
116117  1  0
116118  2  0
118119  1  0
118120  1  0
120121  2  0
121122  1  0
122123  2  0
123124  1  0
124125  2  3
125126  1  0
126127  3  0
125128  1  0
128129  3  0
 11  2  1  0
 30 17  1  0
 75 33  1  0
104 80  2  0
124109  1  0
 10  5  2  0
 30 23  1  0
 42 35  1  0
 74 43  2  0
103 82  2  0
123112  1  0
 73 45  2  0
107 83  1  0
121114  1  0
 71 46  2  0
 94 87  1  0
102 95  1  0
 51 47  2  0
 70 52  2  0
 68 53  2  0
 67 55  2  0
 64 57  1  0
  1130  1  0
  6131  1  0
 26132  1  0
 26133  1  0
 27134  1  0
 27135  1  0
 27136  1  0
 31137  1  0
 31138  1  0
 32139  1  0
 32140  1  0
 32141  1  0
 36142  1  0
 37143  1  0
 38144  1  0
 40145  1  0
 40146  1  0
 41147  1  0
 41148  1  0
 41149  1  0
 42150  1  0
 58151  1  0
 59152  1  0
 60153  1  0
 62154  1  0
 62155  1  0
 63156  1  0
 63157  1  0
 63158  1  0
 64159  1  0
 76160  1  0
 76161  1  0
 77162  1  0
 77163  1  0
 77164  1  0
 78165  1  0
 78166  1  0
 79167  1  0
 79168  1  0
 79169  1  0
 88170  1  0
 89171  1  0
 91172  1  0
 91173  1  0
 92174  1  0
 92175  1  0
 92176  1  0
 93177  1  0
 94178  1  0
 96179  1  0
 97180  1  0
 99181  1  0
 99182  1  0
100183  1  0
100184  1  0
100185  1  0
101186  1  0
102187  1  0
104188  1  0
105189  1  0
108190  1  0
113191  1  0
115192  1  0
120193  1  0
122194  1  0
M  END

