
     RDKit          3D

246271  0  0  0  0  0  0  0  0999 V2000
   -7.9060   -4.9883    2.7794 C   0  0  0  0  0  0  0  0  0  0  0  0
   -7.9919   -6.2460    2.3161 C   0  0  0  0  0  0  0  0  0  0  0  0
   -6.9514   -7.2824    2.4634 C   0  0  0  0  0  0  0  0  0  0  0  0
   -5.7208   -7.0957    2.6619 O   0  0  0  0  0  0  0  0  0  0  0  0
   -7.5660   -8.5620    2.2199 C   0  0  0  0  0  0  0  0  0  0  0  0
   -7.1468   -9.8829    2.3154 C   0  0  0  0  0  0  0  0  0  0  0  0
   -8.2039  -10.7527    2.0480 C   0  0  0  0  0  0  0  0  0  0  0  0
   -8.1081  -12.5018    2.0913 Cl  0  0  0  0  0  0  0  0  0  0  0  0
   -9.6276   -9.8780    1.7325 S   0  0  0  0  0  0  0  0  0  0  0  0
   -8.8712   -8.3844    1.9100 C   0  0  0  0  0  0  0  0  0  0  0  0
   -9.2496   -6.9617    1.8948 C   0  0  0  0  0  0  0  0  0  0  0  0
  -10.4920   -6.4856    1.6189 C   0  0  0  0  0  0  0  0  0  0  0  0
  -11.5939   -7.3816    1.3751 C   0  0  0  0  0  0  0  0  0  0  0  0
  -12.4785   -8.1107    1.1973 N   0  0  0  0  0  0  0  0  0  0  0  0
  -10.7940   -5.0870    1.5230 C   0  0  0  0  0  0  0  0  0  0  0  0
  -11.0496   -3.9600    1.4439 N   0  0  0  0  0  0  0  0  0  0  0  0
   -6.8018   -4.4854    3.6129 C   0  0  0  0  0  0  0  0  0  0  0  0
   -5.4883   -4.1482    3.2122 C   0  0  0  0  0  0  0  0  0  0  0  0
   -4.9673   -4.2584    1.8716 N   0  0  0  0  0  0  0  0  0  0  0  0
   -5.7308   -3.7218    0.7754 C   0  0  0  0  0  0  0  0  0  0  0  0
   -5.7984   -4.4142   -0.4438 C   0  0  0  0  0  0  0  0  0  0  0  0
   -6.4313   -3.8374   -1.5476 C   0  0  0  0  0  0  0  0  0  0  0  0
   -6.9922   -2.5539   -1.4547 C   0  0  0  0  0  0  0  0  0  0  0  0
   -7.6633   -1.9310   -2.6409 C   0  0  0  0  0  0  0  0  0  0  0  0
   -6.9612   -1.8774   -0.2236 C   0  0  0  0  0  0  0  0  0  0  0  0
   -6.3275   -2.4509    0.8794 C   0  0  0  0  0  0  0  0  0  0  0  0
   -3.5672   -4.5924    1.6891 C   0  0  0  0  0  0  0  0  0  0  0  0
   -2.9321   -5.5087    2.5490 C   0  0  0  0  0  0  0  0  0  0  0  0
   -1.5704   -5.7994    2.4076 C   0  0  0  0  0  0  0  0  0  0  0  0
   -0.8138   -5.1685    1.4140 C   0  0  0  0  0  0  0  0  0  0  0  0
    0.6350   -5.5172    1.2347 C   0  0  0  0  0  0  0  0  0  0  0  0
   -1.4336   -4.2575    0.5465 C   0  0  0  0  0  0  0  0  0  0  0  0
   -2.7953   -3.9634    0.6894 C   0  0  0  0  0  0  0  0  0  0  0  0
   -4.8633   -3.3597    4.1824 C   0  0  0  0  0  0  0  0  0  0  0  0
   -3.6753   -2.1937    4.0090 S   0  0  0  0  0  0  0  0  0  0  0  0
   -4.1475   -1.2542    5.3466 C   0  0  0  0  0  0  0  0  0  0  0  0
   -5.2438   -1.8968    5.9560 C   0  0  0  0  0  0  0  0  0  0  0  0
   -5.9682   -1.3954    7.0860 N   0  0  0  0  0  0  0  0  0  0  0  0
   -6.8840   -0.2786    6.9831 C   0  0  0  0  0  0  0  0  0  0  0  0
   -7.4547    0.0791    5.7467 C   0  0  0  0  0  0  0  0  0  0  0  0
   -8.3810    1.1227    5.6683 C   0  0  0  0  0  0  0  0  0  0  0  0
   -8.7647    1.8182    6.8240 C   0  0  0  0  0  0  0  0  0  0  0  0
   -9.7394    2.9513    6.7286 C   0  0  0  0  0  0  0  0  0  0  0  0
   -8.1846    1.4793    8.0563 C   0  0  0  0  0  0  0  0  0  0  0  0
   -7.2578    0.4376    8.1358 C   0  0  0  0  0  0  0  0  0  0  0  0
   -5.9625   -2.2180    8.2606 C   0  0  0  0  0  0  0  0  0  0  0  0
   -7.1186   -2.9253    8.6315 C   0  0  0  0  0  0  0  0  0  0  0  0
   -7.0866   -3.8151    9.7066 C   0  0  0  0  0  0  0  0  0  0  0  0
   -5.9016   -4.0008   10.4347 C   0  0  0  0  0  0  0  0  0  0  0  0
   -5.8497   -4.9625   11.5828 C   0  0  0  0  0  0  0  0  0  0  0  0
   -4.7455   -3.2904   10.0724 C   0  0  0  0  0  0  0  0  0  0  0  0
   -4.7742   -2.4130    8.9815 C   0  0  0  0  0  0  0  0  0  0  0  0
   -5.6122   -3.0587    5.2787 C   0  0  0  0  0  0  0  0  0  0  0  0
   -7.1226   -3.7666    5.1190 S   0  0  0  0  0  0  0  0  0  0  0  0
   -4.0164    0.1974    5.2530 C   0  0  0  0  0  0  0  0  0  0  0  0
   -3.0843    0.9999    5.9386 C   0  0  0  0  0  0  0  0  0  0  0  0
   -2.1886    0.4927    6.9853 C   0  0  0  0  0  0  0  0  0  0  0  0
   -2.4051    0.8242    8.3262 C   0  0  0  0  0  0  0  0  0  0  0  0
   -1.5568    0.3270    9.3172 C   0  0  0  0  0  0  0  0  0  0  0  0
   -0.4810   -0.4993    8.9715 C   0  0  0  0  0  0  0  0  0  0  0  0
   -0.2494   -0.8243    7.6267 C   0  0  0  0  0  0  0  0  0  0  0  0
    0.8959   -1.7229    7.2404 C   0  0  0  0  0  0  0  0  0  0  0  0
    0.4463   -3.1768    7.1544 C   0  0  0  0  0  0  0  0  0  0  0  0
   -1.1154   -0.3404    6.6366 C   0  0  0  0  0  0  0  0  0  0  0  0
   -2.8831    2.2171    5.2661 C   0  0  0  0  0  0  0  0  0  0  0  0
   -1.5869    3.3362    5.2902 S   0  0  0  0  0  0  0  0  0  0  0  0
   -2.0253    3.9687    3.7747 C   0  0  0  0  0  0  0  0  0  0  0  0
   -1.3362    4.5227    2.7246 C   0  0  0  0  0  0  0  0  0  0  0  0
   -0.3227    5.4787    2.6558 C   0  0  0  0  0  0  0  0  0  0  0  0
    0.0852    5.9593    1.3714 C   0  0  0  0  0  0  0  0  0  0  0  0
    1.0613    6.8935    1.3534 N   0  0  0  0  0  0  0  0  0  0  0  0
    1.3256    7.0641    2.9810 S   0  0  0  0  0  0  0  0  0  0  0  0
    0.2807    6.0245    3.7399 N   0  0  0  0  0  0  0  0  0  0  0  0
   -0.4967    5.3935    0.2199 C   0  0  0  0  0  0  0  0  0  0  0  0
   -0.0526    5.3834   -1.0754 C   0  0  0  0  0  0  0  0  0  0  0  0
    1.3313    5.9642   -1.8582 S   0  0  0  0  0  0  0  0  0  0  0  0
    1.2367    4.7272   -3.0181 C   0  0  0  0  0  0  0  0  0  0  0  0
    2.1611    4.2844   -3.9607 C   0  0  0  0  0  0  0  0  0  0  0  0
    3.3001    5.1129   -4.3711 C   0  0  0  0  0  0  0  0  0  0  0  0
    4.4746    5.1478   -3.6093 C   0  0  0  0  0  0  0  0  0  0  0  0
    5.5754    5.8861   -4.0574 C   0  0  0  0  0  0  0  0  0  0  0  0
    5.5075    6.5898   -5.2634 C   0  0  0  0  0  0  0  0  0  0  0  0
    4.3204    6.5812   -6.0181 C   0  0  0  0  0  0  0  0  0  0  0  0
    4.2234    7.3491   -7.3128 C   0  0  0  0  0  0  0  0  0  0  0  0
    3.8948    6.4272   -8.4913 C   0  0  0  0  0  0  0  0  0  0  0  0
    3.2150    5.8497   -5.5562 C   0  0  0  0  0  0  0  0  0  0  0  0
    1.8618    2.9822   -4.4347 C   0  0  0  0  0  0  0  0  0  0  0  0
    0.4284    2.4628   -3.6575 S   0  0  0  0  0  0  0  0  0  0  0  0
    0.2103    3.8664   -2.7583 C   0  0  0  0  0  0  0  0  0  0  0  0
   -0.5542    4.2552   -1.6582 C   0  0  0  0  0  0  0  0  0  0  0  0
   -1.3575    3.5493   -0.8187 N   0  0  0  0  0  0  0  0  0  0  0  0
   -1.4053    4.3315    0.3080 C   0  0  0  0  0  0  0  0  0  0  0  0
   -1.9437    4.0170    1.5699 C   0  0  0  0  0  0  0  0  0  0  0  0
   -3.0507    3.2838    1.8767 N   0  0  0  0  0  0  0  0  0  0  0  0
   -3.0640    3.2727    3.2301 C   0  0  0  0  0  0  0  0  0  0  0  0
   -3.5960    2.3398    4.0970 C   0  0  0  0  0  0  0  0  0  0  0  0
   -4.5205    0.9872    3.8345 S   0  0  0  0  0  0  0  0  0  0  0  0
   -4.1921    2.9608    1.0023 C   0  0  0  0  0  0  0  0  0  0  0  0
   -5.4133    3.8013    1.3722 C   0  0  0  0  0  0  0  0  0  0  0  0
   -1.4565    2.0798   -0.8331 C   0  0  0  0  0  0  0  0  0  0  0  0
   -0.1739    1.4438   -0.2995 C   0  0  0  0  0  0  0  0  0  0  0  0
    2.8120    2.0873   -5.1526 C   0  0  0  0  0  0  0  0  0  0  0  0
    2.9272    0.6873   -4.9760 C   0  0  0  0  0  0  0  0  0  0  0  0
    1.9733   -0.1418   -4.2868 N   0  0  0  0  0  0  0  0  0  0  0  0
    2.1833   -0.4307   -2.8808 C   0  0  0  0  0  0  0  0  0  0  0  0
    2.9050    0.4643   -2.0612 C   0  0  0  0  0  0  0  0  0  0  0  0
    3.1007    0.1910   -0.7051 C   0  0  0  0  0  0  0  0  0  0  0  0
    2.5806   -0.9780   -0.1369 C   0  0  0  0  0  0  0  0  0  0  0  0
    2.8005   -1.2712    1.3143 C   0  0  0  0  0  0  0  0  0  0  0  0
    1.9059   -1.8956   -0.9538 C   0  0  0  0  0  0  0  0  0  0  0  0
    1.7108   -1.6275   -2.3100 C   0  0  0  0  0  0  0  0  0  0  0  0
    0.9554   -0.8051   -5.0699 C   0  0  0  0  0  0  0  0  0  0  0  0
    1.2621   -1.3512   -6.3310 C   0  0  0  0  0  0  0  0  0  0  0  0
    0.2831   -2.0094   -7.0805 C   0  0  0  0  0  0  0  0  0  0  0  0
   -1.0277   -2.1167   -6.5931 C   0  0  0  0  0  0  0  0  0  0  0  0
   -2.0536   -2.8784   -7.3789 C   0  0  0  0  0  0  0  0  0  0  0  0
   -1.3417   -1.5716   -5.3383 C   0  0  0  0  0  0  0  0  0  0  0  0
   -0.3631   -0.9100   -4.5899 C   0  0  0  0  0  0  0  0  0  0  0  0
    4.1923    0.2230   -5.3328 C   0  0  0  0  0  0  0  0  0  0  0  0
    5.0287   -1.1895   -5.0105 S   0  0  0  0  0  0  0  0  0  0  0  0
    6.5545   -0.5332   -5.4125 C   0  0  0  0  0  0  0  0  0  0  0  0
    6.3728    0.7662   -5.9262 C   0  0  0  0  0  0  0  0  0  0  0  0
    7.3605    1.5454   -6.6401 N   0  0  0  0  0  0  0  0  0  0  0  0
    8.6772    1.7074   -6.0930 C   0  0  0  0  0  0  0  0  0  0  0  0
    8.8769    2.5168   -4.9716 C   0  0  0  0  0  0  0  0  0  0  0  0
   10.1666    2.7508   -4.4911 C   0  0  0  0  0  0  0  0  0  0  0  0
   11.2752    2.1555   -5.1208 C   0  0  0  0  0  0  0  0  0  0  0  0
   12.6625    2.3984   -4.6132 C   0  0  0  0  0  0  0  0  0  0  0  0
   11.0706    1.3637   -6.2600 C   0  0  0  0  0  0  0  0  0  0  0  0
    9.7798    1.1442   -6.7483 C   0  0  0  0  0  0  0  0  0  0  0  0
    6.9973    2.2666   -7.8444 C   0  0  0  0  0  0  0  0  0  0  0  0
    6.0730    1.7258   -8.7525 C   0  0  0  0  0  0  0  0  0  0  0  0
    5.6652    2.4460   -9.8750 C   0  0  0  0  0  0  0  0  0  0  0  0
    6.1501    3.7451  -10.0892 C   0  0  0  0  0  0  0  0  0  0  0  0
    5.7264    4.5303  -11.2982 C   0  0  0  0  0  0  0  0  0  0  0  0
    7.0896    4.2855   -9.2051 C   0  0  0  0  0  0  0  0  0  0  0  0
    7.5034    3.5614   -8.0824 C   0  0  0  0  0  0  0  0  0  0  0  0
    5.0396    1.1492   -5.8280 C   0  0  0  0  0  0  0  0  0  0  0  0
    4.2743    2.6299   -5.8516 S   0  0  0  0  0  0  0  0  0  0  0  0
    7.8128   -1.2877   -5.3035 C   0  0  0  0  0  0  0  0  0  0  0  0
    8.7281   -1.1371   -4.3253 C   0  0  0  0  0  0  0  0  0  0  0  0
   10.0898   -1.6530   -4.4634 C   0  0  0  0  0  0  0  0  0  0  0  0
   10.4614   -2.5401   -5.2824 O   0  0  0  0  0  0  0  0  0  0  0  0
   10.9568   -0.9484   -3.5360 C   0  0  0  0  0  0  0  0  0  0  0  0
   10.1971   -0.0488   -2.8056 C   0  0  0  0  0  0  0  0  0  0  0  0
   10.8125    0.7359   -1.8154 C   0  0  0  0  0  0  0  0  0  0  0  0
   12.1909    0.6144   -1.5962 C   0  0  0  0  0  0  0  0  0  0  0  0
   12.9620   -0.2698   -2.3688 C   0  0  0  0  0  0  0  0  0  0  0  0
   14.8543   -0.3284   -2.0607 Br  0  0  0  0  0  0  0  0  0  0  0  0
   12.3469   -1.0739   -3.3507 C   0  0  0  0  0  0  0  0  0  0  0  0
   13.3042   -2.1672   -4.3423 Cl  0  0  0  0  0  0  0  0  0  0  0  0
    8.7593   -0.1721   -3.1858 C   0  0  0  0  0  0  0  0  0  0  0  0
    7.7225    0.1842   -2.3950 C   0  0  0  0  0  0  0  0  0  0  0  0
    6.5870   -0.6746   -2.2353 C   0  0  0  0  0  0  0  0  0  0  0  0
    5.6895   -1.3850   -2.0708 N   0  0  0  0  0  0  0  0  0  0  0  0
    7.7632    1.3411   -1.5398 C   0  0  0  0  0  0  0  0  0  0  0  0
    7.7810    2.2801   -0.8585 N   0  0  0  0  0  0  0  0  0  0  0  0
   -8.7818   -4.3644    2.7915 H   0  0  0  0  0  0  0  0  0  0  0  0
   -6.1318  -10.1910    2.5500 H   0  0  0  0  0  0  0  0  0  0  0  0
   -5.3370   -5.3874   -0.5410 H   0  0  0  0  0  0  0  0  0  0  0  0
   -6.4676   -4.3795   -2.4794 H   0  0  0  0  0  0  0  0  0  0  0  0
   -8.7317   -2.2303   -2.6619 H   0  0  0  0  0  0  0  0  0  0  0  0
   -7.5994   -0.8229   -2.5927 H   0  0  0  0  0  0  0  0  0  0  0  0
   -7.1778   -2.2581   -3.5827 H   0  0  0  0  0  0  0  0  0  0  0  0
   -7.4102   -0.8985   -0.1250 H   0  0  0  0  0  0  0  0  0  0  0  0
   -6.2718   -1.8937    1.8072 H   0  0  0  0  0  0  0  0  0  0  0  0
   -3.4823   -5.9945    3.3404 H   0  0  0  0  0  0  0  0  0  0  0  0
   -1.1077   -6.5097    3.0746 H   0  0  0  0  0  0  0  0  0  0  0  0
    1.1937   -4.6695    0.7936 H   0  0  0  0  0  0  0  0  0  0  0  0
    1.1001   -5.7536    2.2177 H   0  0  0  0  0  0  0  0  0  0  0  0
    0.7278   -6.3996    0.5674 H   0  0  0  0  0  0  0  0  0  0  0  0
   -0.8641   -3.7698   -0.2368 H   0  0  0  0  0  0  0  0  0  0  0  0
   -3.2333   -3.2261    0.0297 H   0  0  0  0  0  0  0  0  0  0  0  0
   -7.2042   -0.4595    4.8408 H   0  0  0  0  0  0  0  0  0  0  0  0
   -8.8151    1.3816    4.7069 H   0  0  0  0  0  0  0  0  0  0  0  0
   -9.2424    3.8355    6.2729 H   0  0  0  0  0  0  0  0  0  0  0  0
  -10.6013    2.6541    6.0957 H   0  0  0  0  0  0  0  0  0  0  0  0
  -10.1336    3.2322    7.7290 H   0  0  0  0  0  0  0  0  0  0  0  0
   -8.4589    2.0122    8.9552 H   0  0  0  0  0  0  0  0  0  0  0  0
   -6.8359    0.1894    9.1017 H   0  0  0  0  0  0  0  0  0  0  0  0
   -8.0323   -2.8050    8.0614 H   0  0  0  0  0  0  0  0  0  0  0  0
   -7.9806   -4.3747    9.9561 H   0  0  0  0  0  0  0  0  0  0  0  0
   -5.5177   -4.4366   12.5029 H   0  0  0  0  0  0  0  0  0  0  0  0
   -5.1288   -5.7765   11.3493 H   0  0  0  0  0  0  0  0  0  0  0  0
   -6.8438   -5.4232   11.7774 H   0  0  0  0  0  0  0  0  0  0  0  0
   -3.8210   -3.4310   10.6161 H   0  0  0  0  0  0  0  0  0  0  0  0
   -3.8678   -1.8973    8.6864 H   0  0  0  0  0  0  0  0  0  0  0  0
   -3.2425    1.4588    8.6041 H   0  0  0  0  0  0  0  0  0  0  0  0
   -1.7352    0.5707   10.3565 H   0  0  0  0  0  0  0  0  0  0  0  0
    0.1669   -0.8825    9.7496 H   0  0  0  0  0  0  0  0  0  0  0  0
    1.3061   -1.4050    6.2541 H   0  0  0  0  0  0  0  0  0  0  0  0
    1.7216   -1.6349    7.9829 H   0  0  0  0  0  0  0  0  0  0  0  0
    0.1370   -3.5410    8.1564 H   0  0  0  0  0  0  0  0  0  0  0  0
    1.2813   -3.8072    6.7857 H   0  0  0  0  0  0  0  0  0  0  0  0
   -0.4074   -3.2752    6.4482 H   0  0  0  0  0  0  0  0  0  0  0  0
   -0.9570   -0.6044    5.5978 H   0  0  0  0  0  0  0  0  0  0  0  0
    4.5517    4.5842   -2.6841 H   0  0  0  0  0  0  0  0  0  0  0  0
    6.4854    5.9025   -3.4728 H   0  0  0  0  0  0  0  0  0  0  0  0
    6.3659    7.1550   -5.5944 H   0  0  0  0  0  0  0  0  0  0  0  0
    3.4237    8.1183   -7.2170 H   0  0  0  0  0  0  0  0  0  0  0  0
    5.1740    7.8825   -7.5316 H   0  0  0  0  0  0  0  0  0  0  0  0
    4.5448    5.5285   -8.4694 H   0  0  0  0  0  0  0  0  0  0  0  0
    2.8335    6.1098   -8.4475 H   0  0  0  0  0  0  0  0  0  0  0  0
    4.0590    6.9685   -9.4433 H   0  0  0  0  0  0  0  0  0  0  0  0
    2.2979    5.8312   -6.1305 H   0  0  0  0  0  0  0  0  0  0  0  0
   -4.4475    1.8841    1.0940 H   0  0  0  0  0  0  0  0  0  0  0  0
   -3.9543    3.1656   -0.0538 H   0  0  0  0  0  0  0  0  0  0  0  0
   -5.1746    4.8821    1.2703 H   0  0  0  0  0  0  0  0  0  0  0  0
   -5.7217    3.5963    2.4195 H   0  0  0  0  0  0  0  0  0  0  0  0
   -6.2648    3.5523    0.6989 H   0  0  0  0  0  0  0  0  0  0  0  0
   -2.2882    1.7100   -0.2144 H   0  0  0  0  0  0  0  0  0  0  0  0
   -1.6475    1.7237   -1.8722 H   0  0  0  0  0  0  0  0  0  0  0  0
    0.7129    1.8724   -0.8009 H   0  0  0  0  0  0  0  0  0  0  0  0
   -0.0806    1.6298    0.7951 H   0  0  0  0  0  0  0  0  0  0  0  0
   -0.1922    0.3496   -0.4705 H   0  0  0  0  0  0  0  0  0  0  0  0
    3.3128    1.3780   -2.4602 H   0  0  0  0  0  0  0  0  0  0  0  0
    3.6535    0.8953   -0.0966 H   0  0  0  0  0  0  0  0  0  0  0  0
    3.8245   -1.6769    1.4595 H   0  0  0  0  0  0  0  0  0  0  0  0
    2.6879   -0.3435    1.9132 H   0  0  0  0  0  0  0  0  0  0  0  0
    2.0607   -2.0134    1.6863 H   0  0  0  0  0  0  0  0  0  0  0  0
    1.5263   -2.8185   -0.5407 H   0  0  0  0  0  0  0  0  0  0  0  0
    1.2010   -2.3699   -2.9100 H   0  0  0  0  0  0  0  0  0  0  0  0
    2.2663   -1.2935   -6.7302 H   0  0  0  0  0  0  0  0  0  0  0  0
    0.5536   -2.4375   -8.0398 H   0  0  0  0  0  0  0  0  0  0  0  0
   -2.0060   -3.9546   -7.1095 H   0  0  0  0  0  0  0  0  0  0  0  0
   -1.8672   -2.7715   -8.4698 H   0  0  0  0  0  0  0  0  0  0  0  0
   -3.0750   -2.4968   -7.1680 H   0  0  0  0  0  0  0  0  0  0  0  0
   -2.3425   -1.6638   -4.9407 H   0  0  0  0  0  0  0  0  0  0  0  0
   -0.6265   -0.4884   -3.6310 H   0  0  0  0  0  0  0  0  0  0  0  0
    8.0289    2.9749   -4.4756 H   0  0  0  0  0  0  0  0  0  0  0  0
   10.3021    3.3776   -3.6177 H   0  0  0  0  0  0  0  0  0  0  0  0
   13.1327    3.2121   -5.1996 H   0  0  0  0  0  0  0  0  0  0  0  0
   12.6455    2.6887   -3.5421 H   0  0  0  0  0  0  0  0  0  0  0  0
   13.2735    1.4777   -4.7130 H   0  0  0  0  0  0  0  0  0  0  0  0
   11.9145    0.9110   -6.7739 H   0  0  0  0  0  0  0  0  0  0  0  0
    9.6343    0.5358   -7.6323 H   0  0  0  0  0  0  0  0  0  0  0  0
    5.6659    0.7345   -8.5919 H   0  0  0  0  0  0  0  0  0  0  0  0
    4.9475    2.0071  -10.5569 H   0  0  0  0  0  0  0  0  0  0  0  0
    6.5598    4.5472  -12.0363 H   0  0  0  0  0  0  0  0  0  0  0  0
    4.8276    4.0842  -11.7809 H   0  0  0  0  0  0  0  0  0  0  0  0
    5.4836    5.5760  -11.0106 H   0  0  0  0  0  0  0  0  0  0  0  0
    7.4813    5.2866   -9.3632 H   0  0  0  0  0  0  0  0  0  0  0  0
    8.2171    4.0101   -7.4067 H   0  0  0  0  0  0  0  0  0  0  0  0
    7.9923   -2.0150   -6.0727 H   0  0  0  0  0  0  0  0  0  0  0  0
   10.2663    1.4433   -1.2165 H   0  0  0  0  0  0  0  0  0  0  0  0
   12.6673    1.2336   -0.8479 H   0  0  0  0  0  0  0  0  0  0  0  0
  1  2  2  3
  2  3  1  0
  3  4  2  0
  3  5  1  0
  5  6  1  0
  6  7  2  0
  7  8  1  0
  7  9  1  0
  9 10  1  0
 10 11  1  0
 11 12  2  3
 12 13  1  0
 13 14  3  0
 12 15  1  0
 15 16  3  0
  1 17  1  0
 17 18  2  0
 18 19  1  0
 19 20  1  0
 20 21  2  0
 21 22  1  0
 22 23  2  0
 23 24  1  0
 23 25  1  0
 25 26  2  0
 19 27  1  0
 27 28  2  0
 28 29  1  0
 29 30  2  0
 30 31  1  0
 30 32  1  0
 32 33  2  0
 18 34  1  0
 34 35  1  0
 35 36  1  0
 36 37  2  0
 37 38  1  0
 38 39  1  0
 39 40  2  0
 40 41  1  0
 41 42  2  0
 42 43  1  0
 42 44  1  0
 44 45  2  0
 38 46  1  0
 46 47  2  0
 47 48  1  0
 48 49  2  0
 49 50  1  0
 49 51  1  0
 51 52  2  0
 37 53  1  0
 53 54  1  0
 36 55  1  0
 55 56  2  0
 56 57  1  0
 57 58  2  0
 58 59  1  0
 59 60  2  0
 60 61  1  0
 61 62  1  0
 62 63  1  0
 61 64  2  0
 56 65  1  0
 65 66  1  0
 66 67  1  0
 67 68  1  0
 68 69  1  0
 69 70  1  0
 70 71  2  0
 71 72  1  0
 72 73  1  0
 70 74  1  0
 74 75  1  0
 75 76  1  0
 76 77  1  0
 77 78  1  0
 78 79  1  0
 79 80  2  0
 80 81  1  0
 81 82  2  0
 82 83  1  0
 83 84  1  0
 84 85  1  0
 83 86  2  0
 78 87  2  0
 87 88  1  0
 88 89  1  0
 89 90  1  0
 90 91  1  0
 91 92  1  0
 92 93  1  0
 93 94  1  0
 94 95  1  0
 95 96  1  0
 96 97  1  0
 94 98  1  0
 98 99  1  0
 91100  1  0
100101  1  0
 87102  1  0
102103  2  0
103104  1  0
104105  1  0
105106  2  0
106107  1  0
107108  2  0
108109  1  0
108110  1  0
110111  2  0
104112  1  0
112113  2  0
113114  1  0
114115  2  0
115116  1  0
115117  1  0
117118  2  0
103119  1  0
119120  1  0
120121  1  0
121122  2  0
122123  1  0
123124  1  0
124125  2  0
125126  1  0
126127  2  0
127128  1  0
127129  1  0
129130  2  0
123131  1  0
131132  2  0
132133  1  0
133134  2  0
134135  1  0
134136  1  0
136137  2  0
122138  1  0
138139  1  0
121140  1  0
140141  2  3
141142  1  0
142143  2  0
142144  1  0
144145  2  0
145146  1  0
146147  2  0
147148  1  0
148149  1  0
148150  2  0
150151  1  0
145152  1  0
152153  2  3
153154  1  0
154155  3  0
153156  1  0
156157  3  0
 11  2  1  0
 54 17  1  0
 97 55  1  0
139102  1  0
152141  1  0
 10  5  2  0
 26 20  1  0
 33 27  1  0
 53 34  2  0
 64 57  1  0
 96 65  2  0
111105  1  0
118112  1  0
138119  2  0
150144  1  0
 45 39  1  0
 52 46  1  0
 95 67  2  0
130124  1  0
137131  1  0
 93 68  2  0
 73 69  2  0
 92 74  2  0
 90 75  2  0
 89 77  2  0
 86 79  1  0
  1158  1  0
  6159  1  0
 21160  1  0
 22161  1  0
 24162  1  0
 24163  1  0
 24164  1  0
 25165  1  0
 26166  1  0
 28167  1  0
 29168  1  0
 31169  1  0
 31170  1  0
 31171  1  0
 32172  1  0
 33173  1  0
 40174  1  0
 41175  1  0
 43176  1  0
 43177  1  0
 43178  1  0
 44179  1  0
 45180  1  0
 47181  1  0
 48182  1  0
 50183  1  0
 50184  1  0
 50185  1  0
 51186  1  0
 52187  1  0
 58188  1  0
 59189  1  0
 60190  1  0
 62191  1  0
 62192  1  0
 63193  1  0
 63194  1  0
 63195  1  0
 64196  1  0
 80197  1  0
 81198  1  0
 82199  1  0
 84200  1  0
 84201  1  0
 85202  1  0
 85203  1  0
 85204  1  0
 86205  1  0
 98206  1  0
 98207  1  0
 99208  1  0
 99209  1  0
 99210  1  0
100211  1  0
100212  1  0
101213  1  0
101214  1  0
101215  1  0
106216  1  0
107217  1  0
109218  1  0
109219  1  0
109220  1  0
110221  1  0
111222  1  0
113223  1  0
114224  1  0
116225  1  0
116226  1  0
116227  1  0
117228  1  0
118229  1  0
125230  1  0
126231  1  0
128232  1  0
128233  1  0
128234  1  0
129235  1  0
130236  1  0
132237  1  0
133238  1  0
135239  1  0
135240  1  0
135241  1  0
136242  1  0
137243  1  0
140244  1  0
146245  1  0
147246  1  0
M  END

