
     RDKit          3D

235258  0  0  0  0  0  0  0  0999 V2000
   -9.3697    3.0022   -5.3542 C   0  0  0  0  0  0  0  0  0  0  0  0
   -9.0570    3.8859   -6.3176 C   0  0  0  0  0  0  0  0  0  0  0  0
   -7.7034    4.3271   -6.5541 C   0  0  0  0  0  0  0  0  0  0  0  0
   -6.6235    4.6851   -6.7664 N   0  0  0  0  0  0  0  0  0  0  0  0
  -10.1157    4.4879   -7.0953 C   0  0  0  0  0  0  0  0  0  0  0  0
  -10.9547    4.9687   -7.7244 N   0  0  0  0  0  0  0  0  0  0  0  0
   -8.4081    2.3285   -4.4658 C   0  0  0  0  0  0  0  0  0  0  0  0
   -8.6891    1.9450   -3.1435 C   0  0  0  0  0  0  0  0  0  0  0  0
   -9.7450    2.5077   -2.3309 N   0  0  0  0  0  0  0  0  0  0  0  0
  -10.3254    1.7493   -1.2494 C   0  0  0  0  0  0  0  0  0  0  0  0
  -10.7826    0.4376   -1.4616 C   0  0  0  0  0  0  0  0  0  0  0  0
  -11.2982   -0.3088   -0.3993 C   0  0  0  0  0  0  0  0  0  0  0  0
  -11.3578    0.2409    0.8901 C   0  0  0  0  0  0  0  0  0  0  0  0
  -11.9307   -0.5662    2.0197 C   0  0  0  0  0  0  0  0  0  0  0  0
  -10.9345    1.5626    1.1029 C   0  0  0  0  0  0  0  0  0  0  0  0
  -10.4190    2.3105    0.0413 C   0  0  0  0  0  0  0  0  0  0  0  0
  -10.0959    3.8992   -2.4880 C   0  0  0  0  0  0  0  0  0  0  0  0
   -9.0943    4.8771   -2.6480 C   0  0  0  0  0  0  0  0  0  0  0  0
   -9.4374    6.2112   -2.8850 C   0  0  0  0  0  0  0  0  0  0  0  0
  -10.7862    6.5917   -2.9546 C   0  0  0  0  0  0  0  0  0  0  0  0
  -11.1421    8.0257   -3.2091 C   0  0  0  0  0  0  0  0  0  0  0  0
  -11.7850    5.6268   -2.7554 C   0  0  0  0  0  0  0  0  0  0  0  0
  -11.4418    4.2889   -2.5289 C   0  0  0  0  0  0  0  0  0  0  0  0
   -7.6680    1.1441   -2.6361 C   0  0  0  0  0  0  0  0  0  0  0  0
   -7.3576    0.4449   -1.1530 S   0  0  0  0  0  0  0  0  0  0  0  0
   -5.8090   -0.1314   -1.5696 C   0  0  0  0  0  0  0  0  0  0  0  0
   -5.5258    0.2435   -2.8959 C   0  0  0  0  0  0  0  0  0  0  0  0
   -4.1954    0.3126   -3.4199 N   0  0  0  0  0  0  0  0  0  0  0  0
   -3.4519    1.5016   -3.1396 C   0  0  0  0  0  0  0  0  0  0  0  0
   -3.5346    2.6001   -4.0081 C   0  0  0  0  0  0  0  0  0  0  0  0
   -2.8872    3.7941   -3.6922 C   0  0  0  0  0  0  0  0  0  0  0  0
   -2.1423    3.9001   -2.5082 C   0  0  0  0  0  0  0  0  0  0  0  0
   -1.4783    5.1912   -2.1384 C   0  0  0  0  0  0  0  0  0  0  0  0
   -2.0307    2.7874   -1.6574 C   0  0  0  0  0  0  0  0  0  0  0  0
   -2.6857    1.5943   -1.9723 C   0  0  0  0  0  0  0  0  0  0  0  0
   -3.6558   -0.6941   -4.2982 C   0  0  0  0  0  0  0  0  0  0  0  0
   -2.2834   -1.0021   -4.2498 C   0  0  0  0  0  0  0  0  0  0  0  0
   -1.7326   -1.9301   -5.1336 C   0  0  0  0  0  0  0  0  0  0  0  0
   -2.5440   -2.5591   -6.0935 C   0  0  0  0  0  0  0  0  0  0  0  0
   -1.9353   -3.4830   -7.1040 C   0  0  0  0  0  0  0  0  0  0  0  0
   -3.9143   -2.2592   -6.1436 C   0  0  0  0  0  0  0  0  0  0  0  0
   -4.4703   -1.3470   -5.2434 C   0  0  0  0  0  0  0  0  0  0  0  0
   -6.6052    0.9378   -3.4582 C   0  0  0  0  0  0  0  0  0  0  0  0
   -6.8880    1.7016   -4.9263 S   0  0  0  0  0  0  0  0  0  0  0  0
   -4.9916   -0.9914   -0.6870 C   0  0  0  0  0  0  0  0  0  0  0  0
   -5.2313   -1.2152    0.6862 C   0  0  0  0  0  0  0  0  0  0  0  0
   -6.0528   -0.3464    1.5510 C   0  0  0  0  0  0  0  0  0  0  0  0
   -7.2471   -0.8650    2.0811 C   0  0  0  0  0  0  0  0  0  0  0  0
   -8.1135   -0.0456    2.8038 C   0  0  0  0  0  0  0  0  0  0  0  0
   -7.8107    1.3041    2.9899 C   0  0  0  0  0  0  0  0  0  0  0  0
   -6.6185    1.8287    2.4794 C   0  0  0  0  0  0  0  0  0  0  0  0
   -5.7146    1.0144    1.7770 C   0  0  0  0  0  0  0  0  0  0  0  0
   -4.4113    1.6286    1.3061 C   0  0  0  0  0  0  0  0  0  0  0  0
   -3.5026    1.9676    2.4792 C   0  0  0  0  0  0  0  0  0  0  0  0
   -4.5251   -2.3241    1.1432 C   0  0  0  0  0  0  0  0  0  0  0  0
   -4.4537   -3.1317    2.6390 S   0  0  0  0  0  0  0  0  0  0  0  0
   -3.3343   -4.2500    2.0209 C   0  0  0  0  0  0  0  0  0  0  0  0
   -2.3765   -5.0471    2.5686 C   0  0  0  0  0  0  0  0  0  0  0  0
   -2.1360   -5.3407    3.9143 C   0  0  0  0  0  0  0  0  0  0  0  0
   -0.8794   -5.8916    4.2829 C   0  0  0  0  0  0  0  0  0  0  0  0
   -0.6534   -6.0826    5.6069 N   0  0  0  0  0  0  0  0  0  0  0  0
   -2.0870   -5.5288    6.2183 S   0  0  0  0  0  0  0  0  0  0  0  0
   -2.9919   -5.0444    4.9214 N   0  0  0  0  0  0  0  0  0  0  0  0
    0.0537   -6.1667    3.2801 C   0  0  0  0  0  0  0  0  0  0  0  0
    1.3900   -6.4548    3.3861 C   0  0  0  0  0  0  0  0  0  0  0  0
    2.4649   -5.8559    4.5426 S   0  0  0  0  0  0  0  0  0  0  0  0
    3.6048   -5.4003    3.3765 C   0  0  0  0  0  0  0  0  0  0  0  0
    4.5012   -4.3212    3.4143 C   0  0  0  0  0  0  0  0  0  0  0  0
    4.7019   -3.6106    4.6914 C   0  0  0  0  0  0  0  0  0  0  0  0
    3.6960   -2.7538    5.2317 C   0  0  0  0  0  0  0  0  0  0  0  0
    2.5155   -2.2585    4.4053 C   0  0  0  0  0  0  0  0  0  0  0  0
    1.1620   -2.5389    5.0641 C   0  0  0  0  0  0  0  0  0  0  0  0
    3.8085   -2.3328    6.5714 C   0  0  0  0  0  0  0  0  0  0  0  0
    4.8569   -2.7898    7.3777 C   0  0  0  0  0  0  0  0  0  0  0  0
    5.8110   -3.6610    6.8594 C   0  0  0  0  0  0  0  0  0  0  0  0
    5.7241   -4.0800    5.5327 C   0  0  0  0  0  0  0  0  0  0  0  0
    4.8658   -3.8959    2.1077 C   0  0  0  0  0  0  0  0  0  0  0  0
    3.9541   -4.8335    1.0057 S   0  0  0  0  0  0  0  0  0  0  0  0
    3.1825   -5.7870    2.1311 C   0  0  0  0  0  0  0  0  0  0  0  0
    1.9066   -6.3537    2.1141 C   0  0  0  0  0  0  0  0  0  0  0  0
    0.9391   -6.0891    1.1975 N   0  0  0  0  0  0  0  0  0  0  0  0
   -0.1921   -5.8871    1.9297 C   0  0  0  0  0  0  0  0  0  0  0  0
   -1.4151   -5.2420    1.5620 C   0  0  0  0  0  0  0  0  0  0  0  0
   -1.7423   -4.5143    0.4309 N   0  0  0  0  0  0  0  0  0  0  0  0
   -2.9576   -3.9714    0.7466 C   0  0  0  0  0  0  0  0  0  0  0  0
   -3.6665   -2.8836    0.2358 C   0  0  0  0  0  0  0  0  0  0  0  0
   -3.8079   -2.0938   -1.2348 S   0  0  0  0  0  0  0  0  0  0  0  0
   -0.8229   -3.8930   -0.5344 C   0  0  0  0  0  0  0  0  0  0  0  0
   -1.1319   -4.3144   -1.9776 C   0  0  0  0  0  0  0  0  0  0  0  0
    0.9866   -6.5955   -0.1802 C   0  0  0  0  0  0  0  0  0  0  0  0
    1.3374   -8.0858   -0.2149 C   0  0  0  0  0  0  0  0  0  0  0  0
    5.6296   -2.7193    1.5923 C   0  0  0  0  0  0  0  0  0  0  0  0
    6.1821   -1.5769    2.2330 C   0  0  0  0  0  0  0  0  0  0  0  0
    6.4877   -1.4227    3.6262 N   0  0  0  0  0  0  0  0  0  0  0  0
    7.8429   -1.7932    3.9742 C   0  0  0  0  0  0  0  0  0  0  0  0
    8.2992   -3.1029    3.7486 C   0  0  0  0  0  0  0  0  0  0  0  0
    9.6221   -3.4555    4.0343 C   0  0  0  0  0  0  0  0  0  0  0  0
   10.5157   -2.4920    4.5316 C   0  0  0  0  0  0  0  0  0  0  0  0
   11.9437   -2.8530    4.8141 C   0  0  0  0  0  0  0  0  0  0  0  0
   10.0887   -1.1664    4.6827 C   0  0  0  0  0  0  0  0  0  0  0  0
    8.7684   -0.8153    4.3948 C   0  0  0  0  0  0  0  0  0  0  0  0
    5.7622   -0.4393    4.4202 C   0  0  0  0  0  0  0  0  0  0  0  0
    4.7389    0.3534    3.8571 C   0  0  0  0  0  0  0  0  0  0  0  0
    4.0528    1.2960    4.6275 C   0  0  0  0  0  0  0  0  0  0  0  0
    4.3712    1.4702    5.9802 C   0  0  0  0  0  0  0  0  0  0  0  0
    3.5831    2.4249    6.8273 C   0  0  0  0  0  0  0  0  0  0  0  0
    5.3750    0.6802    6.5569 C   0  0  0  0  0  0  0  0  0  0  0  0
    6.0651   -0.2578    5.7873 C   0  0  0  0  0  0  0  0  0  0  0  0
    6.6100   -0.6267    1.3047 C   0  0  0  0  0  0  0  0  0  0  0  0
    7.1432    0.9587    1.4410 S   0  0  0  0  0  0  0  0  0  0  0  0
    7.1552    1.2318   -0.2417 C   0  0  0  0  0  0  0  0  0  0  0  0
    6.7713    0.0527   -0.9074 C   0  0  0  0  0  0  0  0  0  0  0  0
    6.8213   -0.1237   -2.3406 N   0  0  0  0  0  0  0  0  0  0  0  0
    5.7507   -0.8008   -3.0299 C   0  0  0  0  0  0  0  0  0  0  0  0
    4.4119   -0.4796   -2.7533 C   0  0  0  0  0  0  0  0  0  0  0  0
    3.3720   -1.1407   -3.4109 C   0  0  0  0  0  0  0  0  0  0  0  0
    3.6572   -2.1428   -4.3484 C   0  0  0  0  0  0  0  0  0  0  0  0
    2.5348   -2.8264   -5.0739 C   0  0  0  0  0  0  0  0  0  0  0  0
    4.9939   -2.4536   -4.6427 C   0  0  0  0  0  0  0  0  0  0  0  0
    6.0335   -1.7922   -3.9815 C   0  0  0  0  0  0  0  0  0  0  0  0
    8.0140    0.2859   -3.0471 C   0  0  0  0  0  0  0  0  0  0  0  0
    9.2751    0.1886   -2.4317 C   0  0  0  0  0  0  0  0  0  0  0  0
   10.4240    0.6292   -3.0898 C   0  0  0  0  0  0  0  0  0  0  0  0
   10.3342    1.1686   -4.3836 C   0  0  0  0  0  0  0  0  0  0  0  0
   11.5615    1.7273   -5.0473 C   0  0  0  0  0  0  0  0  0  0  0  0
    9.0818    1.2562   -5.0094 C   0  0  0  0  0  0  0  0  0  0  0  0
    7.9283    0.8281   -4.3410 C   0  0  0  0  0  0  0  0  0  0  0  0
    6.4515   -0.9512    0.0034 C   0  0  0  0  0  0  0  0  0  0  0  0
    5.7589   -2.4610   -0.1048 S   0  0  0  0  0  0  0  0  0  0  0  0
    7.0026    2.5655   -0.8317 C   0  0  0  0  0  0  0  0  0  0  0  0
    5.7882    3.1463   -0.9478 C   0  0  0  0  0  0  0  0  0  0  0  0
    4.5356    2.6643   -0.3463 C   0  0  0  0  0  0  0  0  0  0  0  0
    4.3547    1.5493    0.2166 O   0  0  0  0  0  0  0  0  0  0  0  0
    3.5510    3.7258   -0.4110 C   0  0  0  0  0  0  0  0  0  0  0  0
    2.2968    3.7799    0.2181 C   0  0  0  0  0  0  0  0  0  0  0  0
    1.6149    2.3571    1.0072 Cl  0  0  0  0  0  0  0  0  0  0  0  0
    1.6129    5.0072    0.2265 C   0  0  0  0  0  0  0  0  0  0  0  0
    0.0557    5.1288    1.0416 Cl  0  0  0  0  0  0  0  0  0  0  0  0
    2.2041    6.1541   -0.3495 C   0  0  0  0  0  0  0  0  0  0  0  0
    1.3616    7.7040   -0.2543 Cl  0  0  0  0  0  0  0  0  0  0  0  0
    3.4748    6.0788   -0.9671 C   0  0  0  0  0  0  0  0  0  0  0  0
    4.3272    7.5724   -1.3675 Cl  0  0  0  0  0  0  0  0  0  0  0  0
    4.1091    4.8188   -1.0512 C   0  0  0  0  0  0  0  0  0  0  0  0
    5.4624    4.4599   -1.5744 C   0  0  0  0  0  0  0  0  0  0  0  0
    6.0306    4.9461   -2.6961 C   0  0  0  0  0  0  0  0  0  0  0  0
    7.2949    4.4688   -3.1982 C   0  0  0  0  0  0  0  0  0  0  0  0
    8.3097    4.0941   -3.6074 N   0  0  0  0  0  0  0  0  0  0  0  0
    5.2931    5.7766   -3.6138 C   0  0  0  0  0  0  0  0  0  0  0  0
    4.6896    6.4158   -4.3718 N   0  0  0  0  0  0  0  0  0  0  0  0
  -10.4159    2.7737   -5.1837 H   0  0  0  0  0  0  0  0  0  0  0  0
  -10.7377   -0.0028   -2.4461 H   0  0  0  0  0  0  0  0  0  0  0  0
  -11.6479   -1.3183   -0.5779 H   0  0  0  0  0  0  0  0  0  0  0  0
  -11.5786   -0.1859    3.0036 H   0  0  0  0  0  0  0  0  0  0  0  0
  -13.0379   -0.5113    1.9900 H   0  0  0  0  0  0  0  0  0  0  0  0
  -11.6146   -1.6273    1.9332 H   0  0  0  0  0  0  0  0  0  0  0  0
  -10.9984    2.0052    2.0870 H   0  0  0  0  0  0  0  0  0  0  0  0
  -10.0732    3.3199    0.2212 H   0  0  0  0  0  0  0  0  0  0  0  0
   -8.0481    4.5985   -2.5890 H   0  0  0  0  0  0  0  0  0  0  0  0
   -8.6581    6.9526   -3.0085 H   0  0  0  0  0  0  0  0  0  0  0  0
  -12.2289    8.1461   -3.4145 H   0  0  0  0  0  0  0  0  0  0  0  0
  -10.8797    8.6332   -2.3177 H   0  0  0  0  0  0  0  0  0  0  0  0
  -10.5806    8.4134   -4.0831 H   0  0  0  0  0  0  0  0  0  0  0  0
  -12.8343    5.9074   -2.7748 H   0  0  0  0  0  0  0  0  0  0  0  0
  -12.2239    3.5537   -2.3955 H   0  0  0  0  0  0  0  0  0  0  0  0
   -4.1141    2.5309   -4.9204 H   0  0  0  0  0  0  0  0  0  0  0  0
   -2.9713    4.6353   -4.3680 H   0  0  0  0  0  0  0  0  0  0  0  0
   -1.5967    5.9502   -2.9402 H   0  0  0  0  0  0  0  0  0  0  0  0
   -0.3927    5.0224   -1.9750 H   0  0  0  0  0  0  0  0  0  0  0  0
   -1.9412    5.5884   -1.2119 H   0  0  0  0  0  0  0  0  0  0  0  0
   -1.4330    2.8474   -0.7557 H   0  0  0  0  0  0  0  0  0  0  0  0
   -2.5940    0.7406   -1.3138 H   0  0  0  0  0  0  0  0  0  0  0  0
   -1.6388   -0.5300   -3.5163 H   0  0  0  0  0  0  0  0  0  0  0  0
   -0.6714   -2.1504   -5.0776 H   0  0  0  0  0  0  0  0  0  0  0  0
   -1.1152   -4.0788   -6.6482 H   0  0  0  0  0  0  0  0  0  0  0  0
   -1.5258   -2.8851   -7.9442 H   0  0  0  0  0  0  0  0  0  0  0  0
   -2.6964   -4.1915   -7.5024 H   0  0  0  0  0  0  0  0  0  0  0  0
   -4.5497   -2.7324   -6.8796 H   0  0  0  0  0  0  0  0  0  0  0  0
   -5.5274   -1.1320   -5.2959 H   0  0  0  0  0  0  0  0  0  0  0  0
   -7.5220   -1.8981    1.9042 H   0  0  0  0  0  0  0  0  0  0  0  0
   -9.0235   -0.4541    3.2119 H   0  0  0  0  0  0  0  0  0  0  0  0
   -8.4891    1.9346    3.5525 H   0  0  0  0  0  0  0  0  0  0  0  0
   -6.3965    2.8772    2.6439 H   0  0  0  0  0  0  0  0  0  0  0  0
   -4.6223    2.5570    0.7312 H   0  0  0  0  0  0  0  0  0  0  0  0
   -3.8477    0.9585    0.6361 H   0  0  0  0  0  0  0  0  0  0  0  0
   -2.5201    2.3231    2.1015 H   0  0  0  0  0  0  0  0  0  0  0  0
   -3.3379    1.0761    3.1292 H   0  0  0  0  0  0  0  0  0  0  0  0
   -3.9501    2.7832    3.0882 H   0  0  0  0  0  0  0  0  0  0  0  0
    2.6053   -1.1628    4.2695 H   0  0  0  0  0  0  0  0  0  0  0  0
    2.5097   -2.7004    3.3883 H   0  0  0  0  0  0  0  0  0  0  0  0
    0.3424   -2.2934    4.3547 H   0  0  0  0  0  0  0  0  0  0  0  0
    1.0232   -1.9058    5.9678 H   0  0  0  0  0  0  0  0  0  0  0  0
    1.0667   -3.6034    5.3504 H   0  0  0  0  0  0  0  0  0  0  0  0
    3.0935   -1.6448    7.0004 H   0  0  0  0  0  0  0  0  0  0  0  0
    4.9266   -2.4678    8.4096 H   0  0  0  0  0  0  0  0  0  0  0  0
    6.6106   -4.0323    7.4951 H   0  0  0  0  0  0  0  0  0  0  0  0
    6.4328   -4.8185    5.1741 H   0  0  0  0  0  0  0  0  0  0  0  0
   -0.9213   -2.7809   -0.4852 H   0  0  0  0  0  0  0  0  0  0  0  0
    0.2341   -4.1026   -0.2898 H   0  0  0  0  0  0  0  0  0  0  0  0
   -2.1093   -3.9189   -2.3074 H   0  0  0  0  0  0  0  0  0  0  0  0
   -1.1578   -5.4136   -2.0924 H   0  0  0  0  0  0  0  0  0  0  0  0
   -0.3515   -3.9045   -2.6526 H   0  0  0  0  0  0  0  0  0  0  0  0
    1.7402   -6.0232   -0.7659 H   0  0  0  0  0  0  0  0  0  0  0  0
   -0.0029   -6.4915   -0.6545 H   0  0  0  0  0  0  0  0  0  0  0  0
    0.7036   -8.6479    0.4982 H   0  0  0  0  0  0  0  0  0  0  0  0
    1.1837   -8.4846   -1.2387 H   0  0  0  0  0  0  0  0  0  0  0  0
    2.4007   -8.2176    0.0576 H   0  0  0  0  0  0  0  0  0  0  0  0
    7.6327   -3.8504    3.3434 H   0  0  0  0  0  0  0  0  0  0  0  0
    9.9466   -4.4765    3.8670 H   0  0  0  0  0  0  0  0  0  0  0  0
   12.5738   -2.5773    3.9457 H   0  0  0  0  0  0  0  0  0  0  0  0
   12.0472   -3.9429    5.0101 H   0  0  0  0  0  0  0  0  0  0  0  0
   12.3068   -2.3109    5.7134 H   0  0  0  0  0  0  0  0  0  0  0  0
   10.7813   -0.4030    5.0212 H   0  0  0  0  0  0  0  0  0  0  0  0
    8.4678    0.2204    4.4907 H   0  0  0  0  0  0  0  0  0  0  0  0
    4.4514    0.2424    2.8231 H   0  0  0  0  0  0  0  0  0  0  0  0
    3.2663    1.8842    4.1717 H   0  0  0  0  0  0  0  0  0  0  0  0
    2.7200    1.8918    7.2804 H   0  0  0  0  0  0  0  0  0  0  0  0
    4.2184    2.8529    7.6346 H   0  0  0  0  0  0  0  0  0  0  0  0
    3.2000    3.2694    6.2115 H   0  0  0  0  0  0  0  0  0  0  0  0
    5.6109    0.7807    7.6123 H   0  0  0  0  0  0  0  0  0  0  0  0
    6.8146   -0.8681    6.2763 H   0  0  0  0  0  0  0  0  0  0  0  0
    4.1713    0.2954   -2.0389 H   0  0  0  0  0  0  0  0  0  0  0  0
    2.3437   -0.8742   -3.1863 H   0  0  0  0  0  0  0  0  0  0  0  0
    2.1846   -2.1780   -5.9072 H   0  0  0  0  0  0  0  0  0  0  0  0
    2.8607   -3.8067   -5.4867 H   0  0  0  0  0  0  0  0  0  0  0  0
    1.6865   -3.0144   -4.3827 H   0  0  0  0  0  0  0  0  0  0  0  0
    5.2295   -3.2153   -5.3815 H   0  0  0  0  0  0  0  0  0  0  0  0
    7.0595   -2.0623   -4.2030 H   0  0  0  0  0  0  0  0  0  0  0  0
    9.3793   -0.2314   -1.4414 H   0  0  0  0  0  0  0  0  0  0  0  0
   11.3857    0.5604   -2.5876 H   0  0  0  0  0  0  0  0  0  0  0  0
   11.4677    1.6666   -6.1502 H   0  0  0  0  0  0  0  0  0  0  0  0
   11.6852    2.7912   -4.7559 H   0  0  0  0  0  0  0  0  0  0  0  0
   12.4669    1.1638   -4.7401 H   0  0  0  0  0  0  0  0  0  0  0  0
    8.9998    1.6865   -6.0064 H   0  0  0  0  0  0  0  0  0  0  0  0
    6.9689    0.9345   -4.8331 H   0  0  0  0  0  0  0  0  0  0  0  0
    7.8990    3.0802   -1.1302 H   0  0  0  0  0  0  0  0  0  0  0  0
  1  2  2  3
  2  3  1  0
  3  4  3  0
  2  5  1  0
  5  6  3  0
  1  7  1  0
  7  8  2  0
  8  9  1  0
  9 10  1  0
 10 11  2  0
 11 12  1  0
 12 13  2  0
 13 14  1  0
 13 15  1  0
 15 16  2  0
  9 17  1  0
 17 18  2  0
 18 19  1  0
 19 20  2  0
 20 21  1  0
 20 22  1  0
 22 23  2  0
  8 24  1  0
 24 25  1  0
 25 26  1  0
 26 27  2  0
 27 28  1  0
 28 29  1  0
 29 30  2  0
 30 31  1  0
 31 32  2  0
 32 33  1  0
 32 34  1  0
 34 35  2  0
 28 36  1  0
 36 37  2  0
 37 38  1  0
 38 39  2  0
 39 40  1  0
 39 41  1  0
 41 42  2  0
 27 43  1  0
 43 44  1  0
 26 45  1  0
 45 46  2  0
 46 47  1  0
 47 48  2  0
 48 49  1  0
 49 50  2  0
 50 51  1  0
 51 52  2  0
 52 53  1  0
 53 54  1  0
 46 55  1  0
 55 56  1  0
 56 57  1  0
 57 58  1  0
 58 59  1  0
 59 60  1  0
 60 61  2  0
 61 62  1  0
 62 63  1  0
 60 64  1  0
 64 65  1  0
 65 66  1  0
 66 67  1  0
 67 68  1  0
 68 69  1  0
 69 70  2  0
 70 71  1  0
 71 72  1  0
 70 73  1  0
 73 74  2  0
 74 75  1  0
 75 76  2  0
 68 77  2  0
 77 78  1  0
 78 79  1  0
 79 80  1  0
 80 81  1  0
 81 82  1  0
 82 83  1  0
 83 84  1  0
 84 85  1  0
 85 86  1  0
 86 87  1  0
 84 88  1  0
 88 89  1  0
 81 90  1  0
 90 91  1  0
 77 92  1  0
 92 93  2  0
 93 94  1  0
 94 95  1  0
 95 96  2  0
 96 97  1  0
 97 98  2  0
 98 99  1  0
 98100  1  0
100101  2  0
 94102  1  0
102103  2  0
103104  1  0
104105  2  0
105106  1  0
105107  1  0
107108  2  0
 93109  1  0
109110  1  0
110111  1  0
111112  2  0
112113  1  0
113114  1  0
114115  2  0
115116  1  0
116117  2  0
117118  1  0
117119  1  0
119120  2  0
113121  1  0
121122  2  0
122123  1  0
123124  2  0
124125  1  0
124126  1  0
126127  2  0
112128  1  0
128129  1  0
111130  1  0
130131  2  3
131132  1  0
132133  2  0
132134  1  0
134135  2  0
135136  1  0
135137  1  0
137138  1  0
137139  2  0
139140  1  0
139141  1  0
141142  1  0
141143  2  0
143144  1  0
144145  2  3
145146  1  0
146147  3  0
145148  1  0
148149  3  0
 44  7  1  0
 87 45  1  0
129 92  1  0
144131  1  0
 16 10  1  0
 23 17  1  0
 43 24  2  0
 52 47  1  0
 86 55  2  0
101 95  1  0
108102  1  0
128109  2  0
143134  1  0
 35 29  1  0
 42 36  1  0
 85 57  2  0
120114  1  0
127121  1  0
 83 58  2  0
 63 59  2  0
 82 64  2  0
 80 65  2  0
 79 67  2  0
 76 69  1  0
  1150  1  0
 11151  1  0
 12152  1  0
 14153  1  0
 14154  1  0
 14155  1  0
 15156  1  0
 16157  1  0
 18158  1  0
 19159  1  0
 21160  1  0
 21161  1  0
 21162  1  0
 22163  1  0
 23164  1  0
 30165  1  0
 31166  1  0
 33167  1  0
 33168  1  0
 33169  1  0
 34170  1  0
 35171  1  0
 37172  1  0
 38173  1  0
 40174  1  0
 40175  1  0
 40176  1  0
 41177  1  0
 42178  1  0
 48179  1  0
 49180  1  0
 50181  1  0
 51182  1  0
 53183  1  0
 53184  1  0
 54185  1  0
 54186  1  0
 54187  1  0
 71188  1  0
 71189  1  0
 72190  1  0
 72191  1  0
 72192  1  0
 73193  1  0
 74194  1  0
 75195  1  0
 76196  1  0
 88197  1  0
 88198  1  0
 89199  1  0
 89200  1  0
 89201  1  0
 90202  1  0
 90203  1  0
 91204  1  0
 91205  1  0
 91206  1  0
 96207  1  0
 97208  1  0
 99209  1  0
 99210  1  0
 99211  1  0
100212  1  0
101213  1  0
103214  1  0
104215  1  0
106216  1  0
106217  1  0
106218  1  0
107219  1  0
108220  1  0
115221  1  0
116222  1  0
118223  1  0
118224  1  0
118225  1  0
119226  1  0
120227  1  0
122228  1  0
123229  1  0
125230  1  0
125231  1  0
125232  1  0
126233  1  0
127234  1  0
130235  1  0
M  END

