
     RDKit          3D

235258  0  0  0  0  0  0  0  0999 V2000
    3.8650   11.2895    5.8758 C   0  0  0  0  0  0  0  0  0  0  0  0
    4.6621   11.5492    6.9228 C   0  0  0  0  0  0  0  0  0  0  0  0
    5.5718   10.5503    7.4434 C   0  0  0  0  0  0  0  0  0  0  0  0
    6.3286    9.7431    7.7427 N   0  0  0  0  0  0  0  0  0  0  0  0
    4.9039   12.9088    7.2767 C   0  0  0  0  0  0  0  0  0  0  0  0
    5.0745   14.0156    7.5586 N   0  0  0  0  0  0  0  0  0  0  0  0
    3.1635    9.9883    5.3906 C   0  0  0  0  0  0  0  0  0  0  0  0
    3.6137    9.0745    4.3222 C   0  0  0  0  0  0  0  0  0  0  0  0
    4.8755    9.2130    3.6654 N   0  0  0  0  0  0  0  0  0  0  0  0
    4.8829    9.7560    2.3312 C   0  0  0  0  0  0  0  0  0  0  0  0
    5.4936    9.0464    1.2755 C   0  0  0  0  0  0  0  0  0  0  0  0
    5.5367    9.6004   -0.0071 C   0  0  0  0  0  0  0  0  0  0  0  0
    4.9626   10.8532   -0.2655 C   0  0  0  0  0  0  0  0  0  0  0  0
    5.0227   11.4464   -1.6417 C   0  0  0  0  0  0  0  0  0  0  0  0
    4.3268   11.5477    0.7828 C   0  0  0  0  0  0  0  0  0  0  0  0
    4.2826   11.0016    2.0668 C   0  0  0  0  0  0  0  0  0  0  0  0
    6.1065    8.8740    4.3269 C   0  0  0  0  0  0  0  0  0  0  0  0
    6.1725    7.7862    5.2113 C   0  0  0  0  0  0  0  0  0  0  0  0
    7.3869    7.4510    5.8195 C   0  0  0  0  0  0  0  0  0  0  0  0
    8.5453    8.2065    5.5617 C   0  0  0  0  0  0  0  0  0  0  0  0
    9.8498    7.8390    6.2047 C   0  0  0  0  0  0  0  0  0  0  0  0
    8.4778    9.2877    4.6693 C   0  0  0  0  0  0  0  0  0  0  0  0
    7.2689    9.6203    4.0599 C   0  0  0  0  0  0  0  0  0  0  0  0
    2.5587    8.3559    3.7469 C   0  0  0  0  0  0  0  0  0  0  0  0
    2.4767    7.2254    2.5197 S   0  0  0  0  0  0  0  0  0  0  0  0
    0.7789    7.2710    2.3812 C   0  0  0  0  0  0  0  0  0  0  0  0
    0.2698    8.2076    3.3025 C   0  0  0  0  0  0  0  0  0  0  0  0
   -0.9958    8.8697    3.1530 N   0  0  0  0  0  0  0  0  0  0  0  0
   -1.0436   10.3151    3.0803 C   0  0  0  0  0  0  0  0  0  0  0  0
   -0.0275   11.0346    2.4159 C   0  0  0  0  0  0  0  0  0  0  0  0
    0.0183   12.4275    2.4968 C   0  0  0  0  0  0  0  0  0  0  0  0
   -0.9627   13.1362    3.2084 C   0  0  0  0  0  0  0  0  0  0  0  0
   -0.9102   14.6318    3.3084 C   0  0  0  0  0  0  0  0  0  0  0  0
   -2.0087   12.4249    3.8236 C   0  0  0  0  0  0  0  0  0  0  0  0
   -2.0382   11.0299    3.7695 C   0  0  0  0  0  0  0  0  0  0  0  0
   -2.1828    8.1245    2.8305 C   0  0  0  0  0  0  0  0  0  0  0  0
   -2.9458    8.4471    1.6967 C   0  0  0  0  0  0  0  0  0  0  0  0
   -4.0506    7.6721    1.3439 C   0  0  0  0  0  0  0  0  0  0  0  0
   -4.4220    6.5802    2.1305 C   0  0  0  0  0  0  0  0  0  0  0  0
   -5.5608    5.6940    1.7264 C   0  0  0  0  0  0  0  0  0  0  0  0
   -3.6679    6.2610    3.2760 C   0  0  0  0  0  0  0  0  0  0  0  0
   -2.5565    7.0339    3.6237 C   0  0  0  0  0  0  0  0  0  0  0  0
    1.3033    8.7246    4.1000 C   0  0  0  0  0  0  0  0  0  0  0  0
    1.4024    9.9511    5.2215 S   0  0  0  0  0  0  0  0  0  0  0  0
   -0.0086    6.4026    1.4855 C   0  0  0  0  0  0  0  0  0  0  0  0
   -0.2705    6.6184    0.1209 C   0  0  0  0  0  0  0  0  0  0  0  0
    0.3369    7.6966   -0.6701 C   0  0  0  0  0  0  0  0  0  0  0  0
    1.7256    7.6963   -0.8710 C   0  0  0  0  0  0  0  0  0  0  0  0
    2.3181    8.7031   -1.6295 C   0  0  0  0  0  0  0  0  0  0  0  0
    1.5371    9.7168   -2.1874 C   0  0  0  0  0  0  0  0  0  0  0  0
    0.1467    9.7359   -1.9813 C   0  0  0  0  0  0  0  0  0  0  0  0
   -0.6854   10.8156   -2.6123 C   0  0  0  0  0  0  0  0  0  0  0  0
   -0.9359   10.5043   -4.0838 C   0  0  0  0  0  0  0  0  0  0  0  0
   -0.4495    8.7019   -1.2423 C   0  0  0  0  0  0  0  0  0  0  0  0
   -0.9885    5.5466   -0.4291 C   0  0  0  0  0  0  0  0  0  0  0  0
   -1.4958    5.1602   -2.0123 S   0  0  0  0  0  0  0  0  0  0  0  0
   -2.0373    3.6320   -1.5027 C   0  0  0  0  0  0  0  0  0  0  0  0
   -2.6726    2.5159   -1.9866 C   0  0  0  0  0  0  0  0  0  0  0  0
   -3.2909    2.2427   -3.2152 C   0  0  0  0  0  0  0  0  0  0  0  0
   -4.0035    1.0163   -3.3694 C   0  0  0  0  0  0  0  0  0  0  0  0
   -4.5837    0.7899   -4.5776 N   0  0  0  0  0  0  0  0  0  0  0  0
   -4.1535    2.1923   -5.3526 S   0  0  0  0  0  0  0  0  0  0  0  0
   -3.2746    3.0967   -4.2715 N   0  0  0  0  0  0  0  0  0  0  0  0
   -4.0099    0.1000   -2.3030 C   0  0  0  0  0  0  0  0  0  0  0  0
   -4.3452   -1.2336   -2.2690 C   0  0  0  0  0  0  0  0  0  0  0  0
   -4.8206   -2.4077   -3.3996 S   0  0  0  0  0  0  0  0  0  0  0  0
   -4.2567   -3.6613   -2.3853 C   0  0  0  0  0  0  0  0  0  0  0  0
   -4.0406   -5.0369   -2.5983 C   0  0  0  0  0  0  0  0  0  0  0  0
   -4.6730   -5.8344   -3.6734 C   0  0  0  0  0  0  0  0  0  0  0  0
   -3.9334   -6.7413   -4.4515 C   0  0  0  0  0  0  0  0  0  0  0  0
   -4.5802   -7.5582   -5.3754 C   0  0  0  0  0  0  0  0  0  0  0  0
   -5.9725   -7.4848   -5.5308 C   0  0  0  0  0  0  0  0  0  0  0  0
   -6.7232   -6.5831   -4.7614 C   0  0  0  0  0  0  0  0  0  0  0  0
   -8.2235   -6.5312   -4.8983 C   0  0  0  0  0  0  0  0  0  0  0  0
   -8.6732   -5.2128   -5.5199 C   0  0  0  0  0  0  0  0  0  0  0  0
   -6.0623   -5.7537   -3.8419 C   0  0  0  0  0  0  0  0  0  0  0  0
   -3.2033   -5.5690   -1.5980 C   0  0  0  0  0  0  0  0  0  0  0  0
   -2.7605   -4.3437   -0.5141 S   0  0  0  0  0  0  0  0  0  0  0  0
   -3.6542   -3.1474   -1.2651 C   0  0  0  0  0  0  0  0  0  0  0  0
   -3.7504   -1.7610   -1.1758 C   0  0  0  0  0  0  0  0  0  0  0  0
   -3.0839   -0.8349   -0.4303 N   0  0  0  0  0  0  0  0  0  0  0  0
   -3.3096    0.3402   -1.1098 C   0  0  0  0  0  0  0  0  0  0  0  0
   -2.7355    1.6260   -0.9064 C   0  0  0  0  0  0  0  0  0  0  0  0
   -2.2690    2.2124    0.2374 N   0  0  0  0  0  0  0  0  0  0  0  0
   -1.8218    3.4255   -0.1799 C   0  0  0  0  0  0  0  0  0  0  0  0
   -1.2442    4.5214    0.4485 C   0  0  0  0  0  0  0  0  0  0  0  0
   -0.6353    4.8870    1.9600 S   0  0  0  0  0  0  0  0  0  0  0  0
   -2.7065    1.9314    1.6131 C   0  0  0  0  0  0  0  0  0  0  0  0
   -1.5229    1.7276    2.5701 C   0  0  0  0  0  0  0  0  0  0  0  0
   -1.9640   -1.1289    0.4714 C   0  0  0  0  0  0  0  0  0  0  0  0
   -2.4491   -1.7089    1.8003 C   0  0  0  0  0  0  0  0  0  0  0  0
   -2.4085   -6.8036   -1.6711 C   0  0  0  0  0  0  0  0  0  0  0  0
   -2.6542   -7.9870   -0.9521 C   0  0  0  0  0  0  0  0  0  0  0  0
   -3.9482   -8.6265   -0.9570 N   0  0  0  0  0  0  0  0  0  0  0  0
   -4.3925   -9.3588   -2.1430 C   0  0  0  0  0  0  0  0  0  0  0  0
   -5.7670   -9.5084   -2.4160 C   0  0  0  0  0  0  0  0  0  0  0  0
   -6.1939  -10.2175   -3.5447 C   0  0  0  0  0  0  0  0  0  0  0  0
   -5.2622  -10.8138   -4.4067 C   0  0  0  0  0  0  0  0  0  0  0  0
   -5.7159  -11.4726   -5.6695 C   0  0  0  0  0  0  0  0  0  0  0  0
   -3.8953  -10.6711   -4.1475 C   0  0  0  0  0  0  0  0  0  0  0  0
   -3.4688   -9.9600   -3.0293 C   0  0  0  0  0  0  0  0  0  0  0  0
   -4.6674   -8.7573    0.2733 C   0  0  0  0  0  0  0  0  0  0  0  0
   -5.0773   -7.6133    0.9815 C   0  0  0  0  0  0  0  0  0  0  0  0
   -5.8201   -7.7459    2.1592 C   0  0  0  0  0  0  0  0  0  0  0  0
   -6.1500   -9.0196    2.6510 C   0  0  0  0  0  0  0  0  0  0  0  0
   -6.9804   -9.1588    3.8944 C   0  0  0  0  0  0  0  0  0  0  0  0
   -5.7497  -10.1633    1.9401 C   0  0  0  0  0  0  0  0  0  0  0  0
   -5.0179  -10.0267    0.7576 C   0  0  0  0  0  0  0  0  0  0  0  0
   -1.4770   -8.7200   -0.8148 C   0  0  0  0  0  0  0  0  0  0  0  0
   -1.0852  -10.1926   -0.1169 S   0  0  0  0  0  0  0  0  0  0  0  0
    0.5265  -10.1809   -0.7080 C   0  0  0  0  0  0  0  0  0  0  0  0
    0.7123   -9.0492   -1.5310 C   0  0  0  0  0  0  0  0  0  0  0  0
    1.6725   -8.9753   -2.6100 N   0  0  0  0  0  0  0  0  0  0  0  0
    1.2012   -8.5843   -3.9143 C   0  0  0  0  0  0  0  0  0  0  0  0
    0.0791   -9.2224   -4.4680 C   0  0  0  0  0  0  0  0  0  0  0  0
   -0.5908   -8.6592   -5.5551 C   0  0  0  0  0  0  0  0  0  0  0  0
   -0.1348   -7.4559   -6.1224 C   0  0  0  0  0  0  0  0  0  0  0  0
   -0.9078   -6.8125   -7.2281 C   0  0  0  0  0  0  0  0  0  0  0  0
    1.0435   -6.8721   -5.6363 C   0  0  0  0  0  0  0  0  0  0  0  0
    1.7105   -7.4310   -4.5403 C   0  0  0  0  0  0  0  0  0  0  0  0
    3.0730   -9.2122   -2.4245 C   0  0  0  0  0  0  0  0  0  0  0  0
    3.8987   -8.1946   -1.9285 C   0  0  0  0  0  0  0  0  0  0  0  0
    5.2829   -8.3757   -1.8662 C   0  0  0  0  0  0  0  0  0  0  0  0
    5.8608   -9.5729   -2.3129 C   0  0  0  0  0  0  0  0  0  0  0  0
    7.3449   -9.7620   -2.2580 C   0  0  0  0  0  0  0  0  0  0  0  0
    5.0303  -10.6075   -2.7762 C   0  0  0  0  0  0  0  0  0  0  0  0
    3.6435  -10.4234   -2.8455 C   0  0  0  0  0  0  0  0  0  0  0  0
   -0.4073   -8.2267   -1.4792 C   0  0  0  0  0  0  0  0  0  0  0  0
   -0.7860   -6.7597   -2.1756 S   0  0  0  0  0  0  0  0  0  0  0  0
    1.5889  -11.0438   -0.1688 C   0  0  0  0  0  0  0  0  0  0  0  0
    2.6424  -10.5413    0.5058 C   0  0  0  0  0  0  0  0  0  0  0  0
    2.8416   -9.1270    0.8787 C   0  0  0  0  0  0  0  0  0  0  0  0
    1.9805   -8.2087    0.7996 O   0  0  0  0  0  0  0  0  0  0  0  0
    4.1474   -8.9859    1.4887 C   0  0  0  0  0  0  0  0  0  0  0  0
    4.6853  -10.2445    1.6838 C   0  0  0  0  0  0  0  0  0  0  0  0
    6.0325  -10.3813    2.0416 C   0  0  0  0  0  0  0  0  0  0  0  0
    6.8155   -9.2297    2.2137 C   0  0  0  0  0  0  0  0  0  0  0  0
    6.2687   -7.9562    2.0080 C   0  0  0  0  0  0  0  0  0  0  0  0
    7.4273   -6.4307    2.1153 Br  0  0  0  0  0  0  0  0  0  0  0  0
    4.9128   -7.8188    1.6516 C   0  0  0  0  0  0  0  0  0  0  0  0
    4.2300   -6.2393    1.2927 Cl  0  0  0  0  0  0  0  0  0  0  0  0
    3.7825  -11.2677    1.1242 C   0  0  0  0  0  0  0  0  0  0  0  0
    3.9032  -12.6036    1.3238 C   0  0  0  0  0  0  0  0  0  0  0  0
    4.4427  -13.1128    2.5560 C   0  0  0  0  0  0  0  0  0  0  0  0
    4.8106  -13.5114    3.5757 N   0  0  0  0  0  0  0  0  0  0  0  0
    3.4330  -13.5637    0.3596 C   0  0  0  0  0  0  0  0  0  0  0  0
    3.1026  -14.3181   -0.4521 N   0  0  0  0  0  0  0  0  0  0  0  0
    3.5756   10.3180    6.0889 H   0  0  0  0  0  0  0  0  0  0  0  0
    5.9471    8.0801    1.4642 H   0  0  0  0  0  0  0  0  0  0  0  0
    6.0050    9.0439   -0.7990 H   0  0  0  0  0  0  0  0  0  0  0  0
    6.0395   11.3093   -2.0760 H   0  0  0  0  0  0  0  0  0  0  0  0
    4.8071   12.5361   -1.6173 H   0  0  0  0  0  0  0  0  0  0  0  0
    4.2743   10.9615   -2.2928 H   0  0  0  0  0  0  0  0  0  0  0  0
    3.8701   12.5114    0.6009 H   0  0  0  0  0  0  0  0  0  0  0  0
    3.7979   11.5521    2.8596 H   0  0  0  0  0  0  0  0  0  0  0  0
    5.2977    7.1888    5.4211 H   0  0  0  0  0  0  0  0  0  0  0  0
    7.4317    6.6043    6.4937 H   0  0  0  0  0  0  0  0  0  0  0  0
   10.2901    6.9681    5.6722 H   0  0  0  0  0  0  0  0  0  0  0  0
   10.5689    8.6846    6.1599 H   0  0  0  0  0  0  0  0  0  0  0  0
    9.6932    7.5694    7.2740 H   0  0  0  0  0  0  0  0  0  0  0  0
    9.3602    9.8713    4.4428 H   0  0  0  0  0  0  0  0  0  0  0  0
    7.2210   10.4668    3.3869 H   0  0  0  0  0  0  0  0  0  0  0  0
    0.7501   10.5230    1.8550 H   0  0  0  0  0  0  0  0  0  0  0  0
    0.8278   12.9577    2.0038 H   0  0  0  0  0  0  0  0  0  0  0  0
   -1.8600   15.0705    2.9218 H   0  0  0  0  0  0  0  0  0  0  0  0
   -0.7843   14.9237    4.3690 H   0  0  0  0  0  0  0  0  0  0  0  0
   -0.0629   15.0502    2.7249 H   0  0  0  0  0  0  0  0  0  0  0  0
   -2.7963   12.9559    4.3601 H   0  0  0  0  0  0  0  0  0  0  0  0
   -2.8043   10.4981    4.3105 H   0  0  0  0  0  0  0  0  0  0  0  0
   -2.6671    9.2807    1.0666 H   0  0  0  0  0  0  0  0  0  0  0  0
   -4.6078    7.9154    0.4491 H   0  0  0  0  0  0  0  0  0  0  0  0
   -6.2038    5.4701    2.6063 H   0  0  0  0  0  0  0  0  0  0  0  0
   -5.1637    4.7431    1.3059 H   0  0  0  0  0  0  0  0  0  0  0  0
   -6.1992    6.1952    0.9669 H   0  0  0  0  0  0  0  0  0  0  0  0
   -3.9290    5.4097    3.8936 H   0  0  0  0  0  0  0  0  0  0  0  0
   -1.9783    6.7896    4.5017 H   0  0  0  0  0  0  0  0  0  0  0  0
    2.3465    6.9100   -0.4598 H   0  0  0  0  0  0  0  0  0  0  0  0
    3.3877    8.6884   -1.8098 H   0  0  0  0  0  0  0  0  0  0  0  0
    2.0057   10.4807   -2.7951 H   0  0  0  0  0  0  0  0  0  0  0  0
   -0.1580   11.7919   -2.5285 H   0  0  0  0  0  0  0  0  0  0  0  0
   -1.6604   10.9169   -2.0863 H   0  0  0  0  0  0  0  0  0  0  0  0
   -1.4813   11.3477   -4.5591 H   0  0  0  0  0  0  0  0  0  0  0  0
    0.0268   10.3636   -4.6236 H   0  0  0  0  0  0  0  0  0  0  0  0
   -1.5494    9.5829   -4.1800 H   0  0  0  0  0  0  0  0  0  0  0  0
   -1.5238    8.6784   -1.1175 H   0  0  0  0  0  0  0  0  0  0  0  0
   -2.8568   -6.8135   -4.3478 H   0  0  0  0  0  0  0  0  0  0  0  0
   -4.0111   -8.2737   -5.9529 H   0  0  0  0  0  0  0  0  0  0  0  0
   -6.4472   -8.1527   -6.2309 H   0  0  0  0  0  0  0  0  0  0  0  0
   -8.5893   -7.3714   -5.5279 H   0  0  0  0  0  0  0  0  0  0  0  0
   -8.6852   -6.6439   -3.8960 H   0  0  0  0  0  0  0  0  0  0  0  0
   -8.4317   -4.3623   -4.8467 H   0  0  0  0  0  0  0  0  0  0  0  0
   -9.7716   -5.2358   -5.6768 H   0  0  0  0  0  0  0  0  0  0  0  0
   -8.1755   -5.0608   -6.5012 H   0  0  0  0  0  0  0  0  0  0  0  0
   -6.6365   -5.0670   -3.2349 H   0  0  0  0  0  0  0  0  0  0  0  0
   -3.3473    2.7683    1.9700 H   0  0  0  0  0  0  0  0  0  0  0  0
   -3.3635    1.0469    1.6284 H   0  0  0  0  0  0  0  0  0  0  0  0
   -1.5655    2.4885    3.3845 H   0  0  0  0  0  0  0  0  0  0  0  0
   -1.5796    0.7252    3.0527 H   0  0  0  0  0  0  0  0  0  0  0  0
   -0.5513    1.8204    2.0458 H   0  0  0  0  0  0  0  0  0  0  0  0
   -1.2661   -1.8315   -0.0254 H   0  0  0  0  0  0  0  0  0  0  0  0
   -1.3623   -0.2166    0.6576 H   0  0  0  0  0  0  0  0  0  0  0  0
   -3.3154   -1.1284    2.1867 H   0  0  0  0  0  0  0  0  0  0  0  0
   -2.7684   -2.7621    1.6875 H   0  0  0  0  0  0  0  0  0  0  0  0
   -1.6197   -1.6714    2.5403 H   0  0  0  0  0  0  0  0  0  0  0  0
   -6.4975   -9.0026   -1.8075 H   0  0  0  0  0  0  0  0  0  0  0  0
   -7.2556  -10.2880   -3.7563 H   0  0  0  0  0  0  0  0  0  0  0  0
   -5.7706  -10.7171   -6.4783 H   0  0  0  0  0  0  0  0  0  0  0  0
   -6.7087  -11.9497   -5.5348 H   0  0  0  0  0  0  0  0  0  0  0  0
   -4.9841  -12.2580   -5.9784 H   0  0  0  0  0  0  0  0  0  0  0  0
   -3.1585  -11.0805   -4.8232 H   0  0  0  0  0  0  0  0  0  0  0  0
   -2.4035   -9.8445   -2.8978 H   0  0  0  0  0  0  0  0  0  0  0  0
   -4.8299   -6.6275    0.6102 H   0  0  0  0  0  0  0  0  0  0  0  0
   -6.1394   -6.8569    2.6868 H   0  0  0  0  0  0  0  0  0  0  0  0
   -6.8484  -10.1667    4.3467 H   0  0  0  0  0  0  0  0  0  0  0  0
   -6.6815   -8.3983    4.6468 H   0  0  0  0  0  0  0  0  0  0  0  0
   -8.0492   -9.0197    3.6385 H   0  0  0  0  0  0  0  0  0  0  0  0
   -6.0067  -11.1527    2.2963 H   0  0  0  0  0  0  0  0  0  0  0  0
   -4.7041  -10.9189    0.2221 H   0  0  0  0  0  0  0  0  0  0  0  0
   -0.3134  -10.1174   -4.0072 H   0  0  0  0  0  0  0  0  0  0  0  0
   -1.4916   -9.1329   -5.9295 H   0  0  0  0  0  0  0  0  0  0  0  0
   -0.6075   -5.7507   -7.3619 H   0  0  0  0  0  0  0  0  0  0  0  0
   -1.9916   -6.8354   -6.9960 H   0  0  0  0  0  0  0  0  0  0  0  0
   -0.7228   -7.3662   -8.1687 H   0  0  0  0  0  0  0  0  0  0  0  0
    1.4235   -5.9542   -6.0675 H   0  0  0  0  0  0  0  0  0  0  0  0
    2.5720   -6.9230   -4.1328 H   0  0  0  0  0  0  0  0  0  0  0  0
    3.4656   -7.2550   -1.6178 H   0  0  0  0  0  0  0  0  0  0  0  0
    5.9056   -7.5799   -1.4847 H   0  0  0  0  0  0  0  0  0  0  0  0
    7.6764  -10.5137   -3.0060 H   0  0  0  0  0  0  0  0  0  0  0  0
    7.8623   -8.8053   -2.4857 H   0  0  0  0  0  0  0  0  0  0  0  0
    7.6440  -10.1015   -1.2435 H   0  0  0  0  0  0  0  0  0  0  0  0
    5.4584  -11.5500   -3.1026 H   0  0  0  0  0  0  0  0  0  0  0  0
    3.0163  -11.2208   -3.2300 H   0  0  0  0  0  0  0  0  0  0  0  0
    1.4373  -12.1043   -0.2477 H   0  0  0  0  0  0  0  0  0  0  0  0
    6.4878  -11.3622    2.1203 H   0  0  0  0  0  0  0  0  0  0  0  0
    7.8650   -9.3362    2.4582 H   0  0  0  0  0  0  0  0  0  0  0  0
  1  2  2  3
  2  3  1  0
  3  4  3  0
  2  5  1  0
  5  6  3  0
  1  7  1  0
  7  8  2  0
  8  9  1  0
  9 10  1  0
 10 11  2  0
 11 12  1  0
 12 13  2  0
 13 14  1  0
 13 15  1  0
 15 16  2  0
  9 17  1  0
 17 18  2  0
 18 19  1  0
 19 20  2  0
 20 21  1  0
 20 22  1  0
 22 23  2  0
  8 24  1  0
 24 25  1  0
 25 26  1  0
 26 27  2  0
 27 28  1  0
 28 29  1  0
 29 30  2  0
 30 31  1  0
 31 32  2  0
 32 33  1  0
 32 34  1  0
 34 35  2  0
 28 36  1  0
 36 37  2  0
 37 38  1  0
 38 39  2  0
 39 40  1  0
 39 41  1  0
 41 42  2  0
 27 43  1  0
 43 44  1  0
 26 45  1  0
 45 46  2  0
 46 47  1  0
 47 48  2  0
 48 49  1  0
 49 50  2  0
 50 51  1  0
 51 52  1  0
 52 53  1  0
 51 54  2  0
 46 55  1  0
 55 56  1  0
 56 57  1  0
 57 58  1  0
 58 59  1  0
 59 60  1  0
 60 61  2  0
 61 62  1  0
 62 63  1  0
 60 64  1  0
 64 65  1  0
 65 66  1  0
 66 67  1  0
 67 68  1  0
 68 69  1  0
 69 70  2  0
 70 71  1  0
 71 72  2  0
 72 73  1  0
 73 74  1  0
 74 75  1  0
 73 76  2  0
 68 77  2  0
 77 78  1  0
 78 79  1  0
 79 80  1  0
 80 81  1  0
 81 82  1  0
 82 83  1  0
 83 84  1  0
 84 85  1  0
 85 86  1  0
 86 87  1  0
 84 88  1  0
 88 89  1  0
 81 90  1  0
 90 91  1  0
 77 92  1  0
 92 93  2  0
 93 94  1  0
 94 95  1  0
 95 96  2  0
 96 97  1  0
 97 98  2  0
 98 99  1  0
 98100  1  0
100101  2  0
 94102  1  0
102103  2  0
103104  1  0
104105  2  0
105106  1  0
105107  1  0
107108  2  0
 93109  1  0
109110  1  0
110111  1  0
111112  2  0
112113  1  0
113114  1  0
114115  2  0
115116  1  0
116117  2  0
117118  1  0
117119  1  0
119120  2  0
113121  1  0
121122  2  0
122123  1  0
123124  2  0
124125  1  0
124126  1  0
126127  2  0
112128  1  0
128129  1  0
111130  1  0
130131  2  3
131132  1  0
132133  2  0
132134  1  0
134135  2  0
135136  1  0
136137  2  0
137138  1  0
138139  1  0
138140  2  0
140141  1  0
135142  1  0
142143  2  3
143144  1  0
144145  3  0
143146  1  0
146147  3  0
 44  7  1  0
 87 45  1  0
129 92  1  0
142131  1  0
 16 10  1  0
 23 17  1  0
 43 24  2  0
 54 47  1  0
 86 55  2  0
101 95  1  0
108102  1  0
128109  2  0
140134  1  0
 35 29  1  0
 42 36  1  0
 85 57  2  0
120114  1  0
127121  1  0
 83 58  2  0
 63 59  2  0
 82 64  2  0
 80 65  2  0
 79 67  2  0
 76 69  1  0
  1148  1  0
 11149  1  0
 12150  1  0
 14151  1  0
 14152  1  0
 14153  1  0
 15154  1  0
 16155  1  0
 18156  1  0
 19157  1  0
 21158  1  0
 21159  1  0
 21160  1  0
 22161  1  0
 23162  1  0
 30163  1  0
 31164  1  0
 33165  1  0
 33166  1  0
 33167  1  0
 34168  1  0
 35169  1  0
 37170  1  0
 38171  1  0
 40172  1  0
 40173  1  0
 40174  1  0
 41175  1  0
 42176  1  0
 48177  1  0
 49178  1  0
 50179  1  0
 52180  1  0
 52181  1  0
 53182  1  0
 53183  1  0
 53184  1  0
 54185  1  0
 70186  1  0
 71187  1  0
 72188  1  0
 74189  1  0
 74190  1  0
 75191  1  0
 75192  1  0
 75193  1  0
 76194  1  0
 88195  1  0
 88196  1  0
 89197  1  0
 89198  1  0
 89199  1  0
 90200  1  0
 90201  1  0
 91202  1  0
 91203  1  0
 91204  1  0
 96205  1  0
 97206  1  0
 99207  1  0
 99208  1  0
 99209  1  0
100210  1  0
101211  1  0
103212  1  0
104213  1  0
106214  1  0
106215  1  0
106216  1  0
107217  1  0
108218  1  0
115219  1  0
116220  1  0
118221  1  0
118222  1  0
118223  1  0
119224  1  0
120225  1  0
122226  1  0
123227  1  0
125228  1  0
125229  1  0
125230  1  0
126231  1  0
127232  1  0
130233  1  0
136234  1  0
137235  1  0
M  END

