
     RDKit          3D

199218  0  0  0  0  0  0  0  0999 V2000
    6.1352    7.3851   -2.3061 C   0  0  0  0  0  0  0  0  0  0  0  0
    6.7887    6.2461   -2.0289 C   0  0  0  0  0  0  0  0  0  0  0  0
    6.2056    4.6923   -2.3103 S   0  0  0  0  0  0  0  0  0  0  0  0
    7.6170    3.9027   -1.8142 C   0  0  0  0  0  0  0  0  0  0  0  0
    7.7463    2.5526   -1.8034 C   0  0  0  0  0  0  0  0  0  0  0  0
    8.9214    1.8681   -1.3304 C   0  0  0  0  0  0  0  0  0  0  0  0
    9.8540    1.3021   -0.9422 N   0  0  0  0  0  0  0  0  0  0  0  0
    6.6496    1.7074   -2.2108 C   0  0  0  0  0  0  0  0  0  0  0  0
    5.7689    1.0276   -2.5227 N   0  0  0  0  0  0  0  0  0  0  0  0
    8.5507    4.8308   -1.4353 N   0  0  0  0  0  0  0  0  0  0  0  0
    9.9190    4.5566   -1.0883 C   0  0  0  0  0  0  0  0  0  0  0  0
   10.8803    4.4125   -2.1004 C   0  0  0  0  0  0  0  0  0  0  0  0
   12.2042    4.1058   -1.7732 C   0  0  0  0  0  0  0  0  0  0  0  0
   12.5733    3.9464   -0.4359 C   0  0  0  0  0  0  0  0  0  0  0  0
   11.6213    4.1151    0.5785 C   0  0  0  0  0  0  0  0  0  0  0  0
   10.2976    4.4243    0.2557 C   0  0  0  0  0  0  0  0  0  0  0  0
    8.0897    6.1179   -1.5420 C   0  0  0  0  0  0  0  0  0  0  0  0
    8.8092    7.1146   -1.2599 O   0  0  0  0  0  0  0  0  0  0  0  0
    4.8733    7.3548   -3.0671 C   0  0  0  0  0  0  0  0  0  0  0  0
    3.6210    7.1734   -2.4450 C   0  0  0  0  0  0  0  0  0  0  0  0
    3.4039    7.3710   -1.0721 O   0  0  0  0  0  0  0  0  0  0  0  0
    4.0636    8.3553   -0.2750 C   0  0  0  0  0  0  0  0  0  0  0  0
    3.2855    8.5526    1.0162 C   0  0  0  0  0  0  0  0  0  0  0  0
    2.5191    6.7705   -3.2177 C   0  0  0  0  0  0  0  0  0  0  0  0
    1.2456    6.8357   -2.6361 O   0  0  0  0  0  0  0  0  0  0  0  0
    0.1364    7.4668   -3.2793 C   0  0  0  0  0  0  0  0  0  0  0  0
    0.3708    8.9701   -3.3900 C   0  0  0  0  0  0  0  0  0  0  0  0
    2.7014    6.3253   -4.5569 C   0  0  0  0  0  0  0  0  0  0  0  0
    3.8698    6.7825   -5.2162 C   0  0  0  0  0  0  0  0  0  0  0  0
    4.9508    7.2951   -4.4650 C   0  0  0  0  0  0  0  0  0  0  0  0
    6.0892    7.6803   -5.1075 N   0  0  0  0  0  0  0  0  0  0  0  0
    6.1872    7.6404   -6.4592 C   0  0  0  0  0  0  0  0  0  0  0  0
    5.1058    7.1863   -7.2066 C   0  0  0  0  0  0  0  0  0  0  0  0
    3.9858    6.7665   -6.5673 N   0  0  0  0  0  0  0  0  0  0  0  0
    1.8910    5.1374   -5.0385 C   0  0  0  0  0  0  0  0  0  0  0  0
    2.2379    4.2419   -6.0958 C   0  0  0  0  0  0  0  0  0  0  0  0
    2.5663    4.6407   -7.4758 C   0  0  0  0  0  0  0  0  0  0  0  0
    3.6271    4.0426   -8.1747 C   0  0  0  0  0  0  0  0  0  0  0  0
    3.8753    4.3893   -9.5054 C   0  0  0  0  0  0  0  0  0  0  0  0
    3.0717    5.3392  -10.1457 C   0  0  0  0  0  0  0  0  0  0  0  0
    2.0133    5.9482   -9.4597 C   0  0  0  0  0  0  0  0  0  0  0  0
    1.1226    6.9444  -10.1503 C   0  0  0  0  0  0  0  0  0  0  0  0
   -0.1210    6.2636  -10.7126 C   0  0  0  0  0  0  0  0  0  0  0  0
    1.7544    5.5809   -8.1291 C   0  0  0  0  0  0  0  0  0  0  0  0
    1.8059    2.9377   -5.8446 C   0  0  0  0  0  0  0  0  0  0  0  0
    2.3725    1.4228   -6.4048 S   0  0  0  0  0  0  0  0  0  0  0  0
    1.5225    0.6219   -5.1723 C   0  0  0  0  0  0  0  0  0  0  0  0
    1.4572   -0.6021   -4.5723 C   0  0  0  0  0  0  0  0  0  0  0  0
    2.1029   -1.8075   -4.8602 C   0  0  0  0  0  0  0  0  0  0  0  0
    1.9111   -2.9132   -3.9809 C   0  0  0  0  0  0  0  0  0  0  0  0
    2.5805   -4.0553   -4.2747 N   0  0  0  0  0  0  0  0  0  0  0  0
    3.3669   -3.5737   -5.6498 S   0  0  0  0  0  0  0  0  0  0  0  0
    2.9304   -1.9962   -5.9157 N   0  0  0  0  0  0  0  0  0  0  0  0
    1.0934   -2.7453   -2.8593 C   0  0  0  0  0  0  0  0  0  0  0  0
    0.8612   -3.5607   -1.7899 C   0  0  0  0  0  0  0  0  0  0  0  0
    1.3837   -5.0492   -1.1526 S   0  0  0  0  0  0  0  0  0  0  0  0
    0.5401   -4.7608    0.3089 C   0  0  0  0  0  0  0  0  0  0  0  0
    0.2818   -5.5138    1.4631 C   0  0  0  0  0  0  0  0  0  0  0  0
    1.0659   -6.7107    1.8453 C   0  0  0  0  0  0  0  0  0  0  0  0
    1.2604   -7.7680    0.9435 C   0  0  0  0  0  0  0  0  0  0  0  0
    2.0271   -8.8762    1.3138 C   0  0  0  0  0  0  0  0  0  0  0  0
    2.6407   -8.9208    2.5681 C   0  0  0  0  0  0  0  0  0  0  0  0
    2.4781   -7.8614    3.4729 C   0  0  0  0  0  0  0  0  0  0  0  0
    3.1784   -7.8792    4.8109 C   0  0  0  0  0  0  0  0  0  0  0  0
    2.1967   -8.1698    5.9426 C   0  0  0  0  0  0  0  0  0  0  0  0
    1.6754   -6.7653    3.1144 C   0  0  0  0  0  0  0  0  0  0  0  0
   -0.6709   -4.8640    2.2935 C   0  0  0  0  0  0  0  0  0  0  0  0
   -1.0678   -3.3555    1.5956 S   0  0  0  0  0  0  0  0  0  0  0  0
   -0.0683   -3.5345    0.2779 C   0  0  0  0  0  0  0  0  0  0  0  0
    0.1346   -2.8475   -0.9014 C   0  0  0  0  0  0  0  0  0  0  0  0
   -0.0465   -1.5528   -1.2604 N   0  0  0  0  0  0  0  0  0  0  0  0
    0.4834   -1.5152   -2.5338 C   0  0  0  0  0  0  0  0  0  0  0  0
    0.6439   -0.4275   -3.4381 C   0  0  0  0  0  0  0  0  0  0  0  0
    0.1682    0.8558   -3.3777 N   0  0  0  0  0  0  0  0  0  0  0  0
    0.8071    1.4686   -4.4034 C   0  0  0  0  0  0  0  0  0  0  0  0
    1.0028    2.7904   -4.7530 C   0  0  0  0  0  0  0  0  0  0  0  0
    0.9355    4.2309   -3.9305 S   0  0  0  0  0  0  0  0  0  0  0  0
   -1.1138    1.3016   -2.8059 C   0  0  0  0  0  0  0  0  0  0  0  0
   -2.0383    1.9387   -3.8499 C   0  0  0  0  0  0  0  0  0  0  0  0
   -0.0929   -0.4705   -0.2585 C   0  0  0  0  0  0  0  0  0  0  0  0
    1.2958    0.1065    0.0006 C   0  0  0  0  0  0  0  0  0  0  0  0
   -1.5587   -5.4862    3.3229 C   0  0  0  0  0  0  0  0  0  0  0  0
   -2.2241   -4.6721    4.2735 C   0  0  0  0  0  0  0  0  0  0  0  0
   -1.8070   -3.4001    4.5310 N   0  0  0  0  0  0  0  0  0  0  0  0
   -2.5103   -2.5506    5.3318 C   0  0  0  0  0  0  0  0  0  0  0  0
   -1.9080   -1.2421    5.6754 C   0  0  0  0  0  0  0  0  0  0  0  0
   -1.7217   -0.8746    7.0163 C   0  0  0  0  0  0  0  0  0  0  0  0
   -1.1626    0.3661    7.3413 C   0  0  0  0  0  0  0  0  0  0  0  0
   -0.7923    1.2693    6.3226 C   0  0  0  0  0  0  0  0  0  0  0  0
   -0.2434    2.5430    6.5579 O   0  0  0  0  0  0  0  0  0  0  0  0
    0.0021    3.1573    7.8189 C   0  0  0  0  0  0  0  0  0  0  0  0
   -1.2875    3.7229    8.4093 C   0  0  0  0  0  0  0  0  0  0  0  0
   -0.9757    0.8886    4.9843 C   0  0  0  0  0  0  0  0  0  0  0  0
   -1.5173   -0.3580    4.6618 C   0  0  0  0  0  0  0  0  0  0  0  0
   -1.6996   -0.6837    3.3587 F   0  0  0  0  0  0  0  0  0  0  0  0
   -0.6302    1.7406    3.9904 F   0  0  0  0  0  0  0  0  0  0  0  0
   -0.9787    0.6505    8.6515 F   0  0  0  0  0  0  0  0  0  0  0  0
   -2.0656   -1.7299    8.0149 F   0  0  0  0  0  0  0  0  0  0  0  0
   -3.7559   -2.9774    5.8526 C   0  0  0  0  0  0  0  0  0  0  0  0
   -4.7411   -2.0578    6.4912 C   0  0  0  0  0  0  0  0  0  0  0  0
   -5.0528   -0.8130    5.9091 C   0  0  0  0  0  0  0  0  0  0  0  0
   -4.4661   -0.4291    4.7439 F   0  0  0  0  0  0  0  0  0  0  0  0
   -6.0395    0.0087    6.4591 C   0  0  0  0  0  0  0  0  0  0  0  0
   -6.2485    1.2149    5.8827 F   0  0  0  0  0  0  0  0  0  0  0  0
   -6.8052   -0.4398    7.5568 C   0  0  0  0  0  0  0  0  0  0  0  0
   -7.8629    0.2943    8.1290 O   0  0  0  0  0  0  0  0  0  0  0  0
   -8.3281    1.5883    7.7417 C   0  0  0  0  0  0  0  0  0  0  0  0
   -9.2136    1.5102    6.5022 C   0  0  0  0  0  0  0  0  0  0  0  0
   -6.5103   -1.6881    8.1199 C   0  0  0  0  0  0  0  0  0  0  0  0
   -7.2326   -2.1327    9.1793 F   0  0  0  0  0  0  0  0  0  0  0  0
   -5.4828   -2.4870    7.6027 C   0  0  0  0  0  0  0  0  0  0  0  0
   -5.2200   -3.6833    8.1853 F   0  0  0  0  0  0  0  0  0  0  0  0
   -4.1165   -4.2774    5.6738 N   0  0  0  0  0  0  0  0  0  0  0  0
   -3.3704   -5.1475    4.9420 C   0  0  0  0  0  0  0  0  0  0  0  0
   -3.7927   -6.4731    4.7702 C   0  0  0  0  0  0  0  0  0  0  0  0
   -3.0633   -7.3183    3.9239 C   0  0  0  0  0  0  0  0  0  0  0  0
   -1.9908   -6.8256    3.1761 C   0  0  0  0  0  0  0  0  0  0  0  0
   -1.4748   -7.6354    2.2218 F   0  0  0  0  0  0  0  0  0  0  0  0
   -3.4375   -8.6131    3.7588 F   0  0  0  0  0  0  0  0  0  0  0  0
   -4.9917   -6.9692    5.4764 C   0  0  0  0  0  0  0  0  0  0  0  0
   -6.0692   -7.4431    4.8326 C   0  0  0  0  0  0  0  0  0  0  0  0
   -6.3130   -7.4757    3.1678 S   0  0  0  0  0  0  0  0  0  0  0  0
   -7.8434   -8.1936    3.2524 C   0  0  0  0  0  0  0  0  0  0  0  0
   -8.5584   -8.5519    2.1570 C   0  0  0  0  0  0  0  0  0  0  0  0
   -9.7780   -9.3177    2.2195 C   0  0  0  0  0  0  0  0  0  0  0  0
  -10.7491   -9.9435    2.2566 N   0  0  0  0  0  0  0  0  0  0  0  0
   -8.0767   -8.2373    0.8355 C   0  0  0  0  0  0  0  0  0  0  0  0
   -7.6878   -7.9861   -0.2264 N   0  0  0  0  0  0  0  0  0  0  0  0
   -8.1884   -8.3873    4.5627 N   0  0  0  0  0  0  0  0  0  0  0  0
   -9.4519   -8.8671    5.0498 C   0  0  0  0  0  0  0  0  0  0  0  0
  -10.5890   -8.0447    4.9892 C   0  0  0  0  0  0  0  0  0  0  0  0
  -11.8083   -8.4985    5.5028 C   0  0  0  0  0  0  0  0  0  0  0  0
  -11.8909   -9.7673    6.0888 C   0  0  0  0  0  0  0  0  0  0  0  0
  -10.7588  -10.5816    6.1642 C   0  0  0  0  0  0  0  0  0  0  0  0
   -9.5382  -10.1320    5.6487 C   0  0  0  0  0  0  0  0  0  0  0  0
   -7.2143   -7.9664    5.4287 C   0  0  0  0  0  0  0  0  0  0  0  0
   -7.3511   -8.0415    6.6806 O   0  0  0  0  0  0  0  0  0  0  0  0
    6.6072    8.3432   -2.1259 H   0  0  0  0  0  0  0  0  0  0  0  0
   10.5934    4.5208   -3.1386 H   0  0  0  0  0  0  0  0  0  0  0  0
   12.9387    3.9773   -2.5575 H   0  0  0  0  0  0  0  0  0  0  0  0
   13.5939    3.6906   -0.1820 H   0  0  0  0  0  0  0  0  0  0  0  0
   11.9096    3.9896    1.6123 H   0  0  0  0  0  0  0  0  0  0  0  0
    9.5614    4.5361    1.0417 H   0  0  0  0  0  0  0  0  0  0  0  0
    4.0994    9.3252   -0.8213 H   0  0  0  0  0  0  0  0  0  0  0  0
    5.0889    8.0217   -0.0168 H   0  0  0  0  0  0  0  0  0  0  0  0
    3.7428    9.3721    1.6099 H   0  0  0  0  0  0  0  0  0  0  0  0
    3.3133    7.6189    1.6134 H   0  0  0  0  0  0  0  0  0  0  0  0
    2.2270    8.8032    0.7939 H   0  0  0  0  0  0  0  0  0  0  0  0
   -0.7758    7.2871   -2.6737 H   0  0  0  0  0  0  0  0  0  0  0  0
   -0.0321    7.0385   -4.2913 H   0  0  0  0  0  0  0  0  0  0  0  0
   -0.4993    9.4493   -3.8842 H   0  0  0  0  0  0  0  0  0  0  0  0
    0.4966    9.4083   -2.3769 H   0  0  0  0  0  0  0  0  0  0  0  0
    1.2788    9.1785   -3.9944 H   0  0  0  0  0  0  0  0  0  0  0  0
    7.0949    7.9651   -6.9480 H   0  0  0  0  0  0  0  0  0  0  0  0
    5.1565    7.1556   -8.2828 H   0  0  0  0  0  0  0  0  0  0  0  0
    4.2615    3.3150   -7.6871 H   0  0  0  0  0  0  0  0  0  0  0  0
    4.6930    3.9270  -10.0385 H   0  0  0  0  0  0  0  0  0  0  0  0
    3.2767    5.5963  -11.1789 H   0  0  0  0  0  0  0  0  0  0  0  0
    0.8128    7.7330   -9.4266 H   0  0  0  0  0  0  0  0  0  0  0  0
    1.6714    7.4442  -10.9746 H   0  0  0  0  0  0  0  0  0  0  0  0
   -0.7591    7.0223  -11.2142 H   0  0  0  0  0  0  0  0  0  0  0  0
    0.1703    5.4885  -11.4531 H   0  0  0  0  0  0  0  0  0  0  0  0
   -0.7084    5.7878   -9.8958 H   0  0  0  0  0  0  0  0  0  0  0  0
    0.9116    6.0253   -7.6051 H   0  0  0  0  0  0  0  0  0  0  0  0
    0.8025   -7.7476   -0.0371 H   0  0  0  0  0  0  0  0  0  0  0  0
    2.1590   -9.6980    0.6208 H   0  0  0  0  0  0  0  0  0  0  0  0
    3.2468   -9.7794    2.8310 H   0  0  0  0  0  0  0  0  0  0  0  0
    3.9747   -8.6536    4.8185 H   0  0  0  0  0  0  0  0  0  0  0  0
    3.6727   -6.8961    4.9873 H   0  0  0  0  0  0  0  0  0  0  0  0
    2.7327   -8.1478    6.9141 H   0  0  0  0  0  0  0  0  0  0  0  0
    1.3885   -7.4065    5.9721 H   0  0  0  0  0  0  0  0  0  0  0  0
    1.7453   -9.1738    5.8057 H   0  0  0  0  0  0  0  0  0  0  0  0
    1.5578   -5.9349    3.8026 H   0  0  0  0  0  0  0  0  0  0  0  0
   -0.9258    2.0350   -1.9894 H   0  0  0  0  0  0  0  0  0  0  0  0
   -1.6764    0.4228   -2.4331 H   0  0  0  0  0  0  0  0  0  0  0  0
   -2.1225    1.2770   -4.7407 H   0  0  0  0  0  0  0  0  0  0  0  0
   -3.0560    2.0742   -3.4140 H   0  0  0  0  0  0  0  0  0  0  0  0
   -1.6708    2.9397   -4.1542 H   0  0  0  0  0  0  0  0  0  0  0  0
   -0.7932    0.3247   -0.5186 H   0  0  0  0  0  0  0  0  0  0  0  0
   -0.4853   -0.8536    0.7036 H   0  0  0  0  0  0  0  0  0  0  0  0
    1.2328    0.8830    0.7934 H   0  0  0  0  0  0  0  0  0  0  0  0
    1.6952    0.5736   -0.9208 H   0  0  0  0  0  0  0  0  0  0  0  0
    1.9851   -0.6954    0.3418 H   0  0  0  0  0  0  0  0  0  0  0  0
    0.5059    2.4659    8.5241 H   0  0  0  0  0  0  0  0  0  0  0  0
    0.7012    4.0075    7.6581 H   0  0  0  0  0  0  0  0  0  0  0  0
   -1.7593    4.4163    7.6803 H   0  0  0  0  0  0  0  0  0  0  0  0
   -1.0556    4.2889    9.3357 H   0  0  0  0  0  0  0  0  0  0  0  0
   -2.0048    2.9148    8.6562 H   0  0  0  0  0  0  0  0  0  0  0  0
   -7.4790    2.2877    7.5958 H   0  0  0  0  0  0  0  0  0  0  0  0
   -8.9445    1.9967    8.5707 H   0  0  0  0  0  0  0  0  0  0  0  0
   -8.6771    1.0413    5.6533 H   0  0  0  0  0  0  0  0  0  0  0  0
  -10.1264    0.9107    6.7107 H   0  0  0  0  0  0  0  0  0  0  0  0
   -9.5248    2.5370    6.2056 H   0  0  0  0  0  0  0  0  0  0  0  0
   -5.0040   -6.9059    6.5552 H   0  0  0  0  0  0  0  0  0  0  0  0
  -10.5253   -7.0571    4.5450 H   0  0  0  0  0  0  0  0  0  0  0  0
  -12.6807   -7.8651    5.4534 H   0  0  0  0  0  0  0  0  0  0  0  0
  -12.8325  -10.1148    6.4880 H   0  0  0  0  0  0  0  0  0  0  0  0
  -10.8199  -11.5582    6.6242 H   0  0  0  0  0  0  0  0  0  0  0  0
   -8.6587  -10.7598    5.7163 H   0  0  0  0  0  0  0  0  0  0  0  0
  1  2  2  3
  2  3  1  0
  3  4  1  0
  4  5  2  3
  5  6  1  0
  6  7  3  0
  5  8  1  0
  8  9  3  0
  4 10  1  0
 10 11  1  0
 11 12  2  0
 12 13  1  0
 13 14  2  0
 14 15  1  0
 15 16  2  0
 10 17  1  0
 17 18  2  0
  1 19  1  0
 19 20  2  0
 20 21  1  0
 21 22  1  0
 22 23  1  0
 20 24  1  0
 24 25  1  0
 25 26  1  0
 26 27  1  0
 24 28  2  0
 28 29  1  0
 29 30  2  0
 30 31  1  0
 31 32  2  0
 32 33  1  0
 33 34  2  0
 28 35  1  0
 35 36  2  0
 36 37  1  0
 37 38  2  0
 38 39  1  0
 39 40  2  0
 40 41  1  0
 41 42  1  0
 42 43  1  0
 41 44  2  0
 36 45  1  0
 45 46  1  0
 46 47  1  0
 47 48  1  0
 48 49  1  0
 49 50  1  0
 50 51  2  0
 51 52  1  0
 52 53  1  0
 50 54  1  0
 54 55  1  0
 55 56  1  0
 56 57  1  0
 57 58  1  0
 58 59  1  0
 59 60  2  0
 60 61  1  0
 61 62  2  0
 62 63  1  0
 63 64  1  0
 64 65  1  0
 63 66  2  0
 58 67  2  0
 67 68  1  0
 68 69  1  0
 69 70  1  0
 70 71  1  0
 71 72  1  0
 72 73  1  0
 73 74  1  0
 74 75  1  0
 75 76  1  0
 76 77  1  0
 74 78  1  0
 78 79  1  0
 71 80  1  0
 80 81  1  0
 67 82  1  0
 82 83  1  0
 83 84  2  0
 84 85  1  0
 85 86  1  0
 86 87  2  0
 87 88  1  0
 88 89  2  0
 89 90  1  0
 90 91  1  0
 91 92  1  0
 89 93  1  0
 93 94  2  0
 94 95  1  0
 93 96  1  0
 88 97  1  0
 87 98  1  0
 85 99  2  0
 99100  1  0
100101  2  0
101102  1  0
101103  1  0
103104  1  0
103105  2  0
105106  1  0
106107  1  0
107108  1  0
105109  1  0
109110  1  0
109111  2  0
111112  1  0
 99113  1  0
113114  2  0
114115  1  0
115116  2  0
116117  1  0
117118  1  0
116119  1  0
115120  1  0
120121  2  3
121122  1  0
122123  1  0
123124  2  3
124125  1  0
125126  3  0
124127  1  0
127128  3  0
123129  1  0
129130  1  0
130131  2  0
131132  1  0
132133  2  0
133134  1  0
134135  2  0
129136  1  0
136137  2  0
 17  2  1  0
 30 19  1  0
 77 35  1  0
117 82  2  0
136121  1  0
 16 11  1  0
 34 29  1  0
 44 37  1  0
 76 45  2  0
114 83  1  0
135130  1  0
 75 47  2  0
 94 86  1  0
111100  1  0
 73 48  2  0
 53 49  2  0
 72 54  2  0
 70 55  2  0
 69 57  2  0
 66 59  1  0
  1138  1  0
 12139  1  0
 13140  1  0
 14141  1  0
 15142  1  0
 16143  1  0
 22144  1  0
 22145  1  0
 23146  1  0
 23147  1  0
 23148  1  0
 26149  1  0
 26150  1  0
 27151  1  0
 27152  1  0
 27153  1  0
 32154  1  0
 33155  1  0
 38156  1  0
 39157  1  0
 40158  1  0
 42159  1  0
 42160  1  0
 43161  1  0
 43162  1  0
 43163  1  0
 44164  1  0
 60165  1  0
 61166  1  0
 62167  1  0
 64168  1  0
 64169  1  0
 65170  1  0
 65171  1  0
 65172  1  0
 66173  1  0
 78174  1  0
 78175  1  0
 79176  1  0
 79177  1  0
 79178  1  0
 80179  1  0
 80180  1  0
 81181  1  0
 81182  1  0
 81183  1  0
 91184  1  0
 91185  1  0
 92186  1  0
 92187  1  0
 92188  1  0
107189  1  0
107190  1  0
108191  1  0
108192  1  0
108193  1  0
120194  1  0
131195  1  0
132196  1  0
133197  1  0
134198  1  0
135199  1  0
M  END

