
     RDKit          3D

165182  0  0  0  0  0  0  0  0999 V2000
    1.6327    8.4876   -8.0380 C   0  0  0  0  0  0  0  0  0  0  0  0
    2.5991    9.0798   -7.3157 C   0  0  0  0  0  0  0  0  0  0  0  0
    3.6555    8.3227   -6.2441 S   0  0  0  0  0  0  0  0  0  0  0  0
    4.4396    9.7396   -5.7622 C   0  0  0  0  0  0  0  0  0  0  0  0
    5.4684    9.7481   -4.8759 C   0  0  0  0  0  0  0  0  0  0  0  0
    5.9355    8.5179   -4.2839 C   0  0  0  0  0  0  0  0  0  0  0  0
    6.3127    7.5310   -3.8140 N   0  0  0  0  0  0  0  0  0  0  0  0
    6.1904   10.9367   -4.4999 C   0  0  0  0  0  0  0  0  0  0  0  0
    6.7784   11.8836   -4.1886 N   0  0  0  0  0  0  0  0  0  0  0  0
    3.8914   10.8136   -6.4190 N   0  0  0  0  0  0  0  0  0  0  0  0
    4.2809   12.1891   -6.2656 C   0  0  0  0  0  0  0  0  0  0  0  0
    3.8394   12.9288   -5.1580 C   0  0  0  0  0  0  0  0  0  0  0  0
    4.2182   14.2687   -5.0127 C   0  0  0  0  0  0  0  0  0  0  0  0
    5.0261   14.8754   -5.9788 C   0  0  0  0  0  0  0  0  0  0  0  0
    5.4528   14.1472   -7.0937 C   0  0  0  0  0  0  0  0  0  0  0  0
    5.0813   12.8084   -7.2387 C   0  0  0  0  0  0  0  0  0  0  0  0
    2.8771   10.4466   -7.2660 C   0  0  0  0  0  0  0  0  0  0  0  0
    2.2345   11.2955   -7.9458 O   0  0  0  0  0  0  0  0  0  0  0  0
    1.4137    7.0317   -8.0061 C   0  0  0  0  0  0  0  0  0  0  0  0
    2.3939    6.0622   -8.1565 C   0  0  0  0  0  0  0  0  0  0  0  0
    1.9673    4.7828   -7.7962 C   0  0  0  0  0  0  0  0  0  0  0  0
    3.1010    3.3907   -7.6766 S   0  0  0  0  0  0  0  0  0  0  0  0
    2.9698    2.9037   -9.4320 C   0  0  0  0  0  0  0  0  0  0  0  0
    4.1169    3.4970  -10.2371 C   0  0  0  0  0  0  0  0  0  0  0  0
    0.6373    4.7379   -7.3689 C   0  0  0  0  0  0  0  0  0  0  0  0
    0.0172    6.3014   -7.4216 S   0  0  0  0  0  0  0  0  0  0  0  0
    0.0949    3.6961   -6.4920 C   0  0  0  0  0  0  0  0  0  0  0  0
   -0.9668    2.8039   -6.7593 C   0  0  0  0  0  0  0  0  0  0  0  0
   -1.8199    2.7877   -7.9638 C   0  0  0  0  0  0  0  0  0  0  0  0
   -1.2533    2.8059   -9.2435 C   0  0  0  0  0  0  0  0  0  0  0  0
   -2.0581    2.6519  -10.3723 C   0  0  0  0  0  0  0  0  0  0  0  0
   -3.4399    2.4917  -10.2344 C   0  0  0  0  0  0  0  0  0  0  0  0
   -4.0330    2.5124   -8.9620 C   0  0  0  0  0  0  0  0  0  0  0  0
   -5.5289    2.3938   -8.8168 C   0  0  0  0  0  0  0  0  0  0  0  0
   -6.2544    3.5702   -9.4681 C   0  0  0  0  0  0  0  0  0  0  0  0
   -3.2126    2.6537   -7.8291 C   0  0  0  0  0  0  0  0  0  0  0  0
   -1.0805    1.8675   -5.7278 C   0  0  0  0  0  0  0  0  0  0  0  0
   -1.8971    0.3687   -5.6198 S   0  0  0  0  0  0  0  0  0  0  0  0
   -1.1200    0.0274   -4.1521 C   0  0  0  0  0  0  0  0  0  0  0  0
   -0.8809   -1.0625   -3.3709 C   0  0  0  0  0  0  0  0  0  0  0  0
   -1.2753   -2.3915   -3.5403 C   0  0  0  0  0  0  0  0  0  0  0  0
   -0.7090   -3.3829   -2.6903 C   0  0  0  0  0  0  0  0  0  0  0  0
   -1.1127   -4.6628   -2.8845 N   0  0  0  0  0  0  0  0  0  0  0  0
   -2.1505   -4.4368   -4.1610 S   0  0  0  0  0  0  0  0  0  0  0  0
   -2.1464   -2.8141   -4.4920 N   0  0  0  0  0  0  0  0  0  0  0  0
    0.1872   -2.9840   -1.6971 C   0  0  0  0  0  0  0  0  0  0  0  0
    0.6392   -3.6710   -0.6107 C   0  0  0  0  0  0  0  0  0  0  0  0
    0.2599   -5.1525    0.1138 S   0  0  0  0  0  0  0  0  0  0  0  0
    0.7763   -4.5821    1.6304 C   0  0  0  0  0  0  0  0  0  0  0  0
    0.5510   -5.0739    2.9167 C   0  0  0  0  0  0  0  0  0  0  0  0
    0.1721   -6.4730    3.1961 C   0  0  0  0  0  0  0  0  0  0  0  0
   -0.9315   -6.7836    4.0075 C   0  0  0  0  0  0  0  0  0  0  0  0
   -1.2474   -8.1212    4.2746 C   0  0  0  0  0  0  0  0  0  0  0  0
   -0.4646   -9.1542    3.7429 C   0  0  0  0  0  0  0  0  0  0  0  0
    0.6280   -8.8550    2.9151 C   0  0  0  0  0  0  0  0  0  0  0  0
    1.5175   -9.9510    2.3929 C   0  0  0  0  0  0  0  0  0  0  0  0
    2.7280  -10.1389    3.2998 C   0  0  0  0  0  0  0  0  0  0  0  0
    0.9432   -7.5117    2.6473 C   0  0  0  0  0  0  0  0  0  0  0  0
    0.7597   -4.0683    3.8801 C   0  0  0  0  0  0  0  0  0  0  0  0
    1.1982   -2.6187    3.1056 S   0  0  0  0  0  0  0  0  0  0  0  0
    1.1687   -3.2691    1.5609 C   0  0  0  0  0  0  0  0  0  0  0  0
    1.1199   -2.7572    0.2679 C   0  0  0  0  0  0  0  0  0  0  0  0
    1.0908   -1.4910   -0.2252 N   0  0  0  0  0  0  0  0  0  0  0  0
    0.5446   -1.6376   -1.4847 C   0  0  0  0  0  0  0  0  0  0  0  0
    0.0864   -0.6632   -2.4281 C   0  0  0  0  0  0  0  0  0  0  0  0
    0.5317    0.6085   -2.7210 N   0  0  0  0  0  0  0  0  0  0  0  0
   -0.2551    0.9928   -3.7607 C   0  0  0  0  0  0  0  0  0  0  0  0
   -0.2096    2.0353   -4.6770 C   0  0  0  0  0  0  0  0  0  0  0  0
    0.8033    3.3315   -4.9863 S   0  0  0  0  0  0  0  0  0  0  0  0
    1.7430    1.3175   -2.2833 C   0  0  0  0  0  0  0  0  0  0  0  0
    2.9972    0.4771   -2.5011 C   0  0  0  0  0  0  0  0  0  0  0  0
    1.3347   -0.2846    0.5748 C   0  0  0  0  0  0  0  0  0  0  0  0
    0.0533    0.5053    0.8055 C   0  0  0  0  0  0  0  0  0  0  0  0
    0.3006   -4.1075    5.2675 C   0  0  0  0  0  0  0  0  0  0  0  0
    1.2212   -4.6234    6.5780 S   0  0  0  0  0  0  0  0  0  0  0  0
    0.0770   -4.2658    7.7634 C   0  0  0  0  0  0  0  0  0  0  0  0
   -1.0340   -3.6725    7.1417 C   0  0  0  0  0  0  0  0  0  0  0  0
   -2.2002   -3.0578    7.8150 C   0  0  0  0  0  0  0  0  0  0  0  0
   -2.1823   -2.8155    9.0514 O   0  0  0  0  0  0  0  0  0  0  0  0
   -3.3552   -2.6502    6.9886 C   0  0  0  0  0  0  0  0  0  0  0  0
   -4.6199   -2.2822    7.4655 C   0  0  0  0  0  0  0  0  0  0  0  0
   -5.1475   -2.4285    8.8674 C   0  0  0  0  0  0  0  0  0  0  0  0
   -5.3891   -3.9001    9.1957 C   0  0  0  0  0  0  0  0  0  0  0  0
   -5.5662   -1.8484    6.1465 S   0  0  0  0  0  0  0  0  0  0  0  0
   -4.4133   -2.1215    4.9579 C   0  0  0  0  0  0  0  0  0  0  0  0
   -4.6256   -1.8137    3.5007 C   0  0  0  0  0  0  0  0  0  0  0  0
   -3.9989   -0.4692    3.1393 C   0  0  0  0  0  0  0  0  0  0  0  0
   -3.2446   -2.5826    5.5830 C   0  0  0  0  0  0  0  0  0  0  0  0
   -1.9988   -3.0246    4.9072 C   0  0  0  0  0  0  0  0  0  0  0  0
   -1.8780   -2.9462    3.6567 O   0  0  0  0  0  0  0  0  0  0  0  0
   -0.9130   -3.6017    5.7410 C   0  0  0  0  0  0  0  0  0  0  0  0
    0.3353   -4.3489    9.2116 C   0  0  0  0  0  0  0  0  0  0  0  0
   -0.5358   -4.8968   10.0703 C   0  0  0  0  0  0  0  0  0  0  0  0
   -1.8530   -5.8719    9.6739 S   0  0  0  0  0  0  0  0  0  0  0  0
   -2.5089   -5.8686   11.2379 C   0  0  0  0  0  0  0  0  0  0  0  0
   -3.6474   -6.5235   11.5706 C   0  0  0  0  0  0  0  0  0  0  0  0
   -4.1895   -6.5439   12.9051 C   0  0  0  0  0  0  0  0  0  0  0  0
   -4.6364   -6.5504   13.9754 N   0  0  0  0  0  0  0  0  0  0  0  0
   -4.3906   -7.2609   10.5751 C   0  0  0  0  0  0  0  0  0  0  0  0
   -4.9870   -7.8457    9.7748 N   0  0  0  0  0  0  0  0  0  0  0  0
   -1.7108   -5.1258   12.0726 N   0  0  0  0  0  0  0  0  0  0  0  0
   -2.0730   -4.6530   13.3803 C   0  0  0  0  0  0  0  0  0  0  0  0
   -3.0187   -3.6234   13.5150 C   0  0  0  0  0  0  0  0  0  0  0  0
   -3.3274   -3.1123   14.7781 C   0  0  0  0  0  0  0  0  0  0  0  0
   -2.6912   -3.6229   15.9125 C   0  0  0  0  0  0  0  0  0  0  0  0
   -1.7516   -4.6511   15.7865 C   0  0  0  0  0  0  0  0  0  0  0  0
   -1.4421   -5.1704   14.5246 C   0  0  0  0  0  0  0  0  0  0  0  0
   -0.6136   -4.6187   11.4310 C   0  0  0  0  0  0  0  0  0  0  0  0
    0.2228   -3.8778   12.0238 O   0  0  0  0  0  0  0  0  0  0  0  0
    0.9476    9.0932   -8.6185 H   0  0  0  0  0  0  0  0  0  0  0  0
    3.2195   12.4583   -4.4047 H   0  0  0  0  0  0  0  0  0  0  0  0
    3.8909   14.8330   -4.1508 H   0  0  0  0  0  0  0  0  0  0  0  0
    5.3200   15.9105   -5.8692 H   0  0  0  0  0  0  0  0  0  0  0  0
    6.0704   14.6202   -7.8473 H   0  0  0  0  0  0  0  0  0  0  0  0
    5.4198   12.2475   -8.1019 H   0  0  0  0  0  0  0  0  0  0  0  0
    3.4121    6.2802   -8.4599 H   0  0  0  0  0  0  0  0  0  0  0  0
    3.0197    1.7960   -9.4890 H   0  0  0  0  0  0  0  0  0  0  0  0
    2.0043    3.2263   -9.8754 H   0  0  0  0  0  0  0  0  0  0  0  0
    4.0588    3.1345  -11.2836 H   0  0  0  0  0  0  0  0  0  0  0  0
    4.0488    4.6063  -10.2283 H   0  0  0  0  0  0  0  0  0  0  0  0
    5.0895    3.1787   -9.8031 H   0  0  0  0  0  0  0  0  0  0  0  0
   -0.1847    2.8933   -9.3572 H   0  0  0  0  0  0  0  0  0  0  0  0
   -1.6133    2.6498  -11.3559 H   0  0  0  0  0  0  0  0  0  0  0  0
   -4.0502    2.3730  -11.1201 H   0  0  0  0  0  0  0  0  0  0  0  0
   -5.8092    2.3740   -7.7435 H   0  0  0  0  0  0  0  0  0  0  0  0
   -5.8761    1.4469   -9.2723 H   0  0  0  0  0  0  0  0  0  0  0  0
   -5.8625    4.5329   -9.0718 H   0  0  0  0  0  0  0  0  0  0  0  0
   -6.1295    3.5443  -10.5702 H   0  0  0  0  0  0  0  0  0  0  0  0
   -7.3422    3.5087   -9.2404 H   0  0  0  0  0  0  0  0  0  0  0  0
   -3.6629    2.6344   -6.8367 H   0  0  0  0  0  0  0  0  0  0  0  0
   -1.5570   -6.0051    4.4196 H   0  0  0  0  0  0  0  0  0  0  0  0
   -2.0894   -8.3574    4.9050 H   0  0  0  0  0  0  0  0  0  0  0  0
   -0.7082  -10.1843    3.9808 H   0  0  0  0  0  0  0  0  0  0  0  0
    0.9547  -10.9086    2.3255 H   0  0  0  0  0  0  0  0  0  0  0  0
    1.8643   -9.7024    1.3665 H   0  0  0  0  0  0  0  0  0  0  0  0
    3.3487  -10.9818    2.9272 H   0  0  0  0  0  0  0  0  0  0  0  0
    3.3523   -9.2170    3.3046 H   0  0  0  0  0  0  0  0  0  0  0  0
    2.4021  -10.3661    4.3383 H   0  0  0  0  0  0  0  0  0  0  0  0
    1.8045   -7.2761    2.0302 H   0  0  0  0  0  0  0  0  0  0  0  0
    1.8829    2.2389   -2.8681 H   0  0  0  0  0  0  0  0  0  0  0  0
    1.6273    1.7021   -1.2590 H   0  0  0  0  0  0  0  0  0  0  0  0
    3.8948    1.0556   -2.1933 H   0  0  0  0  0  0  0  0  0  0  0  0
    2.9709   -0.4619   -1.9127 H   0  0  0  0  0  0  0  0  0  0  0  0
    3.0975    0.2117   -3.5764 H   0  0  0  0  0  0  0  0  0  0  0  0
    1.7457   -0.5547    1.5634 H   0  0  0  0  0  0  0  0  0  0  0  0
    2.1552    0.3072    0.1570 H   0  0  0  0  0  0  0  0  0  0  0  0
   -0.3643    0.9071   -0.1458 H   0  0  0  0  0  0  0  0  0  0  0  0
    0.2663    1.3661    1.4816 H   0  0  0  0  0  0  0  0  0  0  0  0
   -0.7103   -0.1420    1.2917 H   0  0  0  0  0  0  0  0  0  0  0  0
   -6.1089   -1.8794    8.9562 H   0  0  0  0  0  0  0  0  0  0  0  0
   -4.4425   -1.9867    9.6003 H   0  0  0  0  0  0  0  0  0  0  0  0
   -5.7536   -3.9966   10.2403 H   0  0  0  0  0  0  0  0  0  0  0  0
   -6.1517   -4.3250    8.5063 H   0  0  0  0  0  0  0  0  0  0  0  0
   -4.4497   -4.4805    9.0977 H   0  0  0  0  0  0  0  0  0  0  0  0
   -5.7160   -1.7666    3.2914 H   0  0  0  0  0  0  0  0  0  0  0  0
   -4.2062   -2.6188    2.8660 H   0  0  0  0  0  0  0  0  0  0  0  0
   -4.1713   -0.2513    2.0621 H   0  0  0  0  0  0  0  0  0  0  0  0
   -4.4588    0.3459    3.7421 H   0  0  0  0  0  0  0  0  0  0  0  0
   -2.9032   -0.4822    3.3184 H   0  0  0  0  0  0  0  0  0  0  0  0
    1.1848   -3.7943    9.5885 H   0  0  0  0  0  0  0  0  0  0  0  0
   -3.5000   -3.2097   12.6353 H   0  0  0  0  0  0  0  0  0  0  0  0
   -4.0492   -2.3119   14.8762 H   0  0  0  0  0  0  0  0  0  0  0  0
   -2.9215   -3.2087   16.8904 H   0  0  0  0  0  0  0  0  0  0  0  0
   -1.2586   -5.0415   16.6679 H   0  0  0  0  0  0  0  0  0  0  0  0
   -0.7026   -5.9533   14.4306 H   0  0  0  0  0  0  0  0  0  0  0  0
  1  2  2  3
  2  3  1  0
  3  4  1  0
  4  5  2  3
  5  6  1  0
  6  7  3  0
  5  8  1  0
  8  9  3  0
  4 10  1  0
 10 11  1  0
 11 12  2  0
 12 13  1  0
 13 14  2  0
 14 15  1  0
 15 16  2  0
 10 17  1  0
 17 18  2  0
  1 19  1  0
 19 20  2  0
 20 21  1  0
 21 22  1  0
 22 23  1  0
 23 24  1  0
 21 25  2  0
 25 26  1  0
 25 27  1  0
 27 28  2  0
 28 29  1  0
 29 30  2  0
 30 31  1  0
 31 32  2  0
 32 33  1  0
 33 34  1  0
 34 35  1  0
 33 36  2  0
 28 37  1  0
 37 38  1  0
 38 39  1  0
 39 40  1  0
 40 41  1  0
 41 42  1  0
 42 43  2  0
 43 44  1  0
 44 45  1  0
 42 46  1  0
 46 47  1  0
 47 48  1  0
 48 49  1  0
 49 50  1  0
 50 51  1  0
 51 52  2  0
 52 53  1  0
 53 54  2  0
 54 55  1  0
 55 56  1  0
 56 57  1  0
 55 58  2  0
 50 59  2  0
 59 60  1  0
 60 61  1  0
 61 62  1  0
 62 63  1  0
 63 64  1  0
 64 65  1  0
 65 66  1  0
 66 67  1  0
 67 68  1  0
 68 69  1  0
 66 70  1  0
 70 71  1  0
 63 72  1  0
 72 73  1  0
 59 74  1  0
 74 75  1  0
 75 76  1  0
 76 77  2  0
 77 78  1  0
 78 79  2  0
 78 80  1  0
 80 81  2  0
 81 82  1  0
 82 83  1  0
 81 84  1  0
 84 85  1  0
 85 86  1  0
 86 87  1  0
 85 88  2  0
 88 89  1  0
 89 90  2  0
 89 91  1  0
 76 92  1  0
 92 93  2  3
 93 94  1  0
 94 95  1  0
 95 96  2  3
 96 97  1  0
 97 98  3  0
 96 99  1  0
 99100  3  0
 95101  1  0
101102  1  0
102103  2  0
103104  1  0
104105  2  0
105106  1  0
106107  2  0
101108  1  0
108109  2  0
 17  2  1  0
 26 19  1  0
 69 27  1  0
 91 74  2  0
108 93  1  0
 16 11  1  0
 36 29  1  0
 68 37  2  0
 91 77  1  0
107102  1  0
 67 39  2  0
 88 80  1  0
 65 40  2  0
 45 41  2  0
 64 46  2  0
 62 47  2  0
 61 49  2  0
 58 51  1  0
  1110  1  0
 12111  1  0
 13112  1  0
 14113  1  0
 15114  1  0
 16115  1  0
 20116  1  0
 23117  1  0
 23118  1  0
 24119  1  0
 24120  1  0
 24121  1  0
 30122  1  0
 31123  1  0
 32124  1  0
 34125  1  0
 34126  1  0
 35127  1  0
 35128  1  0
 35129  1  0
 36130  1  0
 52131  1  0
 53132  1  0
 54133  1  0
 56134  1  0
 56135  1  0
 57136  1  0
 57137  1  0
 57138  1  0
 58139  1  0
 70140  1  0
 70141  1  0
 71142  1  0
 71143  1  0
 71144  1  0
 72145  1  0
 72146  1  0
 73147  1  0
 73148  1  0
 73149  1  0
 82150  1  0
 82151  1  0
 83152  1  0
 83153  1  0
 83154  1  0
 86155  1  0
 86156  1  0
 87157  1  0
 87158  1  0
 87159  1  0
 92160  1  0
103161  1  0
104162  1  0
105163  1  0
106164  1  0
107165  1  0
M  END

