
     RDKit          3D

198217  0  0  0  0  0  0  0  0999 V2000
    4.0864   -6.6904    6.2978 C   0  0  0  0  0  0  0  0  0  0  0  0
    5.3188   -6.1579    6.2839 C   0  0  0  0  0  0  0  0  0  0  0  0
    6.5516   -6.5857    7.3273 S   0  0  0  0  0  0  0  0  0  0  0  0
    7.6973   -5.5115    6.6835 C   0  0  0  0  0  0  0  0  0  0  0  0
    8.9877   -5.4965    7.1090 C   0  0  0  0  0  0  0  0  0  0  0  0
   10.0848   -4.9176    6.3743 C   0  0  0  0  0  0  0  0  0  0  0  0
   10.9800   -4.4646    5.7982 N   0  0  0  0  0  0  0  0  0  0  0  0
    9.3846   -6.2537    8.2665 C   0  0  0  0  0  0  0  0  0  0  0  0
    9.7270   -6.8558    9.1958 N   0  0  0  0  0  0  0  0  0  0  0  0
    7.1199   -4.7693    5.6741 N   0  0  0  0  0  0  0  0  0  0  0  0
    7.6671   -3.5851    4.9793 C   0  0  0  0  0  0  0  0  0  0  0  0
    6.8394   -2.3570    5.2796 C   0  0  0  0  0  0  0  0  0  0  0  0
    6.0167   -1.7790    4.2969 C   0  0  0  0  0  0  0  0  0  0  0  0
    5.2327   -0.6621    4.6018 C   0  0  0  0  0  0  0  0  0  0  0  0
    5.2799   -0.0970    5.8765 C   0  0  0  0  0  0  0  0  0  0  0  0
    6.1067   -0.6570    6.8560 C   0  0  0  0  0  0  0  0  0  0  0  0
    6.8729   -1.7889    6.5689 C   0  0  0  0  0  0  0  0  0  0  0  0
    5.8211   -5.1568    5.4407 C   0  0  0  0  0  0  0  0  0  0  0  0
    5.1319   -4.6376    4.5160 O   0  0  0  0  0  0  0  0  0  0  0  0
    3.0143   -6.1870    5.4198 C   0  0  0  0  0  0  0  0  0  0  0  0
    2.8137   -6.7659    4.1526 C   0  0  0  0  0  0  0  0  0  0  0  0
    3.4667   -7.9122    3.8172 F   0  0  0  0  0  0  0  0  0  0  0  0
    2.0400   -6.1080    3.1880 C   0  0  0  0  0  0  0  0  0  0  0  0
    1.9750   -6.6041    1.9246 F   0  0  0  0  0  0  0  0  0  0  0  0
    1.3996   -4.8925    3.4977 C   0  0  0  0  0  0  0  0  0  0  0  0
    1.5193   -4.3723    4.7961 C   0  0  0  0  0  0  0  0  0  0  0  0
    0.9499   -3.1824    5.1030 N   0  0  0  0  0  0  0  0  0  0  0  0
    1.1257   -2.5722    6.2937 C   0  0  0  0  0  0  0  0  0  0  0  0
    0.5386   -1.2364    6.4525 C   0  0  0  0  0  0  0  0  0  0  0  0
    1.4145    0.1618    6.8090 S   0  0  0  0  0  0  0  0  0  0  0  0
    0.2253    1.2497    6.3256 C   0  0  0  0  0  0  0  0  0  0  0  0
    0.4155    2.7271    6.1819 C   0  0  0  0  0  0  0  0  0  0  0  0
    0.8708    3.0697    4.7654 C   0  0  0  0  0  0  0  0  0  0  0  0
   -0.8612    0.5290    5.8456 C   0  0  0  0  0  0  0  0  0  0  0  0
   -0.6855   -0.8575    5.9083 C   0  0  0  0  0  0  0  0  0  0  0  0
   -1.9494    1.1065    5.2815 F   0  0  0  0  0  0  0  0  0  0  0  0
    1.9376   -3.1966    7.2615 C   0  0  0  0  0  0  0  0  0  0  0  0
    2.5254   -4.3890    6.9593 N   0  0  0  0  0  0  0  0  0  0  0  0
    2.3418   -4.9986    5.7510 C   0  0  0  0  0  0  0  0  0  0  0  0
    2.1089   -2.6280    8.6013 C   0  0  0  0  0  0  0  0  0  0  0  0
    3.2585   -2.0106    9.0880 C   0  0  0  0  0  0  0  0  0  0  0  0
    3.0673   -1.4249   10.3465 C   0  0  0  0  0  0  0  0  0  0  0  0
    4.0365   -0.7205   10.9903 F   0  0  0  0  0  0  0  0  0  0  0  0
    1.7834   -1.5935   10.8523 C   0  0  0  0  0  0  0  0  0  0  0  0
    1.2682   -1.0727   12.1636 C   0  0  0  0  0  0  0  0  0  0  0  0
    0.1848   -0.0190   11.9526 C   0  0  0  0  0  0  0  0  0  0  0  0
    0.8687   -2.4460    9.7245 S   0  0  0  0  0  0  0  0  0  0  0  0
    0.9045   -3.9869    2.4329 C   0  0  0  0  0  0  0  0  0  0  0  0
   -0.3879   -3.4115    2.5403 C   0  0  0  0  0  0  0  0  0  0  0  0
   -0.6834   -2.1807    1.9234 C   0  0  0  0  0  0  0  0  0  0  0  0
    0.3207   -1.5655    1.1690 C   0  0  0  0  0  0  0  0  0  0  0  0
    0.4528   -0.3356    0.5353 C   0  0  0  0  0  0  0  0  0  0  0  0
    1.6865   -0.2854    0.0242 C   0  0  0  0  0  0  0  0  0  0  0  0
    2.4162   -1.3959    0.2668 N   0  0  0  0  0  0  0  0  0  0  0  0
    1.5599   -2.1772    0.9826 C   0  0  0  0  0  0  0  0  0  0  0  0
    1.8598   -3.4008    1.5882 C   0  0  0  0  0  0  0  0  0  0  0  0
    3.7807   -1.7210   -0.1551 C   0  0  0  0  0  0  0  0  0  0  0  0
    3.7563   -2.5009   -1.4652 C   0  0  0  0  0  0  0  0  0  0  0  0
    1.7843    0.8605   -0.7208 C   0  0  0  0  0  0  0  0  0  0  0  0
    2.7033    1.2855   -1.6787 C   0  0  0  0  0  0  0  0  0  0  0  0
    2.4267    2.3539   -2.4749 C   0  0  0  0  0  0  0  0  0  0  0  0
    3.4294    2.5012   -3.3526 N   0  0  0  0  0  0  0  0  0  0  0  0
    4.2631    1.5005   -3.0906 N   0  0  0  0  0  0  0  0  0  0  0  0
    5.5003    1.2712   -3.8228 C   0  0  0  0  0  0  0  0  0  0  0  0
    6.6653    1.9352   -3.1028 C   0  0  0  0  0  0  0  0  0  0  0  0
    3.8563    0.7345   -2.0810 N   0  0  0  0  0  0  0  0  0  0  0  0
    1.2496    3.0914   -2.3083 C   0  0  0  0  0  0  0  0  0  0  0  0
    0.3214    2.7434   -1.3036 C   0  0  0  0  0  0  0  0  0  0  0  0
    0.5472    1.5304   -0.5503 C   0  0  0  0  0  0  0  0  0  0  0  0
   -0.3123    0.7421    0.2008 N   0  0  0  0  0  0  0  0  0  0  0  0
   -1.7706    0.8081    0.3430 C   0  0  0  0  0  0  0  0  0  0  0  0
   -2.4716    0.7255   -1.0119 C   0  0  0  0  0  0  0  0  0  0  0  0
   -0.7194    3.6409   -1.3127 N   0  0  0  0  0  0  0  0  0  0  0  0
   -1.6049    4.0661   -0.2221 C   0  0  0  0  0  0  0  0  0  0  0  0
   -0.8486    4.2181    1.1011 C   0  0  0  0  0  0  0  0  0  0  0  0
   -0.4669    4.4484   -2.3731 C   0  0  0  0  0  0  0  0  0  0  0  0
    0.7054    4.1521   -3.0021 C   0  0  0  0  0  0  0  0  0  0  0  0
    0.6374    4.3538   -4.3440 N   0  0  0  0  0  0  0  0  0  0  0  0
    1.6489    4.0090   -5.3521 C   0  0  0  0  0  0  0  0  0  0  0  0
    2.8524    4.9353   -5.2319 C   0  0  0  0  0  0  0  0  0  0  0  0
   -0.6498    4.7461   -4.5594 C   0  0  0  0  0  0  0  0  0  0  0  0
   -1.3513    4.8375   -3.3654 C   0  0  0  0  0  0  0  0  0  0  0  0
   -2.7391    4.9735   -3.3384 C   0  0  0  0  0  0  0  0  0  0  0  0
   -3.4359    4.9355   -4.5606 C   0  0  0  0  0  0  0  0  0  0  0  0
   -2.7533    4.6517   -5.7689 C   0  0  0  0  0  0  0  0  0  0  0  0
   -1.3406    4.6834   -5.7746 C   0  0  0  0  0  0  0  0  0  0  0  0
   -3.4149    3.8714   -6.8609 C   0  0  0  0  0  0  0  0  0  0  0  0
   -2.9309    3.9853   -8.1805 C   0  0  0  0  0  0  0  0  0  0  0  0
   -2.3178    5.1257   -8.5855 F   0  0  0  0  0  0  0  0  0  0  0  0
   -2.9371    2.8782   -9.0404 C   0  0  0  0  0  0  0  0  0  0  0  0
   -2.3401    2.9805  -10.2566 F   0  0  0  0  0  0  0  0  0  0  0  0
   -3.4406    1.6346   -8.6120 C   0  0  0  0  0  0  0  0  0  0  0  0
   -4.0679    1.5629   -7.3431 C   0  0  0  0  0  0  0  0  0  0  0  0
   -4.5657    0.3905   -6.8688 N   0  0  0  0  0  0  0  0  0  0  0  0
   -5.2293    0.2932   -5.6880 C   0  0  0  0  0  0  0  0  0  0  0  0
   -5.7728   -1.0265   -5.3177 C   0  0  0  0  0  0  0  0  0  0  0  0
   -7.2908   -1.3630   -4.6602 S   0  0  0  0  0  0  0  0  0  0  0  0
   -7.0618   -3.0247   -4.5128 C   0  0  0  0  0  0  0  0  0  0  0  0
   -7.9542   -3.9611   -3.7445 C   0  0  0  0  0  0  0  0  0  0  0  0
   -9.3983   -3.8948   -4.2298 C   0  0  0  0  0  0  0  0  0  0  0  0
   -5.7938   -3.3365   -4.9974 C   0  0  0  0  0  0  0  0  0  0  0  0
   -5.0820   -2.2309   -5.4670 C   0  0  0  0  0  0  0  0  0  0  0  0
   -5.2560   -4.5821   -4.9432 F   0  0  0  0  0  0  0  0  0  0  0  0
   -5.3771    1.4638   -4.9044 C   0  0  0  0  0  0  0  0  0  0  0  0
   -4.7874    2.6031   -5.3384 N   0  0  0  0  0  0  0  0  0  0  0  0
   -4.1285    2.6986   -6.5164 C   0  0  0  0  0  0  0  0  0  0  0  0
   -6.0987    1.5410   -3.6221 C   0  0  0  0  0  0  0  0  0  0  0  0
   -6.8559    2.6366   -3.2192 C   0  0  0  0  0  0  0  0  0  0  0  0
   -7.3175    2.5459   -1.9032 C   0  0  0  0  0  0  0  0  0  0  0  0
   -8.0682    3.5096   -1.3185 F   0  0  0  0  0  0  0  0  0  0  0  0
   -6.8995    1.3936   -1.2490 C   0  0  0  0  0  0  0  0  0  0  0  0
   -7.1728    1.0398    0.1799 C   0  0  0  0  0  0  0  0  0  0  0  0
   -6.3637    1.9210    1.1234 C   0  0  0  0  0  0  0  0  0  0  0  0
   -5.9471    0.4944   -2.3056 S   0  0  0  0  0  0  0  0  0  0  0  0
   -3.0809    0.4164   -9.3701 C   0  0  0  0  0  0  0  0  0  0  0  0
   -3.9125   -0.6092   -9.6547 C   0  0  0  0  0  0  0  0  0  0  0  0
   -5.3531   -0.6626   -9.3738 C   0  0  0  0  0  0  0  0  0  0  0  0
   -6.1379    0.3206   -9.3103 O   0  0  0  0  0  0  0  0  0  0  0  0
   -5.7254   -2.0545   -9.2261 C   0  0  0  0  0  0  0  0  0  0  0  0
   -6.9358   -2.5881   -8.7805 C   0  0  0  0  0  0  0  0  0  0  0  0
   -7.0250   -3.9733   -8.5928 C   0  0  0  0  0  0  0  0  0  0  0  0
   -8.6673   -4.7584   -8.0325 Br  0  0  0  0  0  0  0  0  0  0  0  0
   -5.9004   -4.7910   -8.8191 C   0  0  0  0  0  0  0  0  0  0  0  0
   -4.6907   -4.2369   -9.2599 C   0  0  0  0  0  0  0  0  0  0  0  0
   -4.6319   -2.8539   -9.5021 C   0  0  0  0  0  0  0  0  0  0  0  0
   -3.4911   -2.0084   -9.9494 C   0  0  0  0  0  0  0  0  0  0  0  0
   -2.4242   -2.4141  -10.6831 C   0  0  0  0  0  0  0  0  0  0  0  0
   -1.5063   -1.4795  -11.2832 C   0  0  0  0  0  0  0  0  0  0  0  0
   -0.7599   -0.7459  -11.7720 N   0  0  0  0  0  0  0  0  0  0  0  0
   -2.2282   -3.7877  -11.0537 C   0  0  0  0  0  0  0  0  0  0  0  0
   -2.0585   -4.8902  -11.3643 N   0  0  0  0  0  0  0  0  0  0  0  0
    3.8520   -7.4752    7.0045 H   0  0  0  0  0  0  0  0  0  0  0  0
    8.6905   -3.3311    5.2746 H   0  0  0  0  0  0  0  0  0  0  0  0
    7.6949   -3.7798    3.8853 H   0  0  0  0  0  0  0  0  0  0  0  0
    5.9524   -2.2135    3.3106 H   0  0  0  0  0  0  0  0  0  0  0  0
    4.5820   -0.2449    3.8434 H   0  0  0  0  0  0  0  0  0  0  0  0
    4.6777    0.7755    6.1095 H   0  0  0  0  0  0  0  0  0  0  0  0
    6.1307   -0.2265    7.8507 H   0  0  0  0  0  0  0  0  0  0  0  0
    7.4932   -2.2215    7.3433 H   0  0  0  0  0  0  0  0  0  0  0  0
   -0.5413    3.2484    6.3993 H   0  0  0  0  0  0  0  0  0  0  0  0
    1.1786    3.0771    6.9063 H   0  0  0  0  0  0  0  0  0  0  0  0
    0.1428    2.6861    4.0177 H   0  0  0  0  0  0  0  0  0  0  0  0
    1.8690    2.6233    4.5643 H   0  0  0  0  0  0  0  0  0  0  0  0
    0.9405    4.1711    4.6453 H   0  0  0  0  0  0  0  0  0  0  0  0
   -1.3998   -1.5603    5.4964 H   0  0  0  0  0  0  0  0  0  0  0  0
    4.1885   -1.9450    8.5357 H   0  0  0  0  0  0  0  0  0  0  0  0
    2.0962   -0.6195   12.7532 H   0  0  0  0  0  0  0  0  0  0  0  0
    0.8554   -1.9216   12.7551 H   0  0  0  0  0  0  0  0  0  0  0  0
   -0.6940   -0.4680   11.4439 H   0  0  0  0  0  0  0  0  0  0  0  0
   -0.1448    0.3793   12.9363 H   0  0  0  0  0  0  0  0  0  0  0  0
    0.5716    0.8243   11.3429 H   0  0  0  0  0  0  0  0  0  0  0  0
   -1.1203   -3.8455    3.2088 H   0  0  0  0  0  0  0  0  0  0  0  0
   -1.6349   -1.7219    2.1160 H   0  0  0  0  0  0  0  0  0  0  0  0
    2.8556   -3.8195    1.5242 H   0  0  0  0  0  0  0  0  0  0  0  0
    4.2856   -2.3320    0.6240 H   0  0  0  0  0  0  0  0  0  0  0  0
    4.3849   -0.7990   -0.2509 H   0  0  0  0  0  0  0  0  0  0  0  0
    3.1926   -3.4472   -1.3326 H   0  0  0  0  0  0  0  0  0  0  0  0
    3.2693   -1.9084   -2.2680 H   0  0  0  0  0  0  0  0  0  0  0  0
    4.7948   -2.7453   -1.7783 H   0  0  0  0  0  0  0  0  0  0  0  0
    5.4109    1.6855   -4.8514 H   0  0  0  0  0  0  0  0  0  0  0  0
    5.6857    0.1798   -3.9090 H   0  0  0  0  0  0  0  0  0  0  0  0
    7.6048    1.7413   -3.6631 H   0  0  0  0  0  0  0  0  0  0  0  0
    6.7682    1.5124   -2.0816 H   0  0  0  0  0  0  0  0  0  0  0  0
    6.5044    3.0310   -3.0372 H   0  0  0  0  0  0  0  0  0  0  0  0
   -2.0729    1.6778    0.9391 H   0  0  0  0  0  0  0  0  0  0  0  0
   -2.1441   -0.0414    0.9353 H   0  0  0  0  0  0  0  0  0  0  0  0
   -3.5641    0.7341   -0.8445 H   0  0  0  0  0  0  0  0  0  0  0  0
   -2.1959   -0.2146   -1.5314 H   0  0  0  0  0  0  0  0  0  0  0  0
   -2.2142    1.5819   -1.6647 H   0  0  0  0  0  0  0  0  0  0  0  0
   -2.0169    5.0701   -0.4503 H   0  0  0  0  0  0  0  0  0  0  0  0
   -2.4946    3.4181   -0.1480 H   0  0  0  0  0  0  0  0  0  0  0  0
    0.0259    4.8858    0.9568 H   0  0  0  0  0  0  0  0  0  0  0  0
   -0.4895    3.2444    1.4811 H   0  0  0  0  0  0  0  0  0  0  0  0
   -1.5142    4.6746    1.8613 H   0  0  0  0  0  0  0  0  0  0  0  0
    1.2569    4.1242   -6.3827 H   0  0  0  0  0  0  0  0  0  0  0  0
    1.9394    2.9441   -5.2555 H   0  0  0  0  0  0  0  0  0  0  0  0
    2.5657    5.9681   -5.5223 H   0  0  0  0  0  0  0  0  0  0  0  0
    3.6603    4.5857   -5.9115 H   0  0  0  0  0  0  0  0  0  0  0  0
    3.2370    4.9590   -4.1910 H   0  0  0  0  0  0  0  0  0  0  0  0
   -3.2892    5.0147   -2.4108 H   0  0  0  0  0  0  0  0  0  0  0  0
   -4.5170    4.9655   -4.5369 H   0  0  0  0  0  0  0  0  0  0  0  0
   -0.8086    4.4364   -6.6813 H   0  0  0  0  0  0  0  0  0  0  0  0
   -7.5918   -5.0027   -3.8362 H   0  0  0  0  0  0  0  0  0  0  0  0
   -7.9217   -3.6786   -2.6658 H   0  0  0  0  0  0  0  0  0  0  0  0
   -9.4555   -4.2092   -5.2932 H   0  0  0  0  0  0  0  0  0  0  0  0
  -10.0220   -4.5974   -3.6322 H   0  0  0  0  0  0  0  0  0  0  0  0
   -9.8068   -2.8748   -4.1214 H   0  0  0  0  0  0  0  0  0  0  0  0
   -4.0772   -2.2964   -5.8671 H   0  0  0  0  0  0  0  0  0  0  0  0
   -7.0564    3.4888   -3.8573 H   0  0  0  0  0  0  0  0  0  0  0  0
   -6.9148   -0.0255    0.3559 H   0  0  0  0  0  0  0  0  0  0  0  0
   -8.2546    1.1754    0.3876 H   0  0  0  0  0  0  0  0  0  0  0  0
   -6.5136    1.5841    2.1700 H   0  0  0  0  0  0  0  0  0  0  0  0
   -6.6985    2.9792    1.0464 H   0  0  0  0  0  0  0  0  0  0  0  0
   -5.2804    1.8674    0.8793 H   0  0  0  0  0  0  0  0  0  0  0  0
   -2.0241    0.2995   -9.5524 H   0  0  0  0  0  0  0  0  0  0  0  0
   -7.7801   -1.9464   -8.5684 H   0  0  0  0  0  0  0  0  0  0  0  0
   -5.9609   -5.8594   -8.6422 H   0  0  0  0  0  0  0  0  0  0  0  0
   -3.8332   -4.8767   -9.3676 H   0  0  0  0  0  0  0  0  0  0  0  0
  1  2  2  3
  2  3  1  0
  3  4  1  0
  4  5  2  3
  5  6  1  0
  6  7  3  0
  5  8  1  0
  8  9  3  0
  4 10  1  0
 10 11  1  0
 11 12  1  0
 12 13  2  0
 13 14  1  0
 14 15  2  0
 15 16  1  0
 16 17  2  0
 10 18  1  0
 18 19  2  0
  1 20  1  0
 20 21  2  0
 21 22  1  0
 21 23  1  0
 23 24  1  0
 23 25  2  0
 25 26  1  0
 26 27  2  0
 27 28  1  0
 28 29  1  0
 29 30  1  0
 30 31  1  0
 31 32  1  0
 32 33  1  0
 31 34  2  0
 34 35  1  0
 34 36  1  0
 28 37  2  0
 37 38  1  0
 38 39  2  0
 37 40  1  0
 40 41  2  0
 41 42  1  0
 42 43  1  0
 42 44  2  0
 44 45  1  0
 45 46  1  0
 44 47  1  0
 25 48  1  0
 48 49  2  0
 49 50  1  0
 50 51  2  0
 51 52  1  0
 52 53  2  0
 53 54  1  0
 54 55  1  0
 55 56  2  0
 54 57  1  0
 57 58  1  0
 53 59  1  0
 59 60  1  0
 60 61  1  0
 61 62  2  0
 62 63  1  0
 63 64  1  0
 64 65  1  0
 63 66  1  0
 61 67  1  0
 67 68  2  0
 68 69  1  0
 69 70  1  0
 70 71  1  0
 71 72  1  0
 68 73  1  0
 73 74  1  0
 74 75  1  0
 73 76  1  0
 76 77  2  0
 77 78  1  0
 78 79  1  0
 79 80  1  0
 78 81  1  0
 81 82  2  0
 82 83  1  0
 83 84  2  0
 84 85  1  0
 85 86  2  0
 85 87  1  0
 87 88  2  0
 88 89  1  0
 88 90  1  0
 90 91  1  0
 90 92  2  0
 92 93  1  0
 93 94  2  0
 94 95  1  0
 95 96  1  0
 96 97  1  0
 97 98  1  0
 98 99  1  0
 99100  1  0
 98101  2  0
101102  1  0
101103  1  0
 95104  2  0
104105  1  0
105106  2  0
104107  1  0
107108  2  0
108109  1  0
109110  1  0
109111  2  0
111112  1  0
112113  1  0
111114  1  0
 92115  1  0
115116  2  3
116117  1  0
117118  2  0
117119  1  0
119120  2  0
120121  1  0
121122  1  0
121123  2  0
123124  1  0
124125  2  0
125126  1  0
126127  2  3
127128  1  0
128129  3  0
127130  1  0
130131  3  0
 18  2  1  0
 39 20  1  0
 47 40  1  0
 56 48  1  0
 69 59  2  0
 82 76  1  0
106 87  1  0
114107  1  0
126116  1  0
 17 12  1  0
 39 26  1  0
 55 51  1  0
 66 60  2  0
 77 67  1  0
 86 81  1  0
106 93  1  0
125119  1  0
 35 29  2  0
 70 52  1  0
102 96  2  0
  1132  1  0
 11133  1  0
 11134  1  0
 13135  1  0
 14136  1  0
 15137  1  0
 16138  1  0
 17139  1  0
 32140  1  0
 32141  1  0
 33142  1  0
 33143  1  0
 33144  1  0
 35145  1  0
 41146  1  0
 45147  1  0
 45148  1  0
 46149  1  0
 46150  1  0
 46151  1  0
 49152  1  0
 50153  1  0
 56154  1  0
 57155  1  0
 57156  1  0
 58157  1  0
 58158  1  0
 58159  1  0
 64160  1  0
 64161  1  0
 65162  1  0
 65163  1  0
 65164  1  0
 71165  1  0
 71166  1  0
 72167  1  0
 72168  1  0
 72169  1  0
 74170  1  0
 74171  1  0
 75172  1  0
 75173  1  0
 75174  1  0
 79175  1  0
 79176  1  0
 80177  1  0
 80178  1  0
 80179  1  0
 83180  1  0
 84181  1  0
 86182  1  0
 99183  1  0
 99184  1  0
100185  1  0
100186  1  0
100187  1  0
102188  1  0
108189  1  0
112190  1  0
112191  1  0
113192  1  0
113193  1  0
113194  1  0
115195  1  0
120196  1  0
123197  1  0
124198  1  0
M  END

