
     RDKit          3D

233257  0  0  0  0  0  0  0  0999 V2000
    9.8409    1.6266   -5.3509 C   0  0  0  0  0  0  0  0  0  0  0  0
    9.2465    2.7750   -5.6177 C   0  0  0  0  0  0  0  0  0  0  0  0
    9.0294    3.8845   -4.7005 C   0  0  0  0  0  0  0  0  0  0  0  0
    9.4795    4.0428   -3.5475 O   0  0  0  0  0  0  0  0  0  0  0  0
    8.1482    4.9271   -5.2528 C   0  0  0  0  0  0  0  0  0  0  0  0
    7.7215    6.1184   -4.7255 C   0  0  0  0  0  0  0  0  0  0  0  0
    6.8992    6.9819   -5.4194 C   0  0  0  0  0  0  0  0  0  0  0  0
    6.4206    8.2995   -5.0578 C   0  0  0  0  0  0  0  0  0  0  0  0
    6.5760    9.1560   -6.2178 F   0  0  0  0  0  0  0  0  0  0  0  0
    5.0720    8.3845   -4.8080 F   0  0  0  0  0  0  0  0  0  0  0  0
    7.1669    8.9531   -4.1042 F   0  0  0  0  0  0  0  0  0  0  0  0
    6.5362    6.5181   -6.6991 C   0  0  0  0  0  0  0  0  0  0  0  0
    6.9501    5.3635   -7.2089 C   0  0  0  0  0  0  0  0  0  0  0  0
    7.7896    4.5028   -6.4915 C   0  0  0  0  0  0  0  0  0  0  0  0
    8.4195    3.1660   -6.7942 C   0  0  0  0  0  0  0  0  0  0  0  0
    7.9589    2.4101   -7.7171 C   0  0  0  0  0  0  0  0  0  0  0  0
    7.4461    1.7494   -8.6903 C   0  0  0  0  0  0  0  0  0  0  0  0
    6.9476    1.1071   -9.6657 N   0  0  0  0  0  0  0  0  0  0  0  0
    8.4329    3.7549   -8.8313 C   0  0  0  0  0  0  0  0  0  0  0  0
    8.7606    4.7013   -9.5871 N   0  0  0  0  0  0  0  0  0  0  0  0
   10.3259    1.3863   -3.9552 C   0  0  0  0  0  0  0  0  0  0  0  0
   10.9240    2.1155   -2.9987 C   0  0  0  0  0  0  0  0  0  0  0  0
   10.8544    1.7192   -1.7061 C   0  0  0  0  0  0  0  0  0  0  0  0
   11.0718    2.5107   -0.5143 C   0  0  0  0  0  0  0  0  0  0  0  0
   11.8275    3.7395   -0.5157 C   0  0  0  0  0  0  0  0  0  0  0  0
   12.1903    4.6747   -1.2889 C   0  0  0  0  0  0  0  0  0  0  0  0
   13.0853    5.6232   -1.2619 C   0  0  0  0  0  0  0  0  0  0  0  0
   13.8662    5.5940   -0.0025 C   0  0  0  0  0  0  0  0  0  0  0  0
   15.2671    6.6235    0.2816 S   0  0  0  0  0  0  0  0  0  0  0  0
   16.0043    7.0574   -1.3687 C   0  0  0  0  0  0  0  0  0  0  0  0
   16.5968    5.7501   -1.9001 C   0  0  0  0  0  0  0  0  0  0  0  0
   13.0993    4.1388    0.9214 Se  0  0  0  0  0  2  0  0  0  0  0  0
   10.5779    2.0549    0.7196 C   0  0  0  0  0  0  0  0  0  0  0  0
    9.9307    0.8981    0.9106 C   0  0  0  0  0  0  0  0  0  0  0  0
    9.7506    0.0977   -0.2360 C   0  0  0  0  0  0  0  0  0  0  0  0
    9.4261   -1.3212   -0.1927 C   0  0  0  0  0  0  0  0  0  0  0  0
    9.4054   -2.3061    0.6925 C   0  0  0  0  0  0  0  0  0  0  0  0
    9.0898   -3.5734    0.4071 C   0  0  0  0  0  0  0  0  0  0  0  0
    8.7606   -3.9639   -0.8360 C   0  0  0  0  0  0  0  0  0  0  0  0
    8.3552   -5.4760   -1.6288 S   0  0  0  0  0  0  0  0  0  0  0  0
    8.4797   -6.8940   -0.5431 C   0  0  0  0  0  0  0  0  0  0  0  0
    7.8551   -8.0732   -1.2995 C   0  0  0  0  0  0  0  0  0  0  0  0
    8.9091   -2.2737   -1.8080 Se  0  0  0  0  0  2  0  0  0  0  0  0
   10.2003    0.5641   -1.4642 C   0  0  0  0  0  0  0  0  0  0  0  0
    9.6770    0.0546   -3.0389 S   0  0  0  0  0  0  0  0  0  0  0  0
    9.1565    0.7431    2.0002 C   0  0  0  0  0  0  0  0  0  0  0  0
    9.0628    1.8375    2.8682 C   0  0  0  0  0  0  0  0  0  0  0  0
   10.0784    2.9737    2.1421 S   0  0  0  0  0  0  0  0  0  0  0  0
    7.8882    1.9057    3.7982 C   0  0  0  0  0  0  0  0  0  0  0  0
    7.4229    2.0717    4.9737 C   0  0  0  0  0  0  0  0  0  0  0  0
    8.3878    2.1289    6.1159 C   0  0  0  0  0  0  0  0  0  0  0  0
    9.4159    3.0155    6.1520 C   0  0  0  0  0  0  0  0  0  0  0  0
   10.3087    3.0614    7.1961 C   0  0  0  0  0  0  0  0  0  0  0  0
   10.1541    2.1732    8.2506 C   0  0  0  0  0  0  0  0  0  0  0  0
    9.1227    1.2643    8.2462 C   0  0  0  0  0  0  0  0  0  0  0  0
    8.9203    0.3012    9.3404 C   0  0  0  0  0  0  0  0  0  0  0  0
    7.8772    0.7333   10.3720 C   0  0  0  0  0  0  0  0  0  0  0  0
    8.2317    1.2530    7.1589 C   0  0  0  0  0  0  0  0  0  0  0  0
    6.0488    2.0406    5.2316 C   0  0  0  0  0  0  0  0  0  0  0  0
    4.8661    2.2619    6.5008 S   0  0  0  0  0  0  0  0  0  0  0  0
    3.4314    2.0240    5.6037 C   0  0  0  0  0  0  0  0  0  0  0  0
    2.0344    1.8960    5.5779 C   0  0  0  0  0  0  0  0  0  0  0  0
    1.1302    2.0803    6.6453 C   0  0  0  0  0  0  0  0  0  0  0  0
   -0.1819    1.8892    6.3381 C   0  0  0  0  0  0  0  0  0  0  0  0
   -1.0354    2.1449    7.3889 N   0  0  0  0  0  0  0  0  0  0  0  0
   -0.0366    2.5832    8.6490 S   0  0  0  0  0  0  0  0  0  0  0  0
    1.4381    2.4572    7.8759 N   0  0  0  0  0  0  0  0  0  0  0  0
   -0.5279    1.5421    5.0515 C   0  0  0  0  0  0  0  0  0  0  0  0
   -1.7713    1.2153    4.5075 C   0  0  0  0  0  0  0  0  0  0  0  0
   -3.4625    1.1360    4.7336 S   0  0  0  0  0  0  0  0  0  0  0  0
   -3.9176    0.5998    3.1179 C   0  0  0  0  0  0  0  0  0  0  0  0
   -5.0332    0.1528    2.4422 C   0  0  0  0  0  0  0  0  0  0  0  0
   -6.3772    0.6766    2.9259 C   0  0  0  0  0  0  0  0  0  0  0  0
   -6.6404    0.8219    4.2520 C   0  0  0  0  0  0  0  0  0  0  0  0
   -7.8514    1.4690    4.6192 C   0  0  0  0  0  0  0  0  0  0  0  0
   -8.6908    1.9081    3.6624 C   0  0  0  0  0  0  0  0  0  0  0  0
   -8.4562    1.7753    2.3179 C   0  0  0  0  0  0  0  0  0  0  0  0
   -9.3180    2.2141    1.2100 C   0  0  0  0  0  0  0  0  0  0  0  0
   -9.0114    3.6425    0.8395 C   0  0  0  0  0  0  0  0  0  0  0  0
   -7.2644    1.1438    1.9901 C   0  0  0  0  0  0  0  0  0  0  0  0
   -4.8958   -0.3956    1.2566 C   0  0  0  0  0  0  0  0  0  0  0  0
   -3.1878   -0.2606    1.0111 S   0  0  0  0  0  0  0  0  0  0  0  0
   -2.7613    0.5112    2.5367 C   0  0  0  0  0  0  0  0  0  0  0  0
   -1.6165    0.8447    3.2279 C   0  0  0  0  0  0  0  0  0  0  0  0
   -0.2737    0.9727    2.9135 N   0  0  0  0  0  0  0  0  0  0  0  0
    0.3751    1.3693    4.0008 C   0  0  0  0  0  0  0  0  0  0  0  0
    1.7176    1.5617    4.2973 C   0  0  0  0  0  0  0  0  0  0  0  0
    2.8021    1.4771    3.5235 N   0  0  0  0  0  0  0  0  0  0  0  0
    3.8855    1.7783    4.3650 C   0  0  0  0  0  0  0  0  0  0  0  0
    5.2511    1.8077    4.2175 C   0  0  0  0  0  0  0  0  0  0  0  0
    6.3600    1.6609    2.9085 S   0  0  0  0  0  0  0  0  0  0  0  0
    3.0114    1.1465    2.1601 C   0  0  0  0  0  0  0  0  0  0  0  0
    3.3575   -0.2785    1.8670 C   0  0  0  0  0  0  0  0  0  0  0  0
    0.1504    0.9851    1.5336 C   0  0  0  0  0  0  0  0  0  0  0  0
    0.3747   -0.2606    0.8492 C   0  0  0  0  0  0  0  0  0  0  0  0
   -5.7514   -1.1118    0.2909 C   0  0  0  0  0  0  0  0  0  0  0  0
   -6.8838   -1.8050    0.4118 C   0  0  0  0  0  0  0  0  0  0  0  0
   -7.5013   -2.2152    1.6653 N   0  0  0  0  0  0  0  0  0  0  0  0
   -6.8742   -3.4645    2.1709 C   0  0  0  0  0  0  0  0  0  0  0  0
   -7.7208   -4.3583    2.7440 C   0  0  0  0  0  0  0  0  0  0  0  0
   -7.1412   -5.5212    3.2539 C   0  0  0  0  0  0  0  0  0  0  0  0
   -5.8058   -5.7638    3.1830 C   0  0  0  0  0  0  0  0  0  0  0  0
   -5.1597   -6.9913    3.7789 C   0  0  0  0  0  0  0  0  0  0  0  0
   -4.9764   -4.8410    2.5928 C   0  0  0  0  0  0  0  0  0  0  0  0
   -5.5333   -3.6724    2.0756 C   0  0  0  0  0  0  0  0  0  0  0  0
   -8.5336   -1.7443    2.4315 C   0  0  0  0  0  0  0  0  0  0  0  0
   -9.7364   -1.2855    1.9911 C   0  0  0  0  0  0  0  0  0  0  0  0
  -10.7714   -0.9428    2.8599 C   0  0  0  0  0  0  0  0  0  0  0  0
  -10.5879   -1.0656    4.1915 C   0  0  0  0  0  0  0  0  0  0  0  0
  -11.6142   -0.7276    5.2066 C   0  0  0  0  0  0  0  0  0  0  0  0
   -9.3860   -1.5279    4.6640 C   0  0  0  0  0  0  0  0  0  0  0  0
   -8.3710   -1.8633    3.8407 C   0  0  0  0  0  0  0  0  0  0  0  0
   -7.3556   -2.4274   -0.7632 C   0  0  0  0  0  0  0  0  0  0  0  0
   -8.7900   -3.2768   -1.1943 S   0  0  0  0  0  0  0  0  0  0  0  0
   -8.4007   -3.4935   -2.9225 C   0  0  0  0  0  0  0  0  0  0  0  0
   -7.2307   -2.9346   -3.0259 C   0  0  0  0  0  0  0  0  0  0  0  0
   -6.3700   -3.3129   -4.1528 N   0  0  0  0  0  0  0  0  0  0  0  0
   -5.3138   -4.2459   -3.6387 C   0  0  0  0  0  0  0  0  0  0  0  0
   -5.7079   -5.1797   -2.6883 C   0  0  0  0  0  0  0  0  0  0  0  0
   -4.7646   -6.0458   -2.1290 C   0  0  0  0  0  0  0  0  0  0  0  0
   -3.4530   -5.9726   -2.5196 C   0  0  0  0  0  0  0  0  0  0  0  0
   -2.4372   -6.8541   -1.8613 C   0  0  0  0  0  0  0  0  0  0  0  0
   -3.0601   -5.0648   -3.4563 C   0  0  0  0  0  0  0  0  0  0  0  0
   -4.0208   -4.1949   -4.0135 C   0  0  0  0  0  0  0  0  0  0  0  0
   -6.2648   -3.0288   -5.4740 C   0  0  0  0  0  0  0  0  0  0  0  0
   -6.2502   -1.8423   -6.0742 C   0  0  0  0  0  0  0  0  0  0  0  0
   -6.1699   -1.6793   -7.4751 C   0  0  0  0  0  0  0  0  0  0  0  0
   -6.1124   -2.7930   -8.2642 C   0  0  0  0  0  0  0  0  0  0  0  0
   -6.0644   -2.6522   -9.7685 C   0  0  0  0  0  0  0  0  0  0  0  0
   -6.1252   -4.0005   -7.6931 C   0  0  0  0  0  0  0  0  0  0  0  0
   -6.1980   -4.1990   -6.3084 C   0  0  0  0  0  0  0  0  0  0  0  0
   -6.6727   -2.3436   -1.8813 C   0  0  0  0  0  0  0  0  0  0  0  0
   -5.3378   -1.3432   -1.3857 S   0  0  0  0  0  0  0  0  0  0  0  0
   -9.5556   -4.0248   -3.7178 C   0  0  0  0  0  0  0  0  0  0  0  0
  -10.2237   -2.9770   -4.2976 C   0  0  0  0  0  0  0  0  0  0  0  0
   -9.8102   -1.5530   -4.2014 C   0  0  0  0  0  0  0  0  0  0  0  0
   -8.6813   -1.1400   -3.9305 O   0  0  0  0  0  0  0  0  0  0  0  0
  -10.9512   -0.6961   -4.4714 C   0  0  0  0  0  0  0  0  0  0  0  0
  -11.0673    0.6600   -4.5492 C   0  0  0  0  0  0  0  0  0  0  0  0
  -12.2178    1.2762   -4.8812 C   0  0  0  0  0  0  0  0  0  0  0  0
  -12.3355    2.7770   -4.9630 C   0  0  0  0  0  0  0  0  0  0  0  0
  -13.6763    3.0946   -5.2139 F   0  0  0  0  0  0  0  0  0  0  0  0
  -11.8931    3.3484   -3.8015 F   0  0  0  0  0  0  0  0  0  0  0  0
  -11.5421    3.1852   -6.0120 F   0  0  0  0  0  0  0  0  0  0  0  0
  -13.3071    0.4898   -5.1540 C   0  0  0  0  0  0  0  0  0  0  0  0
  -13.2125   -0.9204   -5.0813 C   0  0  0  0  0  0  0  0  0  0  0  0
  -12.0300   -1.5290   -4.7344 C   0  0  0  0  0  0  0  0  0  0  0  0
  -11.5598   -2.9526   -4.6145 C   0  0  0  0  0  0  0  0  0  0  0  0
  -12.6530   -3.8902   -4.9212 C   0  0  0  0  0  0  0  0  0  0  0  0
  -11.8764   -5.3964   -4.8798 C   0  0  0  0  0  0  0  0  0  0  0  0
  -11.3587   -6.3799   -4.8400 N   0  0  0  0  0  0  0  0  0  0  0  0
  -13.3851   -3.7870   -4.9089 C   0  0  0  0  0  0  0  0  0  0  0  0
  -15.1074   -3.5132   -4.8798 N   0  0  0  0  0  0  0  0  0  0  0  0
    9.9738    0.8750   -6.0634 H   0  0  0  0  0  0  0  0  0  0  0  0
    8.0070    6.4304   -3.7225 H   0  0  0  0  0  0  0  0  0  0  0  0
    5.8691    7.1931   -7.2763 H   0  0  0  0  0  0  0  0  0  0  0  0
    6.5995    5.0451   -8.2106 H   0  0  0  0  0  0  0  0  0  0  0  0
   11.5837    2.9665   -3.2990 H   0  0  0  0  0  0  0  0  0  0  0  0
   11.4941    4.7723   -2.2851 H   0  0  0  0  0  0  0  0  0  0  0  0
   13.3749    6.4055   -1.9326 H   0  0  0  0  0  0  0  0  0  0  0  0
   16.7633    7.7889   -1.2340 H   0  0  0  0  0  0  0  0  0  0  0  0
   15.1962    7.3525   -2.0449 H   0  0  0  0  0  0  0  0  0  0  0  0
   17.2344    5.3246   -1.0646 H   0  0  0  0  0  0  0  0  0  0  0  0
   15.8008    5.0566   -2.1652 H   0  0  0  0  0  0  0  0  0  0  0  0
   17.2427    5.9487   -2.7550 H   0  0  0  0  0  0  0  0  0  0  0  0
    9.7091   -2.0656    1.7792 H   0  0  0  0  0  0  0  0  0  0  0  0
    9.0841   -4.3931    1.2024 H   0  0  0  0  0  0  0  0  0  0  0  0
    7.8711   -6.6938    0.3608 H   0  0  0  0  0  0  0  0  0  0  0  0
    9.5382   -7.1418   -0.3137 H   0  0  0  0  0  0  0  0  0  0  0  0
    7.1115   -8.5558   -0.5902 H   0  0  0  0  0  0  0  0  0  0  0  0
    7.2338   -7.6818   -2.1399 H   0  0  0  0  0  0  0  0  0  0  0  0
    8.6112   -8.7794   -1.6186 H   0  0  0  0  0  0  0  0  0  0  0  0
    8.5669   -0.1530    2.2556 H   0  0  0  0  0  0  0  0  0  0  0  0
    9.5064    3.6913    5.3112 H   0  0  0  0  0  0  0  0  0  0  0  0
   11.1188    3.7666    7.1934 H   0  0  0  0  0  0  0  0  0  0  0  0
   10.8934    2.2557    9.0479 H   0  0  0  0  0  0  0  0  0  0  0  0
    9.8498    0.0957    9.8946 H   0  0  0  0  0  0  0  0  0  0  0  0
    8.5519   -0.6921    8.8911 H   0  0  0  0  0  0  0  0  0  0  0  0
    8.1722    0.2514   11.3384 H   0  0  0  0  0  0  0  0  0  0  0  0
    6.8767    0.3051   10.0919 H   0  0  0  0  0  0  0  0  0  0  0  0
    7.8753    1.8090   10.4557 H   0  0  0  0  0  0  0  0  0  0  0  0
    7.4298    0.5144    7.2079 H   0  0  0  0  0  0  0  0  0  0  0  0
   -5.9636    0.4676    4.9809 H   0  0  0  0  0  0  0  0  0  0  0  0
   -8.0959    1.6087    5.6559 H   0  0  0  0  0  0  0  0  0  0  0  0
   -9.6348    2.4345    3.9147 H   0  0  0  0  0  0  0  0  0  0  0  0
  -10.3977    2.1168    1.4103 H   0  0  0  0  0  0  0  0  0  0  0  0
   -9.0616    1.5903    0.2937 H   0  0  0  0  0  0  0  0  0  0  0  0
   -9.7777    4.3200    1.2068 H   0  0  0  0  0  0  0  0  0  0  0  0
   -8.8718    3.7424   -0.2517 H   0  0  0  0  0  0  0  0  0  0  0  0
   -8.0470    3.9024    1.3616 H   0  0  0  0  0  0  0  0  0  0  0  0
   -7.0169    1.0062    0.9487 H   0  0  0  0  0  0  0  0  0  0  0  0
    2.5351    1.6623    1.3455 H   0  0  0  0  0  0  0  0  0  0  0  0
    4.1156    1.6278    1.9316 H   0  0  0  0  0  0  0  0  0  0  0  0
    3.4656   -0.3843    0.7393 H   0  0  0  0  0  0  0  0  0  0  0  0
    4.4073   -0.4511    2.2598 H   0  0  0  0  0  0  0  0  0  0  0  0
    2.6652   -0.9718    2.3127 H   0  0  0  0  0  0  0  0  0  0  0  0
    0.7075    1.9189    1.2926 H   0  0  0  0  0  0  0  0  0  0  0  0
   -0.8332    1.3841    0.9447 H   0  0  0  0  0  0  0  0  0  0  0  0
    0.5226   -1.1192    1.4982 H   0  0  0  0  0  0  0  0  0  0  0  0
   -0.4100   -0.5813    0.0914 H   0  0  0  0  0  0  0  0  0  0  0  0
    1.2770   -0.1132    0.1592 H   0  0  0  0  0  0  0  0  0  0  0  0
   -8.7744   -4.1971    2.8069 H   0  0  0  0  0  0  0  0  0  0  0  0
   -7.7728   -6.2471    3.7222 H   0  0  0  0  0  0  0  0  0  0  0  0
   -5.8982   -7.6807    4.2037 H   0  0  0  0  0  0  0  0  0  0  0  0
   -4.5169   -7.3955    3.0000 H   0  0  0  0  0  0  0  0  0  0  0  0
   -4.5509   -6.5760    4.6313 H   0  0  0  0  0  0  0  0  0  0  0  0
   -3.9131   -4.9841    2.4983 H   0  0  0  0  0  0  0  0  0  0  0  0
   -4.8755   -2.9718    1.5808 H   0  0  0  0  0  0  0  0  0  0  0  0
   -9.9075   -1.1746    0.9406 H   0  0  0  0  0  0  0  0  0  0  0  0
  -11.6819   -0.5822    2.4546 H   0  0  0  0  0  0  0  0  0  0  0  0
  -11.1425   -0.3767    6.1608 H   0  0  0  0  0  0  0  0  0  0  0  0
  -12.2839    0.0516    4.8182 H   0  0  0  0  0  0  0  0  0  0  0  0
  -12.2323   -1.6007    5.4928 H   0  0  0  0  0  0  0  0  0  0  0  0
   -9.2313   -1.6335    5.7471 H   0  0  0  0  0  0  0  0  0  0  0  0
   -7.4367   -2.2264    4.1997 H   0  0  0  0  0  0  0  0  0  0  0  0
   -6.7362   -5.2051   -2.3917 H   0  0  0  0  0  0  0  0  0  0  0  0
   -5.0799   -6.7347   -1.3986 H   0  0  0  0  0  0  0  0  0  0  0  0
   -2.3943   -7.8507   -2.3037 H   0  0  0  0  0  0  0  0  0  0  0  0
   -2.6883   -6.9464   -0.7686 H   0  0  0  0  0  0  0  0  0  0  0  0
   -1.4447   -6.3786   -1.8787 H   0  0  0  0  0  0  0  0  0  0  0  0
   -2.0355   -5.0123   -3.7705 H   0  0  0  0  0  0  0  0  0  0  0  0
   -3.7190   -3.4912   -4.7602 H   0  0  0  0  0  0  0  0  0  0  0  0
   -6.2792   -0.9240   -5.5293 H   0  0  0  0  0  0  0  0  0  0  0  0
   -6.1322   -0.7160   -7.9449 H   0  0  0  0  0  0  0  0  0  0  0  0
   -6.9968   -3.1274  -10.1764 H   0  0  0  0  0  0  0  0  0  0  0  0
   -6.0836   -1.6163  -10.0857 H   0  0  0  0  0  0  0  0  0  0  0  0
   -5.2229   -3.1785  -10.2230 H   0  0  0  0  0  0  0  0  0  0  0  0
   -6.0824   -4.8900   -8.3275 H   0  0  0  0  0  0  0  0  0  0  0  0
   -6.1998   -5.1625   -5.8557 H   0  0  0  0  0  0  0  0  0  0  0  0
   -9.7551   -4.9901   -3.7736 H   0  0  0  0  0  0  0  0  0  0  0  0
  -10.2057    1.3016   -4.3192 H   0  0  0  0  0  0  0  0  0  0  0  0
  -14.2642    0.8921   -5.4418 H   0  0  0  0  0  0  0  0  0  0  0  0
  -14.0765   -1.4612   -5.3368 H   0  0  0  0  0  0  0  0  0  0  0  0
  1  2  2  3
  2  3  1  0
  3  4  2  0
  3  5  1  0
  5  6  2  0
  6  7  1  0
  7  8  1  0
  8  9  1  0
  8 10  1  0
  8 11  1  0
  7 12  2  0
 12 13  1  0
 13 14  2  0
 14 15  1  0
 15 16  2  3
 16 17  1  0
 17 18  3  0
 16 19  1  0
 19 20  3  0
  1 21  1  0
 21 22  2  0
 22 23  1  0
 23 24  2  0
 24 25  1  0
 25 26  2  0
 26 27  1  0
 27 28  2  0
 28 29  1  0
 29 30  1  0
 30 31  1  0
 28 32  1  0
 24 33  1  0
 33 34  2  0
 34 35  1  0
 35 36  1  0
 36 37  2  0
 37 38  1  0
 38 39  2  0
 39 40  1  0
 40 41  1  0
 41 42  1  0
 39 43  1  0
 35 44  2  0
 44 45  1  0
 34 46  1  0
 46 47  2  0
 47 48  1  0
 47 49  1  0
 49 50  2  0
 50 51  1  0
 51 52  2  0
 52 53  1  0
 53 54  2  0
 54 55  1  0
 55 56  1  0
 56 57  1  0
 55 58  2  0
 50 59  1  0
 59 60  1  0
 60 61  1  0
 61 62  1  0
 62 63  1  0
 63 64  1  0
 64 65  2  0
 65 66  1  0
 66 67  1  0
 64 68  1  0
 68 69  1  0
 69 70  1  0
 70 71  1  0
 71 72  1  0
 72 73  1  0
 73 74  2  0
 74 75  1  0
 75 76  2  0
 76 77  1  0
 77 78  1  0
 78 79  1  0
 77 80  2  0
 72 81  2  0
 81 82  1  0
 82 83  1  0
 83 84  1  0
 84 85  1  0
 85 86  1  0
 86 87  1  0
 87 88  1  0
 88 89  1  0
 89 90  1  0
 90 91  1  0
 88 92  1  0
 92 93  1  0
 85 94  1  0
 94 95  1  0
 81 96  1  0
 96 97  2  0
 97 98  1  0
 98 99  1  0
 99100  2  0
100101  1  0
101102  2  0
102103  1  0
102104  1  0
104105  2  0
 98106  1  0
106107  2  0
107108  1  0
108109  2  0
109110  1  0
109111  1  0
111112  2  0
 97113  1  0
113114  1  0
114115  1  0
115116  2  0
116117  1  0
117118  1  0
118119  2  0
119120  1  0
120121  2  0
121122  1  0
121123  1  0
123124  2  0
117125  1  0
125126  2  0
126127  1  0
127128  2  0
128129  1  0
128130  1  0
130131  2  0
116132  1  0
132133  1  0
115134  1  0
134135  2  3
135136  1  0
136137  2  0
136138  1  0
138139  2  0
139140  1  0
140141  1  0
141142  1  0
141143  1  0
141144  1  0
140145  2  0
145146  1  0
146147  2  0
147148  1  0
148149  2  3
149150  1  0
150151  3  0
149152  1  0
152153  3  0
 15  2  1  0
 45 21  1  0
 91 49  1  0
133 96  1  0
148135  1  0
 14  5  1  0
 44 23  1  0
 58 51  1  0
 90 59  2  0
105 99  1  0
112106  1  0
132113  2  0
147138  1  0
 32 25  1  0
 48 33  1  0
 89 61  2  0
124118  1  0
131125  1  0
 43 36  1  0
 87 62  2  0
 67 63  2  0
 86 68  2  0
 84 69  2  0
 83 71  2  0
 80 73  1  0
  1154  1  0
  6155  1  0
 12156  1  0
 13157  1  0
 22158  1  0
 26159  1  0
 27160  1  0
 30161  1  0
 30162  1  0
 31163  1  0
 31164  1  0
 31165  1  0
 37166  1  0
 38167  1  0
 41168  1  0
 41169  1  0
 42170  1  0
 42171  1  0
 42172  1  0
 46173  1  0
 52174  1  0
 53175  1  0
 54176  1  0
 56177  1  0
 56178  1  0
 57179  1  0
 57180  1  0
 57181  1  0
 58182  1  0
 74183  1  0
 75184  1  0
 76185  1  0
 78186  1  0
 78187  1  0
 79188  1  0
 79189  1  0
 79190  1  0
 80191  1  0
 92192  1  0
 92193  1  0
 93194  1  0
 93195  1  0
 93196  1  0
 94197  1  0
 94198  1  0
 95199  1  0
 95200  1  0
 95201  1  0
100202  1  0
101203  1  0
103204  1  0
103205  1  0
103206  1  0
104207  1  0
105208  1  0
107209  1  0
108210  1  0
110211  1  0
110212  1  0
110213  1  0
111214  1  0
112215  1  0
119216  1  0
120217  1  0
122218  1  0
122219  1  0
122220  1  0
123221  1  0
124222  1  0
126223  1  0
127224  1  0
129225  1  0
129226  1  0
129227  1  0
130228  1  0
131229  1  0
134230  1  0
139231  1  0
145232  1  0
146233  1  0
M  END

