
     RDKit          3D

201222  0  0  0  0  0  0  0  0999 V2000
   -4.7262    3.5715    3.6075 C   0  0  0  0  0  0  0  0  0  0  0  0
   -3.8073    2.7469    4.1535 C   0  0  0  0  0  0  0  0  0  0  0  0
   -3.1759    1.6020    3.4866 C   0  0  0  0  0  0  0  0  0  0  0  0
   -3.4919    1.1211    2.3659 O   0  0  0  0  0  0  0  0  0  0  0  0
   -2.2742    0.9671    4.4188 C   0  0  0  0  0  0  0  0  0  0  0  0
   -1.4343   -0.1243    4.1878 C   0  0  0  0  0  0  0  0  0  0  0  0
   -0.6279   -0.5982    5.2412 C   0  0  0  0  0  0  0  0  0  0  0  0
    0.2821   -1.7823    5.0346 C   0  0  0  0  0  0  0  0  0  0  0  0
    0.7127   -1.8534    3.7207 F   0  0  0  0  0  0  0  0  0  0  0  0
    1.3979   -1.6831    5.8487 F   0  0  0  0  0  0  0  0  0  0  0  0
   -0.4000   -2.9434    5.3459 F   0  0  0  0  0  0  0  0  0  0  0  0
   -0.7447   -0.0021    6.5169 C   0  0  0  0  0  0  0  0  0  0  0  0
   -1.6014    1.0914    6.7250 C   0  0  0  0  0  0  0  0  0  0  0  0
   -2.3511    1.5953    5.6488 C   0  0  0  0  0  0  0  0  0  0  0  0
   -3.2740    2.7692    5.5590 C   0  0  0  0  0  0  0  0  0  0  0  0
   -3.3882    3.7775    6.4706 C   0  0  0  0  0  0  0  0  0  0  0  0
   -4.0917    5.0066    6.2012 C   0  0  0  0  0  0  0  0  0  0  0  0
   -4.6465    6.0027    5.9996 N   0  0  0  0  0  0  0  0  0  0  0  0
   -2.7157    3.7672    7.7413 C   0  0  0  0  0  0  0  0  0  0  0  0
   -2.1778    3.7809    8.7654 N   0  0  0  0  0  0  0  0  0  0  0  0
   -4.8300    3.8812    2.1601 C   0  0  0  0  0  0  0  0  0  0  0  0
   -3.5585    3.7179    1.0637 S   0  0  0  0  0  0  0  0  0  0  0  0
   -4.1578    4.7014   -0.1454 C   0  0  0  0  0  0  0  0  0  0  0  0
   -5.3401    5.2738    0.3219 C   0  0  0  0  0  0  0  0  0  0  0  0
   -6.0227    6.4342   -0.2907 C   0  0  0  0  0  0  0  0  0  0  0  0
   -5.5303    7.0016   -1.3017 O   0  0  0  0  0  0  0  0  0  0  0  0
   -7.2469    6.9586    0.3552 C   0  0  0  0  0  0  0  0  0  0  0  0
   -8.0330    8.0196   -0.1124 C   0  0  0  0  0  0  0  0  0  0  0  0
   -7.7972    8.8866   -1.3154 C   0  0  0  0  0  0  0  0  0  0  0  0
   -6.7774    9.9795   -1.0047 C   0  0  0  0  0  0  0  0  0  0  0  0
   -9.2890    8.2604    0.9765 S   0  0  0  0  0  0  0  0  0  0  0  0
   -8.8690    7.0353    2.0492 C   0  0  0  0  0  0  0  0  0  0  0  0
   -9.6689    6.6993    3.2744 C   0  0  0  0  0  0  0  0  0  0  0  0
  -10.6453    5.5622    2.9856 C   0  0  0  0  0  0  0  0  0  0  0  0
   -7.7173    6.3994    1.5633 C   0  0  0  0  0  0  0  0  0  0  0  0
   -6.9995    5.2666    2.2044 C   0  0  0  0  0  0  0  0  0  0  0  0
   -7.4693    4.7006    3.2256 O   0  0  0  0  0  0  0  0  0  0  0  0
   -5.7482    4.7748    1.5798 C   0  0  0  0  0  0  0  0  0  0  0  0
   -3.3740    5.1010   -1.3159 C   0  0  0  0  0  0  0  0  0  0  0  0
   -3.5934    4.7040   -2.6496 C   0  0  0  0  0  0  0  0  0  0  0  0
   -4.6449    3.7499   -3.0613 C   0  0  0  0  0  0  0  0  0  0  0  0
   -4.2928    2.4516   -3.4625 C   0  0  0  0  0  0  0  0  0  0  0  0
   -5.2820    1.5142   -3.7710 C   0  0  0  0  0  0  0  0  0  0  0  0
   -6.6312    1.8670   -3.6851 C   0  0  0  0  0  0  0  0  0  0  0  0
   -6.9983    3.1702   -3.3109 C   0  0  0  0  0  0  0  0  0  0  0  0
   -8.4488    3.5478   -3.1760 C   0  0  0  0  0  0  0  0  0  0  0  0
   -8.9355    3.3244   -1.7462 C   0  0  0  0  0  0  0  0  0  0  0  0
   -5.9991    4.1047   -2.9983 C   0  0  0  0  0  0  0  0  0  0  0  0
   -2.4991    5.0563   -3.4529 C   0  0  0  0  0  0  0  0  0  0  0  0
   -2.0005    4.5237   -4.9878 S   0  0  0  0  0  0  0  0  0  0  0  0
   -0.4418    5.1505   -4.7599 C   0  0  0  0  0  0  0  0  0  0  0  0
    0.7815    4.6774   -5.1381 C   0  0  0  0  0  0  0  0  0  0  0  0
    1.2049    3.9810   -6.2724 C   0  0  0  0  0  0  0  0  0  0  0  0
    2.5596    3.5334   -6.3346 C   0  0  0  0  0  0  0  0  0  0  0  0
    2.9247    2.8482   -7.4482 N   0  0  0  0  0  0  0  0  0  0  0  0
    1.4953    2.8859   -8.2876 S   0  0  0  0  0  0  0  0  0  0  0  0
    0.4121    3.7016   -7.3350 N   0  0  0  0  0  0  0  0  0  0  0  0
    3.3938    3.7317   -5.2206 C   0  0  0  0  0  0  0  0  0  0  0  0
    4.5207    3.0403   -4.8605 C   0  0  0  0  0  0  0  0  0  0  0  0
    5.2461    1.6459   -5.4969 S   0  0  0  0  0  0  0  0  0  0  0  0
    5.7228    1.1184   -3.9555 C   0  0  0  0  0  0  0  0  0  0  0  0
    6.0340   -0.1697   -3.5174 C   0  0  0  0  0  0  0  0  0  0  0  0
    6.4273   -1.2495   -4.4383 C   0  0  0  0  0  0  0  0  0  0  0  0
    5.5292   -2.2644   -4.7989 C   0  0  0  0  0  0  0  0  0  0  0  0
    5.9215   -3.2639   -5.6936 C   0  0  0  0  0  0  0  0  0  0  0  0
    7.2016   -3.2425   -6.2548 C   0  0  0  0  0  0  0  0  0  0  0  0
    8.0961   -2.2098   -5.9318 C   0  0  0  0  0  0  0  0  0  0  0  0
    9.4793   -2.1797   -6.5282 C   0  0  0  0  0  0  0  0  0  0  0  0
   10.4855   -2.8497   -5.5967 C   0  0  0  0  0  0  0  0  0  0  0  0
    7.7055   -1.2210   -5.0149 C   0  0  0  0  0  0  0  0  0  0  0  0
    5.8070   -0.3211   -2.1364 C   0  0  0  0  0  0  0  0  0  0  0  0
    5.2109    1.1484   -1.5250 S   0  0  0  0  0  0  0  0  0  0  0  0
    5.2758    1.9779   -2.9817 C   0  0  0  0  0  0  0  0  0  0  0  0
    4.5932    3.0845   -3.4959 C   0  0  0  0  0  0  0  0  0  0  0  0
    3.6102    3.8534   -2.9543 N   0  0  0  0  0  0  0  0  0  0  0  0
    2.9070    4.3127   -4.0396 C   0  0  0  0  0  0  0  0  0  0  0  0
    1.6260    4.9139   -4.0562 C   0  0  0  0  0  0  0  0  0  0  0  0
    1.0022    5.6199   -3.0671 N   0  0  0  0  0  0  0  0  0  0  0  0
   -0.2778    5.7111   -3.5186 C   0  0  0  0  0  0  0  0  0  0  0  0
   -1.4619    5.6673   -2.7912 C   0  0  0  0  0  0  0  0  0  0  0  0
   -1.8252    5.7726   -1.1659 S   0  0  0  0  0  0  0  0  0  0  0  0
    1.6749    6.7365   -2.3772 C   0  0  0  0  0  0  0  0  0  0  0  0
    1.1998    6.9227   -0.9393 C   0  0  0  0  0  0  0  0  0  0  0  0
    3.1271    3.7343   -1.5703 C   0  0  0  0  0  0  0  0  0  0  0  0
    2.0126    2.6903   -1.4576 C   0  0  0  0  0  0  0  0  0  0  0  0
    5.4231   -1.5881   -1.5139 C   0  0  0  0  0  0  0  0  0  0  0  0
    4.1693   -2.1549   -1.6889 C   0  0  0  0  0  0  0  0  0  0  0  0
    3.9501   -3.2703   -0.8772 C   0  0  0  0  0  0  0  0  0  0  0  0
    2.7706   -4.0360   -0.8410 C   0  0  0  0  0  0  0  0  0  0  0  0
    1.6165   -3.7200   -1.7081 C   0  0  0  0  0  0  0  0  0  0  0  0
    1.7391   -3.7904   -3.1052 C   0  0  0  0  0  0  0  0  0  0  0  0
    0.6774   -3.4011   -3.9246 C   0  0  0  0  0  0  0  0  0  0  0  0
   -0.5104   -2.9312   -3.3561 C   0  0  0  0  0  0  0  0  0  0  0  0
   -0.6412   -2.8606   -1.9632 C   0  0  0  0  0  0  0  0  0  0  0  0
   -2.1668   -2.2601   -1.2314 S   0  0  0  0  0  0  0  0  0  0  0  0
   -1.5562   -0.5645   -0.9117 C   0  0  0  0  0  0  0  0  0  0  0  0
   -1.4288    0.2374   -2.2000 C   0  0  0  0  0  0  0  0  0  0  0  0
    0.4144   -3.2714   -1.1414 C   0  0  0  0  0  0  0  0  0  0  0  0
    2.7231   -5.0741    0.1010 C   0  0  0  0  0  0  0  0  0  0  0  0
    3.7793   -5.3530    0.9770 C   0  0  0  0  0  0  0  0  0  0  0  0
    4.9667   -4.5812    0.9398 C   0  0  0  0  0  0  0  0  0  0  0  0
    6.0791   -4.8090    1.8904 C   0  0  0  0  0  0  0  0  0  0  0  0
    6.4866   -3.7828    2.7581 C   0  0  0  0  0  0  0  0  0  0  0  0
    7.5168   -4.0043    3.6763 C   0  0  0  0  0  0  0  0  0  0  0  0
    8.1374   -5.2534    3.7459 C   0  0  0  0  0  0  0  0  0  0  0  0
    7.7258   -6.2885    2.8985 C   0  0  0  0  0  0  0  0  0  0  0  0
    8.4949   -7.9072    3.0145 S   0  0  0  0  0  0  0  0  0  0  0  0
    7.2233   -8.6195    4.1216 C   0  0  0  0  0  0  0  0  0  0  0  0
    7.3932   -8.1223    5.5525 C   0  0  0  0  0  0  0  0  0  0  0  0
    6.7136   -6.0600    1.9586 C   0  0  0  0  0  0  0  0  0  0  0  0
    5.0174   -3.5426   -0.0141 C   0  0  0  0  0  0  0  0  0  0  0  0
    6.2469   -2.4116   -0.2928 S   0  0  0  0  0  0  0  0  0  0  0  0
    3.4916   -6.4149    1.8545 C   0  0  0  0  0  0  0  0  0  0  0  0
    2.2163   -6.9429    1.6661 C   0  0  0  0  0  0  0  0  0  0  0  0
    1.4629   -6.1485    0.3823 S   0  0  0  0  0  0  0  0  0  0  0  0
    1.6890   -8.1317    2.3518 C   0  0  0  0  0  0  0  0  0  0  0  0
    0.4529   -8.2063    2.8845 C   0  0  0  0  0  0  0  0  0  0  0  0
   -0.5356   -7.1202    2.9164 C   0  0  0  0  0  0  0  0  0  0  0  0
   -0.3044   -5.8893    2.7810 O   0  0  0  0  0  0  0  0  0  0  0  0
   -1.8266   -7.6859    3.2304 C   0  0  0  0  0  0  0  0  0  0  0  0
   -3.0577   -7.0366    3.2735 C   0  0  0  0  0  0  0  0  0  0  0  0
   -4.2140   -7.7878    3.5593 C   0  0  0  0  0  0  0  0  0  0  0  0
   -5.5503   -7.0964    3.6543 C   0  0  0  0  0  0  0  0  0  0  0  0
   -6.5892   -7.9979    3.4962 F   0  0  0  0  0  0  0  0  0  0  0  0
   -5.6603   -6.1290    2.6702 F   0  0  0  0  0  0  0  0  0  0  0  0
   -5.6612   -6.4945    4.8939 F   0  0  0  0  0  0  0  0  0  0  0  0
   -4.0897   -9.1707    3.8228 C   0  0  0  0  0  0  0  0  0  0  0  0
   -2.8381   -9.8034    3.7726 C   0  0  0  0  0  0  0  0  0  0  0  0
   -1.6944   -9.0396    3.4825 C   0  0  0  0  0  0  0  0  0  0  0  0
   -0.2536   -9.4296    3.3883 C   0  0  0  0  0  0  0  0  0  0  0  0
    0.3139  -10.5765    3.8480 C   0  0  0  0  0  0  0  0  0  0  0  0
    1.7388  -10.7432    3.9672 C   0  0  0  0  0  0  0  0  0  0  0  0
    2.8822  -10.8862    4.0738 N   0  0  0  0  0  0  0  0  0  0  0  0
   -0.4557  -11.6816    4.3612 C   0  0  0  0  0  0  0  0  0  0  0  0
   -1.0542  -12.5789    4.7811 N   0  0  0  0  0  0  0  0  0  0  0  0
   -5.3241    4.1831    4.2541 H   0  0  0  0  0  0  0  0  0  0  0  0
   -1.4044   -0.5867    3.2083 H   0  0  0  0  0  0  0  0  0  0  0  0
   -0.1729   -0.3850    7.3532 H   0  0  0  0  0  0  0  0  0  0  0  0
   -1.6658    1.4959    7.7182 H   0  0  0  0  0  0  0  0  0  0  0  0
   -8.7532    9.3653   -1.6162 H   0  0  0  0  0  0  0  0  0  0  0  0
   -7.4527    8.2724   -2.1746 H   0  0  0  0  0  0  0  0  0  0  0  0
   -6.5491   10.5501   -1.9301 H   0  0  0  0  0  0  0  0  0  0  0  0
   -5.8344    9.5414   -0.6164 H   0  0  0  0  0  0  0  0  0  0  0  0
   -7.1898   10.6785   -0.2454 H   0  0  0  0  0  0  0  0  0  0  0  0
   -8.9996    6.4320    4.1183 H   0  0  0  0  0  0  0  0  0  0  0  0
  -10.2461    7.5952    3.5908 H   0  0  0  0  0  0  0  0  0  0  0  0
  -10.1008    4.6511    2.6553 H   0  0  0  0  0  0  0  0  0  0  0  0
  -11.2147    5.3186    3.9061 H   0  0  0  0  0  0  0  0  0  0  0  0
  -11.3617    5.8677    2.1947 H   0  0  0  0  0  0  0  0  0  0  0  0
   -3.2529    2.1645   -3.5172 H   0  0  0  0  0  0  0  0  0  0  0  0
   -5.0033    0.5109   -4.0589 H   0  0  0  0  0  0  0  0  0  0  0  0
   -7.3900    1.1266   -3.9091 H   0  0  0  0  0  0  0  0  0  0  0  0
   -8.5880    4.6170   -3.4445 H   0  0  0  0  0  0  0  0  0  0  0  0
   -9.0718    2.9482   -3.8746 H   0  0  0  0  0  0  0  0  0  0  0  0
   -8.3073    3.8958   -1.0278 H   0  0  0  0  0  0  0  0  0  0  0  0
   -9.9864    3.6720   -1.6531 H   0  0  0  0  0  0  0  0  0  0  0  0
   -8.8964    2.2426   -1.4952 H   0  0  0  0  0  0  0  0  0  0  0  0
   -6.2819    5.1051   -2.7174 H   0  0  0  0  0  0  0  0  0  0  0  0
    4.5214   -2.2749   -4.4090 H   0  0  0  0  0  0  0  0  0  0  0  0
    5.2286   -4.0501   -5.9624 H   0  0  0  0  0  0  0  0  0  0  0  0
    7.4929   -4.0218   -6.9482 H   0  0  0  0  0  0  0  0  0  0  0  0
    9.7899   -1.1268   -6.7043 H   0  0  0  0  0  0  0  0  0  0  0  0
    9.4882   -2.6986   -7.5117 H   0  0  0  0  0  0  0  0  0  0  0  0
   10.2352   -3.9242   -5.4743 H   0  0  0  0  0  0  0  0  0  0  0  0
   11.5042   -2.7680   -6.0297 H   0  0  0  0  0  0  0  0  0  0  0  0
   10.4806   -2.3538   -4.6017 H   0  0  0  0  0  0  0  0  0  0  0  0
    8.3944   -0.4261   -4.7512 H   0  0  0  0  0  0  0  0  0  0  0  0
    2.7741    6.5816   -2.3745 H   0  0  0  0  0  0  0  0  0  0  0  0
    1.5015    7.6800   -2.9429 H   0  0  0  0  0  0  0  0  0  0  0  0
    0.9745    5.9462   -0.4572 H   0  0  0  0  0  0  0  0  0  0  0  0
    1.9942    7.4274   -0.3458 H   0  0  0  0  0  0  0  0  0  0  0  0
    0.2995    7.5713   -0.9170 H   0  0  0  0  0  0  0  0  0  0  0  0
    2.7623    4.6982   -1.1950 H   0  0  0  0  0  0  0  0  0  0  0  0
    3.9621    3.4711   -0.8913 H   0  0  0  0  0  0  0  0  0  0  0  0
    1.1126    3.0145   -2.0204 H   0  0  0  0  0  0  0  0  0  0  0  0
    2.3516    1.7123   -1.8631 H   0  0  0  0  0  0  0  0  0  0  0  0
    1.7293    2.5592   -0.3921 H   0  0  0  0  0  0  0  0  0  0  0  0
    3.4277   -1.7368   -2.3573 H   0  0  0  0  0  0  0  0  0  0  0  0
    2.6627   -4.1335   -3.5564 H   0  0  0  0  0  0  0  0  0  0  0  0
    0.7777   -3.4521   -5.0013 H   0  0  0  0  0  0  0  0  0  0  0  0
   -1.3245   -2.6177   -3.9974 H   0  0  0  0  0  0  0  0  0  0  0  0
   -2.2879   -0.0588   -0.2489 H   0  0  0  0  0  0  0  0  0  0  0  0
   -0.5781   -0.5950   -0.3835 H   0  0  0  0  0  0  0  0  0  0  0  0
   -1.2672    1.3098   -1.9511 H   0  0  0  0  0  0  0  0  0  0  0  0
   -2.3559    0.1386   -2.8011 H   0  0  0  0  0  0  0  0  0  0  0  0
   -0.5657   -0.1187   -2.7968 H   0  0  0  0  0  0  0  0  0  0  0  0
    0.3098   -3.2059   -0.0647 H   0  0  0  0  0  0  0  0  0  0  0  0
    5.9983   -2.8161    2.7337 H   0  0  0  0  0  0  0  0  0  0  0  0
    7.8260   -3.2098    4.3426 H   0  0  0  0  0  0  0  0  0  0  0  0
    8.9246   -5.4217    4.4702 H   0  0  0  0  0  0  0  0  0  0  0  0
    6.2035   -8.3792    3.7510 H   0  0  0  0  0  0  0  0  0  0  0  0
    7.3405   -9.7237    4.1127 H   0  0  0  0  0  0  0  0  0  0  0  0
    6.7228   -8.6957    6.2270 H   0  0  0  0  0  0  0  0  0  0  0  0
    7.1229   -7.0505    5.6253 H   0  0  0  0  0  0  0  0  0  0  0  0
    8.4435   -8.2650    5.8881 H   0  0  0  0  0  0  0  0  0  0  0  0
    6.4068   -6.8616    1.2966 H   0  0  0  0  0  0  0  0  0  0  0  0
    4.1732   -6.7865    2.6081 H   0  0  0  0  0  0  0  0  0  0  0  0
    2.3381   -8.9875    2.3316 H   0  0  0  0  0  0  0  0  0  0  0  0
   -3.1157   -5.9716    3.0865 H   0  0  0  0  0  0  0  0  0  0  0  0
   -4.9630   -9.7651    4.0647 H   0  0  0  0  0  0  0  0  0  0  0  0
   -2.8017  -10.8652    3.9412 H   0  0  0  0  0  0  0  0  0  0  0  0
  1  2  2  3
  2  3  1  0
  3  4  2  0
  3  5  1  0
  5  6  2  0
  6  7  1  0
  7  8  1  0
  8  9  1  0
  8 10  1  0
  8 11  1  0
  7 12  2  0
 12 13  1  0
 13 14  2  0
 14 15  1  0
 15 16  2  3
 16 17  1  0
 17 18  3  0
 16 19  1  0
 19 20  3  0
  1 21  1  0
 21 22  1  0
 22 23  1  0
 23 24  2  0
 24 25  1  0
 25 26  2  0
 25 27  1  0
 27 28  2  0
 28 29  1  0
 29 30  1  0
 28 31  1  0
 31 32  1  0
 32 33  1  0
 33 34  1  0
 32 35  2  0
 35 36  1  0
 36 37  2  0
 36 38  1  0
 23 39  1  0
 39 40  2  0
 40 41  1  0
 41 42  2  0
 42 43  1  0
 43 44  2  0
 44 45  1  0
 45 46  1  0
 46 47  1  0
 45 48  2  0
 40 49  1  0
 49 50  1  0
 50 51  1  0
 51 52  1  0
 52 53  1  0
 53 54  1  0
 54 55  2  0
 55 56  1  0
 56 57  1  0
 54 58  1  0
 58 59  1  0
 59 60  1  0
 60 61  1  0
 61 62  1  0
 62 63  1  0
 63 64  2  0
 64 65  1  0
 65 66  2  0
 66 67  1  0
 67 68  1  0
 68 69  1  0
 67 70  2  0
 62 71  2  0
 71 72  1  0
 72 73  1  0
 73 74  1  0
 74 75  1  0
 75 76  1  0
 76 77  1  0
 77 78  1  0
 78 79  1  0
 79 80  1  0
 80 81  1  0
 78 82  1  0
 82 83  1  0
 75 84  1  0
 84 85  1  0
 71 86  1  0
 86 87  2  0
 87 88  1  0
 88 89  2  0
 89 90  1  0
 90 91  2  0
 91 92  1  0
 92 93  2  0
 93 94  1  0
 94 95  1  0
 95 96  1  0
 96 97  1  0
 94 98  2  0
 89 99  1  0
 99100  2  0
100101  1  0
101102  1  0
102103  2  0
103104  1  0
104105  2  0
105106  1  0
106107  1  0
107108  1  0
108109  1  0
106110  2  0
101111  2  0
111112  1  0
100113  1  0
113114  2  0
114115  1  0
114116  1  0
116117  2  3
117118  1  0
118119  2  0
118120  1  0
120121  2  0
121122  1  0
122123  1  0
123124  1  0
123125  1  0
123126  1  0
122127  2  0
127128  1  0
128129  2  0
129130  1  0
130131  2  3
131132  1  0
132133  3  0
131134  1  0
134135  3  0
 15  2  1  0
 38 21  2  0
 81 39  1  0
112 86  1  0
130117  1  0
 14  5  1  0
 38 24  1  0
 48 41  1  0
 80 49  2  0
111 88  1  0
129120  1  0
 35 27  1  0
 79 51  2  0
 98 90  1  0
115 99  1  0
 77 52  2  0
110102  1  0
 57 53  2  0
 76 58  2  0
 74 59  2  0
 73 61  2  0
 70 63  1  0
  1136  1  0
  6137  1  0
 12138  1  0
 13139  1  0
 29140  1  0
 29141  1  0
 30142  1  0
 30143  1  0
 30144  1  0
 33145  1  0
 33146  1  0
 34147  1  0
 34148  1  0
 34149  1  0
 42150  1  0
 43151  1  0
 44152  1  0
 46153  1  0
 46154  1  0
 47155  1  0
 47156  1  0
 47157  1  0
 48158  1  0
 64159  1  0
 65160  1  0
 66161  1  0
 68162  1  0
 68163  1  0
 69164  1  0
 69165  1  0
 69166  1  0
 70167  1  0
 82168  1  0
 82169  1  0
 83170  1  0
 83171  1  0
 83172  1  0
 84173  1  0
 84174  1  0
 85175  1  0
 85176  1  0
 85177  1  0
 87178  1  0
 91179  1  0
 92180  1  0
 93181  1  0
 96182  1  0
 96183  1  0
 97184  1  0
 97185  1  0
 97186  1  0
 98187  1  0
103188  1  0
104189  1  0
105190  1  0
108191  1  0
108192  1  0
109193  1  0
109194  1  0
109195  1  0
110196  1  0
113197  1  0
116198  1  0
121199  1  0
127200  1  0
128201  1  0
M  END

