
     RDKit          3D

149162  0  0  0  0  0  0  0  0999 V2000
   -7.3364    0.5083   -7.1507 C   0  0  0  0  0  0  0  0  0  0  0  0
   -8.0006    1.3712   -6.3502 C   0  0  0  0  0  0  0  0  0  0  0  0
   -7.3887    2.1854   -5.2900 C   0  0  0  0  0  0  0  0  0  0  0  0
   -6.2225    2.0705   -4.8287 O   0  0  0  0  0  0  0  0  0  0  0  0
   -8.3482    3.1712   -4.8558 C   0  0  0  0  0  0  0  0  0  0  0  0
   -8.1532    4.2093   -3.9452 C   0  0  0  0  0  0  0  0  0  0  0  0
   -9.2075    5.1123   -3.7136 C   0  0  0  0  0  0  0  0  0  0  0  0
   -9.0470    6.2353   -2.7158 C   0  0  0  0  0  0  0  0  0  0  0  0
   -9.7833    7.3402   -3.1017 F   0  0  0  0  0  0  0  0  0  0  0  0
   -7.7164    6.6157   -2.6151 F   0  0  0  0  0  0  0  0  0  0  0  0
   -9.4845    5.8104   -1.4763 F   0  0  0  0  0  0  0  0  0  0  0  0
  -10.4377    4.9232   -4.3827 C   0  0  0  0  0  0  0  0  0  0  0  0
  -10.6029    3.8753   -5.3045 C   0  0  0  0  0  0  0  0  0  0  0  0
   -9.5424    2.9844   -5.5280 C   0  0  0  0  0  0  0  0  0  0  0  0
   -9.4348    1.7977   -6.4314 C   0  0  0  0  0  0  0  0  0  0  0  0
  -10.4637    1.1200   -7.0083 C   0  0  0  0  0  0  0  0  0  0  0  0
  -10.2925   -0.1404   -7.6772 C   0  0  0  0  0  0  0  0  0  0  0  0
  -10.1861   -1.1599   -8.2243 N   0  0  0  0  0  0  0  0  0  0  0  0
  -11.8342    1.5401   -6.8922 C   0  0  0  0  0  0  0  0  0  0  0  0
  -12.9445    1.8606   -6.8109 N   0  0  0  0  0  0  0  0  0  0  0  0
   -5.9289    0.1386   -6.9028 C   0  0  0  0  0  0  0  0  0  0  0  0
   -4.8945    1.0095   -7.2805 C   0  0  0  0  0  0  0  0  0  0  0  0
   -5.1676    2.1176   -8.0148 F   0  0  0  0  0  0  0  0  0  0  0  0
   -3.5972    0.8112   -6.7980 C   0  0  0  0  0  0  0  0  0  0  0  0
   -3.3071   -0.2781   -5.9636 C   0  0  0  0  0  0  0  0  0  0  0  0
   -4.3157   -1.2148   -5.6694 C   0  0  0  0  0  0  0  0  0  0  0  0
   -4.0707   -2.2815   -4.8581 N   0  0  0  0  0  0  0  0  0  0  0  0
   -5.0579   -3.1459   -4.5032 C   0  0  0  0  0  0  0  0  0  0  0  0
   -6.3614   -2.9247   -4.9547 C   0  0  0  0  0  0  0  0  0  0  0  0
   -7.3908   -3.7836   -4.5612 O   0  0  0  0  0  0  0  0  0  0  0  0
   -8.7439   -3.6021   -4.9751 C   0  0  0  0  0  0  0  0  0  0  0  0
   -9.6517   -4.5247   -4.1797 C   0  0  0  0  0  0  0  0  0  0  0  0
   -6.6126   -1.8586   -5.7605 N   0  0  0  0  0  0  0  0  0  0  0  0
   -5.6300   -0.9966   -6.1341 C   0  0  0  0  0  0  0  0  0  0  0  0
   -2.0662   -0.2528   -5.1816 C   0  0  0  0  0  0  0  0  0  0  0  0
   -1.1018   -1.2701   -5.1115 C   0  0  0  0  0  0  0  0  0  0  0  0
   -0.2149   -1.0493   -4.0496 C   0  0  0  0  0  0  0  0  0  0  0  0
    0.7763   -1.9460   -3.3282 C   0  0  0  0  0  0  0  0  0  0  0  0
    2.1003   -1.9601   -4.1421 C   0  0  0  0  0  0  0  0  0  0  0  0
    3.3133   -2.5254   -3.3953 C   0  0  0  0  0  0  0  0  0  0  0  0
    0.2033   -3.3780   -3.1122 C   0  0  0  0  0  0  0  0  0  0  0  0
   -1.1381   -3.4184   -2.3710 C   0  0  0  0  0  0  0  0  0  0  0  0
    0.9020   -1.1694   -2.0173 C   0  0  0  0  0  0  0  0  0  0  0  0
    0.1351    0.0006   -2.0477 C   0  0  0  0  0  0  0  0  0  0  0  0
   -0.4863    0.0744   -3.3333 C   0  0  0  0  0  0  0  0  0  0  0  0
   -1.8504    0.8451   -3.9047 S   0  0  0  0  0  0  0  0  0  0  0  0
   -0.1174    0.7720   -0.9116 C   0  0  0  0  0  0  0  0  0  0  0  0
    0.4407    0.3306    0.2945 C   0  0  0  0  0  0  0  0  0  0  0  0
    0.3280    0.9786    1.6692 C   0  0  0  0  0  0  0  0  0  0  0  0
    0.7652    2.4724    1.6626 C   0  0  0  0  0  0  0  0  0  0  0  0
    2.1740    2.7207    1.1149 C   0  0  0  0  0  0  0  0  0  0  0  0
   -1.0738    0.7748    2.3120 C   0  0  0  0  0  0  0  0  0  0  0  0
   -2.2481    1.3777    1.5309 C   0  0  0  0  0  0  0  0  0  0  0  0
    1.3070    0.1056    2.4188 C   0  0  0  0  0  0  0  0  0  0  0  0
    1.7650   -0.9257    1.6659 C   0  0  0  0  0  0  0  0  0  0  0  0
    1.2652   -0.8015    0.3202 C   0  0  0  0  0  0  0  0  0  0  0  0
    1.5071   -1.5850   -0.8150 C   0  0  0  0  0  0  0  0  0  0  0  0
    3.1076   -1.6313    2.3787 S   0  0  0  0  0  0  0  0  0  0  0  0
    3.0568   -0.6173    3.7500 C   0  0  0  0  0  0  0  0  0  0  0  0
    1.9971    0.2916    3.6128 C   0  0  0  0  0  0  0  0  0  0  0  0
    4.0663   -0.5085    4.8293 C   0  0  0  0  0  0  0  0  0  0  0  0
    5.4725   -0.4969    4.6091 C   0  0  0  0  0  0  0  0  0  0  0  0
    6.1722   -0.9318    3.4682 C   0  0  0  0  0  0  0  0  0  0  0  0
    7.5553   -0.8099    3.5918 C   0  0  0  0  0  0  0  0  0  0  0  0
    8.5527   -1.3333    2.6533 C   0  0  0  0  0  0  0  0  0  0  0  0
    9.7765   -1.0683    2.8246 O   0  0  0  0  0  0  0  0  0  0  0  0
    8.1536   -2.1768    1.6108 O   0  0  0  0  0  0  0  0  0  0  0  0
    9.0926   -2.9262    0.8438 C   0  0  0  0  0  0  0  0  0  0  0  0
    8.3570   -3.8183   -0.1385 C   0  0  0  0  0  0  0  0  0  0  0  0
    7.9320   -0.1333    5.0852 S   0  0  0  0  0  0  0  0  0  0  0  0
    6.3379   -0.0039    5.6047 C   0  0  0  0  0  0  0  0  0  0  0  0
    5.8792    0.4856    6.8414 C   0  0  0  0  0  0  0  0  0  0  0  0
    4.5186    0.3041    7.0910 C   0  0  0  0  0  0  0  0  0  0  0  0
    3.6545   -0.1508    6.1290 C   0  0  0  0  0  0  0  0  0  0  0  0
    2.4106   -0.1172    6.6327 N   0  0  0  0  0  0  0  0  0  0  0  0
    2.5495    0.3538    7.8707 N   0  0  0  0  0  0  0  0  0  0  0  0
    1.4352    0.5072    8.7968 C   0  0  0  0  0  0  0  0  0  0  0  0
    1.2795   -0.7490    9.6446 C   0  0  0  0  0  0  0  0  0  0  0  0
    3.8114    0.6297    8.1890 N   0  0  0  0  0  0  0  0  0  0  0  0
    6.7728    1.1726    7.7914 C   0  0  0  0  0  0  0  0  0  0  0  0
    7.5452    2.2078    7.4185 C   0  0  0  0  0  0  0  0  0  0  0  0
    8.9112    2.3777    7.9130 C   0  0  0  0  0  0  0  0  0  0  0  0
    9.3774    1.8925    8.9788 O   0  0  0  0  0  0  0  0  0  0  0  0
    9.6865    3.0346    6.8754 C   0  0  0  0  0  0  0  0  0  0  0  0
   11.0687    3.2194    6.8098 C   0  0  0  0  0  0  0  0  0  0  0  0
   11.6250    3.7652    5.6321 C   0  0  0  0  0  0  0  0  0  0  0  0
   13.1095    3.9778    5.4895 C   0  0  0  0  0  0  0  0  0  0  0  0
   13.7852    3.6739    6.6565 F   0  0  0  0  0  0  0  0  0  0  0  0
   13.5990    3.1787    4.4723 F   0  0  0  0  0  0  0  0  0  0  0  0
   13.3546    5.3050    5.1765 F   0  0  0  0  0  0  0  0  0  0  0  0
   10.7786    4.0726    4.5448 C   0  0  0  0  0  0  0  0  0  0  0  0
    9.3929    3.8720    4.6296 C   0  0  0  0  0  0  0  0  0  0  0  0
    8.8538    3.3634    5.8193 C   0  0  0  0  0  0  0  0  0  0  0  0
    7.4579    2.9940    6.1538 C   0  0  0  0  0  0  0  0  0  0  0  0
    6.3336    3.5572    5.6470 C   0  0  0  0  0  0  0  0  0  0  0  0
    6.3630    4.4876    4.5502 C   0  0  0  0  0  0  0  0  0  0  0  0
    6.3663    5.2529    3.6795 N   0  0  0  0  0  0  0  0  0  0  0  0
    5.0613    3.4415    6.3108 C   0  0  0  0  0  0  0  0  0  0  0  0
    4.0319    3.3722    6.8385 N   0  0  0  0  0  0  0  0  0  0  0  0
   -7.8164    0.0297   -7.9852 H   0  0  0  0  0  0  0  0  0  0  0  0
   -7.1991    4.3133   -3.4428 H   0  0  0  0  0  0  0  0  0  0  0  0
  -11.2677    5.5965   -4.2037 H   0  0  0  0  0  0  0  0  0  0  0  0
  -11.5342    3.8116   -5.8389 H   0  0  0  0  0  0  0  0  0  0  0  0
   -2.8346    1.5495   -7.0129 H   0  0  0  0  0  0  0  0  0  0  0  0
   -4.8318   -3.9844   -3.8553 H   0  0  0  0  0  0  0  0  0  0  0  0
   -9.0567   -2.5507   -4.8026 H   0  0  0  0  0  0  0  0  0  0  0  0
   -8.8334   -3.8311   -6.0582 H   0  0  0  0  0  0  0  0  0  0  0  0
  -10.7010   -4.4084   -4.5239 H   0  0  0  0  0  0  0  0  0  0  0  0
   -9.3392   -5.5790   -4.3185 H   0  0  0  0  0  0  0  0  0  0  0  0
   -9.6010   -4.2684   -3.1014 H   0  0  0  0  0  0  0  0  0  0  0  0
   -1.1129   -2.1682   -5.7176 H   0  0  0  0  0  0  0  0  0  0  0  0
    2.3587   -0.9292   -4.4666 H   0  0  0  0  0  0  0  0  0  0  0  0
    1.9447   -2.5581   -5.0696 H   0  0  0  0  0  0  0  0  0  0  0  0
    3.0861   -3.4979   -2.9187 H   0  0  0  0  0  0  0  0  0  0  0  0
    4.1436   -2.6833   -4.1136 H   0  0  0  0  0  0  0  0  0  0  0  0
    3.6605   -1.8083   -2.6220 H   0  0  0  0  0  0  0  0  0  0  0  0
    0.9224   -3.9842   -2.5257 H   0  0  0  0  0  0  0  0  0  0  0  0
    0.0728   -3.8761   -4.0963 H   0  0  0  0  0  0  0  0  0  0  0  0
   -1.0424   -2.9757   -1.3558 H   0  0  0  0  0  0  0  0  0  0  0  0
   -1.9226   -2.8706   -2.9335 H   0  0  0  0  0  0  0  0  0  0  0  0
   -1.4648   -4.4752   -2.2587 H   0  0  0  0  0  0  0  0  0  0  0  0
   -0.7502    1.6505   -0.9576 H   0  0  0  0  0  0  0  0  0  0  0  0
    0.0577    3.0639    1.0425 H   0  0  0  0  0  0  0  0  0  0  0  0
    0.7113    2.8763    2.6958 H   0  0  0  0  0  0  0  0  0  0  0  0
    2.2466    2.3921    0.0571 H   0  0  0  0  0  0  0  0  0  0  0  0
    2.3937    3.8069    1.1568 H   0  0  0  0  0  0  0  0  0  0  0  0
    2.9363    2.1886    1.7217 H   0  0  0  0  0  0  0  0  0  0  0  0
   -1.0729    1.2141    3.3325 H   0  0  0  0  0  0  0  0  0  0  0  0
   -1.2784   -0.3150    2.4277 H   0  0  0  0  0  0  0  0  0  0  0  0
   -2.4113    0.8305    0.5805 H   0  0  0  0  0  0  0  0  0  0  0  0
   -2.0929    2.4554    1.3281 H   0  0  0  0  0  0  0  0  0  0  0  0
   -3.1728    1.2760    2.1359 H   0  0  0  0  0  0  0  0  0  0  0  0
    2.0873   -2.4940   -0.7537 H   0  0  0  0  0  0  0  0  0  0  0  0
    1.8162    1.1220    4.2819 H   0  0  0  0  0  0  0  0  0  0  0  0
    5.7208   -1.3649    2.5909 H   0  0  0  0  0  0  0  0  0  0  0  0
    9.7648   -2.2353    0.2887 H   0  0  0  0  0  0  0  0  0  0  0  0
    9.7054   -3.5631    1.5219 H   0  0  0  0  0  0  0  0  0  0  0  0
    7.6578   -4.4886    0.4034 H   0  0  0  0  0  0  0  0  0  0  0  0
    7.7837   -3.1999   -0.8605 H   0  0  0  0  0  0  0  0  0  0  0  0
    9.0870   -4.4411   -0.6983 H   0  0  0  0  0  0  0  0  0  0  0  0
    0.4968    0.6781    8.2257 H   0  0  0  0  0  0  0  0  0  0  0  0
    1.6051    1.3890    9.4535 H   0  0  0  0  0  0  0  0  0  0  0  0
    0.3858   -0.6517   10.2942 H   0  0  0  0  0  0  0  0  0  0  0  0
    1.1505   -1.6359    8.9914 H   0  0  0  0  0  0  0  0  0  0  0  0
    2.1756   -0.8929   10.2817 H   0  0  0  0  0  0  0  0  0  0  0  0
    6.9728    0.6701    8.7310 H   0  0  0  0  0  0  0  0  0  0  0  0
   11.6849    2.9249    7.6477 H   0  0  0  0  0  0  0  0  0  0  0  0
   11.1924    4.4603    3.6213 H   0  0  0  0  0  0  0  0  0  0  0  0
    8.7836    4.0590    3.7593 H   0  0  0  0  0  0  0  0  0  0  0  0
  1  2  2  3
  2  3  1  0
  3  4  2  0
  3  5  1  0
  5  6  2  0
  6  7  1  0
  7  8  1  0
  8  9  1  0
  8 10  1  0
  8 11  1  0
  7 12  2  0
 12 13  1  0
 13 14  2  0
 14 15  1  0
 15 16  2  3
 16 17  1  0
 17 18  3  0
 16 19  1  0
 19 20  3  0
  1 21  1  0
 21 22  2  0
 22 23  1  0
 22 24  1  0
 24 25  2  0
 25 26  1  0
 26 27  2  0
 27 28  1  0
 28 29  2  0
 29 30  1  0
 30 31  1  0
 31 32  1  0
 29 33  1  0
 33 34  2  0
 25 35  1  0
 35 36  2  0
 36 37  1  0
 37 38  1  0
 38 39  1  0
 39 40  1  0
 38 41  1  0
 41 42  1  0
 38 43  1  0
 43 44  2  0
 44 45  1  0
 45 46  1  0
 44 47  1  0
 47 48  2  0
 48 49  1  0
 49 50  1  0
 50 51  1  0
 49 52  1  0
 52 53  1  0
 49 54  1  0
 54 55  2  0
 55 56  1  0
 56 57  2  0
 55 58  1  0
 58 59  1  0
 59 60  2  0
 59 61  1  0
 61 62  2  0
 62 63  1  0
 63 64  2  0
 64 65  1  0
 65 66  2  0
 65 67  1  0
 67 68  1  0
 68 69  1  0
 64 70  1  0
 70 71  1  0
 71 72  2  0
 72 73  1  0
 73 74  1  0
 74 75  2  0
 75 76  1  0
 76 77  1  0
 77 78  1  0
 76 79  1  0
 72 80  1  0
 80 81  2  3
 81 82  1  0
 82 83  2  0
 82 84  1  0
 84 85  2  0
 85 86  1  0
 86 87  1  0
 87 88  1  0
 87 89  1  0
 87 90  1  0
 86 91  2  0
 91 92  1  0
 92 93  2  0
 93 94  1  0
 94 95  2  3
 95 96  1  0
 96 97  3  0
 95 98  1  0
 98 99  3  0
 15  2  1  0
 34 21  1  0
 46 35  1  0
 56 48  1  0
 74 61  1  0
 94 81  1  0
 14  5  1  0
 34 26  1  0
 45 37  2  0
 60 54  1  0
 71 62  1  0
 79 73  2  0
 93 84  1  0
 57 43  1  0
  1100  1  0
  6101  1  0
 12102  1  0
 13103  1  0
 24104  1  0
 28105  1  0
 31106  1  0
 31107  1  0
 32108  1  0
 32109  1  0
 32110  1  0
 36111  1  0
 39112  1  0
 39113  1  0
 40114  1  0
 40115  1  0
 40116  1  0
 41117  1  0
 41118  1  0
 42119  1  0
 42120  1  0
 42121  1  0
 47122  1  0
 50123  1  0
 50124  1  0
 51125  1  0
 51126  1  0
 51127  1  0
 52128  1  0
 52129  1  0
 53130  1  0
 53131  1  0
 53132  1  0
 57133  1  0
 60134  1  0
 63135  1  0
 68136  1  0
 68137  1  0
 69138  1  0
 69139  1  0
 69140  1  0
 77141  1  0
 77142  1  0
 78143  1  0
 78144  1  0
 78145  1  0
 80146  1  0
 85147  1  0
 91148  1  0
 92149  1  0
M  END

