
     RDKit          3D

252277  0  0  0  0  0  0  0  0999 V2000
    6.9957   -2.6015    1.4367 C   0  0  0  0  0  0  0  0  0  0  0  0
    6.3540   -1.6981    2.2120 C   0  0  0  0  0  0  0  0  0  0  0  0
    6.6165   -1.5956    3.6453 C   0  0  0  0  0  0  0  0  0  0  0  0
    7.5577   -2.1537    4.2674 O   0  0  0  0  0  0  0  0  0  0  0  0
    5.5550   -0.8198    4.2521 C   0  0  0  0  0  0  0  0  0  0  0  0
    5.4299   -0.4448    5.5903 C   0  0  0  0  0  0  0  0  0  0  0  0
    4.3459    0.3722    5.9688 C   0  0  0  0  0  0  0  0  0  0  0  0
    4.2489    0.8758    7.3845 C   0  0  0  0  0  0  0  0  0  0  0  0
    2.9553    1.2531    7.6961 F   0  0  0  0  0  0  0  0  0  0  0  0
    4.6409   -0.1081    8.2793 F   0  0  0  0  0  0  0  0  0  0  0  0
    5.0760    1.9754    7.5290 F   0  0  0  0  0  0  0  0  0  0  0  0
    3.4254    0.7940    4.9865 C   0  0  0  0  0  0  0  0  0  0  0  0
    3.5633    0.3886    3.6489 C   0  0  0  0  0  0  0  0  0  0  0  0
    4.6558   -0.4172    3.2823 C   0  0  0  0  0  0  0  0  0  0  0  0
    5.1481   -0.8385    1.9354 C   0  0  0  0  0  0  0  0  0  0  0  0
    4.8076   -0.2379    0.7635 C   0  0  0  0  0  0  0  0  0  0  0  0
    3.5620    0.4595    0.5758 C   0  0  0  0  0  0  0  0  0  0  0  0
    2.5658    1.0225    0.3974 N   0  0  0  0  0  0  0  0  0  0  0  0
    5.7139   -0.1170   -0.3486 C   0  0  0  0  0  0  0  0  0  0  0  0
    6.4156    0.0165   -1.2571 N   0  0  0  0  0  0  0  0  0  0  0  0
    6.5578   -3.0101    0.0974 C   0  0  0  0  0  0  0  0  0  0  0  0
    7.3476   -2.9207   -1.0593 C   0  0  0  0  0  0  0  0  0  0  0  0
    8.7840   -2.8611   -1.0598 N   0  0  0  0  0  0  0  0  0  0  0  0
    9.5585   -4.0139   -0.6483 C   0  0  0  0  0  0  0  0  0  0  0  0
   10.8554   -3.8587   -0.1222 C   0  0  0  0  0  0  0  0  0  0  0  0
   11.6012   -4.9706    0.2848 C   0  0  0  0  0  0  0  0  0  0  0  0
   11.0574   -6.2575    0.1944 C   0  0  0  0  0  0  0  0  0  0  0  0
   11.8628   -7.4513    0.6175 C   0  0  0  0  0  0  0  0  0  0  0  0
    9.7757   -6.4250   -0.3469 C   0  0  0  0  0  0  0  0  0  0  0  0
    9.0327   -5.3160   -0.7629 C   0  0  0  0  0  0  0  0  0  0  0  0
    9.4430   -1.6517   -1.4617 C   0  0  0  0  0  0  0  0  0  0  0  0
    9.3513   -0.5046   -0.6632 C   0  0  0  0  0  0  0  0  0  0  0  0
   10.0949    0.6345   -0.9807 C   0  0  0  0  0  0  0  0  0  0  0  0
   10.9444    0.6347   -2.0982 C   0  0  0  0  0  0  0  0  0  0  0  0
   11.8095    1.8229   -2.3966 C   0  0  0  0  0  0  0  0  0  0  0  0
   11.0477   -0.5201   -2.8870 C   0  0  0  0  0  0  0  0  0  0  0  0
   10.2980   -1.6558   -2.5737 C   0  0  0  0  0  0  0  0  0  0  0  0
    6.5621   -2.9979   -2.2045 C   0  0  0  0  0  0  0  0  0  0  0  0
    6.7537   -2.4962   -3.7941 S   0  0  0  0  0  0  0  0  0  0  0  0
    5.1012   -2.6618   -4.2119 C   0  0  0  0  0  0  0  0  0  0  0  0
    4.4061   -3.1079   -3.0638 C   0  0  0  0  0  0  0  0  0  0  0  0
    3.0313   -3.5388   -3.0329 N   0  0  0  0  0  0  0  0  0  0  0  0
    1.9846   -2.5843   -3.2608 C   0  0  0  0  0  0  0  0  0  0  0  0
    1.0907   -2.7642   -4.3232 C   0  0  0  0  0  0  0  0  0  0  0  0
   -0.0190   -1.9286   -4.4585 C   0  0  0  0  0  0  0  0  0  0  0  0
   -0.2785   -0.9426   -3.4976 C   0  0  0  0  0  0  0  0  0  0  0  0
   -1.4938   -0.0763   -3.6205 C   0  0  0  0  0  0  0  0  0  0  0  0
    0.6195   -0.7613   -2.4353 C   0  0  0  0  0  0  0  0  0  0  0  0
    1.7537   -1.5680   -2.3260 C   0  0  0  0  0  0  0  0  0  0  0  0
    2.7126   -4.8702   -2.5449 C   0  0  0  0  0  0  0  0  0  0  0  0
    3.6749   -5.9016   -2.5959 C   0  0  0  0  0  0  0  0  0  0  0  0
    3.3995   -7.1674   -2.0801 C   0  0  0  0  0  0  0  0  0  0  0  0
    2.1465   -7.4441   -1.5198 C   0  0  0  0  0  0  0  0  0  0  0  0
    1.8797   -8.7946   -0.9224 C   0  0  0  0  0  0  0  0  0  0  0  0
    1.1812   -6.4301   -1.4612 C   0  0  0  0  0  0  0  0  0  0  0  0
    1.4580   -5.1575   -1.9696 C   0  0  0  0  0  0  0  0  0  0  0  0
    5.2510   -3.2492   -1.9751 C   0  0  0  0  0  0  0  0  0  0  0  0
    4.9418   -3.3321   -0.3321 S   0  0  0  0  0  0  0  0  0  0  0  0
    4.4761   -1.8118   -5.2293 C   0  0  0  0  0  0  0  0  0  0  0  0
    3.6438   -2.1734   -6.3230 C   0  0  0  0  0  0  0  0  0  0  0  0
    3.4846   -3.5360   -6.9322 C   0  0  0  0  0  0  0  0  0  0  0  0
    3.1227   -3.6534   -8.2898 C   0  0  0  0  0  0  0  0  0  0  0  0
    2.9772   -4.9064   -8.8871 C   0  0  0  0  0  0  0  0  0  0  0  0
    3.2228   -6.0688   -8.1560 C   0  0  0  0  0  0  0  0  0  0  0  0
    3.6007   -5.9841   -6.8107 C   0  0  0  0  0  0  0  0  0  0  0  0
    3.9416   -7.2326   -6.0335 C   0  0  0  0  0  0  0  0  0  0  0  0
    5.4536   -7.3794   -5.8820 C   0  0  0  0  0  0  0  0  0  0  0  0
    3.7267   -4.7208   -6.2063 C   0  0  0  0  0  0  0  0  0  0  0  0
    2.9751   -1.0262   -6.8057 C   0  0  0  0  0  0  0  0  0  0  0  0
    1.4905   -0.8344   -7.6292 S   0  0  0  0  0  0  0  0  0  0  0  0
    1.3752    0.8037   -7.2107 C   0  0  0  0  0  0  0  0  0  0  0  0
    0.3105    1.6053   -6.8723 C   0  0  0  0  0  0  0  0  0  0  0  0
   -1.0301    1.5806   -7.2651 C   0  0  0  0  0  0  0  0  0  0  0  0
   -1.9591    2.4381   -6.5967 C   0  0  0  0  0  0  0  0  0  0  0  0
   -3.2543    2.3447   -6.9807 N   0  0  0  0  0  0  0  0  0  0  0  0
   -3.1205    1.2045   -8.1766 S   0  0  0  0  0  0  0  0  0  0  0  0
   -1.5208    0.7793   -8.2418 N   0  0  0  0  0  0  0  0  0  0  0  0
   -1.5148    3.1969   -5.4989 C   0  0  0  0  0  0  0  0  0  0  0  0
   -2.2548    3.6535   -4.4340 C   0  0  0  0  0  0  0  0  0  0  0  0
   -3.8919    3.5459   -3.9832 S   0  0  0  0  0  0  0  0  0  0  0  0
   -3.4960    3.5016   -2.3283 C   0  0  0  0  0  0  0  0  0  0  0  0
   -4.2354    3.2374   -1.1694 C   0  0  0  0  0  0  0  0  0  0  0  0
   -5.6404    3.6800   -0.9850 C   0  0  0  0  0  0  0  0  0  0  0  0
   -5.9472    4.5498    0.0770 C   0  0  0  0  0  0  0  0  0  0  0  0
   -7.2369    5.0620    0.2278 C   0  0  0  0  0  0  0  0  0  0  0  0
   -8.2359    4.7246   -0.6843 C   0  0  0  0  0  0  0  0  0  0  0  0
   -7.9546    3.8537   -1.7509 C   0  0  0  0  0  0  0  0  0  0  0  0
   -9.0393    3.5206   -2.7406 C   0  0  0  0  0  0  0  0  0  0  0  0
   -9.1703    4.6221   -3.7866 C   0  0  0  0  0  0  0  0  0  0  0  0
   -6.6513    3.3464   -1.9076 C   0  0  0  0  0  0  0  0  0  0  0  0
   -3.3713    2.8960   -0.1066 C   0  0  0  0  0  0  0  0  0  0  0  0
   -1.7517    3.0282   -0.6010 S   0  0  0  0  0  0  0  0  0  0  0  0
   -2.1362    3.4973   -2.1633 C   0  0  0  0  0  0  0  0  0  0  0  0
   -1.4278    3.6409   -3.3530 C   0  0  0  0  0  0  0  0  0  0  0  0
   -0.1494    3.3300   -3.6750 N   0  0  0  0  0  0  0  0  0  0  0  0
   -0.1884    3.1010   -5.0302 C   0  0  0  0  0  0  0  0  0  0  0  0
    0.7634    2.4167   -5.8285 C   0  0  0  0  0  0  0  0  0  0  0  0
    2.0862    2.2087   -5.5932 N   0  0  0  0  0  0  0  0  0  0  0  0
    2.4153    1.1866   -6.4175 C   0  0  0  0  0  0  0  0  0  0  0  0
    3.3084    0.1550   -6.1879 C   0  0  0  0  0  0  0  0  0  0  0  0
    4.3635   -0.1371   -4.9361 S   0  0  0  0  0  0  0  0  0  0  0  0
    3.0446    3.2151   -5.1130 C   0  0  0  0  0  0  0  0  0  0  0  0
    3.7936    3.8631   -6.2769 C   0  0  0  0  0  0  0  0  0  0  0  0
    0.8778    2.9539   -2.6846 C   0  0  0  0  0  0  0  0  0  0  0  0
    1.3893    4.1874   -1.9375 C   0  0  0  0  0  0  0  0  0  0  0  0
   -3.7675    2.4384    1.2319 C   0  0  0  0  0  0  0  0  0  0  0  0
   -4.8253    1.5604    1.5373 C   0  0  0  0  0  0  0  0  0  0  0  0
   -5.4866    0.7159    0.5798 N   0  0  0  0  0  0  0  0  0  0  0  0
   -4.6916   -0.3306   -0.0274 C   0  0  0  0  0  0  0  0  0  0  0  0
   -3.8703   -1.1533    0.7669 C   0  0  0  0  0  0  0  0  0  0  0  0
   -3.1304   -2.1897    0.1931 C   0  0  0  0  0  0  0  0  0  0  0  0
   -3.2029   -2.4333   -1.1841 C   0  0  0  0  0  0  0  0  0  0  0  0
   -2.4421   -3.5748   -1.7989 C   0  0  0  0  0  0  0  0  0  0  0  0
   -4.0150   -1.6102   -1.9838 C   0  0  0  0  0  0  0  0  0  0  0  0
   -4.7231   -0.5451   -1.4151 C   0  0  0  0  0  0  0  0  0  0  0  0
   -6.9405    0.7561    0.4524 C   0  0  0  0  0  0  0  0  0  0  0  0
   -7.6874    1.7837    1.0623 C   0  0  0  0  0  0  0  0  0  0  0  0
   -9.0723    1.8709    0.8966 C   0  0  0  0  0  0  0  0  0  0  0  0
   -9.7544    0.9108    0.1436 C   0  0  0  0  0  0  0  0  0  0  0  0
  -11.2311    1.0382   -0.0948 C   0  0  0  0  0  0  0  0  0  0  0  0
   -9.0311   -0.1321   -0.4436 C   0  0  0  0  0  0  0  0  0  0  0  0
   -7.6483   -0.2259   -0.2735 C   0  0  0  0  0  0  0  0  0  0  0  0
   -4.8810    1.3149    2.9031 C   0  0  0  0  0  0  0  0  0  0  0  0
   -5.7615    0.2686    3.8623 S   0  0  0  0  0  0  0  0  0  0  0  0
   -4.8521    0.5503    5.2825 C   0  0  0  0  0  0  0  0  0  0  0  0
   -3.8211    1.4512    4.9569 C   0  0  0  0  0  0  0  0  0  0  0  0
   -2.6891    1.7326    5.7923 N   0  0  0  0  0  0  0  0  0  0  0  0
   -1.5847    0.7916    5.8405 C   0  0  0  0  0  0  0  0  0  0  0  0
   -0.7321    0.7382    6.9573 C   0  0  0  0  0  0  0  0  0  0  0  0
    0.2975   -0.2113    7.0258 C   0  0  0  0  0  0  0  0  0  0  0  0
    0.4994   -1.1167    5.9746 C   0  0  0  0  0  0  0  0  0  0  0  0
    1.6027   -2.1344    6.0426 C   0  0  0  0  0  0  0  0  0  0  0  0
   -0.3181   -1.0451    4.8427 C   0  0  0  0  0  0  0  0  0  0  0  0
   -1.3593   -0.1106    4.7809 C   0  0  0  0  0  0  0  0  0  0  0  0
   -2.6220    3.0298    6.4184 C   0  0  0  0  0  0  0  0  0  0  0  0
   -1.4630    3.8160    6.3180 C   0  0  0  0  0  0  0  0  0  0  0  0
   -1.4278    5.0986    6.8762 C   0  0  0  0  0  0  0  0  0  0  0  0
   -2.5546    5.6180    7.5292 C   0  0  0  0  0  0  0  0  0  0  0  0
   -2.5137    6.9806    8.1591 C   0  0  0  0  0  0  0  0  0  0  0  0
   -3.7106    4.8325    7.6391 C   0  0  0  0  0  0  0  0  0  0  0  0
   -3.7424    3.5491    7.0885 C   0  0  0  0  0  0  0  0  0  0  0  0
   -3.9003    1.8794    3.6388 C   0  0  0  0  0  0  0  0  0  0  0  0
   -2.8946    2.7897    2.6510 S   0  0  0  0  0  0  0  0  0  0  0  0
   -5.0949    0.0492    6.6578 C   0  0  0  0  0  0  0  0  0  0  0  0
   -6.2251   -0.5222    7.1414 C   0  0  0  0  0  0  0  0  0  0  0  0
   -7.4578   -0.8359    6.4104 C   0  0  0  0  0  0  0  0  0  0  0  0
   -7.5244   -1.3890    5.2819 O   0  0  0  0  0  0  0  0  0  0  0  0
   -8.5807   -0.7064    7.3230 C   0  0  0  0  0  0  0  0  0  0  0  0
   -8.0985   -0.5128    8.6075 C   0  0  0  0  0  0  0  0  0  0  0  0
   -8.9934   -0.3165    9.6692 C   0  0  0  0  0  0  0  0  0  0  0  0
  -10.3729   -0.3490    9.4112 C   0  0  0  0  0  0  0  0  0  0  0  0
  -10.8566   -0.5529    8.1082 C   0  0  0  0  0  0  0  0  0  0  0  0
  -12.7536   -0.5534    7.8265 Br  0  0  0  0  0  0  0  0  0  0  0  0
   -9.9527   -0.7306    7.0394 C   0  0  0  0  0  0  0  0  0  0  0  0
  -10.5315   -0.9190    5.3873 Cl  0  0  0  0  0  0  0  0  0  0  0  0
   -6.6111   -0.5359    8.5872 C   0  0  0  0  0  0  0  0  0  0  0  0
   -5.7794   -0.7211    9.6439 C   0  0  0  0  0  0  0  0  0  0  0  0
   -4.3818   -1.0276    9.4657 C   0  0  0  0  0  0  0  0  0  0  0  0
   -3.2590   -1.2753    9.3322 N   0  0  0  0  0  0  0  0  0  0  0  0
   -6.2436   -0.7563   11.0061 C   0  0  0  0  0  0  0  0  0  0  0  0
   -6.6061   -0.7810   12.1067 N   0  0  0  0  0  0  0  0  0  0  0  0
    7.8752   -3.0977    1.8239 H   0  0  0  0  0  0  0  0  0  0  0  0
    6.1703   -0.7578    6.3107 H   0  0  0  0  0  0  0  0  0  0  0  0
    2.5929    1.4368    5.2498 H   0  0  0  0  0  0  0  0  0  0  0  0
    2.8238    0.7196    2.9451 H   0  0  0  0  0  0  0  0  0  0  0  0
   11.2967   -2.8766   -0.0161 H   0  0  0  0  0  0  0  0  0  0  0  0
   12.6001   -4.8233    0.6834 H   0  0  0  0  0  0  0  0  0  0  0  0
   12.5827   -7.1759    1.4184 H   0  0  0  0  0  0  0  0  0  0  0  0
   12.4257   -7.8443   -0.2542 H   0  0  0  0  0  0  0  0  0  0  0  0
   11.1988   -8.2483    1.0132 H   0  0  0  0  0  0  0  0  0  0  0  0
    9.3509   -7.4159   -0.4491 H   0  0  0  0  0  0  0  0  0  0  0  0
    8.0494   -5.4811   -1.1825 H   0  0  0  0  0  0  0  0  0  0  0  0
    8.7366   -0.5089    0.2305 H   0  0  0  0  0  0  0  0  0  0  0  0
   10.0321    1.5040   -0.3363 H   0  0  0  0  0  0  0  0  0  0  0  0
   11.4373    2.7295   -1.8747 H   0  0  0  0  0  0  0  0  0  0  0  0
   11.8136    2.0263   -3.4890 H   0  0  0  0  0  0  0  0  0  0  0  0
   12.8477    1.6151   -2.0611 H   0  0  0  0  0  0  0  0  0  0  0  0
   11.7174   -0.5442   -3.7382 H   0  0  0  0  0  0  0  0  0  0  0  0
   10.3992   -2.5492   -3.1790 H   0  0  0  0  0  0  0  0  0  0  0  0
    1.2406   -3.5706   -5.0295 H   0  0  0  0  0  0  0  0  0  0  0  0
   -0.6993   -2.0805   -5.2880 H   0  0  0  0  0  0  0  0  0  0  0  0
   -1.2520    0.7835   -4.2586 H   0  0  0  0  0  0  0  0  0  0  0  0
   -1.8308    0.2833   -2.6252 H   0  0  0  0  0  0  0  0  0  0  0  0
   -2.3245   -0.6335   -4.0998 H   0  0  0  0  0  0  0  0  0  0  0  0
    0.4246   -0.0196   -1.6702 H   0  0  0  0  0  0  0  0  0  0  0  0
    2.4205   -1.4430   -1.4812 H   0  0  0  0  0  0  0  0  0  0  0  0
    4.6473   -5.7338   -3.0380 H   0  0  0  0  0  0  0  0  0  0  0  0
    4.1641   -7.9348   -2.1252 H   0  0  0  0  0  0  0  0  0  0  0  0
    2.3013   -8.8255    0.1029 H   0  0  0  0  0  0  0  0  0  0  0  0
    2.3563   -9.5906   -1.5356 H   0  0  0  0  0  0  0  0  0  0  0  0
    0.7893   -9.0019   -0.8743 H   0  0  0  0  0  0  0  0  0  0  0  0
    0.2163   -6.6195   -1.0090 H   0  0  0  0  0  0  0  0  0  0  0  0
    0.6923   -4.3980   -1.8937 H   0  0  0  0  0  0  0  0  0  0  0  0
    2.9764   -2.7770   -8.9078 H   0  0  0  0  0  0  0  0  0  0  0  0
    2.6924   -4.9768   -9.9274 H   0  0  0  0  0  0  0  0  0  0  0  0
    3.1296   -7.0322   -8.6453 H   0  0  0  0  0  0  0  0  0  0  0  0
    3.4704   -7.1861   -5.0308 H   0  0  0  0  0  0  0  0  0  0  0  0
    3.5350   -8.1334   -6.5418 H   0  0  0  0  0  0  0  0  0  0  0  0
    5.6828   -8.3090   -5.3191 H   0  0  0  0  0  0  0  0  0  0  0  0
    5.9328   -7.4431   -6.8826 H   0  0  0  0  0  0  0  0  0  0  0  0
    5.8775   -6.5156   -5.3265 H   0  0  0  0  0  0  0  0  0  0  0  0
    4.0188   -4.6908   -5.1775 H   0  0  0  0  0  0  0  0  0  0  0  0
   -5.1820    4.8428    0.7889 H   0  0  0  0  0  0  0  0  0  0  0  0
   -7.4579    5.7328    1.0477 H   0  0  0  0  0  0  0  0  0  0  0  0
   -9.2322    5.1324   -0.5509 H   0  0  0  0  0  0  0  0  0  0  0  0
  -10.0070    3.4072   -2.2063 H   0  0  0  0  0  0  0  0  0  0  0  0
   -8.8283    2.5542   -3.2459 H   0  0  0  0  0  0  0  0  0  0  0  0
  -10.0037    4.3884   -4.4857 H   0  0  0  0  0  0  0  0  0  0  0  0
   -9.3890    5.5971   -3.3021 H   0  0  0  0  0  0  0  0  0  0  0  0
   -8.2322    4.7129   -4.3729 H   0  0  0  0  0  0  0  0  0  0  0  0
   -6.4290    2.6828   -2.7352 H   0  0  0  0  0  0  0  0  0  0  0  0
    2.5172    4.0224   -4.5820 H   0  0  0  0  0  0  0  0  0  0  0  0
    3.7747    2.7457   -4.4221 H   0  0  0  0  0  0  0  0  0  0  0  0
    3.0702    4.3124   -6.9922 H   0  0  0  0  0  0  0  0  0  0  0  0
    4.4217    3.1153   -6.8025 H   0  0  0  0  0  0  0  0  0  0  0  0
    4.4557    4.6683   -5.8867 H   0  0  0  0  0  0  0  0  0  0  0  0
    0.4517    2.2440   -1.9572 H   0  0  0  0  0  0  0  0  0  0  0  0
    1.7132    2.3953   -3.1306 H   0  0  0  0  0  0  0  0  0  0  0  0
    2.1716    3.8831   -1.2070 H   0  0  0  0  0  0  0  0  0  0  0  0
    1.8177    4.9286   -2.6354 H   0  0  0  0  0  0  0  0  0  0  0  0
    0.5603    4.6700   -1.3796 H   0  0  0  0  0  0  0  0  0  0  0  0
   -3.8081   -1.0094    1.8351 H   0  0  0  0  0  0  0  0  0  0  0  0
   -2.5103   -2.8112    0.8280 H   0  0  0  0  0  0  0  0  0  0  0  0
   -1.7716   -4.0568   -1.0562 H   0  0  0  0  0  0  0  0  0  0  0  0
   -3.1528   -4.3363   -2.1794 H   0  0  0  0  0  0  0  0  0  0  0  0
   -1.8233   -3.2106   -2.6441 H   0  0  0  0  0  0  0  0  0  0  0  0
   -4.0934   -1.7967   -3.0491 H   0  0  0  0  0  0  0  0  0  0  0  0
   -5.3198    0.0949   -2.0522 H   0  0  0  0  0  0  0  0  0  0  0  0
   -7.2027    2.5438    1.6532 H   0  0  0  0  0  0  0  0  0  0  0  0
   -9.6103    2.7020    1.3438 H   0  0  0  0  0  0  0  0  0  0  0  0
  -11.7120    1.6434    0.7039 H   0  0  0  0  0  0  0  0  0  0  0  0
  -11.3984    1.5365   -1.0712 H   0  0  0  0  0  0  0  0  0  0  0  0
  -11.7084    0.0365   -0.1014 H   0  0  0  0  0  0  0  0  0  0  0  0
   -9.5425   -0.8827   -1.0338 H   0  0  0  0  0  0  0  0  0  0  0  0
   -7.1496   -1.0741   -0.7171 H   0  0  0  0  0  0  0  0  0  0  0  0
   -0.8705    1.4133    7.7908 H   0  0  0  0  0  0  0  0  0  0  0  0
    0.9278   -0.2492    7.9027 H   0  0  0  0  0  0  0  0  0  0  0  0
    1.3385   -3.0414    5.4503 H   0  0  0  0  0  0  0  0  0  0  0  0
    1.7824   -2.4428    7.0952 H   0  0  0  0  0  0  0  0  0  0  0  0
    2.5380   -1.7100    5.6218 H   0  0  0  0  0  0  0  0  0  0  0  0
   -0.1656   -1.7228    4.0062 H   0  0  0  0  0  0  0  0  0  0  0  0
   -1.9800   -0.1014    3.8956 H   0  0  0  0  0  0  0  0  0  0  0  0
   -0.5969    3.4483    5.7841 H   0  0  0  0  0  0  0  0  0  0  0  0
   -0.5251    5.6920    6.7938 H   0  0  0  0  0  0  0  0  0  0  0  0
   -2.2215    6.8860    9.2255 H   0  0  0  0  0  0  0  0  0  0  0  0
   -3.5132    7.4613    8.0953 H   0  0  0  0  0  0  0  0  0  0  0  0
   -1.7848    7.6315    7.6373 H   0  0  0  0  0  0  0  0  0  0  0  0
   -4.5881    5.2086    8.1532 H   0  0  0  0  0  0  0  0  0  0  0  0
   -4.6450    2.9579    7.1806 H   0  0  0  0  0  0  0  0  0  0  0  0
   -4.3517    0.3722    7.3704 H   0  0  0  0  0  0  0  0  0  0  0  0
   -8.6691   -0.1163   10.6749 H   0  0  0  0  0  0  0  0  0  0  0  0
  -11.0691   -0.2053   10.2256 H   0  0  0  0  0  0  0  0  0  0  0  0
  1  2  2  3
  2  3  1  0
  3  4  2  0
  3  5  1  0
  5  6  2  0
  6  7  1  0
  7  8  1  0
  8  9  1  0
  8 10  1  0
  8 11  1  0
  7 12  2  0
 12 13  1  0
 13 14  2  0
 14 15  1  0
 15 16  2  3
 16 17  1  0
 17 18  3  0
 16 19  1  0
 19 20  3  0
  1 21  1  0
 21 22  2  0
 22 23  1  0
 23 24  1  0
 24 25  2  0
 25 26  1  0
 26 27  2  0
 27 28  1  0
 27 29  1  0
 29 30  2  0
 23 31  1  0
 31 32  2  0
 32 33  1  0
 33 34  2  0
 34 35  1  0
 34 36  1  0
 36 37  2  0
 22 38  1  0
 38 39  1  0
 39 40  1  0
 40 41  2  0
 41 42  1  0
 42 43  1  0
 43 44  2  0
 44 45  1  0
 45 46  2  0
 46 47  1  0
 46 48  1  0
 48 49  2  0
 42 50  1  0
 50 51  2  0
 51 52  1  0
 52 53  2  0
 53 54  1  0
 53 55  1  0
 55 56  2  0
 41 57  1  0
 57 58  1  0
 40 59  1  0
 59 60  2  0
 60 61  1  0
 61 62  2  0
 62 63  1  0
 63 64  2  0
 64 65  1  0
 65 66  1  0
 66 67  1  0
 65 68  2  0
 60 69  1  0
 69 70  1  0
 70 71  1  0
 71 72  1  0
 72 73  1  0
 73 74  1  0
 74 75  2  0
 75 76  1  0
 76 77  1  0
 74 78  1  0
 78 79  1  0
 79 80  1  0
 80 81  1  0
 81 82  1  0
 82 83  1  0
 83 84  2  0
 84 85  1  0
 85 86  2  0
 86 87  1  0
 87 88  1  0
 88 89  1  0
 87 90  2  0
 82 91  2  0
 91 92  1  0
 92 93  1  0
 93 94  1  0
 94 95  1  0
 95 96  1  0
 96 97  1  0
 97 98  1  0
 98 99  1  0
 99100  1  0
100101  1  0
 98102  1  0
102103  1  0
 95104  1  0
104105  1  0
 91106  1  0
106107  2  0
107108  1  0
108109  1  0
109110  2  0
110111  1  0
111112  2  0
112113  1  0
112114  1  0
114115  2  0
108116  1  0
116117  2  0
117118  1  0
118119  2  0
119120  1  0
119121  1  0
121122  2  0
107123  1  0
123124  1  0
124125  1  0
125126  2  0
126127  1  0
127128  1  0
128129  2  0
129130  1  0
130131  2  0
131132  1  0
131133  1  0
133134  2  0
127135  1  0
135136  2  0
136137  1  0
137138  2  0
138139  1  0
138140  1  0
140141  2  0
126142  1  0
142143  1  0
125144  1  0
144145  2  3
145146  1  0
146147  2  0
146148  1  0
148149  2  0
149150  1  0
150151  2  0
151152  1  0
152153  1  0
152154  2  0
154155  1  0
149156  1  0
156157  2  3
157158  1  0
158159  3  0
157160  1  0
160161  3  0
 15  2  1  0
 58 21  1  0
101 59  1  0
143106  1  0
156145  1  0
 14  5  1  0
 30 24  1  0
 37 31  1  0
 57 38  2  0
 68 61  1  0
100 69  2  0
115109  1  0
122116  1  0
142123  2  0
154148  1  0
 49 43  1  0
 56 50  1  0
 99 71  2  0
134128  1  0
141135  1  0
 97 72  2  0
 77 73  2  0
 96 78  2  0
 94 79  2  0
 93 81  2  0
 90 83  1  0
  1162  1  0
  6163  1  0
 12164  1  0
 13165  1  0
 25166  1  0
 26167  1  0
 28168  1  0
 28169  1  0
 28170  1  0
 29171  1  0
 30172  1  0
 32173  1  0
 33174  1  0
 35175  1  0
 35176  1  0
 35177  1  0
 36178  1  0
 37179  1  0
 44180  1  0
 45181  1  0
 47182  1  0
 47183  1  0
 47184  1  0
 48185  1  0
 49186  1  0
 51187  1  0
 52188  1  0
 54189  1  0
 54190  1  0
 54191  1  0
 55192  1  0
 56193  1  0
 62194  1  0
 63195  1  0
 64196  1  0
 66197  1  0
 66198  1  0
 67199  1  0
 67200  1  0
 67201  1  0
 68202  1  0
 84203  1  0
 85204  1  0
 86205  1  0
 88206  1  0
 88207  1  0
 89208  1  0
 89209  1  0
 89210  1  0
 90211  1  0
102212  1  0
102213  1  0
103214  1  0
103215  1  0
103216  1  0
104217  1  0
104218  1  0
105219  1  0
105220  1  0
105221  1  0
110222  1  0
111223  1  0
113224  1  0
113225  1  0
113226  1  0
114227  1  0
115228  1  0
117229  1  0
118230  1  0
120231  1  0
120232  1  0
120233  1  0
121234  1  0
122235  1  0
129236  1  0
130237  1  0
132238  1  0
132239  1  0
132240  1  0
133241  1  0
134242  1  0
136243  1  0
137244  1  0
139245  1  0
139246  1  0
139247  1  0
140248  1  0
141249  1  0
144250  1  0
150251  1  0
151252  1  0
M  END

