
     RDKit          3D

215237  0  0  0  0  0  0  0  0999 V2000
    5.8098   -4.1540    3.8919 C   0  0  0  0  0  0  0  0  0  0  0  0
    6.1317   -5.4535    3.7634 C   0  0  0  0  0  0  0  0  0  0  0  0
    5.9081   -6.4898    4.7791 C   0  0  0  0  0  0  0  0  0  0  0  0
    5.2121   -6.3759    5.8232 O   0  0  0  0  0  0  0  0  0  0  0  0
    6.7448   -7.6270    4.4602 C   0  0  0  0  0  0  0  0  0  0  0  0
    6.9480   -8.7863    5.2123 C   0  0  0  0  0  0  0  0  0  0  0  0
    7.8947   -9.7314    4.7631 C   0  0  0  0  0  0  0  0  0  0  0  0
    8.1391  -10.9697    5.5342 C   0  0  0  0  0  0  0  0  0  0  0  0
    8.9442  -11.8424    5.0988 O   0  0  0  0  0  0  0  0  0  0  0  0
    7.4764  -11.1759    6.7503 O   0  0  0  0  0  0  0  0  0  0  0  0
    7.6573  -12.3482    7.5333 C   0  0  0  0  0  0  0  0  0  0  0  0
    8.6192   -9.4689    3.5779 C   0  0  0  0  0  0  0  0  0  0  0  0
    8.4085   -8.2904    2.8488 C   0  0  0  0  0  0  0  0  0  0  0  0
    7.4424   -7.3767    3.2909 C   0  0  0  0  0  0  0  0  0  0  0  0
    7.0374   -6.0555    2.7371 C   0  0  0  0  0  0  0  0  0  0  0  0
    7.2247   -5.6105    1.4654 C   0  0  0  0  0  0  0  0  0  0  0  0
    6.5700   -4.4282    0.9672 C   0  0  0  0  0  0  0  0  0  0  0  0
    6.0380   -3.4839    0.5687 N   0  0  0  0  0  0  0  0  0  0  0  0
    7.9699   -6.3495    0.4796 C   0  0  0  0  0  0  0  0  0  0  0  0
    8.5597   -6.9360   -0.3253 N   0  0  0  0  0  0  0  0  0  0  0  0
    4.7908   -3.6424    4.8296 C   0  0  0  0  0  0  0  0  0  0  0  0
    3.4714   -4.1403    4.7707 C   0  0  0  0  0  0  0  0  0  0  0  0
    2.4889   -3.5077    5.5264 C   0  0  0  0  0  0  0  0  0  0  0  0
    1.0379   -3.6724    5.4848 C   0  0  0  0  0  0  0  0  0  0  0  0
    0.3985   -4.5100    4.8023 O   0  0  0  0  0  0  0  0  0  0  0  0
    0.4764   -2.5909    6.2893 C   0  0  0  0  0  0  0  0  0  0  0  0
    1.5183   -1.8486    6.8107 C   0  0  0  0  0  0  0  0  0  0  0  0
    2.7801   -2.4141    6.3255 C   0  0  0  0  0  0  0  0  0  0  0  0
    4.0748   -1.9077    6.4072 C   0  0  0  0  0  0  0  0  0  0  0  0
    5.0843   -2.5277    5.6505 C   0  0  0  0  0  0  0  0  0  0  0  0
    1.2864   -0.6517    7.4849 C   0  0  0  0  0  0  0  0  0  0  0  0
   -0.0388   -0.1905    7.5854 C   0  0  0  0  0  0  0  0  0  0  0  0
   -1.1075   -0.9160    6.9973 C   0  0  0  0  0  0  0  0  0  0  0  0
   -0.8432   -2.1471    6.3615 C   0  0  0  0  0  0  0  0  0  0  0  0
   -2.4141   -0.2510    6.8054 C   0  0  0  0  0  0  0  0  0  0  0  0
   -3.6794   -0.8749    6.6749 C   0  0  0  0  0  0  0  0  0  0  0  0
   -3.9758   -2.2770    7.0447 C   0  0  0  0  0  0  0  0  0  0  0  0
   -3.5903   -2.7628    8.3013 C   0  0  0  0  0  0  0  0  0  0  0  0
   -3.8840   -4.0800    8.6681 C   0  0  0  0  0  0  0  0  0  0  0  0
   -4.5645   -4.9202    7.7776 C   0  0  0  0  0  0  0  0  0  0  0  0
   -4.9337   -4.4526    6.5069 C   0  0  0  0  0  0  0  0  0  0  0  0
   -5.6781   -5.3408    5.5464 C   0  0  0  0  0  0  0  0  0  0  0  0
   -7.1662   -5.0064    5.5443 C   0  0  0  0  0  0  0  0  0  0  0  0
   -4.6274   -3.1313    6.1396 C   0  0  0  0  0  0  0  0  0  0  0  0
   -4.6056   -0.0005    6.0875 C   0  0  0  0  0  0  0  0  0  0  0  0
   -6.1340   -0.2382    5.3653 S   0  0  0  0  0  0  0  0  0  0  0  0
   -6.1270    1.3253    4.6958 C   0  0  0  0  0  0  0  0  0  0  0  0
   -6.6363    1.8682    3.5460 C   0  0  0  0  0  0  0  0  0  0  0  0
   -7.5170    1.3096    2.6029 C   0  0  0  0  0  0  0  0  0  0  0  0
   -7.5862    1.8793    1.2950 C   0  0  0  0  0  0  0  0  0  0  0  0
   -8.3891    1.2647    0.3921 N   0  0  0  0  0  0  0  0  0  0  0  0
   -8.9546    0.0219    1.3291 S   0  0  0  0  0  0  0  0  0  0  0  0
   -8.2524    0.1925    2.8184 N   0  0  0  0  0  0  0  0  0  0  0  0
   -6.8101    3.0074    1.0142 C   0  0  0  0  0  0  0  0  0  0  0  0
   -6.5309    3.6409   -0.1674 C   0  0  0  0  0  0  0  0  0  0  0  0
   -6.5164    3.1005   -1.7765 S   0  0  0  0  0  0  0  0  0  0  0  0
   -5.1172    3.9960   -2.1271 C   0  0  0  0  0  0  0  0  0  0  0  0
   -4.1509    3.7260   -3.0982 C   0  0  0  0  0  0  0  0  0  0  0  0
   -4.5097    3.7270   -4.5294 C   0  0  0  0  0  0  0  0  0  0  0  0
   -4.7913    2.5376   -5.2135 C   0  0  0  0  0  0  0  0  0  0  0  0
   -5.1856    2.5649   -6.5544 C   0  0  0  0  0  0  0  0  0  0  0  0
   -5.3769    3.7884   -7.2026 C   0  0  0  0  0  0  0  0  0  0  0  0
   -5.1803    4.9936   -6.5083 C   0  0  0  0  0  0  0  0  0  0  0  0
   -5.5026    6.3118   -7.1620 C   0  0  0  0  0  0  0  0  0  0  0  0
   -4.2393    7.0123   -7.6563 C   0  0  0  0  0  0  0  0  0  0  0  0
   -4.7202    4.9581   -5.1804 C   0  0  0  0  0  0  0  0  0  0  0  0
   -2.8608    4.0330   -2.6191 C   0  0  0  0  0  0  0  0  0  0  0  0
   -2.9810    4.6819   -1.0526 S   0  0  0  0  0  0  0  0  0  0  0  0
   -4.6507    4.6101   -0.9866 C   0  0  0  0  0  0  0  0  0  0  0  0
   -5.5008    4.4977    0.1021 C   0  0  0  0  0  0  0  0  0  0  0  0
   -5.1805    4.5586    1.4174 N   0  0  0  0  0  0  0  0  0  0  0  0
   -5.9380    3.5632    1.9585 C   0  0  0  0  0  0  0  0  0  0  0  0
   -5.7832    2.9310    3.2165 C   0  0  0  0  0  0  0  0  0  0  0  0
   -4.7172    2.9830    4.0807 N   0  0  0  0  0  0  0  0  0  0  0  0
   -4.9721    1.9951    4.9756 C   0  0  0  0  0  0  0  0  0  0  0  0
   -4.1193    1.2429    5.7773 C   0  0  0  0  0  0  0  0  0  0  0  0
   -2.5031    1.3347    6.1936 S   0  0  0  0  0  0  0  0  0  0  0  0
   -3.3818    3.5554    3.8497 C   0  0  0  0  0  0  0  0  0  0  0  0
   -2.5885    2.7170    2.8544 C   0  0  0  0  0  0  0  0  0  0  0  0
   -5.1076    5.8831    2.0578 C   0  0  0  0  0  0  0  0  0  0  0  0
   -3.8580    6.6556    1.6404 C   0  0  0  0  0  0  0  0  0  0  0  0
   -1.5735    3.5898   -3.1805 C   0  0  0  0  0  0  0  0  0  0  0  0
   -1.2917    2.3191   -3.7332 C   0  0  0  0  0  0  0  0  0  0  0  0
   -2.1926    1.1917   -3.7235 N   0  0  0  0  0  0  0  0  0  0  0  0
   -2.7613    0.7487   -2.4620 C   0  0  0  0  0  0  0  0  0  0  0  0
   -2.0678    0.9536   -1.2509 C   0  0  0  0  0  0  0  0  0  0  0  0
   -2.6109    0.5277   -0.0379 C   0  0  0  0  0  0  0  0  0  0  0  0
   -3.8677   -0.0880   -0.0014 C   0  0  0  0  0  0  0  0  0  0  0  0
   -4.4481   -0.5230    1.3159 C   0  0  0  0  0  0  0  0  0  0  0  0
   -4.5599   -0.3084   -1.1999 C   0  0  0  0  0  0  0  0  0  0  0  0
   -4.0075    0.0949   -2.4183 C   0  0  0  0  0  0  0  0  0  0  0  0
   -2.2167    0.3474   -4.9022 C   0  0  0  0  0  0  0  0  0  0  0  0
   -2.2109   -1.0569   -4.7936 C   0  0  0  0  0  0  0  0  0  0  0  0
   -2.1330   -1.8576   -5.9391 C   0  0  0  0  0  0  0  0  0  0  0  0
   -2.0311   -1.2698   -7.2090 C   0  0  0  0  0  0  0  0  0  0  0  0
   -1.9291   -2.1295   -8.4312 C   0  0  0  0  0  0  0  0  0  0  0  0
   -2.0536    0.1271   -7.3249 C   0  0  0  0  0  0  0  0  0  0  0  0
   -2.1349    0.9252   -6.1825 C   0  0  0  0  0  0  0  0  0  0  0  0
    0.0844    2.1409   -3.9093 C   0  0  0  0  0  0  0  0  0  0  0  0
    1.0136    0.7739   -4.1805 S   0  0  0  0  0  0  0  0  0  0  0  0
    2.4790    1.5044   -3.7201 C   0  0  0  0  0  0  0  0  0  0  0  0
    2.2140    2.8062   -3.2621 C   0  0  0  0  0  0  0  0  0  0  0  0
    3.0811    3.5319   -2.3768 N   0  0  0  0  0  0  0  0  0  0  0  0
    3.3847    2.9984   -1.0663 C   0  0  0  0  0  0  0  0  0  0  0  0
    4.6551    3.1950   -0.4978 C   0  0  0  0  0  0  0  0  0  0  0  0
    4.9392    2.7132    0.7835 C   0  0  0  0  0  0  0  0  0  0  0  0
    3.9552    2.0355    1.5212 C   0  0  0  0  0  0  0  0  0  0  0  0
    4.2624    1.5230    2.8970 C   0  0  0  0  0  0  0  0  0  0  0  0
    2.6973    1.8080    0.9434 C   0  0  0  0  0  0  0  0  0  0  0  0
    2.4127    2.2889   -0.3385 C   0  0  0  0  0  0  0  0  0  0  0  0
    3.5093    4.8590   -2.7375 C   0  0  0  0  0  0  0  0  0  0  0  0
    4.0521    5.1092   -4.0068 C   0  0  0  0  0  0  0  0  0  0  0  0
    4.5336    6.3843   -4.3283 C   0  0  0  0  0  0  0  0  0  0  0  0
    4.4469    7.4314   -3.3973 C   0  0  0  0  0  0  0  0  0  0  0  0
    5.0222    8.7768   -3.7136 C   0  0  0  0  0  0  0  0  0  0  0  0
    3.8944    7.1836   -2.1314 C   0  0  0  0  0  0  0  0  0  0  0  0
    3.4216    5.9089   -1.8077 C   0  0  0  0  0  0  0  0  0  0  0  0
    0.8722    3.1424   -3.4377 C   0  0  0  0  0  0  0  0  0  0  0  0
   -0.0952    4.3627   -2.8126 S   0  0  0  0  0  0  0  0  0  0  0  0
    3.7490    0.7757   -3.5571 C   0  0  0  0  0  0  0  0  0  0  0  0
    4.2132   -0.1311   -4.4366 C   0  0  0  0  0  0  0  0  0  0  0  0
    3.8270   -0.2363   -5.8530 C   0  0  0  0  0  0  0  0  0  0  0  0
    2.9176    0.4084   -6.4403 O   0  0  0  0  0  0  0  0  0  0  0  0
    4.7786   -1.1002   -6.5149 C   0  0  0  0  0  0  0  0  0  0  0  0
    4.8479   -1.4095   -7.8736 C   0  0  0  0  0  0  0  0  0  0  0  0
    5.9007   -2.2255   -8.3339 C   0  0  0  0  0  0  0  0  0  0  0  0
    6.0023   -2.5624   -9.7708 C   0  0  0  0  0  0  0  0  0  0  0  0
    6.8854   -3.3711  -10.1729 O   0  0  0  0  0  0  0  0  0  0  0  0
    5.1167   -1.9801  -10.6856 O   0  0  0  0  0  0  0  0  0  0  0  0
    5.1260   -2.2858  -12.0715 C   0  0  0  0  0  0  0  0  0  0  0  0
    6.8681   -2.6902   -7.4107 C   0  0  0  0  0  0  0  0  0  0  0  0
    6.7842   -2.3485   -6.0503 C   0  0  0  0  0  0  0  0  0  0  0  0
    5.7110   -1.5638   -5.6036 C   0  0  0  0  0  0  0  0  0  0  0  0
    5.3730   -1.0572   -4.2424 C   0  0  0  0  0  0  0  0  0  0  0  0
    5.8340   -1.5362   -3.0548 C   0  0  0  0  0  0  0  0  0  0  0  0
    5.2116   -1.1943   -1.7997 C   0  0  0  0  0  0  0  0  0  0  0  0
    4.7040   -0.9382   -0.7916 N   0  0  0  0  0  0  0  0  0  0  0  0
    6.8754   -2.5245   -2.9585 C   0  0  0  0  0  0  0  0  0  0  0  0
    7.7124   -3.3175   -2.8644 N   0  0  0  0  0  0  0  0  0  0  0  0
    6.3003   -3.4139    3.2762 H   0  0  0  0  0  0  0  0  0  0  0  0
    6.3879   -8.9440    6.1268 H   0  0  0  0  0  0  0  0  0  0  0  0
    7.0142  -12.2842    8.4324 H   0  0  0  0  0  0  0  0  0  0  0  0
    7.3666  -13.2465    6.9488 H   0  0  0  0  0  0  0  0  0  0  0  0
    8.7166  -12.4357    7.8544 H   0  0  0  0  0  0  0  0  0  0  0  0
    9.3643  -10.1701    3.2187 H   0  0  0  0  0  0  0  0  0  0  0  0
    9.0242   -8.1013    1.9859 H   0  0  0  0  0  0  0  0  0  0  0  0
    3.2071   -4.9426    4.0906 H   0  0  0  0  0  0  0  0  0  0  0  0
    4.2916   -1.0258    6.9949 H   0  0  0  0  0  0  0  0  0  0  0  0
    6.0885   -2.1187    5.6717 H   0  0  0  0  0  0  0  0  0  0  0  0
    2.1055   -0.0512    7.8591 H   0  0  0  0  0  0  0  0  0  0  0  0
   -0.2207    0.7711    8.0501 H   0  0  0  0  0  0  0  0  0  0  0  0
   -1.6148   -2.6867    5.8240 H   0  0  0  0  0  0  0  0  0  0  0  0
   -3.0850   -2.1178    9.0105 H   0  0  0  0  0  0  0  0  0  0  0  0
   -3.5926   -4.4506    9.6418 H   0  0  0  0  0  0  0  0  0  0  0  0
   -4.7947   -5.9359    8.0797 H   0  0  0  0  0  0  0  0  0  0  0  0
   -5.5471   -6.4105    5.8207 H   0  0  0  0  0  0  0  0  0  0  0  0
   -5.2699   -5.2080    4.5196 H   0  0  0  0  0  0  0  0  0  0  0  0
   -7.3277   -3.9358    5.2887 H   0  0  0  0  0  0  0  0  0  0  0  0
   -7.6112   -5.2152    6.5421 H   0  0  0  0  0  0  0  0  0  0  0  0
   -7.6846   -5.6316    4.7855 H   0  0  0  0  0  0  0  0  0  0  0  0
   -4.8850   -2.7804    5.1461 H   0  0  0  0  0  0  0  0  0  0  0  0
   -4.7069    1.5894   -4.7148 H   0  0  0  0  0  0  0  0  0  0  0  0
   -5.3655    1.6382   -7.0833 H   0  0  0  0  0  0  0  0  0  0  0  0
   -5.7051    3.7945   -8.2346 H   0  0  0  0  0  0  0  0  0  0  0  0
   -6.0268    6.9743   -6.4383 H   0  0  0  0  0  0  0  0  0  0  0  0
   -6.1908    6.1627   -8.0210 H   0  0  0  0  0  0  0  0  0  0  0  0
   -4.5193    7.9574   -8.1690 H   0  0  0  0  0  0  0  0  0  0  0  0
   -3.6979    6.3635   -8.3782 H   0  0  0  0  0  0  0  0  0  0  0  0
   -3.5724    7.2586   -6.8018 H   0  0  0  0  0  0  0  0  0  0  0  0
   -4.5605    5.8853   -4.6397 H   0  0  0  0  0  0  0  0  0  0  0  0
   -2.8294    3.6283    4.8051 H   0  0  0  0  0  0  0  0  0  0  0  0
   -3.4359    4.5852    3.4915 H   0  0  0  0  0  0  0  0  0  0  0  0
   -2.5591    1.6547    3.1833 H   0  0  0  0  0  0  0  0  0  0  0  0
   -3.0553    2.7801    1.8465 H   0  0  0  0  0  0  0  0  0  0  0  0
   -1.5435    3.0985    2.7830 H   0  0  0  0  0  0  0  0  0  0  0  0
   -6.0039    6.4793    1.7744 H   0  0  0  0  0  0  0  0  0  0  0  0
   -5.1531    5.8028    3.1622 H   0  0  0  0  0  0  0  0  0  0  0  0
   -3.9359    6.9573    0.5749 H   0  0  0  0  0  0  0  0  0  0  0  0
   -2.9487    6.0345    1.7744 H   0  0  0  0  0  0  0  0  0  0  0  0
   -3.7617    7.5735    2.2609 H   0  0  0  0  0  0  0  0  0  0  0  0
   -1.0937    1.4240   -1.2399 H   0  0  0  0  0  0  0  0  0  0  0  0
   -2.0473    0.6726    0.8734 H   0  0  0  0  0  0  0  0  0  0  0  0
   -4.5377    0.3514    1.9922 H   0  0  0  0  0  0  0  0  0  0  0  0
   -3.7814   -1.2777    1.7817 H   0  0  0  0  0  0  0  0  0  0  0  0
   -5.4565   -0.9765    1.1877 H   0  0  0  0  0  0  0  0  0  0  0  0
   -5.5274   -0.8002   -1.1919 H   0  0  0  0  0  0  0  0  0  0  0  0
   -4.5560   -0.1205   -3.3237 H   0  0  0  0  0  0  0  0  0  0  0  0
   -2.2335   -1.5402   -3.8243 H   0  0  0  0  0  0  0  0  0  0  0  0
   -2.1266   -2.9336   -5.8347 H   0  0  0  0  0  0  0  0  0  0  0  0
   -1.2344   -2.9762   -8.2487 H   0  0  0  0  0  0  0  0  0  0  0  0
   -2.9289   -2.5300   -8.6904 H   0  0  0  0  0  0  0  0  0  0  0  0
   -1.5400   -1.5518   -9.2961 H   0  0  0  0  0  0  0  0  0  0  0  0
   -1.9904    0.5998   -8.2952 H   0  0  0  0  0  0  0  0  0  0  0  0
   -2.1224    2.0027   -6.2956 H   0  0  0  0  0  0  0  0  0  0  0  0
    5.4290    3.7133   -1.0503 H   0  0  0  0  0  0  0  0  0  0  0  0
    5.9220    2.8796    1.2036 H   0  0  0  0  0  0  0  0  0  0  0  0
    4.7435    0.5258    2.8260 H   0  0  0  0  0  0  0  0  0  0  0  0
    3.3336    1.4282    3.5024 H   0  0  0  0  0  0  0  0  0  0  0  0
    4.9463    2.2187    3.4306 H   0  0  0  0  0  0  0  0  0  0  0  0
    1.9336    1.2706    1.4899 H   0  0  0  0  0  0  0  0  0  0  0  0
    1.4283    2.1194   -0.7536 H   0  0  0  0  0  0  0  0  0  0  0  0
    4.1403    4.3075   -4.7297 H   0  0  0  0  0  0  0  0  0  0  0  0
    4.9808    6.5499   -5.2992 H   0  0  0  0  0  0  0  0  0  0  0  0
    5.0206    8.9589   -4.8088 H   0  0  0  0  0  0  0  0  0  0  0  0
    6.0664    8.8270   -3.3401 H   0  0  0  0  0  0  0  0  0  0  0  0
    4.4258    9.5775   -3.2266 H   0  0  0  0  0  0  0  0  0  0  0  0
    3.8354    7.9709   -1.3898 H   0  0  0  0  0  0  0  0  0  0  0  0
    2.9964    5.7386   -0.8247 H   0  0  0  0  0  0  0  0  0  0  0  0
    4.3156    0.9881   -2.6644 H   0  0  0  0  0  0  0  0  0  0  0  0
    4.1078   -1.0137   -8.5571 H   0  0  0  0  0  0  0  0  0  0  0  0
    6.1387   -2.1202  -12.4942 H   0  0  0  0  0  0  0  0  0  0  0  0
    4.4053   -1.6262  -12.5934 H   0  0  0  0  0  0  0  0  0  0  0  0
    4.8220   -3.3393  -12.2258 H   0  0  0  0  0  0  0  0  0  0  0  0
    7.6953   -3.3062   -7.7449 H   0  0  0  0  0  0  0  0  0  0  0  0
    7.5676   -2.6825   -5.3925 H   0  0  0  0  0  0  0  0  0  0  0  0
  1  2  2  3
  2  3  1  0
  3  4  2  0
  3  5  1  0
  5  6  2  0
  6  7  1  0
  7  8  1  0
  8  9  2  0
  8 10  1  0
 10 11  1  0
  7 12  2  0
 12 13  1  0
 13 14  2  0
 14 15  1  0
 15 16  2  3
 16 17  1  0
 17 18  3  0
 16 19  1  0
 19 20  3  0
  1 21  1  0
 21 22  2  0
 22 23  1  0
 23 24  1  0
 24 25  2  0
 24 26  1  0
 26 27  2  0
 27 28  1  0
 28 29  1  0
 29 30  2  0
 27 31  1  0
 31 32  2  0
 32 33  1  0
 33 34  2  0
 33 35  1  0
 35 36  2  0
 36 37  1  0
 37 38  2  0
 38 39  1  0
 39 40  2  0
 40 41  1  0
 41 42  1  0
 42 43  1  0
 41 44  2  0
 36 45  1  0
 45 46  1  0
 46 47  1  0
 47 48  1  0
 48 49  1  0
 49 50  1  0
 50 51  2  0
 51 52  1  0
 52 53  1  0
 50 54  1  0
 54 55  1  0
 55 56  1  0
 56 57  1  0
 57 58  1  0
 58 59  1  0
 59 60  2  0
 60 61  1  0
 61 62  2  0
 62 63  1  0
 63 64  1  0
 64 65  1  0
 63 66  2  0
 58 67  2  0
 67 68  1  0
 68 69  1  0
 69 70  1  0
 70 71  1  0
 71 72  1  0
 72 73  1  0
 73 74  1  0
 74 75  1  0
 75 76  1  0
 76 77  1  0
 74 78  1  0
 78 79  1  0
 71 80  1  0
 80 81  1  0
 67 82  1  0
 82 83  2  0
 83 84  1  0
 84 85  1  0
 85 86  2  0
 86 87  1  0
 87 88  2  0
 88 89  1  0
 88 90  1  0
 90 91  2  0
 84 92  1  0
 92 93  2  0
 93 94  1  0
 94 95  2  0
 95 96  1  0
 95 97  1  0
 97 98  2  0
 83 99  1  0
 99100  1  0
100101  1  0
101102  2  0
102103  1  0
103104  1  0
104105  2  0
105106  1  0
106107  2  0
107108  1  0
107109  1  0
109110  2  0
103111  1  0
111112  2  0
112113  1  0
113114  2  0
114115  1  0
114116  1  0
116117  2  0
102118  1  0
118119  1  0
101120  1  0
120121  2  3
121122  1  0
122123  2  0
122124  1  0
124125  2  0
125126  1  0
126127  1  0
127128  2  0
127129  1  0
129130  1  0
126131  2  0
131132  1  0
132133  2  0
133134  1  0
134135  2  3
135136  1  0
136137  3  0
135138  1  0
138139  3  0
 15  2  1  0
 30 21  1  0
 77 35  1  0
119 82  1  0
134121  1  0
 14  5  1  0
 28 23  2  0
 44 37  1  0
 76 45  2  0
 91 85  1  0
 98 92  1  0
118 99  2  0
133124  1  0
 34 26  1  0
 75 47  2  0
110104  1  0
117111  1  0
 73 48  2  0
 53 49  2  0
 72 54  2  0
 70 55  2  0
 69 57  2  0
 66 59  1  0
  1140  1  0
  6141  1  0
 11142  1  0
 11143  1  0
 11144  1  0
 12145  1  0
 13146  1  0
 22147  1  0
 29148  1  0
 30149  1  0
 31150  1  0
 32151  1  0
 34152  1  0
 38153  1  0
 39154  1  0
 40155  1  0
 42156  1  0
 42157  1  0
 43158  1  0
 43159  1  0
 43160  1  0
 44161  1  0
 60162  1  0
 61163  1  0
 62164  1  0
 64165  1  0
 64166  1  0
 65167  1  0
 65168  1  0
 65169  1  0
 66170  1  0
 78171  1  0
 78172  1  0
 79173  1  0
 79174  1  0
 79175  1  0
 80176  1  0
 80177  1  0
 81178  1  0
 81179  1  0
 81180  1  0
 86181  1  0
 87182  1  0
 89183  1  0
 89184  1  0
 89185  1  0
 90186  1  0
 91187  1  0
 93188  1  0
 94189  1  0
 96190  1  0
 96191  1  0
 96192  1  0
 97193  1  0
 98194  1  0
105195  1  0
106196  1  0
108197  1  0
108198  1  0
108199  1  0
109200  1  0
110201  1  0
112202  1  0
113203  1  0
115204  1  0
115205  1  0
115206  1  0
116207  1  0
117208  1  0
120209  1  0
125210  1  0
130211  1  0
130212  1  0
130213  1  0
131214  1  0
132215  1  0
M  END

