
     RDKit          3D

255280  0  0  0  0  0  0  0  0999 V2000
    1.8635   -6.7908    4.9619 C   0  0  0  0  0  0  0  0  0  0  0  0
    2.4326   -7.7746    5.6837 C   0  0  0  0  0  0  0  0  0  0  0  0
    3.8557   -8.1367    5.7038 C   0  0  0  0  0  0  0  0  0  0  0  0
    4.8296   -7.3771    5.4608 O   0  0  0  0  0  0  0  0  0  0  0  0
    3.9665   -9.4932    6.1918 C   0  0  0  0  0  0  0  0  0  0  0  0
    5.1032  -10.2994    6.2492 C   0  0  0  0  0  0  0  0  0  0  0  0
    4.9699  -11.6310    6.6867 C   0  0  0  0  0  0  0  0  0  0  0  0
    6.1528  -12.5148    6.7522 C   0  0  0  0  0  0  0  0  0  0  0  0
    6.0366  -13.7011    7.1671 O   0  0  0  0  0  0  0  0  0  0  0  0
    7.4013  -12.0375    6.3525 O   0  0  0  0  0  0  0  0  0  0  0  0
    8.5860  -12.8233    6.4236 C   0  0  0  0  0  0  0  0  0  0  0  0
    3.6914  -12.1143    7.0478 C   0  0  0  0  0  0  0  0  0  0  0  0
    2.5598  -11.2823    6.9850 C   0  0  0  0  0  0  0  0  0  0  0  0
    2.7189   -9.9497    6.5732 C   0  0  0  0  0  0  0  0  0  0  0  0
    1.7159   -8.8583    6.4165 C   0  0  0  0  0  0  0  0  0  0  0  0
    0.5104   -8.7687    7.0353 C   0  0  0  0  0  0  0  0  0  0  0  0
   -0.2625   -7.5512    7.0625 C   0  0  0  0  0  0  0  0  0  0  0  0
   -0.8907   -6.5815    7.1005 N   0  0  0  0  0  0  0  0  0  0  0  0
   -0.0266   -9.8323    7.8417 C   0  0  0  0  0  0  0  0  0  0  0  0
   -0.4674  -10.6802    8.4929 N   0  0  0  0  0  0  0  0  0  0  0  0
    2.5739   -5.8380    4.1018 C   0  0  0  0  0  0  0  0  0  0  0  0
    2.2321   -4.4798    3.9898 C   0  0  0  0  0  0  0  0  0  0  0  0
    1.3914   -3.7733    4.9200 N   0  0  0  0  0  0  0  0  0  0  0  0
    0.3775   -2.8855    4.4005 C   0  0  0  0  0  0  0  0  0  0  0  0
   -0.3948   -3.2692    3.2861 C   0  0  0  0  0  0  0  0  0  0  0  0
   -1.3458   -2.3964    2.7477 C   0  0  0  0  0  0  0  0  0  0  0  0
   -1.5489   -1.1324    3.3214 C   0  0  0  0  0  0  0  0  0  0  0  0
   -2.5483   -0.1808    2.7303 C   0  0  0  0  0  0  0  0  0  0  0  0
   -0.7640   -0.7379    4.4140 C   0  0  0  0  0  0  0  0  0  0  0  0
    0.1931   -1.6059    4.9472 C   0  0  0  0  0  0  0  0  0  0  0  0
    1.6905   -3.8314    6.3345 C   0  0  0  0  0  0  0  0  0  0  0  0
    3.0157   -3.9962    6.7820 C   0  0  0  0  0  0  0  0  0  0  0  0
    3.3016   -4.0800    8.1459 C   0  0  0  0  0  0  0  0  0  0  0  0
    2.2687   -3.9891    9.0934 C   0  0  0  0  0  0  0  0  0  0  0  0
    2.5832   -4.1267   10.5516 C   0  0  0  0  0  0  0  0  0  0  0  0
    0.9476   -3.8270    8.6561 C   0  0  0  0  0  0  0  0  0  0  0  0
    0.6588   -3.7487    7.2879 C   0  0  0  0  0  0  0  0  0  0  0  0
    3.0039   -3.8453    3.0266 C   0  0  0  0  0  0  0  0  0  0  0  0
    3.2852   -2.2419    2.6760 S   0  0  0  0  0  0  0  0  0  0  0  0
    4.6340   -2.5465    1.6733 C   0  0  0  0  0  0  0  0  0  0  0  0
    4.8739   -3.9379    1.6393 C   0  0  0  0  0  0  0  0  0  0  0  0
    6.1073   -4.5453    1.2253 N   0  0  0  0  0  0  0  0  0  0  0  0
    6.9469   -5.1450    2.2412 C   0  0  0  0  0  0  0  0  0  0  0  0
    7.4879   -6.4339    2.0666 C   0  0  0  0  0  0  0  0  0  0  0  0
    8.1822   -7.0625    3.1045 C   0  0  0  0  0  0  0  0  0  0  0  0
    8.3367   -6.4224    4.3421 C   0  0  0  0  0  0  0  0  0  0  0  0
    9.0737   -7.1077    5.4549 C   0  0  0  0  0  0  0  0  0  0  0  0
    7.8297   -5.1260    4.5149 C   0  0  0  0  0  0  0  0  0  0  0  0
    7.1388   -4.4943    3.4767 C   0  0  0  0  0  0  0  0  0  0  0  0
    6.2986   -4.8634   -0.1664 C   0  0  0  0  0  0  0  0  0  0  0  0
    7.5754   -4.7676   -0.7439 C   0  0  0  0  0  0  0  0  0  0  0  0
    7.7722   -5.1004   -2.0891 C   0  0  0  0  0  0  0  0  0  0  0  0
    6.6919   -5.5260   -2.8778 C   0  0  0  0  0  0  0  0  0  0  0  0
    6.8957   -5.8596   -4.3245 C   0  0  0  0  0  0  0  0  0  0  0  0
    5.4239   -5.6647   -2.2934 C   0  0  0  0  0  0  0  0  0  0  0  0
    5.2250   -5.3257   -0.9518 C   0  0  0  0  0  0  0  0  0  0  0  0
    3.9223   -4.6239    2.3994 C   0  0  0  0  0  0  0  0  0  0  0  0
    3.8061   -6.2023    2.9709 S   0  0  0  0  0  0  0  0  0  0  0  0
    5.5101   -1.4491    1.2242 C   0  0  0  0  0  0  0  0  0  0  0  0
    5.9233   -1.1418   -0.1003 C   0  0  0  0  0  0  0  0  0  0  0  0
    5.4123   -1.8207   -1.3098 C   0  0  0  0  0  0  0  0  0  0  0  0
    6.2395   -1.9952   -2.4287 C   0  0  0  0  0  0  0  0  0  0  0  0
    5.7164   -2.4991   -3.6230 C   0  0  0  0  0  0  0  0  0  0  0  0
    4.3648   -2.8519   -3.7034 C   0  0  0  0  0  0  0  0  0  0  0  0
    3.5307   -2.7005   -2.5862 C   0  0  0  0  0  0  0  0  0  0  0  0
    2.0644   -3.0222   -2.6774 C   0  0  0  0  0  0  0  0  0  0  0  0
    1.2780   -1.7917   -3.1174 C   0  0  0  0  0  0  0  0  0  0  0  0
    4.0510   -2.1606   -1.4082 C   0  0  0  0  0  0  0  0  0  0  0  0
    6.4705    0.1589   -0.1638 C   0  0  0  0  0  0  0  0  0  0  0  0
    6.6557    1.2276   -1.4800 S   0  0  0  0  0  0  0  0  0  0  0  0
    6.5969    2.6271   -0.5050 C   0  0  0  0  0  0  0  0  0  0  0  0
    5.9044    3.7919   -0.7488 C   0  0  0  0  0  0  0  0  0  0  0  0
    5.8916    4.6879   -1.8260 C   0  0  0  0  0  0  0  0  0  0  0  0
    4.9923    5.8062   -1.7810 C   0  0  0  0  0  0  0  0  0  0  0  0
    5.0151    6.6451   -2.8472 N   0  0  0  0  0  0  0  0  0  0  0  0
    6.2039    5.9250   -3.7503 S   0  0  0  0  0  0  0  0  0  0  0  0
    6.6997    4.5910   -2.9098 N   0  0  0  0  0  0  0  0  0  0  0  0
    4.0624    5.8903   -0.7261 C   0  0  0  0  0  0  0  0  0  0  0  0
    2.8134    6.4613   -0.7355 C   0  0  0  0  0  0  0  0  0  0  0  0
    1.9280    7.3483   -1.8812 S   0  0  0  0  0  0  0  0  0  0  0  0
    0.4576    6.6508   -1.3908 C   0  0  0  0  0  0  0  0  0  0  0  0
   -0.8131    6.6375   -1.9741 C   0  0  0  0  0  0  0  0  0  0  0  0
   -1.4327    7.8393   -2.5854 C   0  0  0  0  0  0  0  0  0  0  0  0
   -0.7181    8.6504   -3.4774 C   0  0  0  0  0  0  0  0  0  0  0  0
   -1.2679    9.8500   -3.9403 C   0  0  0  0  0  0  0  0  0  0  0  0
   -2.5442   10.2423   -3.5330 C   0  0  0  0  0  0  0  0  0  0  0  0
   -3.2855    9.4366   -2.6630 C   0  0  0  0  0  0  0  0  0  0  0  0
   -4.6737    9.8402   -2.2450 C   0  0  0  0  0  0  0  0  0  0  0  0
   -4.6394   10.6501   -0.9562 C   0  0  0  0  0  0  0  0  0  0  0  0
   -2.7144    8.2551   -2.1678 C   0  0  0  0  0  0  0  0  0  0  0  0
   -1.5306    5.4942   -1.5580 C   0  0  0  0  0  0  0  0  0  0  0  0
   -0.6305    4.6511   -0.3799 S   0  0  0  0  0  0  0  0  0  0  0  0
    0.6824    5.6924   -0.4353 C   0  0  0  0  0  0  0  0  0  0  0  0
    2.0099    5.6411    0.0052 C   0  0  0  0  0  0  0  0  0  0  0  0
    2.7081    4.6640    0.6379 N   0  0  0  0  0  0  0  0  0  0  0  0
    4.0049    4.8838    0.2503 C   0  0  0  0  0  0  0  0  0  0  0  0
    5.0806    3.9796    0.3452 C   0  0  0  0  0  0  0  0  0  0  0  0
    5.3676    3.0933    1.3303 N   0  0  0  0  0  0  0  0  0  0  0  0
    6.2899    2.2610    0.7914 C   0  0  0  0  0  0  0  0  0  0  0  0
    6.3575    0.8832    0.9979 C   0  0  0  0  0  0  0  0  0  0  0  0
    5.6816   -0.0637    2.1830 S   0  0  0  0  0  0  0  0  0  0  0  0
    4.9937    3.2039    2.7455 C   0  0  0  0  0  0  0  0  0  0  0  0
    6.2229    3.4855    3.6022 C   0  0  0  0  0  0  0  0  0  0  0  0
    2.1211    3.3899    1.0904 C   0  0  0  0  0  0  0  0  0  0  0  0
    1.3215    3.5723    2.3832 C   0  0  0  0  0  0  0  0  0  0  0  0
   -2.8298    5.0144   -2.0821 C   0  0  0  0  0  0  0  0  0  0  0  0
   -3.3735    5.2182   -3.3737 C   0  0  0  0  0  0  0  0  0  0  0  0
   -2.5927    5.4962   -4.5489 N   0  0  0  0  0  0  0  0  0  0  0  0
   -2.8076    6.7054   -5.3162 C   0  0  0  0  0  0  0  0  0  0  0  0
   -3.9882    7.4658   -5.1826 C   0  0  0  0  0  0  0  0  0  0  0  0
   -4.1626    8.6453   -5.9087 C   0  0  0  0  0  0  0  0  0  0  0  0
   -3.1581    9.0982   -6.7755 C   0  0  0  0  0  0  0  0  0  0  0  0
   -3.2990   10.4277   -7.4596 C   0  0  0  0  0  0  0  0  0  0  0  0
   -1.9797    8.3527   -6.9133 C   0  0  0  0  0  0  0  0  0  0  0  0
   -1.8143    7.1584   -6.2023 C   0  0  0  0  0  0  0  0  0  0  0  0
   -2.0167    4.3365   -5.1901 C   0  0  0  0  0  0  0  0  0  0  0  0
   -1.1400    3.4965   -4.4778 C   0  0  0  0  0  0  0  0  0  0  0  0
   -0.7701    2.2514   -4.9921 C   0  0  0  0  0  0  0  0  0  0  0  0
   -1.2483    1.8309   -6.2411 C   0  0  0  0  0  0  0  0  0  0  0  0
   -0.9724    0.4362   -6.7203 C   0  0  0  0  0  0  0  0  0  0  0  0
   -2.0896    2.6805   -6.9788 C   0  0  0  0  0  0  0  0  0  0  0  0
   -2.4700    3.9239   -6.4564 C   0  0  0  0  0  0  0  0  0  0  0  0
   -4.6224    4.6204   -3.4673 C   0  0  0  0  0  0  0  0  0  0  0  0
   -5.7731    4.4913   -4.6752 S   0  0  0  0  0  0  0  0  0  0  0  0
   -6.8192    3.4789   -3.7742 C   0  0  0  0  0  0  0  0  0  0  0  0
   -6.2022    3.2012   -2.5328 C   0  0  0  0  0  0  0  0  0  0  0  0
   -6.4265    1.9964   -1.7835 N   0  0  0  0  0  0  0  0  0  0  0  0
   -7.4050    1.9777   -0.7209 C   0  0  0  0  0  0  0  0  0  0  0  0
   -8.1294    0.8090   -0.4355 C   0  0  0  0  0  0  0  0  0  0  0  0
   -9.0827    0.7934    0.5855 C   0  0  0  0  0  0  0  0  0  0  0  0
   -9.3128    1.9440    1.3551 C   0  0  0  0  0  0  0  0  0  0  0  0
  -10.3437    1.9339    2.4424 C   0  0  0  0  0  0  0  0  0  0  0  0
   -8.6043    3.1183    1.0633 C   0  0  0  0  0  0  0  0  0  0  0  0
   -7.6579    3.1371    0.0375 C   0  0  0  0  0  0  0  0  0  0  0  0
   -5.5548    0.8659   -2.0364 C   0  0  0  0  0  0  0  0  0  0  0  0
   -5.1143    0.5809   -3.3480 C   0  0  0  0  0  0  0  0  0  0  0  0
   -4.3174   -0.5309   -3.6076 C   0  0  0  0  0  0  0  0  0  0  0  0
   -3.9265   -1.3807   -2.5662 C   0  0  0  0  0  0  0  0  0  0  0  0
   -3.0906   -2.5811   -2.8718 C   0  0  0  0  0  0  0  0  0  0  0  0
   -4.3006   -1.0729   -1.2492 C   0  0  0  0  0  0  0  0  0  0  0  0
   -5.1061    0.0430   -0.9859 C   0  0  0  0  0  0  0  0  0  0  0  0
   -5.0133    3.9021   -2.3928 C   0  0  0  0  0  0  0  0  0  0  0  0
   -3.8539    3.9808   -1.1914 S   0  0  0  0  0  0  0  0  0  0  0  0
   -8.2729    3.6040   -3.9575 C   0  0  0  0  0  0  0  0  0  0  0  0
   -9.1885    2.7410   -3.4886 C   0  0  0  0  0  0  0  0  0  0  0  0
   -9.0494    1.2889   -3.4879 C   0  0  0  0  0  0  0  0  0  0  0  0
   -8.0274    0.6471   -3.8492 O   0  0  0  0  0  0  0  0  0  0  0  0
  -10.3486    0.7032   -3.2015 C   0  0  0  0  0  0  0  0  0  0  0  0
  -11.2870    1.7185   -3.0801 C   0  0  0  0  0  0  0  0  0  0  0  0
  -12.6267    1.3934   -2.7855 C   0  0  0  0  0  0  0  0  0  0  0  0
  -12.9830    0.0515   -2.5942 C   0  0  0  0  0  0  0  0  0  0  0  0
  -12.0240   -0.9690   -2.7090 C   0  0  0  0  0  0  0  0  0  0  0  0
  -12.5857   -2.7747   -2.3978 Br  0  0  0  0  0  0  0  0  0  0  0  0
  -10.6903   -0.6469   -3.0279 C   0  0  0  0  0  0  0  0  0  0  0  0
   -9.4646   -1.9045   -3.1491 Cl  0  0  0  0  0  0  0  0  0  0  0  0
  -10.6208    3.0478   -3.2164 C   0  0  0  0  0  0  0  0  0  0  0  0
  -11.1312    4.2680   -2.9027 C   0  0  0  0  0  0  0  0  0  0  0  0
  -10.2758    5.4023   -2.6445 C   0  0  0  0  0  0  0  0  0  0  0  0
   -9.5913    6.3198   -2.4414 N   0  0  0  0  0  0  0  0  0  0  0  0
  -12.5344    4.5004   -2.7076 C   0  0  0  0  0  0  0  0  0  0  0  0
  -13.6614    4.6998   -2.5147 N   0  0  0  0  0  0  0  0  0  0  0  0
    0.7920   -6.6758    4.9669 H   0  0  0  0  0  0  0  0  0  0  0  0
    6.0618   -9.8980    5.9438 H   0  0  0  0  0  0  0  0  0  0  0  0
    9.4510  -12.2293    6.0534 H   0  0  0  0  0  0  0  0  0  0  0  0
    8.7813  -13.1096    7.4767 H   0  0  0  0  0  0  0  0  0  0  0  0
    8.4776  -13.7349    5.7988 H   0  0  0  0  0  0  0  0  0  0  0  0
    3.5561  -13.1404    7.3806 H   0  0  0  0  0  0  0  0  0  0  0  0
    1.5954  -11.6974    7.2288 H   0  0  0  0  0  0  0  0  0  0  0  0
   -0.2641   -4.2469    2.8398 H   0  0  0  0  0  0  0  0  0  0  0  0
   -1.9225   -2.7081    1.8854 H   0  0  0  0  0  0  0  0  0  0  0  0
   -2.0291    0.5142    2.0390 H   0  0  0  0  0  0  0  0  0  0  0  0
   -3.0436    0.4062    3.5336 H   0  0  0  0  0  0  0  0  0  0  0  0
   -3.3371   -0.7267    2.1719 H   0  0  0  0  0  0  0  0  0  0  0  0
   -0.8911    0.2462    4.8503 H   0  0  0  0  0  0  0  0  0  0  0  0
    0.7956   -1.2695    5.7825 H   0  0  0  0  0  0  0  0  0  0  0  0
    3.8356   -4.0557    6.0759 H   0  0  0  0  0  0  0  0  0  0  0  0
    4.3243   -4.2260    8.4627 H   0  0  0  0  0  0  0  0  0  0  0  0
    2.6101   -5.2027   10.8230 H   0  0  0  0  0  0  0  0  0  0  0  0
    3.5699   -3.6719   10.7821 H   0  0  0  0  0  0  0  0  0  0  0  0
    1.8170   -3.6147   11.1716 H   0  0  0  0  0  0  0  0  0  0  0  0
    0.1337   -3.7725    9.3720 H   0  0  0  0  0  0  0  0  0  0  0  0
   -0.3717   -3.6341    6.9737 H   0  0  0  0  0  0  0  0  0  0  0  0
    7.3394   -6.9715    1.1405 H   0  0  0  0  0  0  0  0  0  0  0  0
    8.5800   -8.0576    2.9507 H   0  0  0  0  0  0  0  0  0  0  0  0
    8.7461   -8.1655    5.5381 H   0  0  0  0  0  0  0  0  0  0  0  0
    8.8820   -6.6125    6.4318 H   0  0  0  0  0  0  0  0  0  0  0  0
   10.1662   -7.0811    5.2499 H   0  0  0  0  0  0  0  0  0  0  0  0
    7.9518   -4.6091    5.4604 H   0  0  0  0  0  0  0  0  0  0  0  0
    6.7361   -3.5017    3.6411 H   0  0  0  0  0  0  0  0  0  0  0  0
    8.4202   -4.4388   -0.1493 H   0  0  0  0  0  0  0  0  0  0  0  0
    8.7643   -5.0173   -2.5181 H   0  0  0  0  0  0  0  0  0  0  0  0
    5.9552   -5.7030   -4.8979 H   0  0  0  0  0  0  0  0  0  0  0  0
    7.2090   -6.9181   -4.4220 H   0  0  0  0  0  0  0  0  0  0  0  0
    7.6756   -5.2037   -4.7661 H   0  0  0  0  0  0  0  0  0  0  0  0
    4.5814   -6.0108   -2.8805 H   0  0  0  0  0  0  0  0  0  0  0  0
    4.2365   -5.4342   -0.5233 H   0  0  0  0  0  0  0  0  0  0  0  0
    7.2866   -1.7269   -2.3825 H   0  0  0  0  0  0  0  0  0  0  0  0
    6.3574   -2.6181   -4.4889 H   0  0  0  0  0  0  0  0  0  0  0  0
    3.9736   -3.2383   -4.6356 H   0  0  0  0  0  0  0  0  0  0  0  0
    1.6884   -3.3675   -1.6871 H   0  0  0  0  0  0  0  0  0  0  0  0
    1.8929   -3.8525   -3.3976 H   0  0  0  0  0  0  0  0  0  0  0  0
    1.5873   -1.4831   -4.1386 H   0  0  0  0  0  0  0  0  0  0  0  0
    0.1971   -2.0276   -3.1258 H   0  0  0  0  0  0  0  0  0  0  0  0
    1.4485   -0.9543   -2.4099 H   0  0  0  0  0  0  0  0  0  0  0  0
    3.3795   -1.9644   -0.5815 H   0  0  0  0  0  0  0  0  0  0  0  0
    0.2572    8.3577   -3.8326 H   0  0  0  0  0  0  0  0  0  0  0  0
   -0.7088   10.4736   -4.6337 H   0  0  0  0  0  0  0  0  0  0  0  0
   -2.9641   11.1614   -3.9203 H   0  0  0  0  0  0  0  0  0  0  0  0
   -5.1469   10.4451   -3.0456 H   0  0  0  0  0  0  0  0  0  0  0  0
   -5.3040    8.9373   -2.0964 H   0  0  0  0  0  0  0  0  0  0  0  0
   -5.6696   10.9709   -0.6842 H   0  0  0  0  0  0  0  0  0  0  0  0
   -4.0046   11.5577   -1.0786 H   0  0  0  0  0  0  0  0  0  0  0  0
   -4.2327   10.0349   -0.1230 H   0  0  0  0  0  0  0  0  0  0  0  0
   -3.2637    7.6698   -1.4403 H   0  0  0  0  0  0  0  0  0  0  0  0
    4.2844    4.0432    2.8894 H   0  0  0  0  0  0  0  0  0  0  0  0
    4.4990    2.2748    3.0930 H   0  0  0  0  0  0  0  0  0  0  0  0
    5.9171    3.6141    4.6624 H   0  0  0  0  0  0  0  0  0  0  0  0
    6.7246    4.4168    3.2604 H   0  0  0  0  0  0  0  0  0  0  0  0
    6.9384    2.6351    3.5396 H   0  0  0  0  0  0  0  0  0  0  0  0
    2.8892    2.6119    1.2482 H   0  0  0  0  0  0  0  0  0  0  0  0
    1.4618    2.9800    0.2943 H   0  0  0  0  0  0  0  0  0  0  0  0
    0.7493    2.6438    2.5954 H   0  0  0  0  0  0  0  0  0  0  0  0
    0.6023    4.4109    2.2845 H   0  0  0  0  0  0  0  0  0  0  0  0
    1.9974    3.7685    3.2369 H   0  0  0  0  0  0  0  0  0  0  0  0
   -4.7722    7.1667   -4.5022 H   0  0  0  0  0  0  0  0  0  0  0  0
   -5.0695    9.2229   -5.7670 H   0  0  0  0  0  0  0  0  0  0  0  0
   -2.8940   11.2208   -6.7984 H   0  0  0  0  0  0  0  0  0  0  0  0
   -4.3669   10.6459   -7.6750 H   0  0  0  0  0  0  0  0  0  0  0  0
   -2.7456   10.4352   -8.4216 H   0  0  0  0  0  0  0  0  0  0  0  0
   -1.1784    8.7037   -7.5514 H   0  0  0  0  0  0  0  0  0  0  0  0
   -0.8908    6.6045   -6.3155 H   0  0  0  0  0  0  0  0  0  0  0  0
   -0.7747    3.7850   -3.5044 H   0  0  0  0  0  0  0  0  0  0  0  0
   -0.1364    1.6013   -4.3986 H   0  0  0  0  0  0  0  0  0  0  0  0
   -0.9990    0.3829   -7.8285 H   0  0  0  0  0  0  0  0  0  0  0  0
   -1.7445   -0.2493   -6.3093 H   0  0  0  0  0  0  0  0  0  0  0  0
    0.0271    0.0951   -6.3779 H   0  0  0  0  0  0  0  0  0  0  0  0
   -2.4869    2.3624   -7.9357 H   0  0  0  0  0  0  0  0  0  0  0  0
   -3.1678    4.5359   -7.0137 H   0  0  0  0  0  0  0  0  0  0  0  0
   -7.9655   -0.0952   -1.0105 H   0  0  0  0  0  0  0  0  0  0  0  0
   -9.6329   -0.1208    0.7835 H   0  0  0  0  0  0  0  0  0  0  0  0
  -10.4814    0.9068    2.8433 H   0  0  0  0  0  0  0  0  0  0  0  0
  -11.3135    2.2993    2.0457 H   0  0  0  0  0  0  0  0  0  0  0  0
  -10.0255    2.5873    3.2839 H   0  0  0  0  0  0  0  0  0  0  0  0
   -8.7749    4.0238    1.6361 H   0  0  0  0  0  0  0  0  0  0  0  0
   -7.1099    4.0519   -0.1609 H   0  0  0  0  0  0  0  0  0  0  0  0
   -5.4136    1.1976   -4.1823 H   0  0  0  0  0  0  0  0  0  0  0  0
   -4.0118   -0.7390   -4.6246 H   0  0  0  0  0  0  0  0  0  0  0  0
   -2.9358   -3.2196   -1.9731 H   0  0  0  0  0  0  0  0  0  0  0  0
   -3.5857   -3.1983   -3.6549 H   0  0  0  0  0  0  0  0  0  0  0  0
   -2.1013   -2.2535   -3.2589 H   0  0  0  0  0  0  0  0  0  0  0  0
   -3.9745   -1.6989   -0.4246 H   0  0  0  0  0  0  0  0  0  0  0  0
   -5.3824    0.2610    0.0397 H   0  0  0  0  0  0  0  0  0  0  0  0
   -8.6050    4.5479   -4.3641 H   0  0  0  0  0  0  0  0  0  0  0  0
  -13.4001    2.1318   -2.6977 H   0  0  0  0  0  0  0  0  0  0  0  0
  -14.0063   -0.1996   -2.3551 H   0  0  0  0  0  0  0  0  0  0  0  0
  1  2  2  3
  2  3  1  0
  3  4  2  0
  3  5  1  0
  5  6  2  0
  6  7  1  0
  7  8  1  0
  8  9  2  0
  8 10  1  0
 10 11  1  0
  7 12  2  0
 12 13  1  0
 13 14  2  0
 14 15  1  0
 15 16  2  3
 16 17  1  0
 17 18  3  0
 16 19  1  0
 19 20  3  0
  1 21  1  0
 21 22  2  0
 22 23  1  0
 23 24  1  0
 24 25  2  0
 25 26  1  0
 26 27  2  0
 27 28  1  0
 27 29  1  0
 29 30  2  0
 23 31  1  0
 31 32  2  0
 32 33  1  0
 33 34  2  0
 34 35  1  0
 34 36  1  0
 36 37  2  0
 22 38  1  0
 38 39  1  0
 39 40  1  0
 40 41  2  0
 41 42  1  0
 42 43  1  0
 43 44  2  0
 44 45  1  0
 45 46  2  0
 46 47  1  0
 46 48  1  0
 48 49  2  0
 42 50  1  0
 50 51  2  0
 51 52  1  0
 52 53  2  0
 53 54  1  0
 53 55  1  0
 55 56  2  0
 41 57  1  0
 57 58  1  0
 40 59  1  0
 59 60  2  0
 60 61  1  0
 61 62  2  0
 62 63  1  0
 63 64  2  0
 64 65  1  0
 65 66  1  0
 66 67  1  0
 65 68  2  0
 60 69  1  0
 69 70  1  0
 70 71  1  0
 71 72  1  0
 72 73  1  0
 73 74  1  0
 74 75  2  0
 75 76  1  0
 76 77  1  0
 74 78  1  0
 78 79  1  0
 79 80  1  0
 80 81  1  0
 81 82  1  0
 82 83  1  0
 83 84  2  0
 84 85  1  0
 85 86  2  0
 86 87  1  0
 87 88  1  0
 88 89  1  0
 87 90  2  0
 82 91  2  0
 91 92  1  0
 92 93  1  0
 93 94  1  0
 94 95  1  0
 95 96  1  0
 96 97  1  0
 97 98  1  0
 98 99  1  0
 99100  1  0
100101  1  0
 98102  1  0
102103  1  0
 95104  1  0
104105  1  0
 91106  1  0
106107  2  0
107108  1  0
108109  1  0
109110  2  0
110111  1  0
111112  2  0
112113  1  0
112114  1  0
114115  2  0
108116  1  0
116117  2  0
117118  1  0
118119  2  0
119120  1  0
119121  1  0
121122  2  0
107123  1  0
123124  1  0
124125  1  0
125126  2  0
126127  1  0
127128  1  0
128129  2  0
129130  1  0
130131  2  0
131132  1  0
131133  1  0
133134  2  0
127135  1  0
135136  2  0
136137  1  0
137138  2  0
138139  1  0
138140  1  0
140141  2  0
126142  1  0
142143  1  0
125144  1  0
144145  2  3
145146  1  0
146147  2  0
146148  1  0
148149  2  0
149150  1  0
150151  2  0
151152  1  0
152153  1  0
152154  2  0
154155  1  0
149156  1  0
156157  2  3
157158  1  0
158159  3  0
157160  1  0
160161  3  0
 15  2  1  0
 58 21  1  0
101 59  1  0
143106  1  0
156145  1  0
 14  5  1  0
 30 24  1  0
 37 31  1  0
 57 38  2  0
 68 61  1  0
100 69  2  0
115109  1  0
122116  1  0
142123  2  0
154148  1  0
 49 43  1  0
 56 50  1  0
 99 71  2  0
134128  1  0
141135  1  0
 97 72  2  0
 77 73  2  0
 96 78  2  0
 94 79  2  0
 93 81  2  0
 90 83  1  0
  1162  1  0
  6163  1  0
 11164  1  0
 11165  1  0
 11166  1  0
 12167  1  0
 13168  1  0
 25169  1  0
 26170  1  0
 28171  1  0
 28172  1  0
 28173  1  0
 29174  1  0
 30175  1  0
 32176  1  0
 33177  1  0
 35178  1  0
 35179  1  0
 35180  1  0
 36181  1  0
 37182  1  0
 44183  1  0
 45184  1  0
 47185  1  0
 47186  1  0
 47187  1  0
 48188  1  0
 49189  1  0
 51190  1  0
 52191  1  0
 54192  1  0
 54193  1  0
 54194  1  0
 55195  1  0
 56196  1  0
 62197  1  0
 63198  1  0
 64199  1  0
 66200  1  0
 66201  1  0
 67202  1  0
 67203  1  0
 67204  1  0
 68205  1  0
 84206  1  0
 85207  1  0
 86208  1  0
 88209  1  0
 88210  1  0
 89211  1  0
 89212  1  0
 89213  1  0
 90214  1  0
102215  1  0
102216  1  0
103217  1  0
103218  1  0
103219  1  0
104220  1  0
104221  1  0
105222  1  0
105223  1  0
105224  1  0
110225  1  0
111226  1  0
113227  1  0
113228  1  0
113229  1  0
114230  1  0
115231  1  0
117232  1  0
118233  1  0
120234  1  0
120235  1  0
120236  1  0
121237  1  0
122238  1  0
129239  1  0
130240  1  0
132241  1  0
132242  1  0
132243  1  0
133244  1  0
134245  1  0
136246  1  0
137247  1  0
139248  1  0
139249  1  0
139250  1  0
140251  1  0
141252  1  0
144253  1  0
150254  1  0
151255  1  0
M  END

