
     RDKit          3D

237261  0  0  0  0  0  0  0  0999 V2000
    7.1754    0.4484   -4.9657 C   0  0  0  0  0  0  0  0  0  0  0  0
    6.6429   -0.5637   -5.6718 C   0  0  0  0  0  0  0  0  0  0  0  0
    6.9311   -0.7313   -7.0991 C   0  0  0  0  0  0  0  0  0  0  0  0
    8.0187   -0.4528   -7.6753 O   0  0  0  0  0  0  0  0  0  0  0  0
    5.7044   -1.1407   -7.7692 C   0  0  0  0  0  0  0  0  0  0  0  0
    5.4387   -1.2179   -9.1360 C   0  0  0  0  0  0  0  0  0  0  0  0
    4.1173   -1.4814   -9.5584 C   0  0  0  0  0  0  0  0  0  0  0  0
    3.7906   -1.5412  -11.0005 C   0  0  0  0  0  0  0  0  0  0  0  0
    2.5982   -1.7452  -11.3706 O   0  0  0  0  0  0  0  0  0  0  0  0
    4.8009   -1.3724  -11.9546 O   0  0  0  0  0  0  0  0  0  0  0  0
    4.5428   -1.3670  -13.3543 C   0  0  0  0  0  0  0  0  0  0  0  0
    3.0990   -1.6439   -8.5875 C   0  0  0  0  0  0  0  0  0  0  0  0
    3.3894   -1.5577   -7.2197 C   0  0  0  0  0  0  0  0  0  0  0  0
    4.7093   -1.3177   -6.8243 C   0  0  0  0  0  0  0  0  0  0  0  0
    5.2721   -1.1022   -5.4740 C   0  0  0  0  0  0  0  0  0  0  0  0
    4.8376   -1.6593   -4.3200 C   0  0  0  0  0  0  0  0  0  0  0  0
    5.7368   -1.8061   -3.2013 C   0  0  0  0  0  0  0  0  0  0  0  0
    6.4639   -1.9577   -2.3150 N   0  0  0  0  0  0  0  0  0  0  0  0
    3.5913   -2.3735   -4.2232 C   0  0  0  0  0  0  0  0  0  0  0  0
    2.5962   -2.9559   -4.1406 N   0  0  0  0  0  0  0  0  0  0  0  0
    6.3078    1.5055   -4.4086 C   0  0  0  0  0  0  0  0  0  0  0  0
    6.5375    2.2899   -3.2624 C   0  0  0  0  0  0  0  0  0  0  0  0
    7.4835    1.9751   -2.2300 N   0  0  0  0  0  0  0  0  0  0  0  0
    7.1407    1.0059   -1.2121 C   0  0  0  0  0  0  0  0  0  0  0  0
    5.8023    0.8106   -0.8171 C   0  0  0  0  0  0  0  0  0  0  0  0
    5.4865   -0.0995    0.1967 C   0  0  0  0  0  0  0  0  0  0  0  0
    6.4938   -0.8476    0.8192 C   0  0  0  0  0  0  0  0  0  0  0  0
    6.1518   -1.7988    1.9289 C   0  0  0  0  0  0  0  0  0  0  0  0
    7.8306   -0.6564    0.4330 C   0  0  0  0  0  0  0  0  0  0  0  0
    8.1472    0.2558   -0.5791 C   0  0  0  0  0  0  0  0  0  0  0  0
    8.6408    2.8250   -2.0865 C   0  0  0  0  0  0  0  0  0  0  0  0
    9.0363    3.2873   -0.8184 C   0  0  0  0  0  0  0  0  0  0  0  0
   10.1506    4.1168   -0.6813 C   0  0  0  0  0  0  0  0  0  0  0  0
   10.8765    4.5197   -1.8109 C   0  0  0  0  0  0  0  0  0  0  0  0
   12.0958    5.3768   -1.6535 C   0  0  0  0  0  0  0  0  0  0  0  0
   10.4858    4.0620   -3.0801 C   0  0  0  0  0  0  0  0  0  0  0  0
    9.3705    3.2311   -3.2175 C   0  0  0  0  0  0  0  0  0  0  0  0
    5.5949    3.3123   -3.1474 C   0  0  0  0  0  0  0  0  0  0  0  0
    5.1309    4.3334   -1.9018 S   0  0  0  0  0  0  0  0  0  0  0  0
    3.6978    4.8642   -2.6670 C   0  0  0  0  0  0  0  0  0  0  0  0
    3.5847    4.2024   -3.9094 C   0  0  0  0  0  0  0  0  0  0  0  0
    2.3916    4.1468   -4.7118 N   0  0  0  0  0  0  0  0  0  0  0  0
    2.1000    5.2123   -5.6428 C   0  0  0  0  0  0  0  0  0  0  0  0
    0.7703    5.4798   -6.0165 C   0  0  0  0  0  0  0  0  0  0  0  0
    0.4819    6.4771   -6.9519 C   0  0  0  0  0  0  0  0  0  0  0  0
    1.5159    7.2348   -7.5194 C   0  0  0  0  0  0  0  0  0  0  0  0
    1.2156    8.3104   -8.5212 C   0  0  0  0  0  0  0  0  0  0  0  0
    2.8432    6.9692   -7.1577 C   0  0  0  0  0  0  0  0  0  0  0  0
    3.1340    5.9702   -6.2251 C   0  0  0  0  0  0  0  0  0  0  0  0
    1.7026    2.8822   -4.8118 C   0  0  0  0  0  0  0  0  0  0  0  0
    1.4030    2.1464   -3.6553 C   0  0  0  0  0  0  0  0  0  0  0  0
    0.7785    0.8979   -3.7490 C   0  0  0  0  0  0  0  0  0  0  0  0
    0.4653    0.3562   -5.0014 C   0  0  0  0  0  0  0  0  0  0  0  0
   -0.2589   -0.9535   -5.0983 C   0  0  0  0  0  0  0  0  0  0  0  0
    0.7632    1.0859   -6.1620 C   0  0  0  0  0  0  0  0  0  0  0  0
    1.3848    2.3341   -6.0702 C   0  0  0  0  0  0  0  0  0  0  0  0
    4.6665    3.3555   -4.1329 C   0  0  0  0  0  0  0  0  0  0  0  0
    4.9511    2.1261   -5.2342 S   0  0  0  0  0  0  0  0  0  0  0  0
    2.5631    5.4044   -1.8991 C   0  0  0  0  0  0  0  0  0  0  0  0
    1.6908    6.4601   -2.2653 C   0  0  0  0  0  0  0  0  0  0  0  0
    2.0022    7.5190   -3.2622 C   0  0  0  0  0  0  0  0  0  0  0  0
    0.9901    8.1224   -4.0284 C   0  0  0  0  0  0  0  0  0  0  0  0
    1.2843    9.1963   -4.8734 C   0  0  0  0  0  0  0  0  0  0  0  0
    2.5954    9.6602   -4.9887 C   0  0  0  0  0  0  0  0  0  0  0  0
    3.6267    9.0469   -4.2655 C   0  0  0  0  0  0  0  0  0  0  0  0
    5.0361    9.5633   -4.3655 C   0  0  0  0  0  0  0  0  0  0  0  0
    5.3110   10.5825   -3.2635 C   0  0  0  0  0  0  0  0  0  0  0  0
    3.3213    7.9896   -3.3913 C   0  0  0  0  0  0  0  0  0  0  0  0
    0.5558    6.4545   -1.4381 C   0  0  0  0  0  0  0  0  0  0  0  0
   -0.9814    7.2152   -1.5033 S   0  0  0  0  0  0  0  0  0  0  0  0
   -1.5723    6.2258   -0.2589 C   0  0  0  0  0  0  0  0  0  0  0  0
   -2.7609    5.8396    0.3013 C   0  0  0  0  0  0  0  0  0  0  0  0
   -4.0726    6.3179    0.1853 C   0  0  0  0  0  0  0  0  0  0  0  0
   -5.1190    5.6267    0.8746 C   0  0  0  0  0  0  0  0  0  0  0  0
   -6.3756    6.1096    0.7272 N   0  0  0  0  0  0  0  0  0  0  0  0
   -6.0625    7.3998   -0.2650 S   0  0  0  0  0  0  0  0  0  0  0  0
   -4.4294    7.4030   -0.5437 N   0  0  0  0  0  0  0  0  0  0  0  0
   -4.7985    4.4704    1.6040 C   0  0  0  0  0  0  0  0  0  0  0  0
   -5.5831    3.4895    2.1513 C   0  0  0  0  0  0  0  0  0  0  0  0
   -7.2278    3.0353    2.1873 S   0  0  0  0  0  0  0  0  0  0  0  0
   -6.8192    1.4363    2.6463 C   0  0  0  0  0  0  0  0  0  0  0  0
   -7.5346    0.2528    2.8917 C   0  0  0  0  0  0  0  0  0  0  0  0
   -9.0024    0.1359    2.8114 C   0  0  0  0  0  0  0  0  0  0  0  0
   -9.6870    0.5808    1.6678 C   0  0  0  0  0  0  0  0  0  0  0  0
  -11.0812    0.4978    1.6046 C   0  0  0  0  0  0  0  0  0  0  0  0
  -11.8035   -0.0211    2.6832 C   0  0  0  0  0  0  0  0  0  0  0  0
  -11.1331   -0.4760    3.8289 C   0  0  0  0  0  0  0  0  0  0  0  0
  -11.9117   -0.9724    5.0179 C   0  0  0  0  0  0  0  0  0  0  0  0
  -12.2909    0.1891    5.9317 C   0  0  0  0  0  0  0  0  0  0  0  0
   -9.7317   -0.3910    3.8884 C   0  0  0  0  0  0  0  0  0  0  0  0
   -6.6420   -0.8066    3.1751 C   0  0  0  0  0  0  0  0  0  0  0  0
   -5.0347   -0.2640    3.0967 S   0  0  0  0  0  0  0  0  0  0  0  0
   -5.4588    1.2968    2.7207 C   0  0  0  0  0  0  0  0  0  0  0  0
   -4.7616    2.4480    2.4335 C   0  0  0  0  0  0  0  0  0  0  0  0
   -3.4771    2.6493    2.0476 N   0  0  0  0  0  0  0  0  0  0  0  0
   -3.4908    3.9555    1.6382 C   0  0  0  0  0  0  0  0  0  0  0  0
   -2.4455    4.7081    1.0686 C   0  0  0  0  0  0  0  0  0  0  0  0
   -1.1036    4.4636    1.0788 N   0  0  0  0  0  0  0  0  0  0  0  0
   -0.6255    5.3751    0.2045 C   0  0  0  0  0  0  0  0  0  0  0  0
    0.5744    5.4947   -0.4567 C   0  0  0  0  0  0  0  0  0  0  0  0
    1.9388    4.5461   -0.5672 S   0  0  0  0  0  0  0  0  0  0  0  0
   -0.3143    3.8385    2.1530 C   0  0  0  0  0  0  0  0  0  0  0  0
    0.4170    4.8886    2.9894 C   0  0  0  0  0  0  0  0  0  0  0  0
   -2.6395    1.5693    1.4921 C   0  0  0  0  0  0  0  0  0  0  0  0
   -3.2101    1.0552    0.1683 C   0  0  0  0  0  0  0  0  0  0  0  0
   -6.9239   -2.2205    3.4224 C   0  0  0  0  0  0  0  0  0  0  0  0
   -6.9899   -2.7024    4.7320 C   0  0  0  0  0  0  0  0  0  0  0  0
   -6.3240   -3.9301    4.9178 C   0  0  0  0  0  0  0  0  0  0  0  0
   -6.0762   -4.5539    6.1572 C   0  0  0  0  0  0  0  0  0  0  0  0
   -6.6218   -4.0345    7.4184 C   0  0  0  0  0  0  0  0  0  0  0  0
   -7.7528   -4.8382    8.3695 S   0  0  0  0  0  0  0  0  0  0  0  0
   -7.7432   -3.7274    9.6316 C   0  0  0  0  0  0  0  0  0  0  0  0
   -8.4889   -3.9101   10.9192 C   0  0  0  0  0  0  0  0  0  0  0  0
   -7.7029   -4.8090   11.8664 C   0  0  0  0  0  0  0  0  0  0  0  0
   -6.8187   -2.7251    9.3391 C   0  0  0  0  0  0  0  0  0  0  0  0
   -6.4312   -1.4113   10.4404 Cl  0  0  0  0  0  0  0  0  0  0  0  0
   -6.1934   -2.8952    8.0939 C   0  0  0  0  0  0  0  0  0  0  0  0
   -4.9383   -1.8210    7.4893 Cl  0  0  0  0  0  0  0  0  0  0  0  0
   -5.1597   -5.6180    6.1641 C   0  0  0  0  0  0  0  0  0  0  0  0
   -4.5000   -6.0446    5.0102 C   0  0  0  0  0  0  0  0  0  0  0  0
   -4.8218   -5.4925    3.7490 C   0  0  0  0  0  0  0  0  0  0  0  0
   -4.1586   -5.9564    2.5098 C   0  0  0  0  0  0  0  0  0  0  0  0
   -3.9526   -7.2871    2.1541 C   0  0  0  0  0  0  0  0  0  0  0  0
   -3.2671   -7.4448    0.9447 C   0  0  0  0  0  0  0  0  0  0  0  0
   -2.9406   -6.2377    0.3401 C   0  0  0  0  0  0  0  0  0  0  0  0
   -2.1762   -6.0709   -0.9351 C   0  0  0  0  0  0  0  0  0  0  0  0
   -0.6867   -5.9136   -0.6518 C   0  0  0  0  0  0  0  0  0  0  0  0
   -3.4684   -4.9787    1.3221 S   0  0  0  0  0  0  0  0  0  0  0  0
   -5.7466   -4.4303    3.7490 C   0  0  0  0  0  0  0  0  0  0  0  0
   -6.1115   -3.3767    2.4982 S   0  0  0  0  0  0  0  0  0  0  0  0
   -3.4085   -6.8874    5.2830 C   0  0  0  0  0  0  0  0  0  0  0  0
   -3.2613   -7.1970    6.6388 C   0  0  0  0  0  0  0  0  0  0  0  0
   -4.4427   -6.3496    7.4942 S   0  0  0  0  0  0  0  0  0  0  0  0
   -2.0746   -7.7783    7.3045 C   0  0  0  0  0  0  0  0  0  0  0  0
   -1.1070   -8.5277    6.7293 C   0  0  0  0  0  0  0  0  0  0  0  0
   -1.0710   -9.0250    5.3533 C   0  0  0  0  0  0  0  0  0  0  0  0
   -2.0579   -9.4241    4.6788 O   0  0  0  0  0  0  0  0  0  0  0  0
    0.3183   -9.1534    4.9573 C   0  0  0  0  0  0  0  0  0  0  0  0
    0.8379   -9.3933    3.6864 C   0  0  0  0  0  0  0  0  0  0  0  0
    2.2392   -9.3733    3.5091 C   0  0  0  0  0  0  0  0  0  0  0  0
    2.8288   -9.6111    2.1733 C   0  0  0  0  0  0  0  0  0  0  0  0
    2.0869   -9.9111    1.1968 O   0  0  0  0  0  0  0  0  0  0  0  0
    4.2123   -9.4997    1.9905 O   0  0  0  0  0  0  0  0  0  0  0  0
    4.8406   -9.7571    0.7403 C   0  0  0  0  0  0  0  0  0  0  0  0
    3.0719   -9.0970    4.6172 C   0  0  0  0  0  0  0  0  0  0  0  0
    2.5216   -8.8541    5.8873 C   0  0  0  0  0  0  0  0  0  0  0  0
    1.1308   -8.9054    6.0486 C   0  0  0  0  0  0  0  0  0  0  0  0
    0.2858   -8.6635    7.2474 C   0  0  0  0  0  0  0  0  0  0  0  0
    0.6580   -8.7957    8.5450 C   0  0  0  0  0  0  0  0  0  0  0  0
   -0.3121   -8.9255    9.6032 C   0  0  0  0  0  0  0  0  0  0  0  0
   -1.0889   -9.0647   10.4464 N   0  0  0  0  0  0  0  0  0  0  0  0
    2.0245   -9.0310    8.9336 C   0  0  0  0  0  0  0  0  0  0  0  0
    3.1170   -9.2231    9.2650 N   0  0  0  0  0  0  0  0  0  0  0  0
    8.2031    0.7321   -5.1531 H   0  0  0  0  0  0  0  0  0  0  0  0
    6.2322   -1.0512   -9.8528 H   0  0  0  0  0  0  0  0  0  0  0  0
    4.0527   -2.3159  -13.6553 H   0  0  0  0  0  0  0  0  0  0  0  0
    3.8862   -0.5107  -13.6126 H   0  0  0  0  0  0  0  0  0  0  0  0
    5.5039   -1.2659  -13.8965 H   0  0  0  0  0  0  0  0  0  0  0  0
    2.0736   -1.8256   -8.8846 H   0  0  0  0  0  0  0  0  0  0  0  0
    2.5867   -1.6382   -6.5047 H   0  0  0  0  0  0  0  0  0  0  0  0
    4.9985    1.3642   -1.2784 H   0  0  0  0  0  0  0  0  0  0  0  0
    4.4507   -0.2240    0.4926 H   0  0  0  0  0  0  0  0  0  0  0  0
    5.1617   -2.2686    1.7451 H   0  0  0  0  0  0  0  0  0  0  0  0
    6.9088   -2.6084    2.0064 H   0  0  0  0  0  0  0  0  0  0  0  0
    6.1175   -1.2411    2.8884 H   0  0  0  0  0  0  0  0  0  0  0  0
    8.6268   -1.2092    0.9143 H   0  0  0  0  0  0  0  0  0  0  0  0
    9.1840    0.3763   -0.8734 H   0  0  0  0  0  0  0  0  0  0  0  0
    8.4781    3.0129    0.0682 H   0  0  0  0  0  0  0  0  0  0  0  0
   10.4448    4.4508    0.3071 H   0  0  0  0  0  0  0  0  0  0  0  0
   12.9806    4.7342   -1.4603 H   0  0  0  0  0  0  0  0  0  0  0  0
   11.9676    6.0793   -0.8024 H   0  0  0  0  0  0  0  0  0  0  0  0
   12.2749    5.9782   -2.5699 H   0  0  0  0  0  0  0  0  0  0  0  0
   11.0471    4.3469   -3.9603 H   0  0  0  0  0  0  0  0  0  0  0  0
    9.0837    2.8960   -4.2044 H   0  0  0  0  0  0  0  0  0  0  0  0
   -0.0449    4.9194   -5.5764 H   0  0  0  0  0  0  0  0  0  0  0  0
   -0.5489    6.6642   -7.2254 H   0  0  0  0  0  0  0  0  0  0  0  0
    1.3849    7.9204   -9.5467 H   0  0  0  0  0  0  0  0  0  0  0  0
    0.1635    8.6559   -8.4340 H   0  0  0  0  0  0  0  0  0  0  0  0
    1.8776    9.1880   -8.3535 H   0  0  0  0  0  0  0  0  0  0  0  0
    3.6543    7.5415   -7.5926 H   0  0  0  0  0  0  0  0  0  0  0  0
    4.1686    5.7802   -5.9707 H   0  0  0  0  0  0  0  0  0  0  0  0
    1.6473    2.5382   -2.6770 H   0  0  0  0  0  0  0  0  0  0  0  0
    0.5407    0.3558   -2.8429 H   0  0  0  0  0  0  0  0  0  0  0  0
    0.1009   -1.6539   -4.3165 H   0  0  0  0  0  0  0  0  0  0  0  0
   -0.0942   -1.4271   -6.0888 H   0  0  0  0  0  0  0  0  0  0  0  0
   -1.3454   -0.7810   -4.9558 H   0  0  0  0  0  0  0  0  0  0  0  0
    0.5245    0.6863   -7.1389 H   0  0  0  0  0  0  0  0  0  0  0  0
    1.6301    2.8662   -6.9804 H   0  0  0  0  0  0  0  0  0  0  0  0
   -0.0247    7.7570   -3.9992 H   0  0  0  0  0  0  0  0  0  0  0  0
    0.4974    9.6594   -5.4550 H   0  0  0  0  0  0  0  0  0  0  0  0
    2.8093   10.4851   -5.6578 H   0  0  0  0  0  0  0  0  0  0  0  0
    5.2021   10.0413   -5.3558 H   0  0  0  0  0  0  0  0  0  0  0  0
    5.7555    8.7194   -4.2797 H   0  0  0  0  0  0  0  0  0  0  0  0
    4.6157   11.4448   -3.3572 H   0  0  0  0  0  0  0  0  0  0  0  0
    5.1827   10.1140   -2.2631 H   0  0  0  0  0  0  0  0  0  0  0  0
    6.3529   10.9519   -3.3536 H   0  0  0  0  0  0  0  0  0  0  0  0
    4.1136    7.5572   -2.7949 H   0  0  0  0  0  0  0  0  0  0  0  0
   -9.1428    0.9835    0.8221 H   0  0  0  0  0  0  0  0  0  0  0  0
  -11.6031    0.8435    0.7214 H   0  0  0  0  0  0  0  0  0  0  0  0
  -12.8829   -0.0625    2.6266 H   0  0  0  0  0  0  0  0  0  0  0  0
  -11.3088   -1.7087    5.5958 H   0  0  0  0  0  0  0  0  0  0  0  0
  -12.8360   -1.4942    4.6831 H   0  0  0  0  0  0  0  0  0  0  0  0
  -11.3787    0.7240    6.2735 H   0  0  0  0  0  0  0  0  0  0  0  0
  -12.8331   -0.1947    6.8220 H   0  0  0  0  0  0  0  0  0  0  0  0
  -12.9509    0.9024    5.3928 H   0  0  0  0  0  0  0  0  0  0  0  0
   -9.2138   -0.7076    4.7829 H   0  0  0  0  0  0  0  0  0  0  0  0
    0.4257    3.1307    1.7190 H   0  0  0  0  0  0  0  0  0  0  0  0
   -0.9732    3.2833    2.8526 H   0  0  0  0  0  0  0  0  0  0  0  0
    1.1956    5.3977    2.3827 H   0  0  0  0  0  0  0  0  0  0  0  0
    0.9151    4.3990    3.8503 H   0  0  0  0  0  0  0  0  0  0  0  0
   -0.3054    5.6414    3.3739 H   0  0  0  0  0  0  0  0  0  0  0  0
   -2.5633    0.7357    2.2185 H   0  0  0  0  0  0  0  0  0  0  0  0
   -1.6154    1.8980    1.2785 H   0  0  0  0  0  0  0  0  0  0  0  0
   -3.2359    1.8757   -0.5801 H   0  0  0  0  0  0  0  0  0  0  0  0
   -2.5678    0.2379   -0.2231 H   0  0  0  0  0  0  0  0  0  0  0  0
   -4.2376    0.6589    0.3031 H   0  0  0  0  0  0  0  0  0  0  0  0
   -7.3388   -2.0935    5.5546 H   0  0  0  0  0  0  0  0  0  0  0  0
   -8.6744   -2.9264   11.4002 H   0  0  0  0  0  0  0  0  0  0  0  0
   -9.4753   -4.3738   10.7059 H   0  0  0  0  0  0  0  0  0  0  0  0
   -7.5047   -5.7929   11.3881 H   0  0  0  0  0  0  0  0  0  0  0  0
   -6.7364   -4.3339   12.1372 H   0  0  0  0  0  0  0  0  0  0  0  0
   -8.2893   -4.9776   12.7923 H   0  0  0  0  0  0  0  0  0  0  0  0
   -4.2846   -8.1242    2.7537 H   0  0  0  0  0  0  0  0  0  0  0  0
   -3.0115   -8.4111    0.5284 H   0  0  0  0  0  0  0  0  0  0  0  0
   -2.5463   -5.1740   -1.4759 H   0  0  0  0  0  0  0  0  0  0  0  0
   -2.3381   -6.9546   -1.5883 H   0  0  0  0  0  0  0  0  0  0  0  0
   -0.1329   -5.8130   -1.6101 H   0  0  0  0  0  0  0  0  0  0  0  0
   -0.2988   -6.8037   -0.1083 H   0  0  0  0  0  0  0  0  0  0  0  0
   -0.5057   -5.0021   -0.0403 H   0  0  0  0  0  0  0  0  0  0  0  0
   -2.6714   -7.1163    4.5328 H   0  0  0  0  0  0  0  0  0  0  0  0
   -1.9192   -7.4248    8.3151 H   0  0  0  0  0  0  0  0  0  0  0  0
    0.1655   -9.5619    2.8508 H   0  0  0  0  0  0  0  0  0  0  0  0
    5.9326   -9.5861    0.8374 H   0  0  0  0  0  0  0  0  0  0  0  0
    4.6698  -10.8131    0.4419 H   0  0  0  0  0  0  0  0  0  0  0  0
    4.4364   -9.0733   -0.0367 H   0  0  0  0  0  0  0  0  0  0  0  0
    4.1469   -9.0548    4.5056 H   0  0  0  0  0  0  0  0  0  0  0  0
    3.1815   -8.5933    6.6964 H   0  0  0  0  0  0  0  0  0  0  0  0
  1  2  2  3
  2  3  1  0
  3  4  2  0
  3  5  1  0
  5  6  2  0
  6  7  1  0
  7  8  1  0
  8  9  2  0
  8 10  1  0
 10 11  1  0
  7 12  2  0
 12 13  1  0
 13 14  2  0
 14 15  1  0
 15 16  2  3
 16 17  1  0
 17 18  3  0
 16 19  1  0
 19 20  3  0
  1 21  1  0
 21 22  2  0
 22 23  1  0
 23 24  1  0
 24 25  2  0
 25 26  1  0
 26 27  2  0
 27 28  1  0
 27 29  1  0
 29 30  2  0
 23 31  1  0
 31 32  2  0
 32 33  1  0
 33 34  2  0
 34 35  1  0
 34 36  1  0
 36 37  2  0
 22 38  1  0
 38 39  1  0
 39 40  1  0
 40 41  2  0
 41 42  1  0
 42 43  1  0
 43 44  2  0
 44 45  1  0
 45 46  2  0
 46 47  1  0
 46 48  1  0
 48 49  2  0
 42 50  1  0
 50 51  2  0
 51 52  1  0
 52 53  2  0
 53 54  1  0
 53 55  1  0
 55 56  2  0
 41 57  1  0
 57 58  1  0
 40 59  1  0
 59 60  2  0
 60 61  1  0
 61 62  2  0
 62 63  1  0
 63 64  2  0
 64 65  1  0
 65 66  1  0
 66 67  1  0
 65 68  2  0
 60 69  1  0
 69 70  1  0
 70 71  1  0
 71 72  1  0
 72 73  1  0
 73 74  1  0
 74 75  2  0
 75 76  1  0
 76 77  1  0
 74 78  1  0
 78 79  1  0
 79 80  1  0
 80 81  1  0
 81 82  1  0
 82 83  1  0
 83 84  2  0
 84 85  1  0
 85 86  2  0
 86 87  1  0
 87 88  1  0
 88 89  1  0
 87 90  2  0
 82 91  2  0
 91 92  1  0
 92 93  1  0
 93 94  1  0
 94 95  1  0
 95 96  1  0
 96 97  1  0
 97 98  1  0
 98 99  1  0
 99100  1  0
100101  1  0
 98102  1  0
102103  1  0
 95104  1  0
104105  1  0
 91106  1  0
106107  2  0
107108  1  0
108109  2  0
109110  1  0
110111  1  0
111112  1  0
112113  1  0
113114  1  0
112115  2  0
115116  1  0
115117  1  0
117118  1  0
109119  1  0
119120  2  0
120121  1  0
121122  1  0
122123  2  0
123124  1  0
124125  2  0
125126  1  0
126127  1  0
125128  1  0
121129  2  0
129130  1  0
120131  1  0
131132  2  0
132133  1  0
132134  1  0
134135  2  3
135136  1  0
136137  2  0
136138  1  0
138139  2  0
139140  1  0
140141  1  0
141142  2  0
141143  1  0
143144  1  0
140145  2  0
145146  1  0
146147  2  0
147148  1  0
148149  2  3
149150  1  0
150151  3  0
149152  1  0
152153  3  0
 15  2  1  0
 58 21  1  0
101 59  1  0
130106  1  0
148135  1  0
 14  5  1  0
 30 24  1  0
 37 31  1  0
 57 38  2  0
 68 61  1  0
100 69  2  0
129108  1  0
147138  1  0
 49 43  1  0
 56 50  1  0
 99 71  2  0
117110  2  0
133119  1  0
 97 72  2  0
128122  1  0
 77 73  2  0
 96 78  2  0
 94 79  2  0
 93 81  2  0
 90 83  1  0
  1154  1  0
  6155  1  0
 11156  1  0
 11157  1  0
 11158  1  0
 12159  1  0
 13160  1  0
 25161  1  0
 26162  1  0
 28163  1  0
 28164  1  0
 28165  1  0
 29166  1  0
 30167  1  0
 32168  1  0
 33169  1  0
 35170  1  0
 35171  1  0
 35172  1  0
 36173  1  0
 37174  1  0
 44175  1  0
 45176  1  0
 47177  1  0
 47178  1  0
 47179  1  0
 48180  1  0
 49181  1  0
 51182  1  0
 52183  1  0
 54184  1  0
 54185  1  0
 54186  1  0
 55187  1  0
 56188  1  0
 62189  1  0
 63190  1  0
 64191  1  0
 66192  1  0
 66193  1  0
 67194  1  0
 67195  1  0
 67196  1  0
 68197  1  0
 84198  1  0
 85199  1  0
 86200  1  0
 88201  1  0
 88202  1  0
 89203  1  0
 89204  1  0
 89205  1  0
 90206  1  0
102207  1  0
102208  1  0
103209  1  0
103210  1  0
103211  1  0
104212  1  0
104213  1  0
105214  1  0
105215  1  0
105216  1  0
107217  1  0
113218  1  0
113219  1  0
114220  1  0
114221  1  0
114222  1  0
123223  1  0
124224  1  0
126225  1  0
126226  1  0
127227  1  0
127228  1  0
127229  1  0
131230  1  0
134231  1  0
139232  1  0
144233  1  0
144234  1  0
144235  1  0
145236  1  0
146237  1  0
M  END

