
     RDKit          3D

188207  0  0  0  0  0  0  0  0999 V2000
   -5.7539    0.9032   -3.0306 C   0  0  0  0  0  0  0  0  0  0  0  0
   -5.3545   -0.3564   -2.7717 C   0  0  0  0  0  0  0  0  0  0  0  0
   -4.0209   -0.8993   -3.0638 C   0  0  0  0  0  0  0  0  0  0  0  0
   -2.9971   -0.2387   -3.3875 O   0  0  0  0  0  0  0  0  0  0  0  0
   -4.0986   -2.3444   -3.0368 C   0  0  0  0  0  0  0  0  0  0  0  0
   -3.1159   -3.2615   -3.4108 C   0  0  0  0  0  0  0  0  0  0  0  0
   -3.4403   -4.6342   -3.4201 C   0  0  0  0  0  0  0  0  0  0  0  0
   -2.5376   -5.6258   -3.8271 O   0  0  0  0  0  0  0  0  0  0  0  0
   -1.1389   -5.5260   -3.8242 C   0  0  0  0  0  0  0  0  0  0  0  0
   -0.5471   -4.6187   -3.1781 O   0  0  0  0  0  0  0  0  0  0  0  0
   -0.3344   -6.5583   -4.5387 C   0  0  0  0  0  0  0  0  0  0  0  0
   -4.7468   -5.0337   -3.0757 C   0  0  0  0  0  0  0  0  0  0  0  0
   -5.7260   -4.0925   -2.7263 C   0  0  0  0  0  0  0  0  0  0  0  0
   -5.3831   -2.7318   -2.6930 C   0  0  0  0  0  0  0  0  0  0  0  0
   -6.2181   -1.5256   -2.4228 C   0  0  0  0  0  0  0  0  0  0  0  0
   -7.4185   -1.4885   -1.7853 C   0  0  0  0  0  0  0  0  0  0  0  0
   -8.0392   -0.2501   -1.3789 C   0  0  0  0  0  0  0  0  0  0  0  0
   -8.5468    0.7331   -1.0442 N   0  0  0  0  0  0  0  0  0  0  0  0
   -8.1070   -2.6787   -1.3509 C   0  0  0  0  0  0  0  0  0  0  0  0
   -8.6731   -3.6225   -0.9943 N   0  0  0  0  0  0  0  0  0  0  0  0
   -4.8150    1.9979   -3.3334 C   0  0  0  0  0  0  0  0  0  0  0  0
   -3.9083    2.4236   -2.3528 C   0  0  0  0  0  0  0  0  0  0  0  0
   -3.0234    3.4688   -2.6157 C   0  0  0  0  0  0  0  0  0  0  0  0
   -3.0220    4.1092   -3.8656 C   0  0  0  0  0  0  0  0  0  0  0  0
   -3.9192    3.6799   -4.8561 C   0  0  0  0  0  0  0  0  0  0  0  0
   -3.9348    4.2648   -6.0816 N   0  0  0  0  0  0  0  0  0  0  0  0
   -4.8310    3.9027   -7.0385 C   0  0  0  0  0  0  0  0  0  0  0  0
   -4.8161    4.6322   -8.3190 C   0  0  0  0  0  0  0  0  0  0  0  0
   -5.9389    5.3573   -8.7422 C   0  0  0  0  0  0  0  0  0  0  0  0
   -5.8985    6.0777   -9.9394 C   0  0  0  0  0  0  0  0  0  0  0  0
   -4.7302    6.0866  -10.7107 C   0  0  0  0  0  0  0  0  0  0  0  0
   -3.6096    5.3666  -10.2946 C   0  0  0  0  0  0  0  0  0  0  0  0
   -3.6435    4.6553   -9.0904 C   0  0  0  0  0  0  0  0  0  0  0  0
   -5.7783    2.8925   -6.7478 C   0  0  0  0  0  0  0  0  0  0  0  0
   -5.7456    2.2956   -5.5264 N   0  0  0  0  0  0  0  0  0  0  0  0
   -4.8396    2.6502   -4.5768 C   0  0  0  0  0  0  0  0  0  0  0  0
   -6.8173    2.4687   -7.7067 C   0  0  0  0  0  0  0  0  0  0  0  0
   -8.1669    2.4862   -7.3152 C   0  0  0  0  0  0  0  0  0  0  0  0
   -9.1682    2.1321   -8.2225 C   0  0  0  0  0  0  0  0  0  0  0  0
   -8.8291    1.7362   -9.5180 C   0  0  0  0  0  0  0  0  0  0  0  0
   -7.4849    1.6849   -9.9060 C   0  0  0  0  0  0  0  0  0  0  0  0
   -6.4787    2.0455   -9.0030 C   0  0  0  0  0  0  0  0  0  0  0  0
   -2.0989    5.2324   -4.0815 C   0  0  0  0  0  0  0  0  0  0  0  0
   -2.0208    6.5263   -3.0023 S   0  0  0  0  0  0  0  0  0  0  0  0
   -0.4132    6.9070   -3.2849 C   0  0  0  0  0  0  0  0  0  0  0  0
    0.5789    7.0609   -2.2369 C   0  0  0  0  0  0  0  0  0  0  0  0
    1.6967    6.3054   -2.5961 C   0  0  0  0  0  0  0  0  0  0  0  0
    1.5423    5.7428   -3.9815 C   0  0  0  0  0  0  0  0  0  0  0  0
    0.0870    6.0281   -4.2255 C   0  0  0  0  0  0  0  0  0  0  0  0
   -0.8460    5.0822   -4.6755 C   0  0  0  0  0  0  0  0  0  0  0  0
    2.4307    6.4805   -4.9832 C   0  0  0  0  0  0  0  0  0  0  0  0
    2.5454    5.7763   -1.6156 C   0  0  0  0  0  0  0  0  0  0  0  0
    2.1991    5.9891   -0.2744 C   0  0  0  0  0  0  0  0  0  0  0  0
    2.6002    5.2376    0.9089 C   0  0  0  0  0  0  0  0  0  0  0  0
    1.8067    5.5544    1.9142 C   0  0  0  0  0  0  0  0  0  0  0  0
    0.7678    6.5952    1.5508 C   0  0  0  0  0  0  0  0  0  0  0  0
   -0.6959    6.0915    1.7414 C   0  0  0  0  0  0  0  0  0  0  0  0
   -1.0282    4.7813    1.0192 C   0  0  0  0  0  0  0  0  0  0  0  0
    0.9854    7.9084    2.3476 C   0  0  0  0  0  0  0  0  0  0  0  0
    2.4050    8.4867    2.2416 C   0  0  0  0  0  0  0  0  0  0  0  0
    1.1049    6.7754    0.0820 C   0  0  0  0  0  0  0  0  0  0  0  0
    0.2894    7.3524   -0.8977 C   0  0  0  0  0  0  0  0  0  0  0  0
    1.8497    4.5012    2.9135 C   0  0  0  0  0  0  0  0  0  0  0  0
    2.7186    3.5186    2.4387 C   0  0  0  0  0  0  0  0  0  0  0  0
    3.3443    3.9294    1.1226 C   0  0  0  0  0  0  0  0  0  0  0  0
    4.8571    4.1895    1.3490 C   0  0  0  0  0  0  0  0  0  0  0  0
    5.5716    4.8612    0.1741 C   0  0  0  0  0  0  0  0  0  0  0  0
    3.0969    2.8485    0.0253 C   0  0  0  0  0  0  0  0  0  0  0  0
    1.6200    2.5286   -0.2421 C   0  0  0  0  0  0  0  0  0  0  0  0
    2.8344    2.2846    3.0965 C   0  0  0  0  0  0  0  0  0  0  0  0
    2.0314    2.0998    4.2237 C   0  0  0  0  0  0  0  0  0  0  0  0
    1.8108    0.9299    5.0153 C   0  0  0  0  0  0  0  0  0  0  0  0
    0.8926    1.1619    5.9814 C   0  0  0  0  0  0  0  0  0  0  0  0
    0.3846    2.5776    5.9218 C   0  0  0  0  0  0  0  0  0  0  0  0
    1.1832    3.0872    4.7269 C   0  0  0  0  0  0  0  0  0  0  0  0
    1.0724    4.3214    4.0714 C   0  0  0  0  0  0  0  0  0  0  0  0
    0.7172    3.3451    7.2023 C   0  0  0  0  0  0  0  0  0  0  0  0
    0.6157    0.0511    6.7825 C   0  0  0  0  0  0  0  0  0  0  0  0
    1.3435   -1.0684    6.3412 C   0  0  0  0  0  0  0  0  0  0  0  0
    2.3315   -0.6514    5.0128 S   0  0  0  0  0  0  0  0  0  0  0  0
    1.4508   -2.3801    6.9999 C   0  0  0  0  0  0  0  0  0  0  0  0
    1.8436   -2.4414    8.3446 C   0  0  0  0  0  0  0  0  0  0  0  0
    2.4927   -3.5805    8.8330 C   0  0  0  0  0  0  0  0  0  0  0  0
    2.7746   -4.6562    7.9757 C   0  0  0  0  0  0  0  0  0  0  0  0
    2.2358   -4.6647    6.6769 C   0  0  0  0  0  0  0  0  0  0  0  0
    2.4909   -5.6861    5.8164 N   0  0  0  0  0  0  0  0  0  0  0  0
    2.0411   -5.6844    4.5304 C   0  0  0  0  0  0  0  0  0  0  0  0
    2.5153   -6.7642    3.6302 C   0  0  0  0  0  0  0  0  0  0  0  0
    2.5624   -8.0907    4.0942 C   0  0  0  0  0  0  0  0  0  0  0  0
    3.0422   -9.1110    3.2660 C   0  0  0  0  0  0  0  0  0  0  0  0
    3.4743   -8.8163    1.9704 C   0  0  0  0  0  0  0  0  0  0  0  0
    3.4582   -7.4981    1.5103 C   0  0  0  0  0  0  0  0  0  0  0  0
    2.9960   -6.4730    2.3410 C   0  0  0  0  0  0  0  0  0  0  0  0
    1.2394   -4.5975    4.0928 C   0  0  0  0  0  0  0  0  0  0  0  0
    1.0553   -3.5496    4.9381 N   0  0  0  0  0  0  0  0  0  0  0  0
    1.5442   -3.5385    6.2052 C   0  0  0  0  0  0  0  0  0  0  0  0
    0.5582   -4.5412    2.7733 C   0  0  0  0  0  0  0  0  0  0  0  0
   -0.0918   -5.6706    2.2356 C   0  0  0  0  0  0  0  0  0  0  0  0
   -0.7833   -5.5774    1.0240 C   0  0  0  0  0  0  0  0  0  0  0  0
   -0.8630   -4.3571    0.3548 C   0  0  0  0  0  0  0  0  0  0  0  0
   -0.2382   -3.2262    0.8849 C   0  0  0  0  0  0  0  0  0  0  0  0
    0.4667   -3.3141    2.0901 C   0  0  0  0  0  0  0  0  0  0  0  0
    3.8769   -5.5736    8.3212 C   0  0  0  0  0  0  0  0  0  0  0  0
    5.1560   -5.2607    8.0217 C   0  0  0  0  0  0  0  0  0  0  0  0
    5.5778   -4.0753    7.2599 C   0  0  0  0  0  0  0  0  0  0  0  0
    4.8833   -3.0521    7.0098 O   0  0  0  0  0  0  0  0  0  0  0  0
    6.9291   -4.2767    6.8053 C   0  0  0  0  0  0  0  0  0  0  0  0
    7.6717   -3.4673    5.9492 C   0  0  0  0  0  0  0  0  0  0  0  0
    8.9440   -3.8987    5.5598 C   0  0  0  0  0  0  0  0  0  0  0  0
    9.4418   -5.1316    6.0157 C   0  0  0  0  0  0  0  0  0  0  0  0
   11.3443   -5.7823    5.3781 I   0  0  0  0  0  0  0  0  0  0  0  0
    8.6713   -5.9413    6.8726 C   0  0  0  0  0  0  0  0  0  0  0  0
    7.4054   -5.4862    7.2838 C   0  0  0  0  0  0  0  0  0  0  0  0
    6.3726   -6.1225    8.1548 C   0  0  0  0  0  0  0  0  0  0  0  0
    6.5636   -7.1262    9.0492 C   0  0  0  0  0  0  0  0  0  0  0  0
    7.8222   -7.8139    9.1863 C   0  0  0  0  0  0  0  0  0  0  0  0
    8.8287   -8.3744    9.3128 N   0  0  0  0  0  0  0  0  0  0  0  0
    5.5647   -7.4915   10.0194 C   0  0  0  0  0  0  0  0  0  0  0  0
    4.7673   -7.7874   10.8027 N   0  0  0  0  0  0  0  0  0  0  0  0
   -6.8020    1.1450   -3.0788 H   0  0  0  0  0  0  0  0  0  0  0  0
   -2.1548   -2.9018   -3.7464 H   0  0  0  0  0  0  0  0  0  0  0  0
   -1.0064   -7.2612   -5.0726 H   0  0  0  0  0  0  0  0  0  0  0  0
    0.2725   -7.1318   -3.8062 H   0  0  0  0  0  0  0  0  0  0  0  0
    0.3414   -6.0752   -5.2764 H   0  0  0  0  0  0  0  0  0  0  0  0
   -5.0136   -6.0821   -3.1091 H   0  0  0  0  0  0  0  0  0  0  0  0
   -6.7258   -4.4425   -2.5301 H   0  0  0  0  0  0  0  0  0  0  0  0
   -3.8933    1.9510   -1.3760 H   0  0  0  0  0  0  0  0  0  0  0  0
   -2.3286    3.7759   -1.8432 H   0  0  0  0  0  0  0  0  0  0  0  0
   -6.8386    5.3743   -8.1406 H   0  0  0  0  0  0  0  0  0  0  0  0
   -6.7678    6.6313  -10.2670 H   0  0  0  0  0  0  0  0  0  0  0  0
   -4.7029    6.6399  -11.6412 H   0  0  0  0  0  0  0  0  0  0  0  0
   -2.7057    5.3704  -10.8919 H   0  0  0  0  0  0  0  0  0  0  0  0
   -2.7615    4.1124   -8.7665 H   0  0  0  0  0  0  0  0  0  0  0  0
   -8.4445    2.8013   -6.3139 H   0  0  0  0  0  0  0  0  0  0  0  0
  -10.2084    2.1660   -7.9207 H   0  0  0  0  0  0  0  0  0  0  0  0
   -9.6083    1.4683  -10.2174 H   0  0  0  0  0  0  0  0  0  0  0  0
   -7.2222    1.3721  -10.9092 H   0  0  0  0  0  0  0  0  0  0  0  0
   -5.4421    2.0047   -9.3147 H   0  0  0  0  0  0  0  0  0  0  0  0
    1.7472    4.6503   -3.9946 H   0  0  0  0  0  0  0  0  0  0  0  0
   -0.5564    4.1857   -5.2090 H   0  0  0  0  0  0  0  0  0  0  0  0
    2.2508    7.5765   -4.9455 H   0  0  0  0  0  0  0  0  0  0  0  0
    3.5007    6.2834   -4.7528 H   0  0  0  0  0  0  0  0  0  0  0  0
    2.2183    6.1150   -6.0100 H   0  0  0  0  0  0  0  0  0  0  0  0
    3.3411    5.1065   -1.8991 H   0  0  0  0  0  0  0  0  0  0  0  0
   -1.4035    6.8682    1.3826 H   0  0  0  0  0  0  0  0  0  0  0  0
   -0.9227    5.9657    2.8181 H   0  0  0  0  0  0  0  0  0  0  0  0
   -0.4283    3.9465    1.4319 H   0  0  0  0  0  0  0  0  0  0  0  0
   -2.1006    4.5372    1.1713 H   0  0  0  0  0  0  0  0  0  0  0  0
   -0.8433    4.8698   -0.0706 H   0  0  0  0  0  0  0  0  0  0  0  0
    0.2674    8.6786    1.9873 H   0  0  0  0  0  0  0  0  0  0  0  0
    0.7659    7.7252    3.4206 H   0  0  0  0  0  0  0  0  0  0  0  0
    2.6721    8.6992    1.1865 H   0  0  0  0  0  0  0  0  0  0  0  0
    2.4618    9.4370    2.8108 H   0  0  0  0  0  0  0  0  0  0  0  0
    3.1484    7.7811    2.6717 H   0  0  0  0  0  0  0  0  0  0  0  0
   -0.6414    7.8335   -0.6287 H   0  0  0  0  0  0  0  0  0  0  0  0
    5.3737    3.2290    1.5726 H   0  0  0  0  0  0  0  0  0  0  0  0
    4.9908    4.8454    2.2390 H   0  0  0  0  0  0  0  0  0  0  0  0
    6.6191    5.0926    0.4695 H   0  0  0  0  0  0  0  0  0  0  0  0
    5.6153    4.1910   -0.7085 H   0  0  0  0  0  0  0  0  0  0  0  0
    5.0824    5.8188   -0.1036 H   0  0  0  0  0  0  0  0  0  0  0  0
    3.6031    1.9075    0.3231 H   0  0  0  0  0  0  0  0  0  0  0  0
    3.5643    3.1401   -0.9300 H   0  0  0  0  0  0  0  0  0  0  0  0
    1.1170    2.1598    0.6785 H   0  0  0  0  0  0  0  0  0  0  0  0
    1.5532    1.7322   -1.0162 H   0  0  0  0  0  0  0  0  0  0  0  0
    1.0851    3.4193   -0.6286 H   0  0  0  0  0  0  0  0  0  0  0  0
    3.4626    1.4903    2.7144 H   0  0  0  0  0  0  0  0  0  0  0  0
   -0.7034    2.5956    5.7038 H   0  0  0  0  0  0  0  0  0  0  0  0
    0.3934    5.0830    4.4263 H   0  0  0  0  0  0  0  0  0  0  0  0
    0.1611    2.9052    8.0593 H   0  0  0  0  0  0  0  0  0  0  0  0
    0.4151    4.4081    7.1007 H   0  0  0  0  0  0  0  0  0  0  0  0
    1.8068    3.2998    7.4153 H   0  0  0  0  0  0  0  0  0  0  0  0
   -0.0603    0.0600    7.6293 H   0  0  0  0  0  0  0  0  0  0  0  0
    1.7865   -1.5619    8.9717 H   0  0  0  0  0  0  0  0  0  0  0  0
    2.9085   -3.5597    9.8338 H   0  0  0  0  0  0  0  0  0  0  0  0
    2.2352   -8.3347    5.0970 H   0  0  0  0  0  0  0  0  0  0  0  0
    3.0761  -10.1284    3.6307 H   0  0  0  0  0  0  0  0  0  0  0  0
    3.8430   -9.6072    1.3284 H   0  0  0  0  0  0  0  0  0  0  0  0
    3.8089   -7.2698    0.5125 H   0  0  0  0  0  0  0  0  0  0  0  0
    3.0273   -5.4528    1.9790 H   0  0  0  0  0  0  0  0  0  0  0  0
   -0.0860   -6.6138    2.7659 H   0  0  0  0  0  0  0  0  0  0  0  0
   -1.2732   -6.4508    0.6160 H   0  0  0  0  0  0  0  0  0  0  0  0
   -1.4204   -4.2835   -0.5703 H   0  0  0  0  0  0  0  0  0  0  0  0
   -0.3095   -2.2755    0.3669 H   0  0  0  0  0  0  0  0  0  0  0  0
    0.9369   -2.4210    2.4917 H   0  0  0  0  0  0  0  0  0  0  0  0
    3.6113   -6.5437    8.7123 H   0  0  0  0  0  0  0  0  0  0  0  0
    7.2669   -2.5362    5.5740 H   0  0  0  0  0  0  0  0  0  0  0  0
    9.5332   -3.2873    4.8889 H   0  0  0  0  0  0  0  0  0  0  0  0
    9.0579   -6.9025    7.1640 H   0  0  0  0  0  0  0  0  0  0  0  0
  1  2  2  3
  2  3  1  0
  3  4  2  0
  3  5  1  0
  5  6  2  0
  6  7  1  0
  7  8  1  0
  8  9  1  0
  9 10  2  0
  9 11  1  0
  7 12  2  0
 12 13  1  0
 13 14  2  0
 14 15  1  0
 15 16  2  3
 16 17  1  0
 17 18  3  0
 16 19  1  0
 19 20  3  0
  1 21  1  0
 21 22  2  0
 22 23  1  0
 23 24  2  0
 24 25  1  0
 25 26  2  0
 26 27  1  0
 27 28  1  0
 28 29  2  0
 29 30  1  0
 30 31  2  0
 31 32  1  0
 32 33  2  0
 27 34  2  0
 34 35  1  0
 35 36  2  0
 34 37  1  0
 37 38  2  0
 38 39  1  0
 39 40  2  0
 40 41  1  0
 41 42  2  0
 24 43  1  0
 43 44  1  0
 44 45  1  0
 45 46  1  0
 46 47  2  0
 47 48  1  0
 48 49  1  0
 49 50  1  0
 48 51  1  0
 47 52  1  0
 52 53  2  0
 53 54  1  0
 54 55  2  0
 55 56  1  0
 56 57  1  0
 57 58  1  0
 56 59  1  0
 59 60  1  0
 56 61  1  0
 61 62  2  0
 55 63  1  0
 63 64  2  0
 64 65  1  0
 65 66  1  0
 66 67  1  0
 65 68  1  0
 68 69  1  0
 64 70  1  0
 70 71  2  0
 71 72  1  0
 72 73  2  0
 73 74  1  0
 74 75  1  0
 75 76  2  0
 74 77  1  0
 73 78  1  0
 78 79  2  0
 79 80  1  0
 79 81  1  0
 81 82  2  0
 82 83  1  0
 83 84  2  0
 84 85  1  0
 85 86  2  0
 86 87  1  0
 87 88  1  0
 88 89  2  0
 89 90  1  0
 90 91  2  0
 91 92  1  0
 92 93  2  0
 87 94  2  0
 94 95  1  0
 95 96  2  0
 94 97  1  0
 97 98  2  0
 98 99  1  0
 99100  2  0
100101  1  0
101102  2  0
 84103  1  0
103104  2  3
104105  1  0
105106  2  0
105107  1  0
107108  2  0
108109  1  0
109110  2  0
110111  1  0
110112  1  0
112113  2  0
113114  1  0
114115  2  3
115116  1  0
116117  3  0
115118  1  0
118119  3  0
 15  2  1  0
 36 21  1  0
 42 37  1  0
 50 43  2  0
 61 53  1  0
 76 63  1  0
 96 81  1  0
102 97  1  0
114104  1  0
 14  5  1  0
 36 25  1  0
 49 45  2  0
 65 54  1  0
 75 71  1  0
 96 85  1  0
113107  1  0
 33 28  1  0
 62 46  1  0
 80 72  1  0
 93 88  1  0
  1120  1  0
  6121  1  0
 11122  1  0
 11123  1  0
 11124  1  0
 12125  1  0
 13126  1  0
 22127  1  0
 23128  1  0
 29129  1  0
 30130  1  0
 31131  1  0
 32132  1  0
 33133  1  0
 38134  1  0
 39135  1  0
 40136  1  0
 41137  1  0
 42138  1  0
 48139  1  0
 50140  1  0
 51141  1  0
 51142  1  0
 51143  1  0
 52144  1  0
 57145  1  0
 57146  1  0
 58147  1  0
 58148  1  0
 58149  1  0
 59150  1  0
 59151  1  0
 60152  1  0
 60153  1  0
 60154  1  0
 62155  1  0
 66156  1  0
 66157  1  0
 67158  1  0
 67159  1  0
 67160  1  0
 68161  1  0
 68162  1  0
 69163  1  0
 69164  1  0
 69165  1  0
 70166  1  0
 74167  1  0
 76168  1  0
 77169  1  0
 77170  1  0
 77171  1  0
 78172  1  0
 82173  1  0
 83174  1  0
 89175  1  0
 90176  1  0
 91177  1  0
 92178  1  0
 93179  1  0
 98180  1  0
 99181  1  0
100182  1  0
101183  1  0
102184  1  0
103185  1  0
108186  1  0
109187  1  0
112188  1  0
M  END

