
     RDKit          3D

149164  0  0  0  0  0  0  0  0999 V2000
    1.0521    0.1340    9.9947 C   0  0  0  0  0  0  0  0  0  0  0  0
   -0.0796    0.7740    9.6202 C   0  0  0  0  0  0  0  0  0  0  0  0
   -0.2381    1.5660    8.3886 C   0  0  0  0  0  0  0  0  0  0  0  0
    0.6831    2.0104    7.6523 O   0  0  0  0  0  0  0  0  0  0  0  0
   -1.6423    1.7349    8.1203 C   0  0  0  0  0  0  0  0  0  0  0  0
   -2.2248    2.2922    6.9849 C   0  0  0  0  0  0  0  0  0  0  0  0
   -3.6276    2.2608    6.8598 C   0  0  0  0  0  0  0  0  0  0  0  0
   -4.2773    2.7957    5.7322 O   0  0  0  0  0  0  0  0  0  0  0  0
   -3.7590    3.8197    4.9282 C   0  0  0  0  0  0  0  0  0  0  0  0
   -2.9486    4.6623    5.4042 O   0  0  0  0  0  0  0  0  0  0  0  0
   -4.2543    3.9836    3.5302 C   0  0  0  0  0  0  0  0  0  0  0  0
   -4.3942    1.6289    7.8575 C   0  0  0  0  0  0  0  0  0  0  0  0
   -3.7803    1.0553    8.9876 C   0  0  0  0  0  0  0  0  0  0  0  0
   -2.3836    1.1402    9.1216 C   0  0  0  0  0  0  0  0  0  0  0  0
   -1.4631    0.6020   10.1712 C   0  0  0  0  0  0  0  0  0  0  0  0
   -1.8005    0.2224   11.4313 C   0  0  0  0  0  0  0  0  0  0  0  0
   -0.8139   -0.0791   12.4368 C   0  0  0  0  0  0  0  0  0  0  0  0
   -0.0294   -0.3205   13.2525 N   0  0  0  0  0  0  0  0  0  0  0  0
   -3.1613    0.2206   11.9024 C   0  0  0  0  0  0  0  0  0  0  0  0
   -4.2509    0.2166   12.2946 N   0  0  0  0  0  0  0  0  0  0  0  0
    2.2701    0.2068    9.1650 C   0  0  0  0  0  0  0  0  0  0  0  0
    2.4317   -0.7471    8.1526 C   0  0  0  0  0  0  0  0  0  0  0  0
    3.1886   -0.4389    7.0116 C   0  0  0  0  0  0  0  0  0  0  0  0
    3.2689   -1.3125    5.9131 O   0  0  0  0  0  0  0  0  0  0  0  0
    2.6514   -2.5950    5.8388 C   0  0  0  0  0  0  0  0  0  0  0  0
    2.9408   -3.2088    4.4760 C   0  0  0  0  0  0  0  0  0  0  0  0
    3.8175    0.8185    6.9170 C   0  0  0  0  0  0  0  0  0  0  0  0
    3.8256    1.6778    8.0293 C   0  0  0  0  0  0  0  0  0  0  0  0
    3.0533    1.3730    9.1554 C   0  0  0  0  0  0  0  0  0  0  0  0
    2.9071    2.3029   10.1325 F   0  0  0  0  0  0  0  0  0  0  0  0
    4.0469    1.3789    5.5766 C   0  0  0  0  0  0  0  0  0  0  0  0
    5.1959    2.0184    5.0632 C   0  0  0  0  0  0  0  0  0  0  0  0
    6.5153    2.1325    5.7745 C   0  0  0  0  0  0  0  0  0  0  0  0
    6.8166    3.5786    6.1594 C   0  0  0  0  0  0  0  0  0  0  0  0
    4.9406    2.5145    3.7755 C   0  0  0  0  0  0  0  0  0  0  0  0
    5.8654    3.3065    2.5727 S   0  0  0  0  0  0  0  0  0  0  0  0
    4.5237    3.3672    1.5230 C   0  0  0  0  0  0  0  0  0  0  0  0
    4.2356    3.5994    0.2027 C   0  0  0  0  0  0  0  0  0  0  0  0
    5.0563    3.8991   -0.8925 C   0  0  0  0  0  0  0  0  0  0  0  0
    4.4979    3.8219   -2.2092 C   0  0  0  0  0  0  0  0  0  0  0  0
    5.3336    4.0584   -3.2483 N   0  0  0  0  0  0  0  0  0  0  0  0
    6.7393    4.3350   -2.4146 S   0  0  0  0  0  0  0  0  0  0  0  0
    6.3803    4.1782   -0.8043 N   0  0  0  0  0  0  0  0  0  0  0  0
    3.1372    3.5228   -2.3478 C   0  0  0  0  0  0  0  0  0  0  0  0
    2.3276    3.3431   -3.4421 C   0  0  0  0  0  0  0  0  0  0  0  0
    2.5109    2.9157   -5.0741 S   0  0  0  0  0  0  0  0  0  0  0  0
    0.9084    2.3138   -5.1440 C   0  0  0  0  0  0  0  0  0  0  0  0
    0.3113    1.3824   -6.0013 C   0  0  0  0  0  0  0  0  0  0  0  0
    0.7315    1.1140   -7.3100 O   0  0  0  0  0  0  0  0  0  0  0  0
    1.0991    2.1352   -8.2350 C   0  0  0  0  0  0  0  0  0  0  0  0
   -0.1542    2.7793   -8.8264 C   0  0  0  0  0  0  0  0  0  0  0  0
   -0.7542    0.7090   -5.3729 C   0  0  0  0  0  0  0  0  0  0  0  0
   -0.9412    1.3059   -3.7909 S   0  0  0  0  0  0  0  0  0  0  0  0
    0.2988    2.4192   -3.9190 C   0  0  0  0  0  0  0  0  0  0  0  0
    1.0958    3.0211   -2.9663 C   0  0  0  0  0  0  0  0  0  0  0  0
    1.0311    3.0021   -1.6173 N   0  0  0  0  0  0  0  0  0  0  0  0
    2.3188    3.2525   -1.2414 C   0  0  0  0  0  0  0  0  0  0  0  0
    2.9062    3.1741    0.0364 C   0  0  0  0  0  0  0  0  0  0  0  0
    2.4417    2.5492    1.1642 N   0  0  0  0  0  0  0  0  0  0  0  0
    3.4305    2.7723    2.0589 C   0  0  0  0  0  0  0  0  0  0  0  0
    3.6725    2.2755    3.3190 C   0  0  0  0  0  0  0  0  0  0  0  0
    2.7731    1.4526    4.4478 S   0  0  0  0  0  0  0  0  0  0  0  0
    1.5566    1.3722    1.2221 C   0  0  0  0  0  0  0  0  0  0  0  0
    2.3543    0.0802    1.0308 C   0  0  0  0  0  0  0  0  0  0  0  0
   -0.1957    3.2917   -0.8540 C   0  0  0  0  0  0  0  0  0  0  0  0
   -0.8031    4.6315   -1.2717 C   0  0  0  0  0  0  0  0  0  0  0  0
   -1.4747   -0.4871   -5.8684 C   0  0  0  0  0  0  0  0  0  0  0  0
   -2.8764   -0.6045   -5.7443 C   0  0  0  0  0  0  0  0  0  0  0  0
   -3.7639    0.4056   -5.3426 C   0  0  0  0  0  0  0  0  0  0  0  0
   -5.0841   -0.0262   -5.2750 C   0  0  0  0  0  0  0  0  0  0  0  0
   -6.2337    0.7867   -4.7714 C   0  0  0  0  0  0  0  0  0  0  0  0
   -6.2632    0.7788   -3.2440 C   0  0  0  0  0  0  0  0  0  0  0  0
   -5.1683   -1.6543   -5.7070 S   0  0  0  0  0  0  0  0  0  0  0  0
   -3.5184   -1.8187   -6.0063 C   0  0  0  0  0  0  0  0  0  0  0  0
   -2.8267   -2.9722   -6.4009 C   0  0  0  0  0  0  0  0  0  0  0  0
   -1.4316   -2.8492   -6.5786 C   0  0  0  0  0  0  0  0  0  0  0  0
   -0.7819   -1.6336   -6.3082 C   0  0  0  0  0  0  0  0  0  0  0  0
    0.8742   -1.8583   -6.5140 S   0  0  0  0  0  0  0  0  0  0  0  0
    0.7772   -3.4720   -6.9901 C   0  0  0  0  0  0  0  0  0  0  0  0
    1.9365   -4.3130   -7.4270 C   0  0  0  0  0  0  0  0  0  0  0  0
    2.0601   -4.3033   -8.9479 C   0  0  0  0  0  0  0  0  0  0  0  0
   -0.5554   -3.8723   -6.9802 C   0  0  0  0  0  0  0  0  0  0  0  0
   -3.5451   -4.2448   -6.6105 C   0  0  0  0  0  0  0  0  0  0  0  0
   -3.3789   -5.3275   -5.8262 C   0  0  0  0  0  0  0  0  0  0  0  0
   -2.4205   -5.4485   -4.7205 C   0  0  0  0  0  0  0  0  0  0  0  0
   -1.8668   -4.4998   -4.0994 O   0  0  0  0  0  0  0  0  0  0  0  0
   -2.2283   -6.8567   -4.4378 C   0  0  0  0  0  0  0  0  0  0  0  0
   -1.3106   -7.4474   -3.5639 C   0  0  0  0  0  0  0  0  0  0  0  0
   -0.4923   -6.6870   -2.7930 F   0  0  0  0  0  0  0  0  0  0  0  0
   -1.2232   -8.8470   -3.5346 C   0  0  0  0  0  0  0  0  0  0  0  0
   -2.0411   -9.6235   -4.3778 C   0  0  0  0  0  0  0  0  0  0  0  0
   -2.9582   -9.0089   -5.2436 C   0  0  0  0  0  0  0  0  0  0  0  0
   -3.0624   -7.6081   -5.2469 C   0  0  0  0  0  0  0  0  0  0  0  0
   -3.9176   -6.7022   -6.0649 C   0  0  0  0  0  0  0  0  0  0  0  0
   -5.0847   -7.0276   -6.6796 C   0  0  0  0  0  0  0  0  0  0  0  0
   -5.5815   -8.3773   -6.7425 C   0  0  0  0  0  0  0  0  0  0  0  0
   -5.9953   -9.4579   -6.8006 N   0  0  0  0  0  0  0  0  0  0  0  0
   -5.9884   -6.0275   -7.1855 C   0  0  0  0  0  0  0  0  0  0  0  0
   -6.7200   -5.2252   -7.5905 N   0  0  0  0  0  0  0  0  0  0  0  0
    1.0414   -0.6059   10.7833 H   0  0  0  0  0  0  0  0  0  0  0  0
   -1.5944    2.7029    6.2067 H   0  0  0  0  0  0  0  0  0  0  0  0
   -4.5060    2.9873    3.1028 H   0  0  0  0  0  0  0  0  0  0  0  0
   -5.1594    4.6241    3.5292 H   0  0  0  0  0  0  0  0  0  0  0  0
   -3.4693    4.4541    2.8979 H   0  0  0  0  0  0  0  0  0  0  0  0
   -5.4677    1.5667    7.7521 H   0  0  0  0  0  0  0  0  0  0  0  0
   -4.3985    0.5308    9.6971 H   0  0  0  0  0  0  0  0  0  0  0  0
    1.8382   -1.6498    8.1830 H   0  0  0  0  0  0  0  0  0  0  0  0
    3.0658   -3.2537    6.6316 H   0  0  0  0  0  0  0  0  0  0  0  0
    1.5508   -2.4940    5.9653 H   0  0  0  0  0  0  0  0  0  0  0  0
    2.5153   -4.2303    4.4276 H   0  0  0  0  0  0  0  0  0  0  0  0
    2.4862   -2.5883    3.6765 H   0  0  0  0  0  0  0  0  0  0  0  0
    4.0384   -3.2629    4.3129 H   0  0  0  0  0  0  0  0  0  0  0  0
    4.2786    2.6563    7.9571 H   0  0  0  0  0  0  0  0  0  0  0  0
    7.3212    1.7472    5.1149 H   0  0  0  0  0  0  0  0  0  0  0  0
    6.5065    1.5041    6.6916 H   0  0  0  0  0  0  0  0  0  0  0  0
    7.0357    4.1758    5.2475 H   0  0  0  0  0  0  0  0  0  0  0  0
    5.9575    4.0302    6.6997 H   0  0  0  0  0  0  0  0  0  0  0  0
    7.7092    3.6006    6.8174 H   0  0  0  0  0  0  0  0  0  0  0  0
    1.6937    1.6809   -9.0552 H   0  0  0  0  0  0  0  0  0  0  0  0
    1.7267    2.9186   -7.7524 H   0  0  0  0  0  0  0  0  0  0  0  0
   -0.7608    2.0034   -9.3474 H   0  0  0  0  0  0  0  0  0  0  0  0
    0.1365    3.5680   -9.5524 H   0  0  0  0  0  0  0  0  0  0  0  0
   -0.7580    3.2437   -8.0203 H   0  0  0  0  0  0  0  0  0  0  0  0
    0.8009    1.3753    0.4280 H   0  0  0  0  0  0  0  0  0  0  0  0
    1.0161    1.3460    2.1929 H   0  0  0  0  0  0  0  0  0  0  0  0
    1.6557   -0.7805    0.9689 H   0  0  0  0  0  0  0  0  0  0  0  0
    3.0378   -0.0869    1.8858 H   0  0  0  0  0  0  0  0  0  0  0  0
    2.9458    0.1282    0.0910 H   0  0  0  0  0  0  0  0  0  0  0  0
   -0.9365    2.4789   -1.0163 H   0  0  0  0  0  0  0  0  0  0  0  0
    0.0196    3.3735    0.2314 H   0  0  0  0  0  0  0  0  0  0  0  0
   -1.0304    4.6485   -2.3557 H   0  0  0  0  0  0  0  0  0  0  0  0
   -1.7470    4.7991   -0.7116 H   0  0  0  0  0  0  0  0  0  0  0  0
   -0.0971    5.4507   -1.0305 H   0  0  0  0  0  0  0  0  0  0  0  0
   -3.4727    1.4170   -5.0989 H   0  0  0  0  0  0  0  0  0  0  0  0
   -7.1855    0.3720   -5.1685 H   0  0  0  0  0  0  0  0  0  0  0  0
   -6.1290    1.8309   -5.1309 H   0  0  0  0  0  0  0  0  0  0  0  0
   -6.4309   -0.2532   -2.8688 H   0  0  0  0  0  0  0  0  0  0  0  0
   -7.0913    1.4297   -2.8899 H   0  0  0  0  0  0  0  0  0  0  0  0
   -5.3038    1.1664   -2.8374 H   0  0  0  0  0  0  0  0  0  0  0  0
    2.8735   -3.9200   -6.9772 H   0  0  0  0  0  0  0  0  0  0  0  0
    1.7971   -5.3559   -7.0758 H   0  0  0  0  0  0  0  0  0  0  0  0
    2.2266   -3.2671   -9.3170 H   0  0  0  0  0  0  0  0  0  0  0  0
    1.1358   -4.7168   -9.4096 H   0  0  0  0  0  0  0  0  0  0  0  0
    2.9227   -4.9302   -9.2544 H   0  0  0  0  0  0  0  0  0  0  0  0
   -0.8683   -4.8722   -7.2508 H   0  0  0  0  0  0  0  0  0  0  0  0
   -4.1909   -4.2886   -7.4740 H   0  0  0  0  0  0  0  0  0  0  0  0
   -0.5111   -9.3344   -2.8778 H   0  0  0  0  0  0  0  0  0  0  0  0
   -1.9545  -10.7036   -4.3651 H   0  0  0  0  0  0  0  0  0  0  0  0
   -3.5235   -9.6281   -5.9176 H   0  0  0  0  0  0  0  0  0  0  0  0
  1  2  2  3
  2  3  1  0
  3  4  2  0
  3  5  1  0
  5  6  2  0
  6  7  1  0
  7  8  1  0
  8  9  1  0
  9 10  2  0
  9 11  1  0
  7 12  2  0
 12 13  1  0
 13 14  2  0
 14 15  1  0
 15 16  2  3
 16 17  1  0
 17 18  3  0
 16 19  1  0
 19 20  3  0
  1 21  1  0
 21 22  2  0
 22 23  1  0
 23 24  1  0
 24 25  1  0
 25 26  1  0
 23 27  2  0
 27 28  1  0
 28 29  2  0
 29 30  1  0
 27 31  1  0
 31 32  2  0
 32 33  1  0
 33 34  1  0
 32 35  1  0
 35 36  1  0
 36 37  1  0
 37 38  1  0
 38 39  1  0
 39 40  1  0
 40 41  2  0
 41 42  1  0
 42 43  1  0
 40 44  1  0
 44 45  1  0
 45 46  1  0
 46 47  1  0
 47 48  1  0
 48 49  1  0
 49 50  1  0
 50 51  1  0
 48 52  2  0
 52 53  1  0
 53 54  1  0
 54 55  1  0
 55 56  1  0
 56 57  1  0
 57 58  1  0
 58 59  1  0
 59 60  1  0
 60 61  1  0
 61 62  1  0
 59 63  1  0
 63 64  1  0
 56 65  1  0
 65 66  1  0
 52 67  1  0
 67 68  2  0
 68 69  1  0
 69 70  2  0
 70 71  1  0
 71 72  1  0
 70 73  1  0
 73 74  1  0
 74 75  2  0
 75 76  1  0
 76 77  2  0
 77 78  1  0
 78 79  1  0
 79 80  1  0
 80 81  1  0
 79 82  2  0
 75 83  1  0
 83 84  2  3
 84 85  1  0
 85 86  2  0
 85 87  1  0
 87 88  2  0
 88 89  1  0
 88 90  1  0
 90 91  2  0
 91 92  1  0
 92 93  2  0
 93 94  1  0
 94 95  2  3
 95 96  1  0
 96 97  3  0
 95 98  1  0
 98 99  3  0
 15  2  1  0
 29 21  1  0
 62 31  1  0
 77 67  1  0
 94 84  1  0
 14  5  1  0
 61 35  2  0
 74 68  1  0
 82 76  1  0
 93 87  1  0
 60 37  2  0
 58 38  2  0
 43 39  2  0
 57 44  2  0
 55 45  2  0
 54 47  2  0
  1100  1  0
  6101  1  0
 11102  1  0
 11103  1  0
 11104  1  0
 12105  1  0
 13106  1  0
 22107  1  0
 25108  1  0
 25109  1  0
 26110  1  0
 26111  1  0
 26112  1  0
 28113  1  0
 33114  1  0
 33115  1  0
 34116  1  0
 34117  1  0
 34118  1  0
 50119  1  0
 50120  1  0
 51121  1  0
 51122  1  0
 51123  1  0
 63124  1  0
 63125  1  0
 64126  1  0
 64127  1  0
 64128  1  0
 65129  1  0
 65130  1  0
 66131  1  0
 66132  1  0
 66133  1  0
 69134  1  0
 71135  1  0
 71136  1  0
 72137  1  0
 72138  1  0
 72139  1  0
 80140  1  0
 80141  1  0
 81142  1  0
 81143  1  0
 81144  1  0
 82145  1  0
 83146  1  0
 90147  1  0
 91148  1  0
 92149  1  0
M  END

