
     RDKit          3D

174191  0  0  0  0  0  0  0  0999 V2000
   -3.0977  -11.3640   -0.4404 C   0  0  0  0  0  0  0  0  0  0  0  0
   -3.5465  -11.2991    0.8358 C   0  0  0  0  0  0  0  0  0  0  0  0
   -3.6828  -10.0681    1.6387 C   0  0  0  0  0  0  0  0  0  0  0  0
   -3.7370   -8.8832    1.2206 O   0  0  0  0  0  0  0  0  0  0  0  0
   -3.7060  -10.4259    3.0328 C   0  0  0  0  0  0  0  0  0  0  0  0
   -3.7707   -9.5602    4.1243 C   0  0  0  0  0  0  0  0  0  0  0  0
   -3.6961  -10.0968    5.4239 C   0  0  0  0  0  0  0  0  0  0  0  0
   -3.6832   -9.2817    6.5670 O   0  0  0  0  0  0  0  0  0  0  0  0
   -3.2145   -7.9595    6.6101 C   0  0  0  0  0  0  0  0  0  0  0  0
   -2.4477   -7.5067    5.7164 O   0  0  0  0  0  0  0  0  0  0  0  0
   -3.5554   -7.0932    7.7736 C   0  0  0  0  0  0  0  0  0  0  0  0
   -3.6689  -11.4966    5.5803 C   0  0  0  0  0  0  0  0  0  0  0  0
   -3.6521  -12.3532    4.4631 C   0  0  0  0  0  0  0  0  0  0  0  0
   -3.6371  -11.7971    3.1721 C   0  0  0  0  0  0  0  0  0  0  0  0
   -3.6094  -12.4321    1.8166 C   0  0  0  0  0  0  0  0  0  0  0  0
   -3.6440  -13.7574    1.5292 C   0  0  0  0  0  0  0  0  0  0  0  0
   -3.9669  -14.2420    0.2139 C   0  0  0  0  0  0  0  0  0  0  0  0
   -4.2357  -14.6379   -0.8417 N   0  0  0  0  0  0  0  0  0  0  0  0
   -3.3974  -14.7717    2.5237 C   0  0  0  0  0  0  0  0  0  0  0  0
   -3.1745  -15.5882    3.3173 N   0  0  0  0  0  0  0  0  0  0  0  0
   -2.5851  -10.1804   -1.1563 C   0  0  0  0  0  0  0  0  0  0  0  0
   -3.4220   -9.1070   -1.4841 C   0  0  0  0  0  0  0  0  0  0  0  0
   -2.8789   -7.8225   -1.6935 C   0  0  0  0  0  0  0  0  0  0  0  0
   -3.6949   -6.6904   -1.8499 O   0  0  0  0  0  0  0  0  0  0  0  0
   -5.1195   -6.6930   -1.9765 C   0  0  0  0  0  0  0  0  0  0  0  0
   -5.5373   -7.1633   -3.3630 C   0  0  0  0  0  0  0  0  0  0  0  0
   -1.4719   -7.6642   -1.6507 C   0  0  0  0  0  0  0  0  0  0  0  0
   -0.6555   -8.8059   -1.6234 C   0  0  0  0  0  0  0  0  0  0  0  0
   -1.2056  -10.0538   -1.3490 C   0  0  0  0  0  0  0  0  0  0  0  0
   -0.3831  -11.1080   -1.1246 F   0  0  0  0  0  0  0  0  0  0  0  0
   -0.8711   -6.3437   -1.3374 C   0  0  0  0  0  0  0  0  0  0  0  0
   -0.0692   -6.1005   -0.2003 C   0  0  0  0  0  0  0  0  0  0  0  0
    0.5695   -7.1310    0.6346 C   0  0  0  0  0  0  0  0  0  0  0  0
    1.8561   -7.5884    0.3071 C   0  0  0  0  0  0  0  0  0  0  0  0
    2.4614   -8.5923    1.0672 C   0  0  0  0  0  0  0  0  0  0  0  0
    1.7951   -9.1392    2.1648 C   0  0  0  0  0  0  0  0  0  0  0  0
    0.5230   -8.6718    2.5189 C   0  0  0  0  0  0  0  0  0  0  0  0
   -0.1647   -9.2258    3.7348 C   0  0  0  0  0  0  0  0  0  0  0  0
    0.4340   -8.6453    5.0122 C   0  0  0  0  0  0  0  0  0  0  0  0
   -0.0896   -7.6638    1.7494 C   0  0  0  0  0  0  0  0  0  0  0  0
    0.0167   -4.7419    0.0907 C   0  0  0  0  0  0  0  0  0  0  0  0
    0.5108   -3.8870    1.4876 S   0  0  0  0  0  0  0  0  0  0  0  0
   -0.0711   -2.4373    0.8238 C   0  0  0  0  0  0  0  0  0  0  0  0
   -0.4135   -1.1846    1.2528 C   0  0  0  0  0  0  0  0  0  0  0  0
   -0.3986   -0.5739    2.5124 C   0  0  0  0  0  0  0  0  0  0  0  0
   -1.0267    0.7048    2.6625 C   0  0  0  0  0  0  0  0  0  0  0  0
   -0.9655    1.2794    3.8883 N   0  0  0  0  0  0  0  0  0  0  0  0
   -0.1459    0.0902    4.7110 S   0  0  0  0  0  0  0  0  0  0  0  0
    0.1674   -1.1153    3.6162 N   0  0  0  0  0  0  0  0  0  0  0  0
   -1.6024    1.3157    1.5357 C   0  0  0  0  0  0  0  0  0  0  0  0
   -1.9075    2.6312    1.2934 C   0  0  0  0  0  0  0  0  0  0  0  0
   -1.6936    4.0819    2.1412 S   0  0  0  0  0  0  0  0  0  0  0  0
   -1.5172    4.9780    0.7017 C   0  0  0  0  0  0  0  0  0  0  0  0
   -1.0465    6.2773    0.4284 C   0  0  0  0  0  0  0  0  0  0  0  0
   -1.0044    7.3939    1.4119 C   0  0  0  0  0  0  0  0  0  0  0  0
   -1.3513    8.6966    1.0041 C   0  0  0  0  0  0  0  0  0  0  0  0
   -1.2873    9.7620    1.9015 C   0  0  0  0  0  0  0  0  0  0  0  0
   -0.8868    9.5466    3.2216 C   0  0  0  0  0  0  0  0  0  0  0  0
   -0.5608    8.2555    3.6552 C   0  0  0  0  0  0  0  0  0  0  0  0
   -0.0983    8.0169    5.0699 C   0  0  0  0  0  0  0  0  0  0  0  0
    1.4217    8.0929    5.1579 C   0  0  0  0  0  0  0  0  0  0  0  0
   -0.6050    7.1855    2.7448 C   0  0  0  0  0  0  0  0  0  0  0  0
   -0.6565    6.3856   -0.9306 C   0  0  0  0  0  0  0  0  0  0  0  0
   -0.9629    4.9142   -1.7288 S   0  0  0  0  0  0  0  0  0  0  0  0
   -1.5715    4.1381   -0.3835 C   0  0  0  0  0  0  0  0  0  0  0  0
   -1.8244    2.8104   -0.0562 C   0  0  0  0  0  0  0  0  0  0  0  0
   -1.5658    1.6586   -0.7217 N   0  0  0  0  0  0  0  0  0  0  0  0
   -1.5319    0.7195    0.2687 C   0  0  0  0  0  0  0  0  0  0  0  0
   -1.0720   -0.6023    0.1684 C   0  0  0  0  0  0  0  0  0  0  0  0
   -1.3087   -1.5100   -0.8235 N   0  0  0  0  0  0  0  0  0  0  0  0
   -0.6318   -2.6035   -0.4035 C   0  0  0  0  0  0  0  0  0  0  0  0
   -0.6236   -3.9269   -0.8056 C   0  0  0  0  0  0  0  0  0  0  0  0
   -1.3988   -4.8450   -1.9765 S   0  0  0  0  0  0  0  0  0  0  0  0
   -2.4807   -1.5281   -1.7124 C   0  0  0  0  0  0  0  0  0  0  0  0
   -3.7006   -2.0856   -0.9781 C   0  0  0  0  0  0  0  0  0  0  0  0
   -0.8565    1.5697   -2.0111 C   0  0  0  0  0  0  0  0  0  0  0  0
    0.6481    1.7845   -1.8379 C   0  0  0  0  0  0  0  0  0  0  0  0
    0.2636    7.3907   -1.5184 C   0  0  0  0  0  0  0  0  0  0  0  0
    0.1024    7.8389   -2.8490 C   0  0  0  0  0  0  0  0  0  0  0  0
   -1.0061    7.6000   -3.6802 C   0  0  0  0  0  0  0  0  0  0  0  0
   -0.8288    8.0830   -4.9734 C   0  0  0  0  0  0  0  0  0  0  0  0
   -1.7573    7.8343   -6.1250 C   0  0  0  0  0  0  0  0  0  0  0  0
   -1.4835    6.4732   -6.7571 C   0  0  0  0  0  0  0  0  0  0  0  0
    0.6885    8.8066   -5.1008 S   0  0  0  0  0  0  0  0  0  0  0  0
    1.1269    8.5379   -3.4989 C   0  0  0  0  0  0  0  0  0  0  0  0
    2.3525    8.8267   -2.8859 C   0  0  0  0  0  0  0  0  0  0  0  0
    2.4908    8.4601   -1.5293 C   0  0  0  0  0  0  0  0  0  0  0  0
    1.4821    7.7337   -0.8857 C   0  0  0  0  0  0  0  0  0  0  0  0
    2.0499    7.2868    0.6360 S   0  0  0  0  0  0  0  0  0  0  0  0
    3.5201    8.0978    0.5382 C   0  0  0  0  0  0  0  0  0  0  0  0
    4.5745    8.0873    1.6066 C   0  0  0  0  0  0  0  0  0  0  0  0
    5.1257    9.4869    1.8744 C   0  0  0  0  0  0  0  0  0  0  0  0
    3.6247    8.6773   -0.7260 C   0  0  0  0  0  0  0  0  0  0  0  0
    3.4644    9.4297   -3.6528 C   0  0  0  0  0  0  0  0  0  0  0  0
    4.6625    8.8256   -3.8122 C   0  0  0  0  0  0  0  0  0  0  0  0
    4.9339    7.4102   -3.5226 C   0  0  0  0  0  0  0  0  0  0  0  0
    4.1165    6.5682   -3.0649 O   0  0  0  0  0  0  0  0  0  0  0  0
    6.2803    7.1041   -3.9340 C   0  0  0  0  0  0  0  0  0  0  0  0
    6.9507    5.8867   -3.8122 C   0  0  0  0  0  0  0  0  0  0  0  0
    8.2970    5.8103   -4.2124 C   0  0  0  0  0  0  0  0  0  0  0  0
    9.0328    4.6213   -4.1222 O   0  0  0  0  0  0  0  0  0  0  0  0
    8.8022    3.6133   -3.1804 C   0  0  0  0  0  0  0  0  0  0  0  0
    8.2372    3.8757   -2.0795 O   0  0  0  0  0  0  0  0  0  0  0  0
    9.3372    2.2423   -3.4134 C   0  0  0  0  0  0  0  0  0  0  0  0
    8.9198    6.9498   -4.7494 C   0  0  0  0  0  0  0  0  0  0  0  0
    8.2238    8.1636   -4.8759 C   0  0  0  0  0  0  0  0  0  0  0  0
    6.8738    8.2256   -4.4804 C   0  0  0  0  0  0  0  0  0  0  0  0
    5.9077    9.3688   -4.4507 C   0  0  0  0  0  0  0  0  0  0  0  0
    6.1419   10.6487   -4.8538 C   0  0  0  0  0  0  0  0  0  0  0  0
    7.3018   11.0248   -5.6118 C   0  0  0  0  0  0  0  0  0  0  0  0
    8.2305   11.3408   -6.2278 N   0  0  0  0  0  0  0  0  0  0  0  0
    5.2561   11.7377   -4.5378 C   0  0  0  0  0  0  0  0  0  0  0  0
    4.5594   12.6301   -4.2876 N   0  0  0  0  0  0  0  0  0  0  0  0
   -2.8095  -12.3144   -0.8599 H   0  0  0  0  0  0  0  0  0  0  0  0
   -3.8457   -8.4941    3.9556 H   0  0  0  0  0  0  0  0  0  0  0  0
   -3.7339   -6.0494    7.4286 H   0  0  0  0  0  0  0  0  0  0  0  0
   -2.7159   -7.0979    8.4991 H   0  0  0  0  0  0  0  0  0  0  0  0
   -4.4734   -7.4655    8.2659 H   0  0  0  0  0  0  0  0  0  0  0  0
   -3.6457  -11.9228    6.5733 H   0  0  0  0  0  0  0  0  0  0  0  0
   -3.6534  -13.4119    4.6335 H   0  0  0  0  0  0  0  0  0  0  0  0
   -4.4920   -9.2504   -1.4083 H   0  0  0  0  0  0  0  0  0  0  0  0
   -5.5899   -7.3176   -1.1860 H   0  0  0  0  0  0  0  0  0  0  0  0
   -5.4806   -5.6517   -1.8344 H   0  0  0  0  0  0  0  0  0  0  0  0
   -5.2347   -8.2174   -3.5262 H   0  0  0  0  0  0  0  0  0  0  0  0
   -6.6412   -7.0934   -3.4616 H   0  0  0  0  0  0  0  0  0  0  0  0
   -5.0648   -6.5268   -4.1442 H   0  0  0  0  0  0  0  0  0  0  0  0
    0.4185   -8.7126   -1.6831 H   0  0  0  0  0  0  0  0  0  0  0  0
    2.3774   -7.1884   -0.5551 H   0  0  0  0  0  0  0  0  0  0  0  0
    3.4452   -8.9578    0.7985 H   0  0  0  0  0  0  0  0  0  0  0  0
    2.2694   -9.9169    2.7486 H   0  0  0  0  0  0  0  0  0  0  0  0
   -0.0743  -10.3357    3.7508 H   0  0  0  0  0  0  0  0  0  0  0  0
   -1.2431   -8.9822    3.6998 H   0  0  0  0  0  0  0  0  0  0  0  0
   -0.1653   -8.9772    5.8859 H   0  0  0  0  0  0  0  0  0  0  0  0
    1.4714   -9.0143    5.1494 H   0  0  0  0  0  0  0  0  0  0  0  0
    0.4366   -7.5352    4.9712 H   0  0  0  0  0  0  0  0  0  0  0  0
   -1.0771   -7.2978    2.0086 H   0  0  0  0  0  0  0  0  0  0  0  0
   -1.6761    8.8856   -0.0108 H   0  0  0  0  0  0  0  0  0  0  0  0
   -1.5537   10.7577    1.5774 H   0  0  0  0  0  0  0  0  0  0  0  0
   -0.8344   10.3864    3.9066 H   0  0  0  0  0  0  0  0  0  0  0  0
   -0.4421    7.0198    5.4197 H   0  0  0  0  0  0  0  0  0  0  0  0
   -0.5417    8.7747    5.7525 H   0  0  0  0  0  0  0  0  0  0  0  0
    1.7459    7.8491    6.1912 H   0  0  0  0  0  0  0  0  0  0  0  0
    1.7734    9.1176    4.9056 H   0  0  0  0  0  0  0  0  0  0  0  0
    1.8844    7.3607    4.4641 H   0  0  0  0  0  0  0  0  0  0  0  0
   -0.2820    6.2089    3.0739 H   0  0  0  0  0  0  0  0  0  0  0  0
   -2.7492   -0.5125   -2.0546 H   0  0  0  0  0  0  0  0  0  0  0  0
   -2.2703   -2.1438   -2.6135 H   0  0  0  0  0  0  0  0  0  0  0  0
   -4.5567   -2.1689   -1.6816 H   0  0  0  0  0  0  0  0  0  0  0  0
   -3.9803   -1.3875   -0.1633 H   0  0  0  0  0  0  0  0  0  0  0  0
   -3.4827   -3.0926   -0.5585 H   0  0  0  0  0  0  0  0  0  0  0  0
   -1.2745    2.3048   -2.7281 H   0  0  0  0  0  0  0  0  0  0  0  0
   -0.9793    0.5805   -2.4774 H   0  0  0  0  0  0  0  0  0  0  0  0
    1.1448    1.7564   -2.8315 H   0  0  0  0  0  0  0  0  0  0  0  0
    1.0840    0.9882   -1.2062 H   0  0  0  0  0  0  0  0  0  0  0  0
    0.8639    2.7661   -1.3709 H   0  0  0  0  0  0  0  0  0  0  0  0
   -1.8997    7.0686   -3.3698 H   0  0  0  0  0  0  0  0  0  0  0  0
   -2.8130    7.8752   -5.7698 H   0  0  0  0  0  0  0  0  0  0  0  0
   -1.6239    8.6313   -6.8880 H   0  0  0  0  0  0  0  0  0  0  0  0
   -1.7672    5.6621   -6.0529 H   0  0  0  0  0  0  0  0  0  0  0  0
   -2.0873    6.3654   -7.6825 H   0  0  0  0  0  0  0  0  0  0  0  0
   -0.4066    6.3705   -7.0112 H   0  0  0  0  0  0  0  0  0  0  0  0
    4.1367    7.6885    2.5488 H   0  0  0  0  0  0  0  0  0  0  0  0
    5.4003    7.4135    1.2906 H   0  0  0  0  0  0  0  0  0  0  0  0
    5.7206    9.8363    1.0020 H   0  0  0  0  0  0  0  0  0  0  0  0
    4.2979   10.2013    2.0716 H   0  0  0  0  0  0  0  0  0  0  0  0
    5.7869    9.4560    2.7635 H   0  0  0  0  0  0  0  0  0  0  0  0
    4.5045    9.2153   -1.0532 H   0  0  0  0  0  0  0  0  0  0  0  0
    3.2464   10.3640   -4.1334 H   0  0  0  0  0  0  0  0  0  0  0  0
    6.4313    5.0243   -3.4236 H   0  0  0  0  0  0  0  0  0  0  0  0
    8.5221    1.4980   -3.3049 H   0  0  0  0  0  0  0  0  0  0  0  0
    9.7634    2.1672   -4.4364 H   0  0  0  0  0  0  0  0  0  0  0  0
   10.1375    2.0260   -2.6718 H   0  0  0  0  0  0  0  0  0  0  0  0
    9.9572    6.8999   -5.0578 H   0  0  0  0  0  0  0  0  0  0  0  0
    8.7594    9.0134   -5.2546 H   0  0  0  0  0  0  0  0  0  0  0  0
  1  2  2  3
  2  3  1  0
  3  4  2  0
  3  5  1  0
  5  6  2  0
  6  7  1  0
  7  8  1  0
  8  9  1  0
  9 10  2  0
  9 11  1  0
  7 12  2  0
 12 13  1  0
 13 14  2  0
 14 15  1  0
 15 16  2  3
 16 17  1  0
 17 18  3  0
 16 19  1  0
 19 20  3  0
  1 21  1  0
 21 22  2  0
 22 23  1  0
 23 24  1  0
 24 25  1  0
 25 26  1  0
 23 27  2  0
 27 28  1  0
 28 29  2  0
 29 30  1  0
 27 31  1  0
 31 32  2  0
 32 33  1  0
 33 34  2  0
 34 35  1  0
 35 36  2  0
 36 37  1  0
 37 38  1  0
 38 39  1  0
 37 40  2  0
 32 41  1  0
 41 42  1  0
 42 43  1  0
 43 44  1  0
 44 45  1  0
 45 46  1  0
 46 47  2  0
 47 48  1  0
 48 49  1  0
 46 50  1  0
 50 51  1  0
 51 52  1  0
 52 53  1  0
 53 54  1  0
 54 55  1  0
 55 56  2  0
 56 57  1  0
 57 58  2  0
 58 59  1  0
 59 60  1  0
 60 61  1  0
 59 62  2  0
 54 63  2  0
 63 64  1  0
 64 65  1  0
 65 66  1  0
 66 67  1  0
 67 68  1  0
 68 69  1  0
 69 70  1  0
 70 71  1  0
 71 72  1  0
 72 73  1  0
 70 74  1  0
 74 75  1  0
 67 76  1  0
 76 77  1  0
 63 78  1  0
 78 79  2  0
 79 80  1  0
 80 81  2  0
 81 82  1  0
 82 83  1  0
 81 84  1  0
 84 85  1  0
 85 86  2  0
 86 87  1  0
 87 88  2  0
 88 89  1  0
 89 90  1  0
 90 91  1  0
 91 92  1  0
 90 93  2  0
 86 94  1  0
 94 95  2  3
 95 96  1  0
 96 97  2  0
 96 98  1  0
 98 99  2  0
 99100  1  0
100101  1  0
101102  1  0
102103  2  0
102104  1  0
100105  2  0
105106  1  0
106107  2  0
107108  1  0
108109  2  3
109110  1  0
110111  3  0
109112  1  0
112113  3  0
 15  2  1  0
 29 21  1  0
 73 31  1  0
 88 78  1  0
108 95  1  0
 14  5  1  0
 40 33  1  0
 72 41  2  0
 85 79  1  0
 93 87  1  0
107 98  1  0
 71 43  2  0
 69 44  2  0
 49 45  2  0
 68 50  2  0
 66 51  2  0
 65 53  2  0
 62 55  1  0
  1114  1  0
  6115  1  0
 11116  1  0
 11117  1  0
 11118  1  0
 12119  1  0
 13120  1  0
 22121  1  0
 25122  1  0
 25123  1  0
 26124  1  0
 26125  1  0
 26126  1  0
 28127  1  0
 34128  1  0
 35129  1  0
 36130  1  0
 38131  1  0
 38132  1  0
 39133  1  0
 39134  1  0
 39135  1  0
 40136  1  0
 56137  1  0
 57138  1  0
 58139  1  0
 60140  1  0
 60141  1  0
 61142  1  0
 61143  1  0
 61144  1  0
 62145  1  0
 74146  1  0
 74147  1  0
 75148  1  0
 75149  1  0
 75150  1  0
 76151  1  0
 76152  1  0
 77153  1  0
 77154  1  0
 77155  1  0
 80156  1  0
 82157  1  0
 82158  1  0
 83159  1  0
 83160  1  0
 83161  1  0
 91162  1  0
 91163  1  0
 92164  1  0
 92165  1  0
 92166  1  0
 93167  1  0
 94168  1  0
 99169  1  0
104170  1  0
104171  1  0
104172  1  0
105173  1  0
106174  1  0
M  END

