
     RDKit          3D

190210  0  0  0  0  0  0  0  0999 V2000
   -9.0816   -7.8807    2.4320 C   0  0  0  0  0  0  0  0  0  0  0  0
   -9.0802   -6.8637    3.3135 C   0  0  0  0  0  0  0  0  0  0  0  0
   -8.4424   -5.5586    3.0922 C   0  0  0  0  0  0  0  0  0  0  0  0
   -8.1880   -5.0261    1.9787 O   0  0  0  0  0  0  0  0  0  0  0  0
   -8.1073   -4.9917    4.3793 C   0  0  0  0  0  0  0  0  0  0  0  0
   -7.3047   -3.8818    4.6356 C   0  0  0  0  0  0  0  0  0  0  0  0
   -6.8983   -3.6370    5.9590 C   0  0  0  0  0  0  0  0  0  0  0  0
   -6.0424   -2.5612    6.2512 C   0  0  0  0  0  0  0  0  0  0  0  0
   -5.5545   -2.3867    7.5457 C   0  0  0  0  0  0  0  0  0  0  0  0
   -5.9301   -3.2683    8.5613 C   0  0  0  0  0  0  0  0  0  0  0  0
   -6.7975   -4.3314    8.2914 C   0  0  0  0  0  0  0  0  0  0  0  0
   -7.2889   -4.5309    6.9918 C   0  0  0  0  0  0  0  0  0  0  0  0
   -8.1239   -5.6326    6.7019 C   0  0  0  0  0  0  0  0  0  0  0  0
   -8.5509   -5.8346    5.3791 C   0  0  0  0  0  0  0  0  0  0  0  0
   -9.3135   -6.9657    4.7824 C   0  0  0  0  0  0  0  0  0  0  0  0
  -10.1851   -7.7857    5.4163 C   0  0  0  0  0  0  0  0  0  0  0  0
  -10.9570   -8.7783    4.7081 C   0  0  0  0  0  0  0  0  0  0  0  0
  -11.5561   -9.5884    4.1379 N   0  0  0  0  0  0  0  0  0  0  0  0
  -10.4521   -7.6777    6.8308 C   0  0  0  0  0  0  0  0  0  0  0  0
  -10.6782   -7.5984    7.9645 N   0  0  0  0  0  0  0  0  0  0  0  0
   -8.3358   -7.7858    1.1639 C   0  0  0  0  0  0  0  0  0  0  0  0
   -8.9451   -7.2974   -0.0016 C   0  0  0  0  0  0  0  0  0  0  0  0
  -10.2835   -7.0488   -0.0139 F   0  0  0  0  0  0  0  0  0  0  0  0
   -8.1801   -7.0112   -1.1434 C   0  0  0  0  0  0  0  0  0  0  0  0
   -8.8062   -6.5095   -2.2387 F   0  0  0  0  0  0  0  0  0  0  0  0
   -6.7806   -7.1953   -1.1476 C   0  0  0  0  0  0  0  0  0  0  0  0
   -6.1762   -7.7479    0.0034 C   0  0  0  0  0  0  0  0  0  0  0  0
   -6.9603   -8.0462    1.1520 C   0  0  0  0  0  0  0  0  0  0  0  0
   -6.2950   -8.5271    2.2374 N   0  0  0  0  0  0  0  0  0  0  0  0
   -4.7449   -8.5250    1.6714 S   0  0  0  0  0  0  0  0  0  0  0  0
   -4.8372   -7.9510    0.1278 N   0  0  0  0  0  0  0  0  0  0  0  0
   -5.9681   -6.6374   -2.2556 C   0  0  0  0  0  0  0  0  0  0  0  0
   -6.2544   -5.0808   -2.8902 S   0  0  0  0  0  0  0  0  0  0  0  0
   -4.8025   -5.0262   -3.7083 C   0  0  0  0  0  0  0  0  0  0  0  0
   -3.9346   -4.0185   -3.9802 C   0  0  0  0  0  0  0  0  0  0  0  0
   -4.0098   -2.3420   -3.7994 S   0  0  0  0  0  0  0  0  0  0  0  0
   -2.3193   -2.2798   -3.7500 C   0  0  0  0  0  0  0  0  0  0  0  0
   -1.4175   -1.2745   -3.2667 C   0  0  0  0  0  0  0  0  0  0  0  0
   -0.2242   -1.9237   -2.9647 C   0  0  0  0  0  0  0  0  0  0  0  0
   -0.2151   -3.3730   -3.4566 C   0  0  0  0  0  0  0  0  0  0  0  0
    0.5816   -3.4143   -4.7809 C   0  0  0  0  0  0  0  0  0  0  0  0
    1.8476   -2.7946   -4.8750 C   0  0  0  0  0  0  0  0  0  0  0  0
    2.5156   -2.6972   -6.1013 C   0  0  0  0  0  0  0  0  0  0  0  0
    1.9598   -3.2623   -7.2602 C   0  0  0  0  0  0  0  0  0  0  0  0
    2.5817   -3.1832   -8.5178 O   0  0  0  0  0  0  0  0  0  0  0  0
    3.6267   -2.2715   -8.8756 C   0  0  0  0  0  0  0  0  0  0  0  0
    3.0688   -0.8636   -9.0541 C   0  0  0  0  0  0  0  0  0  0  0  0
    0.7457   -3.9418   -7.1663 C   0  0  0  0  0  0  0  0  0  0  0  0
    0.0547   -4.0074   -5.9546 C   0  0  0  0  0  0  0  0  0  0  0  0
    0.3088   -4.2738   -2.3371 C   0  0  0  0  0  0  0  0  0  0  0  0
    1.4839   -5.0412   -2.4828 C   0  0  0  0  0  0  0  0  0  0  0  0
    2.0473   -5.7094   -1.3903 C   0  0  0  0  0  0  0  0  0  0  0  0
    1.4524   -5.6234   -0.1182 C   0  0  0  0  0  0  0  0  0  0  0  0
    2.0045   -6.2313    1.0237 O   0  0  0  0  0  0  0  0  0  0  0  0
    3.1665   -7.0644    1.0389 C   0  0  0  0  0  0  0  0  0  0  0  0
    2.8305   -8.4631    0.5347 C   0  0  0  0  0  0  0  0  0  0  0  0
    0.2737   -4.8904    0.0307 C   0  0  0  0  0  0  0  0  0  0  0  0
   -0.2950   -4.2258   -1.0611 C   0  0  0  0  0  0  0  0  0  0  0  0
   -1.7124   -3.5191   -3.7308 C   0  0  0  0  0  0  0  0  0  0  0  0
   -2.6708   -4.5410   -3.8736 C   0  0  0  0  0  0  0  0  0  0  0  0
   -2.7087   -5.8743   -3.5671 N   0  0  0  0  0  0  0  0  0  0  0  0
   -4.0442   -6.1255   -3.4449 C   0  0  0  0  0  0  0  0  0  0  0  0
   -4.6937   -7.0837   -2.6559 C   0  0  0  0  0  0  0  0  0  0  0  0
   -1.6319   -6.8031   -3.1798 C   0  0  0  0  0  0  0  0  0  0  0  0
   -0.6848   -7.0815   -4.3365 C   0  0  0  0  0  0  0  0  0  0  0  0
    0.7250   -1.2941   -2.1473 C   0  0  0  0  0  0  0  0  0  0  0  0
    0.4623    0.0208   -1.7722 C   0  0  0  0  0  0  0  0  0  0  0  0
    1.1943    0.8752   -0.8954 C   0  0  0  0  0  0  0  0  0  0  0  0
    0.5876    2.1067   -0.8142 C   0  0  0  0  0  0  0  0  0  0  0  0
   -0.5694    2.2068   -1.8080 C   0  0  0  0  0  0  0  0  0  0  0  0
   -0.6569    0.7272   -2.2032 C   0  0  0  0  0  0  0  0  0  0  0  0
   -1.6681    0.0580   -2.9154 C   0  0  0  0  0  0  0  0  0  0  0  0
   -1.8564    2.6915   -1.1266 C   0  0  0  0  0  0  0  0  0  0  0  0
   -2.4700    3.9144   -1.4723 C   0  0  0  0  0  0  0  0  0  0  0  0
   -3.6172    4.3529   -0.8047 C   0  0  0  0  0  0  0  0  0  0  0  0
   -4.1784    3.5944    0.2248 C   0  0  0  0  0  0  0  0  0  0  0  0
   -5.3256    4.0897    0.8554 O   0  0  0  0  0  0  0  0  0  0  0  0
   -6.0298    3.4275    1.9015 C   0  0  0  0  0  0  0  0  0  0  0  0
   -7.2623    4.2420    2.2630 C   0  0  0  0  0  0  0  0  0  0  0  0
   -3.5732    2.3807    0.5851 C   0  0  0  0  0  0  0  0  0  0  0  0
   -2.4261    1.9368   -0.0814 C   0  0  0  0  0  0  0  0  0  0  0  0
   -0.1804    2.9653   -3.0929 C   0  0  0  0  0  0  0  0  0  0  0  0
    1.1281    3.4448   -3.3172 C   0  0  0  0  0  0  0  0  0  0  0  0
    1.4673    4.0822   -4.5129 C   0  0  0  0  0  0  0  0  0  0  0  0
    0.5185    4.2203   -5.5398 C   0  0  0  0  0  0  0  0  0  0  0  0
    0.8079    4.8651   -6.7557 O   0  0  0  0  0  0  0  0  0  0  0  0
    2.0438    5.5064   -7.0731 C   0  0  0  0  0  0  0  0  0  0  0  0
    3.0878    4.4885   -7.5210 C   0  0  0  0  0  0  0  0  0  0  0  0
   -0.7626    3.6992   -5.3521 C   0  0  0  0  0  0  0  0  0  0  0  0
   -1.1079    3.0759   -4.1482 C   0  0  0  0  0  0  0  0  0  0  0  0
    1.2778    2.8991    0.1125 C   0  0  0  0  0  0  0  0  0  0  0  0
    2.3253    2.2200    0.6798 C   0  0  0  0  0  0  0  0  0  0  0  0
    2.5304    0.6376    0.1353 S   0  0  0  0  0  0  0  0  0  0  0  0
    2.9060    3.0725    1.5532 C   0  0  0  0  0  0  0  0  0  0  0  0
    4.1504    3.1391    2.6568 S   0  0  0  0  0  0  0  0  0  0  0  0
    3.8069    4.7719    3.0429 C   0  0  0  0  0  0  0  0  0  0  0  0
    2.7039    5.2492    2.3050 C   0  0  0  0  0  0  0  0  0  0  0  0
    2.2180    4.2362    1.4801 C   0  0  0  0  0  0  0  0  0  0  0  0
    1.1762    4.1705    0.6076 N   0  0  0  0  0  0  0  0  0  0  0  0
    0.1484    5.1898    0.3992 C   0  0  0  0  0  0  0  0  0  0  0  0
    0.4652    6.0519   -0.8164 C   0  0  0  0  0  0  0  0  0  0  0  0
    4.6619    5.5764    3.9208 C   0  0  0  0  0  0  0  0  0  0  0  0
    5.4730    5.0691    4.9319 C   0  0  0  0  0  0  0  0  0  0  0  0
    6.3582    6.0154    5.4543 C   0  0  0  0  0  0  0  0  0  0  0  0
    7.5665    5.6233    6.6661 Cl  0  0  0  0  0  0  0  0  0  0  0  0
    6.2487    7.2631    4.8480 C   0  0  0  0  0  0  0  0  0  0  0  0
    5.0438    7.1926    3.6722 S   0  0  0  0  0  0  0  0  0  0  0  0
    7.1925    8.3738    4.9998 C   0  0  0  0  0  0  0  0  0  0  0  0
    8.2776    8.5076    4.2143 C   0  0  0  0  0  0  0  0  0  0  0  0
    8.7610    7.5033    3.2568 C   0  0  0  0  0  0  0  0  0  0  0  0
    8.1313    6.4935    2.8481 O   0  0  0  0  0  0  0  0  0  0  0  0
   10.1270    7.8292    2.8979 C   0  0  0  0  0  0  0  0  0  0  0  0
   11.0265    7.0769    2.1307 C   0  0  0  0  0  0  0  0  0  0  0  0
   10.5935    5.8833    1.5350 O   0  0  0  0  0  0  0  0  0  0  0  0
   11.4428    4.9924    0.8175 C   0  0  0  0  0  0  0  0  0  0  0  0
   12.3446    7.5575    2.0012 C   0  0  0  0  0  0  0  0  0  0  0  0
   12.7361    8.7384    2.6580 C   0  0  0  0  0  0  0  0  0  0  0  0
   11.8250    9.4586    3.4387 C   0  0  0  0  0  0  0  0  0  0  0  0
   10.4989    9.0057    3.5330 C   0  0  0  0  0  0  0  0  0  0  0  0
    9.3436    9.5513    4.3053 C   0  0  0  0  0  0  0  0  0  0  0  0
    9.2033   10.8185    4.7756 C   0  0  0  0  0  0  0  0  0  0  0  0
    7.9476   11.3185    5.2771 C   0  0  0  0  0  0  0  0  0  0  0  0
    6.9434   11.7238    5.6849 N   0  0  0  0  0  0  0  0  0  0  0  0
   10.2542   11.8012    4.6899 C   0  0  0  0  0  0  0  0  0  0  0  0
   11.0851   12.6055    4.6324 N   0  0  0  0  0  0  0  0  0  0  0  0
   -9.3551   -8.8725    2.7423 H   0  0  0  0  0  0  0  0  0  0  0  0
   -6.9636   -3.2572    3.8194 H   0  0  0  0  0  0  0  0  0  0  0  0
   -5.7258   -1.8808    5.4703 H   0  0  0  0  0  0  0  0  0  0  0  0
   -4.8800   -1.5720    7.7649 H   0  0  0  0  0  0  0  0  0  0  0  0
   -5.5448   -3.1311    9.5635 H   0  0  0  0  0  0  0  0  0  0  0  0
   -7.0704   -5.0089    9.0945 H   0  0  0  0  0  0  0  0  0  0  0  0
   -8.3577   -6.3371    7.4854 H   0  0  0  0  0  0  0  0  0  0  0  0
    2.3148   -2.3617   -4.0033 H   0  0  0  0  0  0  0  0  0  0  0  0
    3.4704   -2.1851   -6.1218 H   0  0  0  0  0  0  0  0  0  0  0  0
    4.4484   -2.2819   -8.1298 H   0  0  0  0  0  0  0  0  0  0  0  0
    4.0568   -2.5988   -9.8449 H   0  0  0  0  0  0  0  0  0  0  0  0
    2.3169   -0.8665   -9.8713 H   0  0  0  0  0  0  0  0  0  0  0  0
    3.8890   -0.1652   -9.3297 H   0  0  0  0  0  0  0  0  0  0  0  0
    2.5846   -0.5115   -8.1201 H   0  0  0  0  0  0  0  0  0  0  0  0
    0.3056   -4.3933   -8.0503 H   0  0  0  0  0  0  0  0  0  0  0  0
   -0.8952   -4.5135   -5.9547 H   0  0  0  0  0  0  0  0  0  0  0  0
    1.9906   -5.1213   -3.4335 H   0  0  0  0  0  0  0  0  0  0  0  0
    2.9563   -6.2725   -1.5467 H   0  0  0  0  0  0  0  0  0  0  0  0
    3.9911   -6.6103    0.4502 H   0  0  0  0  0  0  0  0  0  0  0  0
    3.5227   -7.1393    2.0877 H   0  0  0  0  0  0  0  0  0  0  0  0
    3.7364   -9.1028    0.5912 H   0  0  0  0  0  0  0  0  0  0  0  0
    2.0280   -8.9091    1.1581 H   0  0  0  0  0  0  0  0  0  0  0  0
    2.4785   -8.4265   -0.5172 H   0  0  0  0  0  0  0  0  0  0  0  0
   -0.1890   -4.8156    1.0044 H   0  0  0  0  0  0  0  0  0  0  0  0
   -1.1950   -3.6452   -0.9059 H   0  0  0  0  0  0  0  0  0  0  0  0
   -4.2207   -7.9773   -2.2835 H   0  0  0  0  0  0  0  0  0  0  0  0
   -1.0951   -6.4329   -2.2904 H   0  0  0  0  0  0  0  0  0  0  0  0
   -2.0622   -7.7794   -2.8936 H   0  0  0  0  0  0  0  0  0  0  0  0
   -1.2513   -7.3601   -5.2501 H   0  0  0  0  0  0  0  0  0  0  0  0
   -0.0064   -7.9213   -4.0662 H   0  0  0  0  0  0  0  0  0  0  0  0
   -0.0519   -6.2046   -4.5449 H   0  0  0  0  0  0  0  0  0  0  0  0
    1.6090   -1.8106   -1.7923 H   0  0  0  0  0  0  0  0  0  0  0  0
   -2.6065    0.5370   -3.1579 H   0  0  0  0  0  0  0  0  0  0  0  0
   -2.0491    4.5698   -2.2213 H   0  0  0  0  0  0  0  0  0  0  0  0
   -4.0636    5.3004   -1.0827 H   0  0  0  0  0  0  0  0  0  0  0  0
   -6.3478    2.4191    1.5627 H   0  0  0  0  0  0  0  0  0  0  0  0
   -5.3787    3.3311    2.7944 H   0  0  0  0  0  0  0  0  0  0  0  0
   -7.8984    4.3822    1.3622 H   0  0  0  0  0  0  0  0  0  0  0  0
   -7.8542    3.7141    3.0404 H   0  0  0  0  0  0  0  0  0  0  0  0
   -6.9591    5.2361    2.6555 H   0  0  0  0  0  0  0  0  0  0  0  0
   -3.9737    1.7808    1.3895 H   0  0  0  0  0  0  0  0  0  0  0  0
   -1.9717    1.0038    0.2303 H   0  0  0  0  0  0  0  0  0  0  0  0
    1.9050    3.3546   -2.5707 H   0  0  0  0  0  0  0  0  0  0  0  0
    2.4746    4.4498   -4.6249 H   0  0  0  0  0  0  0  0  0  0  0  0
    2.4128    6.1030   -6.2129 H   0  0  0  0  0  0  0  0  0  0  0  0
    1.8655    6.2118   -7.9099 H   0  0  0  0  0  0  0  0  0  0  0  0
    2.7561    3.9948   -8.4609 H   0  0  0  0  0  0  0  0  0  0  0  0
    4.0510    5.0078   -7.7167 H   0  0  0  0  0  0  0  0  0  0  0  0
    3.2498    3.7137   -6.7442 H   0  0  0  0  0  0  0  0  0  0  0  0
   -1.4997    3.7777   -6.1413 H   0  0  0  0  0  0  0  0  0  0  0  0
   -2.1084    2.6848   -4.0429 H   0  0  0  0  0  0  0  0  0  0  0  0
    2.3059    6.2530    2.3569 H   0  0  0  0  0  0  0  0  0  0  0  0
   -0.8391    4.7165    0.3145 H   0  0  0  0  0  0  0  0  0  0  0  0
    0.0954    5.8487    1.2921 H   0  0  0  0  0  0  0  0  0  0  0  0
   -0.3173    6.8286   -0.9321 H   0  0  0  0  0  0  0  0  0  0  0  0
    0.4798    5.4341   -1.7311 H   0  0  0  0  0  0  0  0  0  0  0  0
    1.4491    6.5472   -0.6843 H   0  0  0  0  0  0  0  0  0  0  0  0
    5.4656    4.0327    5.2459 H   0  0  0  0  0  0  0  0  0  0  0  0
    7.0173    9.0400    5.8285 H   0  0  0  0  0  0  0  0  0  0  0  0
   10.8468    4.1268    0.4534 H   0  0  0  0  0  0  0  0  0  0  0  0
   12.2489    4.6120    1.4817 H   0  0  0  0  0  0  0  0  0  0  0  0
   11.8871    5.5075   -0.0616 H   0  0  0  0  0  0  0  0  0  0  0  0
   13.0776    7.0208    1.4129 H   0  0  0  0  0  0  0  0  0  0  0  0
   13.7603    9.0811    2.5689 H   0  0  0  0  0  0  0  0  0  0  0  0
   12.1789   10.3207    3.9779 H   0  0  0  0  0  0  0  0  0  0  0  0
  1  2  2  3
  2  3  1  0
  3  4  2  0
  3  5  1  0
  5  6  2  0
  6  7  1  0
  7  8  2  0
  8  9  1  0
  9 10  2  0
 10 11  1  0
 11 12  2  0
 12 13  1  0
 13 14  2  0
 14 15  1  0
 15 16  2  3
 16 17  1  0
 17 18  3  0
 16 19  1  0
 19 20  3  0
  1 21  1  0
 21 22  2  0
 22 23  1  0
 22 24  1  0
 24 25  1  0
 24 26  2  0
 26 27  1  0
 27 28  1  0
 28 29  2  0
 29 30  1  0
 30 31  1  0
 26 32  1  0
 32 33  1  0
 33 34  1  0
 34 35  1  0
 35 36  1  0
 36 37  1  0
 37 38  1  0
 38 39  2  0
 39 40  1  0
 40 41  1  0
 41 42  2  0
 42 43  1  0
 43 44  2  0
 44 45  1  0
 45 46  1  0
 46 47  1  0
 44 48  1  0
 48 49  2  0
 40 50  1  0
 50 51  2  0
 51 52  1  0
 52 53  2  0
 53 54  1  0
 54 55  1  0
 55 56  1  0
 53 57  1  0
 57 58  2  0
 40 59  1  0
 59 60  1  0
 60 61  1  0
 61 62  1  0
 62 63  1  0
 61 64  1  0
 64 65  1  0
 39 66  1  0
 66 67  2  0
 67 68  1  0
 68 69  2  0
 69 70  1  0
 70 71  1  0
 71 72  2  0
 70 73  1  0
 73 74  2  0
 74 75  1  0
 75 76  2  0
 76 77  1  0
 77 78  1  0
 78 79  1  0
 76 80  1  0
 80 81  2  0
 70 82  1  0
 82 83  2  0
 83 84  1  0
 84 85  2  0
 85 86  1  0
 86 87  1  0
 87 88  1  0
 85 89  1  0
 89 90  2  0
 69 91  1  0
 91 92  2  0
 92 93  1  0
 92 94  1  0
 94 95  1  0
 95 96  1  0
 96 97  2  0
 97 98  1  0
 98 99  1  0
 99100  1  0
100101  1  0
 96102  1  0
102103  2  0
103104  1  0
104105  1  0
104106  2  0
106107  1  0
106108  1  0
108109  2  3
109110  1  0
110111  2  0
110112  1  0
112113  2  0
113114  1  0
114115  1  0
113116  1  0
116117  2  0
117118  1  0
118119  2  0
119120  1  0
120121  2  3
121122  1  0
122123  3  0
121124  1  0
124125  3  0
 15  2  1  0
 28 21  1  0
 63 32  2  0
 71 67  1  0
 81 73  1  0
 90 82  1  0
 99 91  1  0
107102  1  0
120109  1  0
 14  5  1  0
 31 27  2  0
 62 34  2  0
 93 68  1  0
 98 94  2  0
119112  1  0
 12  7  1  0
 60 35  2  0
 59 37  2  0
 72 38  1  0
 49 41  1  0
 58 50  1  0
  1126  1  0
  6127  1  0
  8128  1  0
  9129  1  0
 10130  1  0
 11131  1  0
 13132  1  0
 42133  1  0
 43134  1  0
 46135  1  0
 46136  1  0
 47137  1  0
 47138  1  0
 47139  1  0
 48140  1  0
 49141  1  0
 51142  1  0
 52143  1  0
 55144  1  0
 55145  1  0
 56146  1  0
 56147  1  0
 56148  1  0
 57149  1  0
 58150  1  0
 63151  1  0
 64152  1  0
 64153  1  0
 65154  1  0
 65155  1  0
 65156  1  0
 66157  1  0
 72158  1  0
 74159  1  0
 75160  1  0
 78161  1  0
 78162  1  0
 79163  1  0
 79164  1  0
 79165  1  0
 80166  1  0
 81167  1  0
 83168  1  0
 84169  1  0
 87170  1  0
 87171  1  0
 88172  1  0
 88173  1  0
 88174  1  0
 89175  1  0
 90176  1  0
 97177  1  0
100178  1  0
100179  1  0
101180  1  0
101181  1  0
101182  1  0
103183  1  0
108184  1  0
115185  1  0
115186  1  0
115187  1  0
116188  1  0
117189  1  0
118190  1  0
M  END

