
     RDKit          3D

221245  0  0  0  0  0  0  0  0999 V2000
   -5.2409    2.0989    1.2200 C   0  0  0  0  0  0  0  0  0  0  0  0
   -5.6185    2.0434   -0.0861 C   0  0  0  0  0  0  0  0  0  0  0  0
   -5.8360    3.2222   -0.9242 C   0  0  0  0  0  0  0  0  0  0  0  0
   -5.5551    4.4022   -0.6079 O   0  0  0  0  0  0  0  0  0  0  0  0
   -6.3675    2.7834   -2.1991 C   0  0  0  0  0  0  0  0  0  0  0  0
   -6.6356    3.5594   -3.3389 C   0  0  0  0  0  0  0  0  0  0  0  0
   -6.9963    2.8966   -4.5219 C   0  0  0  0  0  0  0  0  0  0  0  0
   -7.1917    3.6234   -5.7074 C   0  0  0  0  0  0  0  0  0  0  0  0
   -7.4353    2.9359   -6.9084 C   0  0  0  0  0  0  0  0  0  0  0  0
   -7.5511    1.5455   -6.9268 C   0  0  0  0  0  0  0  0  0  0  0  0
   -7.4062    0.8136   -5.7382 C   0  0  0  0  0  0  0  0  0  0  0  0
   -7.1291    1.4792   -4.5306 C   0  0  0  0  0  0  0  0  0  0  0  0
   -6.9277    0.7472   -3.3411 C   0  0  0  0  0  0  0  0  0  0  0  0
   -6.4955    1.4064   -2.1892 C   0  0  0  0  0  0  0  0  0  0  0  0
   -5.9026    0.8449   -0.9558 C   0  0  0  0  0  0  0  0  0  0  0  0
   -5.1786   -0.2943   -0.9538 C   0  0  0  0  0  0  0  0  0  0  0  0
   -5.6117   -1.4862   -1.6480 C   0  0  0  0  0  0  0  0  0  0  0  0
   -5.9619   -2.4547   -2.1861 N   0  0  0  0  0  0  0  0  0  0  0  0
   -3.8546   -0.3127   -0.4267 C   0  0  0  0  0  0  0  0  0  0  0  0
   -2.7770   -0.3101   -0.0134 N   0  0  0  0  0  0  0  0  0  0  0  0
   -5.0377    0.9215    2.0922 C   0  0  0  0  0  0  0  0  0  0  0  0
   -5.7411   -0.2915    2.0098 C   0  0  0  0  0  0  0  0  0  0  0  0
   -7.1767   -0.2925    2.0574 N   0  0  0  0  0  0  0  0  0  0  0  0
   -7.8274    0.2658    3.2236 C   0  0  0  0  0  0  0  0  0  0  0  0
   -7.2672    0.0715    4.4981 C   0  0  0  0  0  0  0  0  0  0  0  0
   -7.8611    0.6237    5.6258 C   0  0  0  0  0  0  0  0  0  0  0  0
   -9.0286    1.3871    5.5031 C   0  0  0  0  0  0  0  0  0  0  0  0
   -9.6753    1.9582    6.7326 C   0  0  0  0  0  0  0  0  0  0  0  0
   -9.6198    1.5592    4.2377 C   0  0  0  0  0  0  0  0  0  0  0  0
   -9.0149    1.0051    3.0985 C   0  0  0  0  0  0  0  0  0  0  0  0
   -7.9243   -1.1529    1.1870 C   0  0  0  0  0  0  0  0  0  0  0  0
   -8.0611   -2.5212    1.4831 C   0  0  0  0  0  0  0  0  0  0  0  0
   -8.7760   -3.3566    0.6264 C   0  0  0  0  0  0  0  0  0  0  0  0
   -9.3753   -2.8420   -0.5330 C   0  0  0  0  0  0  0  0  0  0  0  0
  -10.1381   -3.7540   -1.4356 C   0  0  0  0  0  0  0  0  0  0  0  0
   -9.3072   -1.4599   -0.7929 C   0  0  0  0  0  0  0  0  0  0  0  0
   -8.5884   -0.6256    0.0666 C   0  0  0  0  0  0  0  0  0  0  0  0
   -4.9779   -1.3354    2.5426 C   0  0  0  0  0  0  0  0  0  0  0  0
   -4.7794   -2.8992    1.9649 S   0  0  0  0  0  0  0  0  0  0  0  0
   -3.2160   -3.1672    2.5842 C   0  0  0  0  0  0  0  0  0  0  0  0
   -2.8443   -1.9863    3.2590 C   0  0  0  0  0  0  0  0  0  0  0  0
   -1.6243   -1.8879    4.0295 N   0  0  0  0  0  0  0  0  0  0  0  0
   -1.2992   -2.9907    4.8939 C   0  0  0  0  0  0  0  0  0  0  0  0
   -2.2492   -3.4857    5.7857 C   0  0  0  0  0  0  0  0  0  0  0  0
   -1.9215   -4.5217    6.6703 C   0  0  0  0  0  0  0  0  0  0  0  0
   -0.6404   -5.0828    6.6615 C   0  0  0  0  0  0  0  0  0  0  0  0
   -0.3168   -6.2317    7.5667 C   0  0  0  0  0  0  0  0  0  0  0  0
    0.3126   -4.6106    5.7439 C   0  0  0  0  0  0  0  0  0  0  0  0
   -0.0139   -3.5657    4.8673 C   0  0  0  0  0  0  0  0  0  0  0  0
   -0.7713   -0.7251    4.0180 C   0  0  0  0  0  0  0  0  0  0  0  0
   -0.1993   -0.2610    5.2153 C   0  0  0  0  0  0  0  0  0  0  0  0
    0.6851    0.8195    5.2138 C   0  0  0  0  0  0  0  0  0  0  0  0
    1.0252    1.4534    4.0133 C   0  0  0  0  0  0  0  0  0  0  0  0
    1.9664    2.6225    4.0060 C   0  0  0  0  0  0  0  0  0  0  0  0
    0.4460    1.0057    2.8097 C   0  0  0  0  0  0  0  0  0  0  0  0
   -0.4408   -0.0744    2.8123 C   0  0  0  0  0  0  0  0  0  0  0  0
   -3.8099   -0.9779    3.1530 C   0  0  0  0  0  0  0  0  0  0  0  0
   -3.6133    0.6869    2.9824 S   0  0  0  0  0  0  0  0  0  0  0  0
   -2.1995   -3.8151    1.7516 C   0  0  0  0  0  0  0  0  0  0  0  0
   -1.8591   -5.1766    1.5802 C   0  0  0  0  0  0  0  0  0  0  0  0
   -2.6658   -6.3138    2.0632 C   0  0  0  0  0  0  0  0  0  0  0  0
   -3.2798   -7.1422    1.0973 C   0  0  0  0  0  0  0  0  0  0  0  0
   -4.1077   -8.1909    1.5010 C   0  0  0  0  0  0  0  0  0  0  0  0
   -4.3307   -8.4211    2.8603 C   0  0  0  0  0  0  0  0  0  0  0  0
   -3.7149   -7.6121    3.8374 C   0  0  0  0  0  0  0  0  0  0  0  0
   -3.9029   -7.9218    5.2966 C   0  0  0  0  0  0  0  0  0  0  0  0
   -2.9442   -9.0272    5.7321 C   0  0  0  0  0  0  0  0  0  0  0  0
   -2.9012   -6.5403    3.4211 C   0  0  0  0  0  0  0  0  0  0  0  0
   -0.8152   -5.3036    0.6355 C   0  0  0  0  0  0  0  0  0  0  0  0
    0.2544   -6.5646    0.1512 S   0  0  0  0  0  0  0  0  0  0  0  0
    1.0978   -5.5058   -0.8996 C   0  0  0  0  0  0  0  0  0  0  0  0
    2.3496   -5.4045   -1.4742 C   0  0  0  0  0  0  0  0  0  0  0  0
    3.4884   -6.2173   -1.3559 C   0  0  0  0  0  0  0  0  0  0  0  0
    4.7702   -5.6890   -1.7216 C   0  0  0  0  0  0  0  0  0  0  0  0
    5.8456   -6.4925   -1.5287 N   0  0  0  0  0  0  0  0  0  0  0  0
    5.0939   -7.8226   -0.8839 S   0  0  0  0  0  0  0  0  0  0  0  0
    3.4753   -7.4679   -0.8227 N   0  0  0  0  0  0  0  0  0  0  0  0
    4.8396   -4.3909   -2.2490 C   0  0  0  0  0  0  0  0  0  0  0  0
    5.8654   -3.5849   -2.6915 C   0  0  0  0  0  0  0  0  0  0  0  0
    7.5787   -3.5063   -2.8170 S   0  0  0  0  0  0  0  0  0  0  0  0
    7.4938   -1.9031   -3.4606 C   0  0  0  0  0  0  0  0  0  0  0  0
    8.4296   -0.9036   -3.7998 C   0  0  0  0  0  0  0  0  0  0  0  0
    9.8707   -1.1647   -3.8840 C   0  0  0  0  0  0  0  0  0  0  0  0
   10.4708   -1.3809   -5.1308 C   0  0  0  0  0  0  0  0  0  0  0  0
   11.8493   -1.6376   -5.2191 C   0  0  0  0  0  0  0  0  0  0  0  0
   12.6332   -1.6497   -4.0629 C   0  0  0  0  0  0  0  0  0  0  0  0
   12.0496   -1.4203   -2.8105 C   0  0  0  0  0  0  0  0  0  0  0  0
   12.8847   -1.3951   -1.5668 C   0  0  0  0  0  0  0  0  0  0  0  0
   13.2073   -2.8123   -1.0883 C   0  0  0  0  0  0  0  0  0  0  0  0
   10.6572   -1.2113   -2.7205 C   0  0  0  0  0  0  0  0  0  0  0  0
    7.7810    0.2973   -4.1810 C   0  0  0  0  0  0  0  0  0  0  0  0
    6.0997    0.0532   -4.1140 S   0  0  0  0  0  0  0  0  0  0  0  0
    6.1969   -1.5246   -3.6181 C   0  0  0  0  0  0  0  0  0  0  0  0
    5.2885   -2.4562   -3.1720 C   0  0  0  0  0  0  0  0  0  0  0  0
    3.9497   -2.4495   -3.0770 N   0  0  0  0  0  0  0  0  0  0  0  0
    3.6771   -3.6038   -2.4023 C   0  0  0  0  0  0  0  0  0  0  0  0
    2.4581   -4.0679   -1.8950 C   0  0  0  0  0  0  0  0  0  0  0  0
    1.4157   -3.3180   -1.4117 N   0  0  0  0  0  0  0  0  0  0  0  0
    0.5930   -4.2470   -0.8657 C   0  0  0  0  0  0  0  0  0  0  0  0
   -0.4504   -4.1307    0.0347 C   0  0  0  0  0  0  0  0  0  0  0  0
   -1.2791   -2.8659    0.6959 S   0  0  0  0  0  0  0  0  0  0  0  0
    1.4823   -1.9179   -0.9237 C   0  0  0  0  0  0  0  0  0  0  0  0
    2.1885   -1.8431    0.4325 C   0  0  0  0  0  0  0  0  0  0  0  0
    3.0425   -1.6033   -3.8818 C   0  0  0  0  0  0  0  0  0  0  0  0
    3.1841   -1.9189   -5.3766 C   0  0  0  0  0  0  0  0  0  0  0  0
    8.3407    1.6713   -4.2492 C   0  0  0  0  0  0  0  0  0  0  0  0
    7.5102    2.6619   -4.8215 C   0  0  0  0  0  0  0  0  0  0  0  0
    7.5775    3.9730   -4.3353 C   0  0  0  0  0  0  0  0  0  0  0  0
    6.5535    4.8683   -4.3174 N   0  0  0  0  0  0  0  0  0  0  0  0
    5.2155    4.6824   -4.8849 C   0  0  0  0  0  0  0  0  0  0  0  0
    4.3542    3.8237   -3.9546 C   0  0  0  0  0  0  0  0  0  0  0  0
    6.9014    5.7867   -3.3825 C   0  0  0  0  0  0  0  0  0  0  0  0
    8.1733    5.5419   -2.8876 C   0  0  0  0  0  0  0  0  0  0  0  0
    8.5872    4.3499   -3.4710 C   0  0  0  0  0  0  0  0  0  0  0  0
    9.5748    3.4481   -3.0644 C   0  0  0  0  0  0  0  0  0  0  0  0
    9.4404    2.0937   -3.4487 C   0  0  0  0  0  0  0  0  0  0  0  0
    8.6811    6.2461   -1.7964 C   0  0  0  0  0  0  0  0  0  0  0  0
    7.8478    7.1860   -1.1748 C   0  0  0  0  0  0  0  0  0  0  0  0
    6.5049    7.3799   -1.6029 C   0  0  0  0  0  0  0  0  0  0  0  0
    6.0324    6.6692   -2.7212 C   0  0  0  0  0  0  0  0  0  0  0  0
    5.5624    8.0196   -0.6408 C   0  0  0  0  0  0  0  0  0  0  0  0
    4.2712    8.3915   -0.8891 C   0  0  0  0  0  0  0  0  0  0  0  0
    3.6875    8.7181   -2.1943 C   0  0  0  0  0  0  0  0  0  0  0  0
    4.3377    8.9878   -3.2499 O   0  0  0  0  0  0  0  0  0  0  0  0
    2.2641    8.8286   -2.0498 C   0  0  0  0  0  0  0  0  0  0  0  0
    1.2951    8.9320   -3.0629 C   0  0  0  0  0  0  0  0  0  0  0  0
   -0.0613    8.8272   -2.7100 C   0  0  0  0  0  0  0  0  0  0  0  0
   -1.0708    8.9149   -3.6836 C   0  0  0  0  0  0  0  0  0  0  0  0
   -2.4205    8.7920   -3.3225 C   0  0  0  0  0  0  0  0  0  0  0  0
   -2.7682    8.5816   -1.9870 C   0  0  0  0  0  0  0  0  0  0  0  0
   -1.7766    8.4895   -1.0032 C   0  0  0  0  0  0  0  0  0  0  0  0
   -0.4224    8.6069   -1.3498 C   0  0  0  0  0  0  0  0  0  0  0  0
    0.5700    8.5096   -0.3611 C   0  0  0  0  0  0  0  0  0  0  0  0
    1.9162    8.6658   -0.7151 C   0  0  0  0  0  0  0  0  0  0  0  0
    3.1421    8.5026    0.1039 C   0  0  0  0  0  0  0  0  0  0  0  0
    3.1896    8.4640    1.4682 C   0  0  0  0  0  0  0  0  0  0  0  0
    4.3698    8.1178    2.2303 C   0  0  0  0  0  0  0  0  0  0  0  0
    5.2785    7.8243    2.8851 N   0  0  0  0  0  0  0  0  0  0  0  0
    2.0638    8.8299    2.3035 C   0  0  0  0  0  0  0  0  0  0  0  0
    1.1629    9.1375    2.9810 N   0  0  0  0  0  0  0  0  0  0  0  0
   -4.8127    3.0410    1.5687 H   0  0  0  0  0  0  0  0  0  0  0  0
   -6.5161    4.6395   -3.3014 H   0  0  0  0  0  0  0  0  0  0  0  0
   -7.0973    4.7044   -5.7368 H   0  0  0  0  0  0  0  0  0  0  0  0
   -7.5413    3.4918   -7.8371 H   0  0  0  0  0  0  0  0  0  0  0  0
   -7.7579    1.0136   -7.8475 H   0  0  0  0  0  0  0  0  0  0  0  0
   -7.5456   -0.2562   -5.7566 H   0  0  0  0  0  0  0  0  0  0  0  0
   -7.0197   -0.3231   -3.3972 H   0  0  0  0  0  0  0  0  0  0  0  0
   -6.3640   -0.5042    4.6366 H   0  0  0  0  0  0  0  0  0  0  0  0
   -7.4068    0.4442    6.5923 H   0  0  0  0  0  0  0  0  0  0  0  0
  -10.1304    2.9427    6.5003 H   0  0  0  0  0  0  0  0  0  0  0  0
   -8.9207    2.1011    7.5335 H   0  0  0  0  0  0  0  0  0  0  0  0
  -10.4573    1.2575    7.0871 H   0  0  0  0  0  0  0  0  0  0  0  0
  -10.5353    2.1321    4.1291 H   0  0  0  0  0  0  0  0  0  0  0  0
   -9.4609    1.1745    2.1293 H   0  0  0  0  0  0  0  0  0  0  0  0
   -7.6248   -2.9115    2.3902 H   0  0  0  0  0  0  0  0  0  0  0  0
   -8.8425   -4.4148    0.8636 H   0  0  0  0  0  0  0  0  0  0  0  0
  -10.2190   -3.3236   -2.4528 H   0  0  0  0  0  0  0  0  0  0  0  0
  -11.1571   -3.9276   -1.0314 H   0  0  0  0  0  0  0  0  0  0  0  0
   -9.6189   -4.7403   -1.5221 H   0  0  0  0  0  0  0  0  0  0  0  0
   -9.7961   -1.0364   -1.6586 H   0  0  0  0  0  0  0  0  0  0  0  0
   -8.5543    0.4400   -0.1386 H   0  0  0  0  0  0  0  0  0  0  0  0
   -3.2318   -3.0399    5.8515 H   0  0  0  0  0  0  0  0  0  0  0  0
   -2.6767   -4.8726    7.3640 H   0  0  0  0  0  0  0  0  0  0  0  0
    0.7634   -6.2231    7.8406 H   0  0  0  0  0  0  0  0  0  0  0  0
   -0.9063   -6.1761    8.5082 H   0  0  0  0  0  0  0  0  0  0  0  0
   -0.5519   -7.1865    7.0510 H   0  0  0  0  0  0  0  0  0  0  0  0
    1.3076   -5.0423    5.7032 H   0  0  0  0  0  0  0  0  0  0  0  0
    0.7302   -3.1970    4.1814 H   0  0  0  0  0  0  0  0  0  0  0  0
   -0.4308   -0.7401    6.1599 H   0  0  0  0  0  0  0  0  0  0  0  0
    1.1196    1.1463    6.1582 H   0  0  0  0  0  0  0  0  0  0  0  0
    2.4743    2.7409    4.9858 H   0  0  0  0  0  0  0  0  0  0  0  0
    2.7440    2.4842    3.2222 H   0  0  0  0  0  0  0  0  0  0  0  0
    1.4009    3.5517    3.7846 H   0  0  0  0  0  0  0  0  0  0  0  0
    0.6973    1.5011    1.8731 H   0  0  0  0  0  0  0  0  0  0  0  0
   -0.8567   -0.3960    1.8786 H   0  0  0  0  0  0  0  0  0  0  0  0
   -3.1541   -6.9583    0.0381 H   0  0  0  0  0  0  0  0  0  0  0  0
   -4.5914   -8.8201    0.7541 H   0  0  0  0  0  0  0  0  0  0  0  0
   -4.9591   -9.2631    3.1606 H   0  0  0  0  0  0  0  0  0  0  0  0
   -3.7208   -7.0173    5.9126 H   0  0  0  0  0  0  0  0  0  0  0  0
   -4.9543   -8.2404    5.4855 H   0  0  0  0  0  0  0  0  0  0  0  0
   -1.8907   -8.6935    5.5971 H   0  0  0  0  0  0  0  0  0  0  0  0
   -3.1050   -9.9503    5.1265 H   0  0  0  0  0  0  0  0  0  0  0  0
   -3.1098   -9.2654    6.7956 H   0  0  0  0  0  0  0  0  0  0  0  0
   -2.4182   -5.9087    4.1534 H   0  0  0  0  0  0  0  0  0  0  0  0
    9.8727   -1.3675   -6.0358 H   0  0  0  0  0  0  0  0  0  0  0  0
   12.2988   -1.8124   -6.1892 H   0  0  0  0  0  0  0  0  0  0  0  0
   13.7006   -1.8354   -4.1493 H   0  0  0  0  0  0  0  0  0  0  0  0
   12.3631   -0.8309   -0.7524 H   0  0  0  0  0  0  0  0  0  0  0  0
   13.8382   -0.8537   -1.7660 H   0  0  0  0  0  0  0  0  0  0  0  0
   12.3576   -3.5050   -1.2787 H   0  0  0  0  0  0  0  0  0  0  0  0
   13.3963   -2.7939    0.0039 H   0  0  0  0  0  0  0  0  0  0  0  0
   14.1127   -3.1961   -1.6094 H   0  0  0  0  0  0  0  0  0  0  0  0
   10.1911   -1.0439   -1.7494 H   0  0  0  0  0  0  0  0  0  0  0  0
    0.4595   -1.4771   -0.8522 H   0  0  0  0  0  0  0  0  0  0  0  0
    2.0417   -1.2535   -1.5945 H   0  0  0  0  0  0  0  0  0  0  0  0
    3.2528   -2.1396    0.3248 H   0  0  0  0  0  0  0  0  0  0  0  0
    2.1465   -0.7938    0.8001 H   0  0  0  0  0  0  0  0  0  0  0  0
    1.6926   -2.5005    1.1774 H   0  0  0  0  0  0  0  0  0  0  0  0
    1.9877   -1.7979   -3.6170 H   0  0  0  0  0  0  0  0  0  0  0  0
    3.2569   -0.5273   -3.6863 H   0  0  0  0  0  0  0  0  0  0  0  0
    2.6930   -1.1172   -5.9586 H   0  0  0  0  0  0  0  0  0  0  0  0
    2.6837   -2.8783   -5.6055 H   0  0  0  0  0  0  0  0  0  0  0  0
    4.2498   -1.9622   -5.6881 H   0  0  0  0  0  0  0  0  0  0  0  0
    6.6718    2.3892   -5.4506 H   0  0  0  0  0  0  0  0  0  0  0  0
    5.2880    4.1883   -5.8759 H   0  0  0  0  0  0  0  0  0  0  0  0
    4.7249    5.6678   -5.0495 H   0  0  0  0  0  0  0  0  0  0  0  0
    4.3672    4.2303   -2.9207 H   0  0  0  0  0  0  0  0  0  0  0  0
    4.7348    2.7898   -3.9341 H   0  0  0  0  0  0  0  0  0  0  0  0
    3.3121    3.7900   -4.3377 H   0  0  0  0  0  0  0  0  0  0  0  0
   10.3229    3.7397   -2.3327 H   0  0  0  0  0  0  0  0  0  0  0  0
   10.0988    1.3822   -2.9842 H   0  0  0  0  0  0  0  0  0  0  0  0
    9.6584    6.0212   -1.3901 H   0  0  0  0  0  0  0  0  0  0  0  0
    8.2049    7.6721   -0.2828 H   0  0  0  0  0  0  0  0  0  0  0  0
    5.0007    6.6362   -2.9871 H   0  0  0  0  0  0  0  0  0  0  0  0
    5.9060    7.9977    0.3799 H   0  0  0  0  0  0  0  0  0  0  0  0
    1.5926    9.0518   -4.1020 H   0  0  0  0  0  0  0  0  0  0  0  0
   -0.8173    9.0940   -4.7284 H   0  0  0  0  0  0  0  0  0  0  0  0
   -3.1901    8.8843   -4.0741 H   0  0  0  0  0  0  0  0  0  0  0  0
   -3.8089    8.5216   -1.7026 H   0  0  0  0  0  0  0  0  0  0  0  0
   -2.0765    8.3353    0.0368 H   0  0  0  0  0  0  0  0  0  0  0  0
    0.2819    8.2628    0.6441 H   0  0  0  0  0  0  0  0  0  0  0  0
  1  2  2  3
  2  3  1  0
  3  4  2  0
  3  5  1  0
  5  6  2  0
  6  7  1  0
  7  8  2  0
  8  9  1  0
  9 10  2  0
 10 11  1  0
 11 12  2  0
 12 13  1  0
 13 14  2  0
 14 15  1  0
 15 16  2  3
 16 17  1  0
 17 18  3  0
 16 19  1  0
 19 20  3  0
  1 21  1  0
 21 22  2  0
 22 23  1  0
 23 24  1  0
 24 25  2  0
 25 26  1  0
 26 27  2  0
 27 28  1  0
 27 29  1  0
 29 30  2  0
 23 31  1  0
 31 32  2  0
 32 33  1  0
 33 34  2  0
 34 35  1  0
 34 36  1  0
 36 37  2  0
 22 38  1  0
 38 39  1  0
 39 40  1  0
 40 41  2  0
 41 42  1  0
 42 43  1  0
 43 44  2  0
 44 45  1  0
 45 46  2  0
 46 47  1  0
 46 48  1  0
 48 49  2  0
 42 50  1  0
 50 51  2  0
 51 52  1  0
 52 53  2  0
 53 54  1  0
 53 55  1  0
 55 56  2  0
 41 57  1  0
 57 58  1  0
 40 59  1  0
 59 60  2  0
 60 61  1  0
 61 62  2  0
 62 63  1  0
 63 64  2  0
 64 65  1  0
 65 66  1  0
 66 67  1  0
 65 68  2  0
 60 69  1  0
 69 70  1  0
 70 71  1  0
 71 72  1  0
 72 73  1  0
 73 74  1  0
 74 75  2  0
 75 76  1  0
 76 77  1  0
 74 78  1  0
 78 79  1  0
 79 80  1  0
 80 81  1  0
 81 82  1  0
 82 83  1  0
 83 84  2  0
 84 85  1  0
 85 86  2  0
 86 87  1  0
 87 88  1  0
 88 89  1  0
 87 90  2  0
 82 91  2  0
 91 92  1  0
 92 93  1  0
 93 94  1  0
 94 95  1  0
 95 96  1  0
 96 97  1  0
 97 98  1  0
 98 99  1  0
 99100  1  0
100101  1  0
 98102  1  0
102103  1  0
 95104  1  0
104105  1  0
 91106  1  0
106107  2  0
107108  1  0
108109  1  0
109110  1  0
110111  1  0
109112  1  0
112113  2  0
113114  1  0
114115  1  0
115116  2  0
113117  1  0
117118  2  0
118119  1  0
119120  2  0
119121  1  0
121122  2  3
122123  1  0
123124  2  0
123125  1  0
125126  2  0
126127  1  0
127128  2  0
128129  1  0
129130  2  0
130131  1  0
131132  2  0
132133  1  0
133134  2  0
134135  1  0
135136  2  3
136137  1  0
137138  3  0
136139  1  0
139140  3  0
 15  2  1  0
 58 21  1  0
101 59  1  0
116106  1  0
135122  1  0
 14  5  1  0
 30 24  1  0
 37 31  1  0
 57 38  2  0
 68 61  1  0
100 69  2  0
114108  2  0
134125  1  0
 12  7  1  0
 49 43  1  0
 56 50  1  0
 99 71  2  0
120112  1  0
132127  1  0
 97 72  2  0
 77 73  2  0
 96 78  2  0
 94 79  2  0
 93 81  2  0
 90 83  1  0
  1141  1  0
  6142  1  0
  8143  1  0
  9144  1  0
 10145  1  0
 11146  1  0
 13147  1  0
 25148  1  0
 26149  1  0
 28150  1  0
 28151  1  0
 28152  1  0
 29153  1  0
 30154  1  0
 32155  1  0
 33156  1  0
 35157  1  0
 35158  1  0
 35159  1  0
 36160  1  0
 37161  1  0
 44162  1  0
 45163  1  0
 47164  1  0
 47165  1  0
 47166  1  0
 48167  1  0
 49168  1  0
 51169  1  0
 52170  1  0
 54171  1  0
 54172  1  0
 54173  1  0
 55174  1  0
 56175  1  0
 62176  1  0
 63177  1  0
 64178  1  0
 66179  1  0
 66180  1  0
 67181  1  0
 67182  1  0
 67183  1  0
 68184  1  0
 84185  1  0
 85186  1  0
 86187  1  0
 88188  1  0
 88189  1  0
 89190  1  0
 89191  1  0
 89192  1  0
 90193  1  0
102194  1  0
102195  1  0
103196  1  0
103197  1  0
103198  1  0
104199  1  0
104200  1  0
105201  1  0
105202  1  0
105203  1  0
107204  1  0
110205  1  0
110206  1  0
111207  1  0
111208  1  0
111209  1  0
115210  1  0
116211  1  0
117212  1  0
118213  1  0
120214  1  0
121215  1  0
126216  1  0
128217  1  0
129218  1  0
130219  1  0
131220  1  0
133221  1  0
M  END

