
     RDKit          3D

186205  0  0  0  0  0  0  0  0999 V2000
    9.3800   -0.3530    6.9422 C   0  0  0  0  0  0  0  0  0  0  0  0
    9.8088   -0.9767    5.8253 C   0  0  0  0  0  0  0  0  0  0  0  0
    8.9270   -1.5750    4.8139 C   0  0  0  0  0  0  0  0  0  0  0  0
    7.7673   -2.0299    5.0060 O   0  0  0  0  0  0  0  0  0  0  0  0
    9.6101   -1.5610    3.5450 C   0  0  0  0  0  0  0  0  0  0  0  0
    9.0784   -1.8621    2.2926 C   0  0  0  0  0  0  0  0  0  0  0  0
    9.8669   -1.6337    1.1548 C   0  0  0  0  0  0  0  0  0  0  0  0
    9.3562   -1.8932   -0.1262 C   0  0  0  0  0  0  0  0  0  0  0  0
   10.1356   -1.6390   -1.2564 C   0  0  0  0  0  0  0  0  0  0  0  0
   11.4272   -1.1259   -1.1192 C   0  0  0  0  0  0  0  0  0  0  0  0
   11.9516   -0.8663    0.1508 C   0  0  0  0  0  0  0  0  0  0  0  0
   11.1826   -1.1112    1.2984 C   0  0  0  0  0  0  0  0  0  0  0  0
   11.6946   -0.8259    2.5828 C   0  0  0  0  0  0  0  0  0  0  0  0
   10.8925   -1.0698    3.7105 C   0  0  0  0  0  0  0  0  0  0  0  0
   11.1341   -0.7949    5.1608 C   0  0  0  0  0  0  0  0  0  0  0  0
   12.3277   -0.5833    5.7727 C   0  0  0  0  0  0  0  0  0  0  0  0
   12.4606   -0.5599    7.2041 C   0  0  0  0  0  0  0  0  0  0  0  0
   12.5935   -0.5487    8.3563 N   0  0  0  0  0  0  0  0  0  0  0  0
   13.5610   -0.4671    5.0399 C   0  0  0  0  0  0  0  0  0  0  0  0
   14.5616   -0.3654    4.4630 N   0  0  0  0  0  0  0  0  0  0  0  0
    7.9510   -0.0877    7.1521 C   0  0  0  0  0  0  0  0  0  0  0  0
    7.0321   -0.9564    7.7271 C   0  0  0  0  0  0  0  0  0  0  0  0
    5.6958   -0.6467    7.4078 C   0  0  0  0  0  0  0  0  0  0  0  0
    4.3851   -1.6932    7.9205 Cl  0  0  0  0  0  0  0  0  0  0  0  0
    5.5653    0.4662    6.5604 C   0  0  0  0  0  0  0  0  0  0  0  0
    7.1151    1.0419    6.2478 S   0  0  0  0  0  0  0  0  0  0  0  0
    4.3857    0.9488    5.8113 C   0  0  0  0  0  0  0  0  0  0  0  0
    4.5482    1.9742    4.4438 S   0  0  0  0  0  0  0  0  0  0  0  0
    2.9211    1.9467    4.1235 C   0  0  0  0  0  0  0  0  0  0  0  0
    2.0286    2.3541    3.1861 C   0  0  0  0  0  0  0  0  0  0  0  0
    1.9943    3.2150    1.7359 S   0  0  0  0  0  0  0  0  0  0  0  0
    0.3262    2.8853    1.6236 C   0  0  0  0  0  0  0  0  0  0  0  0
   -0.6757    3.1244    0.6319 C   0  0  0  0  0  0  0  0  0  0  0  0
   -1.8417    2.4909    1.0601 C   0  0  0  0  0  0  0  0  0  0  0  0
   -1.6717    1.8435    2.4457 C   0  0  0  0  0  0  0  0  0  0  0  0
   -1.9495    0.3328    2.3533 C   0  0  0  0  0  0  0  0  0  0  0  0
   -2.7991   -0.3404    3.2586 C   0  0  0  0  0  0  0  0  0  0  0  0
   -3.1148   -1.6898    3.0736 C   0  0  0  0  0  0  0  0  0  0  0  0
   -2.5988   -2.4043    1.9896 C   0  0  0  0  0  0  0  0  0  0  0  0
   -3.0031   -3.7384    1.8140 O   0  0  0  0  0  0  0  0  0  0  0  0
   -2.7486   -4.5382    0.6595 C   0  0  0  0  0  0  0  0  0  0  0  0
   -3.6143   -4.0896   -0.5149 C   0  0  0  0  0  0  0  0  0  0  0  0
   -1.6993   -1.7640    1.1192 C   0  0  0  0  0  0  0  0  0  0  0  0
   -1.3722   -0.4192    1.3077 C   0  0  0  0  0  0  0  0  0  0  0  0
   -2.5487    2.6189    3.4493 C   0  0  0  0  0  0  0  0  0  0  0  0
   -3.9542    2.5846    3.3264 C   0  0  0  0  0  0  0  0  0  0  0  0
   -4.7748    3.3148    4.1896 C   0  0  0  0  0  0  0  0  0  0  0  0
   -4.2126    4.1241    5.1919 C   0  0  0  0  0  0  0  0  0  0  0  0
   -4.9869    4.8987    6.0739 O   0  0  0  0  0  0  0  0  0  0  0  0
   -6.4128    4.9116    6.1400 C   0  0  0  0  0  0  0  0  0  0  0  0
   -6.9267    3.6764    6.8714 C   0  0  0  0  0  0  0  0  0  0  0  0
   -2.8233    4.1791    5.3136 C   0  0  0  0  0  0  0  0  0  0  0  0
   -2.0000    3.4442    4.4560 C   0  0  0  0  0  0  0  0  0  0  0  0
   -0.1842    2.1118    2.6366 C   0  0  0  0  0  0  0  0  0  0  0  0
    0.8287    1.8094    3.5465 C   0  0  0  0  0  0  0  0  0  0  0  0
    0.9231    1.0814    4.6952 N   0  0  0  0  0  0  0  0  0  0  0  0
    2.2437    1.1841    5.0092 C   0  0  0  0  0  0  0  0  0  0  0  0
    3.0313    0.5921    5.9984 C   0  0  0  0  0  0  0  0  0  0  0  0
   -0.0917    0.2796    5.3758 C   0  0  0  0  0  0  0  0  0  0  0  0
    0.0220   -1.1826    4.9625 C   0  0  0  0  0  0  0  0  0  0  0  0
   -2.8902    2.2956    0.1504 C   0  0  0  0  0  0  0  0  0  0  0  0
   -2.7498    2.8441   -1.1284 C   0  0  0  0  0  0  0  0  0  0  0  0
   -3.4534    2.4565   -2.3206 C   0  0  0  0  0  0  0  0  0  0  0  0
   -2.6773    2.7987   -3.4040 C   0  0  0  0  0  0  0  0  0  0  0  0
   -1.7750    3.9828   -3.0145 C   0  0  0  0  0  0  0  0  0  0  0  0
   -1.6059    3.5499   -1.5392 C   0  0  0  0  0  0  0  0  0  0  0  0
   -0.5129    3.6428   -0.6539 C   0  0  0  0  0  0  0  0  0  0  0  0
   -2.6099    5.2746   -3.0337 C   0  0  0  0  0  0  0  0  0  0  0  0
   -2.3351    6.3210   -2.1288 C   0  0  0  0  0  0  0  0  0  0  0  0
   -3.0660    7.5121   -2.1606 C   0  0  0  0  0  0  0  0  0  0  0  0
   -4.0738    7.7016   -3.1236 C   0  0  0  0  0  0  0  0  0  0  0  0
   -4.8413    8.8748   -3.1996 O   0  0  0  0  0  0  0  0  0  0  0  0
   -4.8076    9.9465   -2.2574 C   0  0  0  0  0  0  0  0  0  0  0  0
   -5.5685    9.5752   -0.9888 C   0  0  0  0  0  0  0  0  0  0  0  0
   -4.3173    6.6892   -4.0536 C   0  0  0  0  0  0  0  0  0  0  0  0
   -3.5911    5.4966   -4.0225 C   0  0  0  0  0  0  0  0  0  0  0  0
   -0.5626    4.2856   -3.9096 C   0  0  0  0  0  0  0  0  0  0  0  0
    0.5631    4.9866   -3.4276 C   0  0  0  0  0  0  0  0  0  0  0  0
    1.6084    5.3577   -4.2793 C   0  0  0  0  0  0  0  0  0  0  0  0
    1.4966    5.1700   -5.6654 C   0  0  0  0  0  0  0  0  0  0  0  0
    2.5197    5.5179   -6.5617 O   0  0  0  0  0  0  0  0  0  0  0  0
    3.7788    6.0614   -6.1661 C   0  0  0  0  0  0  0  0  0  0  0  0
    4.6438    6.2915   -7.3936 C   0  0  0  0  0  0  0  0  0  0  0  0
    0.3090    4.6532   -6.1756 C   0  0  0  0  0  0  0  0  0  0  0  0
   -0.7176    4.2458   -5.3145 C   0  0  0  0  0  0  0  0  0  0  0  0
   -2.9474    1.9257   -4.4828 C   0  0  0  0  0  0  0  0  0  0  0  0
   -4.0796    1.1699   -4.2490 C   0  0  0  0  0  0  0  0  0  0  0  0
   -4.5601    1.2129   -2.6320 S   0  0  0  0  0  0  0  0  0  0  0  0
   -4.0544    0.1462   -5.1397 C   0  0  0  0  0  0  0  0  0  0  0  0
   -4.6791   -1.4059   -5.1972 S   0  0  0  0  0  0  0  0  0  0  0  0
   -3.4694   -1.9303   -6.2772 C   0  0  0  0  0  0  0  0  0  0  0  0
   -2.5250   -0.9220   -6.4912 C   0  0  0  0  0  0  0  0  0  0  0  0
   -2.8869    0.2475   -5.8167 C   0  0  0  0  0  0  0  0  0  0  0  0
   -2.1175    1.2848   -5.3728 N   0  0  0  0  0  0  0  0  0  0  0  0
   -0.6566    1.1488   -5.2478 C   0  0  0  0  0  0  0  0  0  0  0  0
    0.0473    1.3686   -6.5894 C   0  0  0  0  0  0  0  0  0  0  0  0
   -3.4204   -3.2598   -6.8810 C   0  0  0  0  0  0  0  0  0  0  0  0
   -3.2959   -3.5203   -8.2381 C   0  0  0  0  0  0  0  0  0  0  0  0
   -3.4000   -4.8807   -8.5492 C   0  0  0  0  0  0  0  0  0  0  0  0
   -3.2726   -5.4587  -10.2006 Cl  0  0  0  0  0  0  0  0  0  0  0  0
   -3.6024   -5.7046   -7.4380 C   0  0  0  0  0  0  0  0  0  0  0  0
   -3.6223   -4.7128   -6.0678 S   0  0  0  0  0  0  0  0  0  0  0  0
   -3.6067   -7.1891   -7.4858 C   0  0  0  0  0  0  0  0  0  0  0  0
   -3.8347   -8.0286   -6.4576 C   0  0  0  0  0  0  0  0  0  0  0  0
   -3.2662   -9.3742   -6.4221 C   0  0  0  0  0  0  0  0  0  0  0  0
   -2.8565  -10.0293   -7.4197 O   0  0  0  0  0  0  0  0  0  0  0  0
   -3.1724   -9.7931   -5.0369 C   0  0  0  0  0  0  0  0  0  0  0  0
   -2.5610  -10.9350   -4.5115 C   0  0  0  0  0  0  0  0  0  0  0  0
   -1.9984  -11.8773   -5.3849 O   0  0  0  0  0  0  0  0  0  0  0  0
   -1.3502  -13.0745   -4.9658 C   0  0  0  0  0  0  0  0  0  0  0  0
   -2.5360  -11.0790   -3.1081 C   0  0  0  0  0  0  0  0  0  0  0  0
   -3.0784  -10.0787   -2.2799 C   0  0  0  0  0  0  0  0  0  0  0  0
   -3.6722   -8.9352   -2.8368 C   0  0  0  0  0  0  0  0  0  0  0  0
   -3.7325   -8.8146   -4.2312 C   0  0  0  0  0  0  0  0  0  0  0  0
   -4.3200   -7.7428   -5.0795 C   0  0  0  0  0  0  0  0  0  0  0  0
   -5.4266   -7.0253   -4.7737 C   0  0  0  0  0  0  0  0  0  0  0  0
   -5.8891   -6.8567   -3.4230 C   0  0  0  0  0  0  0  0  0  0  0  0
   -6.2544   -6.7060   -2.3320 N   0  0  0  0  0  0  0  0  0  0  0  0
   -6.2654   -6.4654   -5.8056 C   0  0  0  0  0  0  0  0  0  0  0  0
   -6.9428   -6.0138   -6.6309 N   0  0  0  0  0  0  0  0  0  0  0  0
   10.0610    0.2377    7.5344 H   0  0  0  0  0  0  0  0  0  0  0  0
    8.0653   -2.2342    2.2066 H   0  0  0  0  0  0  0  0  0  0  0  0
    8.3546   -2.2882   -0.2535 H   0  0  0  0  0  0  0  0  0  0  0  0
    9.7362   -1.8350   -2.2426 H   0  0  0  0  0  0  0  0  0  0  0  0
   12.0256   -0.9325   -2.0010 H   0  0  0  0  0  0  0  0  0  0  0  0
   12.9577   -0.4656    0.2345 H   0  0  0  0  0  0  0  0  0  0  0  0
   12.6701   -0.3778    2.6727 H   0  0  0  0  0  0  0  0  0  0  0  0
    7.3184   -1.8408    8.2821 H   0  0  0  0  0  0  0  0  0  0  0  0
   -3.2274    0.1650    4.1125 H   0  0  0  0  0  0  0  0  0  0  0  0
   -3.7892   -2.1783    3.7655 H   0  0  0  0  0  0  0  0  0  0  0  0
   -3.0037   -5.5920    0.9012 H   0  0  0  0  0  0  0  0  0  0  0  0
   -1.6703   -4.5122    0.3885 H   0  0  0  0  0  0  0  0  0  0  0  0
   -4.6873   -4.1905   -0.2536 H   0  0  0  0  0  0  0  0  0  0  0  0
   -3.3978   -4.7281   -1.3938 H   0  0  0  0  0  0  0  0  0  0  0  0
   -3.4031   -3.0346   -0.7796 H   0  0  0  0  0  0  0  0  0  0  0  0
   -1.2538   -2.2892    0.2871 H   0  0  0  0  0  0  0  0  0  0  0  0
   -0.6902    0.0480    0.6100 H   0  0  0  0  0  0  0  0  0  0  0  0
   -4.4265    1.9727    2.5685 H   0  0  0  0  0  0  0  0  0  0  0  0
   -5.8462    3.2416    4.0650 H   0  0  0  0  0  0  0  0  0  0  0  0
   -6.7286    5.8117    6.7098 H   0  0  0  0  0  0  0  0  0  0  0  0
   -6.8583    4.9871    5.1255 H   0  0  0  0  0  0  0  0  0  0  0  0
   -6.5353    3.6638    7.9125 H   0  0  0  0  0  0  0  0  0  0  0  0
   -6.6008    2.7496    6.3548 H   0  0  0  0  0  0  0  0  0  0  0  0
   -8.0368    3.6959    6.9046 H   0  0  0  0  0  0  0  0  0  0  0  0
   -2.3792    4.8053    6.0752 H   0  0  0  0  0  0  0  0  0  0  0  0
   -0.9362    3.5476    4.5891 H   0  0  0  0  0  0  0  0  0  0  0  0
    2.6418   -0.0540    6.7667 H   0  0  0  0  0  0  0  0  0  0  0  0
    0.0452    0.3630    6.4755 H   0  0  0  0  0  0  0  0  0  0  0  0
   -1.1007    0.6700    5.1433 H   0  0  0  0  0  0  0  0  0  0  0  0
   -0.8077   -1.7648    5.4124 H   0  0  0  0  0  0  0  0  0  0  0  0
   -0.0274   -1.2758    3.8577 H   0  0  0  0  0  0  0  0  0  0  0  0
    0.9883   -1.6032    5.3135 H   0  0  0  0  0  0  0  0  0  0  0  0
   -3.7250    1.6499    0.3852 H   0  0  0  0  0  0  0  0  0  0  0  0
    0.4616    3.9837   -0.9349 H   0  0  0  0  0  0  0  0  0  0  0  0
   -1.5540    6.2211   -1.3894 H   0  0  0  0  0  0  0  0  0  0  0  0
   -2.8299    8.2742   -1.4322 H   0  0  0  0  0  0  0  0  0  0  0  0
   -5.2979   10.8313   -2.7144 H   0  0  0  0  0  0  0  0  0  0  0  0
   -3.7630   10.2363   -2.0289 H   0  0  0  0  0  0  0  0  0  0  0  0
   -6.6522    9.4904   -1.2116 H   0  0  0  0  0  0  0  0  0  0  0  0
   -5.4250   10.3661   -0.2220 H   0  0  0  0  0  0  0  0  0  0  0  0
   -5.2051    8.6105   -0.5796 H   0  0  0  0  0  0  0  0  0  0  0  0
   -5.0714    6.8366   -4.8187 H   0  0  0  0  0  0  0  0  0  0  0  0
   -3.8025    4.7512   -4.7759 H   0  0  0  0  0  0  0  0  0  0  0  0
    0.6092    5.3650   -2.4261 H   0  0  0  0  0  0  0  0  0  0  0  0
    2.4758    5.8452   -3.8511 H   0  0  0  0  0  0  0  0  0  0  0  0
    4.2978    5.3515   -5.4863 H   0  0  0  0  0  0  0  0  0  0  0  0
    3.6268    7.0304   -5.6450 H   0  0  0  0  0  0  0  0  0  0  0  0
    4.8516    5.3242   -7.9043 H   0  0  0  0  0  0  0  0  0  0  0  0
    5.6114    6.7474   -7.0883 H   0  0  0  0  0  0  0  0  0  0  0  0
    4.1336    6.9795   -8.1005 H   0  0  0  0  0  0  0  0  0  0  0  0
    0.1733    4.5727   -7.2487 H   0  0  0  0  0  0  0  0  0  0  0  0
   -1.6434    3.9065   -5.7576 H   0  0  0  0  0  0  0  0  0  0  0  0
   -1.6104   -1.0651   -7.0483 H   0  0  0  0  0  0  0  0  0  0  0  0
   -0.4063    0.1343   -4.8696 H   0  0  0  0  0  0  0  0  0  0  0  0
   -0.2540    1.8328   -4.4833 H   0  0  0  0  0  0  0  0  0  0  0  0
   -0.4963    2.1155   -7.2056 H   0  0  0  0  0  0  0  0  0  0  0  0
    1.0833    1.7316   -6.4153 H   0  0  0  0  0  0  0  0  0  0  0  0
    0.1140    0.4217   -7.1584 H   0  0  0  0  0  0  0  0  0  0  0  0
   -3.1601   -2.7453   -8.9804 H   0  0  0  0  0  0  0  0  0  0  0  0
   -3.2280   -7.6261   -8.3987 H   0  0  0  0  0  0  0  0  0  0  0  0
   -0.4695  -12.8316   -4.3334 H   0  0  0  0  0  0  0  0  0  0  0  0
   -2.0599  -13.7160   -4.4005 H   0  0  0  0  0  0  0  0  0  0  0  0
   -1.0029  -13.6290   -5.8612 H   0  0  0  0  0  0  0  0  0  0  0  0
   -2.0807  -11.9461   -2.6468 H   0  0  0  0  0  0  0  0  0  0  0  0
   -3.0247  -10.1850   -1.2039 H   0  0  0  0  0  0  0  0  0  0  0  0
   -4.0359   -8.1602   -2.1781 H   0  0  0  0  0  0  0  0  0  0  0  0
  1  2  2  3
  2  3  1  0
  3  4  2  0
  3  5  1  0
  5  6  2  0
  6  7  1  0
  7  8  2  0
  8  9  1  0
  9 10  2  0
 10 11  1  0
 11 12  2  0
 12 13  1  0
 13 14  2  0
 14 15  1  0
 15 16  2  3
 16 17  1  0
 17 18  3  0
 16 19  1  0
 19 20  3  0
  1 21  1  0
 21 22  2  0
 22 23  1  0
 23 24  1  0
 23 25  2  0
 25 26  1  0
 25 27  1  0
 27 28  1  0
 28 29  1  0
 29 30  1  0
 30 31  1  0
 31 32  1  0
 32 33  1  0
 33 34  2  0
 34 35  1  0
 35 36  1  0
 36 37  2  0
 37 38  1  0
 38 39  2  0
 39 40  1  0
 40 41  1  0
 41 42  1  0
 39 43  1  0
 43 44  2  0
 35 45  1  0
 45 46  2  0
 46 47  1  0
 47 48  2  0
 48 49  1  0
 49 50  1  0
 50 51  1  0
 48 52  1  0
 52 53  2  0
 35 54  1  0
 54 55  1  0
 55 56  1  0
 56 57  1  0
 57 58  1  0
 56 59  1  0
 59 60  1  0
 34 61  1  0
 61 62  2  0
 62 63  1  0
 63 64  2  0
 64 65  1  0
 65 66  1  0
 66 67  2  0
 65 68  1  0
 68 69  2  0
 69 70  1  0
 70 71  2  0
 71 72  1  0
 72 73  1  0
 73 74  1  0
 71 75  1  0
 75 76  2  0
 65 77  1  0
 77 78  2  0
 78 79  1  0
 79 80  2  0
 80 81  1  0
 81 82  1  0
 82 83  1  0
 80 84  1  0
 84 85  2  0
 64 86  1  0
 86 87  2  0
 87 88  1  0
 87 89  1  0
 89 90  1  0
 90 91  1  0
 91 92  2  0
 92 93  1  0
 93 94  1  0
 94 95  1  0
 95 96  1  0
 91 97  1  0
 97 98  2  0
 98 99  1  0
 99100  1  0
 99101  2  0
101102  1  0
101103  1  0
103104  2  3
104105  1  0
105106  2  0
105107  1  0
107108  2  0
108109  1  0
109110  1  0
108111  1  0
111112  2  0
112113  1  0
113114  2  0
114115  1  0
115116  2  3
116117  1  0
117118  3  0
116119  1  0
119120  3  0
 15  2  1  0
 26 21  1  0
 58 27  2  0
 66 62  1  0
 76 68  1  0
 85 77  1  0
 94 86  1  0
102 97  1  0
115104  1  0
 14  5  1  0
 57 29  2  0
 88 63  1  0
 93 89  2  0
114107  1  0
 12  7  1  0
 55 30  2  0
 54 32  2  0
 67 33  1  0
 44 36  1  0
 53 45  1  0
  1121  1  0
  6122  1  0
  8123  1  0
  9124  1  0
 10125  1  0
 11126  1  0
 13127  1  0
 22128  1  0
 37129  1  0
 38130  1  0
 41131  1  0
 41132  1  0
 42133  1  0
 42134  1  0
 42135  1  0
 43136  1  0
 44137  1  0
 46138  1  0
 47139  1  0
 50140  1  0
 50141  1  0
 51142  1  0
 51143  1  0
 51144  1  0
 52145  1  0
 53146  1  0
 58147  1  0
 59148  1  0
 59149  1  0
 60150  1  0
 60151  1  0
 60152  1  0
 61153  1  0
 67154  1  0
 69155  1  0
 70156  1  0
 73157  1  0
 73158  1  0
 74159  1  0
 74160  1  0
 74161  1  0
 75162  1  0
 76163  1  0
 78164  1  0
 79165  1  0
 82166  1  0
 82167  1  0
 83168  1  0
 83169  1  0
 83170  1  0
 84171  1  0
 85172  1  0
 92173  1  0
 95174  1  0
 95175  1  0
 96176  1  0
 96177  1  0
 96178  1  0
 98179  1  0
103180  1  0
110181  1  0
110182  1  0
110183  1  0
111184  1  0
112185  1  0
113186  1  0
M  END

