
     RDKit          3D

192213  0  0  0  0  0  0  0  0999 V2000
    0.1292  -10.3341    5.0567 C   0  0  0  0  0  0  0  0  0  0  0  0
   -0.6292   -9.5136    5.8160 C   0  0  0  0  0  0  0  0  0  0  0  0
   -1.3342   -8.3286    5.3124 C   0  0  0  0  0  0  0  0  0  0  0  0
   -1.7770   -8.1634    4.1437 O   0  0  0  0  0  0  0  0  0  0  0  0
   -1.4649   -7.3782    6.3886 C   0  0  0  0  0  0  0  0  0  0  0  0
   -1.9982   -6.0911    6.3275 C   0  0  0  0  0  0  0  0  0  0  0  0
   -2.0003   -5.3102    7.4942 C   0  0  0  0  0  0  0  0  0  0  0  0
   -2.5125   -4.0022    7.4718 C   0  0  0  0  0  0  0  0  0  0  0  0
   -2.5192   -3.2298    8.6359 C   0  0  0  0  0  0  0  0  0  0  0  0
   -2.0035   -3.7503    9.8283 C   0  0  0  0  0  0  0  0  0  0  0  0
   -1.4819   -5.0467    9.8650 C   0  0  0  0  0  0  0  0  0  0  0  0
   -1.4774   -5.8414    8.7065 C   0  0  0  0  0  0  0  0  0  0  0  0
   -0.9606   -7.1541    8.7373 C   0  0  0  0  0  0  0  0  0  0  0  0
   -0.9446   -7.9136    7.5564 C   0  0  0  0  0  0  0  0  0  0  0  0
   -0.4763   -9.3089    7.2883 C   0  0  0  0  0  0  0  0  0  0  0  0
   -0.0691  -10.2337    8.1970 C   0  0  0  0  0  0  0  0  0  0  0  0
    0.0301  -11.6299    7.8681 C   0  0  0  0  0  0  0  0  0  0  0  0
    0.1029  -12.7567    7.6097 N   0  0  0  0  0  0  0  0  0  0  0  0
    0.2864   -9.8897    9.5516 C   0  0  0  0  0  0  0  0  0  0  0  0
    0.5994   -9.6236   10.6380 N   0  0  0  0  0  0  0  0  0  0  0  0
    0.4188  -10.0280    3.6494 C   0  0  0  0  0  0  0  0  0  0  0  0
   -0.4066  -10.2260    2.5503 C   0  0  0  0  0  0  0  0  0  0  0  0
    0.0435   -9.5651    1.3916 C   0  0  0  0  0  0  0  0  0  0  0  0
   -0.8872   -9.6300   -0.0909 Cl  0  0  0  0  0  0  0  0  0  0  0  0
    1.2258   -8.8285    1.5877 C   0  0  0  0  0  0  0  0  0  0  0  0
    1.6868   -9.0383    3.1937 S   0  0  0  0  0  0  0  0  0  0  0  0
    1.9119   -7.8597    0.6993 C   0  0  0  0  0  0  0  0  0  0  0  0
    3.1180   -6.8115    1.2960 S   0  0  0  0  0  0  0  0  0  0  0  0
    3.2685   -5.9723   -0.1301 C   0  0  0  0  0  0  0  0  0  0  0  0
    3.5133   -4.6649   -0.4105 C   0  0  0  0  0  0  0  0  0  0  0  0
    3.6777   -3.3434    0.6279 S   0  0  0  0  0  0  0  0  0  0  0  0
    2.9131   -2.3477   -0.5015 C   0  0  0  0  0  0  0  0  0  0  0  0
    2.9528   -0.9351   -0.6811 C   0  0  0  0  0  0  0  0  0  0  0  0
    2.6637   -0.6759   -2.0123 C   0  0  0  0  0  0  0  0  0  0  0  0
    2.4624   -1.9677   -2.8123 C   0  0  0  0  0  0  0  0  0  0  0  0
    3.6575   -2.0310   -3.7892 C   0  0  0  0  0  0  0  0  0  0  0  0
    3.6393   -1.2421   -4.9609 C   0  0  0  0  0  0  0  0  0  0  0  0
    4.7655   -1.1466   -5.7828 C   0  0  0  0  0  0  0  0  0  0  0  0
    5.9450   -1.8124   -5.4544 C   0  0  0  0  0  0  0  0  0  0  0  0
    7.0423   -1.6724   -6.3165 O   0  0  0  0  0  0  0  0  0  0  0  0
    8.2834   -2.3708   -6.2064 C   0  0  0  0  0  0  0  0  0  0  0  0
    8.1190   -3.8374   -6.5874 C   0  0  0  0  0  0  0  0  0  0  0  0
    5.9950   -2.5691   -4.2727 C   0  0  0  0  0  0  0  0  0  0  0  0
    4.8739   -2.6668   -3.4474 C   0  0  0  0  0  0  0  0  0  0  0  0
    1.0795   -1.9837   -3.4936 C   0  0  0  0  0  0  0  0  0  0  0  0
   -0.0429   -1.4104   -2.8569 C   0  0  0  0  0  0  0  0  0  0  0  0
   -1.2889   -1.3707   -3.4899 C   0  0  0  0  0  0  0  0  0  0  0  0
   -1.4566   -1.9359   -4.7655 C   0  0  0  0  0  0  0  0  0  0  0  0
   -2.6816   -1.9114   -5.4517 O   0  0  0  0  0  0  0  0  0  0  0  0
   -3.8461   -1.2324   -4.9952 C   0  0  0  0  0  0  0  0  0  0  0  0
   -4.9661   -1.4155   -6.0037 C   0  0  0  0  0  0  0  0  0  0  0  0
   -0.3664   -2.5547   -5.3791 C   0  0  0  0  0  0  0  0  0  0  0  0
    0.8819   -2.5820   -4.7550 C   0  0  0  0  0  0  0  0  0  0  0  0
    2.5290   -2.9884   -1.6608 C   0  0  0  0  0  0  0  0  0  0  0  0
    2.8323   -4.3623   -1.5784 C   0  0  0  0  0  0  0  0  0  0  0  0
    2.1016   -5.4475   -1.9792 N   0  0  0  0  0  0  0  0  0  0  0  0
    2.3764   -6.4081   -1.0548 C   0  0  0  0  0  0  0  0  0  0  0  0
    1.5855   -7.4838   -0.6197 C   0  0  0  0  0  0  0  0  0  0  0  0
    0.9732   -5.4731   -2.9093 C   0  0  0  0  0  0  0  0  0  0  0  0
   -0.2994   -4.9414   -2.2521 C   0  0  0  0  0  0  0  0  0  0  0  0
    2.5931    0.6494   -2.4662 C   0  0  0  0  0  0  0  0  0  0  0  0
    2.8631    1.6565   -1.5328 C   0  0  0  0  0  0  0  0  0  0  0  0
    2.6636    3.0674   -1.6631 C   0  0  0  0  0  0  0  0  0  0  0  0
    2.7803    3.6694   -0.4267 C   0  0  0  0  0  0  0  0  0  0  0  0
    3.1944    2.6674    0.6515 C   0  0  0  0  0  0  0  0  0  0  0  0
    3.1495    1.3940   -0.1919 C   0  0  0  0  0  0  0  0  0  0  0  0
    3.1596    0.0655    0.2663 C   0  0  0  0  0  0  0  0  0  0  0  0
    4.6346    2.9590    1.1300 C   0  0  0  0  0  0  0  0  0  0  0  0
    5.1810    4.2614    1.0787 C   0  0  0  0  0  0  0  0  0  0  0  0
    6.5108    4.5040    1.4367 C   0  0  0  0  0  0  0  0  0  0  0  0
    7.3379    3.4627    1.8591 C   0  0  0  0  0  0  0  0  0  0  0  0
    8.6799    3.7485    2.1474 O   0  0  0  0  0  0  0  0  0  0  0  0
    9.6761    2.7836    2.5016 C   0  0  0  0  0  0  0  0  0  0  0  0
   10.1140    1.9710    1.2840 C   0  0  0  0  0  0  0  0  0  0  0  0
    6.7945    2.1766    1.9899 C   0  0  0  0  0  0  0  0  0  0  0  0
    5.4654    1.9309    1.6391 C   0  0  0  0  0  0  0  0  0  0  0  0
    2.1467    2.5379    1.7677 C   0  0  0  0  0  0  0  0  0  0  0  0
    0.7744    2.5019    1.4448 C   0  0  0  0  0  0  0  0  0  0  0  0
   -0.1953    2.3066    2.4335 C   0  0  0  0  0  0  0  0  0  0  0  0
    0.1753    2.1262    3.7661 C   0  0  0  0  0  0  0  0  0  0  0  0
   -0.8445    1.9588    4.7187 O   0  0  0  0  0  0  0  0  0  0  0  0
   -0.6474    1.7224    6.1118 C   0  0  0  0  0  0  0  0  0  0  0  0
   -0.2933    0.2636    6.3724 C   0  0  0  0  0  0  0  0  0  0  0  0
    1.5408    2.1272    4.1021 C   0  0  0  0  0  0  0  0  0  0  0  0
    2.5150    2.3315    3.1160 C   0  0  0  0  0  0  0  0  0  0  0  0
    2.1563    4.9320   -0.4426 C   0  0  0  0  0  0  0  0  0  0  0  0
    1.5890    5.2145   -1.6603 C   0  0  0  0  0  0  0  0  0  0  0  0
    1.7124    3.9472   -2.7615 S   0  0  0  0  0  0  0  0  0  0  0  0
    0.6614    6.1861   -1.4357 C   0  0  0  0  0  0  0  0  0  0  0  0
   -0.7942    6.6220   -2.1148 S   0  0  0  0  0  0  0  0  0  0  0  0
   -1.3786    7.3161   -0.6591 C   0  0  0  0  0  0  0  0  0  0  0  0
   -0.4508    7.1058    0.3792 C   0  0  0  0  0  0  0  0  0  0  0  0
    0.6896    6.4606   -0.1078 C   0  0  0  0  0  0  0  0  0  0  0  0
    1.6301    5.7208    0.5406 N   0  0  0  0  0  0  0  0  0  0  0  0
    1.9063    5.7232    1.9780 C   0  0  0  0  0  0  0  0  0  0  0  0
    2.3874    7.0976    2.4295 C   0  0  0  0  0  0  0  0  0  0  0  0
   -2.7685    7.8073   -0.5170 C   0  0  0  0  0  0  0  0  0  0  0  0
   -3.5763    7.4031    0.5704 C   0  0  0  0  0  0  0  0  0  0  0  0
   -3.0553    6.6722    1.5813 F   0  0  0  0  0  0  0  0  0  0  0  0
   -4.9592    7.6639    0.5739 C   0  0  0  0  0  0  0  0  0  0  0  0
   -5.7180    7.2032    1.5996 F   0  0  0  0  0  0  0  0  0  0  0  0
   -5.5684    8.3171   -0.5068 C   0  0  0  0  0  0  0  0  0  0  0  0
   -4.7648    8.8082   -1.5462 C   0  0  0  0  0  0  0  0  0  0  0  0
   -3.3647    8.5510   -1.5513 C   0  0  0  0  0  0  0  0  0  0  0  0
   -2.6713    9.0382   -2.6167 N   0  0  0  0  0  0  0  0  0  0  0  0
   -3.8843    9.7437   -3.4808 S   0  0  0  0  0  0  0  0  0  0  0  0
   -5.2643    9.4832   -2.6118 N   0  0  0  0  0  0  0  0  0  0  0  0
   -7.0358    8.3515   -0.6372 C   0  0  0  0  0  0  0  0  0  0  0  0
   -7.6786    7.5115   -1.4733 C   0  0  0  0  0  0  0  0  0  0  0  0
   -7.0346    6.4651   -2.2780 C   0  0  0  0  0  0  0  0  0  0  0  0
   -5.9059    5.9420   -2.0597 O   0  0  0  0  0  0  0  0  0  0  0  0
   -7.8999    6.1443   -3.3844 C   0  0  0  0  0  0  0  0  0  0  0  0
   -7.6136    5.3376   -4.4852 C   0  0  0  0  0  0  0  0  0  0  0  0
   -8.5496    5.2728   -5.5306 C   0  0  0  0  0  0  0  0  0  0  0  0
   -8.2914    4.4905   -6.6662 C   0  0  0  0  0  0  0  0  0  0  0  0
   -9.2005    4.4721   -7.7241 C   0  0  0  0  0  0  0  0  0  0  0  0
  -10.3762    5.2267   -7.6582 C   0  0  0  0  0  0  0  0  0  0  0  0
  -10.6542    6.0050   -6.5283 C   0  0  0  0  0  0  0  0  0  0  0  0
   -9.7472    6.0390   -5.4569 C   0  0  0  0  0  0  0  0  0  0  0  0
  -10.0065    6.8409   -4.3254 C   0  0  0  0  0  0  0  0  0  0  0  0
   -9.0778    6.8630   -3.2726 C   0  0  0  0  0  0  0  0  0  0  0  0
   -9.0653    7.6581   -2.0074 C   0  0  0  0  0  0  0  0  0  0  0  0
  -10.1309    8.2116   -1.3771 C   0  0  0  0  0  0  0  0  0  0  0  0
  -10.0385    8.7647   -0.0496 C   0  0  0  0  0  0  0  0  0  0  0  0
   -9.9749    9.2065    1.0175 N   0  0  0  0  0  0  0  0  0  0  0  0
  -11.4565    8.1721   -1.9280 C   0  0  0  0  0  0  0  0  0  0  0  0
  -12.5293    8.1410   -2.3716 N   0  0  0  0  0  0  0  0  0  0  0  0
    0.8170  -11.0192    5.5285 H   0  0  0  0  0  0  0  0  0  0  0  0
   -2.3992   -5.7083    5.3930 H   0  0  0  0  0  0  0  0  0  0  0  0
   -2.9079   -3.5819    6.5560 H   0  0  0  0  0  0  0  0  0  0  0  0
   -2.9184   -2.2250    8.6148 H   0  0  0  0  0  0  0  0  0  0  0  0
   -2.0113   -3.1503   10.7285 H   0  0  0  0  0  0  0  0  0  0  0  0
   -1.0768   -5.4296   10.7971 H   0  0  0  0  0  0  0  0  0  0  0  0
   -0.5906   -7.5433    9.6688 H   0  0  0  0  0  0  0  0  0  0  0  0
   -1.3387  -10.7737    2.6011 H   0  0  0  0  0  0  0  0  0  0  0  0
    2.7637   -0.6642   -5.2326 H   0  0  0  0  0  0  0  0  0  0  0  0
    4.7196   -0.5327   -6.6767 H   0  0  0  0  0  0  0  0  0  0  0  0
    8.7117   -2.2656   -5.1841 H   0  0  0  0  0  0  0  0  0  0  0  0
    9.0013   -1.9078   -6.9131 H   0  0  0  0  0  0  0  0  0  0  0  0
    9.1094   -4.2738   -6.8267 H   0  0  0  0  0  0  0  0  0  0  0  0
    7.6539   -4.4109   -5.7621 H   0  0  0  0  0  0  0  0  0  0  0  0
    7.4695   -3.9197   -7.4821 H   0  0  0  0  0  0  0  0  0  0  0  0
    6.9048   -3.0624   -3.9557 H   0  0  0  0  0  0  0  0  0  0  0  0
    4.9861   -3.2093   -2.5196 H   0  0  0  0  0  0  0  0  0  0  0  0
    0.0459   -0.9744   -1.8680 H   0  0  0  0  0  0  0  0  0  0  0  0
   -2.1129   -0.8921   -2.9786 H   0  0  0  0  0  0  0  0  0  0  0  0
   -3.6305   -0.1460   -4.8868 H   0  0  0  0  0  0  0  0  0  0  0  0
   -4.1701   -1.6471   -4.0149 H   0  0  0  0  0  0  0  0  0  0  0  0
   -4.6514   -1.0311   -6.9985 H   0  0  0  0  0  0  0  0  0  0  0  0
   -5.8690   -0.8608   -5.6696 H   0  0  0  0  0  0  0  0  0  0  0  0
   -5.2218   -2.4930   -6.0956 H   0  0  0  0  0  0  0  0  0  0  0  0
   -0.4853   -3.0141   -6.3534 H   0  0  0  0  0  0  0  0  0  0  0  0
    1.6954   -3.0921   -5.2612 H   0  0  0  0  0  0  0  0  0  0  0  0
    0.7486   -7.8626   -1.1796 H   0  0  0  0  0  0  0  0  0  0  0  0
    0.7925   -6.5172   -3.2503 H   0  0  0  0  0  0  0  0  0  0  0  0
    1.2319   -4.9003   -3.8113 H   0  0  0  0  0  0  0  0  0  0  0  0
   -0.6669   -5.6720   -1.5053 H   0  0  0  0  0  0  0  0  0  0  0  0
   -1.0830   -4.7889   -3.0234 H   0  0  0  0  0  0  0  0  0  0  0  0
   -0.1099   -3.9749   -1.7406 H   0  0  0  0  0  0  0  0  0  0  0  0
    2.3041    0.8879   -3.4797 H   0  0  0  0  0  0  0  0  0  0  0  0
    3.2727   -0.1852    1.3136 H   0  0  0  0  0  0  0  0  0  0  0  0
    4.5937    5.1017    0.7349 H   0  0  0  0  0  0  0  0  0  0  0  0
    6.9007    5.5113    1.3555 H   0  0  0  0  0  0  0  0  0  0  0  0
   10.5615    3.3244    2.8961 H   0  0  0  0  0  0  0  0  0  0  0  0
    9.3102    2.1203    3.3164 H   0  0  0  0  0  0  0  0  0  0  0  0
    9.2644    1.3999    0.8592 H   0  0  0  0  0  0  0  0  0  0  0  0
   10.9121    1.2613    1.5835 H   0  0  0  0  0  0  0  0  0  0  0  0
   10.5140    2.6544    0.5054 H   0  0  0  0  0  0  0  0  0  0  0  0
    7.3837    1.3524    2.3547 H   0  0  0  0  0  0  0  0  0  0  0  0
    5.1067    0.9276    1.7687 H   0  0  0  0  0  0  0  0  0  0  0  0
    0.4438    2.6108    0.4188 H   0  0  0  0  0  0  0  0  0  0  0  0
   -1.2409    2.3031    2.1558 H   0  0  0  0  0  0  0  0  0  0  0  0
    0.1309    2.4021    6.5238 H   0  0  0  0  0  0  0  0  0  0  0  0
   -1.5958    1.9499    6.6486 H   0  0  0  0  0  0  0  0  0  0  0  0
   -0.0603    0.1256    7.4477 H   0  0  0  0  0  0  0  0  0  0  0  0
   -1.1530   -0.3883    6.1098 H   0  0  0  0  0  0  0  0  0  0  0  0
    0.5889   -0.0379    5.7725 H   0  0  0  0  0  0  0  0  0  0  0  0
    1.8735    1.9725    5.1191 H   0  0  0  0  0  0  0  0  0  0  0  0
    3.5480    2.3194    3.4231 H   0  0  0  0  0  0  0  0  0  0  0  0
   -0.6363    7.3179    1.4230 H   0  0  0  0  0  0  0  0  0  0  0  0
    2.7147    5.0074    2.2178 H   0  0  0  0  0  0  0  0  0  0  0  0
    0.9894    5.4338    2.5420 H   0  0  0  0  0  0  0  0  0  0  0  0
    3.2689    7.4052    1.8313 H   0  0  0  0  0  0  0  0  0  0  0  0
    1.5863    7.8485    2.3073 H   0  0  0  0  0  0  0  0  0  0  0  0
    2.6813    7.0585    3.5021 H   0  0  0  0  0  0  0  0  0  0  0  0
   -7.5448    9.1900   -0.1863 H   0  0  0  0  0  0  0  0  0  0  0  0
   -6.6698    4.8085   -4.5411 H   0  0  0  0  0  0  0  0  0  0  0  0
   -7.3854    3.8981   -6.7356 H   0  0  0  0  0  0  0  0  0  0  0  0
   -8.9914    3.8784   -8.6034 H   0  0  0  0  0  0  0  0  0  0  0  0
  -11.0713    5.2119   -8.4889 H   0  0  0  0  0  0  0  0  0  0  0  0
  -11.5650    6.5910   -6.5028 H   0  0  0  0  0  0  0  0  0  0  0  0
  -10.8911    7.4576   -4.3060 H   0  0  0  0  0  0  0  0  0  0  0  0
  1  2  2  3
  2  3  1  0
  3  4  2  0
  3  5  1  0
  5  6  2  0
  6  7  1  0
  7  8  2  0
  8  9  1  0
  9 10  2  0
 10 11  1  0
 11 12  2  0
 12 13  1  0
 13 14  2  0
 14 15  1  0
 15 16  2  3
 16 17  1  0
 17 18  3  0
 16 19  1  0
 19 20  3  0
  1 21  1  0
 21 22  2  0
 22 23  1  0
 23 24  1  0
 23 25  2  0
 25 26  1  0
 25 27  1  0
 27 28  1  0
 28 29  1  0
 29 30  1  0
 30 31  1  0
 31 32  1  0
 32 33  1  0
 33 34  2  0
 34 35  1  0
 35 36  1  0
 36 37  2  0
 37 38  1  0
 38 39  2  0
 39 40  1  0
 40 41  1  0
 41 42  1  0
 39 43  1  0
 43 44  2  0
 35 45  1  0
 45 46  2  0
 46 47  1  0
 47 48  2  0
 48 49  1  0
 49 50  1  0
 50 51  1  0
 48 52  1  0
 52 53  2  0
 35 54  1  0
 54 55  1  0
 55 56  1  0
 56 57  1  0
 57 58  1  0
 56 59  1  0
 59 60  1  0
 34 61  1  0
 61 62  2  0
 62 63  1  0
 63 64  2  0
 64 65  1  0
 65 66  1  0
 66 67  2  0
 65 68  1  0
 68 69  2  0
 69 70  1  0
 70 71  2  0
 71 72  1  0
 72 73  1  0
 73 74  1  0
 71 75  1  0
 75 76  2  0
 65 77  1  0
 77 78  2  0
 78 79  1  0
 79 80  2  0
 80 81  1  0
 81 82  1  0
 82 83  1  0
 80 84  1  0
 84 85  2  0
 64 86  1  0
 86 87  2  0
 87 88  1  0
 87 89  1  0
 89 90  1  0
 90 91  1  0
 91 92  2  0
 92 93  1  0
 93 94  1  0
 94 95  1  0
 95 96  1  0
 91 97  1  0
 97 98  2  0
 98 99  1  0
 98100  1  0
100101  1  0
100102  2  0
102103  1  0
103104  1  0
104105  2  0
105106  1  0
106107  1  0
102108  1  0
108109  2  3
109110  1  0
110111  2  0
110112  1  0
112113  2  0
113114  1  0
114115  2  0
115116  1  0
116117  2  0
117118  1  0
118119  2  0
119120  1  0
120121  2  0
121122  1  0
122123  2  3
123124  1  0
124125  3  0
123126  1  0
126127  3  0
 15  2  1  0
 26 21  1  0
 58 27  2  0
 66 62  1  0
 76 68  1  0
 85 77  1  0
 94 86  1  0
104 97  1  0
122109  1  0
 14  5  1  0
 57 29  2  0
 88 63  1  0
 93 89  2  0
107103  2  0
121112  1  0
 12  7  1  0
 55 30  2  0
119114  1  0
 54 32  2  0
 67 33  1  0
 44 36  1  0
 53 45  1  0
  1128  1  0
  6129  1  0
  8130  1  0
  9131  1  0
 10132  1  0
 11133  1  0
 13134  1  0
 22135  1  0
 37136  1  0
 38137  1  0
 41138  1  0
 41139  1  0
 42140  1  0
 42141  1  0
 42142  1  0
 43143  1  0
 44144  1  0
 46145  1  0
 47146  1  0
 50147  1  0
 50148  1  0
 51149  1  0
 51150  1  0
 51151  1  0
 52152  1  0
 53153  1  0
 58154  1  0
 59155  1  0
 59156  1  0
 60157  1  0
 60158  1  0
 60159  1  0
 61160  1  0
 67161  1  0
 69162  1  0
 70163  1  0
 73164  1  0
 73165  1  0
 74166  1  0
 74167  1  0
 74168  1  0
 75169  1  0
 76170  1  0
 78171  1  0
 79172  1  0
 82173  1  0
 82174  1  0
 83175  1  0
 83176  1  0
 83177  1  0
 84178  1  0
 85179  1  0
 92180  1  0
 95181  1  0
 95182  1  0
 96183  1  0
 96184  1  0
 96185  1  0
108186  1  0
113187  1  0
115188  1  0
116189  1  0
117190  1  0
118191  1  0
120192  1  0
M  END

