
     RDKit          3D

184204  0  0  0  0  0  0  0  0999 V2000
   -2.1926    0.8809   11.3117 C   0  0  0  0  0  0  0  0  0  0  0  0
   -1.6013   -0.2995   11.0414 C   0  0  0  0  0  0  0  0  0  0  0  0
   -1.2165   -0.7693    9.6922 C   0  0  0  0  0  0  0  0  0  0  0  0
   -1.5593   -0.2660    8.5902 O   0  0  0  0  0  0  0  0  0  0  0  0
   -0.3990   -1.9457    9.8540 C   0  0  0  0  0  0  0  0  0  0  0  0
   -0.2940   -2.2671   11.1851 C   0  0  0  0  0  0  0  0  0  0  0  0
    0.4231   -3.4344   11.4349 C   0  0  0  0  0  0  0  0  0  0  0  0
    0.9076   -4.0252    9.9234 S   0  0  0  0  0  0  0  0  0  0  0  0
    0.2279   -2.8071    8.9717 C   0  0  0  0  0  0  0  0  0  0  0  0
    0.1653   -2.7828    7.4804 C   0  0  0  0  0  0  0  0  0  0  0  0
   -1.0697   -1.3141   12.0180 C   0  0  0  0  0  0  0  0  0  0  0  0
   -1.3025   -1.4198   13.3502 C   0  0  0  0  0  0  0  0  0  0  0  0
   -2.2333   -0.5776   14.0520 C   0  0  0  0  0  0  0  0  0  0  0  0
   -2.9832    0.0888   14.6305 N   0  0  0  0  0  0  0  0  0  0  0  0
   -0.6751   -2.4362   14.1534 C   0  0  0  0  0  0  0  0  0  0  0  0
   -0.1719   -3.2450   14.8132 N   0  0  0  0  0  0  0  0  0  0  0  0
   -2.4961    1.8618   10.2653 C   0  0  0  0  0  0  0  0  0  0  0  0
   -3.7385    2.0684    9.6853 C   0  0  0  0  0  0  0  0  0  0  0  0
   -3.6880    2.9366    8.5861 C   0  0  0  0  0  0  0  0  0  0  0  0
   -4.7837    3.2317    7.8404 F   0  0  0  0  0  0  0  0  0  0  0  0
   -2.4101    3.4205    8.3101 C   0  0  0  0  0  0  0  0  0  0  0  0
   -1.3435    2.7599    9.4321 S   0  0  0  0  0  0  0  0  0  0  0  0
   -1.9937    4.1941    7.1274 C   0  0  0  0  0  0  0  0  0  0  0  0
   -0.6897    4.6506    6.9074 C   0  0  0  0  0  0  0  0  0  0  0  0
   -0.5011    5.0856    5.5931 C   0  0  0  0  0  0  0  0  0  0  0  0
    0.7739    5.0920    4.7549 C   0  0  0  0  0  0  0  0  0  0  0  0
    1.6445    3.8974    5.1795 C   0  0  0  0  0  0  0  0  0  0  0  0
    1.3564    2.5851    4.7396 C   0  0  0  0  0  0  0  0  0  0  0  0
    2.0919    1.4950    5.2077 C   0  0  0  0  0  0  0  0  0  0  0  0
    3.1123    1.6782    6.1505 C   0  0  0  0  0  0  0  0  0  0  0  0
    3.8594    0.4953    6.6983 C   0  0  0  0  0  0  0  0  0  0  0  0
    3.1427   -0.0826    7.9142 C   0  0  0  0  0  0  0  0  0  0  0  0
    3.3653    2.9653    6.6434 C   0  0  0  0  0  0  0  0  0  0  0  0
    2.6346    4.0585    6.1719 C   0  0  0  0  0  0  0  0  0  0  0  0
    1.5267    6.4255    4.7811 C   0  0  0  0  0  0  0  0  0  0  0  0
    1.0081    7.5748    5.4160 C   0  0  0  0  0  0  0  0  0  0  0  0
    1.7226    8.7752    5.4134 C   0  0  0  0  0  0  0  0  0  0  0  0
    2.9651    8.8601    4.7686 C   0  0  0  0  0  0  0  0  0  0  0  0
    3.7529   10.1408    4.8077 C   0  0  0  0  0  0  0  0  0  0  0  0
    4.4962   10.2802    6.1348 C   0  0  0  0  0  0  0  0  0  0  0  0
    3.4847    7.7293    4.1261 C   0  0  0  0  0  0  0  0  0  0  0  0
    2.7689    6.5298    4.1226 C   0  0  0  0  0  0  0  0  0  0  0  0
    0.1338    4.9333    3.3848 C   0  0  0  0  0  0  0  0  0  0  0  0
   -1.2388    4.9190    3.4444 C   0  0  0  0  0  0  0  0  0  0  0  0
   -1.6330    5.0178    4.8217 C   0  0  0  0  0  0  0  0  0  0  0  0
   -2.8800    4.3038    5.6814 S   0  0  0  0  0  0  0  0  0  0  0  0
   -1.9375    4.1931    2.0810 S   0  0  0  0  0  0  0  0  0  0  0  0
   -0.4227    3.9903    1.3427 C   0  0  0  0  0  0  0  0  0  0  0  0
    0.5839    4.4179    2.1747 C   0  0  0  0  0  0  0  0  0  0  0  0
    2.0885    3.9709    1.5701 S   0  0  0  0  0  0  0  0  0  0  0  0
    1.4268    3.2377    0.1805 C   0  0  0  0  0  0  0  0  0  0  0  0
    2.1239    2.5628   -0.8367 C   0  0  0  0  0  0  0  0  0  0  0  0
    3.5883    2.4527   -0.7960 C   0  0  0  0  0  0  0  0  0  0  0  0
    4.3151    1.7218    0.1347 C   0  0  0  0  0  0  0  0  0  0  0  0
    5.6975    1.8252   -0.0476 C   0  0  0  0  0  0  0  0  0  0  0  0
    6.0498    2.6381   -1.1186 C   0  0  0  0  0  0  0  0  0  0  0  0
    7.4459    2.9764   -1.5366 C   0  0  0  0  0  0  0  0  0  0  0  0
    8.0146    4.0913   -0.6631 C   0  0  0  0  0  0  0  0  0  0  0  0
    4.6514    3.2468   -1.8305 S   0  0  0  0  0  0  0  0  0  0  0  0
    1.3532    1.9884   -1.8679 C   0  0  0  0  0  0  0  0  0  0  0  0
   -0.0532    2.0921   -1.8567 C   0  0  0  0  0  0  0  0  0  0  0  0
   -0.7496    2.7239   -0.8163 C   0  0  0  0  0  0  0  0  0  0  0  0
   -2.2099    2.6147   -0.7363 C   0  0  0  0  0  0  0  0  0  0  0  0
   -3.1267    3.4317   -1.3813 C   0  0  0  0  0  0  0  0  0  0  0  0
   -4.4501    2.9940   -1.2350 C   0  0  0  0  0  0  0  0  0  0  0  0
   -4.5597    1.8250   -0.4889 C   0  0  0  0  0  0  0  0  0  0  0  0
   -5.8348    1.1145   -0.1429 C   0  0  0  0  0  0  0  0  0  0  0  0
   -5.8414   -0.3062   -0.7014 C   0  0  0  0  0  0  0  0  0  0  0  0
   -3.0232    1.3434   -0.0005 S   0  0  0  0  0  0  0  0  0  0  0  0
    0.0197    3.3190    0.2003 C   0  0  0  0  0  0  0  0  0  0  0  0
   -0.7330    1.2206   -3.1527 S   0  0  0  0  0  0  0  0  0  0  0  0
    0.7616    0.7294   -3.7348 C   0  0  0  0  0  0  0  0  0  0  0  0
    1.1617   -0.2130   -4.6678 C   0  0  0  0  0  0  0  0  0  0  0  0
    2.5093   -0.4612   -4.5749 C   0  0  0  0  0  0  0  0  0  0  0  0
    3.2398    0.3950   -3.3083 S   0  0  0  0  0  0  0  0  0  0  0  0
    1.7810    1.1891   -2.9344 C   0  0  0  0  0  0  0  0  0  0  0  0
    2.7848   -1.6698   -5.2969 C   0  0  0  0  0  0  0  0  0  0  0  0
    3.9556   -2.8706   -5.2507 S   0  0  0  0  0  0  0  0  0  0  0  0
    2.9656   -3.9951   -6.0679 C   0  0  0  0  0  0  0  0  0  0  0  0
    1.7012   -3.4452   -6.3032 C   0  0  0  0  0  0  0  0  0  0  0  0
    1.6202   -2.1354   -5.8375 C   0  0  0  0  0  0  0  0  0  0  0  0
    0.4268   -1.2586   -5.4945 C   0  0  0  0  0  0  0  0  0  0  0  0
   -0.2025   -0.5616   -6.7032 C   0  0  0  0  0  0  0  0  0  0  0  0
    0.4372   -0.5150   -7.9608 C   0  0  0  0  0  0  0  0  0  0  0  0
   -0.1517    0.1558   -9.0359 C   0  0  0  0  0  0  0  0  0  0  0  0
   -1.3774    0.8159   -8.8737 C   0  0  0  0  0  0  0  0  0  0  0  0
   -2.0296    1.5036  -10.0407 C   0  0  0  0  0  0  0  0  0  0  0  0
   -2.9320    0.5366  -10.8031 C   0  0  0  0  0  0  0  0  0  0  0  0
   -2.0155    0.7856   -7.6270 C   0  0  0  0  0  0  0  0  0  0  0  0
   -1.4261    0.1210   -6.5498 C   0  0  0  0  0  0  0  0  0  0  0  0
   -0.5714   -2.0990   -4.6830 C   0  0  0  0  0  0  0  0  0  0  0  0
   -1.5837   -2.8255   -5.3443 C   0  0  0  0  0  0  0  0  0  0  0  0
   -2.4623   -3.6439   -4.6330 C   0  0  0  0  0  0  0  0  0  0  0  0
   -2.3386   -3.7777   -3.2436 C   0  0  0  0  0  0  0  0  0  0  0  0
   -3.2556   -4.7006   -2.4877 C   0  0  0  0  0  0  0  0  0  0  0  0
   -2.6848   -6.1146   -2.4538 C   0  0  0  0  0  0  0  0  0  0  0  0
   -1.2976   -3.1141   -2.5814 C   0  0  0  0  0  0  0  0  0  0  0  0
   -0.4157   -2.2982   -3.2922 C   0  0  0  0  0  0  0  0  0  0  0  0
    3.3342   -5.3830   -6.3760 C   0  0  0  0  0  0  0  0  0  0  0  0
    4.3960   -6.1014   -5.8359 C   0  0  0  0  0  0  0  0  0  0  0  0
    4.4706   -7.4165   -6.3191 C   0  0  0  0  0  0  0  0  0  0  0  0
    5.4513   -8.2770   -5.9495 F   0  0  0  0  0  0  0  0  0  0  0  0
    3.4571   -7.7508   -7.2143 C   0  0  0  0  0  0  0  0  0  0  0  0
    2.5071   -6.3782   -7.4506 S   0  0  0  0  0  0  0  0  0  0  0  0
    3.3930   -8.9982   -7.9964 C   0  0  0  0  0  0  0  0  0  0  0  0
    2.2973   -9.4515   -8.6320 C   0  0  0  0  0  0  0  0  0  0  0  0
    2.3857  -10.2306   -9.8791 C   0  0  0  0  0  0  0  0  0  0  0  0
    3.4082  -10.7940  -10.3491 O   0  0  0  0  0  0  0  0  0  0  0  0
    1.1079  -10.0969  -10.5369 C   0  0  0  0  0  0  0  0  0  0  0  0
    0.4618  -10.4840  -12.0332 S   0  0  0  0  0  0  0  0  0  0  0  0
   -1.0104   -9.6941  -11.6920 C   0  0  0  0  0  0  0  0  0  0  0  0
   -2.1700   -9.6248  -12.6260 C   0  0  0  0  0  0  0  0  0  0  0  0
   -0.9794   -9.1253  -10.4134 C   0  0  0  0  0  0  0  0  0  0  0  0
    0.2461   -9.3680   -9.7900 C   0  0  0  0  0  0  0  0  0  0  0  0
    0.8691   -9.0059   -8.5009 C   0  0  0  0  0  0  0  0  0  0  0  0
    0.2057   -8.7132   -7.3605 C   0  0  0  0  0  0  0  0  0  0  0  0
    0.8262   -8.8520   -6.0663 C   0  0  0  0  0  0  0  0  0  0  0  0
    1.3190   -8.9615   -5.0246 N   0  0  0  0  0  0  0  0  0  0  0  0
   -1.1891   -8.3560   -7.3684 C   0  0  0  0  0  0  0  0  0  0  0  0
   -2.3085   -8.0613   -7.3737 N   0  0  0  0  0  0  0  0  0  0  0  0
   -2.3950    1.1956   12.3190 H   0  0  0  0  0  0  0  0  0  0  0  0
    0.6224   -3.9027   12.3843 H   0  0  0  0  0  0  0  0  0  0  0  0
   -0.7261   -3.3477    7.1417 H   0  0  0  0  0  0  0  0  0  0  0  0
    0.0999   -1.7401    7.1105 H   0  0  0  0  0  0  0  0  0  0  0  0
    1.0778   -3.2529    7.0590 H   0  0  0  0  0  0  0  0  0  0  0  0
   -4.6434    1.5728   10.0116 H   0  0  0  0  0  0  0  0  0  0  0  0
    0.1195    4.5253    7.6144 H   0  0  0  0  0  0  0  0  0  0  0  0
    0.5455    2.3972    4.0499 H   0  0  0  0  0  0  0  0  0  0  0  0
    1.8478    0.5026    4.8511 H   0  0  0  0  0  0  0  0  0  0  0  0
    4.8920    0.7916    6.9843 H   0  0  0  0  0  0  0  0  0  0  0  0
    3.9463   -0.2927    5.9182 H   0  0  0  0  0  0  0  0  0  0  0  0
    2.0994   -0.3627    7.6578 H   0  0  0  0  0  0  0  0  0  0  0  0
    3.6733   -0.9913    8.2637 H   0  0  0  0  0  0  0  0  0  0  0  0
    3.1273    0.6576    8.7444 H   0  0  0  0  0  0  0  0  0  0  0  0
    4.1201    3.1208    7.4044 H   0  0  0  0  0  0  0  0  0  0  0  0
    2.8272    5.0297    6.6093 H   0  0  0  0  0  0  0  0  0  0  0  0
    0.0524    7.5575    5.9193 H   0  0  0  0  0  0  0  0  0  0  0  0
    1.3131    9.6392    5.9211 H   0  0  0  0  0  0  0  0  0  0  0  0
    3.0694   11.0068    4.6740 H   0  0  0  0  0  0  0  0  0  0  0  0
    4.4900   10.1682    3.9756 H   0  0  0  0  0  0  0  0  0  0  0  0
    3.7717   10.3133    6.9775 H   0  0  0  0  0  0  0  0  0  0  0  0
    5.1896    9.4237    6.2793 H   0  0  0  0  0  0  0  0  0  0  0  0
    5.0861   11.2218    6.1330 H   0  0  0  0  0  0  0  0  0  0  0  0
    4.4460    7.7722    3.6269 H   0  0  0  0  0  0  0  0  0  0  0  0
    3.1976    5.6727    3.6234 H   0  0  0  0  0  0  0  0  0  0  0  0
    3.8602    1.1348    0.9220 H   0  0  0  0  0  0  0  0  0  0  0  0
    6.4165    1.3224    0.5836 H   0  0  0  0  0  0  0  0  0  0  0  0
    8.0879    2.0729   -1.4550 H   0  0  0  0  0  0  0  0  0  0  0  0
    7.4472    3.3032   -2.5985 H   0  0  0  0  0  0  0  0  0  0  0  0
    8.0536    3.7705    0.3985 H   0  0  0  0  0  0  0  0  0  0  0  0
    9.0432    4.3361   -1.0004 H   0  0  0  0  0  0  0  0  0  0  0  0
    7.3858    5.0034   -0.7464 H   0  0  0  0  0  0  0  0  0  0  0  0
   -2.8528    4.3099   -1.9484 H   0  0  0  0  0  0  0  0  0  0  0  0
   -5.2970    3.5108   -1.6628 H   0  0  0  0  0  0  0  0  0  0  0  0
   -6.7056    1.6671   -0.5577 H   0  0  0  0  0  0  0  0  0  0  0  0
   -5.9444    1.0768    0.9623 H   0  0  0  0  0  0  0  0  0  0  0  0
   -6.7962   -0.8085   -0.4329 H   0  0  0  0  0  0  0  0  0  0  0  0
   -5.0032   -0.8972   -0.2744 H   0  0  0  0  0  0  0  0  0  0  0  0
   -5.7440   -0.2873   -1.8090 H   0  0  0  0  0  0  0  0  0  0  0  0
    0.8588   -3.9952   -6.7063 H   0  0  0  0  0  0  0  0  0  0  0  0
    1.3927   -0.9921   -8.1233 H   0  0  0  0  0  0  0  0  0  0  0  0
    0.3506    0.1654   -9.9949 H   0  0  0  0  0  0  0  0  0  0  0  0
   -1.2552    1.9019  -10.7305 H   0  0  0  0  0  0  0  0  0  0  0  0
   -2.6362    2.3657   -9.6874 H   0  0  0  0  0  0  0  0  0  0  0  0
   -2.3362   -0.3151  -11.1965 H   0  0  0  0  0  0  0  0  0  0  0  0
   -3.4052    1.0650  -11.6581 H   0  0  0  0  0  0  0  0  0  0  0  0
   -3.7324    0.1489  -10.1365 H   0  0  0  0  0  0  0  0  0  0  0  0
   -2.9694    1.2797   -7.4857 H   0  0  0  0  0  0  0  0  0  0  0  0
   -1.9378    0.1232   -5.5976 H   0  0  0  0  0  0  0  0  0  0  0  0
   -1.6917   -2.7675   -6.4207 H   0  0  0  0  0  0  0  0  0  0  0  0
   -3.2305   -4.1876   -5.1687 H   0  0  0  0  0  0  0  0  0  0  0  0
   -3.3972   -4.3351   -1.4476 H   0  0  0  0  0  0  0  0  0  0  0  0
   -4.2546   -4.7202   -2.9724 H   0  0  0  0  0  0  0  0  0  0  0  0
   -2.5086   -6.4859   -3.4868 H   0  0  0  0  0  0  0  0  0  0  0  0
   -1.7267   -6.1323   -1.8924 H   0  0  0  0  0  0  0  0  0  0  0  0
   -3.4055   -6.7951   -1.9543 H   0  0  0  0  0  0  0  0  0  0  0  0
   -1.1572   -3.2414   -1.5153 H   0  0  0  0  0  0  0  0  0  0  0  0
    0.3978   -1.8344   -2.7505 H   0  0  0  0  0  0  0  0  0  0  0  0
    5.0989   -5.6925   -5.1207 H   0  0  0  0  0  0  0  0  0  0  0  0
    4.3414   -9.4784   -8.2072 H   0  0  0  0  0  0  0  0  0  0  0  0
   -1.9050  -10.0741  -13.6075 H   0  0  0  0  0  0  0  0  0  0  0  0
   -3.0289  -10.1817  -12.1967 H   0  0  0  0  0  0  0  0  0  0  0  0
   -2.4620   -8.5669  -12.7807 H   0  0  0  0  0  0  0  0  0  0  0  0
   -1.7908   -8.5502   -9.9919 H   0  0  0  0  0  0  0  0  0  0  0  0
  1  2  2  3
  2  3  1  0
  3  4  2  0
  3  5  1  0
  5  6  1  0
  6  7  2  0
  7  8  1  0
  8  9  1  0
  9 10  1  0
  6 11  1  0
 11 12  2  3
 12 13  1  0
 13 14  3  0
 12 15  1  0
 15 16  3  0
  1 17  1  0
 17 18  2  0
 18 19  1  0
 19 20  1  0
 19 21  2  0
 21 22  1  0
 21 23  1  0
 23 24  2  0
 24 25  1  0
 25 26  1  0
 26 27  1  0
 27 28  2  0
 28 29  1  0
 29 30  2  0
 30 31  1  0
 31 32  1  0
 30 33  1  0
 33 34  2  0
 26 35  1  0
 35 36  2  0
 36 37  1  0
 37 38  2  0
 38 39  1  0
 39 40  1  0
 38 41  1  0
 41 42  2  0
 26 43  1  0
 43 44  2  0
 44 45  1  0
 45 46  1  0
 44 47  1  0
 47 48  1  0
 48 49  2  0
 49 50  1  0
 50 51  1  0
 51 52  2  0
 52 53  1  0
 53 54  2  0
 54 55  1  0
 55 56  2  0
 56 57  1  0
 57 58  1  0
 56 59  1  0
 52 60  1  0
 60 61  2  0
 61 62  1  0
 62 63  1  0
 63 64  2  0
 64 65  1  0
 65 66  2  0
 66 67  1  0
 67 68  1  0
 66 69  1  0
 62 70  2  0
 61 71  1  0
 71 72  1  0
 72 73  1  0
 73 74  2  0
 74 75  1  0
 75 76  1  0
 74 77  1  0
 77 78  1  0
 78 79  1  0
 79 80  2  0
 80 81  1  0
 81 82  1  0
 82 83  1  0
 83 84  2  0
 84 85  1  0
 85 86  2  0
 86 87  1  0
 87 88  1  0
 86 89  1  0
 89 90  2  0
 82 91  1  0
 91 92  2  0
 92 93  1  0
 93 94  2  0
 94 95  1  0
 95 96  1  0
 94 97  1  0
 97 98  2  0
 79 99  1  0
 99100  2  0
100101  1  0
101102  1  0
101103  2  0
103104  1  0
103105  1  0
105106  2  3
106107  1  0
107108  2  0
107109  1  0
109110  1  0
110111  1  0
111112  1  0
111113  2  0
113114  1  0
114115  1  0
115116  2  3
116117  1  0
117118  3  0
116119  1  0
119120  3  0
 11  2  1  0
 22 17  1  0
 46 23  1  0
 70 48  1  0
 76 72  2  0
 81 77  2  0
 90 83  1  0
 98 91  1  0
104 99  1  0
115106  1  0
  9  5  2  0
 45 25  2  0
 70 51  1  0
 82 73  1  0
114109  2  0
 34 27  1  0
 42 35  1  0
 49 43  1  0
 59 53  1  0
 76 60  1  0
 69 63  1  0
  1121  1  0
  7122  1  0
 10123  1  0
 10124  1  0
 10125  1  0
 18126  1  0
 24127  1  0
 28128  1  0
 29129  1  0
 31130  1  0
 31131  1  0
 32132  1  0
 32133  1  0
 32134  1  0
 33135  1  0
 34136  1  0
 36137  1  0
 37138  1  0
 39139  1  0
 39140  1  0
 40141  1  0
 40142  1  0
 40143  1  0
 41144  1  0
 42145  1  0
 54146  1  0
 55147  1  0
 57148  1  0
 57149  1  0
 58150  1  0
 58151  1  0
 58152  1  0
 64153  1  0
 65154  1  0
 67155  1  0
 67156  1  0
 68157  1  0
 68158  1  0
 68159  1  0
 80160  1  0
 84161  1  0
 85162  1  0
 87163  1  0
 87164  1  0
 88165  1  0
 88166  1  0
 88167  1  0
 89168  1  0
 90169  1  0
 92170  1  0
 93171  1  0
 95172  1  0
 95173  1  0
 96174  1  0
 96175  1  0
 96176  1  0
 97177  1  0
 98178  1  0
100179  1  0
105180  1  0
112181  1  0
112182  1  0
112183  1  0
113184  1  0
M  END

