
     RDKit          3D

151168  0  0  0  0  0  0  0  0999 V2000
   -9.7197    1.4671    8.5136 C   0  0  0  0  0  0  0  0  0  0  0  0
  -10.9972    1.1057    8.2759 C   0  0  0  0  0  0  0  0  0  0  0  0
  -11.5580    0.7497    6.9657 C   0  0  0  0  0  0  0  0  0  0  0  0
  -10.9073    0.4914    5.9164 O   0  0  0  0  0  0  0  0  0  0  0  0
  -12.9998    0.8594    7.0469 C   0  0  0  0  0  0  0  0  0  0  0  0
  -13.3671    1.2413    8.3280 C   0  0  0  0  0  0  0  0  0  0  0  0
  -14.7138    1.5301    8.6070 C   0  0  0  0  0  0  0  0  0  0  0  0
  -15.6708    1.3804    7.5933 C   0  0  0  0  0  0  0  0  0  0  0  0
  -16.9737    1.6478    7.8539 F   0  0  0  0  0  0  0  0  0  0  0  0
  -15.2873    0.9621    6.3080 C   0  0  0  0  0  0  0  0  0  0  0  0
  -16.2227    0.8185    5.3341 F   0  0  0  0  0  0  0  0  0  0  0  0
  -13.9381    0.7127    6.0221 C   0  0  0  0  0  0  0  0  0  0  0  0
  -13.5546    0.3626    4.7656 F   0  0  0  0  0  0  0  0  0  0  0  0
  -12.1581    1.3120    9.1947 C   0  0  0  0  0  0  0  0  0  0  0  0
  -12.1249    1.3039   10.5532 C   0  0  0  0  0  0  0  0  0  0  0  0
  -10.9190    0.9970   11.2855 C   0  0  0  0  0  0  0  0  0  0  0  0
   -9.9620    0.7113   11.8640 N   0  0  0  0  0  0  0  0  0  0  0  0
  -13.3153    1.3849   11.3624 C   0  0  0  0  0  0  0  0  0  0  0  0
  -14.2656    1.4353   12.0252 N   0  0  0  0  0  0  0  0  0  0  0  0
   -8.6219    1.2981    7.5440 C   0  0  0  0  0  0  0  0  0  0  0  0
   -7.8647    2.4234    7.1599 C   0  0  0  0  0  0  0  0  0  0  0  0
   -6.8076    2.2387    6.2708 C   0  0  0  0  0  0  0  0  0  0  0  0
   -5.8770    3.2098    5.7083 C   0  0  0  0  0  0  0  0  0  0  0  0
   -5.8766    4.4531    5.9060 O   0  0  0  0  0  0  0  0  0  0  0  0
   -4.9521    2.4550    4.8669 C   0  0  0  0  0  0  0  0  0  0  0  0
   -5.3046    1.1178    4.9178 C   0  0  0  0  0  0  0  0  0  0  0  0
   -6.4727    0.9825    5.7942 C   0  0  0  0  0  0  0  0  0  0  0  0
   -7.1851   -0.1519    6.1800 C   0  0  0  0  0  0  0  0  0  0  0  0
   -8.2705    0.0110    7.0627 C   0  0  0  0  0  0  0  0  0  0  0  0
   -4.5572    0.1486    4.2454 C   0  0  0  0  0  0  0  0  0  0  0  0
   -3.4266    0.5631    3.5198 C   0  0  0  0  0  0  0  0  0  0  0  0
   -3.0722    1.9323    3.4504 C   0  0  0  0  0  0  0  0  0  0  0  0
   -3.8453    2.8901    4.1449 C   0  0  0  0  0  0  0  0  0  0  0  0
   -1.8493    2.3519    2.7369 C   0  0  0  0  0  0  0  0  0  0  0  0
   -1.7244    3.4659    1.8774 C   0  0  0  0  0  0  0  0  0  0  0  0
   -2.8533    4.2189    1.3126 C   0  0  0  0  0  0  0  0  0  0  0  0
   -3.2415    5.4430    1.8786 C   0  0  0  0  0  0  0  0  0  0  0  0
   -4.3460    6.1311    1.3670 C   0  0  0  0  0  0  0  0  0  0  0  0
   -5.0513    5.6150    0.2777 C   0  0  0  0  0  0  0  0  0  0  0  0
   -4.6427    4.4084   -0.3224 C   0  0  0  0  0  0  0  0  0  0  0  0
   -5.3974    3.8556   -1.4984 C   0  0  0  0  0  0  0  0  0  0  0  0
   -6.3634    2.7495   -1.0707 C   0  0  0  0  0  0  0  0  0  0  0  0
   -3.5542    3.7036    0.2147 C   0  0  0  0  0  0  0  0  0  0  0  0
   -0.3995    3.6416    1.4697 C   0  0  0  0  0  0  0  0  0  0  0  0
    0.3477    4.7141    0.3733 S   0  0  0  0  0  0  0  0  0  0  0  0
    1.8401    3.9413    0.6136 C   0  0  0  0  0  0  0  0  0  0  0  0
    3.0509    3.8839   -0.0055 C   0  0  0  0  0  0  0  0  0  0  0  0
    3.5140    4.6255   -1.0932 C   0  0  0  0  0  0  0  0  0  0  0  0
    4.7111    4.2205   -1.7354 C   0  0  0  0  0  0  0  0  0  0  0  0
    5.1061    4.9379   -2.8212 N   0  0  0  0  0  0  0  0  0  0  0  0
    3.8736    6.0480   -2.8807 S   0  0  0  0  0  0  0  0  0  0  0  0
    2.8602    5.6916   -1.6170 N   0  0  0  0  0  0  0  0  0  0  0  0
    5.3891    3.1050   -1.2506 C   0  0  0  0  0  0  0  0  0  0  0  0
    6.4476    2.4425   -1.7883 C   0  0  0  0  0  0  0  0  0  0  0  0
    7.2231    2.3903   -3.2958 S   0  0  0  0  0  0  0  0  0  0  0  0
    7.8487    0.8435   -2.9340 C   0  0  0  0  0  0  0  0  0  0  0  0
    8.3820   -0.1409   -3.7626 C   0  0  0  0  0  0  0  0  0  0  0  0
    8.8402    0.1132   -5.1379 C   0  0  0  0  0  0  0  0  0  0  0  0
   10.2176    0.1764   -5.4020 C   0  0  0  0  0  0  0  0  0  0  0  0
   10.6705    0.4277   -6.6992 C   0  0  0  0  0  0  0  0  0  0  0  0
    9.7531    0.5997   -7.7425 C   0  0  0  0  0  0  0  0  0  0  0  0
    8.3704    0.5416   -7.4877 C   0  0  0  0  0  0  0  0  0  0  0  0
    7.3870    0.6608   -8.6207 C   0  0  0  0  0  0  0  0  0  0  0  0
    7.1071   -0.7087   -9.2379 C   0  0  0  0  0  0  0  0  0  0  0  0
    7.9182    0.3038   -6.1793 C   0  0  0  0  0  0  0  0  0  0  0  0
    8.3539   -1.4102   -3.1477 C   0  0  0  0  0  0  0  0  0  0  0  0
    7.6603   -1.2518   -1.5926 S   0  0  0  0  0  0  0  0  0  0  0  0
    7.4383    0.4058   -1.6978 C   0  0  0  0  0  0  0  0  0  0  0  0
    6.6372    1.3353   -1.0469 C   0  0  0  0  0  0  0  0  0  0  0  0
    5.7784    1.2376    0.0015 N   0  0  0  0  0  0  0  0  0  0  0  0
    4.9551    2.3414   -0.1366 C   0  0  0  0  0  0  0  0  0  0  0  0
    3.7169    2.7365    0.5020 C   0  0  0  0  0  0  0  0  0  0  0  0
    2.8932    2.1210    1.4287 N   0  0  0  0  0  0  0  0  0  0  0  0
    1.7710    2.8850    1.4480 C   0  0  0  0  0  0  0  0  0  0  0  0
    0.4878    2.7079    1.9547 C   0  0  0  0  0  0  0  0  0  0  0  0
   -0.3254    1.5995    2.9247 S   0  0  0  0  0  0  0  0  0  0  0  0
    3.0076    0.8644    2.1738 C   0  0  0  0  0  0  0  0  0  0  0  0
    2.6413   -0.3298    1.2957 C   0  0  0  0  0  0  0  0  0  0  0  0
    6.1011    0.4111    1.1721 C   0  0  0  0  0  0  0  0  0  0  0  0
    6.5757    1.2732    2.3459 C   0  0  0  0  0  0  0  0  0  0  0  0
    8.3613   -2.6958   -3.8652 C   0  0  0  0  0  0  0  0  0  0  0  0
    8.5768   -3.9372   -3.2763 C   0  0  0  0  0  0  0  0  0  0  0  0
    8.0471   -5.0058   -4.0179 C   0  0  0  0  0  0  0  0  0  0  0  0
    8.1467   -6.7165   -3.4622 S   0  0  0  0  0  0  0  0  0  0  0  0
    6.8821   -6.5560   -2.1504 C   0  0  0  0  0  0  0  0  0  0  0  0
    5.4836   -6.8032   -2.7011 C   0  0  0  0  0  0  0  0  0  0  0  0
    7.3818   -4.6058   -5.1694 C   0  0  0  0  0  0  0  0  0  0  0  0
    7.5222   -2.9399   -5.3017 S   0  0  0  0  0  0  0  0  0  0  0  0
    6.5714   -5.4566   -6.0565 C   0  0  0  0  0  0  0  0  0  0  0  0
    5.2580   -5.2407   -6.2933 C   0  0  0  0  0  0  0  0  0  0  0  0
    4.3914   -4.3352   -5.5175 C   0  0  0  0  0  0  0  0  0  0  0  0
    4.7556   -3.5466   -4.6044 O   0  0  0  0  0  0  0  0  0  0  0  0
    3.0111   -4.6256   -5.8394 C   0  0  0  0  0  0  0  0  0  0  0  0
    2.9565   -5.6493   -6.7764 C   0  0  0  0  0  0  0  0  0  0  0  0
    1.7269   -6.2567   -7.0655 C   0  0  0  0  0  0  0  0  0  0  0  0
    0.5579   -5.7535   -6.4742 C   0  0  0  0  0  0  0  0  0  0  0  0
   -0.6366   -6.3305   -6.7543 F   0  0  0  0  0  0  0  0  0  0  0  0
    0.6186   -4.6735   -5.5716 C   0  0  0  0  0  0  0  0  0  0  0  0
   -0.5135   -4.2126   -4.9816 F   0  0  0  0  0  0  0  0  0  0  0  0
    1.8599   -4.1172   -5.2246 C   0  0  0  0  0  0  0  0  0  0  0  0
    1.9441   -3.1387   -4.2869 F   0  0  0  0  0  0  0  0  0  0  0  0
    4.3402   -6.0354   -7.1778 C   0  0  0  0  0  0  0  0  0  0  0  0
    4.6874   -6.7856   -8.2595 C   0  0  0  0  0  0  0  0  0  0  0  0
    6.0531   -7.0452   -8.6180 C   0  0  0  0  0  0  0  0  0  0  0  0
    7.1525   -7.2597   -8.9127 N   0  0  0  0  0  0  0  0  0  0  0  0
    3.7031   -7.3364   -9.1535 C   0  0  0  0  0  0  0  0  0  0  0  0
    2.9160   -7.7806   -9.8825 N   0  0  0  0  0  0  0  0  0  0  0  0
   -9.4759    1.9934    9.4256 H   0  0  0  0  0  0  0  0  0  0  0  0
  -15.0339    1.8959    9.5668 H   0  0  0  0  0  0  0  0  0  0  0  0
   -8.1005    3.4123    7.5359 H   0  0  0  0  0  0  0  0  0  0  0  0
   -6.9077   -1.1338    5.8199 H   0  0  0  0  0  0  0  0  0  0  0  0
   -8.8289   -0.8634    7.3779 H   0  0  0  0  0  0  0  0  0  0  0  0
   -4.8319   -0.8988    4.2959 H   0  0  0  0  0  0  0  0  0  0  0  0
   -2.8322   -0.1800    3.0008 H   0  0  0  0  0  0  0  0  0  0  0  0
   -3.5663    3.9354    4.1719 H   0  0  0  0  0  0  0  0  0  0  0  0
   -2.7086    5.8517    2.7298 H   0  0  0  0  0  0  0  0  0  0  0  0
   -4.6665    7.0621    1.8221 H   0  0  0  0  0  0  0  0  0  0  0  0
   -5.9178    6.1495   -0.1030 H   0  0  0  0  0  0  0  0  0  0  0  0
   -5.9721    4.6629   -2.0142 H   0  0  0  0  0  0  0  0  0  0  0  0
   -4.6754    3.4453   -2.2457 H   0  0  0  0  0  0  0  0  0  0  0  0
   -5.7958    1.8567   -0.7343 H   0  0  0  0  0  0  0  0  0  0  0  0
   -7.0167    3.1058   -0.2415 H   0  0  0  0  0  0  0  0  0  0  0  0
   -7.0053    2.4644   -1.9320 H   0  0  0  0  0  0  0  0  0  0  0  0
   -3.2496    2.7578   -0.2250 H   0  0  0  0  0  0  0  0  0  0  0  0
   10.9374    0.0416   -4.6032 H   0  0  0  0  0  0  0  0  0  0  0  0
   11.7332    0.4826   -6.8990 H   0  0  0  0  0  0  0  0  0  0  0  0
   10.1205    0.7728   -8.7479 H   0  0  0  0  0  0  0  0  0  0  0  0
    7.7851    1.3471   -9.4034 H   0  0  0  0  0  0  0  0  0  0  0  0
    6.4305    1.0992   -8.2554 H   0  0  0  0  0  0  0  0  0  0  0  0
    6.6460   -1.3834   -8.4816 H   0  0  0  0  0  0  0  0  0  0  0  0
    6.4092   -0.6018  -10.0955 H   0  0  0  0  0  0  0  0  0  0  0  0
    8.0497   -1.1685   -9.6066 H   0  0  0  0  0  0  0  0  0  0  0  0
    6.8526    0.2372   -5.9747 H   0  0  0  0  0  0  0  0  0  0  0  0
    3.9905    0.7859    2.6566 H   0  0  0  0  0  0  0  0  0  0  0  0
    2.3196    0.8786    3.0460 H   0  0  0  0  0  0  0  0  0  0  0  0
    3.2242   -0.3211    0.3492 H   0  0  0  0  0  0  0  0  0  0  0  0
    2.8426   -1.2725    1.8437 H   0  0  0  0  0  0  0  0  0  0  0  0
    1.5625   -0.2867    1.0421 H   0  0  0  0  0  0  0  0  0  0  0  0
    5.2821   -0.2785    1.4205 H   0  0  0  0  0  0  0  0  0  0  0  0
    6.9395   -0.2780    0.9340 H   0  0  0  0  0  0  0  0  0  0  0  0
    7.5736    1.7078    2.1052 H   0  0  0  0  0  0  0  0  0  0  0  0
    5.8672    2.1050    2.5475 H   0  0  0  0  0  0  0  0  0  0  0  0
    6.6650    0.6416    3.2562 H   0  0  0  0  0  0  0  0  0  0  0  0
    9.0254   -4.0613   -2.2973 H   0  0  0  0  0  0  0  0  0  0  0  0
    7.0947   -7.3187   -1.3736 H   0  0  0  0  0  0  0  0  0  0  0  0
    6.9317   -5.5569   -1.6644 H   0  0  0  0  0  0  0  0  0  0  0  0
    5.4133   -7.8370   -3.0943 H   0  0  0  0  0  0  0  0  0  0  0  0
    4.7321   -6.6732   -1.8941 H   0  0  0  0  0  0  0  0  0  0  0  0
    5.2520   -6.0892   -3.5129 H   0  0  0  0  0  0  0  0  0  0  0  0
    7.0605   -6.3352   -6.4357 H   0  0  0  0  0  0  0  0  0  0  0  0
    1.6514   -7.1259   -7.6936 H   0  0  0  0  0  0  0  0  0  0  0  0
  1  2  2  3
  2  3  1  0
  3  4  2  0
  3  5  1  0
  5  6  2  0
  6  7  1  0
  7  8  2  0
  8  9  1  0
  8 10  1  0
 10 11  1  0
 10 12  2  0
 12 13  1  0
  6 14  1  0
 14 15  2  3
 15 16  1  0
 16 17  3  0
 15 18  1  0
 18 19  3  0
  1 20  1  0
 20 21  2  0
 21 22  1  0
 22 23  1  0
 23 24  2  0
 23 25  1  0
 25 26  2  0
 26 27  1  0
 27 28  1  0
 28 29  2  0
 26 30  1  0
 30 31  2  0
 31 32  1  0
 32 33  2  0
 32 34  1  0
 34 35  2  0
 35 36  1  0
 36 37  2  0
 37 38  1  0
 38 39  2  0
 39 40  1  0
 40 41  1  0
 41 42  1  0
 40 43  2  0
 35 44  1  0
 44 45  1  0
 45 46  1  0
 46 47  1  0
 47 48  1  0
 48 49  1  0
 49 50  2  0
 50 51  1  0
 51 52  1  0
 49 53  1  0
 53 54  1  0
 54 55  1  0
 55 56  1  0
 56 57  1  0
 57 58  1  0
 58 59  2  0
 59 60  1  0
 60 61  2  0
 61 62  1  0
 62 63  1  0
 63 64  1  0
 62 65  2  0
 57 66  2  0
 66 67  1  0
 67 68  1  0
 68 69  1  0
 69 70  1  0
 70 71  1  0
 71 72  1  0
 72 73  1  0
 73 74  1  0
 74 75  1  0
 75 76  1  0
 73 77  1  0
 77 78  1  0
 70 79  1  0
 79 80  1  0
 66 81  1  0
 81 82  2  0
 82 83  1  0
 83 84  1  0
 84 85  1  0
 85 86  1  0
 83 87  2  0
 87 88  1  0
 87 89  1  0
 89 90  2  3
 90 91  1  0
 91 92  2  0
 91 93  1  0
 93 94  2  0
 94 95  1  0
 95 96  2  0
 96 97  1  0
 96 98  1  0
 98 99  1  0
 98100  2  0
100101  1  0
 94102  1  0
102103  2  3
103104  1  0
104105  3  0
103106  1  0
106107  3  0
 14  2  1  0
 29 20  1  0
 76 34  1  0
 88 81  1  0
102 90  1  0
 12  5  1  0
 27 22  2  0
 43 36  1  0
 75 44  2  0
100 93  1  0
 33 25  1  0
 74 46  2  0
 72 47  2  0
 52 48  2  0
 71 53  2  0
 69 54  2  0
 68 56  2  0
 65 58  1  0
  1108  1  0
  7109  1  0
 21110  1  0
 28111  1  0
 29112  1  0
 30113  1  0
 31114  1  0
 33115  1  0
 37116  1  0
 38117  1  0
 39118  1  0
 41119  1  0
 41120  1  0
 42121  1  0
 42122  1  0
 42123  1  0
 43124  1  0
 59125  1  0
 60126  1  0
 61127  1  0
 63128  1  0
 63129  1  0
 64130  1  0
 64131  1  0
 64132  1  0
 65133  1  0
 77134  1  0
 77135  1  0
 78136  1  0
 78137  1  0
 78138  1  0
 79139  1  0
 79140  1  0
 80141  1  0
 80142  1  0
 80143  1  0
 82144  1  0
 85145  1  0
 85146  1  0
 86147  1  0
 86148  1  0
 86149  1  0
 89150  1  0
 95151  1  0
M  END

