
     RDKit          3D

222244  0  0  0  0  0  0  0  0999 V2000
    6.6344   -6.9593   -3.3339 C   0  0  0  0  0  0  0  0  0  0  0  0
    6.3336   -6.8870   -4.6597 C   0  0  0  0  0  0  0  0  0  0  0  0
    5.0912   -7.3891   -5.1977 C   0  0  0  0  0  0  0  0  0  0  0  0
    4.4077   -8.3572   -4.6972 O   0  0  0  0  0  0  0  0  0  0  0  0
    4.7505   -6.6046   -6.3531 C   0  0  0  0  0  0  0  0  0  0  0  0
    5.8510   -5.8549   -6.7571 C   0  0  0  0  0  0  0  0  0  0  0  0
    5.6988   -4.9702   -7.8497 C   0  0  0  0  0  0  0  0  0  0  0  0
    4.3974   -4.6258   -8.2755 C   0  0  0  0  0  0  0  0  0  0  0  0
    4.2904   -3.3529   -8.7273 F   0  0  0  0  0  0  0  0  0  0  0  0
    3.2963   -5.1599   -7.5836 C   0  0  0  0  0  0  0  0  0  0  0  0
    2.4727   -4.2113   -7.0336 F   0  0  0  0  0  0  0  0  0  0  0  0
    3.4514   -6.3271   -6.8065 C   0  0  0  0  0  0  0  0  0  0  0  0
    2.3802   -6.8769   -6.1834 F   0  0  0  0  0  0  0  0  0  0  0  0
    6.9155   -5.8899   -5.6654 C   0  0  0  0  0  0  0  0  0  0  0  0
    7.8644   -4.9353   -5.4363 C   0  0  0  0  0  0  0  0  0  0  0  0
    8.3507   -4.6783   -4.1067 C   0  0  0  0  0  0  0  0  0  0  0  0
    8.6864   -4.5027   -3.0207 N   0  0  0  0  0  0  0  0  0  0  0  0
    8.0086   -3.7883   -6.2998 C   0  0  0  0  0  0  0  0  0  0  0  0
    7.9813   -2.8484   -7.0186 N   0  0  0  0  0  0  0  0  0  0  0  0
    5.5780   -6.8649   -2.2518 C   0  0  0  0  0  0  0  0  0  0  0  0
    5.8142   -6.8024   -0.8531 C   0  0  0  0  0  0  0  0  0  0  0  0
    6.9479   -7.3929   -0.1867 N   0  0  0  0  0  0  0  0  0  0  0  0
    8.2022   -6.6831   -0.1201 C   0  0  0  0  0  0  0  0  0  0  0  0
    9.4031   -7.4127   -0.1998 C   0  0  0  0  0  0  0  0  0  0  0  0
   10.6244   -6.7729    0.0171 C   0  0  0  0  0  0  0  0  0  0  0  0
   10.6562   -5.4059    0.3398 C   0  0  0  0  0  0  0  0  0  0  0  0
   11.9740   -4.7237    0.5619 C   0  0  0  0  0  0  0  0  0  0  0  0
    9.4581   -4.6726    0.3957 C   0  0  0  0  0  0  0  0  0  0  0  0
    8.2297   -5.3114    0.1668 C   0  0  0  0  0  0  0  0  0  0  0  0
    6.7131   -8.5192    0.6543 C   0  0  0  0  0  0  0  0  0  0  0  0
    7.1699   -8.5215    1.9887 C   0  0  0  0  0  0  0  0  0  0  0  0
    6.8187   -9.5544    2.8519 C   0  0  0  0  0  0  0  0  0  0  0  0
    6.0086  -10.6125    2.3956 C   0  0  0  0  0  0  0  0  0  0  0  0
    5.5589  -11.6814    3.3421 C   0  0  0  0  0  0  0  0  0  0  0  0
    5.5602  -10.6222    1.0671 C   0  0  0  0  0  0  0  0  0  0  0  0
    5.9116   -9.5917    0.2014 C   0  0  0  0  0  0  0  0  0  0  0  0
    4.6461   -6.4657   -0.1500 C   0  0  0  0  0  0  0  0  0  0  0  0
    4.3097   -6.0721    1.4526 S   0  0  0  0  0  0  0  0  0  0  0  0
    2.6945   -5.5686    1.1581 C   0  0  0  0  0  0  0  0  0  0  0  0
    2.4233   -5.7426   -0.2163 C   0  0  0  0  0  0  0  0  0  0  0  0
    1.1820   -5.4489   -0.8665 N   0  0  0  0  0  0  0  0  0  0  0  0
    1.1429   -4.3449   -1.7946 C   0  0  0  0  0  0  0  0  0  0  0  0
    1.2299   -4.5694   -3.1800 C   0  0  0  0  0  0  0  0  0  0  0  0
    1.0685   -3.5096   -4.0699 C   0  0  0  0  0  0  0  0  0  0  0  0
    0.9059   -2.1978   -3.5908 C   0  0  0  0  0  0  0  0  0  0  0  0
    0.6534   -1.0823   -4.5562 C   0  0  0  0  0  0  0  0  0  0  0  0
    0.9006   -1.9618   -2.2027 C   0  0  0  0  0  0  0  0  0  0  0  0
    1.0245   -3.0354   -1.3037 C   0  0  0  0  0  0  0  0  0  0  0  0
    0.0830   -6.4065   -0.7875 C   0  0  0  0  0  0  0  0  0  0  0  0
   -0.0914   -7.1736    0.3835 C   0  0  0  0  0  0  0  0  0  0  0  0
   -1.1606   -8.0784    0.4839 C   0  0  0  0  0  0  0  0  0  0  0  0
   -2.0264   -8.2701   -0.6003 C   0  0  0  0  0  0  0  0  0  0  0  0
   -3.1742   -9.2267   -0.4962 C   0  0  0  0  0  0  0  0  0  0  0  0
   -1.8530   -7.5239   -1.7723 C   0  0  0  0  0  0  0  0  0  0  0  0
   -0.8166   -6.5893   -1.8598 C   0  0  0  0  0  0  0  0  0  0  0  0
    3.5500   -6.2084   -0.9019 C   0  0  0  0  0  0  0  0  0  0  0  0
    3.9682   -6.3757   -2.5164 S   0  0  0  0  0  0  0  0  0  0  0  0
    2.0265   -4.5729    2.0337 C   0  0  0  0  0  0  0  0  0  0  0  0
    2.7332   -3.4777    2.5503 C   0  0  0  0  0  0  0  0  0  0  0  0
    1.8799   -2.5737    3.1584 C   0  0  0  0  0  0  0  0  0  0  0  0
    2.1300   -0.9722    3.5435 S   0  0  0  0  0  0  0  0  0  0  0  0
    0.4861   -0.6801    3.8618 C   0  0  0  0  0  0  0  0  0  0  0  0
   -0.0758    0.5663    4.1929 C   0  0  0  0  0  0  0  0  0  0  0  0
    0.8022    1.6610    4.6717 C   0  0  0  0  0  0  0  0  0  0  0  0
    1.0591    3.1479    3.9159 S   0  0  0  0  0  0  0  0  0  0  0  0
    2.2181    3.6939    5.0029 C   0  0  0  0  0  0  0  0  0  0  0  0
    2.8147    5.0600    5.0037 C   0  0  0  0  0  0  0  0  0  0  0  0
    2.1974    5.9239    6.1032 C   0  0  0  0  0  0  0  0  0  0  0  0
    2.4404    2.7043    5.9570 C   0  0  0  0  0  0  0  0  0  0  0  0
    3.6162    2.8328    7.2515 Cl  0  0  0  0  0  0  0  0  0  0  0  0
    1.6470    1.5735    5.7809 C   0  0  0  0  0  0  0  0  0  0  0  0
    1.7195    0.1844    6.8634 Cl  0  0  0  0  0  0  0  0  0  0  0  0
   -1.4854    0.6319    4.2311 C   0  0  0  0  0  0  0  0  0  0  0  0
   -2.2685   -0.5415    4.1163 C   0  0  0  0  0  0  0  0  0  0  0  0
   -1.6954   -1.8240    3.8710 C   0  0  0  0  0  0  0  0  0  0  0  0
   -2.4967   -3.0693    3.9644 C   0  0  0  0  0  0  0  0  0  0  0  0
   -4.0398   -3.2949    3.3319 S   0  0  0  0  0  0  0  0  0  0  0  0
   -4.3563   -4.7501    4.1180 C   0  0  0  0  0  0  0  0  0  0  0  0
   -5.6990   -5.4181    4.1423 C   0  0  0  0  0  0  0  0  0  0  0  0
   -6.3665   -5.2728    5.5166 C   0  0  0  0  0  0  0  0  0  0  0  0
   -3.2422   -5.0946    4.8728 C   0  0  0  0  0  0  0  0  0  0  0  0
   -2.2050   -4.1592    4.8054 C   0  0  0  0  0  0  0  0  0  0  0  0
   -0.7797   -4.2647    5.8462 Cl  0  0  0  0  0  0  0  0  0  0  0  0
   -3.1646   -6.5200    5.9017 Cl  0  0  0  0  0  0  0  0  0  0  0  0
   -0.2905   -1.8478    3.6553 C   0  0  0  0  0  0  0  0  0  0  0  0
    0.5458   -2.9018    3.2141 C   0  0  0  0  0  0  0  0  0  0  0  0
    0.3551   -4.3796    2.3927 S   0  0  0  0  0  0  0  0  0  0  0  0
   -3.9328   -0.1305    4.2054 S   0  0  0  0  0  0  0  0  0  0  0  0
   -3.6536    1.5208    4.3322 C   0  0  0  0  0  0  0  0  0  0  0  0
   -4.4982    2.5990    4.0564 C   0  0  0  0  0  0  0  0  0  0  0  0
   -3.7563    3.7409    3.7037 C   0  0  0  0  0  0  0  0  0  0  0  0
   -2.1093    3.3761    3.8864 S   0  0  0  0  0  0  0  0  0  0  0  0
   -2.3111    1.7725    4.3259 C   0  0  0  0  0  0  0  0  0  0  0  0
   -4.2262    4.8751    2.8564 C   0  0  0  0  0  0  0  0  0  0  0  0
   -5.3834    4.8942    2.0549 C   0  0  0  0  0  0  0  0  0  0  0  0
   -6.3671    3.8591    2.0029 N   0  0  0  0  0  0  0  0  0  0  0  0
   -7.6661    4.1231    2.5681 C   0  0  0  0  0  0  0  0  0  0  0  0
   -7.7800    4.7135    3.8417 C   0  0  0  0  0  0  0  0  0  0  0  0
   -9.0453    4.9421    4.3997 C   0  0  0  0  0  0  0  0  0  0  0  0
  -10.2019    4.6058    3.6850 C   0  0  0  0  0  0  0  0  0  0  0  0
  -11.5589    4.7913    4.3034 C   0  0  0  0  0  0  0  0  0  0  0  0
  -10.0895    4.0221    2.4086 C   0  0  0  0  0  0  0  0  0  0  0  0
   -8.8287    3.7897    1.8545 C   0  0  0  0  0  0  0  0  0  0  0  0
   -6.0948    2.6078    1.3163 C   0  0  0  0  0  0  0  0  0  0  0  0
   -6.6691    1.4143    1.7888 C   0  0  0  0  0  0  0  0  0  0  0  0
   -6.3899    0.1980    1.1684 C   0  0  0  0  0  0  0  0  0  0  0  0
   -5.5415    0.1604    0.0485 C   0  0  0  0  0  0  0  0  0  0  0  0
   -5.2761   -1.1564   -0.6288 C   0  0  0  0  0  0  0  0  0  0  0  0
   -4.9906    1.3496   -0.4513 C   0  0  0  0  0  0  0  0  0  0  0  0
   -5.2579    2.5700    0.1826 C   0  0  0  0  0  0  0  0  0  0  0  0
   -5.3337    5.9163    1.1074 C   0  0  0  0  0  0  0  0  0  0  0  0
   -6.1672    6.1067   -0.3211 S   0  0  0  0  0  0  0  0  0  0  0  0
   -5.0690    7.2079   -1.0404 C   0  0  0  0  0  0  0  0  0  0  0  0
   -4.0074    7.4266   -0.0926 C   0  0  0  0  0  0  0  0  0  0  0  0
   -2.8633    8.2646   -0.2569 N   0  0  0  0  0  0  0  0  0  0  0  0
   -1.6971    7.8426   -1.0210 C   0  0  0  0  0  0  0  0  0  0  0  0
   -1.4559    6.4725   -1.2853 C   0  0  0  0  0  0  0  0  0  0  0  0
   -0.2946    6.0972   -1.9734 C   0  0  0  0  0  0  0  0  0  0  0  0
    0.6284    7.0646   -2.4038 C   0  0  0  0  0  0  0  0  0  0  0  0
    1.8901    6.6571   -3.1051 C   0  0  0  0  0  0  0  0  0  0  0  0
    0.3891    8.4190   -2.1423 C   0  0  0  0  0  0  0  0  0  0  0  0
   -0.7612    8.7990   -1.4498 C   0  0  0  0  0  0  0  0  0  0  0  0
   -2.7044    9.3280    0.7186 C   0  0  0  0  0  0  0  0  0  0  0  0
   -3.7228   10.2802    0.8896 C   0  0  0  0  0  0  0  0  0  0  0  0
   -3.5540   11.3368    1.8011 C   0  0  0  0  0  0  0  0  0  0  0  0
   -2.3692   11.4450    2.5466 C   0  0  0  0  0  0  0  0  0  0  0  0
   -2.1769   12.5523    3.5395 C   0  0  0  0  0  0  0  0  0  0  0  0
   -1.3657   10.4755    2.3998 C   0  0  0  0  0  0  0  0  0  0  0  0
   -1.5391    9.4176    1.5046 C   0  0  0  0  0  0  0  0  0  0  0  0
   -4.2186    6.6708    1.0860 C   0  0  0  0  0  0  0  0  0  0  0  0
   -3.1956    6.1424    2.3274 S   0  0  0  0  0  0  0  0  0  0  0  0
   -5.1749    7.3668   -2.5315 C   0  0  0  0  0  0  0  0  0  0  0  0
   -4.3162    7.9077   -3.4417 C   0  0  0  0  0  0  0  0  0  0  0  0
   -3.4094    9.0536   -3.2469 C   0  0  0  0  0  0  0  0  0  0  0  0
   -3.5490    9.9656   -2.4028 O   0  0  0  0  0  0  0  0  0  0  0  0
   -2.4457    9.0460   -4.3659 C   0  0  0  0  0  0  0  0  0  0  0  0
   -2.7616    8.0256   -5.2419 C   0  0  0  0  0  0  0  0  0  0  0  0
   -2.1216    7.9284   -6.4886 C   0  0  0  0  0  0  0  0  0  0  0  0
   -1.0829    8.8080   -6.7815 C   0  0  0  0  0  0  0  0  0  0  0  0
   -0.4743    8.7040   -7.9881 F   0  0  0  0  0  0  0  0  0  0  0  0
   -0.7493    9.8368   -5.8892 C   0  0  0  0  0  0  0  0  0  0  0  0
    0.1865   10.7462   -6.2498 F   0  0  0  0  0  0  0  0  0  0  0  0
   -1.4396    9.9829   -4.6624 C   0  0  0  0  0  0  0  0  0  0  0  0
   -1.1780   11.0363   -3.8536 F   0  0  0  0  0  0  0  0  0  0  0  0
   -4.0011    7.3067   -4.7946 C   0  0  0  0  0  0  0  0  0  0  0  0
   -4.4021    6.0915   -5.2595 C   0  0  0  0  0  0  0  0  0  0  0  0
   -3.5514    5.2289   -6.0559 C   0  0  0  0  0  0  0  0  0  0  0  0
   -2.8611    4.5212   -6.6720 N   0  0  0  0  0  0  0  0  0  0  0  0
   -5.7864    5.6634   -5.2417 C   0  0  0  0  0  0  0  0  0  0  0  0
   -6.9082    5.3623   -5.2625 N   0  0  0  0  0  0  0  0  0  0  0  0
    7.6393   -6.7991   -2.9498 H   0  0  0  0  0  0  0  0  0  0  0  0
    6.5316   -4.3939   -8.2082 H   0  0  0  0  0  0  0  0  0  0  0  0
    9.3810   -8.4774   -0.3933 H   0  0  0  0  0  0  0  0  0  0  0  0
   11.5289   -7.3573   -0.0489 H   0  0  0  0  0  0  0  0  0  0  0  0
   12.3679   -4.3458   -0.4068 H   0  0  0  0  0  0  0  0  0  0  0  0
   11.8587   -3.8739    1.2650 H   0  0  0  0  0  0  0  0  0  0  0  0
   12.7160   -5.4294    1.0018 H   0  0  0  0  0  0  0  0  0  0  0  0
    9.4735   -3.6148    0.6359 H   0  0  0  0  0  0  0  0  0  0  0  0
    7.3084   -4.7384    0.2807 H   0  0  0  0  0  0  0  0  0  0  0  0
    7.7616   -7.6930    2.3718 H   0  0  0  0  0  0  0  0  0  0  0  0
    7.1528   -9.5200    3.8777 H   0  0  0  0  0  0  0  0  0  0  0  0
    4.5552  -11.4232    3.7358 H   0  0  0  0  0  0  0  0  0  0  0  0
    6.2711  -11.7835    4.1877 H   0  0  0  0  0  0  0  0  0  0  0  0
    5.5099  -12.6566    2.8181 H   0  0  0  0  0  0  0  0  0  0  0  0
    4.9185  -11.4145    0.6996 H   0  0  0  0  0  0  0  0  0  0  0  0
    5.5403   -9.5991   -0.8144 H   0  0  0  0  0  0  0  0  0  0  0  0
    1.3594   -5.5765   -3.5773 H   0  0  0  0  0  0  0  0  0  0  0  0
    1.0369   -3.7190   -5.1324 H   0  0  0  0  0  0  0  0  0  0  0  0
    1.1630   -0.1535   -4.2208 H   0  0  0  0  0  0  0  0  0  0  0  0
   -0.4397   -0.9043   -4.6195 H   0  0  0  0  0  0  0  0  0  0  0  0
    1.0355   -1.3339   -5.5681 H   0  0  0  0  0  0  0  0  0  0  0  0
    0.7661   -0.9571   -1.8080 H   0  0  0  0  0  0  0  0  0  0  0  0
    0.9990   -2.8546   -0.2369 H   0  0  0  0  0  0  0  0  0  0  0  0
    0.5570   -7.0669    1.2400 H   0  0  0  0  0  0  0  0  0  0  0  0
   -1.3049   -8.6245    1.4112 H   0  0  0  0  0  0  0  0  0  0  0  0
   -3.4215   -9.6534   -1.4925 H   0  0  0  0  0  0  0  0  0  0  0  0
   -4.0575   -8.6869   -0.1008 H   0  0  0  0  0  0  0  0  0  0  0  0
   -2.9221  -10.0698    0.1791 H   0  0  0  0  0  0  0  0  0  0  0  0
   -2.5170   -7.6566   -2.6260 H   0  0  0  0  0  0  0  0  0  0  0  0
   -0.7434   -6.0470   -2.7907 H   0  0  0  0  0  0  0  0  0  0  0  0
    3.7877   -3.2716    2.3637 H   0  0  0  0  0  0  0  0  0  0  0  0
    2.6702    5.5466    4.0188 H   0  0  0  0  0  0  0  0  0  0  0  0
    3.9060    4.9670    5.1780 H   0  0  0  0  0  0  0  0  0  0  0  0
    2.7193    6.9079    6.1382 H   0  0  0  0  0  0  0  0  0  0  0  0
    2.3093    5.4402    7.0975 H   0  0  0  0  0  0  0  0  0  0  0  0
    1.1160    6.0986    5.8940 H   0  0  0  0  0  0  0  0  0  0  0  0
   -6.3552   -4.9815    3.3641 H   0  0  0  0  0  0  0  0  0  0  0  0
   -5.5753   -6.4952    3.9031 H   0  0  0  0  0  0  0  0  0  0  0  0
   -6.0135   -6.0705    6.2105 H   0  0  0  0  0  0  0  0  0  0  0  0
   -7.4727   -5.3677    5.4067 H   0  0  0  0  0  0  0  0  0  0  0  0
   -6.1496   -4.2801    5.9742 H   0  0  0  0  0  0  0  0  0  0  0  0
   -5.5717    2.5017    3.9844 H   0  0  0  0  0  0  0  0  0  0  0  0
   -6.8933    4.9734    4.4160 H   0  0  0  0  0  0  0  0  0  0  0  0
   -9.1199    5.3730    5.3940 H   0  0  0  0  0  0  0  0  0  0  0  0
  -11.8351    3.8714    4.8630 H   0  0  0  0  0  0  0  0  0  0  0  0
  -11.5516    5.6593    4.9994 H   0  0  0  0  0  0  0  0  0  0  0  0
  -12.3198    4.9840    3.5153 H   0  0  0  0  0  0  0  0  0  0  0  0
  -10.9703    3.7386    1.8434 H   0  0  0  0  0  0  0  0  0  0  0  0
   -8.7582    3.3462    0.8619 H   0  0  0  0  0  0  0  0  0  0  0  0
   -7.3070    1.4196    2.6707 H   0  0  0  0  0  0  0  0  0  0  0  0
   -6.8289   -0.7117    1.5644 H   0  0  0  0  0  0  0  0  0  0  0  0
   -4.2890   -1.1422   -1.1450 H   0  0  0  0  0  0  0  0  0  0  0  0
   -6.0800   -1.3552   -1.3714 H   0  0  0  0  0  0  0  0  0  0  0  0
   -5.2638   -1.9824    0.1196 H   0  0  0  0  0  0  0  0  0  0  0  0
   -4.3523    1.3382   -1.3322 H   0  0  0  0  0  0  0  0  0  0  0  0
   -4.8176    3.4767   -0.2224 H   0  0  0  0  0  0  0  0  0  0  0  0
   -2.1400    5.7034   -0.9416 H   0  0  0  0  0  0  0  0  0  0  0  0
   -0.1088    5.0431   -2.1575 H   0  0  0  0  0  0  0  0  0  0  0  0
    1.8293    5.6062   -3.4607 H   0  0  0  0  0  0  0  0  0  0  0  0
    2.0670    7.3120   -3.9876 H   0  0  0  0  0  0  0  0  0  0  0  0
    2.7416    6.7476   -2.3995 H   0  0  0  0  0  0  0  0  0  0  0  0
    1.0846    9.1900   -2.4607 H   0  0  0  0  0  0  0  0  0  0  0  0
   -0.9246    9.8531   -1.2588 H   0  0  0  0  0  0  0  0  0  0  0  0
   -4.6324   10.2264    0.3042 H   0  0  0  0  0  0  0  0  0  0  0  0
   -4.3550   12.0625    1.9180 H   0  0  0  0  0  0  0  0  0  0  0  0
   -2.4348   12.1779    4.5510 H   0  0  0  0  0  0  0  0  0  0  0  0
   -2.8234   13.4227    3.2948 H   0  0  0  0  0  0  0  0  0  0  0  0
   -1.1183   12.8870    3.5314 H   0  0  0  0  0  0  0  0  0  0  0  0
   -0.4486   10.5279    2.9821 H   0  0  0  0  0  0  0  0  0  0  0  0
   -0.7413    8.6811    1.4090 H   0  0  0  0  0  0  0  0  0  0  0  0
   -5.8987    6.6668   -2.9161 H   0  0  0  0  0  0  0  0  0  0  0  0
   -2.4441    7.2045   -7.2252 H   0  0  0  0  0  0  0  0  0  0  0  0
  1  2  2  3
  2  3  1  0
  3  4  2  0
  3  5  1  0
  5  6  2  0
  6  7  1  0
  7  8  2  0
  8  9  1  0
  8 10  1  0
 10 11  1  0
 10 12  2  0
 12 13  1  0
  6 14  1  0
 14 15  2  3
 15 16  1  0
 16 17  3  0
 15 18  1  0
 18 19  3  0
  1 20  1  0
 20 21  2  0
 21 22  1  0
 22 23  1  0
 23 24  2  0
 24 25  1  0
 25 26  2  0
 26 27  1  0
 26 28  1  0
 28 29  2  0
 22 30  1  0
 30 31  2  0
 31 32  1  0
 32 33  2  0
 33 34  1  0
 33 35  1  0
 35 36  2  0
 21 37  1  0
 37 38  1  0
 38 39  1  0
 39 40  2  0
 40 41  1  0
 41 42  1  0
 42 43  2  0
 43 44  1  0
 44 45  2  0
 45 46  1  0
 45 47  1  0
 47 48  2  0
 41 49  1  0
 49 50  2  0
 50 51  1  0
 51 52  2  0
 52 53  1  0
 52 54  1  0
 54 55  2  0
 40 56  1  0
 56 57  1  0
 39 58  1  0
 58 59  2  0
 59 60  1  0
 60 61  1  0
 61 62  1  0
 62 63  2  0
 63 64  1  0
 64 65  1  0
 65 66  1  0
 66 67  1  0
 67 68  1  0
 66 69  2  0
 69 70  1  0
 69 71  1  0
 71 72  1  0
 63 73  1  0
 73 74  2  0
 74 75  1  0
 75 76  1  0
 76 77  1  0
 77 78  1  0
 78 79  1  0
 79 80  1  0
 78 81  2  0
 81 82  1  0
 82 83  1  0
 81 84  1  0
 75 85  2  0
 85 86  1  0
 86 87  1  0
 74 88  1  0
 88 89  1  0
 89 90  1  0
 90 91  2  0
 91 92  1  0
 92 93  1  0
 91 94  1  0
 94 95  2  0
 95 96  1  0
 96 97  1  0
 97 98  2  0
 98 99  1  0
 99100  2  0
100101  1  0
100102  1  0
102103  2  0
 96104  1  0
104105  2  0
105106  1  0
106107  2  0
107108  1  0
107109  1  0
109110  2  0
 95111  1  0
111112  1  0
112113  1  0
113114  2  0
114115  1  0
115116  1  0
116117  2  0
117118  1  0
118119  2  0
119120  1  0
119121  1  0
121122  2  0
115123  1  0
123124  2  0
124125  1  0
125126  2  0
126127  1  0
126128  1  0
128129  2  0
114130  1  0
130131  1  0
113132  1  0
132133  2  3
133134  1  0
134135  2  0
134136  1  0
136137  2  0
137138  1  0
138139  2  0
139140  1  0
139141  1  0
141142  1  0
141143  2  0
143144  1  0
137145  1  0
145146  2  3
146147  1  0
147148  3  0
146149  1  0
149150  3  0
 14  2  1  0
 57 20  1  0
 87 58  1  0
 93 89  2  0
131 94  1  0
145133  1  0
 12  5  1  0
 29 23  1  0
 36 30  1  0
 56 37  2  0
 86 60  2  0
103 97  1  0
110104  1  0
130111  2  0
143136  1  0
 48 42  1  0
 55 49  1  0
 85 62  1  0
122116  1  0
129123  1  0
 71 64  2  0
 93 73  1  0
 82 76  2  0
  1151  1  0
  7152  1  0
 24153  1  0
 25154  1  0
 27155  1  0
 27156  1  0
 27157  1  0
 28158  1  0
 29159  1  0
 31160  1  0
 32161  1  0
 34162  1  0
 34163  1  0
 34164  1  0
 35165  1  0
 36166  1  0
 43167  1  0
 44168  1  0
 46169  1  0
 46170  1  0
 46171  1  0
 47172  1  0
 48173  1  0
 50174  1  0
 51175  1  0
 53176  1  0
 53177  1  0
 53178  1  0
 54179  1  0
 55180  1  0
 59181  1  0
 67182  1  0
 67183  1  0
 68184  1  0
 68185  1  0
 68186  1  0
 79187  1  0
 79188  1  0
 80189  1  0
 80190  1  0
 80191  1  0
 90192  1  0
 98193  1  0
 99194  1  0
101195  1  0
101196  1  0
101197  1  0
102198  1  0
103199  1  0
105200  1  0
106201  1  0
108202  1  0
108203  1  0
108204  1  0
109205  1  0
110206  1  0
117207  1  0
118208  1  0
120209  1  0
120210  1  0
120211  1  0
121212  1  0
122213  1  0
124214  1  0
125215  1  0
127216  1  0
127217  1  0
127218  1  0
128219  1  0
129220  1  0
132221  1  0
138222  1  0
M  END

