
     RDKit          3D

233257  0  0  0  0  0  0  0  0999 V2000
   -1.0906    8.2954   -2.8610 C   0  0  0  0  0  0  0  0  0  0  0  0
   -1.3399    7.5074   -3.9296 C   0  0  0  0  0  0  0  0  0  0  0  0
   -0.8167    6.1484   -4.1313 C   0  0  0  0  0  0  0  0  0  0  0  0
    0.1978    5.6433   -3.5827 O   0  0  0  0  0  0  0  0  0  0  0  0
   -1.5987    5.5083   -5.1650 C   0  0  0  0  0  0  0  0  0  0  0  0
   -2.5111    6.4087   -5.6821 C   0  0  0  0  0  0  0  0  0  0  0  0
   -3.4419    5.9817   -6.6489 C   0  0  0  0  0  0  0  0  0  0  0  0
   -3.3967    4.6483   -7.0942 C   0  0  0  0  0  0  0  0  0  0  0  0
   -4.2864    4.2202   -8.0287 F   0  0  0  0  0  0  0  0  0  0  0  0
   -2.4487    3.7495   -6.5724 C   0  0  0  0  0  0  0  0  0  0  0  0
   -2.4250    2.4622   -6.9995 F   0  0  0  0  0  0  0  0  0  0  0  0
   -1.5506    4.1732   -5.5822 C   0  0  0  0  0  0  0  0  0  0  0  0
   -0.6635    3.3050   -5.0419 F   0  0  0  0  0  0  0  0  0  0  0  0
   -2.3255    7.7428   -5.0347 C   0  0  0  0  0  0  0  0  0  0  0  0
   -2.7441    8.9433   -5.5089 C   0  0  0  0  0  0  0  0  0  0  0  0
   -3.5494    9.0674   -6.6992 C   0  0  0  0  0  0  0  0  0  0  0  0
   -4.1950    9.1791   -7.6554 N   0  0  0  0  0  0  0  0  0  0  0  0
   -2.2832   10.1916   -4.9590 C   0  0  0  0  0  0  0  0  0  0  0  0
   -1.9171   11.1974   -4.5202 N   0  0  0  0  0  0  0  0  0  0  0  0
   -0.2153    7.8595   -1.7671 C   0  0  0  0  0  0  0  0  0  0  0  0
    1.0920    8.3103   -1.5550 C   0  0  0  0  0  0  0  0  0  0  0  0
    1.6271    9.5274   -2.0957 N   0  0  0  0  0  0  0  0  0  0  0  0
    1.1260   10.8091   -1.6394 C   0  0  0  0  0  0  0  0  0  0  0  0
    1.3253   11.9768   -2.4044 C   0  0  0  0  0  0  0  0  0  0  0  0
    0.8252   13.2073   -1.9674 C   0  0  0  0  0  0  0  0  0  0  0  0
    0.0908   13.2930   -0.7768 C   0  0  0  0  0  0  0  0  0  0  0  0
   -0.4400   14.6144   -0.3049 C   0  0  0  0  0  0  0  0  0  0  0  0
   -0.0779   12.1449    0.0085 C   0  0  0  0  0  0  0  0  0  0  0  0
    0.4267   10.9145   -0.4187 C   0  0  0  0  0  0  0  0  0  0  0  0
    2.6757    9.4421   -3.0667 C   0  0  0  0  0  0  0  0  0  0  0  0
    3.9806    9.8400   -2.7289 C   0  0  0  0  0  0  0  0  0  0  0  0
    4.9828    9.8501   -3.7007 C   0  0  0  0  0  0  0  0  0  0  0  0
    4.6913    9.4927   -5.0273 C   0  0  0  0  0  0  0  0  0  0  0  0
    5.7752    9.5005   -6.0626 C   0  0  0  0  0  0  0  0  0  0  0  0
    3.3912    9.0728   -5.3583 C   0  0  0  0  0  0  0  0  0  0  0  0
    2.3898    9.0495   -4.3811 C   0  0  0  0  0  0  0  0  0  0  0  0
    1.7440    7.5268   -0.6054 C   0  0  0  0  0  0  0  0  0  0  0  0
    3.3379    7.3907   -0.1151 S   0  0  0  0  0  0  0  0  0  0  0  0
    3.0684    6.0321    0.8763 C   0  0  0  0  0  0  0  0  0  0  0  0
    1.6959    5.6712    0.8169 C   0  0  0  0  0  0  0  0  0  0  0  0
    1.1135    4.5239    1.4904 N   0  0  0  0  0  0  0  0  0  0  0  0
    1.7257    3.9553    2.6603 C   0  0  0  0  0  0  0  0  0  0  0  0
    2.1572    2.6215    2.6474 C   0  0  0  0  0  0  0  0  0  0  0  0
    2.7297    2.0559    3.7885 C   0  0  0  0  0  0  0  0  0  0  0  0
    2.8051    2.7901    4.9790 C   0  0  0  0  0  0  0  0  0  0  0  0
    3.4564    2.1980    6.1916 C   0  0  0  0  0  0  0  0  0  0  0  0
    2.3391    4.1148    4.9997 C   0  0  0  0  0  0  0  0  0  0  0  0
    1.8092    4.6967    3.8446 C   0  0  0  0  0  0  0  0  0  0  0  0
   -0.2321    4.1012    1.2366 C   0  0  0  0  0  0  0  0  0  0  0  0
   -1.2984    4.7244    1.8977 C   0  0  0  0  0  0  0  0  0  0  0  0
   -2.5995    4.2356    1.7608 C   0  0  0  0  0  0  0  0  0  0  0  0
   -2.8468    3.1014    0.9718 C   0  0  0  0  0  0  0  0  0  0  0  0
   -4.2357    2.5393    0.8840 C   0  0  0  0  0  0  0  0  0  0  0  0
   -1.7744    2.4613    0.3282 C   0  0  0  0  0  0  0  0  0  0  0  0
   -0.4765    2.9651    0.4471 C   0  0  0  0  0  0  0  0  0  0  0  0
    1.0038    6.5307   -0.0480 C   0  0  0  0  0  0  0  0  0  0  0  0
   -0.5230    6.5316   -0.7513 S   0  0  0  0  0  0  0  0  0  0  0  0
    4.1486    5.0717    1.1518 C   0  0  0  0  0  0  0  0  0  0  0  0
    4.9629    4.9864    2.3023 C   0  0  0  0  0  0  0  0  0  0  0  0
    5.0518    6.0138    3.3757 C   0  0  0  0  0  0  0  0  0  0  0  0
    5.1395    7.3764    3.0366 C   0  0  0  0  0  0  0  0  0  0  0  0
    5.2726    8.3463    4.0307 C   0  0  0  0  0  0  0  0  0  0  0  0
    5.3402    7.9741    5.3735 C   0  0  0  0  0  0  0  0  0  0  0  0
    5.2565    6.6236    5.7378 C   0  0  0  0  0  0  0  0  0  0  0  0
    5.3590    6.2158    7.1883 C   0  0  0  0  0  0  0  0  0  0  0  0
    4.1404    6.6631    7.9905 C   0  0  0  0  0  0  0  0  0  0  0  0
    5.1169    5.6516    4.7331 C   0  0  0  0  0  0  0  0  0  0  0  0
    5.6449    3.7481    2.3115 C   0  0  0  0  0  0  0  0  0  0  0  0
    6.4273    2.8758    3.5381 S   0  0  0  0  0  0  0  0  0  0  0  0
    6.4416    1.4436    2.6273 C   0  0  0  0  0  0  0  0  0  0  0  0
    6.2338    0.1394    2.9936 C   0  0  0  0  0  0  0  0  0  0  0  0
    6.0363   -0.3636    4.2899 C   0  0  0  0  0  0  0  0  0  0  0  0
    5.2575   -1.5466    4.4650 C   0  0  0  0  0  0  0  0  0  0  0  0
    5.0172   -1.9482    5.7377 N   0  0  0  0  0  0  0  0  0  0  0  0
    5.8101   -0.7505    6.5594 S   0  0  0  0  0  0  0  0  0  0  0  0
    6.4488    0.2679    5.4187 N   0  0  0  0  0  0  0  0  0  0  0  0
    4.8272   -2.2299    3.3251 C   0  0  0  0  0  0  0  0  0  0  0  0
    4.0433   -3.3397    3.1658 C   0  0  0  0  0  0  0  0  0  0  0  0
    2.7056   -3.9742    4.0009 S   0  0  0  0  0  0  0  0  0  0  0  0
    2.1122   -4.6980    2.5693 C   0  0  0  0  0  0  0  0  0  0  0  0
    0.8835   -5.2785    2.2385 C   0  0  0  0  0  0  0  0  0  0  0  0
   -0.2631   -5.2918    3.1631 C   0  0  0  0  0  0  0  0  0  0  0  0
   -0.3179   -6.1940    4.2309 C   0  0  0  0  0  0  0  0  0  0  0  0
   -1.3767   -6.1302    5.1453 C   0  0  0  0  0  0  0  0  0  0  0  0
   -2.3754   -5.1617    4.9984 C   0  0  0  0  0  0  0  0  0  0  0  0
   -2.3244   -4.2486    3.9327 C   0  0  0  0  0  0  0  0  0  0  0  0
   -3.3792   -3.1856    3.7745 C   0  0  0  0  0  0  0  0  0  0  0  0
   -2.9491   -1.8908    4.4539 C   0  0  0  0  0  0  0  0  0  0  0  0
   -1.2465   -4.3021    3.0379 C   0  0  0  0  0  0  0  0  0  0  0  0
    0.8017   -5.5199    0.8493 C   0  0  0  0  0  0  0  0  0  0  0  0
    2.2049   -4.9242    0.0759 S   0  0  0  0  0  0  0  0  0  0  0  0
    2.9229   -4.4168    1.4989 C   0  0  0  0  0  0  0  0  0  0  0  0
    3.9870   -3.5982    1.8350 C   0  0  0  0  0  0  0  0  0  0  0  0
    4.6565   -2.6781    1.0998 N   0  0  0  0  0  0  0  0  0  0  0  0
    5.1227   -1.7870    2.0308 C   0  0  0  0  0  0  0  0  0  0  0  0
    5.6712   -0.4886    1.8670 C   0  0  0  0  0  0  0  0  0  0  0  0
    5.3727    0.4430    0.9017 N   0  0  0  0  0  0  0  0  0  0  0  0
    5.8583    1.6108    1.4043 C   0  0  0  0  0  0  0  0  0  0  0  0
    5.4072    2.9239    1.2324 C   0  0  0  0  0  0  0  0  0  0  0  0
    4.3070    3.6613    0.2161 S   0  0  0  0  0  0  0  0  0  0  0  0
    4.3098    0.3614   -0.1156 C   0  0  0  0  0  0  0  0  0  0  0  0
    4.8471    0.6715   -1.5108 C   0  0  0  0  0  0  0  0  0  0  0  0
    5.0570   -2.8182   -0.3067 C   0  0  0  0  0  0  0  0  0  0  0  0
    5.8597   -4.0978   -0.5247 C   0  0  0  0  0  0  0  0  0  0  0  0
   -0.2364   -6.2916    0.1417 C   0  0  0  0  0  0  0  0  0  0  0  0
   -1.6244   -6.1730    0.2543 C   0  0  0  0  0  0  0  0  0  0  0  0
   -2.3261   -7.0809   -0.5656 C   0  0  0  0  0  0  0  0  0  0  0  0
   -3.7328   -7.2057   -0.6768 C   0  0  0  0  0  0  0  0  0  0  0  0
   -4.6706   -6.4668    0.2121 C   0  0  0  0  0  0  0  0  0  0  0  0
   -4.4848   -6.4962    1.6062 C   0  0  0  0  0  0  0  0  0  0  0  0
   -5.3846   -5.8417    2.4528 C   0  0  0  0  0  0  0  0  0  0  0  0
   -6.4949   -5.1722    1.9252 C   0  0  0  0  0  0  0  0  0  0  0  0
   -7.6687   -4.3679    3.0189 S   0  0  0  0  0  0  0  0  0  0  0  0
   -8.6321   -5.8846    3.3859 C   0  0  0  0  0  0  0  0  0  0  0  0
   -8.1807   -6.4792    4.7140 C   0  0  0  0  0  0  0  0  0  0  0  0
   -6.6754   -5.1225    0.5359 C   0  0  0  0  0  0  0  0  0  0  0  0
   -7.7360   -4.4639    0.0053 F   0  0  0  0  0  0  0  0  0  0  0  0
   -5.7585   -5.7493   -0.3141 C   0  0  0  0  0  0  0  0  0  0  0  0
   -4.2053   -8.1473   -1.6195 C   0  0  0  0  0  0  0  0  0  0  0  0
   -3.3473   -8.9685   -2.3617 C   0  0  0  0  0  0  0  0  0  0  0  0
   -1.9488   -8.8620   -2.2269 C   0  0  0  0  0  0  0  0  0  0  0  0
   -1.0145   -9.7417   -2.9620 C   0  0  0  0  0  0  0  0  0  0  0  0
   -0.0214   -9.1892   -3.7837 C   0  0  0  0  0  0  0  0  0  0  0  0
    0.9448  -10.0108   -4.3746 C   0  0  0  0  0  0  0  0  0  0  0  0
    0.9162  -11.3915   -4.1508 C   0  0  0  0  0  0  0  0  0  0  0  0
    2.2577  -12.4208   -4.7614 S   0  0  0  0  0  0  0  0  0  0  0  0
    3.2269  -12.2147   -3.2259 C   0  0  0  0  0  0  0  0  0  0  0  0
    4.4698  -13.0899   -3.2584 C   0  0  0  0  0  0  0  0  0  0  0  0
   -0.1077  -11.9560   -3.3824 C   0  0  0  0  0  0  0  0  0  0  0  0
   -1.0598  -11.1320   -2.7771 C   0  0  0  0  0  0  0  0  0  0  0  0
   -0.1462  -13.2959   -3.1677 F   0  0  0  0  0  0  0  0  0  0  0  0
   -1.4761   -7.8870   -1.3318 C   0  0  0  0  0  0  0  0  0  0  0  0
    0.1173   -7.5006   -0.9752 S   0  0  0  0  0  0  0  0  0  0  0  0
   -4.0229   -9.8350   -3.2374 C   0  0  0  0  0  0  0  0  0  0  0  0
   -5.4131   -9.7107   -3.1914 C   0  0  0  0  0  0  0  0  0  0  0  0
   -5.7899   -8.4855   -2.0821 S   0  0  0  0  0  0  0  0  0  0  0  0
   -6.3068  -10.3525   -4.1779 C   0  0  0  0  0  0  0  0  0  0  0  0
   -7.6590  -10.4050   -4.1399 C   0  0  0  0  0  0  0  0  0  0  0  0
   -8.5066  -10.2232   -2.9506 C   0  0  0  0  0  0  0  0  0  0  0  0
   -8.1133  -10.0986   -1.7634 O   0  0  0  0  0  0  0  0  0  0  0  0
   -9.8809  -10.4932   -3.3169 C   0  0  0  0  0  0  0  0  0  0  0  0
   -9.9447  -10.8974   -4.6373 C   0  0  0  0  0  0  0  0  0  0  0  0
  -11.1935  -11.2251   -5.1963 C   0  0  0  0  0  0  0  0  0  0  0  0
  -12.3498  -11.1503   -4.3982 C   0  0  0  0  0  0  0  0  0  0  0  0
  -13.5564  -11.4720   -4.9259 F   0  0  0  0  0  0  0  0  0  0  0  0
  -12.2626  -10.7345   -3.0557 C   0  0  0  0  0  0  0  0  0  0  0  0
  -13.3808  -10.6519   -2.2951 F   0  0  0  0  0  0  0  0  0  0  0  0
  -11.0175  -10.4052   -2.5070 C   0  0  0  0  0  0  0  0  0  0  0  0
  -10.9229  -10.0165   -1.2111 F   0  0  0  0  0  0  0  0  0  0  0  0
   -8.5787  -10.8335   -5.2535 C   0  0  0  0  0  0  0  0  0  0  0  0
   -8.2744  -10.9773   -6.5766 C   0  0  0  0  0  0  0  0  0  0  0  0
   -6.9891  -10.6440   -7.1243 C   0  0  0  0  0  0  0  0  0  0  0  0
   -5.9577  -10.3779   -7.5845 N   0  0  0  0  0  0  0  0  0  0  0  0
   -9.2070  -11.4936   -7.5430 C   0  0  0  0  0  0  0  0  0  0  0  0
   -9.9308  -11.9194   -8.3382 N   0  0  0  0  0  0  0  0  0  0  0  0
   -1.5705    9.2462   -2.7359 H   0  0  0  0  0  0  0  0  0  0  0  0
   -4.2127    6.6284   -7.0270 H   0  0  0  0  0  0  0  0  0  0  0  0
    1.8606   11.9416   -3.3451 H   0  0  0  0  0  0  0  0  0  0  0  0
    1.0016   14.0934   -2.5631 H   0  0  0  0  0  0  0  0  0  0  0  0
   -1.3640   14.4728    0.2979 H   0  0  0  0  0  0  0  0  0  0  0  0
    0.3250   15.1177    0.3228 H   0  0  0  0  0  0  0  0  0  0  0  0
   -0.6942   15.2710   -1.1642 H   0  0  0  0  0  0  0  0  0  0  0  0
   -0.5941   12.2013    0.9589 H   0  0  0  0  0  0  0  0  0  0  0  0
    0.2773   10.0539    0.2199 H   0  0  0  0  0  0  0  0  0  0  0  0
    4.2058   10.1504   -1.7191 H   0  0  0  0  0  0  0  0  0  0  0  0
    5.9873   10.1523   -3.4254 H   0  0  0  0  0  0  0  0  0  0  0  0
    6.4603   10.3589   -5.8949 H   0  0  0  0  0  0  0  0  0  0  0  0
    6.3549    8.5563   -6.0040 H   0  0  0  0  0  0  0  0  0  0  0  0
    5.3496    9.5978   -7.0840 H   0  0  0  0  0  0  0  0  0  0  0  0
    3.1471    8.7919   -6.3756 H   0  0  0  0  0  0  0  0  0  0  0  0
    1.3823    8.7580   -4.6574 H   0  0  0  0  0  0  0  0  0  0  0  0
    2.0679    2.0335    1.7467 H   0  0  0  0  0  0  0  0  0  0  0  0
    3.1020    1.0377    3.7440 H   0  0  0  0  0  0  0  0  0  0  0  0
    2.9931    2.5963    7.1239 H   0  0  0  0  0  0  0  0  0  0  0  0
    4.5377    2.4515    6.1953 H   0  0  0  0  0  0  0  0  0  0  0  0
    3.3523    1.0934    6.1941 H   0  0  0  0  0  0  0  0  0  0  0  0
    2.4020    4.6991    5.9074 H   0  0  0  0  0  0  0  0  0  0  0  0
    1.4557    5.7204    3.8756 H   0  0  0  0  0  0  0  0  0  0  0  0
   -1.1136    5.5852    2.5292 H   0  0  0  0  0  0  0  0  0  0  0  0
   -3.4136    4.7250    2.2820 H   0  0  0  0  0  0  0  0  0  0  0  0
   -4.9824    3.3624    0.8207 H   0  0  0  0  0  0  0  0  0  0  0  0
   -4.3538    1.8992   -0.0146 H   0  0  0  0  0  0  0  0  0  0  0  0
   -4.4460    1.9340    1.7913 H   0  0  0  0  0  0  0  0  0  0  0  0
   -1.9465    1.5633   -0.2570 H   0  0  0  0  0  0  0  0  0  0  0  0
    0.3447    2.4543   -0.0339 H   0  0  0  0  0  0  0  0  0  0  0  0
    5.1530    7.6897    2.0029 H   0  0  0  0  0  0  0  0  0  0  0  0
    5.3505    9.3928    3.7593 H   0  0  0  0  0  0  0  0  0  0  0  0
    5.4714    8.7393    6.1332 H   0  0  0  0  0  0  0  0  0  0  0  0
    5.4579    5.1139    7.2812 H   0  0  0  0  0  0  0  0  0  0  0  0
    6.2748    6.6698    7.6275 H   0  0  0  0  0  0  0  0  0  0  0  0
    4.0464    7.7684    7.9732 H   0  0  0  0  0  0  0  0  0  0  0  0
    4.2592    6.3362    9.0462 H   0  0  0  0  0  0  0  0  0  0  0  0
    3.2160    6.2054    7.5806 H   0  0  0  0  0  0  0  0  0  0  0  0
    5.0502    4.6195    5.0245 H   0  0  0  0  0  0  0  0  0  0  0  0
    0.4556   -6.9399    4.3609 H   0  0  0  0  0  0  0  0  0  0  0  0
   -1.4167   -6.8211    5.9775 H   0  0  0  0  0  0  0  0  0  0  0  0
   -3.1897   -5.1177    5.7134 H   0  0  0  0  0  0  0  0  0  0  0  0
   -3.5475   -2.9852    2.6952 H   0  0  0  0  0  0  0  0  0  0  0  0
   -4.3450   -3.5279    4.2055 H   0  0  0  0  0  0  0  0  0  0  0  0
   -2.7668   -2.0623    5.5372 H   0  0  0  0  0  0  0  0  0  0  0  0
   -2.0162   -1.5039    3.9869 H   0  0  0  0  0  0  0  0  0  0  0  0
   -3.7511   -1.1266    4.3427 H   0  0  0  0  0  0  0  0  0  0  0  0
   -1.1822   -3.5799    2.2348 H   0  0  0  0  0  0  0  0  0  0  0  0
    3.4936    1.0663    0.1377 H   0  0  0  0  0  0  0  0  0  0  0  0
    3.8072   -0.6183   -0.1135 H   0  0  0  0  0  0  0  0  0  0  0  0
    5.3654    1.6502   -1.5257 H   0  0  0  0  0  0  0  0  0  0  0  0
    5.5628   -0.1064   -1.8494 H   0  0  0  0  0  0  0  0  0  0  0  0
    4.0007    0.7124   -2.2262 H   0  0  0  0  0  0  0  0  0  0  0  0
    5.7112   -1.9759   -0.6012 H   0  0  0  0  0  0  0  0  0  0  0  0
    4.1535   -2.8265   -0.9530 H   0  0  0  0  0  0  0  0  0  0  0  0
    6.1773   -4.1555   -1.5902 H   0  0  0  0  0  0  0  0  0  0  0  0
    6.7690   -4.0964    0.1153 H   0  0  0  0  0  0  0  0  0  0  0  0
    5.2446   -4.9929   -0.2976 H   0  0  0  0  0  0  0  0  0  0  0  0
   -2.1086   -5.4299    0.8664 H   0  0  0  0  0  0  0  0  0  0  0  0
   -3.6567   -7.0333    2.0417 H   0  0  0  0  0  0  0  0  0  0  0  0
   -5.2139   -5.8564    3.5211 H   0  0  0  0  0  0  0  0  0  0  0  0
   -9.7054   -5.6113    3.4646 H   0  0  0  0  0  0  0  0  0  0  0  0
   -8.5343   -6.6420    2.5776 H   0  0  0  0  0  0  0  0  0  0  0  0
   -7.1032   -6.7457    4.6719 H   0  0  0  0  0  0  0  0  0  0  0  0
   -8.3447   -5.7443    5.5326 H   0  0  0  0  0  0  0  0  0  0  0  0
   -8.7641   -7.4009    4.9405 H   0  0  0  0  0  0  0  0  0  0  0  0
   -5.9122   -5.6890   -1.3867 H   0  0  0  0  0  0  0  0  0  0  0  0
    0.0229   -8.1162   -3.9488 H   0  0  0  0  0  0  0  0  0  0  0  0
    1.7327   -9.5680   -4.9789 H   0  0  0  0  0  0  0  0  0  0  0  0
    2.6076  -12.5022   -2.3492 H   0  0  0  0  0  0  0  0  0  0  0  0
    3.5254  -11.1482   -3.1195 H   0  0  0  0  0  0  0  0  0  0  0  0
    5.1150  -12.8020   -4.1170 H   0  0  0  0  0  0  0  0  0  0  0  0
    4.1794  -14.1578   -3.3534 H   0  0  0  0  0  0  0  0  0  0  0  0
    5.0407  -12.9557   -2.3147 H   0  0  0  0  0  0  0  0  0  0  0  0
   -1.8148  -11.5767   -2.1477 H   0  0  0  0  0  0  0  0  0  0  0  0
   -3.5261  -10.5088   -3.9234 H   0  0  0  0  0  0  0  0  0  0  0  0
   -5.7903  -10.8019   -5.0063 H   0  0  0  0  0  0  0  0  0  0  0  0
  -11.3118  -11.5581   -6.2108 H   0  0  0  0  0  0  0  0  0  0  0  0
  1  2  2  3
  2  3  1  0
  3  4  2  0
  3  5  1  0
  5  6  2  0
  6  7  1  0
  7  8  2  0
  8  9  1  0
  8 10  1  0
 10 11  1  0
 10 12  2  0
 12 13  1  0
  6 14  1  0
 14 15  2  3
 15 16  1  0
 16 17  3  0
 15 18  1  0
 18 19  3  0
  1 20  1  0
 20 21  2  0
 21 22  1  0
 22 23  1  0
 23 24  2  0
 24 25  1  0
 25 26  2  0
 26 27  1  0
 26 28  1  0
 28 29  2  0
 22 30  1  0
 30 31  2  0
 31 32  1  0
 32 33  2  0
 33 34  1  0
 33 35  1  0
 35 36  2  0
 21 37  1  0
 37 38  1  0
 38 39  1  0
 39 40  2  0
 40 41  1  0
 41 42  1  0
 42 43  2  0
 43 44  1  0
 44 45  2  0
 45 46  1  0
 45 47  1  0
 47 48  2  0
 41 49  1  0
 49 50  2  0
 50 51  1  0
 51 52  2  0
 52 53  1  0
 52 54  1  0
 54 55  2  0
 40 56  1  0
 56 57  1  0
 39 58  1  0
 58 59  2  0
 59 60  1  0
 60 61  2  0
 61 62  1  0
 62 63  2  0
 63 64  1  0
 64 65  1  0
 65 66  1  0
 64 67  2  0
 59 68  1  0
 68 69  1  0
 69 70  1  0
 70 71  1  0
 71 72  1  0
 72 73  1  0
 73 74  2  0
 74 75  1  0
 75 76  1  0
 73 77  1  0
 77 78  1  0
 78 79  1  0
 79 80  1  0
 80 81  1  0
 81 82  1  0
 82 83  2  0
 83 84  1  0
 84 85  2  0
 85 86  1  0
 86 87  1  0
 87 88  1  0
 86 89  2  0
 81 90  2  0
 90 91  1  0
 91 92  1  0
 92 93  1  0
 93 94  1  0
 94 95  1  0
 95 96  1  0
 96 97  1  0
 97 98  1  0
 98 99  1  0
 99100  1  0
 97101  1  0
101102  1  0
 94103  1  0
103104  1  0
 90105  1  0
105106  2  0
106107  1  0
107108  2  0
108109  1  0
109110  2  0
110111  1  0
111112  2  0
112113  1  0
113114  1  0
114115  1  0
112116  1  0
116117  1  0
116118  2  0
108119  1  0
119120  2  0
120121  1  0
121122  1  0
122123  2  0
123124  1  0
124125  2  0
125126  1  0
126127  1  0
127128  1  0
125129  1  0
129130  2  0
129131  1  0
121132  2  0
132133  1  0
120134  1  0
134135  2  0
135136  1  0
135137  1  0
137138  2  3
138139  1  0
139140  2  0
139141  1  0
141142  2  0
142143  1  0
143144  2  0
144145  1  0
144146  1  0
146147  1  0
146148  2  0
148149  1  0
142150  1  0
150151  2  3
151152  1  0
152153  3  0
151154  1  0
154155  3  0
 14  2  1  0
 57 20  1  0
100 58  1  0
133105  1  0
150138  1  0
 12  5  1  0
 29 23  1  0
 36 30  1  0
 56 37  2  0
 67 60  1  0
 99 68  2  0
132107  1  0
148141  1  0
 48 42  1  0
 55 49  1  0
 98 70  2  0
118109  1  0
136119  1  0
 96 71  2  0
130122  1  0
 76 72  2  0
 95 77  2  0
 93 78  2  0
 92 80  2  0
 89 82  1  0
  1156  1  0
  7157  1  0
 24158  1  0
 25159  1  0
 27160  1  0
 27161  1  0
 27162  1  0
 28163  1  0
 29164  1  0
 31165  1  0
 32166  1  0
 34167  1  0
 34168  1  0
 34169  1  0
 35170  1  0
 36171  1  0
 43172  1  0
 44173  1  0
 46174  1  0
 46175  1  0
 46176  1  0
 47177  1  0
 48178  1  0
 50179  1  0
 51180  1  0
 53181  1  0
 53182  1  0
 53183  1  0
 54184  1  0
 55185  1  0
 61186  1  0
 62187  1  0
 63188  1  0
 65189  1  0
 65190  1  0
 66191  1  0
 66192  1  0
 66193  1  0
 67194  1  0
 83195  1  0
 84196  1  0
 85197  1  0
 87198  1  0
 87199  1  0
 88200  1  0
 88201  1  0
 88202  1  0
 89203  1  0
101204  1  0
101205  1  0
102206  1  0
102207  1  0
102208  1  0
103209  1  0
103210  1  0
104211  1  0
104212  1  0
104213  1  0
106214  1  0
110215  1  0
111216  1  0
114217  1  0
114218  1  0
115219  1  0
115220  1  0
115221  1  0
118222  1  0
123223  1  0
124224  1  0
127225  1  0
127226  1  0
128227  1  0
128228  1  0
128229  1  0
130230  1  0
134231  1  0
137232  1  0
143233  1  0
M  END

