
     RDKit          3D

255281  0  0  0  0  0  0  0  0999 V2000
   -6.5726  -11.7533    3.4252 C   0  0  0  0  0  0  0  0  0  0  0  0
   -7.9043  -11.6563    3.6219 C   0  0  0  0  0  0  0  0  0  0  0  0
   -8.4807  -10.7706    4.6414 C   0  0  0  0  0  0  0  0  0  0  0  0
   -8.1026  -10.7060    5.8398 O   0  0  0  0  0  0  0  0  0  0  0  0
   -9.4908   -9.9234    4.0381 C   0  0  0  0  0  0  0  0  0  0  0  0
   -9.6253  -10.2658    2.7102 C   0  0  0  0  0  0  0  0  0  0  0  0
  -10.3533   -9.4334    1.8387 C   0  0  0  0  0  0  0  0  0  0  0  0
  -11.0021   -8.3013    2.3666 C   0  0  0  0  0  0  0  0  0  0  0  0
  -11.6942   -7.4728    1.5396 F   0  0  0  0  0  0  0  0  0  0  0  0
  -10.9105   -8.0041    3.7416 C   0  0  0  0  0  0  0  0  0  0  0  0
  -11.5365   -6.9089    4.2445 F   0  0  0  0  0  0  0  0  0  0  0  0
  -10.1442   -8.8206    4.5902 C   0  0  0  0  0  0  0  0  0  0  0  0
  -10.0169   -8.5317    5.9079 F   0  0  0  0  0  0  0  0  0  0  0  0
   -8.7943  -11.4651    2.4418 C   0  0  0  0  0  0  0  0  0  0  0  0
   -8.9376  -12.3406    1.4211 C   0  0  0  0  0  0  0  0  0  0  0  0
   -8.2963  -13.6324    1.4479 C   0  0  0  0  0  0  0  0  0  0  0  0
   -7.7963  -14.6781    1.4604 N   0  0  0  0  0  0  0  0  0  0  0  0
   -9.7875  -12.0754    0.2862 C   0  0  0  0  0  0  0  0  0  0  0  0
  -10.4577  -11.8738   -0.6388 N   0  0  0  0  0  0  0  0  0  0  0  0
   -5.7290  -10.5309    3.3352 C   0  0  0  0  0  0  0  0  0  0  0  0
   -4.7861  -10.2690    2.3207 C   0  0  0  0  0  0  0  0  0  0  0  0
   -4.1379  -11.2637    1.5022 N   0  0  0  0  0  0  0  0  0  0  0  0
   -2.6917  -11.3565    1.5588 C   0  0  0  0  0  0  0  0  0  0  0  0
   -2.0213  -11.1863    2.7843 C   0  0  0  0  0  0  0  0  0  0  0  0
   -0.6282  -11.2518    2.8506 C   0  0  0  0  0  0  0  0  0  0  0  0
    0.1257  -11.4730    1.6902 C   0  0  0  0  0  0  0  0  0  0  0  0
    1.6211  -11.5865    1.7705 C   0  0  0  0  0  0  0  0  0  0  0  0
   -0.5363  -11.6591    0.4659 C   0  0  0  0  0  0  0  0  0  0  0  0
   -1.9300  -11.5839    0.3952 C   0  0  0  0  0  0  0  0  0  0  0  0
   -4.8921  -12.0342    0.5383 C   0  0  0  0  0  0  0  0  0  0  0  0
   -4.5540  -13.3763    0.2896 C   0  0  0  0  0  0  0  0  0  0  0  0
   -5.2350  -14.1143   -0.6809 C   0  0  0  0  0  0  0  0  0  0  0  0
   -6.2770  -13.5248   -1.4107 C   0  0  0  0  0  0  0  0  0  0  0  0
   -6.9916  -14.3202   -2.4660 C   0  0  0  0  0  0  0  0  0  0  0  0
   -6.6085  -12.1789   -1.1816 C   0  0  0  0  0  0  0  0  0  0  0  0
   -5.9318  -11.4411   -0.2025 C   0  0  0  0  0  0  0  0  0  0  0  0
   -4.3780   -8.9378    2.3429 C   0  0  0  0  0  0  0  0  0  0  0  0
   -3.4282   -8.0153    1.3149 S   0  0  0  0  0  0  0  0  0  0  0  0
   -3.6798   -6.5821    2.1907 C   0  0  0  0  0  0  0  0  0  0  0  0
   -4.4812   -6.8288    3.3216 C   0  0  0  0  0  0  0  0  0  0  0  0
   -4.6068   -5.9061    4.4303 N   0  0  0  0  0  0  0  0  0  0  0  0
   -5.6479   -6.0494    5.4140 C   0  0  0  0  0  0  0  0  0  0  0  0
   -6.9990   -6.0296    5.0326 C   0  0  0  0  0  0  0  0  0  0  0  0
   -8.0067   -6.1559    5.9929 C   0  0  0  0  0  0  0  0  0  0  0  0
   -7.6768   -6.3208    7.3473 C   0  0  0  0  0  0  0  0  0  0  0  0
   -8.7566   -6.5263    8.3684 C   0  0  0  0  0  0  0  0  0  0  0  0
   -6.3269   -6.3692    7.7270 C   0  0  0  0  0  0  0  0  0  0  0  0
   -5.3200   -6.2189    6.7702 C   0  0  0  0  0  0  0  0  0  0  0  0
   -3.5193   -5.0046    4.7104 C   0  0  0  0  0  0  0  0  0  0  0  0
   -3.7597   -3.6324    4.8644 C   0  0  0  0  0  0  0  0  0  0  0  0
   -2.6930   -2.7479    5.0483 C   0  0  0  0  0  0  0  0  0  0  0  0
   -1.3734   -3.2297    5.1109 C   0  0  0  0  0  0  0  0  0  0  0  0
   -0.2244   -2.2738    5.2334 C   0  0  0  0  0  0  0  0  0  0  0  0
   -1.1369   -4.6064    4.9846 C   0  0  0  0  0  0  0  0  0  0  0  0
   -2.2014   -5.4888    4.7978 C   0  0  0  0  0  0  0  0  0  0  0  0
   -4.8862   -8.1688    3.3360 C   0  0  0  0  0  0  0  0  0  0  0  0
   -5.9260   -9.1017    4.2533 S   0  0  0  0  0  0  0  0  0  0  0  0
   -3.3664   -5.2631    1.6477 C   0  0  0  0  0  0  0  0  0  0  0  0
   -4.3001   -4.4207    1.0213 C   0  0  0  0  0  0  0  0  0  0  0  0
   -5.7539   -4.6573    0.9511 C   0  0  0  0  0  0  0  0  0  0  0  0
   -6.5567   -4.0881    1.9518 C   0  0  0  0  0  0  0  0  0  0  0  0
   -7.9467   -4.2164    1.9055 C   0  0  0  0  0  0  0  0  0  0  0  0
   -8.5530   -4.8956    0.8507 C   0  0  0  0  0  0  0  0  0  0  0  0
   -7.7696   -5.4559   -0.1603 C   0  0  0  0  0  0  0  0  0  0  0  0
   -6.3652   -5.3732   -0.1141 C   0  0  0  0  0  0  0  0  0  0  0  0
   -5.5555   -6.0253   -1.2200 C   0  0  0  0  0  0  0  0  0  0  0  0
   -5.8672   -7.5176   -1.3544 C   0  0  0  0  0  0  0  0  0  0  0  0
   -3.6657   -3.3428    0.4090 C   0  0  0  0  0  0  0  0  0  0  0  0
   -4.2080   -2.1557   -0.6863 S   0  0  0  0  0  0  0  0  0  0  0  0
   -2.6200   -1.5944   -0.8958 C   0  0  0  0  0  0  0  0  0  0  0  0
   -1.9245   -0.8656   -1.8170 C   0  0  0  0  0  0  0  0  0  0  0  0
   -2.3346   -0.1911   -2.9710 C   0  0  0  0  0  0  0  0  0  0  0  0
   -1.3370    0.3253   -3.8538 C   0  0  0  0  0  0  0  0  0  0  0  0
   -1.7783    0.9910   -4.9496 N   0  0  0  0  0  0  0  0  0  0  0  0
   -3.4143    0.8509   -4.7289 S   0  0  0  0  0  0  0  0  0  0  0  0
   -3.6282    0.0086   -3.3192 N   0  0  0  0  0  0  0  0  0  0  0  0
    0.0171    0.1623   -3.5163 C   0  0  0  0  0  0  0  0  0  0  0  0
    1.1127    0.8491   -3.9630 C   0  0  0  0  0  0  0  0  0  0  0  0
    1.2919    2.2290   -4.9336 S   0  0  0  0  0  0  0  0  0  0  0  0
    2.6716    2.7093   -4.0700 C   0  0  0  0  0  0  0  0  0  0  0  0
    3.3493    3.9294   -4.0277 C   0  0  0  0  0  0  0  0  0  0  0  0
    3.1326    4.9705   -5.0463 C   0  0  0  0  0  0  0  0  0  0  0  0
    3.8458    4.9594   -6.2704 C   0  0  0  0  0  0  0  0  0  0  0  0
    4.9566    3.9703   -6.5532 C   0  0  0  0  0  0  0  0  0  0  0  0
    6.3176    4.5599   -6.2024 C   0  0  0  0  0  0  0  0  0  0  0  0
    3.5455    5.9249   -7.2474 C   0  0  0  0  0  0  0  0  0  0  0  0
    2.5407    6.8666   -7.0242 C   0  0  0  0  0  0  0  0  0  0  0  0
    1.8387    6.8736   -5.8171 C   0  0  0  0  0  0  0  0  0  0  0  0
    2.1302    5.9289   -4.8285 C   0  0  0  0  0  0  0  0  0  0  0  0
    4.1508    4.0367   -2.8691 C   0  0  0  0  0  0  0  0  0  0  0  0
    3.9979    2.5910   -1.9776 S   0  0  0  0  0  0  0  0  0  0  0  0
    2.9361    1.8505   -3.0359 C   0  0  0  0  0  0  0  0  0  0  0  0
    2.0567    0.7653   -2.9810 C   0  0  0  0  0  0  0  0  0  0  0  0
    1.6637   -0.0258   -1.9430 N   0  0  0  0  0  0  0  0  0  0  0  0
    0.4137   -0.4507   -2.3185 C   0  0  0  0  0  0  0  0  0  0  0  0
   -0.5744   -1.0861   -1.5243 C   0  0  0  0  0  0  0  0  0  0  0  0
   -0.4314   -2.0528   -0.5657 N   0  0  0  0  0  0  0  0  0  0  0  0
   -1.7065   -2.3042   -0.1799 C   0  0  0  0  0  0  0  0  0  0  0  0
   -2.3019   -3.3223    0.5517 C   0  0  0  0  0  0  0  0  0  0  0  0
   -1.7840   -4.6674    1.4153 S   0  0  0  0  0  0  0  0  0  0  0  0
    0.6967   -2.9838   -0.4244 C   0  0  0  0  0  0  0  0  0  0  0  0
    0.4993   -4.2208   -1.2995 C   0  0  0  0  0  0  0  0  0  0  0  0
    2.1674    0.1078   -0.5665 C   0  0  0  0  0  0  0  0  0  0  0  0
    3.5912   -0.4317   -0.4327 C   0  0  0  0  0  0  0  0  0  0  0  0
    4.8604    5.2494   -2.3861 C   0  0  0  0  0  0  0  0  0  0  0  0
    5.3295    5.4901   -1.0778 C   0  0  0  0  0  0  0  0  0  0  0  0
    5.1629    4.6104    0.0493 N   0  0  0  0  0  0  0  0  0  0  0  0
    6.3367    3.9859    0.6075 C   0  0  0  0  0  0  0  0  0  0  0  0
    7.2776    3.3650   -0.2334 C   0  0  0  0  0  0  0  0  0  0  0  0
    8.4128    2.7517    0.3052 C   0  0  0  0  0  0  0  0  0  0  0  0
    8.6379    2.7708    1.6897 C   0  0  0  0  0  0  0  0  0  0  0  0
    9.8419    2.0877    2.2694 C   0  0  0  0  0  0  0  0  0  0  0  0
    7.6958    3.3814    2.5332 C   0  0  0  0  0  0  0  0  0  0  0  0
    6.5596    3.9921    1.9949 C   0  0  0  0  0  0  0  0  0  0  0  0
    3.8727    4.4980    0.6937 C   0  0  0  0  0  0  0  0  0  0  0  0
    2.9513    5.5619    0.6576 C   0  0  0  0  0  0  0  0  0  0  0  0
    1.6992    5.4365    1.2655 C   0  0  0  0  0  0  0  0  0  0  0  0
    1.3456    4.2483    1.9233 C   0  0  0  0  0  0  0  0  0  0  0  0
   -0.0196    4.0978    2.5257 C   0  0  0  0  0  0  0  0  0  0  0  0
    2.2479    3.1768    1.9437 C   0  0  0  0  0  0  0  0  0  0  0  0
    3.5026    3.3027    1.3410 C   0  0  0  0  0  0  0  0  0  0  0  0
    5.8619    6.7715   -0.9513 C   0  0  0  0  0  0  0  0  0  0  0  0
    6.4565    7.6530    0.3432 S   0  0  0  0  0  0  0  0  0  0  0  0
    6.6653    9.0787   -0.5658 C   0  0  0  0  0  0  0  0  0  0  0  0
    6.2732    8.8539   -1.9085 C   0  0  0  0  0  0  0  0  0  0  0  0
    6.3806    9.8221   -2.9828 N   0  0  0  0  0  0  0  0  0  0  0  0
    5.3908    9.8845   -4.0356 C   0  0  0  0  0  0  0  0  0  0  0  0
    5.7833   10.1281   -5.3651 C   0  0  0  0  0  0  0  0  0  0  0  0
    4.8294   10.2990   -6.3717 C   0  0  0  0  0  0  0  0  0  0  0  0
    3.4618   10.2146   -6.0687 C   0  0  0  0  0  0  0  0  0  0  0  0
    2.4383   10.4901   -7.1282 C   0  0  0  0  0  0  0  0  0  0  0  0
    3.0631    9.9512   -4.7505 C   0  0  0  0  0  0  0  0  0  0  0  0
    4.0179    9.7784   -3.7440 C   0  0  0  0  0  0  0  0  0  0  0  0
    7.4936   10.7387   -3.0193 C   0  0  0  0  0  0  0  0  0  0  0  0
    7.2738   12.1077   -3.2438 C   0  0  0  0  0  0  0  0  0  0  0  0
    8.3447   13.0045   -3.2543 C   0  0  0  0  0  0  0  0  0  0  0  0
    9.6553   12.5423   -3.0665 C   0  0  0  0  0  0  0  0  0  0  0  0
   10.7941   13.5151   -3.0250 C   0  0  0  0  0  0  0  0  0  0  0  0
    9.8785   11.1756   -2.8418 C   0  0  0  0  0  0  0  0  0  0  0  0
    8.8061   10.2782   -2.8225 C   0  0  0  0  0  0  0  0  0  0  0  0
    5.8218    7.5414   -2.0672 C   0  0  0  0  0  0  0  0  0  0  0  0
    5.1522    6.6519   -3.3200 S   0  0  0  0  0  0  0  0  0  0  0  0
    7.1930   10.3244    0.0118 C   0  0  0  0  0  0  0  0  0  0  0  0
    6.5322   11.4987   -0.0489 C   0  0  0  0  0  0  0  0  0  0  0  0
    5.1141   11.6381   -0.3942 C   0  0  0  0  0  0  0  0  0  0  0  0
    4.2896   10.6993   -0.5468 O   0  0  0  0  0  0  0  0  0  0  0  0
    4.7688   13.0375   -0.3671 C   0  0  0  0  0  0  0  0  0  0  0  0
    3.5269   13.6070   -0.6381 C   0  0  0  0  0  0  0  0  0  0  0  0
    3.3928   14.9994   -0.5478 C   0  0  0  0  0  0  0  0  0  0  0  0
    2.1717   15.6184   -0.8568 C   0  0  0  0  0  0  0  0  0  0  0  0
    2.0476   17.0066   -0.7689 C   0  0  0  0  0  0  0  0  0  0  0  0
    3.1347   17.7878   -0.3629 C   0  0  0  0  0  0  0  0  0  0  0  0
    3.0088   19.1338   -0.2921 F   0  0  0  0  0  0  0  0  0  0  0  0
    4.3552   17.1819   -0.0400 C   0  0  0  0  0  0  0  0  0  0  0  0
    4.5020   15.7900   -0.1345 C   0  0  0  0  0  0  0  0  0  0  0  0
    5.7353   15.1772    0.1687 C   0  0  0  0  0  0  0  0  0  0  0  0
    5.8694   13.7853    0.0095 C   0  0  0  0  0  0  0  0  0  0  0  0
    7.0522   12.8862    0.2009 C   0  0  0  0  0  0  0  0  0  0  0  0
    8.3465   13.2713    0.3711 C   0  0  0  0  0  0  0  0  0  0  0  0
    8.7532   14.6476    0.4059 C   0  0  0  0  0  0  0  0  0  0  0  0
    9.1040   15.7528    0.4306 N   0  0  0  0  0  0  0  0  0  0  0  0
    9.4427   12.3404    0.4590 C   0  0  0  0  0  0  0  0  0  0  0  0
   10.3396   11.6111    0.5276 N   0  0  0  0  0  0  0  0  0  0  0  0
   -6.2419  -12.5627    2.7914 H   0  0  0  0  0  0  0  0  0  0  0  0
  -10.3925   -9.6123    0.7739 H   0  0  0  0  0  0  0  0  0  0  0  0
   -2.5818  -11.0099    3.6941 H   0  0  0  0  0  0  0  0  0  0  0  0
   -0.1331  -11.1181    3.8055 H   0  0  0  0  0  0  0  0  0  0  0  0
    1.8958  -12.6460    1.9514 H   0  0  0  0  0  0  0  0  0  0  0  0
    2.0954  -11.2462    0.8236 H   0  0  0  0  0  0  0  0  0  0  0  0
    2.0207  -10.9631    2.5984 H   0  0  0  0  0  0  0  0  0  0  0  0
    0.0325  -11.8500   -0.4371 H   0  0  0  0  0  0  0  0  0  0  0  0
   -2.4114  -11.6943   -0.5697 H   0  0  0  0  0  0  0  0  0  0  0  0
   -3.7531  -13.8441    0.8456 H   0  0  0  0  0  0  0  0  0  0  0  0
   -4.9546  -15.1473   -0.8540 H   0  0  0  0  0  0  0  0  0  0  0  0
   -7.9288  -13.8146   -2.7833 H   0  0  0  0  0  0  0  0  0  0  0  0
   -6.3321  -14.4404   -3.3492 H   0  0  0  0  0  0  0  0  0  0  0  0
   -7.2576  -15.3236   -2.0702 H   0  0  0  0  0  0  0  0  0  0  0  0
   -7.3967  -11.7035   -1.7556 H   0  0  0  0  0  0  0  0  0  0  0  0
   -6.2034  -10.4060   -0.0427 H   0  0  0  0  0  0  0  0  0  0  0  0
   -7.2696   -5.9289    3.9898 H   0  0  0  0  0  0  0  0  0  0  0  0
   -9.0442   -6.1288    5.6813 H   0  0  0  0  0  0  0  0  0  0  0  0
   -8.3980   -6.2764    9.3911 H   0  0  0  0  0  0  0  0  0  0  0  0
   -9.6338   -5.8810    8.1440 H   0  0  0  0  0  0  0  0  0  0  0  0
   -9.0770   -7.5879    8.3531 H   0  0  0  0  0  0  0  0  0  0  0  0
   -6.0528   -6.5235    8.7668 H   0  0  0  0  0  0  0  0  0  0  0  0
   -4.2831   -6.2550    7.0820 H   0  0  0  0  0  0  0  0  0  0  0  0
   -4.7715   -3.2457    4.8116 H   0  0  0  0  0  0  0  0  0  0  0  0
   -2.8917   -1.6858    5.1271 H   0  0  0  0  0  0  0  0  0  0  0  0
    0.0702   -1.9115    4.2253 H   0  0  0  0  0  0  0  0  0  0  0  0
   -0.5063   -1.4042    5.8635 H   0  0  0  0  0  0  0  0  0  0  0  0
    0.6484   -2.7698    5.7061 H   0  0  0  0  0  0  0  0  0  0  0  0
   -0.1245   -4.9934    5.0113 H   0  0  0  0  0  0  0  0  0  0  0  0
   -2.0030   -6.5469    4.6932 H   0  0  0  0  0  0  0  0  0  0  0  0
   -6.1023   -3.5435    2.7694 H   0  0  0  0  0  0  0  0  0  0  0  0
   -8.5560   -3.7846    2.6898 H   0  0  0  0  0  0  0  0  0  0  0  0
   -9.6316   -4.9880    0.8128 H   0  0  0  0  0  0  0  0  0  0  0  0
   -8.2619   -5.9665   -0.9760 H   0  0  0  0  0  0  0  0  0  0  0  0
   -4.4665   -5.9195   -1.0496 H   0  0  0  0  0  0  0  0  0  0  0  0
   -5.7866   -5.5174   -2.1824 H   0  0  0  0  0  0  0  0  0  0  0  0
   -5.8807   -8.0022   -0.3557 H   0  0  0  0  0  0  0  0  0  0  0  0
   -5.0943   -8.0103   -1.9818 H   0  0  0  0  0  0  0  0  0  0  0  0
   -6.8538   -7.6682   -1.8384 H   0  0  0  0  0  0  0  0  0  0  0  0
    4.9495    3.7014   -7.6326 H   0  0  0  0  0  0  0  0  0  0  0  0
    4.8173    3.0232   -5.9927 H   0  0  0  0  0  0  0  0  0  0  0  0
    6.4055    4.6944   -5.1007 H   0  0  0  0  0  0  0  0  0  0  0  0
    6.4640    5.5417   -6.7035 H   0  0  0  0  0  0  0  0  0  0  0  0
    7.1256    3.8706   -6.5317 H   0  0  0  0  0  0  0  0  0  0  0  0
    4.0784    5.9370   -8.1875 H   0  0  0  0  0  0  0  0  0  0  0  0
    2.3022    7.5872   -7.7907 H   0  0  0  0  0  0  0  0  0  0  0  0
    1.0591    7.6070   -5.6488 H   0  0  0  0  0  0  0  0  0  0  0  0
    1.5672    5.9410   -3.9025 H   0  0  0  0  0  0  0  0  0  0  0  0
    1.6332   -2.5172   -0.7583 H   0  0  0  0  0  0  0  0  0  0  0  0
    0.8135   -3.2757    0.6417 H   0  0  0  0  0  0  0  0  0  0  0  0
   -0.4084   -4.7699   -1.0025 H   0  0  0  0  0  0  0  0  0  0  0  0
    0.4089   -3.9252   -2.3665 H   0  0  0  0  0  0  0  0  0  0  0  0
    1.3708   -4.9033   -1.1845 H   0  0  0  0  0  0  0  0  0  0  0  0
    1.5080   -0.4064    0.1586 H   0  0  0  0  0  0  0  0  0  0  0  0
    2.1448    1.1783   -0.2764 H   0  0  0  0  0  0  0  0  0  0  0  0
    4.2296   -0.0913   -1.2699 H   0  0  0  0  0  0  0  0  0  0  0  0
    4.0315   -0.0904    0.5255 H   0  0  0  0  0  0  0  0  0  0  0  0
    3.5990   -1.5385   -0.4466 H   0  0  0  0  0  0  0  0  0  0  0  0
    7.1200    3.3406   -1.3056 H   0  0  0  0  0  0  0  0  0  0  0  0
    9.1184    2.2618   -0.3566 H   0  0  0  0  0  0  0  0  0  0  0  0
   10.1418    2.5636    3.2273 H   0  0  0  0  0  0  0  0  0  0  0  0
    9.6055    1.0201    2.4605 H   0  0  0  0  0  0  0  0  0  0  0  0
   10.7030    2.1506    1.5704 H   0  0  0  0  0  0  0  0  0  0  0  0
    7.8426    3.3885    3.6070 H   0  0  0  0  0  0  0  0  0  0  0  0
    5.8537    4.4758    2.6584 H   0  0  0  0  0  0  0  0  0  0  0  0
    3.1997    6.4982    0.1709 H   0  0  0  0  0  0  0  0  0  0  0  0
    1.0038    6.2655    1.2247 H   0  0  0  0  0  0  0  0  0  0  0  0
   -0.7152    3.6831    1.7666 H   0  0  0  0  0  0  0  0  0  0  0  0
    0.0132    3.4113    3.3977 H   0  0  0  0  0  0  0  0  0  0  0  0
   -0.4051    5.0792    2.8737 H   0  0  0  0  0  0  0  0  0  0  0  0
    1.9770    2.2393    2.4160 H   0  0  0  0  0  0  0  0  0  0  0  0
    4.1796    2.4571    1.3570 H   0  0  0  0  0  0  0  0  0  0  0  0
    6.8337   10.2072   -5.6195 H   0  0  0  0  0  0  0  0  0  0  0  0
    5.1562   10.5118   -7.3834 H   0  0  0  0  0  0  0  0  0  0  0  0
    2.8220   10.2057   -8.1304 H   0  0  0  0  0  0  0  0  0  0  0  0
    1.5069    9.9156   -6.9376 H   0  0  0  0  0  0  0  0  0  0  0  0
    2.1992   11.5757   -7.1343 H   0  0  0  0  0  0  0  0  0  0  0  0
    2.0106    9.8911   -4.4997 H   0  0  0  0  0  0  0  0  0  0  0  0
    3.6859    9.5826   -2.7364 H   0  0  0  0  0  0  0  0  0  0  0  0
    6.2673   12.4832   -3.3804 H   0  0  0  0  0  0  0  0  0  0  0  0
    8.1499   14.0603   -3.3982 H   0  0  0  0  0  0  0  0  0  0  0  0
   10.8968   13.9200   -1.9966 H   0  0  0  0  0  0  0  0  0  0  0  0
   11.7453   13.0211   -3.3192 H   0  0  0  0  0  0  0  0  0  0  0  0
   10.6132   14.3569   -3.7284 H   0  0  0  0  0  0  0  0  0  0  0  0
   10.8813   10.8059   -2.6702 H   0  0  0  0  0  0  0  0  0  0  0  0
    8.9966    9.2264   -2.6506 H   0  0  0  0  0  0  0  0  0  0  0  0
    8.1541   10.2462    0.4836 H   0  0  0  0  0  0  0  0  0  0  0  0
    2.6919   12.9814   -0.9313 H   0  0  0  0  0  0  0  0  0  0  0  0
    1.3174   15.0291   -1.1656 H   0  0  0  0  0  0  0  0  0  0  0  0
    1.1106   17.4829   -1.0225 H   0  0  0  0  0  0  0  0  0  0  0  0
    5.1872   17.8047    0.2764 H   0  0  0  0  0  0  0  0  0  0  0  0
    6.5422   15.7915    0.5213 H   0  0  0  0  0  0  0  0  0  0  0  0
  1  2  2  3
  2  3  1  0
  3  4  2  0
  3  5  1  0
  5  6  2  0
  6  7  1  0
  7  8  2  0
  8  9  1  0
  8 10  1  0
 10 11  1  0
 10 12  2  0
 12 13  1  0
  6 14  1  0
 14 15  2  3
 15 16  1  0
 16 17  3  0
 15 18  1  0
 18 19  3  0
  1 20  1  0
 20 21  2  0
 21 22  1  0
 22 23  1  0
 23 24  2  0
 24 25  1  0
 25 26  2  0
 26 27  1  0
 26 28  1  0
 28 29  2  0
 22 30  1  0
 30 31  2  0
 31 32  1  0
 32 33  2  0
 33 34  1  0
 33 35  1  0
 35 36  2  0
 21 37  1  0
 37 38  1  0
 38 39  1  0
 39 40  2  0
 40 41  1  0
 41 42  1  0
 42 43  2  0
 43 44  1  0
 44 45  2  0
 45 46  1  0
 45 47  1  0
 47 48  2  0
 41 49  1  0
 49 50  2  0
 50 51  1  0
 51 52  2  0
 52 53  1  0
 52 54  1  0
 54 55  2  0
 40 56  1  0
 56 57  1  0
 39 58  1  0
 58 59  2  0
 59 60  1  0
 60 61  2  0
 61 62  1  0
 62 63  2  0
 63 64  1  0
 64 65  2  0
 65 66  1  0
 66 67  1  0
 59 68  1  0
 68 69  1  0
 69 70  1  0
 70 71  1  0
 71 72  1  0
 72 73  1  0
 73 74  2  0
 74 75  1  0
 75 76  1  0
 73 77  1  0
 77 78  1  0
 78 79  1  0
 79 80  1  0
 80 81  1  0
 81 82  1  0
 82 83  2  0
 83 84  1  0
 84 85  1  0
 83 86  1  0
 86 87  2  0
 87 88  1  0
 88 89  2  0
 81 90  2  0
 90 91  1  0
 91 92  1  0
 92 93  1  0
 93 94  1  0
 94 95  1  0
 95 96  1  0
 96 97  1  0
 97 98  1  0
 98 99  1  0
 99100  1  0
 97101  1  0
101102  1  0
 94103  1  0
103104  1  0
 90105  1  0
105106  2  0
106107  1  0
107108  1  0
108109  2  0
109110  1  0
110111  2  0
111112  1  0
111113  1  0
113114  2  0
107115  1  0
115116  2  0
116117  1  0
117118  2  0
118119  1  0
118120  1  0
120121  2  0
106122  1  0
122123  1  0
123124  1  0
124125  2  0
125126  1  0
126127  1  0
127128  2  0
128129  1  0
129130  2  0
130131  1  0
130132  1  0
132133  2  0
126134  1  0
134135  2  0
135136  1  0
136137  2  0
137138  1  0
137139  1  0
139140  2  0
125141  1  0
141142  1  0
124143  1  0
143144  2  3
144145  1  0
145146  2  0
145147  1  0
147148  2  0
148149  1  0
149150  2  0
150151  1  0
151152  2  0
152153  1  0
152154  1  0
154155  2  0
155156  1  0
156157  2  0
157158  1  0
158159  2  3
159160  1  0
160161  3  0
159162  1  0
162163  3  0
 14  2  1  0
 57 20  1  0
100 58  1  0
142105  1  0
158144  1  0
 12  5  1  0
 29 23  1  0
 36 30  1  0
 56 37  2  0
 65 60  1  0
 99 68  2  0
114108  1  0
121115  1  0
141122  2  0
157147  1  0
 48 42  1  0
 55 49  1  0
 98 70  2  0
133127  1  0
140134  1  0
155149  1  0
 96 71  2  0
 76 72  2  0
 95 77  2  0
 93 78  2  0
 92 80  2  0
 89 82  1  0
  1164  1  0
  7165  1  0
 24166  1  0
 25167  1  0
 27168  1  0
 27169  1  0
 27170  1  0
 28171  1  0
 29172  1  0
 31173  1  0
 32174  1  0
 34175  1  0
 34176  1  0
 34177  1  0
 35178  1  0
 36179  1  0
 43180  1  0
 44181  1  0
 46182  1  0
 46183  1  0
 46184  1  0
 47185  1  0
 48186  1  0
 50187  1  0
 51188  1  0
 53189  1  0
 53190  1  0
 53191  1  0
 54192  1  0
 55193  1  0
 61194  1  0
 62195  1  0
 63196  1  0
 64197  1  0
 66198  1  0
 66199  1  0
 67200  1  0
 67201  1  0
 67202  1  0
 84203  1  0
 84204  1  0
 85205  1  0
 85206  1  0
 85207  1  0
 86208  1  0
 87209  1  0
 88210  1  0
 89211  1  0
101212  1  0
101213  1  0
102214  1  0
102215  1  0
102216  1  0
103217  1  0
103218  1  0
104219  1  0
104220  1  0
104221  1  0
109222  1  0
110223  1  0
112224  1  0
112225  1  0
112226  1  0
113227  1  0
114228  1  0
116229  1  0
117230  1  0
119231  1  0
119232  1  0
119233  1  0
120234  1  0
121235  1  0
128236  1  0
129237  1  0
131238  1  0
131239  1  0
131240  1  0
132241  1  0
133242  1  0
135243  1  0
136244  1  0
138245  1  0
138246  1  0
138247  1  0
139248  1  0
140249  1  0
143250  1  0
148251  1  0
150252  1  0
151253  1  0
154254  1  0
156255  1  0
M  END

