
     RDKit          3D

249274  0  0  0  0  0  0  0  0999 V2000
    0.4559   -0.1319    9.0689 C   0  0  0  0  0  0  0  0  0  0  0  0
   -0.4632    0.7034    8.5464 C   0  0  0  0  0  0  0  0  0  0  0  0
   -1.0241    0.5967    7.1920 C   0  0  0  0  0  0  0  0  0  0  0  0
   -0.6859   -0.2220    6.2954 O   0  0  0  0  0  0  0  0  0  0  0  0
   -2.1540    1.4881    7.0853 C   0  0  0  0  0  0  0  0  0  0  0  0
   -2.3523    2.1375    8.2926 C   0  0  0  0  0  0  0  0  0  0  0  0
   -3.4147    3.0504    8.4136 C   0  0  0  0  0  0  0  0  0  0  0  0
   -4.2477    3.2903    7.3095 C   0  0  0  0  0  0  0  0  0  0  0  0
   -5.2554    4.1876    7.4128 F   0  0  0  0  0  0  0  0  0  0  0  0
   -4.0295    2.6196    6.0936 C   0  0  0  0  0  0  0  0  0  0  0  0
   -4.8335    2.8692    5.0306 F   0  0  0  0  0  0  0  0  0  0  0  0
   -2.9742    1.7070    5.9743 C   0  0  0  0  0  0  0  0  0  0  0  0
   -2.7477    1.0664    4.7987 F   0  0  0  0  0  0  0  0  0  0  0  0
   -1.2944    1.7262    9.2680 C   0  0  0  0  0  0  0  0  0  0  0  0
   -1.0637    2.2536   10.5018 C   0  0  0  0  0  0  0  0  0  0  0  0
   -1.9521    3.1899   11.1315 C   0  0  0  0  0  0  0  0  0  0  0  0
   -2.6608    3.9387   11.6576 N   0  0  0  0  0  0  0  0  0  0  0  0
    0.1294    1.9831   11.2569 C   0  0  0  0  0  0  0  0  0  0  0  0
    1.0831    1.7794   11.8829 N   0  0  0  0  0  0  0  0  0  0  0  0
    1.2324   -1.0849    8.2638 C   0  0  0  0  0  0  0  0  0  0  0  0
    1.2492   -2.4999    8.3608 C   0  0  0  0  0  0  0  0  0  0  0  0
    0.2152   -3.2900    9.0148 N   0  0  0  0  0  0  0  0  0  0  0  0
   -0.8698   -2.6469    9.6992 C   0  0  0  0  0  0  0  0  0  0  0  0
   -0.7614   -2.3430   11.0644 C   0  0  0  0  0  0  0  0  0  0  0  0
   -1.7373   -1.5508   11.6824 C   0  0  0  0  0  0  0  0  0  0  0  0
   -2.8323   -1.0709   10.9454 C   0  0  0  0  0  0  0  0  0  0  0  0
   -3.8625   -0.1925   11.5924 C   0  0  0  0  0  0  0  0  0  0  0  0
   -2.9754   -1.4423    9.6008 C   0  0  0  0  0  0  0  0  0  0  0  0
   -1.9973   -2.2218    8.9813 C   0  0  0  0  0  0  0  0  0  0  0  0
   -0.0146   -4.6483    8.6179 C   0  0  0  0  0  0  0  0  0  0  0  0
   -0.6124   -4.9305    7.3776 C   0  0  0  0  0  0  0  0  0  0  0  0
   -0.7508   -6.2530    6.9472 C   0  0  0  0  0  0  0  0  0  0  0  0
   -0.2929   -7.3079    7.7534 C   0  0  0  0  0  0  0  0  0  0  0  0
   -0.4066   -8.7253    7.2821 C   0  0  0  0  0  0  0  0  0  0  0  0
    0.2459   -7.0269    9.0193 C   0  0  0  0  0  0  0  0  0  0  0  0
    0.3889   -5.7009    9.4473 C   0  0  0  0  0  0  0  0  0  0  0  0
    2.1855   -3.0247    7.4377 C   0  0  0  0  0  0  0  0  0  0  0  0
    2.5314   -4.5676    6.8355 S   0  0  0  0  0  0  0  0  0  0  0  0
    3.2655   -4.0016    5.4088 C   0  0  0  0  0  0  0  0  0  0  0  0
    3.1733   -2.6036    5.3658 C   0  0  0  0  0  0  0  0  0  0  0  0
    2.8669   -1.9056    4.1439 N   0  0  0  0  0  0  0  0  0  0  0  0
    1.5848   -2.1700    3.5082 C   0  0  0  0  0  0  0  0  0  0  0  0
    0.4365   -2.4665    4.2768 C   0  0  0  0  0  0  0  0  0  0  0  0
   -0.8102   -2.6427    3.6753 C   0  0  0  0  0  0  0  0  0  0  0  0
   -0.9426   -2.5163    2.2916 C   0  0  0  0  0  0  0  0  0  0  0  0
   -2.2885   -2.6790    1.6447 C   0  0  0  0  0  0  0  0  0  0  0  0
    0.1915   -2.2828    1.5116 C   0  0  0  0  0  0  0  0  0  0  0  0
    1.4513   -2.1247    2.1091 C   0  0  0  0  0  0  0  0  0  0  0  0
    3.6799   -0.7703    3.7510 C   0  0  0  0  0  0  0  0  0  0  0  0
    3.1147    0.3236    3.0651 C   0  0  0  0  0  0  0  0  0  0  0  0
    3.9161    1.3831    2.6380 C   0  0  0  0  0  0  0  0  0  0  0  0
    5.2950    1.3703    2.8835 C   0  0  0  0  0  0  0  0  0  0  0  0
    6.1531    2.5075    2.4146 C   0  0  0  0  0  0  0  0  0  0  0  0
    5.8505    0.3223    3.6288 C   0  0  0  0  0  0  0  0  0  0  0  0
    5.0490   -0.7341    4.0634 C   0  0  0  0  0  0  0  0  0  0  0  0
    2.7196   -2.1029    6.5841 C   0  0  0  0  0  0  0  0  0  0  0  0
    2.2122   -0.5703    6.9827 S   0  0  0  0  0  0  0  0  0  0  0  0
    3.7482   -4.8287    4.2932 C   0  0  0  0  0  0  0  0  0  0  0  0
    5.0992   -4.8370    3.8752 C   0  0  0  0  0  0  0  0  0  0  0  0
    6.2340   -4.4290    4.7324 C   0  0  0  0  0  0  0  0  0  0  0  0
    6.3566   -4.9652    6.0231 C   0  0  0  0  0  0  0  0  0  0  0  0
    7.4366   -4.6179    6.8336 C   0  0  0  0  0  0  0  0  0  0  0  0
    8.3991   -3.7168    6.3707 C   0  0  0  0  0  0  0  0  0  0  0  0
    8.2753   -3.1438    5.0923 C   0  0  0  0  0  0  0  0  0  0  0  0
    9.2927   -2.1413    4.6002 C   0  0  0  0  0  0  0  0  0  0  0  0
    9.3544   -0.9159    5.5131 C   0  0  0  0  0  0  0  0  0  0  0  0
    7.1970   -3.5174    4.2746 C   0  0  0  0  0  0  0  0  0  0  0  0
    5.2073   -5.1988    2.5252 C   0  0  0  0  0  0  0  0  0  0  0  0
    6.4378   -4.9523    1.3594 S   0  0  0  0  0  0  0  0  0  0  0  0
    5.3611   -5.2509    0.0859 C   0  0  0  0  0  0  0  0  0  0  0  0
    5.2403   -4.8440   -1.2215 C   0  0  0  0  0  0  0  0  0  0  0  0
    6.1620   -4.4016   -2.1813 C   0  0  0  0  0  0  0  0  0  0  0  0
    5.6738   -3.9841   -3.4657 C   0  0  0  0  0  0  0  0  0  0  0  0
    6.5941   -3.5386   -4.3552 N   0  0  0  0  0  0  0  0  0  0  0  0
    7.9720   -3.7367   -3.4539 S   0  0  0  0  0  0  0  0  0  0  0  0
    7.5031   -4.3414   -1.9846 N   0  0  0  0  0  0  0  0  0  0  0  0
    4.2856   -3.9578   -3.6860 C   0  0  0  0  0  0  0  0  0  0  0  0
    3.5231   -3.3536   -4.6618 C   0  0  0  0  0  0  0  0  0  0  0  0
    3.7677   -2.3152   -5.9968 S   0  0  0  0  0  0  0  0  0  0  0  0
    2.1610   -1.7295   -5.8950 C   0  0  0  0  0  0  0  0  0  0  0  0
    1.4401   -0.7042   -6.5245 C   0  0  0  0  0  0  0  0  0  0  0  0
    1.8362   -0.1239   -7.8120 C   0  0  0  0  0  0  0  0  0  0  0  0
    2.6512    1.0147   -7.8687 C   0  0  0  0  0  0  0  0  0  0  0  0
    2.9366    1.6092   -9.1054 C   0  0  0  0  0  0  0  0  0  0  0  0
    2.4228    1.0579  -10.2852 C   0  0  0  0  0  0  0  0  0  0  0  0
    1.6363   -0.1078  -10.2389 C   0  0  0  0  0  0  0  0  0  0  0  0
    1.0617   -0.6969  -11.5007 C   0  0  0  0  0  0  0  0  0  0  0  0
   -0.3509   -0.1870  -11.7506 C   0  0  0  0  0  0  0  0  0  0  0  0
    1.3410   -0.6888   -8.9948 C   0  0  0  0  0  0  0  0  0  0  0  0
    0.2046   -0.4637   -5.8709 C   0  0  0  0  0  0  0  0  0  0  0  0
    0.0493   -1.5599   -4.5855 S   0  0  0  0  0  0  0  0  0  0  0  0
    1.5178   -2.2948   -4.8362 C   0  0  0  0  0  0  0  0  0  0  0  0
    2.2733   -3.2171   -4.1405 C   0  0  0  0  0  0  0  0  0  0  0  0
    2.1723   -3.6626   -2.8679 N   0  0  0  0  0  0  0  0  0  0  0  0
    3.3846   -4.2594   -2.6591 C   0  0  0  0  0  0  0  0  0  0  0  0
    3.8641   -4.8309   -1.4654 C   0  0  0  0  0  0  0  0  0  0  0  0
    3.1579   -5.3022   -0.3983 N   0  0  0  0  0  0  0  0  0  0  0  0
    4.1026   -5.5091    0.5409 C   0  0  0  0  0  0  0  0  0  0  0  0
    4.0119   -5.4892    1.9195 C   0  0  0  0  0  0  0  0  0  0  0  0
    2.7449   -5.2658    2.9880 S   0  0  0  0  0  0  0  0  0  0  0  0
    1.8189   -5.9031   -0.4026 C   0  0  0  0  0  0  0  0  0  0  0  0
    1.9018   -7.4241   -0.2875 C   0  0  0  0  0  0  0  0  0  0  0  0
    1.4391   -2.9106   -1.8386 C   0  0  0  0  0  0  0  0  0  0  0  0
    2.1039   -1.5491   -1.5908 C   0  0  0  0  0  0  0  0  0  0  0  0
   -0.8066    0.5823   -6.1703 C   0  0  0  0  0  0  0  0  0  0  0  0
   -1.9726    0.8533   -5.4162 C   0  0  0  0  0  0  0  0  0  0  0  0
   -2.2407    0.3477   -4.0980 N   0  0  0  0  0  0  0  0  0  0  0  0
   -1.5756    0.9356   -2.9505 C   0  0  0  0  0  0  0  0  0  0  0  0
   -1.1539    2.2824   -2.9632 C   0  0  0  0  0  0  0  0  0  0  0  0
   -0.5759    2.8583   -1.8293 C   0  0  0  0  0  0  0  0  0  0  0  0
   -0.4018    2.1050   -0.6598 C   0  0  0  0  0  0  0  0  0  0  0  0
    0.2528    2.7142    0.5498 C   0  0  0  0  0  0  0  0  0  0  0  0
   -0.7809    0.7562   -0.6481 C   0  0  0  0  0  0  0  0  0  0  0  0
   -1.3571    0.1747   -1.7829 C   0  0  0  0  0  0  0  0  0  0  0  0
   -3.3163   -0.6033   -3.9343 C   0  0  0  0  0  0  0  0  0  0  0  0
   -3.4623   -1.6759   -4.8332 C   0  0  0  0  0  0  0  0  0  0  0  0
   -4.4882   -2.6098   -4.6620 C   0  0  0  0  0  0  0  0  0  0  0  0
   -5.3874   -2.4841   -3.5936 C   0  0  0  0  0  0  0  0  0  0  0  0
   -6.4904   -3.4813   -3.4204 C   0  0  0  0  0  0  0  0  0  0  0  0
   -5.2735   -1.3930   -2.7186 C   0  0  0  0  0  0  0  0  0  0  0  0
   -4.2457   -0.4604   -2.8878 C   0  0  0  0  0  0  0  0  0  0  0  0
   -2.7023    1.9056   -5.9582 C   0  0  0  0  0  0  0  0  0  0  0  0
   -3.9580    2.8363   -5.3664 S   0  0  0  0  0  0  0  0  0  0  0  0
   -3.8014    4.0693   -6.5384 C   0  0  0  0  0  0  0  0  0  0  0  0
   -2.6993    3.7584   -7.3600 C   0  0  0  0  0  0  0  0  0  0  0  0
   -1.9941    4.7421   -8.1311 N   0  0  0  0  0  0  0  0  0  0  0  0
   -2.5734    5.2481   -9.3549 C   0  0  0  0  0  0  0  0  0  0  0  0
   -2.3447    6.5764   -9.7622 C   0  0  0  0  0  0  0  0  0  0  0  0
   -2.9024    7.0620  -10.9496 C   0  0  0  0  0  0  0  0  0  0  0  0
   -3.6944    6.2254  -11.7514 C   0  0  0  0  0  0  0  0  0  0  0  0
   -4.3120    6.7466  -13.0163 C   0  0  0  0  0  0  0  0  0  0  0  0
   -3.9621    4.9193  -11.3268 C   0  0  0  0  0  0  0  0  0  0  0  0
   -3.3990    4.4295  -10.1434 C   0  0  0  0  0  0  0  0  0  0  0  0
   -0.7480    5.2528   -7.6091 C   0  0  0  0  0  0  0  0  0  0  0  0
    0.3442    5.4753   -8.4639 C   0  0  0  0  0  0  0  0  0  0  0  0
    1.5428    5.9929   -7.9633 C   0  0  0  0  0  0  0  0  0  0  0  0
    1.6806    6.2669   -6.5943 C   0  0  0  0  0  0  0  0  0  0  0  0
    2.9454    6.8612   -6.0474 C   0  0  0  0  0  0  0  0  0  0  0  0
    0.6041    6.0230   -5.7319 C   0  0  0  0  0  0  0  0  0  0  0  0
   -0.5993    5.5162   -6.2339 C   0  0  0  0  0  0  0  0  0  0  0  0
   -2.1390    2.5263   -7.0203 C   0  0  0  0  0  0  0  0  0  0  0  0
   -0.6980    1.7584   -7.4102 S   0  0  0  0  0  0  0  0  0  0  0  0
   -4.4102    5.4198   -6.4480 C   0  0  0  0  0  0  0  0  0  0  0  0
   -5.4416    5.7608   -5.6560 C   0  0  0  0  0  0  0  0  0  0  0  0
   -5.5686    7.0944   -5.0710 C   0  0  0  0  0  0  0  0  0  0  0  0
   -5.0309    8.1513   -5.5032 O   0  0  0  0  0  0  0  0  0  0  0  0
   -6.3010    6.9715   -3.8218 C   0  0  0  0  0  0  0  0  0  0  0  0
   -6.7135    5.6614   -3.6693 C   0  0  0  0  0  0  0  0  0  0  0  0
   -7.2704    5.2313   -2.4541 C   0  0  0  0  0  0  0  0  0  0  0  0
   -7.4465    6.1691   -1.4253 C   0  0  0  0  0  0  0  0  0  0  0  0
   -7.9658    5.7708   -0.2360 F   0  0  0  0  0  0  0  0  0  0  0  0
   -7.0566    7.5098   -1.6049 C   0  0  0  0  0  0  0  0  0  0  0  0
   -7.2037    8.4022   -0.5953 F   0  0  0  0  0  0  0  0  0  0  0  0
   -6.4599    7.9151   -2.8093 C   0  0  0  0  0  0  0  0  0  0  0  0
   -6.0191    9.1907   -2.9673 F   0  0  0  0  0  0  0  0  0  0  0  0
   -6.3521    4.8828   -4.8773 C   0  0  0  0  0  0  0  0  0  0  0  0
   -7.0683    3.8515   -5.3839 C   0  0  0  0  0  0  0  0  0  0  0  0
   -8.1700    3.2648   -4.6666 C   0  0  0  0  0  0  0  0  0  0  0  0
   -9.0684    2.8046   -4.1000 N   0  0  0  0  0  0  0  0  0  0  0  0
   -6.8956    3.4206   -6.7514 C   0  0  0  0  0  0  0  0  0  0  0  0
   -6.7715    3.0854   -7.8522 N   0  0  0  0  0  0  0  0  0  0  0  0
    0.6341   -0.1678   10.1294 H   0  0  0  0  0  0  0  0  0  0  0  0
   -3.6175    3.5840    9.3215 H   0  0  0  0  0  0  0  0  0  0  0  0
    0.1017   -2.6799   11.6274 H   0  0  0  0  0  0  0  0  0  0  0  0
   -1.6209   -1.2847   12.7242 H   0  0  0  0  0  0  0  0  0  0  0  0
   -4.2824    0.5277   10.8547 H   0  0  0  0  0  0  0  0  0  0  0  0
   -3.4122    0.3942   12.4219 H   0  0  0  0  0  0  0  0  0  0  0  0
   -4.6816   -0.8231   11.9929 H   0  0  0  0  0  0  0  0  0  0  0  0
   -3.8218   -1.0928    9.0209 H   0  0  0  0  0  0  0  0  0  0  0  0
   -2.0912   -2.4479    7.9279 H   0  0  0  0  0  0  0  0  0  0  0  0
   -0.9248   -4.1271    6.7244 H   0  0  0  0  0  0  0  0  0  0  0  0
   -1.1841   -6.4555    5.9747 H   0  0  0  0  0  0  0  0  0  0  0  0
   -0.4864   -8.7794    6.1743 H   0  0  0  0  0  0  0  0  0  0  0  0
    0.4884   -9.3110    7.5827 H   0  0  0  0  0  0  0  0  0  0  0  0
   -1.3095   -9.1903    7.7299 H   0  0  0  0  0  0  0  0  0  0  0  0
    0.5738   -7.8299    9.6636 H   0  0  0  0  0  0  0  0  0  0  0  0
    0.8351   -5.4859   10.4087 H   0  0  0  0  0  0  0  0  0  0  0  0
    0.4812   -2.5427    5.3468 H   0  0  0  0  0  0  0  0  0  0  0  0
   -1.6737   -2.8572    4.2931 H   0  0  0  0  0  0  0  0  0  0  0  0
   -3.0659   -2.1685    2.2484 H   0  0  0  0  0  0  0  0  0  0  0  0
   -2.2966   -2.2336    0.6251 H   0  0  0  0  0  0  0  0  0  0  0  0
   -2.5241   -3.7592    1.5643 H   0  0  0  0  0  0  0  0  0  0  0  0
    0.0847   -2.2049    0.4408 H   0  0  0  0  0  0  0  0  0  0  0  0
    2.3174   -1.9486    1.4831 H   0  0  0  0  0  0  0  0  0  0  0  0
    2.0518    0.3751    2.8640 H   0  0  0  0  0  0  0  0  0  0  0  0
    3.4649    2.2145    2.1087 H   0  0  0  0  0  0  0  0  0  0  0  0
    6.1604    3.3086    3.1841 H   0  0  0  0  0  0  0  0  0  0  0  0
    5.7546    2.9252    1.4638 H   0  0  0  0  0  0  0  0  0  0  0  0
    7.1887    2.1643    2.2269 H   0  0  0  0  0  0  0  0  0  0  0  0
    6.9063    0.3208    3.8696 H   0  0  0  0  0  0  0  0  0  0  0  0
    5.4900   -1.5229    4.6488 H   0  0  0  0  0  0  0  0  0  0  0  0
    5.6262   -5.6790    6.3915 H   0  0  0  0  0  0  0  0  0  0  0  0
    7.5320   -5.0515    7.8242 H   0  0  0  0  0  0  0  0  0  0  0  0
    9.2312   -3.4571    7.0129 H   0  0  0  0  0  0  0  0  0  0  0  0
   10.2860   -2.6266    4.5395 H   0  0  0  0  0  0  0  0  0  0  0  0
    9.0309   -1.8011    3.5766 H   0  0  0  0  0  0  0  0  0  0  0  0
    9.8395   -1.1803    6.4756 H   0  0  0  0  0  0  0  0  0  0  0  0
    8.3363   -0.5279    5.7139 H   0  0  0  0  0  0  0  0  0  0  0  0
    9.9562   -0.1099    5.0348 H   0  0  0  0  0  0  0  0  0  0  0  0
    7.0840   -3.0512    3.3015 H   0  0  0  0  0  0  0  0  0  0  0  0
    3.0405    1.4562   -6.9585 H   0  0  0  0  0  0  0  0  0  0  0  0
    3.5570    2.4933   -9.1416 H   0  0  0  0  0  0  0  0  0  0  0  0
    2.6450    1.5369  -11.2306 H   0  0  0  0  0  0  0  0  0  0  0  0
    1.0467   -1.8030  -11.4353 H   0  0  0  0  0  0  0  0  0  0  0  0
    1.6968   -0.4306  -12.3794 H   0  0  0  0  0  0  0  0  0  0  0  0
   -0.7378   -0.6087  -12.6985 H   0  0  0  0  0  0  0  0  0  0  0  0
   -0.3504    0.9213  -11.8263 H   0  0  0  0  0  0  0  0  0  0  0  0
   -1.0226   -0.4978  -10.9180 H   0  0  0  0  0  0  0  0  0  0  0  0
    0.7113   -1.5688   -8.9541 H   0  0  0  0  0  0  0  0  0  0  0  0
    1.2845   -5.6687   -1.3463 H   0  0  0  0  0  0  0  0  0  0  0  0
    1.2215   -5.5027    0.4459 H   0  0  0  0  0  0  0  0  0  0  0  0
    2.3755   -7.7138    0.6726 H   0  0  0  0  0  0  0  0  0  0  0  0
    0.8809   -7.8594   -0.3167 H   0  0  0  0  0  0  0  0  0  0  0  0
    2.4977   -7.8426   -1.1290 H   0  0  0  0  0  0  0  0  0  0  0  0
    0.3788   -2.7774   -2.1336 H   0  0  0  0  0  0  0  0  0  0  0  0
    1.4371   -3.4441   -0.8808 H   0  0  0  0  0  0  0  0  0  0  0  0
    1.5434   -0.9802   -0.8268 H   0  0  0  0  0  0  0  0  0  0  0  0
    3.1436   -1.7002   -1.2299 H   0  0  0  0  0  0  0  0  0  0  0  0
    2.1311   -0.9354   -2.5144 H   0  0  0  0  0  0  0  0  0  0  0  0
   -1.2917    2.9028   -3.8389 H   0  0  0  0  0  0  0  0  0  0  0  0
   -0.2729    3.8958   -1.8617 H   0  0  0  0  0  0  0  0  0  0  0  0
   -0.2080    2.3286    1.4830 H   0  0  0  0  0  0  0  0  0  0  0  0
    0.1400    3.8215    0.5470 H   0  0  0  0  0  0  0  0  0  0  0  0
    1.3334    2.4651    0.5489 H   0  0  0  0  0  0  0  0  0  0  0  0
   -0.6313    0.1559    0.2412 H   0  0  0  0  0  0  0  0  0  0  0  0
   -1.6371   -0.8678   -1.7476 H   0  0  0  0  0  0  0  0  0  0  0  0
   -2.7749   -1.7948   -5.6611 H   0  0  0  0  0  0  0  0  0  0  0  0
   -4.5816   -3.4306   -5.3607 H   0  0  0  0  0  0  0  0  0  0  0  0
   -6.8982   -3.4465   -2.3887 H   0  0  0  0  0  0  0  0  0  0  0  0
   -7.3049   -3.2604   -4.1426 H   0  0  0  0  0  0  0  0  0  0  0  0
   -6.1037   -4.5062   -3.6059 H   0  0  0  0  0  0  0  0  0  0  0  0
   -5.9754   -1.2665   -1.9022 H   0  0  0  0  0  0  0  0  0  0  0  0
   -4.1816    0.3789   -2.2104 H   0  0  0  0  0  0  0  0  0  0  0  0
   -1.7502    7.2510   -9.1553 H   0  0  0  0  0  0  0  0  0  0  0  0
   -2.7097    8.0824  -11.2485 H   0  0  0  0  0  0  0  0  0  0  0  0
   -5.3365    7.1152  -12.8047 H   0  0  0  0  0  0  0  0  0  0  0  0
   -4.3661    5.9408  -13.7792 H   0  0  0  0  0  0  0  0  0  0  0  0
   -3.7075    7.5767  -13.4361 H   0  0  0  0  0  0  0  0  0  0  0  0
   -4.5991    4.2737  -11.9203 H   0  0  0  0  0  0  0  0  0  0  0  0
   -3.6105    3.4129   -9.8492 H   0  0  0  0  0  0  0  0  0  0  0  0
    0.2600    5.2572   -9.5218 H   0  0  0  0  0  0  0  0  0  0  0  0
    2.3576    6.1824   -8.6479 H   0  0  0  0  0  0  0  0  0  0  0  0
    3.3781    6.1787   -5.2867 H   0  0  0  0  0  0  0  0  0  0  0  0
    2.7184    7.8383   -5.5671 H   0  0  0  0  0  0  0  0  0  0  0  0
    3.6940    7.0277   -6.8476 H   0  0  0  0  0  0  0  0  0  0  0  0
    0.6907    6.2369   -4.6706 H   0  0  0  0  0  0  0  0  0  0  0  0
   -1.4222    5.3688   -5.5471 H   0  0  0  0  0  0  0  0  0  0  0  0
   -3.8567    6.2260   -6.9148 H   0  0  0  0  0  0  0  0  0  0  0  0
   -7.5135    4.1933   -2.2815 H   0  0  0  0  0  0  0  0  0  0  0  0
  1  2  2  3
  2  3  1  0
  3  4  2  0
  3  5  1  0
  5  6  2  0
  6  7  1  0
  7  8  2  0
  8  9  1  0
  8 10  1  0
 10 11  1  0
 10 12  2  0
 12 13  1  0
  6 14  1  0
 14 15  2  3
 15 16  1  0
 16 17  3  0
 15 18  1  0
 18 19  3  0
  1 20  1  0
 20 21  2  0
 21 22  1  0
 22 23  1  0
 23 24  2  0
 24 25  1  0
 25 26  2  0
 26 27  1  0
 26 28  1  0
 28 29  2  0
 22 30  1  0
 30 31  2  0
 31 32  1  0
 32 33  2  0
 33 34  1  0
 33 35  1  0
 35 36  2  0
 21 37  1  0
 37 38  1  0
 38 39  1  0
 39 40  2  0
 40 41  1  0
 41 42  1  0
 42 43  2  0
 43 44  1  0
 44 45  2  0
 45 46  1  0
 45 47  1  0
 47 48  2  0
 41 49  1  0
 49 50  2  0
 50 51  1  0
 51 52  2  0
 52 53  1  0
 52 54  1  0
 54 55  2  0
 40 56  1  0
 56 57  1  0
 39 58  1  0
 58 59  2  0
 59 60  1  0
 60 61  2  0
 61 62  1  0
 62 63  2  0
 63 64  1  0
 64 65  1  0
 65 66  1  0
 64 67  2  0
 59 68  1  0
 68 69  1  0
 69 70  1  0
 70 71  1  0
 71 72  1  0
 72 73  1  0
 73 74  2  0
 74 75  1  0
 75 76  1  0
 73 77  1  0
 77 78  1  0
 78 79  1  0
 79 80  1  0
 80 81  1  0
 81 82  1  0
 82 83  2  0
 83 84  1  0
 84 85  2  0
 85 86  1  0
 86 87  1  0
 87 88  1  0
 86 89  2  0
 81 90  2  0
 90 91  1  0
 91 92  1  0
 92 93  1  0
 93 94  1  0
 94 95  1  0
 95 96  1  0
 96 97  1  0
 97 98  1  0
 98 99  1  0
 99100  1  0
 97101  1  0
101102  1  0
 94103  1  0
103104  1  0
 90105  1  0
105106  2  0
106107  1  0
107108  1  0
108109  2  0
109110  1  0
110111  2  0
111112  1  0
111113  1  0
113114  2  0
107115  1  0
115116  2  0
116117  1  0
117118  2  0
118119  1  0
118120  1  0
120121  2  0
106122  1  0
122123  1  0
123124  1  0
124125  2  0
125126  1  0
126127  1  0
127128  2  0
128129  1  0
129130  2  0
130131  1  0
130132  1  0
132133  2  0
126134  1  0
134135  2  0
135136  1  0
136137  2  0
137138  1  0
137139  1  0
139140  2  0
125141  1  0
141142  1  0
124143  1  0
143144  2  3
144145  1  0
145146  2  0
145147  1  0
147148  2  0
148149  1  0
149150  2  0
150151  1  0
150152  1  0
152153  1  0
152154  2  0
154155  1  0
148156  1  0
156157  2  3
157158  1  0
158159  3  0
157160  1  0
160161  3  0
 14  2  1  0
 57 20  1  0
100 58  1  0
142105  1  0
156144  1  0
 12  5  1  0
 29 23  1  0
 36 30  1  0
 56 37  2  0
 67 60  1  0
 99 68  2  0
114108  1  0
121115  1  0
141122  2  0
154147  1  0
 48 42  1  0
 55 49  1  0
 98 70  2  0
133127  1  0
140134  1  0
 96 71  2  0
 76 72  2  0
 95 77  2  0
 93 78  2  0
 92 80  2  0
 89 82  1  0
  1162  1  0
  7163  1  0
 24164  1  0
 25165  1  0
 27166  1  0
 27167  1  0
 27168  1  0
 28169  1  0
 29170  1  0
 31171  1  0
 32172  1  0
 34173  1  0
 34174  1  0
 34175  1  0
 35176  1  0
 36177  1  0
 43178  1  0
 44179  1  0
 46180  1  0
 46181  1  0
 46182  1  0
 47183  1  0
 48184  1  0
 50185  1  0
 51186  1  0
 53187  1  0
 53188  1  0
 53189  1  0
 54190  1  0
 55191  1  0
 61192  1  0
 62193  1  0
 63194  1  0
 65195  1  0
 65196  1  0
 66197  1  0
 66198  1  0
 66199  1  0
 67200  1  0
 83201  1  0
 84202  1  0
 85203  1  0
 87204  1  0
 87205  1  0
 88206  1  0
 88207  1  0
 88208  1  0
 89209  1  0
101210  1  0
101211  1  0
102212  1  0
102213  1  0
102214  1  0
103215  1  0
103216  1  0
104217  1  0
104218  1  0
104219  1  0
109220  1  0
110221  1  0
112222  1  0
112223  1  0
112224  1  0
113225  1  0
114226  1  0
116227  1  0
117228  1  0
119229  1  0
119230  1  0
119231  1  0
120232  1  0
121233  1  0
128234  1  0
129235  1  0
131236  1  0
131237  1  0
131238  1  0
132239  1  0
133240  1  0
135241  1  0
136242  1  0
138243  1  0
138244  1  0
138245  1  0
139246  1  0
140247  1  0
143248  1  0
149249  1  0
M  END

