
     RDKit          3D

162177  0  0  0  0  0  0  0  0999 V2000
  -10.0083   -0.9893   -0.0110 C   0  0  0  0  0  0  0  0  0  0  0  0
  -11.1662   -0.7487   -0.6522 C   0  0  0  0  0  0  0  0  0  0  0  0
  -11.4343    0.3943   -1.5366 C   0  0  0  0  0  0  0  0  0  0  0  0
  -10.5787    1.1826   -2.0125 O   0  0  0  0  0  0  0  0  0  0  0  0
  -12.8740    0.5281   -1.6911 C   0  0  0  0  0  0  0  0  0  0  0  0
  -13.5036   -0.4843   -0.9795 C   0  0  0  0  0  0  0  0  0  0  0  0
  -14.9032   -0.5114   -0.8933 C   0  0  0  0  0  0  0  0  0  0  0  0
  -15.6464    0.4659   -1.5655 C   0  0  0  0  0  0  0  0  0  0  0  0
  -15.0053    1.4785   -2.3023 C   0  0  0  0  0  0  0  0  0  0  0  0
  -16.0883    2.7864   -3.1913 Br  0  0  0  0  0  0  0  0  0  0  0  0
  -13.5984    1.5236   -2.3641 C   0  0  0  0  0  0  0  0  0  0  0  0
  -12.7759    2.7966   -3.2608 Cl  0  0  0  0  0  0  0  0  0  0  0  0
  -12.4862   -1.3867   -0.3700 C   0  0  0  0  0  0  0  0  0  0  0  0
  -12.6823   -2.6543    0.0835 C   0  0  0  0  0  0  0  0  0  0  0  0
  -11.5881   -3.5394    0.3955 C   0  0  0  0  0  0  0  0  0  0  0  0
  -10.7154   -4.2584    0.6417 N   0  0  0  0  0  0  0  0  0  0  0  0
  -13.9819   -3.2670    0.1500 C   0  0  0  0  0  0  0  0  0  0  0  0
  -15.0219   -3.7767    0.2014 N   0  0  0  0  0  0  0  0  0  0  0  0
   -8.7024   -0.4566   -0.4250 C   0  0  0  0  0  0  0  0  0  0  0  0
   -7.6604   -0.1644    0.4481 C   0  0  0  0  0  0  0  0  0  0  0  0
   -6.4444    0.0843   -0.2026 C   0  0  0  0  0  0  0  0  0  0  0  0
   -5.1613    0.2001    0.5089 C   0  0  0  0  0  0  0  0  0  0  0  0
   -4.5905    1.4557    0.7490 C   0  0  0  0  0  0  0  0  0  0  0  0
   -3.2923    1.5587    1.2640 C   0  0  0  0  0  0  0  0  0  0  0  0
   -2.5606    0.3839    1.5306 C   0  0  0  0  0  0  0  0  0  0  0  0
   -3.1361   -0.8820    1.3057 C   0  0  0  0  0  0  0  0  0  0  0  0
   -2.4503   -2.0828    1.5516 O   0  0  0  0  0  0  0  0  0  0  0  0
   -1.0372   -2.2165    1.7089 C   0  0  0  0  0  0  0  0  0  0  0  0
   -0.3327   -2.0165    0.3709 C   0  0  0  0  0  0  0  0  0  0  0  0
   -4.4386   -0.9608    0.8071 C   0  0  0  0  0  0  0  0  0  0  0  0
   -2.7649    2.8447    1.4749 O   0  0  0  0  0  0  0  0  0  0  0  0
   -1.5192    3.1434    2.1054 C   0  0  0  0  0  0  0  0  0  0  0  0
   -1.6123    2.9293    3.6135 C   0  0  0  0  0  0  0  0  0  0  0  0
   -6.5227   -0.0399   -1.5876 C   0  0  0  0  0  0  0  0  0  0  0  0
   -8.0901   -0.4879   -1.9970 S   0  0  0  0  0  0  0  0  0  0  0  0
   -5.3741   -0.0213   -2.5033 C   0  0  0  0  0  0  0  0  0  0  0  0
   -4.9821   -1.2079   -3.1620 C   0  0  0  0  0  0  0  0  0  0  0  0
   -3.7598   -1.2706   -3.8479 C   0  0  0  0  0  0  0  0  0  0  0  0
   -2.9634   -0.1243   -3.8814 C   0  0  0  0  0  0  0  0  0  0  0  0
   -1.6889    0.1178   -4.3609 C   0  0  0  0  0  0  0  0  0  0  0  0
   -1.3839    1.3974   -4.0317 C   0  0  0  0  0  0  0  0  0  0  0  0
   -2.3729    2.0020   -3.3243 N   0  0  0  0  0  0  0  0  0  0  0  0
   -3.3578    1.0607   -3.2742 C   0  0  0  0  0  0  0  0  0  0  0  0
   -4.5703    1.1321   -2.5795 C   0  0  0  0  0  0  0  0  0  0  0  0
   -2.3371    3.2844   -2.6161 C   0  0  0  0  0  0  0  0  0  0  0  0
   -2.4627    4.4385   -3.6038 C   0  0  0  0  0  0  0  0  0  0  0  0
   -0.0087    1.4850   -4.0026 C   0  0  0  0  0  0  0  0  0  0  0  0
    0.8936    2.4384   -3.5074 C   0  0  0  0  0  0  0  0  0  0  0  0
    2.2184    2.1351   -3.3538 C   0  0  0  0  0  0  0  0  0  0  0  0
    2.8660    3.2266   -2.9228 N   0  0  0  0  0  0  0  0  0  0  0  0
    1.9198    4.1574   -2.8154 N   0  0  0  0  0  0  0  0  0  0  0  0
    2.1785    5.5042   -2.3211 C   0  0  0  0  0  0  0  0  0  0  0  0
    2.1340    5.5221   -0.7983 C   0  0  0  0  0  0  0  0  0  0  0  0
    0.7103    3.7195   -3.1584 N   0  0  0  0  0  0  0  0  0  0  0  0
    2.7113    0.8870   -3.7358 C   0  0  0  0  0  0  0  0  0  0  0  0
    1.8555   -0.0625   -4.3143 C   0  0  0  0  0  0  0  0  0  0  0  0
    0.4538    0.2015   -4.3692 C   0  0  0  0  0  0  0  0  0  0  0  0
   -0.5933   -0.6790   -4.5056 N   0  0  0  0  0  0  0  0  0  0  0  0
   -0.5767   -2.1095   -4.1563 C   0  0  0  0  0  0  0  0  0  0  0  0
   -1.1153   -2.9812   -5.2975 C   0  0  0  0  0  0  0  0  0  0  0  0
    2.5600   -1.1567   -4.7259 N   0  0  0  0  0  0  0  0  0  0  0  0
    2.2014   -2.0749   -5.8135 C   0  0  0  0  0  0  0  0  0  0  0  0
    3.1708   -1.9661   -6.9890 C   0  0  0  0  0  0  0  0  0  0  0  0
    3.8282   -0.9004   -4.3219 C   0  0  0  0  0  0  0  0  0  0  0  0
    3.9610    0.3105   -3.7212 C   0  0  0  0  0  0  0  0  0  0  0  0
    4.9305    0.3115   -2.7740 N   0  0  0  0  0  0  0  0  0  0  0  0
    5.1884    1.3428   -1.7631 C   0  0  0  0  0  0  0  0  0  0  0  0
    6.0871    2.4288   -2.3391 C   0  0  0  0  0  0  0  0  0  0  0  0
    5.4322   -0.9564   -2.8150 C   0  0  0  0  0  0  0  0  0  0  0  0
    4.7548   -1.7387   -3.7387 C   0  0  0  0  0  0  0  0  0  0  0  0
    4.8885   -3.1253   -3.7704 C   0  0  0  0  0  0  0  0  0  0  0  0
    5.7651   -3.7266   -2.8513 C   0  0  0  0  0  0  0  0  0  0  0  0
    6.4644   -2.9463   -1.8942 C   0  0  0  0  0  0  0  0  0  0  0  0
    6.3187   -1.5400   -1.9067 C   0  0  0  0  0  0  0  0  0  0  0  0
    7.2109   -3.5859   -0.7818 C   0  0  0  0  0  0  0  0  0  0  0  0
    6.9992   -4.8724   -0.2771 C   0  0  0  0  0  0  0  0  0  0  0  0
    7.5883   -5.0882    0.9822 C   0  0  0  0  0  0  0  0  0  0  0  0
    7.4035   -6.3579    1.7669 C   0  0  0  0  0  0  0  0  0  0  0  0
    8.6290   -7.2575    1.6415 C   0  0  0  0  0  0  0  0  0  0  0  0
    8.2985   -3.9846    1.4539 C   0  0  0  0  0  0  0  0  0  0  0  0
    8.1601   -2.7503    0.3314 S   0  0  0  0  0  0  0  0  0  0  0  0
    8.7265   -3.7467    2.8390 C   0  0  0  0  0  0  0  0  0  0  0  0
    7.8975   -3.1903    3.7433 C   0  0  0  0  0  0  0  0  0  0  0  0
    6.5093   -2.7829    3.4849 C   0  0  0  0  0  0  0  0  0  0  0  0
    5.7485   -3.2320    2.5864 O   0  0  0  0  0  0  0  0  0  0  0  0
    6.1511   -1.7573    4.4359 C   0  0  0  0  0  0  0  0  0  0  0  0
    5.0079   -0.9617    4.4400 C   0  0  0  0  0  0  0  0  0  0  0  0
    4.9355    0.1068    5.3493 C   0  0  0  0  0  0  0  0  0  0  0  0
    3.8098    0.9437    5.3720 C   0  0  0  0  0  0  0  0  0  0  0  0
    3.7652    2.0349    6.2452 C   0  0  0  0  0  0  0  0  0  0  0  0
    4.8423    2.3010    7.0963 C   0  0  0  0  0  0  0  0  0  0  0  0
    5.9674    1.4713    7.0917 C   0  0  0  0  0  0  0  0  0  0  0  0
    6.0274    0.3658    6.2268 C   0  0  0  0  0  0  0  0  0  0  0  0
    7.1653   -0.4663    6.2031 C   0  0  0  0  0  0  0  0  0  0  0  0
    7.2025   -1.5503    5.3111 C   0  0  0  0  0  0  0  0  0  0  0  0
    8.2918   -2.5260    5.0199 C   0  0  0  0  0  0  0  0  0  0  0  0
    9.2935   -2.9059    5.8488 C   0  0  0  0  0  0  0  0  0  0  0  0
    9.5241   -2.2693    7.1199 C   0  0  0  0  0  0  0  0  0  0  0  0
    9.7241   -1.7588    8.1410 N   0  0  0  0  0  0  0  0  0  0  0  0
   10.1344   -4.0411    5.5597 C   0  0  0  0  0  0  0  0  0  0  0  0
   10.8060   -4.9536    5.3263 N   0  0  0  0  0  0  0  0  0  0  0  0
  -10.0022   -1.6191    0.8651 H   0  0  0  0  0  0  0  0  0  0  0  0
  -15.4312   -1.2381   -0.2990 H   0  0  0  0  0  0  0  0  0  0  0  0
  -16.7266    0.4437   -1.5052 H   0  0  0  0  0  0  0  0  0  0  0  0
   -7.7618   -0.1966    1.5252 H   0  0  0  0  0  0  0  0  0  0  0  0
   -5.1411    2.3574    0.5047 H   0  0  0  0  0  0  0  0  0  0  0  0
   -1.5536    0.4515    1.9067 H   0  0  0  0  0  0  0  0  0  0  0  0
   -0.8274   -3.2448    2.0680 H   0  0  0  0  0  0  0  0  0  0  0  0
   -0.6501   -1.5117    2.4708 H   0  0  0  0  0  0  0  0  0  0  0  0
   -0.4637   -0.9736    0.0128 H   0  0  0  0  0  0  0  0  0  0  0  0
    0.7503   -2.2231    0.4840 H   0  0  0  0  0  0  0  0  0  0  0  0
   -0.7531   -2.7120   -0.3856 H   0  0  0  0  0  0  0  0  0  0  0  0
   -4.8722   -1.9327    0.6066 H   0  0  0  0  0  0  0  0  0  0  0  0
   -0.6972    2.5409    1.6657 H   0  0  0  0  0  0  0  0  0  0  0  0
   -1.2826    4.2121    1.9189 H   0  0  0  0  0  0  0  0  0  0  0  0
   -0.6625    3.2481    4.0929 H   0  0  0  0  0  0  0  0  0  0  0  0
   -1.7856    1.8599    3.8487 H   0  0  0  0  0  0  0  0  0  0  0  0
   -2.4470    3.5319    4.0283 H   0  0  0  0  0  0  0  0  0  0  0  0
   -5.5917   -2.1010   -3.0870 H   0  0  0  0  0  0  0  0  0  0  0  0
   -3.4626   -2.1917   -4.3193 H   0  0  0  0  0  0  0  0  0  0  0  0
   -4.8780    2.0340   -2.0712 H   0  0  0  0  0  0  0  0  0  0  0  0
   -3.1619    3.3605   -1.8797 H   0  0  0  0  0  0  0  0  0  0  0  0
   -1.4116    3.3662   -2.0167 H   0  0  0  0  0  0  0  0  0  0  0  0
   -3.4087    4.3446   -4.1735 H   0  0  0  0  0  0  0  0  0  0  0  0
   -1.6127    4.4386   -4.3145 H   0  0  0  0  0  0  0  0  0  0  0  0
   -2.4702    5.4015   -3.0535 H   0  0  0  0  0  0  0  0  0  0  0  0
    1.4160    6.2091   -2.7242 H   0  0  0  0  0  0  0  0  0  0  0  0
    3.1807    5.8411   -2.6649 H   0  0  0  0  0  0  0  0  0  0  0  0
    2.8888    4.8192   -0.3839 H   0  0  0  0  0  0  0  0  0  0  0  0
    2.3570    6.5455   -0.4300 H   0  0  0  0  0  0  0  0  0  0  0  0
    1.1227    5.2252   -0.4449 H   0  0  0  0  0  0  0  0  0  0  0  0
    0.4371   -2.4465   -3.8636 H   0  0  0  0  0  0  0  0  0  0  0  0
   -1.1952   -2.2684   -3.2451 H   0  0  0  0  0  0  0  0  0  0  0  0
   -1.7302   -2.3838   -6.0034 H   0  0  0  0  0  0  0  0  0  0  0  0
   -1.7352   -3.8017   -4.8818 H   0  0  0  0  0  0  0  0  0  0  0  0
   -0.2874   -3.4560   -5.8602 H   0  0  0  0  0  0  0  0  0  0  0  0
    2.1881   -3.1187   -5.4390 H   0  0  0  0  0  0  0  0  0  0  0  0
    1.2039   -1.8106   -6.2116 H   0  0  0  0  0  0  0  0  0  0  0  0
    2.8101   -2.5931   -7.8323 H   0  0  0  0  0  0  0  0  0  0  0  0
    3.2370   -0.9108   -7.3320 H   0  0  0  0  0  0  0  0  0  0  0  0
    4.1822   -2.3208   -6.6950 H   0  0  0  0  0  0  0  0  0  0  0  0
    5.6735    0.9129   -0.8649 H   0  0  0  0  0  0  0  0  0  0  0  0
    4.2364    1.7755   -1.4028 H   0  0  0  0  0  0  0  0  0  0  0  0
    5.5937    2.9181   -3.2055 H   0  0  0  0  0  0  0  0  0  0  0  0
    6.2947    3.1965   -1.5626 H   0  0  0  0  0  0  0  0  0  0  0  0
    7.0497    1.9855   -2.6739 H   0  0  0  0  0  0  0  0  0  0  0  0
    4.3086   -3.7317   -4.4541 H   0  0  0  0  0  0  0  0  0  0  0  0
    5.8609   -4.8033   -2.8606 H   0  0  0  0  0  0  0  0  0  0  0  0
    6.8184   -0.9273   -1.1708 H   0  0  0  0  0  0  0  0  0  0  0  0
    6.3563   -5.6042   -0.7479 H   0  0  0  0  0  0  0  0  0  0  0  0
    6.5087   -6.9085    1.4007 H   0  0  0  0  0  0  0  0  0  0  0  0
    7.2287   -6.1182    2.8393 H   0  0  0  0  0  0  0  0  0  0  0  0
    8.4874   -8.1665    2.2655 H   0  0  0  0  0  0  0  0  0  0  0  0
    9.5390   -6.7225    1.9906 H   0  0  0  0  0  0  0  0  0  0  0  0
    8.7643   -7.5704    0.5846 H   0  0  0  0  0  0  0  0  0  0  0  0
    9.7861   -3.8181    3.0331 H   0  0  0  0  0  0  0  0  0  0  0  0
    4.2119   -1.1474    3.7281 H   0  0  0  0  0  0  0  0  0  0  0  0
    2.9677    0.7599    4.7122 H   0  0  0  0  0  0  0  0  0  0  0  0
    2.8976    2.6821    6.2555 H   0  0  0  0  0  0  0  0  0  0  0  0
    4.8043    3.1559    7.7602 H   0  0  0  0  0  0  0  0  0  0  0  0
    6.7931    1.6977    7.7579 H   0  0  0  0  0  0  0  0  0  0  0  0
    8.0093   -0.2258    6.8298 H   0  0  0  0  0  0  0  0  0  0  0  0
  1  2  2  3
  2  3  1  0
  3  4  2  0
  3  5  1  0
  5  6  2  0
  6  7  1  0
  7  8  2  0
  8  9  1  0
  9 10  1  0
  9 11  2  0
 11 12  1  0
  6 13  1  0
 13 14  2  3
 14 15  1  0
 15 16  3  0
 14 17  1  0
 17 18  3  0
  1 19  1  0
 19 20  2  0
 20 21  1  0
 21 22  1  0
 22 23  2  0
 23 24  1  0
 24 25  2  0
 25 26  1  0
 26 27  1  0
 27 28  1  0
 28 29  1  0
 26 30  2  0
 24 31  1  0
 31 32  1  0
 32 33  1  0
 21 34  2  0
 34 35  1  0
 34 36  1  0
 36 37  2  0
 37 38  1  0
 38 39  2  0
 39 40  1  0
 40 41  2  0
 41 42  1  0
 42 43  1  0
 43 44  2  0
 42 45  1  0
 45 46  1  0
 41 47  1  0
 47 48  1  0
 48 49  1  0
 49 50  2  0
 50 51  1  0
 51 52  1  0
 52 53  1  0
 51 54  1  0
 49 55  1  0
 55 56  2  0
 56 57  1  0
 57 58  1  0
 58 59  1  0
 59 60  1  0
 56 61  1  0
 61 62  1  0
 62 63  1  0
 61 64  1  0
 64 65  2  0
 65 66  1  0
 66 67  1  0
 67 68  1  0
 66 69  1  0
 69 70  2  0
 70 71  1  0
 71 72  2  0
 72 73  1  0
 73 74  2  0
 73 75  1  0
 75 76  2  0
 76 77  1  0
 77 78  1  0
 78 79  1  0
 77 80  2  0
 80 81  1  0
 80 82  1  0
 82 83  2  3
 83 84  1  0
 84 85  2  0
 84 86  1  0
 86 87  2  0
 87 88  1  0
 88 89  2  0
 89 90  1  0
 90 91  2  0
 91 92  1  0
 92 93  2  0
 93 94  1  0
 94 95  2  0
 95 96  1  0
 96 97  2  3
 97 98  1  0
 98 99  3  0
 97100  1  0
100101  3  0
 13  2  1  0
 35 19  1  0
 44 36  1  0
 57 47  2  0
 70 64  1  0
 81 75  1  0
 96 83  1  0
 11  5  1  0
 30 22  1  0
 43 39  1  0
 54 48  2  0
 65 55  1  0
 74 69  1  0
 95 86  1  0
 58 40  1  0
 93 88  1  0
  1102  1  0
  7103  1  0
  8104  1  0
 20105  1  0
 23106  1  0
 25107  1  0
 28108  1  0
 28109  1  0
 29110  1  0
 29111  1  0
 29112  1  0
 30113  1  0
 32114  1  0
 32115  1  0
 33116  1  0
 33117  1  0
 33118  1  0
 37119  1  0
 38120  1  0
 44121  1  0
 45122  1  0
 45123  1  0
 46124  1  0
 46125  1  0
 46126  1  0
 52127  1  0
 52128  1  0
 53129  1  0
 53130  1  0
 53131  1  0
 59132  1  0
 59133  1  0
 60134  1  0
 60135  1  0
 60136  1  0
 62137  1  0
 62138  1  0
 63139  1  0
 63140  1  0
 63141  1  0
 67142  1  0
 67143  1  0
 68144  1  0
 68145  1  0
 68146  1  0
 71147  1  0
 72148  1  0
 74149  1  0
 76150  1  0
 78151  1  0
 78152  1  0
 79153  1  0
 79154  1  0
 79155  1  0
 82156  1  0
 87157  1  0
 89158  1  0
 90159  1  0
 91160  1  0
 92161  1  0
 94162  1  0
M  END

