
     RDKit          3D

161179  0  0  0  0  0  0  0  0999 V2000
    2.8925   -4.5544   -7.8827 C   0  0  0  0  0  0  0  0  0  0  0  0
    3.2787   -5.7710   -8.3088 C   0  0  0  0  0  0  0  0  0  0  0  0
    4.6631   -6.1649   -8.5938 C   0  0  0  0  0  0  0  0  0  0  0  0
    5.5918   -5.4034   -8.9690 O   0  0  0  0  0  0  0  0  0  0  0  0
    4.7854   -7.5986   -8.3650 C   0  0  0  0  0  0  0  0  0  0  0  0
    3.5284   -8.1168   -8.0814 C   0  0  0  0  0  0  0  0  0  0  0  0
    3.3985   -9.4636   -7.6998 C   0  0  0  0  0  0  0  0  0  0  0  0
    4.5374  -10.2745   -7.6644 C   0  0  0  0  0  0  0  0  0  0  0  0
    5.8057   -9.7531   -7.9831 C   0  0  0  0  0  0  0  0  0  0  0  0
    7.3292  -10.9106   -7.8612 Br  0  0  0  0  0  0  0  0  0  0  0  0
    5.9438   -8.3901   -8.3253 C   0  0  0  0  0  0  0  0  0  0  0  0
    7.5241   -7.6845   -8.6493 Cl  0  0  0  0  0  0  0  0  0  0  0  0
    2.5037   -7.0327   -8.1514 C   0  0  0  0  0  0  0  0  0  0  0  0
    1.1542   -7.1660   -8.1952 C   0  0  0  0  0  0  0  0  0  0  0  0
    0.4874   -8.4194   -7.9922 C   0  0  0  0  0  0  0  0  0  0  0  0
   -0.0738   -9.4148   -7.8227 N   0  0  0  0  0  0  0  0  0  0  0  0
    0.2892   -6.0625   -8.5239 C   0  0  0  0  0  0  0  0  0  0  0  0
   -0.4188   -5.1850   -8.7891 N   0  0  0  0  0  0  0  0  0  0  0  0
    3.8136   -3.4679   -7.5113 C   0  0  0  0  0  0  0  0  0  0  0  0
    3.3752   -1.8380   -7.4994 S   0  0  0  0  0  0  0  0  0  0  0  0
    4.4990   -1.2490   -6.3742 C   0  0  0  0  0  0  0  0  0  0  0  0
    5.2178   -2.3783   -5.9531 C   0  0  0  0  0  0  0  0  0  0  0  0
    6.1462   -2.5672   -4.9156 C   0  0  0  0  0  0  0  0  0  0  0  0
    6.4382   -3.9212   -4.7114 C   0  0  0  0  0  0  0  0  0  0  0  0
    7.2930   -4.4574   -3.6479 C   0  0  0  0  0  0  0  0  0  0  0  0
    7.7563   -5.6208   -3.7572 O   0  0  0  0  0  0  0  0  0  0  0  0
    7.5613   -3.6882   -2.5127 O   0  0  0  0  0  0  0  0  0  0  0  0
    8.3009   -4.1799   -1.3886 C   0  0  0  0  0  0  0  0  0  0  0  0
    9.8076   -4.1385   -1.6733 C   0  0  0  0  0  0  0  0  0  0  0  0
    5.5480   -4.8736   -5.7980 S   0  0  0  0  0  0  0  0  0  0  0  0
    4.8353   -3.5586   -6.5685 C   0  0  0  0  0  0  0  0  0  0  0  0
    4.4172    0.0629   -5.6913 C   0  0  0  0  0  0  0  0  0  0  0  0
    3.6981    1.2175   -6.1067 C   0  0  0  0  0  0  0  0  0  0  0  0
    2.9232    1.3222   -7.3489 C   0  0  0  0  0  0  0  0  0  0  0  0
    3.5727    1.5709   -8.5628 C   0  0  0  0  0  0  0  0  0  0  0  0
    2.8398    1.6238   -9.7554 C   0  0  0  0  0  0  0  0  0  0  0  0
    1.4565    1.4281   -9.7374 C   0  0  0  0  0  0  0  0  0  0  0  0
    0.7924    1.1781   -8.5263 C   0  0  0  0  0  0  0  0  0  0  0  0
   -0.6844    0.8745   -8.5276 C   0  0  0  0  0  0  0  0  0  0  0  0
   -0.9416   -0.5592   -8.9896 C   0  0  0  0  0  0  0  0  0  0  0  0
    1.5338    1.1241   -7.3269 C   0  0  0  0  0  0  0  0  0  0  0  0
    3.6609    2.1873   -5.0932 C   0  0  0  0  0  0  0  0  0  0  0  0
    2.7289    3.6111   -4.8249 S   0  0  0  0  0  0  0  0  0  0  0  0
    3.2131    3.6655   -3.1876 C   0  0  0  0  0  0  0  0  0  0  0  0
    2.8349    4.2336   -1.9906 C   0  0  0  0  0  0  0  0  0  0  0  0
    2.0827    5.3639   -1.6502 C   0  0  0  0  0  0  0  0  0  0  0  0
    1.8928    5.6693   -0.2607 C   0  0  0  0  0  0  0  0  0  0  0  0
    1.1474    6.7665    0.0201 N   0  0  0  0  0  0  0  0  0  0  0  0
    0.8001    7.2762   -1.5125 S   0  0  0  0  0  0  0  0  0  0  0  0
    1.5161    6.2017   -2.5492 N   0  0  0  0  0  0  0  0  0  0  0  0
    2.3712    4.7630    0.7086 C   0  0  0  0  0  0  0  0  0  0  0  0
    1.9661    4.5707    2.0078 C   0  0  0  0  0  0  0  0  0  0  0  0
    0.8110    5.2853    3.0263 S   0  0  0  0  0  0  0  0  0  0  0  0
    0.5637    3.8163    3.8539 C   0  0  0  0  0  0  0  0  0  0  0  0
   -0.4603    3.4166    4.7066 C   0  0  0  0  0  0  0  0  0  0  0  0
   -1.0193    4.3454    5.6973 C   0  0  0  0  0  0  0  0  0  0  0  0
   -2.0062    5.2774    5.3527 C   0  0  0  0  0  0  0  0  0  0  0  0
   -2.4517    6.2053    6.3007 C   0  0  0  0  0  0  0  0  0  0  0  0
   -1.9093    6.2117    7.5940 C   0  0  0  0  0  0  0  0  0  0  0  0
   -0.8944    5.3023    7.9384 C   0  0  0  0  0  0  0  0  0  0  0  0
   -0.3162    5.2810    9.3275 C   0  0  0  0  0  0  0  0  0  0  0  0
   -1.0150    4.2373   10.1929 C   0  0  0  0  0  0  0  0  0  0  0  0
   -0.4530    4.3708    6.9846 C   0  0  0  0  0  0  0  0  0  0  0  0
   -0.6089    2.0114    4.7191 C   0  0  0  0  0  0  0  0  0  0  0  0
    0.5928    1.3454    3.7069 S   0  0  0  0  0  0  0  0  0  0  0  0
    1.2962    2.8070    3.2975 C   0  0  0  0  0  0  0  0  0  0  0  0
    2.1568    3.2466    2.2861 C   0  0  0  0  0  0  0  0  0  0  0  0
    2.7900    2.5901    1.2825 N   0  0  0  0  0  0  0  0  0  0  0  0
    2.9869    3.5605    0.3353 C   0  0  0  0  0  0  0  0  0  0  0  0
    3.3789    3.3984   -1.0057 C   0  0  0  0  0  0  0  0  0  0  0  0
    4.1766    2.4358   -1.5524 N   0  0  0  0  0  0  0  0  0  0  0  0
    4.0232    2.6232   -2.8778 C   0  0  0  0  0  0  0  0  0  0  0  0
    4.3041    1.8131   -3.9458 C   0  0  0  0  0  0  0  0  0  0  0  0
    4.9278    0.2844   -4.0880 S   0  0  0  0  0  0  0  0  0  0  0  0
    5.3046    1.7496   -0.9113 C   0  0  0  0  0  0  0  0  0  0  0  0
    6.6378    2.3390   -1.3630 C   0  0  0  0  0  0  0  0  0  0  0  0
    2.7478    1.1299    1.0849 C   0  0  0  0  0  0  0  0  0  0  0  0
    3.6393    0.4078    2.1023 C   0  0  0  0  0  0  0  0  0  0  0  0
   -1.8521    1.2702    5.0282 C   0  0  0  0  0  0  0  0  0  0  0  0
   -2.4943    0.0494    4.0362 S   0  0  0  0  0  0  0  0  0  0  0  0
   -3.9791   -0.1672    4.8194 C   0  0  0  0  0  0  0  0  0  0  0  0
   -3.9593    0.6920    5.9139 C   0  0  0  0  0  0  0  0  0  0  0  0
   -4.8857    0.8756    6.9418 C   0  0  0  0  0  0  0  0  0  0  0  0
   -4.4398    1.8314    7.8625 C   0  0  0  0  0  0  0  0  0  0  0  0
   -5.1954    2.3328    9.0115 C   0  0  0  0  0  0  0  0  0  0  0  0
   -6.4336    2.1049    9.0968 O   0  0  0  0  0  0  0  0  0  0  0  0
   -4.5355    3.1015    9.9834 O   0  0  0  0  0  0  0  0  0  0  0  0
   -5.1928    3.6889   11.1035 C   0  0  0  0  0  0  0  0  0  0  0  0
   -5.5882    2.6189   12.1269 C   0  0  0  0  0  0  0  0  0  0  0  0
   -2.9078    2.4000    7.4088 S   0  0  0  0  0  0  0  0  0  0  0  0
   -2.8170    1.4700    6.0145 C   0  0  0  0  0  0  0  0  0  0  0  0
   -4.9583   -1.2219    4.5086 C   0  0  0  0  0  0  0  0  0  0  0  0
   -6.2906   -1.0286    4.4646 C   0  0  0  0  0  0  0  0  0  0  0  0
   -6.9497    0.2701    4.2922 C   0  0  0  0  0  0  0  0  0  0  0  0
   -6.4017    1.4052    4.3391 O   0  0  0  0  0  0  0  0  0  0  0  0
   -8.3390    0.0368    3.9524 C   0  0  0  0  0  0  0  0  0  0  0  0
   -9.3254    0.9859    3.6916 C   0  0  0  0  0  0  0  0  0  0  0  0
  -10.6279    0.5469    3.4024 C   0  0  0  0  0  0  0  0  0  0  0  0
  -11.6555    1.4690    3.1477 C   0  0  0  0  0  0  0  0  0  0  0  0
  -12.9503    1.0197    2.8712 C   0  0  0  0  0  0  0  0  0  0  0  0
  -13.2283   -0.3495    2.8462 C   0  0  0  0  0  0  0  0  0  0  0  0
  -14.4865   -0.7772    2.5831 F   0  0  0  0  0  0  0  0  0  0  0  0
  -12.2160   -1.2823    3.0903 C   0  0  0  0  0  0  0  0  0  0  0  0
  -10.9098   -0.8448    3.3697 C   0  0  0  0  0  0  0  0  0  0  0  0
   -9.8851   -1.7792    3.6172 C   0  0  0  0  0  0  0  0  0  0  0  0
   -8.5904   -1.3253    3.9108 C   0  0  0  0  0  0  0  0  0  0  0  0
   -7.3445   -2.0713    4.2615 C   0  0  0  0  0  0  0  0  0  0  0  0
   -7.2295   -3.4042    4.5142 C   0  0  0  0  0  0  0  0  0  0  0  0
   -6.0676   -3.9655    5.1550 C   0  0  0  0  0  0  0  0  0  0  0  0
   -5.1385   -4.4284    5.6710 N   0  0  0  0  0  0  0  0  0  0  0  0
   -8.2784   -4.3536    4.2407 C   0  0  0  0  0  0  0  0  0  0  0  0
   -9.1061   -5.1355    4.0305 N   0  0  0  0  0  0  0  0  0  0  0  0
    1.8799   -4.3864   -7.5754 H   0  0  0  0  0  0  0  0  0  0  0  0
    2.4619   -9.8913   -7.3989 H   0  0  0  0  0  0  0  0  0  0  0  0
    4.4415  -11.3151   -7.3694 H   0  0  0  0  0  0  0  0  0  0  0  0
    6.5814   -1.7802   -4.3210 H   0  0  0  0  0  0  0  0  0  0  0  0
    8.0862   -3.5486   -0.5019 H   0  0  0  0  0  0  0  0  0  0  0  0
    7.9850   -5.2182   -1.1528 H   0  0  0  0  0  0  0  0  0  0  0  0
   10.0190   -4.4610   -2.7140 H   0  0  0  0  0  0  0  0  0  0  0  0
   10.3382   -4.8061   -0.9636 H   0  0  0  0  0  0  0  0  0  0  0  0
   10.1781   -3.0997   -1.5385 H   0  0  0  0  0  0  0  0  0  0  0  0
    4.6450    1.7100   -8.5916 H   0  0  0  0  0  0  0  0  0  0  0  0
    3.3447    1.8003  -10.6951 H   0  0  0  0  0  0  0  0  0  0  0  0
    0.9007    1.4524  -10.6668 H   0  0  0  0  0  0  0  0  0  0  0  0
   -1.2045    1.5839   -9.2051 H   0  0  0  0  0  0  0  0  0  0  0  0
   -1.1146    1.0160   -7.5146 H   0  0  0  0  0  0  0  0  0  0  0  0
   -0.5354   -1.2835   -8.2492 H   0  0  0  0  0  0  0  0  0  0  0  0
   -0.4698   -0.7426   -9.9766 H   0  0  0  0  0  0  0  0  0  0  0  0
   -2.0356   -0.7263   -9.0975 H   0  0  0  0  0  0  0  0  0  0  0  0
    1.0369    0.9026   -6.3893 H   0  0  0  0  0  0  0  0  0  0  0  0
   -2.4208    5.2907    4.3526 H   0  0  0  0  0  0  0  0  0  0  0  0
   -3.2125    6.9260    6.0319 H   0  0  0  0  0  0  0  0  0  0  0  0
   -2.2834    6.9218    8.3209 H   0  0  0  0  0  0  0  0  0  0  0  0
    0.7707    5.0416    9.2784 H   0  0  0  0  0  0  0  0  0  0  0  0
   -0.4120    6.2846    9.8056 H   0  0  0  0  0  0  0  0  0  0  0  0
   -0.9304    3.2310    9.7254 H   0  0  0  0  0  0  0  0  0  0  0  0
   -2.0877    4.5021   10.3153 H   0  0  0  0  0  0  0  0  0  0  0  0
   -0.5378    4.2001   11.1948 H   0  0  0  0  0  0  0  0  0  0  0  0
    0.3292    3.6655    7.2468 H   0  0  0  0  0  0  0  0  0  0  0  0
    5.2559    1.8766    0.1819 H   0  0  0  0  0  0  0  0  0  0  0  0
    5.2715    0.6627   -1.1473 H   0  0  0  0  0  0  0  0  0  0  0  0
    7.4705    1.8577   -0.8105 H   0  0  0  0  0  0  0  0  0  0  0  0
    6.7941    2.1651   -2.4505 H   0  0  0  0  0  0  0  0  0  0  0  0
    6.6574    3.4335   -1.1645 H   0  0  0  0  0  0  0  0  0  0  0  0
    1.7025    0.7673    1.1828 H   0  0  0  0  0  0  0  0  0  0  0  0
    3.0546    0.8496    0.0616 H   0  0  0  0  0  0  0  0  0  0  0  0
    4.6945    0.7281    2.0015 H   0  0  0  0  0  0  0  0  0  0  0  0
    3.5815   -0.6892    1.9332 H   0  0  0  0  0  0  0  0  0  0  0  0
    3.3118    0.6255    3.1372 H   0  0  0  0  0  0  0  0  0  0  0  0
   -5.8261    0.3507    7.0147 H   0  0  0  0  0  0  0  0  0  0  0  0
   -6.0932    4.2593   10.7759 H   0  0  0  0  0  0  0  0  0  0  0  0
   -4.4925    4.4004   11.5899 H   0  0  0  0  0  0  0  0  0  0  0  0
   -4.6978    2.0136   12.4104 H   0  0  0  0  0  0  0  0  0  0  0  0
   -5.9932    3.1077   13.0325 H   0  0  0  0  0  0  0  0  0  0  0  0
   -6.3708    1.9493   11.7100 H   0  0  0  0  0  0  0  0  0  0  0  0
   -4.5377   -2.1828    4.2630 H   0  0  0  0  0  0  0  0  0  0  0  0
   -9.0858    2.0454    3.7268 H   0  0  0  0  0  0  0  0  0  0  0  0
  -11.4583    2.5352    3.1601 H   0  0  0  0  0  0  0  0  0  0  0  0
  -13.7386    1.7364    2.6718 H   0  0  0  0  0  0  0  0  0  0  0  0
  -12.4548   -2.3388    3.0662 H   0  0  0  0  0  0  0  0  0  0  0  0
  -10.1255   -2.8256    3.5732 H   0  0  0  0  0  0  0  0  0  0  0  0
  1  2  2  3
  2  3  1  0
  3  4  2  0
  3  5  1  0
  5  6  2  0
  6  7  1  0
  7  8  2  0
  8  9  1  0
  9 10  1  0
  9 11  2  0
 11 12  1  0
  6 13  1  0
 13 14  2  3
 14 15  1  0
 15 16  3  0
 14 17  1  0
 17 18  3  0
  1 19  1  0
 19 20  1  0
 20 21  1  0
 21 22  2  0
 22 23  1  0
 23 24  2  0
 24 25  1  0
 25 26  2  0
 25 27  1  0
 27 28  1  0
 28 29  1  0
 24 30  1  0
 30 31  1  0
 21 32  1  0
 32 33  2  0
 33 34  1  0
 34 35  2  0
 35 36  1  0
 36 37  2  0
 37 38  1  0
 38 39  1  0
 39 40  1  0
 38 41  2  0
 33 42  1  0
 42 43  1  0
 43 44  1  0
 44 45  1  0
 45 46  1  0
 46 47  1  0
 47 48  2  0
 48 49  1  0
 49 50  1  0
 47 51  1  0
 51 52  1  0
 52 53  1  0
 53 54  1  0
 54 55  1  0
 55 56  1  0
 56 57  2  0
 57 58  1  0
 58 59  2  0
 59 60  1  0
 60 61  1  0
 61 62  1  0
 60 63  2  0
 55 64  2  0
 64 65  1  0
 65 66  1  0
 66 67  1  0
 67 68  1  0
 68 69  1  0
 69 70  1  0
 70 71  1  0
 71 72  1  0
 72 73  1  0
 73 74  1  0
 71 75  1  0
 75 76  1  0
 68 77  1  0
 77 78  1  0
 64 79  1  0
 79 80  1  0
 80 81  1  0
 81 82  2  0
 82 83  1  0
 83 84  2  0
 84 85  1  0
 85 86  2  0
 85 87  1  0
 87 88  1  0
 88 89  1  0
 84 90  1  0
 90 91  1  0
 81 92  1  0
 92 93  2  3
 93 94  1  0
 94 95  2  0
 94 96  1  0
 96 97  2  0
 97 98  1  0
 98 99  2  0
 99100  1  0
100101  2  0
101102  1  0
101103  1  0
103104  2  0
104105  1  0
105106  2  0
106107  1  0
107108  2  3
108109  1  0
109110  3  0
108111  1  0
111112  3  0
 13  2  1  0
 31 19  2  0
 74 32  1  0
 91 79  2  0
107 93  1  0
 11  5  1  0
 31 22  1  0
 41 34  1  0
 73 42  2  0
 91 82  1  0
106 96  1  0
 72 44  2  0
104 98  1  0
 70 45  2  0
 50 46  2  0
 69 51  2  0
 67 52  2  0
 66 54  2  0
 63 56  1  0
  1113  1  0
  7114  1  0
  8115  1  0
 23116  1  0
 28117  1  0
 28118  1  0
 29119  1  0
 29120  1  0
 29121  1  0
 35122  1  0
 36123  1  0
 37124  1  0
 39125  1  0
 39126  1  0
 40127  1  0
 40128  1  0
 40129  1  0
 41130  1  0
 57131  1  0
 58132  1  0
 59133  1  0
 61134  1  0
 61135  1  0
 62136  1  0
 62137  1  0
 62138  1  0
 63139  1  0
 75140  1  0
 75141  1  0
 76142  1  0
 76143  1  0
 76144  1  0
 77145  1  0
 77146  1  0
 78147  1  0
 78148  1  0
 78149  1  0
 83150  1  0
 88151  1  0
 88152  1  0
 89153  1  0
 89154  1  0
 89155  1  0
 92156  1  0
 97157  1  0
 99158  1  0
100159  1  0
103160  1  0
105161  1  0
M  END

