
     RDKit          3D

172189  0  0  0  0  0  0  0  0999 V2000
    4.1564   -9.5305    5.0589 C   0  0  0  0  0  0  0  0  0  0  0  0
    4.8507   -9.7583    6.1937 C   0  0  0  0  0  0  0  0  0  0  0  0
    4.6933  -11.0358    6.8952 C   0  0  0  0  0  0  0  0  0  0  0  0
    3.8773  -11.9481    6.5771 O   0  0  0  0  0  0  0  0  0  0  0  0
    5.6832  -11.1409    7.9410 C   0  0  0  0  0  0  0  0  0  0  0  0
    6.4713   -9.9996    7.9209 C   0  0  0  0  0  0  0  0  0  0  0  0
    7.6018   -9.9397    8.7593 C   0  0  0  0  0  0  0  0  0  0  0  0
    7.8373  -10.9703    9.6742 C   0  0  0  0  0  0  0  0  0  0  0  0
    6.9849  -12.0844    9.7380 C   0  0  0  0  0  0  0  0  0  0  0  0
    7.3366  -13.4356   11.0497 Br  0  0  0  0  0  0  0  0  0  0  0  0
    5.8993  -12.1864    8.8474 C   0  0  0  0  0  0  0  0  0  0  0  0
    4.8541  -13.6132    8.8631 Cl  0  0  0  0  0  0  0  0  0  0  0  0
    5.9336   -9.0065    6.9300 C   0  0  0  0  0  0  0  0  0  0  0  0
    6.1988   -7.6706    6.9516 C   0  0  0  0  0  0  0  0  0  0  0  0
    7.1738   -7.0867    7.8374 C   0  0  0  0  0  0  0  0  0  0  0  0
    7.9539   -6.6006    8.5424 N   0  0  0  0  0  0  0  0  0  0  0  0
    5.4773   -6.6767    6.2108 C   0  0  0  0  0  0  0  0  0  0  0  0
    4.9436   -5.8250    5.6310 N   0  0  0  0  0  0  0  0  0  0  0  0
    4.1862   -8.3573    4.1764 C   0  0  0  0  0  0  0  0  0  0  0  0
    5.2168   -8.1683    3.2369 C   0  0  0  0  0  0  0  0  0  0  0  0
    6.2907   -8.9973    3.2275 F   0  0  0  0  0  0  0  0  0  0  0  0
    5.1431   -7.1176    2.3083 C   0  0  0  0  0  0  0  0  0  0  0  0
    6.1774   -6.9159    1.4584 F   0  0  0  0  0  0  0  0  0  0  0  0
    4.0324   -6.2511    2.2930 C   0  0  0  0  0  0  0  0  0  0  0  0
    2.9851   -6.4633    3.2118 C   0  0  0  0  0  0  0  0  0  0  0  0
    1.9013   -5.6386    3.2443 N   0  0  0  0  0  0  0  0  0  0  0  0
    0.9100   -5.7800    4.1643 C   0  0  0  0  0  0  0  0  0  0  0  0
   -0.2554   -4.8305    4.1051 C   0  0  0  0  0  0  0  0  0  0  0  0
   -1.3879   -5.4092    3.2632 C   0  0  0  0  0  0  0  0  0  0  0  0
    0.9953   -6.8371    5.1041 C   0  0  0  0  0  0  0  0  0  0  0  0
    2.0688   -7.6625    5.0595 N   0  0  0  0  0  0  0  0  0  0  0  0
    3.0621   -7.5159    4.1425 C   0  0  0  0  0  0  0  0  0  0  0  0
    0.0089   -7.0271    6.2287 C   0  0  0  0  0  0  0  0  0  0  0  0
    0.4638   -6.2623    7.4685 C   0  0  0  0  0  0  0  0  0  0  0  0
    3.9990   -5.0884    1.3740 C   0  0  0  0  0  0  0  0  0  0  0  0
    4.1657   -5.1111   -0.0341 C   0  0  0  0  0  0  0  0  0  0  0  0
    4.2383   -6.3279   -0.8767 C   0  0  0  0  0  0  0  0  0  0  0  0
    3.3636   -7.4026   -0.6497 C   0  0  0  0  0  0  0  0  0  0  0  0
    3.3940   -8.5255   -1.4801 C   0  0  0  0  0  0  0  0  0  0  0  0
    4.2867   -8.5802   -2.5553 C   0  0  0  0  0  0  0  0  0  0  0  0
    5.1689   -7.5160   -2.7951 C   0  0  0  0  0  0  0  0  0  0  0  0
    6.0825   -7.5454   -3.9898 C   0  0  0  0  0  0  0  0  0  0  0  0
    5.3962   -6.9363   -5.2093 C   0  0  0  0  0  0  0  0  0  0  0  0
    5.1350   -6.3928   -1.9541 C   0  0  0  0  0  0  0  0  0  0  0  0
    4.1229   -3.8099   -0.5518 C   0  0  0  0  0  0  0  0  0  0  0  0
    4.1233   -3.1579   -2.1383 S   0  0  0  0  0  0  0  0  0  0  0  0
    3.8572   -1.5955   -1.5289 C   0  0  0  0  0  0  0  0  0  0  0  0
    3.7021   -0.3037   -1.9546 C   0  0  0  0  0  0  0  0  0  0  0  0
    3.7971    0.3063   -3.2124 C   0  0  0  0  0  0  0  0  0  0  0  0
    3.6065    1.7193   -3.3026 C   0  0  0  0  0  0  0  0  0  0  0  0
    3.6737    2.2669   -4.5419 N   0  0  0  0  0  0  0  0  0  0  0  0
    3.9899    0.9047   -5.4345 S   0  0  0  0  0  0  0  0  0  0  0  0
    4.0468   -0.3576   -4.3641 N   0  0  0  0  0  0  0  0  0  0  0  0
    3.2795    2.4388   -2.1420 C   0  0  0  0  0  0  0  0  0  0  0  0
    2.6551    3.6554   -2.0247 C   0  0  0  0  0  0  0  0  0  0  0  0
    1.8871    4.6689   -3.1580 S   0  0  0  0  0  0  0  0  0  0  0  0
    0.7236    5.1751   -2.0237 C   0  0  0  0  0  0  0  0  0  0  0  0
   -0.5347    5.7681   -2.2003 C   0  0  0  0  0  0  0  0  0  0  0  0
   -0.9401    6.4558   -3.4510 C   0  0  0  0  0  0  0  0  0  0  0  0
   -0.0673    7.3897   -4.0319 C   0  0  0  0  0  0  0  0  0  0  0  0
   -0.4365    8.0872   -5.1816 C   0  0  0  0  0  0  0  0  0  0  0  0
   -1.6895    7.8705   -5.7599 C   0  0  0  0  0  0  0  0  0  0  0  0
   -2.5788    6.9442   -5.1946 C   0  0  0  0  0  0  0  0  0  0  0  0
   -3.9380    6.7335   -5.8117 C   0  0  0  0  0  0  0  0  0  0  0  0
   -3.8464    5.8595   -7.0591 C   0  0  0  0  0  0  0  0  0  0  0  0
   -2.1896    6.2194   -4.0560 C   0  0  0  0  0  0  0  0  0  0  0  0
   -1.3566    5.5325   -1.0701 C   0  0  0  0  0  0  0  0  0  0  0  0
   -0.4871    4.6388    0.0840 S   0  0  0  0  0  0  0  0  0  0  0  0
    0.9105    4.5230   -0.8269 C   0  0  0  0  0  0  0  0  0  0  0  0
    2.0067    3.6551   -0.8180 C   0  0  0  0  0  0  0  0  0  0  0  0
    2.2129    2.5007   -0.1252 N   0  0  0  0  0  0  0  0  0  0  0  0
    3.0905    1.7953   -0.9097 C   0  0  0  0  0  0  0  0  0  0  0  0
    3.4373    0.4330   -0.7948 C   0  0  0  0  0  0  0  0  0  0  0  0
    3.5512   -0.3420    0.3260 N   0  0  0  0  0  0  0  0  0  0  0  0
    3.7568   -1.5780   -0.1763 C   0  0  0  0  0  0  0  0  0  0  0  0
    3.9176   -2.8306    0.3840 C   0  0  0  0  0  0  0  0  0  0  0  0
    3.7875   -3.4829    1.9138 S   0  0  0  0  0  0  0  0  0  0  0  0
    3.9279    0.1087    1.6763 C   0  0  0  0  0  0  0  0  0  0  0  0
    5.4078   -0.1431    1.9490 C   0  0  0  0  0  0  0  0  0  0  0  0
    1.2074    1.9050    0.7751 C   0  0  0  0  0  0  0  0  0  0  0  0
    0.1158    1.1938   -0.0271 C   0  0  0  0  0  0  0  0  0  0  0  0
   -2.8292    5.6541   -1.0034 C   0  0  0  0  0  0  0  0  0  0  0  0
   -3.5936    4.4919   -0.7881 C   0  0  0  0  0  0  0  0  0  0  0  0
   -2.9948    3.2812   -0.6492 F   0  0  0  0  0  0  0  0  0  0  0  0
   -4.9868    4.5569   -0.7511 C   0  0  0  0  0  0  0  0  0  0  0  0
   -5.6883    3.4197   -0.5048 F   0  0  0  0  0  0  0  0  0  0  0  0
   -5.6494    5.7747   -0.9664 C   0  0  0  0  0  0  0  0  0  0  0  0
   -4.8938    6.9448   -1.1349 C   0  0  0  0  0  0  0  0  0  0  0  0
   -5.5047    8.1468   -1.2759 N   0  0  0  0  0  0  0  0  0  0  0  0
   -4.8067    9.3056   -1.4316 C   0  0  0  0  0  0  0  0  0  0  0  0
   -5.5940   10.5796   -1.5913 C   0  0  0  0  0  0  0  0  0  0  0  0
   -5.9459   10.8153   -3.0574 C   0  0  0  0  0  0  0  0  0  0  0  0
   -3.3911    9.2445   -1.4931 C   0  0  0  0  0  0  0  0  0  0  0  0
   -2.7802    8.0386   -1.3396 N   0  0  0  0  0  0  0  0  0  0  0  0
   -3.4849    6.8885   -1.1599 C   0  0  0  0  0  0  0  0  0  0  0  0
   -2.5197   10.4566   -1.6850 C   0  0  0  0  0  0  0  0  0  0  0  0
   -2.0785   11.0203   -0.3380 C   0  0  0  0  0  0  0  0  0  0  0  0
   -7.1273    5.8294   -0.9456 C   0  0  0  0  0  0  0  0  0  0  0  0
   -7.9110    5.1248   -1.7866 C   0  0  0  0  0  0  0  0  0  0  0  0
   -7.4405    4.2142   -2.8353 C   0  0  0  0  0  0  0  0  0  0  0  0
   -6.3071    4.2320   -3.3902 O   0  0  0  0  0  0  0  0  0  0  0  0
   -8.5248    3.3280   -3.1879 C   0  0  0  0  0  0  0  0  0  0  0  0
   -8.4819    2.2024   -4.0099 C   0  0  0  0  0  0  0  0  0  0  0  0
   -9.6197    1.3872   -4.0868 C   0  0  0  0  0  0  0  0  0  0  0  0
  -10.7793    1.7047   -3.3440 C   0  0  0  0  0  0  0  0  0  0  0  0
  -11.9603    0.7788   -3.3688 C   0  0  0  0  0  0  0  0  0  0  0  0
  -10.7914    2.8474   -2.5177 C   0  0  0  0  0  0  0  0  0  0  0  0
   -9.6580    3.6750   -2.4725 C   0  0  0  0  0  0  0  0  0  0  0  0
   -9.3829    4.8969   -1.6701 C   0  0  0  0  0  0  0  0  0  0  0  0
  -10.3041    5.7382   -1.1295 C   0  0  0  0  0  0  0  0  0  0  0  0
  -11.7199    5.4851   -1.2022 C   0  0  0  0  0  0  0  0  0  0  0  0
  -12.8614    5.2934   -1.2534 N   0  0  0  0  0  0  0  0  0  0  0  0
   -9.9480    7.0292   -0.5974 C   0  0  0  0  0  0  0  0  0  0  0  0
   -9.6783    8.0746   -0.1778 N   0  0  0  0  0  0  0  0  0  0  0  0
    3.4207  -10.2675    4.7660 H   0  0  0  0  0  0  0  0  0  0  0  0
    8.3154   -9.1329    8.7210 H   0  0  0  0  0  0  0  0  0  0  0  0
    8.6888  -10.9028   10.3398 H   0  0  0  0  0  0  0  0  0  0  0  0
   -0.6211   -4.5837    5.1225 H   0  0  0  0  0  0  0  0  0  0  0  0
    0.0755   -3.8756    3.6426 H   0  0  0  0  0  0  0  0  0  0  0  0
   -1.6873   -6.4136    3.6330 H   0  0  0  0  0  0  0  0  0  0  0  0
   -1.0713   -5.4947    2.2003 H   0  0  0  0  0  0  0  0  0  0  0  0
   -2.2715   -4.7372    3.3235 H   0  0  0  0  0  0  0  0  0  0  0  0
   -0.0520   -8.1085    6.4798 H   0  0  0  0  0  0  0  0  0  0  0  0
   -1.0097   -6.7056    5.9363 H   0  0  0  0  0  0  0  0  0  0  0  0
   -0.3050   -6.3539    8.2652 H   0  0  0  0  0  0  0  0  0  0  0  0
    1.4177   -6.6874    7.8547 H   0  0  0  0  0  0  0  0  0  0  0  0
    0.6137   -5.1857    7.2362 H   0  0  0  0  0  0  0  0  0  0  0  0
    2.6332   -7.3678    0.1484 H   0  0  0  0  0  0  0  0  0  0  0  0
    2.7036   -9.3451   -1.3129 H   0  0  0  0  0  0  0  0  0  0  0  0
    4.2795   -9.4466   -3.2068 H   0  0  0  0  0  0  0  0  0  0  0  0
    7.0105   -6.9746   -3.7720 H   0  0  0  0  0  0  0  0  0  0  0  0
    6.3802   -8.5890   -4.2210 H   0  0  0  0  0  0  0  0  0  0  0  0
    6.0966   -6.9244   -6.0666 H   0  0  0  0  0  0  0  0  0  0  0  0
    4.5029   -7.5359   -5.4861 H   0  0  0  0  0  0  0  0  0  0  0  0
    5.0842   -5.8900   -4.9968 H   0  0  0  0  0  0  0  0  0  0  0  0
    5.8069   -5.5642   -2.1466 H   0  0  0  0  0  0  0  0  0  0  0  0
    0.8951    7.5926   -3.5822 H   0  0  0  0  0  0  0  0  0  0  0  0
    0.2459    8.8074   -5.6215 H   0  0  0  0  0  0  0  0  0  0  0  0
   -1.9644    8.4345   -6.6437 H   0  0  0  0  0  0  0  0  0  0  0  0
   -4.6309    6.2598   -5.0820 H   0  0  0  0  0  0  0  0  0  0  0  0
   -4.3782    7.7167   -6.0921 H   0  0  0  0  0  0  0  0  0  0  0  0
   -3.4353    4.8588   -6.8002 H   0  0  0  0  0  0  0  0  0  0  0  0
   -4.8554    5.7283   -7.5021 H   0  0  0  0  0  0  0  0  0  0  0  0
   -3.1857    6.3415   -7.8147 H   0  0  0  0  0  0  0  0  0  0  0  0
   -2.8584    5.4761   -3.6501 H   0  0  0  0  0  0  0  0  0  0  0  0
    3.3083   -0.4148    2.4320 H   0  0  0  0  0  0  0  0  0  0  0  0
    3.7758    1.2023    1.7753 H   0  0  0  0  0  0  0  0  0  0  0  0
    6.0315    0.2670    1.1230 H   0  0  0  0  0  0  0  0  0  0  0  0
    5.6139   -1.2286    2.0541 H   0  0  0  0  0  0  0  0  0  0  0  0
    5.6964    0.3579    2.9025 H   0  0  0  0  0  0  0  0  0  0  0  0
    1.6399    1.1705    1.4662 H   0  0  0  0  0  0  0  0  0  0  0  0
    0.7659    2.6800    1.4306 H   0  0  0  0  0  0  0  0  0  0  0  0
    0.5348    0.2856   -0.5142 H   0  0  0  0  0  0  0  0  0  0  0  0
   -0.7047    0.8842    0.6513 H   0  0  0  0  0  0  0  0  0  0  0  0
   -0.2972    1.8564   -0.8168 H   0  0  0  0  0  0  0  0  0  0  0  0
   -6.5344   10.5038   -1.0047 H   0  0  0  0  0  0  0  0  0  0  0  0
   -5.0411   11.4545   -1.1860 H   0  0  0  0  0  0  0  0  0  0  0  0
   -6.5826    9.9843   -3.4356 H   0  0  0  0  0  0  0  0  0  0  0  0
   -5.0233   10.8741   -3.6762 H   0  0  0  0  0  0  0  0  0  0  0  0
   -6.5091   11.7716   -3.1578 H   0  0  0  0  0  0  0  0  0  0  0  0
   -1.6186   10.1653   -2.2680 H   0  0  0  0  0  0  0  0  0  0  0  0
   -3.0358   11.2411   -2.2733 H   0  0  0  0  0  0  0  0  0  0  0  0
   -2.9590   11.3606    0.2440 H   0  0  0  0  0  0  0  0  0  0  0  0
   -1.4088   11.8905   -0.5067 H   0  0  0  0  0  0  0  0  0  0  0  0
   -1.5308   10.2499    0.2461 H   0  0  0  0  0  0  0  0  0  0  0  0
   -7.5630    6.4014   -0.1402 H   0  0  0  0  0  0  0  0  0  0  0  0
   -7.5765    1.9393   -4.5412 H   0  0  0  0  0  0  0  0  0  0  0  0
   -9.5905    0.4975   -4.7023 H   0  0  0  0  0  0  0  0  0  0  0  0
  -12.0548    0.2841   -4.3601 H   0  0  0  0  0  0  0  0  0  0  0  0
  -11.8389    0.0002   -2.5834 H   0  0  0  0  0  0  0  0  0  0  0  0
  -12.9004    1.3368   -3.1664 H   0  0  0  0  0  0  0  0  0  0  0  0
  -11.6562    3.0383   -1.9029 H   0  0  0  0  0  0  0  0  0  0  0  0
  1  2  2  3
  2  3  1  0
  3  4  2  0
  3  5  1  0
  5  6  2  0
  6  7  1  0
  7  8  2  0
  8  9  1  0
  9 10  1  0
  9 11  2  0
 11 12  1  0
  6 13  1  0
 13 14  2  3
 14 15  1  0
 15 16  3  0
 14 17  1  0
 17 18  3  0
  1 19  1  0
 19 20  2  0
 20 21  1  0
 20 22  1  0
 22 23  1  0
 22 24  2  0
 24 25  1  0
 25 26  2  0
 26 27  1  0
 27 28  1  0
 28 29  1  0
 27 30  2  0
 30 31  1  0
 31 32  2  0
 30 33  1  0
 33 34  1  0
 24 35  1  0
 35 36  2  0
 36 37  1  0
 37 38  2  0
 38 39  1  0
 39 40  2  0
 40 41  1  0
 41 42  1  0
 42 43  1  0
 41 44  2  0
 36 45  1  0
 45 46  1  0
 46 47  1  0
 47 48  1  0
 48 49  1  0
 49 50  1  0
 50 51  2  0
 51 52  1  0
 52 53  1  0
 50 54  1  0
 54 55  1  0
 55 56  1  0
 56 57  1  0
 57 58  1  0
 58 59  1  0
 59 60  2  0
 60 61  1  0
 61 62  2  0
 62 63  1  0
 63 64  1  0
 64 65  1  0
 63 66  2  0
 58 67  2  0
 67 68  1  0
 68 69  1  0
 69 70  1  0
 70 71  1  0
 71 72  1  0
 72 73  1  0
 73 74  1  0
 74 75  1  0
 75 76  1  0
 76 77  1  0
 74 78  1  0
 78 79  1  0
 71 80  1  0
 80 81  1  0
 67 82  1  0
 82 83  2  0
 83 84  1  0
 83 85  1  0
 85 86  1  0
 85 87  2  0
 87 88  1  0
 88 89  2  0
 89 90  1  0
 90 91  1  0
 91 92  1  0
 90 93  2  0
 93 94  1  0
 94 95  2  0
 93 96  1  0
 96 97  1  0
 87 98  1  0
 98 99  2  3
 99100  1  0
100101  2  0
100102  1  0
102103  2  0
103104  1  0
104105  2  0
105106  1  0
105107  1  0
107108  2  0
108109  1  0
109110  2  3
110111  1  0
111112  3  0
110113  1  0
113114  3  0
 13  2  1  0
 32 19  1  0
 77 35  1  0
 95 82  1  0
109 99  1  0
 11  5  1  0
 32 25  1  0
 44 37  1  0
 76 45  2  0
 95 88  1  0
108102  1  0
 75 47  2  0
 73 48  2  0
 53 49  2  0
 72 54  2  0
 70 55  2  0
 69 57  2  0
 66 59  1  0
  1115  1  0
  7116  1  0
  8117  1  0
 28118  1  0
 28119  1  0
 29120  1  0
 29121  1  0
 29122  1  0
 33123  1  0
 33124  1  0
 34125  1  0
 34126  1  0
 34127  1  0
 38128  1  0
 39129  1  0
 40130  1  0
 42131  1  0
 42132  1  0
 43133  1  0
 43134  1  0
 43135  1  0
 44136  1  0
 60137  1  0
 61138  1  0
 62139  1  0
 64140  1  0
 64141  1  0
 65142  1  0
 65143  1  0
 65144  1  0
 66145  1  0
 78146  1  0
 78147  1  0
 79148  1  0
 79149  1  0
 79150  1  0
 80151  1  0
 80152  1  0
 81153  1  0
 81154  1  0
 81155  1  0
 91156  1  0
 91157  1  0
 92158  1  0
 92159  1  0
 92160  1  0
 96161  1  0
 96162  1  0
 97163  1  0
 97164  1  0
 97165  1  0
 98166  1  0
103167  1  0
104168  1  0
106169  1  0
106170  1  0
106171  1  0
107172  1  0
M  END

