
     RDKit          3D

127141  0  0  0  0  0  0  0  0999 V2000
    2.6083    5.3347    5.3825 C   0  0  0  0  0  0  0  0  0  0  0  0
    3.4391    6.1282    4.6841 C   0  0  0  0  0  0  0  0  0  0  0  0
    4.0677    5.7829    3.4029 C   0  0  0  0  0  0  0  0  0  0  0  0
    4.2034    4.6269    2.9290 O   0  0  0  0  0  0  0  0  0  0  0  0
    4.5518    7.0073    2.7852 C   0  0  0  0  0  0  0  0  0  0  0  0
    4.3167    8.0751    3.6440 C   0  0  0  0  0  0  0  0  0  0  0  0
    4.6517    9.3785    3.2413 C   0  0  0  0  0  0  0  0  0  0  0  0
    5.2389    9.5774    1.9843 C   0  0  0  0  0  0  0  0  0  0  0  0
    5.4831    8.4940    1.1260 C   0  0  0  0  0  0  0  0  0  0  0  0
    6.2714    8.8462   -0.5846 Br  0  0  0  0  0  0  0  0  0  0  0  0
    5.1337    7.1871    1.5209 C   0  0  0  0  0  0  0  0  0  0  0  0
    5.3938    5.8168    0.4403 Cl  0  0  0  0  0  0  0  0  0  0  0  0
    3.7047    7.5826    4.9135 C   0  0  0  0  0  0  0  0  0  0  0  0
    3.5934    8.2564    6.0887 C   0  0  0  0  0  0  0  0  0  0  0  0
    3.9038    9.6548    6.2214 C   0  0  0  0  0  0  0  0  0  0  0  0
    4.1433   10.7764    6.3567 N   0  0  0  0  0  0  0  0  0  0  0  0
    3.2577    7.6027    7.3287 C   0  0  0  0  0  0  0  0  0  0  0  0
    2.9947    7.0874    8.3311 N   0  0  0  0  0  0  0  0  0  0  0  0
    2.3355    3.9642    5.0281 C   0  0  0  0  0  0  0  0  0  0  0  0
    2.0747    2.8156    4.7650 C   0  0  0  0  0  0  0  0  0  0  0  0
    1.7298    1.4436    4.4950 C   0  0  0  0  0  0  0  0  0  0  0  0
    0.9840    0.6031    5.3452 C   0  0  0  0  0  0  0  0  0  0  0  0
    0.3314    1.0158    6.6091 C   0  0  0  0  0  0  0  0  0  0  0  0
   -0.3650    2.2345    6.6943 C   0  0  0  0  0  0  0  0  0  0  0  0
   -1.0345    2.5828    7.8697 C   0  0  0  0  0  0  0  0  0  0  0  0
   -1.0366    1.7140    8.9630 C   0  0  0  0  0  0  0  0  0  0  0  0
   -0.3298    0.5038    8.9029 C   0  0  0  0  0  0  0  0  0  0  0  0
   -0.3784   -0.4636   10.0539 C   0  0  0  0  0  0  0  0  0  0  0  0
   -1.4700   -1.5053    9.8313 C   0  0  0  0  0  0  0  0  0  0  0  0
    0.3541    0.1604    7.7266 C   0  0  0  0  0  0  0  0  0  0  0  0
    0.9096   -0.6887    4.8085 C   0  0  0  0  0  0  0  0  0  0  0  0
    0.0492   -2.0927    5.2504 S   0  0  0  0  0  0  0  0  0  0  0  0
    0.6141   -2.9168    3.8799 C   0  0  0  0  0  0  0  0  0  0  0  0
    0.1766   -3.9715    3.1305 C   0  0  0  0  0  0  0  0  0  0  0  0
   -0.9436   -4.7984    3.3070 C   0  0  0  0  0  0  0  0  0  0  0  0
   -1.4302   -5.5449    2.1897 C   0  0  0  0  0  0  0  0  0  0  0  0
   -2.5599   -6.2695    2.3721 N   0  0  0  0  0  0  0  0  0  0  0  0
   -2.8713   -5.8952    3.9536 S   0  0  0  0  0  0  0  0  0  0  0  0
   -1.6712   -4.8638    4.4480 N   0  0  0  0  0  0  0  0  0  0  0  0
   -0.7289   -5.4785    0.9833 C   0  0  0  0  0  0  0  0  0  0  0  0
   -0.9955   -5.9744   -0.2635 C   0  0  0  0  0  0  0  0  0  0  0  0
   -2.3958   -6.4072   -1.1089 S   0  0  0  0  0  0  0  0  0  0  0  0
   -1.6521   -6.0384   -2.6033 C   0  0  0  0  0  0  0  0  0  0  0  0
   -2.1814   -5.8030   -3.8724 C   0  0  0  0  0  0  0  0  0  0  0  0
   -3.5982   -5.9959   -4.2149 C   0  0  0  0  0  0  0  0  0  0  0  0
   -3.9690   -6.9264   -5.1994 C   0  0  0  0  0  0  0  0  0  0  0  0
   -5.3230   -7.1556   -5.4694 C   0  0  0  0  0  0  0  0  0  0  0  0
   -6.3100   -6.4512   -4.7727 C   0  0  0  0  0  0  0  0  0  0  0  0
   -5.9466   -5.4911   -3.8111 C   0  0  0  0  0  0  0  0  0  0  0  0
   -7.0017   -4.7304   -3.0488 C   0  0  0  0  0  0  0  0  0  0  0  0
   -7.1595   -5.2796   -1.6327 C   0  0  0  0  0  0  0  0  0  0  0  0
   -4.5873   -5.2734   -3.5330 C   0  0  0  0  0  0  0  0  0  0  0  0
   -1.2547   -5.1344   -4.6894 C   0  0  0  0  0  0  0  0  0  0  0  0
    0.1667   -4.8041   -3.8100 S   0  0  0  0  0  0  0  0  0  0  0  0
   -0.3716   -5.5796   -2.4234 C   0  0  0  0  0  0  0  0  0  0  0  0
   -0.0097   -5.5238   -1.0870 C   0  0  0  0  0  0  0  0  0  0  0  0
    0.8980   -4.7473   -0.4516 N   0  0  0  0  0  0  0  0  0  0  0  0
    0.4101   -4.6788    0.8247 C   0  0  0  0  0  0  0  0  0  0  0  0
    0.7979   -3.8170    1.8779 C   0  0  0  0  0  0  0  0  0  0  0  0
    1.4610   -2.6134    1.7993 N   0  0  0  0  0  0  0  0  0  0  0  0
    1.3781   -2.1335    3.0707 C   0  0  0  0  0  0  0  0  0  0  0  0
    1.5405   -0.8551    3.6002 C   0  0  0  0  0  0  0  0  0  0  0  0
    2.2404    0.5896    3.1095 S   0  0  0  0  0  0  0  0  0  0  0  0
    1.4924   -1.7278    0.6229 C   0  0  0  0  0  0  0  0  0  0  0  0
    0.1247   -1.0848    0.3982 C   0  0  0  0  0  0  0  0  0  0  0  0
    2.3144   -4.6798   -0.8267 C   0  0  0  0  0  0  0  0  0  0  0  0
    2.9326   -6.0788   -0.8887 C   0  0  0  0  0  0  0  0  0  0  0  0
   -1.5898   -4.4515   -5.9093 C   0  0  0  0  0  0  0  0  0  0  0  0
   -1.8653   -3.8002   -6.8855 C   0  0  0  0  0  0  0  0  0  0  0  0
   -2.1731   -2.9250   -7.9882 C   0  0  0  0  0  0  0  0  0  0  0  0
   -1.5864   -1.7192   -8.1066 C   0  0  0  0  0  0  0  0  0  0  0  0
   -0.6182   -1.1486   -7.1613 C   0  0  0  0  0  0  0  0  0  0  0  0
    0.0998   -1.7912   -6.3438 O   0  0  0  0  0  0  0  0  0  0  0  0
   -0.5725    0.2785   -7.3625 C   0  0  0  0  0  0  0  0  0  0  0  0
    0.1650    1.2181   -6.6440 C   0  0  0  0  0  0  0  0  0  0  0  0
    0.0320    2.5749   -6.9787 C   0  0  0  0  0  0  0  0  0  0  0  0
    0.7673    3.5510   -6.2903 C   0  0  0  0  0  0  0  0  0  0  0  0
    0.6234    4.9007   -6.6234 C   0  0  0  0  0  0  0  0  0  0  0  0
   -0.2565    5.2887   -7.6381 C   0  0  0  0  0  0  0  0  0  0  0  0
   -0.3825    6.6025   -7.9541 F   0  0  0  0  0  0  0  0  0  0  0  0
   -0.9990    4.3282   -8.3343 C   0  0  0  0  0  0  0  0  0  0  0  0
   -0.8582    2.9662   -8.0212 C   0  0  0  0  0  0  0  0  0  0  0  0
   -1.5877    1.9875   -8.7304 C   0  0  0  0  0  0  0  0  0  0  0  0
   -1.4073    0.6295   -8.4090 C   0  0  0  0  0  0  0  0  0  0  0  0
   -1.9905   -0.6038   -9.0133 C   0  0  0  0  0  0  0  0  0  0  0  0
   -2.5495   -0.7248  -10.2477 C   0  0  0  0  0  0  0  0  0  0  0  0
   -2.7404   -2.0099  -10.8763 C   0  0  0  0  0  0  0  0  0  0  0  0
   -2.8733   -3.0391  -11.3904 N   0  0  0  0  0  0  0  0  0  0  0  0
   -2.7999    0.4134  -11.0932 C   0  0  0  0  0  0  0  0  0  0  0  0
   -3.0051    1.3314  -11.7707 N   0  0  0  0  0  0  0  0  0  0  0  0
    2.0439    5.7221    6.2130 H   0  0  0  0  0  0  0  0  0  0  0  0
    4.4531   10.2442    3.8476 H   0  0  0  0  0  0  0  0  0  0  0  0
    5.4945   10.5839    1.6718 H   0  0  0  0  0  0  0  0  0  0  0  0
   -0.4240    2.8995    5.8432 H   0  0  0  0  0  0  0  0  0  0  0  0
   -1.5786    3.5155    7.9232 H   0  0  0  0  0  0  0  0  0  0  0  0
   -1.5912    1.9826    9.8552 H   0  0  0  0  0  0  0  0  0  0  0  0
   -0.5707    0.0755   11.0047 H   0  0  0  0  0  0  0  0  0  0  0  0
    0.6021   -0.9783   10.1555 H   0  0  0  0  0  0  0  0  0  0  0  0
   -1.5299   -2.1837   10.7097 H   0  0  0  0  0  0  0  0  0  0  0  0
   -1.2372   -2.1144    8.9272 H   0  0  0  0  0  0  0  0  0  0  0  0
   -2.4566   -1.0108    9.6953 H   0  0  0  0  0  0  0  0  0  0  0  0
    0.8924   -0.7760    7.6797 H   0  0  0  0  0  0  0  0  0  0  0  0
   -3.2134   -7.4925   -5.7305 H   0  0  0  0  0  0  0  0  0  0  0  0
   -5.6062   -7.8882   -6.2167 H   0  0  0  0  0  0  0  0  0  0  0  0
   -7.3514   -6.6475   -4.9879 H   0  0  0  0  0  0  0  0  0  0  0  0
   -6.7152   -3.6568   -2.9960 H   0  0  0  0  0  0  0  0  0  0  0  0
   -7.9794   -4.7895   -3.5712 H   0  0  0  0  0  0  0  0  0  0  0  0
   -7.4474   -6.3526   -1.6665 H   0  0  0  0  0  0  0  0  0  0  0  0
   -7.9500   -4.7126   -1.1019 H   0  0  0  0  0  0  0  0  0  0  0  0
   -6.2082   -5.1756   -1.0711 H   0  0  0  0  0  0  0  0  0  0  0  0
   -4.3001   -4.5433   -2.7831 H   0  0  0  0  0  0  0  0  0  0  0  0
    1.7635   -2.2641   -0.2935 H   0  0  0  0  0  0  0  0  0  0  0  0
    2.2622   -0.9435    0.7539 H   0  0  0  0  0  0  0  0  0  0  0  0
   -0.6309   -1.8700    0.1653 H   0  0  0  0  0  0  0  0  0  0  0  0
    0.1751   -0.3948   -0.4685 H   0  0  0  0  0  0  0  0  0  0  0  0
   -0.2033   -0.5177    1.2970 H   0  0  0  0  0  0  0  0  0  0  0  0
    2.4178   -4.1832   -1.8138 H   0  0  0  0  0  0  0  0  0  0  0  0
    2.8964   -4.1088   -0.0723 H   0  0  0  0  0  0  0  0  0  0  0  0
    2.4241   -6.6976   -1.6551 H   0  0  0  0  0  0  0  0  0  0  0  0
    4.0077   -6.0020   -1.1529 H   0  0  0  0  0  0  0  0  0  0  0  0
    2.8337   -6.5816    0.0996 H   0  0  0  0  0  0  0  0  0  0  0  0
   -2.9907   -3.2139   -8.6304 H   0  0  0  0  0  0  0  0  0  0  0  0
    0.8264    0.8956   -5.8461 H   0  0  0  0  0  0  0  0  0  0  0  0
    1.4461    3.2738   -5.4954 H   0  0  0  0  0  0  0  0  0  0  0  0
    1.1938    5.6458   -6.0858 H   0  0  0  0  0  0  0  0  0  0  0  0
   -1.6747    4.6469   -9.1209 H   0  0  0  0  0  0  0  0  0  0  0  0
   -2.2804    2.3021   -9.4902 H   0  0  0  0  0  0  0  0  0  0  0  0
  1  2  2  3
  2  3  1  0
  3  4  2  0
  3  5  1  0
  5  6  2  0
  6  7  1  0
  7  8  2  0
  8  9  1  0
  9 10  1  0
  9 11  2  0
 11 12  1  0
  6 13  1  0
 13 14  2  3
 14 15  1  0
 15 16  3  0
 14 17  1  0
 17 18  3  0
  1 19  1  0
 19 20  3  0
 20 21  1  0
 21 22  2  0
 22 23  1  0
 23 24  2  0
 24 25  1  0
 25 26  2  0
 26 27  1  0
 27 28  1  0
 28 29  1  0
 27 30  2  0
 22 31  1  0
 31 32  1  0
 32 33  1  0
 33 34  1  0
 34 35  1  0
 35 36  1  0
 36 37  2  0
 37 38  1  0
 38 39  1  0
 36 40  1  0
 40 41  1  0
 41 42  1  0
 42 43  1  0
 43 44  1  0
 44 45  1  0
 45 46  2  0
 46 47  1  0
 47 48  2  0
 48 49  1  0
 49 50  1  0
 50 51  1  0
 49 52  2  0
 44 53  2  0
 53 54  1  0
 54 55  1  0
 55 56  1  0
 56 57  1  0
 57 58  1  0
 58 59  1  0
 59 60  1  0
 60 61  1  0
 61 62  1  0
 62 63  1  0
 60 64  1  0
 64 65  1  0
 57 66  1  0
 66 67  1  0
 53 68  1  0
 68 69  3  0
 69 70  1  0
 70 71  2  3
 71 72  1  0
 72 73  2  0
 72 74  1  0
 74 75  2  0
 75 76  1  0
 76 77  2  0
 77 78  1  0
 78 79  2  0
 79 80  1  0
 79 81  1  0
 81 82  2  0
 82 83  1  0
 83 84  2  0
 84 85  1  0
 85 86  2  3
 86 87  1  0
 87 88  3  0
 86 89  1  0
 89 90  3  0
 13  2  1  0
 63 21  1  0
 85 71  1  0
 11  5  1  0
 30 23  1  0
 62 31  2  0
 84 74  1  0
 61 33  2  0
 82 76  1  0
 59 34  2  0
 39 35  2  0
 58 40  2  0
 56 41  2  0
 55 43  2  0
 52 45  1  0
  1 91  1  0
  7 92  1  0
  8 93  1  0
 24 94  1  0
 25 95  1  0
 26 96  1  0
 28 97  1  0
 28 98  1  0
 29 99  1  0
 29100  1  0
 29101  1  0
 30102  1  0
 46103  1  0
 47104  1  0
 48105  1  0
 50106  1  0
 50107  1  0
 51108  1  0
 51109  1  0
 51110  1  0
 52111  1  0
 64112  1  0
 64113  1  0
 65114  1  0
 65115  1  0
 65116  1  0
 66117  1  0
 66118  1  0
 67119  1  0
 67120  1  0
 67121  1  0
 70122  1  0
 75123  1  0
 77124  1  0
 78125  1  0
 81126  1  0
 83127  1  0
M  END

