
     RDKit          3D

164182  0  0  0  0  0  0  0  0999 V2000
    4.2349    3.0417    5.4287 C   0  0  0  0  0  0  0  0  0  0  0  0
    4.0394    1.8200    4.8894 C   0  0  0  0  0  0  0  0  0  0  0  0
    2.7428    1.2807    4.4478 C   0  0  0  0  0  0  0  0  0  0  0  0
    1.6079    1.6907    4.8043 O   0  0  0  0  0  0  0  0  0  0  0  0
    2.9866    0.1945    3.5175 C   0  0  0  0  0  0  0  0  0  0  0  0
    4.3539   -0.0096    3.4170 C   0  0  0  0  0  0  0  0  0  0  0  0
    4.8575   -0.8949    2.4532 C   0  0  0  0  0  0  0  0  0  0  0  0
    3.9592   -1.6090    1.6474 C   0  0  0  0  0  0  0  0  0  0  0  0
    2.5695   -1.4362    1.7899 C   0  0  0  0  0  0  0  0  0  0  0  0
    1.3974   -2.4347    0.6464 Br  0  0  0  0  0  0  0  0  0  0  0  0
    2.0671   -0.5189    2.7333 C   0  0  0  0  0  0  0  0  0  0  0  0
    0.3321   -0.2698    2.9190 Cl  0  0  0  0  0  0  0  0  0  0  0  0
    5.0759    0.8880    4.3643 C   0  0  0  0  0  0  0  0  0  0  0  0
    6.3303    0.7167    4.8484 C   0  0  0  0  0  0  0  0  0  0  0  0
    6.8370    1.4912    5.9525 C   0  0  0  0  0  0  0  0  0  0  0  0
    7.2492    2.1036    6.8441 N   0  0  0  0  0  0  0  0  0  0  0  0
    7.1866   -0.3527    4.4083 C   0  0  0  0  0  0  0  0  0  0  0  0
    7.8824   -1.2120    4.0672 N   0  0  0  0  0  0  0  0  0  0  0  0
    3.1064    3.9562    5.6514 C   0  0  0  0  0  0  0  0  0  0  0  0
    2.4779    4.5993    4.5810 C   0  0  0  0  0  0  0  0  0  0  0  0
    2.9060    4.7317    3.1901 C   0  0  0  0  0  0  0  0  0  0  0  0
    3.9809    4.2898    2.7036 O   0  0  0  0  0  0  0  0  0  0  0  0
    1.9167    5.4194    2.4317 N   0  0  0  0  0  0  0  0  0  0  0  0
    1.7564    5.3431    0.9810 C   0  0  0  0  0  0  0  0  0  0  0  0
    1.0949    4.0245    0.5884 C   0  0  0  0  0  0  0  0  0  0  0  0
    0.8683    5.6770    3.3653 C   0  0  0  0  0  0  0  0  0  0  0  0
   -0.1214    6.4121    3.1050 O   0  0  0  0  0  0  0  0  0  0  0  0
    1.1914    5.1170    4.6885 C   0  0  0  0  0  0  0  0  0  0  0  0
    0.3898    4.8547    5.8329 C   0  0  0  0  0  0  0  0  0  0  0  0
    1.1420    4.5596    7.0003 C   0  0  0  0  0  0  0  0  0  0  0  0
    2.4859    4.0614    6.9004 C   0  0  0  0  0  0  0  0  0  0  0  0
    3.1027    3.7161    8.0594 N   0  0  0  0  0  0  0  0  0  0  0  0
    1.9380    4.1439    9.1484 S   0  0  0  0  0  0  0  0  0  0  0  0
    0.6698    4.7185    8.2590 N   0  0  0  0  0  0  0  0  0  0  0  0
   -1.0304    4.3503    5.6496 C   0  0  0  0  0  0  0  0  0  0  0  0
   -1.7394    3.4141    6.4695 C   0  0  0  0  0  0  0  0  0  0  0  0
   -1.5933    3.1989    7.9147 C   0  0  0  0  0  0  0  0  0  0  0  0
   -2.1203    4.1469    8.8039 C   0  0  0  0  0  0  0  0  0  0  0  0
   -2.0680    3.9236   10.1816 C   0  0  0  0  0  0  0  0  0  0  0  0
   -1.5214    2.7384   10.6797 C   0  0  0  0  0  0  0  0  0  0  0  0
   -1.0099    1.7704    9.7993 C   0  0  0  0  0  0  0  0  0  0  0  0
   -0.5113    0.4550   10.3306 C   0  0  0  0  0  0  0  0  0  0  0  0
   -1.6486   -0.5588   10.4033 C   0  0  0  0  0  0  0  0  0  0  0  0
   -1.0524    2.0031    8.4140 C   0  0  0  0  0  0  0  0  0  0  0  0
   -2.6979    2.6835    5.7539 C   0  0  0  0  0  0  0  0  0  0  0  0
   -3.3138    1.1127    6.0210 S   0  0  0  0  0  0  0  0  0  0  0  0
   -3.7783    0.9717    4.3971 C   0  0  0  0  0  0  0  0  0  0  0  0
   -3.9124   -0.0566    3.5085 C   0  0  0  0  0  0  0  0  0  0  0  0
   -4.1119   -1.4188    3.7369 C   0  0  0  0  0  0  0  0  0  0  0  0
   -4.1094   -2.3047    2.6283 C   0  0  0  0  0  0  0  0  0  0  0  0
   -4.2884   -3.6233    2.8921 N   0  0  0  0  0  0  0  0  0  0  0  0
   -4.4536   -3.5583    4.5380 S   0  0  0  0  0  0  0  0  0  0  0  0
   -4.3047   -1.9653    4.9629 N   0  0  0  0  0  0  0  0  0  0  0  0
   -3.8692   -1.7864    1.3550 C   0  0  0  0  0  0  0  0  0  0  0  0
   -3.5910   -2.4475    0.1951 C   0  0  0  0  0  0  0  0  0  0  0  0
   -3.2694   -4.0450   -0.2861 S   0  0  0  0  0  0  0  0  0  0  0  0
   -2.5618   -3.5013   -1.7415 C   0  0  0  0  0  0  0  0  0  0  0  0
   -1.8758   -4.1425   -2.7832 C   0  0  0  0  0  0  0  0  0  0  0  0
   -1.6652   -5.6053   -2.8630 C   0  0  0  0  0  0  0  0  0  0  0  0
   -0.3966   -6.1266   -3.1717 C   0  0  0  0  0  0  0  0  0  0  0  0
   -0.1953   -7.5079   -3.2206 C   0  0  0  0  0  0  0  0  0  0  0  0
   -1.2521   -8.3814   -2.9602 C   0  0  0  0  0  0  0  0  0  0  0  0
   -2.5271   -7.8790   -2.6601 C   0  0  0  0  0  0  0  0  0  0  0  0
   -3.6550   -8.8214   -2.3364 C   0  0  0  0  0  0  0  0  0  0  0  0
   -3.6495   -9.1793   -0.8538 C   0  0  0  0  0  0  0  0  0  0  0  0
   -2.7265   -6.4896   -2.6061 C   0  0  0  0  0  0  0  0  0  0  0  0
   -1.3234   -3.1896   -3.6670 C   0  0  0  0  0  0  0  0  0  0  0  0
   -1.6761   -1.6163   -3.1246 S   0  0  0  0  0  0  0  0  0  0  0  0
   -2.5437   -2.1288   -1.7918 C   0  0  0  0  0  0  0  0  0  0  0  0
   -3.1358   -1.5312   -0.6846 C   0  0  0  0  0  0  0  0  0  0  0  0
   -3.1095   -0.2730   -0.1740 N   0  0  0  0  0  0  0  0  0  0  0  0
   -3.5971   -0.4198    1.1114 C   0  0  0  0  0  0  0  0  0  0  0  0
   -3.6712    0.4872    2.2270 C   0  0  0  0  0  0  0  0  0  0  0  0
   -3.4345    1.8415    2.3438 N   0  0  0  0  0  0  0  0  0  0  0  0
   -3.4692    2.0703    3.6763 C   0  0  0  0  0  0  0  0  0  0  0  0
   -2.8499    3.0417    4.4457 C   0  0  0  0  0  0  0  0  0  0  0  0
   -1.7263    4.2058    4.0910 S   0  0  0  0  0  0  0  0  0  0  0  0
   -3.5692    2.9429    1.3807 C   0  0  0  0  0  0  0  0  0  0  0  0
   -4.9062    2.8740    0.6391 C   0  0  0  0  0  0  0  0  0  0  0  0
   -2.4052    0.8383   -0.8167 C   0  0  0  0  0  0  0  0  0  0  0  0
   -1.0305    1.0546   -0.1907 C   0  0  0  0  0  0  0  0  0  0  0  0
   -0.6038   -3.4421   -4.9318 C   0  0  0  0  0  0  0  0  0  0  0  0
   -1.2111   -4.1883   -5.9557 C   0  0  0  0  0  0  0  0  0  0  0  0
   -2.4132   -4.7850   -5.7501 F   0  0  0  0  0  0  0  0  0  0  0  0
   -0.6247   -4.2549   -7.2253 C   0  0  0  0  0  0  0  0  0  0  0  0
   -1.2589   -4.9335   -8.2149 F   0  0  0  0  0  0  0  0  0  0  0  0
    0.5703   -3.5688   -7.4928 C   0  0  0  0  0  0  0  0  0  0  0  0
    1.2312   -2.9001   -6.4451 C   0  0  0  0  0  0  0  0  0  0  0  0
    2.4303   -2.2920   -6.6502 N   0  0  0  0  0  0  0  0  0  0  0  0
    3.0800   -1.6157   -5.6646 C   0  0  0  0  0  0  0  0  0  0  0  0
    4.3858   -0.9499   -6.0095 C   0  0  0  0  0  0  0  0  0  0  0  0
    4.1455    0.4509   -6.5631 C   0  0  0  0  0  0  0  0  0  0  0  0
    2.4698   -1.5181   -4.3909 C   0  0  0  0  0  0  0  0  0  0  0  0
    1.2769   -2.1393   -4.1882 N   0  0  0  0  0  0  0  0  0  0  0  0
    0.6378   -2.8259   -5.1723 C   0  0  0  0  0  0  0  0  0  0  0  0
    3.0957   -0.7993   -3.2247 C   0  0  0  0  0  0  0  0  0  0  0  0
    3.9720   -1.7455   -2.4113 C   0  0  0  0  0  0  0  0  0  0  0  0
    1.0993   -3.5443   -8.8723 C   0  0  0  0  0  0  0  0  0  0  0  0
    1.2446   -2.4102   -9.5888 C   0  0  0  0  0  0  0  0  0  0  0  0
    0.7048   -1.0895   -9.2259 C   0  0  0  0  0  0  0  0  0  0  0  0
    0.2162   -0.7652   -8.1113 O   0  0  0  0  0  0  0  0  0  0  0  0
    0.7389   -0.2355  -10.4015 C   0  0  0  0  0  0  0  0  0  0  0  0
    1.2849   -0.9450  -11.4590 C   0  0  0  0  0  0  0  0  0  0  0  0
    1.2988   -0.3795  -12.7449 C   0  0  0  0  0  0  0  0  0  0  0  0
    0.8143    0.9239  -12.9233 C   0  0  0  0  0  0  0  0  0  0  0  0
    0.3074    1.6569  -11.8380 C   0  0  0  0  0  0  0  0  0  0  0  0
   -0.3223    3.4382  -12.1564 Br  0  0  0  0  0  0  0  0  0  0  0  0
    0.2508    1.0712  -10.5562 C   0  0  0  0  0  0  0  0  0  0  0  0
   -0.4148    1.9583   -9.1885 Cl  0  0  0  0  0  0  0  0  0  0  0  0
    1.7301   -2.2910  -10.9971 C   0  0  0  0  0  0  0  0  0  0  0  0
    2.6117   -3.1139  -11.6234 C   0  0  0  0  0  0  0  0  0  0  0  0
    3.1704   -4.2764  -10.9808 C   0  0  0  0  0  0  0  0  0  0  0  0
    3.6263   -5.2105  -10.4707 N   0  0  0  0  0  0  0  0  0  0  0  0
    3.1798   -2.8062  -12.9097 C   0  0  0  0  0  0  0  0  0  0  0  0
    3.6526   -2.5696  -13.9393 N   0  0  0  0  0  0  0  0  0  0  0  0
    5.2262    3.4310    5.5972 H   0  0  0  0  0  0  0  0  0  0  0  0
    5.9158   -1.0100    2.2805 H   0  0  0  0  0  0  0  0  0  0  0  0
    4.3446   -2.2905    0.9008 H   0  0  0  0  0  0  0  0  0  0  0  0
    2.7502    5.4216    0.4898 H   0  0  0  0  0  0  0  0  0  0  0  0
    1.1273    6.1877    0.6285 H   0  0  0  0  0  0  0  0  0  0  0  0
    1.0130    3.9647   -0.5177 H   0  0  0  0  0  0  0  0  0  0  0  0
    0.0771    3.9602    1.0296 H   0  0  0  0  0  0  0  0  0  0  0  0
    1.7023    3.1645    0.9493 H   0  0  0  0  0  0  0  0  0  0  0  0
   -2.5674    5.0594    8.4282 H   0  0  0  0  0  0  0  0  0  0  0  0
   -2.4685    4.6625   10.8627 H   0  0  0  0  0  0  0  0  0  0  0  0
   -1.5134    2.5682   11.7487 H   0  0  0  0  0  0  0  0  0  0  0  0
   -0.0763    0.5904   11.3446 H   0  0  0  0  0  0  0  0  0  0  0  0
    0.2944    0.0571    9.6746 H   0  0  0  0  0  0  0  0  0  0  0  0
   -2.0543   -0.7568    9.3884 H   0  0  0  0  0  0  0  0  0  0  0  0
   -1.2711   -1.5128   10.8285 H   0  0  0  0  0  0  0  0  0  0  0  0
   -2.4653   -0.1782   11.0539 H   0  0  0  0  0  0  0  0  0  0  0  0
   -0.6829    1.2514    7.7266 H   0  0  0  0  0  0  0  0  0  0  0  0
    0.4438   -5.4668   -3.3493 H   0  0  0  0  0  0  0  0  0  0  0  0
    0.7872   -7.9009   -3.4481 H   0  0  0  0  0  0  0  0  0  0  0  0
   -1.0770   -9.4489   -2.9872 H   0  0  0  0  0  0  0  0  0  0  0  0
   -4.6317   -8.3567   -2.5979 H   0  0  0  0  0  0  0  0  0  0  0  0
   -3.5598   -9.7506   -2.9400 H   0  0  0  0  0  0  0  0  0  0  0  0
   -2.6914   -9.6709   -0.5797 H   0  0  0  0  0  0  0  0  0  0  0  0
   -4.4827   -9.8804   -0.6370 H   0  0  0  0  0  0  0  0  0  0  0  0
   -3.7841   -8.2650   -0.2375 H   0  0  0  0  0  0  0  0  0  0  0  0
   -3.7096   -6.0992   -2.3712 H   0  0  0  0  0  0  0  0  0  0  0  0
   -3.5733    3.9165    1.9178 H   0  0  0  0  0  0  0  0  0  0  0  0
   -2.6859    3.0248    0.7316 H   0  0  0  0  0  0  0  0  0  0  0  0
   -5.7394    3.0629    1.3507 H   0  0  0  0  0  0  0  0  0  0  0  0
   -5.0694    1.8781    0.1777 H   0  0  0  0  0  0  0  0  0  0  0  0
   -4.9297    3.6478   -0.1574 H   0  0  0  0  0  0  0  0  0  0  0  0
   -3.0306    1.7361   -0.8516 H   0  0  0  0  0  0  0  0  0  0  0  0
   -2.2608    0.6362   -1.8911 H   0  0  0  0  0  0  0  0  0  0  0  0
   -0.5221    1.8998   -0.6995 H   0  0  0  0  0  0  0  0  0  0  0  0
   -1.1175    1.2864    0.8900 H   0  0  0  0  0  0  0  0  0  0  0  0
   -0.4133    0.1399   -0.3093 H   0  0  0  0  0  0  0  0  0  0  0  0
    5.0625   -0.9013   -5.1324 H   0  0  0  0  0  0  0  0  0  0  0  0
    4.9103   -1.5524   -6.7831 H   0  0  0  0  0  0  0  0  0  0  0  0
    3.6248    1.0839   -5.8131 H   0  0  0  0  0  0  0  0  0  0  0  0
    5.1200    0.9239   -6.8102 H   0  0  0  0  0  0  0  0  0  0  0  0
    3.5272    0.4000   -7.4852 H   0  0  0  0  0  0  0  0  0  0  0  0
    2.2908   -0.4069   -2.5669 H   0  0  0  0  0  0  0  0  0  0  0  0
    3.6886    0.0765   -3.5572 H   0  0  0  0  0  0  0  0  0  0  0  0
    4.4008   -1.1980   -1.5453 H   0  0  0  0  0  0  0  0  0  0  0  0
    4.8060   -2.1381   -3.0301 H   0  0  0  0  0  0  0  0  0  0  0  0
    3.3709   -2.5982   -2.0303 H   0  0  0  0  0  0  0  0  0  0  0  0
    1.2642   -4.5016   -9.3384 H   0  0  0  0  0  0  0  0  0  0  0  0
    1.6340   -0.9254  -13.6099 H   0  0  0  0  0  0  0  0  0  0  0  0
    0.8299    1.3635  -13.9116 H   0  0  0  0  0  0  0  0  0  0  0  0
  1  2  2  3
  2  3  1  0
  3  4  2  0
  3  5  1  0
  5  6  2  0
  6  7  1  0
  7  8  2  0
  8  9  1  0
  9 10  1  0
  9 11  2  0
 11 12  1  0
  6 13  1  0
 13 14  2  3
 14 15  1  0
 15 16  3  0
 14 17  1  0
 17 18  3  0
  1 19  1  0
 19 20  2  0
 20 21  1  0
 21 22  2  0
 21 23  1  0
 23 24  1  0
 24 25  1  0
 23 26  1  0
 26 27  2  0
 26 28  1  0
 28 29  2  0
 29 30  1  0
 30 31  1  0
 31 32  2  0
 32 33  1  0
 33 34  1  0
 29 35  1  0
 35 36  2  0
 36 37  1  0
 37 38  2  0
 38 39  1  0
 39 40  2  0
 40 41  1  0
 41 42  1  0
 42 43  1  0
 41 44  2  0
 36 45  1  0
 45 46  1  0
 46 47  1  0
 47 48  1  0
 48 49  1  0
 49 50  1  0
 50 51  2  0
 51 52  1  0
 52 53  1  0
 50 54  1  0
 54 55  1  0
 55 56  1  0
 56 57  1  0
 57 58  1  0
 58 59  1  0
 59 60  2  0
 60 61  1  0
 61 62  2  0
 62 63  1  0
 63 64  1  0
 64 65  1  0
 63 66  2  0
 58 67  2  0
 67 68  1  0
 68 69  1  0
 69 70  1  0
 70 71  1  0
 71 72  1  0
 72 73  1  0
 73 74  1  0
 74 75  1  0
 75 76  1  0
 76 77  1  0
 74 78  1  0
 78 79  1  0
 71 80  1  0
 80 81  1  0
 67 82  1  0
 82 83  2  0
 83 84  1  0
 83 85  1  0
 85 86  1  0
 85 87  2  0
 87 88  1  0
 88 89  2  0
 89 90  1  0
 90 91  1  0
 91 92  1  0
 90 93  2  0
 93 94  1  0
 94 95  2  0
 93 96  1  0
 96 97  1  0
 87 98  1  0
 98 99  2  3
 99100  1  0
100101  2  0
100102  1  0
102103  2  0
103104  1  0
104105  2  0
105106  1  0
106107  1  0
106108  2  0
108109  1  0
103110  1  0
110111  2  3
111112  1  0
112113  3  0
111114  1  0
114115  3  0
 13  2  1  0
 31 19  1  0
 77 35  1  0
 95 82  1  0
110 99  1  0
 11  5  1  0
 28 20  1  0
 34 30  2  0
 44 37  1  0
 76 45  2  0
 95 88  1  0
108102  1  0
 75 47  2  0
 73 48  2  0
 53 49  2  0
 72 54  2  0
 70 55  2  0
 69 57  2  0
 66 59  1  0
  1116  1  0
  7117  1  0
  8118  1  0
 24119  1  0
 24120  1  0
 25121  1  0
 25122  1  0
 25123  1  0
 38124  1  0
 39125  1  0
 40126  1  0
 42127  1  0
 42128  1  0
 43129  1  0
 43130  1  0
 43131  1  0
 44132  1  0
 60133  1  0
 61134  1  0
 62135  1  0
 64136  1  0
 64137  1  0
 65138  1  0
 65139  1  0
 65140  1  0
 66141  1  0
 78142  1  0
 78143  1  0
 79144  1  0
 79145  1  0
 79146  1  0
 80147  1  0
 80148  1  0
 81149  1  0
 81150  1  0
 81151  1  0
 91152  1  0
 91153  1  0
 92154  1  0
 92155  1  0
 92156  1  0
 96157  1  0
 96158  1  0
 97159  1  0
 97160  1  0
 97161  1  0
 98162  1  0
104163  1  0
105164  1  0
M  END

