
     RDKit          3D

171190  0  0  0  0  0  0  0  0999 V2000
    0.9858   -9.5260    3.0498 C   0  0  0  0  0  0  0  0  0  0  0  0
    0.0712   -9.2679    4.0070 C   0  0  0  0  0  0  0  0  0  0  0  0
   -0.4729   -7.9408    4.3319 C   0  0  0  0  0  0  0  0  0  0  0  0
   -0.2978   -6.8830    3.6698 O   0  0  0  0  0  0  0  0  0  0  0  0
   -1.1197   -8.0122    5.6315 C   0  0  0  0  0  0  0  0  0  0  0  0
   -1.0298   -9.3097    6.1103 C   0  0  0  0  0  0  0  0  0  0  0  0
   -1.4449   -9.6012    7.4188 C   0  0  0  0  0  0  0  0  0  0  0  0
   -2.0065   -8.5826    8.1996 C   0  0  0  0  0  0  0  0  0  0  0  0
   -2.1294   -7.2744    7.6978 C   0  0  0  0  0  0  0  0  0  0  0  0
   -2.8977   -5.9272    8.8254 Br  0  0  0  0  0  0  0  0  0  0  0  0
   -1.6665   -6.9720    6.4023 C   0  0  0  0  0  0  0  0  0  0  0  0
   -1.7557   -5.3263    5.7746 Cl  0  0  0  0  0  0  0  0  0  0  0  0
   -0.3754  -10.1858    5.0979 C   0  0  0  0  0  0  0  0  0  0  0  0
   -0.4274  -11.5439    5.0482 C   0  0  0  0  0  0  0  0  0  0  0  0
    0.0632  -12.2952    3.9203 C   0  0  0  0  0  0  0  0  0  0  0  0
    0.4534  -12.9090    3.0207 N   0  0  0  0  0  0  0  0  0  0  0  0
   -1.1199  -12.3286    6.0377 C   0  0  0  0  0  0  0  0  0  0  0  0
   -1.6861  -12.9650    6.8170 N   0  0  0  0  0  0  0  0  0  0  0  0
    1.2932   -8.5967    1.9512 C   0  0  0  0  0  0  0  0  0  0  0  0
    2.8650   -8.1198    1.5034 S   0  0  0  0  0  0  0  0  0  0  0  0
    2.3272   -7.1474    0.2467 C   0  0  0  0  0  0  0  0  0  0  0  0
    2.9591   -6.1975   -0.6571 C   0  0  0  0  0  0  0  0  0  0  0  0
    2.0844   -5.5168   -1.4635 C   0  0  0  0  0  0  0  0  0  0  0  0
    0.2540   -5.9801   -1.1491 Ge  0  0  0  0  0  4  0  0  0  0  0  0
   -0.7594   -4.5169   -0.3506 C   0  0  0  0  0  0  0  0  0  0  0  0
   -0.0036   -3.9228    0.8300 C   0  0  0  0  0  0  0  0  0  0  0  0
   -0.5709   -6.8212   -2.6975 C   0  0  0  0  0  0  0  0  0  0  0  0
   -0.7382   -5.8047   -3.8188 C   0  0  0  0  0  0  0  0  0  0  0  0
    0.9612   -7.1961    0.1549 C   0  0  0  0  0  0  0  0  0  0  0  0
    0.3487   -8.0094    1.1002 C   0  0  0  0  0  0  0  0  0  0  0  0
    2.6575   -4.4921   -2.1991 C   0  0  0  0  0  0  0  0  0  0  0  0
    4.0242   -4.3852   -1.9370 C   0  0  0  0  0  0  0  0  0  0  0  0
    4.4981   -5.5353   -0.7736 S   0  0  0  0  0  0  0  0  0  0  0  0
    4.8609   -3.3056   -2.4607 C   0  0  0  0  0  0  0  0  0  0  0  0
    5.1628   -3.1273   -3.8228 C   0  0  0  0  0  0  0  0  0  0  0  0
    4.9601   -4.1717   -4.8519 C   0  0  0  0  0  0  0  0  0  0  0  0
    4.2267   -3.9065   -6.0213 C   0  0  0  0  0  0  0  0  0  0  0  0
    3.9909   -4.9235   -6.9483 C   0  0  0  0  0  0  0  0  0  0  0  0
    4.4682   -6.2167   -6.7150 C   0  0  0  0  0  0  0  0  0  0  0  0
    5.2082   -6.4956   -5.5549 C   0  0  0  0  0  0  0  0  0  0  0  0
    5.6752   -7.8976   -5.2688 C   0  0  0  0  0  0  0  0  0  0  0  0
    4.6786   -8.6239   -4.3709 C   0  0  0  0  0  0  0  0  0  0  0  0
    5.4497   -5.4700   -4.6274 C   0  0  0  0  0  0  0  0  0  0  0  0
    5.5560   -1.8085   -4.0766 C   0  0  0  0  0  0  0  0  0  0  0  0
    5.7438   -0.9190   -5.5117 S   0  0  0  0  0  0  0  0  0  0  0  0
    5.8493    0.5481   -4.6615 C   0  0  0  0  0  0  0  0  0  0  0  0
    5.4378    1.8202   -4.9559 C   0  0  0  0  0  0  0  0  0  0  0  0
    4.9304    2.3304   -6.1625 C   0  0  0  0  0  0  0  0  0  0  0  0
    4.1520    3.5265   -6.1374 C   0  0  0  0  0  0  0  0  0  0  0  0
    3.6242    3.9469   -7.3146 N   0  0  0  0  0  0  0  0  0  0  0  0
    4.1842    2.7490   -8.3119 S   0  0  0  0  0  0  0  0  0  0  0  0
    5.0584    1.7113   -7.3629 N   0  0  0  0  0  0  0  0  0  0  0  0
    3.9830    4.1884   -4.9193 C   0  0  0  0  0  0  0  0  0  0  0  0
    3.2411    5.2912   -4.5686 C   0  0  0  0  0  0  0  0  0  0  0  0
    1.7509    5.9043   -5.1007 S   0  0  0  0  0  0  0  0  0  0  0  0
    1.3393    6.4374   -3.5314 C   0  0  0  0  0  0  0  0  0  0  0  0
    0.0926    6.7016   -2.9472 C   0  0  0  0  0  0  0  0  0  0  0  0
   -1.1462    6.8830   -3.7229 C   0  0  0  0  0  0  0  0  0  0  0  0
   -1.7909    8.1286   -3.7297 C   0  0  0  0  0  0  0  0  0  0  0  0
   -2.9512    8.3141   -4.4857 C   0  0  0  0  0  0  0  0  0  0  0  0
   -3.4621    7.2666   -5.2571 C   0  0  0  0  0  0  0  0  0  0  0  0
   -2.8134    6.0201   -5.2745 C   0  0  0  0  0  0  0  0  0  0  0  0
   -3.3668    4.8923   -6.1047 C   0  0  0  0  0  0  0  0  0  0  0  0
   -4.5380    4.2160   -5.3942 C   0  0  0  0  0  0  0  0  0  0  0  0
   -1.6625    5.8291   -4.4926 C   0  0  0  0  0  0  0  0  0  0  0  0
    0.1426    6.5182   -1.5482 C   0  0  0  0  0  0  0  0  0  0  0  0
    1.7125    6.0422   -1.0967 S   0  0  0  0  0  0  0  0  0  0  0  0
    2.3339    6.1101   -2.6410 C   0  0  0  0  0  0  0  0  0  0  0  0
    3.3980    5.4511   -3.2240 C   0  0  0  0  0  0  0  0  0  0  0  0
    4.2181    4.5215   -2.6829 N   0  0  0  0  0  0  0  0  0  0  0  0
    4.5262    3.6973   -3.7246 C   0  0  0  0  0  0  0  0  0  0  0  0
    5.1554    2.4240   -3.7202 C   0  0  0  0  0  0  0  0  0  0  0  0
    5.2404    1.5029   -2.7001 N   0  0  0  0  0  0  0  0  0  0  0  0
    5.6965    0.3771   -3.3142 C   0  0  0  0  0  0  0  0  0  0  0  0
    5.5390   -0.9737   -2.9865 C   0  0  0  0  0  0  0  0  0  0  0  0
    5.0214   -1.8304   -1.6410 S   0  0  0  0  0  0  0  0  0  0  0  0
    4.4299    1.4753   -1.4718 C   0  0  0  0  0  0  0  0  0  0  0  0
    5.2999    1.3208   -0.2228 C   0  0  0  0  0  0  0  0  0  0  0  0
    4.9428    4.6696   -1.4136 C   0  0  0  0  0  0  0  0  0  0  0  0
    5.5766    6.0573   -1.2892 C   0  0  0  0  0  0  0  0  0  0  0  0
   -1.0037    6.2776   -0.6581 C   0  0  0  0  0  0  0  0  0  0  0  0
   -1.0434    4.9904    0.4542 S   0  0  0  0  0  0  0  0  0  0  0  0
   -2.5268    5.4219    1.0762 C   0  0  0  0  0  0  0  0  0  0  0  0
   -3.2627    4.9952    2.2468 C   0  0  0  0  0  0  0  0  0  0  0  0
   -4.3180    5.7905    2.5886 C   0  0  0  0  0  0  0  0  0  0  0  0
   -4.5386    7.2670    1.3725 Ge  0  0  0  0  0  4  0  0  0  0  0  0
   -6.1697    7.1953    0.3068 C   0  0  0  0  0  0  0  0  0  0  0  0
   -6.6009    5.7532    0.0711 C   0  0  0  0  0  0  0  0  0  0  0  0
   -4.1934    8.9943    2.2026 C   0  0  0  0  0  0  0  0  0  0  0  0
   -3.9925   10.0674    1.1409 C   0  0  0  0  0  0  0  0  0  0  0  0
   -2.9910    6.5603    0.4752 C   0  0  0  0  0  0  0  0  0  0  0  0
   -2.1513    7.0686   -0.5174 C   0  0  0  0  0  0  0  0  0  0  0  0
   -4.9857    5.3808    3.7408 C   0  0  0  0  0  0  0  0  0  0  0  0
   -4.3821    4.2476    4.3073 C   0  0  0  0  0  0  0  0  0  0  0  0
   -3.0782    3.7415    3.3366 S   0  0  0  0  0  0  0  0  0  0  0  0
   -4.9267    3.4895    5.4447 C   0  0  0  0  0  0  0  0  0  0  0  0
   -4.1815    2.8588    6.3752 C   0  0  0  0  0  0  0  0  0  0  0  0
   -2.7806    3.1543    6.7097 C   0  0  0  0  0  0  0  0  0  0  0  0
   -1.9955    3.9087    6.0759 O   0  0  0  0  0  0  0  0  0  0  0  0
   -2.4836    2.5565    7.9948 C   0  0  0  0  0  0  0  0  0  0  0  0
   -1.3045    2.6488    8.7346 C   0  0  0  0  0  0  0  0  0  0  0  0
   -1.2630    2.0542   10.0026 C   0  0  0  0  0  0  0  0  0  0  0  0
   -2.3983    1.4034   10.5174 C   0  0  0  0  0  0  0  0  0  0  0  0
   -2.3419    0.6935   12.1213 Cl  0  0  0  0  0  0  0  0  0  0  0  0
   -3.5791    1.3260    9.7572 C   0  0  0  0  0  0  0  0  0  0  0  0
   -3.6027    1.8960    8.4740 C   0  0  0  0  0  0  0  0  0  0  0  0
   -4.6925    1.9629    7.4586 C   0  0  0  0  0  0  0  0  0  0  0  0
   -5.7962    1.1738    7.3936 C   0  0  0  0  0  0  0  0  0  0  0  0
   -6.1676    0.2632    8.4441 C   0  0  0  0  0  0  0  0  0  0  0  0
   -6.4806   -0.4727    9.2826 N   0  0  0  0  0  0  0  0  0  0  0  0
   -6.6131    1.0952    6.2095 C   0  0  0  0  0  0  0  0  0  0  0  0
   -7.2711    1.0197    5.2591 N   0  0  0  0  0  0  0  0  0  0  0  0
    1.5707  -10.4313    3.0861 H   0  0  0  0  0  0  0  0  0  0  0  0
   -1.3122  -10.5750    7.8629 H   0  0  0  0  0  0  0  0  0  0  0  0
   -2.3279   -8.8013    9.2098 H   0  0  0  0  0  0  0  0  0  0  0  0
   -0.9282   -3.7362   -1.1208 H   0  0  0  0  0  0  0  0  0  0  0  0
   -1.7419   -4.9048   -0.0077 H   0  0  0  0  0  0  0  0  0  0  0  0
    0.0953   -4.6786    1.6389 H   0  0  0  0  0  0  0  0  0  0  0  0
    1.0075   -3.5905    0.5114 H   0  0  0  0  0  0  0  0  0  0  0  0
   -0.5588   -3.0452    1.2235 H   0  0  0  0  0  0  0  0  0  0  0  0
    0.0774   -7.6555   -3.0397 H   0  0  0  0  0  0  0  0  0  0  0  0
   -1.5645   -7.2265   -2.4045 H   0  0  0  0  0  0  0  0  0  0  0  0
   -1.4075   -4.9803   -3.4910 H   0  0  0  0  0  0  0  0  0  0  0  0
   -1.1852   -6.2982   -4.7052 H   0  0  0  0  0  0  0  0  0  0  0  0
    0.2503   -5.3809   -4.1058 H   0  0  0  0  0  0  0  0  0  0  0  0
   -0.7214   -8.1480    1.1822 H   0  0  0  0  0  0  0  0  0  0  0  0
    2.0994   -3.8112   -2.8298 H   0  0  0  0  0  0  0  0  0  0  0  0
    3.8093   -2.9240   -6.2000 H   0  0  0  0  0  0  0  0  0  0  0  0
    3.4152   -4.7155   -7.8405 H   0  0  0  0  0  0  0  0  0  0  0  0
    4.2551   -6.9983   -7.4338 H   0  0  0  0  0  0  0  0  0  0  0  0
    6.6713   -7.8722   -4.7716 H   0  0  0  0  0  0  0  0  0  0  0  0
    5.7961   -8.4656   -6.2182 H   0  0  0  0  0  0  0  0  0  0  0  0
    5.0359   -9.6580   -4.1824 H   0  0  0  0  0  0  0  0  0  0  0  0
    3.6825   -8.6746   -4.8631 H   0  0  0  0  0  0  0  0  0  0  0  0
    4.5770   -8.0986   -3.3961 H   0  0  0  0  0  0  0  0  0  0  0  0
    6.0064   -5.6895   -3.7218 H   0  0  0  0  0  0  0  0  0  0  0  0
   -1.3933    8.9553   -3.1522 H   0  0  0  0  0  0  0  0  0  0  0  0
   -3.4505    9.2739   -4.4820 H   0  0  0  0  0  0  0  0  0  0  0  0
   -4.3591    7.4243   -5.8404 H   0  0  0  0  0  0  0  0  0  0  0  0
   -2.5788    4.1354   -6.3062 H   0  0  0  0  0  0  0  0  0  0  0  0
   -3.7102    5.2835   -7.0872 H   0  0  0  0  0  0  0  0  0  0  0  0
   -4.2094    3.8066   -4.4135 H   0  0  0  0  0  0  0  0  0  0  0  0
   -4.9169    3.3821   -6.0203 H   0  0  0  0  0  0  0  0  0  0  0  0
   -5.3618    4.9427   -5.2330 H   0  0  0  0  0  0  0  0  0  0  0  0
   -1.1638    4.8675   -4.4874 H   0  0  0  0  0  0  0  0  0  0  0  0
    3.7068    0.6354   -1.5199 H   0  0  0  0  0  0  0  0  0  0  0  0
    3.7866    2.3668   -1.3792 H   0  0  0  0  0  0  0  0  0  0  0  0
    5.9043    0.3966   -0.2689 H   0  0  0  0  0  0  0  0  0  0  0  0
    5.9998    2.1688   -0.1031 H   0  0  0  0  0  0  0  0  0  0  0  0
    4.6517    1.2713    0.6769 H   0  0  0  0  0  0  0  0  0  0  0  0
    4.2542    4.5018   -0.5576 H   0  0  0  0  0  0  0  0  0  0  0  0
    5.7726    3.9435   -1.3751 H   0  0  0  0  0  0  0  0  0  0  0  0
    6.1742    6.1100   -0.3539 H   0  0  0  0  0  0  0  0  0  0  0  0
    6.2466    6.2430   -2.1583 H   0  0  0  0  0  0  0  0  0  0  0  0
    4.7929    6.8419   -1.2424 H   0  0  0  0  0  0  0  0  0  0  0  0
   -5.9846    7.6965   -0.6668 H   0  0  0  0  0  0  0  0  0  0  0  0
   -6.9747    7.7409    0.8453 H   0  0  0  0  0  0  0  0  0  0  0  0
   -7.5213    5.7390   -0.5505 H   0  0  0  0  0  0  0  0  0  0  0  0
   -6.8172    5.2537    1.0392 H   0  0  0  0  0  0  0  0  0  0  0  0
   -5.8005    5.1949   -0.4613 H   0  0  0  0  0  0  0  0  0  0  0  0
   -3.2817    8.9145    2.8293 H   0  0  0  0  0  0  0  0  0  0  0  0
   -5.0560    9.2630    2.8477 H   0  0  0  0  0  0  0  0  0  0  0  0
   -3.8122   11.0467    1.6312 H   0  0  0  0  0  0  0  0  0  0  0  0
   -3.1149    9.8212    0.5081 H   0  0  0  0  0  0  0  0  0  0  0  0
   -4.8976   10.1494    0.5024 H   0  0  0  0  0  0  0  0  0  0  0  0
   -2.3336    7.9951   -1.0427 H   0  0  0  0  0  0  0  0  0  0  0  0
   -5.8541    5.8802    4.1480 H   0  0  0  0  0  0  0  0  0  0  0  0
   -6.0024    3.4638    5.5184 H   0  0  0  0  0  0  0  0  0  0  0  0
   -0.4403    3.1739    8.3457 H   0  0  0  0  0  0  0  0  0  0  0  0
   -0.3568    2.1135   10.5929 H   0  0  0  0  0  0  0  0  0  0  0  0
   -4.4429    0.8557   10.1944 H   0  0  0  0  0  0  0  0  0  0  0  0
  1  2  2  3
  2  3  1  0
  3  4  2  0
  3  5  1  0
  5  6  2  0
  6  7  1  0
  7  8  2  0
  8  9  1  0
  9 10  1  0
  9 11  2  0
 11 12  1  0
  6 13  1  0
 13 14  2  3
 14 15  1  0
 15 16  3  0
 14 17  1  0
 17 18  3  0
  1 19  1  0
 19 20  1  0
 20 21  1  0
 21 22  1  0
 22 23  2  0
 23 24  1  0
 24 25  1  0
 25 26  1  0
 24 27  1  0
 27 28  1  0
 24 29  1  0
 29 30  1  0
 23 31  1  0
 31 32  2  0
 32 33  1  0
 32 34  1  0
 34 35  2  0
 35 36  1  0
 36 37  2  0
 37 38  1  0
 38 39  2  0
 39 40  1  0
 40 41  1  0
 41 42  1  0
 40 43  2  0
 35 44  1  0
 44 45  1  0
 45 46  1  0
 46 47  1  0
 47 48  1  0
 48 49  1  0
 49 50  2  0
 50 51  1  0
 51 52  1  0
 49 53  1  0
 53 54  1  0
 54 55  1  0
 55 56  1  0
 56 57  1  0
 57 58  1  0
 58 59  2  0
 59 60  1  0
 60 61  2  0
 61 62  1  0
 62 63  1  0
 63 64  1  0
 62 65  2  0
 57 66  2  0
 66 67  1  0
 67 68  1  0
 68 69  1  0
 69 70  1  0
 70 71  1  0
 71 72  1  0
 72 73  1  0
 73 74  1  0
 74 75  1  0
 75 76  1  0
 73 77  1  0
 77 78  1  0
 70 79  1  0
 79 80  1  0
 66 81  1  0
 81 82  1  0
 82 83  1  0
 83 84  1  0
 84 85  2  0
 85 86  1  0
 86 87  1  0
 87 88  1  0
 86 89  1  0
 89 90  1  0
 86 91  1  0
 91 92  1  0
 85 93  1  0
 93 94  2  0
 94 95  1  0
 94 96  1  0
 96 97  2  3
 97 98  1  0
 98 99  2  0
 98100  1  0
100101  2  0
101102  1  0
102103  2  0
103104  1  0
103105  1  0
105106  2  0
106107  1  0
107108  2  3
108109  1  0
109110  3  0
108111  1  0
111112  3  0
 13  2  1  0
 30 19  2  0
 76 34  1  0
 92 81  2  0
107 97  1  0
 11  5  1  0
 29 21  2  0
 43 36  1  0
 75 44  2  0
 91 83  2  0
106100  1  0
 33 22  1  0
 74 46  2  0
 95 84  1  0
 72 47  2  0
 52 48  2  0
 71 53  2  0
 69 54  2  0
 68 56  2  0
 65 58  1  0
  1113  1  0
  7114  1  0
  8115  1  0
 25116  1  0
 25117  1  0
 26118  1  0
 26119  1  0
 26120  1  0
 27121  1  0
 27122  1  0
 28123  1  0
 28124  1  0
 28125  1  0
 30126  1  0
 31127  1  0
 37128  1  0
 38129  1  0
 39130  1  0
 41131  1  0
 41132  1  0
 42133  1  0
 42134  1  0
 42135  1  0
 43136  1  0
 59137  1  0
 60138  1  0
 61139  1  0
 63140  1  0
 63141  1  0
 64142  1  0
 64143  1  0
 64144  1  0
 65145  1  0
 77146  1  0
 77147  1  0
 78148  1  0
 78149  1  0
 78150  1  0
 79151  1  0
 79152  1  0
 80153  1  0
 80154  1  0
 80155  1  0
 87156  1  0
 87157  1  0
 88158  1  0
 88159  1  0
 88160  1  0
 89161  1  0
 89162  1  0
 90163  1  0
 90164  1  0
 90165  1  0
 92166  1  0
 93167  1  0
 96168  1  0
101169  1  0
102170  1  0
105171  1  0
M  END

