
     RDKit          3D

166183  0  0  0  0  0  0  0  0999 V2000
   -0.1150   -7.4859    2.3188 C   0  0  0  0  0  0  0  0  0  0  0  0
    0.6303   -6.7101    3.1379 C   0  0  0  0  0  0  0  0  0  0  0  0
    0.9606   -7.1513    4.4978 C   0  0  0  0  0  0  0  0  0  0  0  0
    0.5511   -8.2144    5.0396 O   0  0  0  0  0  0  0  0  0  0  0  0
    1.7853   -6.1491    5.1455 C   0  0  0  0  0  0  0  0  0  0  0  0
    2.0064   -5.1185    4.2507 C   0  0  0  0  0  0  0  0  0  0  0  0
    2.6141   -3.9313    4.6824 C   0  0  0  0  0  0  0  0  0  0  0  0
    3.0736   -3.8430    6.0050 C   0  0  0  0  0  0  0  0  0  0  0  0
    2.8945   -4.9151    6.8984 C   0  0  0  0  0  0  0  0  0  0  0  0
    3.5235   -4.7171    8.6981 Br  0  0  0  0  0  0  0  0  0  0  0  0
    2.2319   -6.0859    6.4744 C   0  0  0  0  0  0  0  0  0  0  0  0
    1.9491   -7.4149    7.5950 Cl  0  0  0  0  0  0  0  0  0  0  0  0
    1.3463   -5.3997    2.9455 C   0  0  0  0  0  0  0  0  0  0  0  0
    1.6565   -4.7712    1.7830 C   0  0  0  0  0  0  0  0  0  0  0  0
    0.6623   -4.4557    0.8018 C   0  0  0  0  0  0  0  0  0  0  0  0
   -0.1192   -4.1437    0.0110 N   0  0  0  0  0  0  0  0  0  0  0  0
    2.8778   -4.0204    1.6361 C   0  0  0  0  0  0  0  0  0  0  0  0
    3.8522   -3.4074    1.5117 N   0  0  0  0  0  0  0  0  0  0  0  0
   -0.6844   -7.0923    1.0270 C   0  0  0  0  0  0  0  0  0  0  0  0
   -1.9357   -6.4565    1.0080 C   0  0  0  0  0  0  0  0  0  0  0  0
   -2.5744   -6.1636    2.1727 F   0  0  0  0  0  0  0  0  0  0  0  0
   -2.5081   -6.0564   -0.2012 C   0  0  0  0  0  0  0  0  0  0  0  0
   -3.6487   -5.3185   -0.1653 F   0  0  0  0  0  0  0  0  0  0  0  0
   -1.8531   -6.3161   -1.4233 C   0  0  0  0  0  0  0  0  0  0  0  0
   -0.6436   -7.0388   -1.4107 C   0  0  0  0  0  0  0  0  0  0  0  0
    0.0037   -7.3329   -2.5660 N   0  0  0  0  0  0  0  0  0  0  0  0
    1.1664   -8.0368   -2.5883 C   0  0  0  0  0  0  0  0  0  0  0  0
    1.7971   -8.3095   -3.9282 C   0  0  0  0  0  0  0  0  0  0  0  0
    1.2473   -9.5911   -4.5447 C   0  0  0  0  0  0  0  0  0  0  0  0
    1.6964   -8.5151   -1.3657 C   0  0  0  0  0  0  0  0  0  0  0  0
    1.0758   -8.1759   -0.2026 N   0  0  0  0  0  0  0  0  0  0  0  0
   -0.0723   -7.4474   -0.1870 C   0  0  0  0  0  0  0  0  0  0  0  0
    2.9429   -9.3591   -1.2795 C   0  0  0  0  0  0  0  0  0  0  0  0
    4.1740   -8.4966   -1.0242 C   0  0  0  0  0  0  0  0  0  0  0  0
   -2.3113   -5.6306   -2.6531 C   0  0  0  0  0  0  0  0  0  0  0  0
   -3.6586   -5.4642   -3.0373 C   0  0  0  0  0  0  0  0  0  0  0  0
   -4.7378   -6.4108   -2.6565 C   0  0  0  0  0  0  0  0  0  0  0  0
   -4.4815   -7.7938   -2.7132 C   0  0  0  0  0  0  0  0  0  0  0  0
   -5.4672   -8.7148   -2.3610 C   0  0  0  0  0  0  0  0  0  0  0  0
   -6.7234   -8.2691   -1.9537 C   0  0  0  0  0  0  0  0  0  0  0  0
   -6.9979   -6.8952   -1.8809 C   0  0  0  0  0  0  0  0  0  0  0  0
   -8.3753   -6.4197   -1.5029 C   0  0  0  0  0  0  0  0  0  0  0  0
   -9.2282   -6.2081   -2.7506 C   0  0  0  0  0  0  0  0  0  0  0  0
   -6.0038   -5.9705   -2.2345 C   0  0  0  0  0  0  0  0  0  0  0  0
   -3.8148   -4.3111   -3.8290 C   0  0  0  0  0  0  0  0  0  0  0  0
   -5.1211   -3.2199   -3.9548 S   0  0  0  0  0  0  0  0  0  0  0  0
   -4.1161   -1.9394   -4.4255 C   0  0  0  0  0  0  0  0  0  0  0  0
   -4.1058   -0.6042   -4.0847 C   0  0  0  0  0  0  0  0  0  0  0  0
   -5.1420    0.2773   -3.7533 C   0  0  0  0  0  0  0  0  0  0  0  0
   -4.8088    1.5915   -3.3014 C   0  0  0  0  0  0  0  0  0  0  0  0
   -5.8400    2.4088   -2.9760 N   0  0  0  0  0  0  0  0  0  0  0  0
   -7.1110    1.3974   -3.3019 S   0  0  0  0  0  0  0  0  0  0  0  0
   -6.4601   -0.0340   -3.8226 N   0  0  0  0  0  0  0  0  0  0  0  0
   -3.4581    1.9231   -3.1331 C   0  0  0  0  0  0  0  0  0  0  0  0
   -2.8678    2.9841   -2.5036 C   0  0  0  0  0  0  0  0  0  0  0  0
   -3.2818    4.4536   -1.7472 S   0  0  0  0  0  0  0  0  0  0  0  0
   -1.6646    4.6802   -1.2298 C   0  0  0  0  0  0  0  0  0  0  0  0
   -0.9691    5.7463   -0.6413 C   0  0  0  0  0  0  0  0  0  0  0  0
   -1.5980    7.0064   -0.1939 C   0  0  0  0  0  0  0  0  0  0  0  0
   -1.0934    8.2458   -0.6179 C   0  0  0  0  0  0  0  0  0  0  0  0
   -1.6655    9.4330   -0.1592 C   0  0  0  0  0  0  0  0  0  0  0  0
   -2.7433    9.3935    0.7269 C   0  0  0  0  0  0  0  0  0  0  0  0
   -3.2726    8.1645    1.1437 C   0  0  0  0  0  0  0  0  0  0  0  0
   -4.4056    8.1223    2.1361 C   0  0  0  0  0  0  0  0  0  0  0  0
   -3.8718    8.0020    3.5605 C   0  0  0  0  0  0  0  0  0  0  0  0
   -2.6945    6.9723    0.6820 C   0  0  0  0  0  0  0  0  0  0  0  0
    0.4129    5.4752   -0.6090 C   0  0  0  0  0  0  0  0  0  0  0  0
    0.7300    3.9491   -1.2929 S   0  0  0  0  0  0  0  0  0  0  0  0
   -0.8773    3.6251   -1.6149 C   0  0  0  0  0  0  0  0  0  0  0  0
   -1.5654    2.6657   -2.3375 C   0  0  0  0  0  0  0  0  0  0  0  0
   -1.2452    1.4274   -2.7874 N   0  0  0  0  0  0  0  0  0  0  0  0
   -2.4222    1.0005   -3.3698 C   0  0  0  0  0  0  0  0  0  0  0  0
   -2.7564   -0.2515   -3.9508 C   0  0  0  0  0  0  0  0  0  0  0  0
   -1.9535   -1.3038   -4.2827 N   0  0  0  0  0  0  0  0  0  0  0  0
   -2.8123   -2.3304   -4.4887 C   0  0  0  0  0  0  0  0  0  0  0  0
   -2.6403   -3.6599   -4.1347 C   0  0  0  0  0  0  0  0  0  0  0  0
   -1.3692   -4.4001   -3.3448 S   0  0  0  0  0  0  0  0  0  0  0  0
   -0.5651   -1.2651   -4.7628 C   0  0  0  0  0  0  0  0  0  0  0  0
   -0.4103   -1.9510   -6.1213 C   0  0  0  0  0  0  0  0  0  0  0  0
   -0.1764    0.6143   -2.1792 C   0  0  0  0  0  0  0  0  0  0  0  0
   -0.7431   -0.4363   -1.2217 C   0  0  0  0  0  0  0  0  0  0  0  0
    1.4968    6.4056   -0.2469 C   0  0  0  0  0  0  0  0  0  0  0  0
    2.3083    6.9165   -1.2754 C   0  0  0  0  0  0  0  0  0  0  0  0
    1.9773    6.7074   -2.5777 F   0  0  0  0  0  0  0  0  0  0  0  0
    3.4884    7.5990   -0.9740 C   0  0  0  0  0  0  0  0  0  0  0  0
    4.2671    8.0549   -1.9888 F   0  0  0  0  0  0  0  0  0  0  0  0
    3.9030    7.7403    0.3601 C   0  0  0  0  0  0  0  0  0  0  0  0
    3.0587    7.3070    1.3963 C   0  0  0  0  0  0  0  0  0  0  0  0
    3.4234    7.4548    2.6947 N   0  0  0  0  0  0  0  0  0  0  0  0
    2.6468    7.0172    3.7207 C   0  0  0  0  0  0  0  0  0  0  0  0
    3.1693    7.2003    5.1242 C   0  0  0  0  0  0  0  0  0  0  0  0
    2.7440    8.5451    5.7020 C   0  0  0  0  0  0  0  0  0  0  0  0
    1.4000    6.4127    3.4216 C   0  0  0  0  0  0  0  0  0  0  0  0
    1.0555    6.2270    2.1166 N   0  0  0  0  0  0  0  0  0  0  0  0
    1.8451    6.6536    1.0948 C   0  0  0  0  0  0  0  0  0  0  0  0
    0.4561    5.9181    4.4862 C   0  0  0  0  0  0  0  0  0  0  0  0
    0.6889    4.4397    4.7818 C   0  0  0  0  0  0  0  0  0  0  0  0
    5.2504    8.2658    0.6567 C   0  0  0  0  0  0  0  0  0  0  0  0
    6.3710    7.5784    0.3511 C   0  0  0  0  0  0  0  0  0  0  0  0
    6.4097    6.2648   -0.3291 C   0  0  0  0  0  0  0  0  0  0  0  0
    5.4534    5.4632   -0.5026 O   0  0  0  0  0  0  0  0  0  0  0  0
    7.7739    6.0314   -0.7074 C   0  0  0  0  0  0  0  0  0  0  0  0
    8.6166    4.8066   -1.4773 S   0  0  0  0  0  0  0  0  0  0  0  0
   10.1058    5.6041   -1.2745 C   0  0  0  0  0  0  0  0  0  0  0  0
   11.7777    4.9124   -1.8658 Br  0  0  0  0  0  0  0  0  0  0  0  0
    9.9323    6.8138   -0.5904 C   0  0  0  0  0  0  0  0  0  0  0  0
    8.5848    7.0311   -0.2850 C   0  0  0  0  0  0  0  0  0  0  0  0
    7.8003    8.0460    0.4604 C   0  0  0  0  0  0  0  0  0  0  0  0
    8.3088    9.0799    1.1746 C   0  0  0  0  0  0  0  0  0  0  0  0
    7.5118    9.8760    2.0698 C   0  0  0  0  0  0  0  0  0  0  0  0
    6.8897   10.5222    2.8048 N   0  0  0  0  0  0  0  0  0  0  0  0
    9.7135    9.4013    1.1522 C   0  0  0  0  0  0  0  0  0  0  0  0
   10.8393    9.6708    1.1414 N   0  0  0  0  0  0  0  0  0  0  0  0
   -0.4763   -8.4345    2.7056 H   0  0  0  0  0  0  0  0  0  0  0  0
    2.6889   -3.0669    4.0408 H   0  0  0  0  0  0  0  0  0  0  0  0
    3.5423   -2.9293    6.3470 H   0  0  0  0  0  0  0  0  0  0  0  0
    1.5632   -7.4620   -4.6127 H   0  0  0  0  0  0  0  0  0  0  0  0
    2.9060   -8.3534   -3.8534 H   0  0  0  0  0  0  0  0  0  0  0  0
    0.1378   -9.5508   -4.5823 H   0  0  0  0  0  0  0  0  0  0  0  0
    1.5639  -10.4745   -3.9569 H   0  0  0  0  0  0  0  0  0  0  0  0
    1.6316   -9.6983   -5.5813 H   0  0  0  0  0  0  0  0  0  0  0  0
    3.0886   -9.9647   -2.1960 H   0  0  0  0  0  0  0  0  0  0  0  0
    2.8309  -10.0814   -0.4410 H   0  0  0  0  0  0  0  0  0  0  0  0
    5.0824   -9.1353   -1.0487 H   0  0  0  0  0  0  0  0  0  0  0  0
    4.2662   -7.7078   -1.8004 H   0  0  0  0  0  0  0  0  0  0  0  0
    4.1042   -8.0220   -0.0212 H   0  0  0  0  0  0  0  0  0  0  0  0
   -3.5125   -8.1579   -3.0412 H   0  0  0  0  0  0  0  0  0  0  0  0
   -5.2586   -9.7756   -2.4162 H   0  0  0  0  0  0  0  0  0  0  0  0
   -7.4828   -8.9967   -1.6962 H   0  0  0  0  0  0  0  0  0  0  0  0
   -8.3056   -5.4660   -0.9362 H   0  0  0  0  0  0  0  0  0  0  0  0
   -8.8733   -7.1638   -0.8409 H   0  0  0  0  0  0  0  0  0  0  0  0
   -9.3473   -7.1661   -3.3002 H   0  0  0  0  0  0  0  0  0  0  0  0
  -10.2329   -5.8391   -2.4569 H   0  0  0  0  0  0  0  0  0  0  0  0
   -8.7530   -5.4595   -3.4186 H   0  0  0  0  0  0  0  0  0  0  0  0
   -6.2169   -4.9156   -2.1516 H   0  0  0  0  0  0  0  0  0  0  0  0
   -0.2657    8.2971   -1.3143 H   0  0  0  0  0  0  0  0  0  0  0  0
   -1.2686   10.3857   -0.4831 H   0  0  0  0  0  0  0  0  0  0  0  0
   -3.1662   10.3220    1.0887 H   0  0  0  0  0  0  0  0  0  0  0  0
   -5.0209    9.0444    2.0551 H   0  0  0  0  0  0  0  0  0  0  0  0
   -5.0743    7.2616    1.9180 H   0  0  0  0  0  0  0  0  0  0  0  0
   -3.3537    7.0286    3.6929 H   0  0  0  0  0  0  0  0  0  0  0  0
   -4.7136    8.0578    4.2814 H   0  0  0  0  0  0  0  0  0  0  0  0
   -3.1586    8.8249    3.7792 H   0  0  0  0  0  0  0  0  0  0  0  0
   -3.0749    6.0166    1.0300 H   0  0  0  0  0  0  0  0  0  0  0  0
    0.0978   -1.7723   -4.0289 H   0  0  0  0  0  0  0  0  0  0  0  0
   -0.2516   -0.2115   -4.9143 H   0  0  0  0  0  0  0  0  0  0  0  0
    0.6069   -1.7623   -6.5225 H   0  0  0  0  0  0  0  0  0  0  0  0
   -0.5456   -3.0470   -6.0225 H   0  0  0  0  0  0  0  0  0  0  0  0
   -1.1570   -1.5514   -6.8377 H   0  0  0  0  0  0  0  0  0  0  0  0
    0.4855    0.1630   -2.9305 H   0  0  0  0  0  0  0  0  0  0  0  0
    0.4996    1.2570   -1.5864 H   0  0  0  0  0  0  0  0  0  0  0  0
    0.0788   -0.8652   -0.6087 H   0  0  0  0  0  0  0  0  0  0  0  0
   -1.4819    0.0272   -0.5332 H   0  0  0  0  0  0  0  0  0  0  0  0
   -1.2325   -1.2599   -1.7719 H   0  0  0  0  0  0  0  0  0  0  0  0
    4.2812    7.1583    5.1037 H   0  0  0  0  0  0  0  0  0  0  0  0
    2.8383    6.3743    5.7873 H   0  0  0  0  0  0  0  0  0  0  0  0
    3.0562    9.3748    5.0319 H   0  0  0  0  0  0  0  0  0  0  0  0
    1.6448    8.5765    5.8417 H   0  0  0  0  0  0  0  0  0  0  0  0
    3.2283    8.6884    6.6939 H   0  0  0  0  0  0  0  0  0  0  0  0
    0.5526    6.5099    5.4202 H   0  0  0  0  0  0  0  0  0  0  0  0
   -0.5902    6.0585    4.1355 H   0  0  0  0  0  0  0  0  0  0  0  0
    1.7662    4.2328    4.9462 H   0  0  0  0  0  0  0  0  0  0  0  0
    0.3291    3.8266    3.9296 H   0  0  0  0  0  0  0  0  0  0  0  0
    0.1254    4.1513    5.6933 H   0  0  0  0  0  0  0  0  0  0  0  0
    5.2938    9.2469    1.0996 H   0  0  0  0  0  0  0  0  0  0  0  0
   10.7483    7.4725   -0.3410 H   0  0  0  0  0  0  0  0  0  0  0  0
  1  2  2  3
  2  3  1  0
  3  4  2  0
  3  5  1  0
  5  6  2  0
  6  7  1  0
  7  8  2  0
  8  9  1  0
  9 10  1  0
  9 11  2  0
 11 12  1  0
  6 13  1  0
 13 14  2  3
 14 15  1  0
 15 16  3  0
 14 17  1  0
 17 18  3  0
  1 19  1  0
 19 20  2  0
 20 21  1  0
 20 22  1  0
 22 23  1  0
 22 24  2  0
 24 25  1  0
 25 26  2  0
 26 27  1  0
 27 28  1  0
 28 29  1  0
 27 30  2  0
 30 31  1  0
 31 32  2  0
 30 33  1  0
 33 34  1  0
 24 35  1  0
 35 36  2  0
 36 37  1  0
 37 38  2  0
 38 39  1  0
 39 40  2  0
 40 41  1  0
 41 42  1  0
 42 43  1  0
 41 44  2  0
 36 45  1  0
 45 46  1  0
 46 47  1  0
 47 48  1  0
 48 49  1  0
 49 50  1  0
 50 51  2  0
 51 52  1  0
 52 53  1  0
 50 54  1  0
 54 55  1  0
 55 56  1  0
 56 57  1  0
 57 58  1  0
 58 59  1  0
 59 60  2  0
 60 61  1  0
 61 62  2  0
 62 63  1  0
 63 64  1  0
 64 65  1  0
 63 66  2  0
 58 67  2  0
 67 68  1  0
 68 69  1  0
 69 70  1  0
 70 71  1  0
 71 72  1  0
 72 73  1  0
 73 74  1  0
 74 75  1  0
 75 76  1  0
 76 77  1  0
 74 78  1  0
 78 79  1  0
 71 80  1  0
 80 81  1  0
 67 82  1  0
 82 83  2  0
 83 84  1  0
 83 85  1  0
 85 86  1  0
 85 87  2  0
 87 88  1  0
 88 89  2  0
 89 90  1  0
 90 91  1  0
 91 92  1  0
 90 93  2  0
 93 94  1  0
 94 95  2  0
 93 96  1  0
 96 97  1  0
 87 98  1  0
 98 99  2  3
 99100  1  0
100101  2  0
100102  1  0
102103  1  0
103104  1  0
104105  1  0
104106  2  0
106107  1  0
107108  1  0
108109  2  3
109110  1  0
110111  3  0
109112  1  0
112113  3  0
 13  2  1  0
 32 19  1  0
 77 35  1  0
 95 82  1  0
108 99  1  0
 11  5  1  0
 32 25  1  0
 44 37  1  0
 76 45  2  0
 95 88  1  0
107102  2  0
 75 47  2  0
 73 48  2  0
 53 49  2  0
 72 54  2  0
 70 55  2  0
 69 57  2  0
 66 59  1  0
  1114  1  0
  7115  1  0
  8116  1  0
 28117  1  0
 28118  1  0
 29119  1  0
 29120  1  0
 29121  1  0
 33122  1  0
 33123  1  0
 34124  1  0
 34125  1  0
 34126  1  0
 38127  1  0
 39128  1  0
 40129  1  0
 42130  1  0
 42131  1  0
 43132  1  0
 43133  1  0
 43134  1  0
 44135  1  0
 60136  1  0
 61137  1  0
 62138  1  0
 64139  1  0
 64140  1  0
 65141  1  0
 65142  1  0
 65143  1  0
 66144  1  0
 78145  1  0
 78146  1  0
 79147  1  0
 79148  1  0
 79149  1  0
 80150  1  0
 80151  1  0
 81152  1  0
 81153  1  0
 81154  1  0
 91155  1  0
 91156  1  0
 92157  1  0
 92158  1  0
 92159  1  0
 96160  1  0
 96161  1  0
 97162  1  0
 97163  1  0
 97164  1  0
 98165  1  0
106166  1  0
M  END

