
     RDKit          3D

157173  0  0  0  0  0  0  0  0999 V2000
    0.2333   -3.8262   -7.1900 C   0  0  0  0  0  0  0  0  0  0  0  0
   -0.7755   -3.1986   -7.8168 C   0  0  0  0  0  0  0  0  0  0  0  0
   -2.1497   -3.0446   -7.3086 C   0  0  0  0  0  0  0  0  0  0  0  0
   -2.7107   -3.7802   -6.4520 O   0  0  0  0  0  0  0  0  0  0  0  0
   -2.7514   -1.8798   -7.9437 C   0  0  0  0  0  0  0  0  0  0  0  0
   -1.8437   -1.3650   -8.8565 C   0  0  0  0  0  0  0  0  0  0  0  0
   -2.0881   -0.1226   -9.4621 C   0  0  0  0  0  0  0  0  0  0  0  0
   -3.2827    0.5506   -9.1722 C   0  0  0  0  0  0  0  0  0  0  0  0
   -4.2306   -0.0078   -8.3000 C   0  0  0  0  0  0  0  0  0  0  0  0
   -5.8388    0.9773   -7.9442 Br  0  0  0  0  0  0  0  0  0  0  0  0
   -3.9660   -1.2359   -7.6602 C   0  0  0  0  0  0  0  0  0  0  0  0
   -5.0993   -1.9265   -6.4987 Cl  0  0  0  0  0  0  0  0  0  0  0  0
   -0.6453   -2.2446   -8.9444 C   0  0  0  0  0  0  0  0  0  0  0  0
    0.2251   -2.3301   -9.9792 C   0  0  0  0  0  0  0  0  0  0  0  0
    1.1364   -3.4415  -10.1127 C   0  0  0  0  0  0  0  0  0  0  0  0
    1.8574   -4.3422  -10.2344 N   0  0  0  0  0  0  0  0  0  0  0  0
    0.1798   -1.4253  -11.0965 C   0  0  0  0  0  0  0  0  0  0  0  0
    0.1600   -0.7105  -12.0050 N   0  0  0  0  0  0  0  0  0  0  0  0
    0.1054   -4.4227   -5.8451 C   0  0  0  0  0  0  0  0  0  0  0  0
    0.4474   -5.7688   -5.6354 C   0  0  0  0  0  0  0  0  0  0  0  0
    0.8806   -6.5279   -6.6727 F   0  0  0  0  0  0  0  0  0  0  0  0
    0.3469   -6.3396   -4.3584 C   0  0  0  0  0  0  0  0  0  0  0  0
    0.7070   -7.6338   -4.1764 F   0  0  0  0  0  0  0  0  0  0  0  0
   -0.0985   -5.5649   -3.2768 C   0  0  0  0  0  0  0  0  0  0  0  0
   -0.3893   -4.2029   -3.4739 C   0  0  0  0  0  0  0  0  0  0  0  0
   -0.7792   -3.4214   -2.4296 N   0  0  0  0  0  0  0  0  0  0  0  0
   -1.0231   -2.0920   -2.5547 C   0  0  0  0  0  0  0  0  0  0  0  0
   -1.4006   -1.3265   -1.3105 C   0  0  0  0  0  0  0  0  0  0  0  0
   -2.4703   -2.0626   -0.5039 C   0  0  0  0  0  0  0  0  0  0  0  0
   -0.8283   -1.4941   -3.8240 C   0  0  0  0  0  0  0  0  0  0  0  0
   -0.4707   -2.2865   -4.8714 N   0  0  0  0  0  0  0  0  0  0  0  0
   -0.2582   -3.6230   -4.7416 C   0  0  0  0  0  0  0  0  0  0  0  0
   -1.0411   -0.0227   -4.0810 C   0  0  0  0  0  0  0  0  0  0  0  0
   -2.5132    0.2754   -4.3322 C   0  0  0  0  0  0  0  0  0  0  0  0
   -0.1933   -6.1175   -1.9168 C   0  0  0  0  0  0  0  0  0  0  0  0
   -1.4303   -6.4792   -1.3447 C   0  0  0  0  0  0  0  0  0  0  0  0
   -2.6021   -6.9231   -2.1307 C   0  0  0  0  0  0  0  0  0  0  0  0
   -2.4629   -8.0011   -3.0144 C   0  0  0  0  0  0  0  0  0  0  0  0
   -3.5773   -8.5104   -3.6898 C   0  0  0  0  0  0  0  0  0  0  0  0
   -4.8398   -7.9432   -3.4937 C   0  0  0  0  0  0  0  0  0  0  0  0
   -4.9842   -6.8251   -2.6592 C   0  0  0  0  0  0  0  0  0  0  0  0
   -6.3479   -6.2310   -2.4219 C   0  0  0  0  0  0  0  0  0  0  0  0
   -6.9322   -6.7464   -1.1101 C   0  0  0  0  0  0  0  0  0  0  0  0
   -3.8588   -6.3125   -1.9865 C   0  0  0  0  0  0  0  0  0  0  0  0
   -1.4482   -6.2267    0.0355 C   0  0  0  0  0  0  0  0  0  0  0  0
   -2.7395   -6.0208    1.1198 S   0  0  0  0  0  0  0  0  0  0  0  0
   -1.7449   -5.2496    2.2553 C   0  0  0  0  0  0  0  0  0  0  0  0
   -1.9853   -4.2017    3.1011 C   0  0  0  0  0  0  0  0  0  0  0  0
   -3.2135   -3.6302    3.4671 C   0  0  0  0  0  0  0  0  0  0  0  0
   -3.2255   -2.3195    4.0237 C   0  0  0  0  0  0  0  0  0  0  0  0
   -4.4327   -1.7916    4.3428 N   0  0  0  0  0  0  0  0  0  0  0  0
   -5.4134   -3.0362    3.8704 S   0  0  0  0  0  0  0  0  0  0  0  0
   -4.4204   -4.2231    3.2764 N   0  0  0  0  0  0  0  0  0  0  0  0
   -2.0050   -1.6700    4.2261 C   0  0  0  0  0  0  0  0  0  0  0  0
   -1.6995   -0.4459    4.7483 C   0  0  0  0  0  0  0  0  0  0  0  0
   -2.4747    0.9797    5.2408 S   0  0  0  0  0  0  0  0  0  0  0  0
   -0.9658    1.7398    5.4873 C   0  0  0  0  0  0  0  0  0  0  0  0
   -0.5919    3.0643    5.7379 C   0  0  0  0  0  0  0  0  0  0  0  0
   -1.5435    4.1574    5.9999 C   0  0  0  0  0  0  0  0  0  0  0  0
   -1.3551    5.0153    7.0939 C   0  0  0  0  0  0  0  0  0  0  0  0
   -2.2355    6.0768    7.3134 C   0  0  0  0  0  0  0  0  0  0  0  0
   -3.3118    6.2860    6.4512 C   0  0  0  0  0  0  0  0  0  0  0  0
   -3.5143    5.4301    5.3576 C   0  0  0  0  0  0  0  0  0  0  0  0
   -4.6340    5.6870    4.3824 C   0  0  0  0  0  0  0  0  0  0  0  0
   -4.1311    6.4967    3.1992 C   0  0  0  0  0  0  0  0  0  0  0  0
   -2.6209    4.3727    5.1337 C   0  0  0  0  0  0  0  0  0  0  0  0
    0.8084    3.2177    5.6261 C   0  0  0  0  0  0  0  0  0  0  0  0
    1.5235    1.7147    5.2495 S   0  0  0  0  0  0  0  0  0  0  0  0
    0.0769    0.8880    5.2176 C   0  0  0  0  0  0  0  0  0  0  0  0
   -0.3512   -0.3527    4.7747 C   0  0  0  0  0  0  0  0  0  0  0  0
    0.2714   -1.4589    4.2939 N   0  0  0  0  0  0  0  0  0  0  0  0
   -0.7721   -2.2551    3.8965 C   0  0  0  0  0  0  0  0  0  0  0  0
   -0.7724   -3.5093    3.2264 C   0  0  0  0  0  0  0  0  0  0  0  0
    0.1634   -4.0374    2.3738 N   0  0  0  0  0  0  0  0  0  0  0  0
   -0.4619   -5.1095    1.8075 C   0  0  0  0  0  0  0  0  0  0  0  0
   -0.2920   -5.6950    0.5500 C   0  0  0  0  0  0  0  0  0  0  0  0
    0.8165   -5.5045   -0.6929 S   0  0  0  0  0  0  0  0  0  0  0  0
    1.2938   -3.3265    1.7619 C   0  0  0  0  0  0  0  0  0  0  0  0
    2.5990   -4.0930    1.9715 C   0  0  0  0  0  0  0  0  0  0  0  0
    1.6072   -1.9023    4.7280 C   0  0  0  0  0  0  0  0  0  0  0  0
    2.7356   -1.1220    4.0417 C   0  0  0  0  0  0  0  0  0  0  0  0
    1.5619    4.4813    5.5182 C   0  0  0  0  0  0  0  0  0  0  0  0
    1.0993    5.6808    4.9715 C   0  0  0  0  0  0  0  0  0  0  0  0
    2.1205    6.6058    4.7256 C   0  0  0  0  0  0  0  0  0  0  0  0
    1.8082    8.2146    3.9847 S   0  0  0  0  0  0  0  0  0  0  0  0
    2.2025    7.6822    2.2740 C   0  0  0  0  0  0  0  0  0  0  0  0
    1.0268    6.9470    1.6346 C   0  0  0  0  0  0  0  0  0  0  0  0
    3.3887    6.1302    5.0509 C   0  0  0  0  0  0  0  0  0  0  0  0
    3.2286    4.5840    5.6875 S   0  0  0  0  0  0  0  0  0  0  0  0
    4.6643    6.8336    4.8492 C   0  0  0  0  0  0  0  0  0  0  0  0
    5.7437    6.2582    4.2838 C   0  0  0  0  0  0  0  0  0  0  0  0
    5.7184    5.0808    3.4075 C   0  0  0  0  0  0  0  0  0  0  0  0
    4.7027    4.4071    3.0961 O   0  0  0  0  0  0  0  0  0  0  0  0
    7.0395    4.9018    2.8290 C   0  0  0  0  0  0  0  0  0  0  0  0
    7.8688    5.9230    3.2732 C   0  0  0  0  0  0  0  0  0  0  0  0
    9.1852    6.0011    2.7956 C   0  0  0  0  0  0  0  0  0  0  0  0
    9.6575    5.0107    1.9215 C   0  0  0  0  0  0  0  0  0  0  0  0
    8.8214    3.9624    1.4998 C   0  0  0  0  0  0  0  0  0  0  0  0
    9.5482    2.6229    0.3388 Br  0  0  0  0  0  0  0  0  0  0  0  0
    7.4864    3.9081    1.9400 C   0  0  0  0  0  0  0  0  0  0  0  0
    6.4190    2.6114    1.4180 Cl  0  0  0  0  0  0  0  0  0  0  0  0
    7.1415    6.7800    4.2608 C   0  0  0  0  0  0  0  0  0  0  0  0
    7.6935    7.6400    5.1556 C   0  0  0  0  0  0  0  0  0  0  0  0
    6.9494    8.1902    6.2582 C   0  0  0  0  0  0  0  0  0  0  0  0
    6.3608    8.6325    7.1495 N   0  0  0  0  0  0  0  0  0  0  0  0
    9.0922    7.9784    5.1526 C   0  0  0  0  0  0  0  0  0  0  0  0
   10.2138    8.2673    5.1881 N   0  0  0  0  0  0  0  0  0  0  0  0
    1.2344   -3.7746   -7.5878 H   0  0  0  0  0  0  0  0  0  0  0  0
   -1.3603    0.3660  -10.0879 H   0  0  0  0  0  0  0  0  0  0  0  0
   -3.4758    1.5131   -9.6337 H   0  0  0  0  0  0  0  0  0  0  0  0
   -1.7996   -0.3173   -1.5369 H   0  0  0  0  0  0  0  0  0  0  0  0
   -0.4919   -1.2020   -0.6755 H   0  0  0  0  0  0  0  0  0  0  0  0
   -2.0596   -2.9900   -0.0495 H   0  0  0  0  0  0  0  0  0  0  0  0
   -3.3364   -2.3219   -1.1470 H   0  0  0  0  0  0  0  0  0  0  0  0
   -2.8324   -1.4122    0.3203 H   0  0  0  0  0  0  0  0  0  0  0  0
   -0.6571    0.5903   -3.2359 H   0  0  0  0  0  0  0  0  0  0  0  0
   -0.4672    0.2829   -4.9866 H   0  0  0  0  0  0  0  0  0  0  0  0
   -2.6601    1.3661   -4.4821 H   0  0  0  0  0  0  0  0  0  0  0  0
   -2.8570   -0.2540   -5.2440 H   0  0  0  0  0  0  0  0  0  0  0  0
   -3.1452   -0.0486   -3.4813 H   0  0  0  0  0  0  0  0  0  0  0  0
   -1.4969   -8.4826   -3.1455 H   0  0  0  0  0  0  0  0  0  0  0  0
   -3.4735   -9.3611   -4.3447 H   0  0  0  0  0  0  0  0  0  0  0  0
   -5.6967   -8.3768   -3.9977 H   0  0  0  0  0  0  0  0  0  0  0  0
   -7.0373   -6.5018   -3.2554 H   0  0  0  0  0  0  0  0  0  0  0  0
   -6.2742   -5.1214   -2.3912 H   0  0  0  0  0  0  0  0  0  0  0  0
   -6.2862   -6.4453   -0.2575 H   0  0  0  0  0  0  0  0  0  0  0  0
   -7.9437   -6.3114   -0.9552 H   0  0  0  0  0  0  0  0  0  0  0  0
   -7.0238   -7.8508   -1.1378 H   0  0  0  0  0  0  0  0  0  0  0  0
   -3.9729   -5.4550   -1.3362 H   0  0  0  0  0  0  0  0  0  0  0  0
   -0.5270    4.8609    7.7823 H   0  0  0  0  0  0  0  0  0  0  0  0
   -2.0839    6.7413    8.1555 H   0  0  0  0  0  0  0  0  0  0  0  0
   -3.9850    7.1193    6.6246 H   0  0  0  0  0  0  0  0  0  0  0  0
   -5.4581    6.2326    4.8850 H   0  0  0  0  0  0  0  0  0  0  0  0
   -5.0483    4.7173    4.0236 H   0  0  0  0  0  0  0  0  0  0  0  0
   -3.6836    7.4574    3.5458 H   0  0  0  0  0  0  0  0  0  0  0  0
   -4.9808    6.7229    2.5211 H   0  0  0  0  0  0  0  0  0  0  0  0
   -3.3658    5.9233    2.6315 H   0  0  0  0  0  0  0  0  0  0  0  0
   -2.7548    3.7341    4.2668 H   0  0  0  0  0  0  0  0  0  0  0  0
    1.3755   -2.3025    2.1435 H   0  0  0  0  0  0  0  0  0  0  0  0
    1.1067   -3.1812    0.6813 H   0  0  0  0  0  0  0  0  0  0  0  0
    3.4420   -3.5070    1.5474 H   0  0  0  0  0  0  0  0  0  0  0  0
    2.7898   -4.2678    3.0479 H   0  0  0  0  0  0  0  0  0  0  0  0
    2.5609   -5.0751    1.4619 H   0  0  0  0  0  0  0  0  0  0  0  0
    1.6957   -1.7791    5.8293 H   0  0  0  0  0  0  0  0  0  0  0  0
    1.7264   -2.9876    4.5441 H   0  0  0  0  0  0  0  0  0  0  0  0
    3.4459   -1.8214    3.5665 H   0  0  0  0  0  0  0  0  0  0  0  0
    2.3419   -0.4330    3.2612 H   0  0  0  0  0  0  0  0  0  0  0  0
    3.3032   -0.5298    4.7909 H   0  0  0  0  0  0  0  0  0  0  0  0
    0.0724    5.8640    4.6927 H   0  0  0  0  0  0  0  0  0  0  0  0
    2.4273    8.5887    1.6776 H   0  0  0  0  0  0  0  0  0  0  0  0
    3.1090    7.0368    2.2606 H   0  0  0  0  0  0  0  0  0  0  0  0
    0.8462    5.9778    2.1478 H   0  0  0  0  0  0  0  0  0  0  0  0
    0.1105    7.5746    1.6748 H   0  0  0  0  0  0  0  0  0  0  0  0
    1.2583    6.7393    0.5674 H   0  0  0  0  0  0  0  0  0  0  0  0
    4.6953    7.8551    5.1963 H   0  0  0  0  0  0  0  0  0  0  0  0
    9.8425    6.8054    3.0565 H   0  0  0  0  0  0  0  0  0  0  0  0
   10.6832    5.0558    1.5700 H   0  0  0  0  0  0  0  0  0  0  0  0
  1  2  2  3
  2  3  1  0
  3  4  2  0
  3  5  1  0
  5  6  2  0
  6  7  1  0
  7  8  2  0
  8  9  1  0
  9 10  1  0
  9 11  2  0
 11 12  1  0
  6 13  1  0
 13 14  2  3
 14 15  1  0
 15 16  3  0
 14 17  1  0
 17 18  3  0
  1 19  1  0
 19 20  2  0
 20 21  1  0
 20 22  1  0
 22 23  1  0
 22 24  2  0
 24 25  1  0
 25 26  2  0
 26 27  1  0
 27 28  1  0
 28 29  1  0
 27 30  2  0
 30 31  1  0
 31 32  2  0
 30 33  1  0
 33 34  1  0
 24 35  1  0
 35 36  2  0
 36 37  1  0
 37 38  2  0
 38 39  1  0
 39 40  2  0
 40 41  1  0
 41 42  1  0
 42 43  1  0
 41 44  2  0
 36 45  1  0
 45 46  1  0
 46 47  1  0
 47 48  1  0
 48 49  1  0
 49 50  1  0
 50 51  2  0
 51 52  1  0
 52 53  1  0
 50 54  1  0
 54 55  1  0
 55 56  1  0
 56 57  1  0
 57 58  1  0
 58 59  1  0
 59 60  2  0
 60 61  1  0
 61 62  2  0
 62 63  1  0
 63 64  1  0
 64 65  1  0
 63 66  2  0
 58 67  2  0
 67 68  1  0
 68 69  1  0
 69 70  1  0
 70 71  1  0
 71 72  1  0
 72 73  1  0
 73 74  1  0
 74 75  1  0
 75 76  1  0
 76 77  1  0
 74 78  1  0
 78 79  1  0
 71 80  1  0
 80 81  1  0
 67 82  1  0
 82 83  2  0
 83 84  1  0
 84 85  1  0
 85 86  1  0
 86 87  1  0
 84 88  2  0
 88 89  1  0
 88 90  1  0
 90 91  2  3
 91 92  1  0
 92 93  2  0
 92 94  1  0
 94 95  2  0
 95 96  1  0
 96 97  2  0
 97 98  1  0
 98 99  1  0
 98100  2  0
100101  1  0
 95102  1  0
102103  2  3
103104  1  0
104105  3  0
103106  1  0
106107  3  0
 13  2  1  0
 32 19  1  0
 77 35  1  0
 89 82  1  0
102 91  1  0
 11  5  1  0
 32 25  1  0
 44 37  1  0
 76 45  2  0
100 94  1  0
 75 47  2  0
 73 48  2  0
 53 49  2  0
 72 54  2  0
 70 55  2  0
 69 57  2  0
 66 59  1  0
  1108  1  0
  7109  1  0
  8110  1  0
 28111  1  0
 28112  1  0
 29113  1  0
 29114  1  0
 29115  1  0
 33116  1  0
 33117  1  0
 34118  1  0
 34119  1  0
 34120  1  0
 38121  1  0
 39122  1  0
 40123  1  0
 42124  1  0
 42125  1  0
 43126  1  0
 43127  1  0
 43128  1  0
 44129  1  0
 60130  1  0
 61131  1  0
 62132  1  0
 64133  1  0
 64134  1  0
 65135  1  0
 65136  1  0
 65137  1  0
 66138  1  0
 78139  1  0
 78140  1  0
 79141  1  0
 79142  1  0
 79143  1  0
 80144  1  0
 80145  1  0
 81146  1  0
 81147  1  0
 81148  1  0
 83149  1  0
 86150  1  0
 86151  1  0
 87152  1  0
 87153  1  0
 87154  1  0
 90155  1  0
 96156  1  0
 97157  1  0
M  END

