
     RDKit          3D

149165  0  0  0  0  0  0  0  0999 V2000
    1.5020   -8.2847   -4.2686 C   0  0  0  0  0  0  0  0  0  0  0  0
    0.2069   -7.9323   -4.4346 C   0  0  0  0  0  0  0  0  0  0  0  0
   -0.3914   -6.6646   -3.9735 C   0  0  0  0  0  0  0  0  0  0  0  0
    0.0967   -5.8741   -3.1244 O   0  0  0  0  0  0  0  0  0  0  0  0
   -1.6451   -6.4582   -4.6687 C   0  0  0  0  0  0  0  0  0  0  0  0
   -1.8903   -7.5506   -5.4916 C   0  0  0  0  0  0  0  0  0  0  0  0
   -3.0028   -7.5329   -6.3509 C   0  0  0  0  0  0  0  0  0  0  0  0
   -3.8815   -6.4412   -6.3126 C   0  0  0  0  0  0  0  0  0  0  0  0
   -3.6377   -5.3532   -5.4584 C   0  0  0  0  0  0  0  0  0  0  0  0
   -4.8673   -3.8808   -5.4758 Br  0  0  0  0  0  0  0  0  0  0  0  0
   -2.4977   -5.3460   -4.6318 C   0  0  0  0  0  0  0  0  0  0  0  0
   -2.1483   -3.9645   -3.5929 Cl  0  0  0  0  0  0  0  0  0  0  0  0
   -0.8083   -8.5713   -5.3279 C   0  0  0  0  0  0  0  0  0  0  0  0
   -0.8266   -9.8585   -5.7591 C   0  0  0  0  0  0  0  0  0  0  0  0
   -1.9148  -10.4116   -6.5298 C   0  0  0  0  0  0  0  0  0  0  0  0
   -2.7746  -10.8670   -7.1542 N   0  0  0  0  0  0  0  0  0  0  0  0
    0.1880  -10.8141   -5.3939 C   0  0  0  0  0  0  0  0  0  0  0  0
    0.9993  -11.5914   -5.1130 N   0  0  0  0  0  0  0  0  0  0  0  0
    2.4314   -7.4411   -3.4955 C   0  0  0  0  0  0  0  0  0  0  0  0
    3.2122   -6.4919   -4.1746 C   0  0  0  0  0  0  0  0  0  0  0  0
    3.3085   -6.5350   -5.5294 F   0  0  0  0  0  0  0  0  0  0  0  0
    3.7666   -5.4109   -3.4826 C   0  0  0  0  0  0  0  0  0  0  0  0
    4.3839   -4.4195   -4.1755 F   0  0  0  0  0  0  0  0  0  0  0  0
    3.5718   -5.2868   -2.0981 C   0  0  0  0  0  0  0  0  0  0  0  0
    2.9184   -6.3144   -1.3968 C   0  0  0  0  0  0  0  0  0  0  0  0
    2.7294   -6.2214   -0.0551 N   0  0  0  0  0  0  0  0  0  0  0  0
    2.0242   -7.1462    0.6484 C   0  0  0  0  0  0  0  0  0  0  0  0
    1.8726   -6.9894    2.1451 C   0  0  0  0  0  0  0  0  0  0  0  0
    2.4269   -5.6643    2.6732 C   0  0  0  0  0  0  0  0  0  0  0  0
    1.4727   -8.2477   -0.0512 C   0  0  0  0  0  0  0  0  0  0  0  0
    1.6341   -8.3178   -1.4031 N   0  0  0  0  0  0  0  0  0  0  0  0
    2.3501   -7.3931   -2.0941 C   0  0  0  0  0  0  0  0  0  0  0  0
    0.6336   -9.3082    0.6188 C   0  0  0  0  0  0  0  0  0  0  0  0
   -0.8489   -8.9746    0.4930 C   0  0  0  0  0  0  0  0  0  0  0  0
    3.6833   -3.9692   -1.4656 C   0  0  0  0  0  0  0  0  0  0  0  0
    4.7954   -3.4086   -0.8059 C   0  0  0  0  0  0  0  0  0  0  0  0
    6.1563   -3.9769   -0.8142 C   0  0  0  0  0  0  0  0  0  0  0  0
    6.3797   -5.3027   -0.4152 C   0  0  0  0  0  0  0  0  0  0  0  0
    7.6656   -5.8407   -0.4631 C   0  0  0  0  0  0  0  0  0  0  0  0
    8.7370   -5.0696   -0.9221 C   0  0  0  0  0  0  0  0  0  0  0  0
    8.5288   -3.7400   -1.3192 C   0  0  0  0  0  0  0  0  0  0  0  0
    9.6650   -2.9246   -1.8738 C   0  0  0  0  0  0  0  0  0  0  0  0
    9.7292   -3.0619   -3.3919 C   0  0  0  0  0  0  0  0  0  0  0  0
    7.2335   -3.1974   -1.2598 C   0  0  0  0  0  0  0  0  0  0  0  0
    4.4250   -2.2352   -0.1427 C   0  0  0  0  0  0  0  0  0  0  0  0
    5.2091   -1.1856    0.9572 S   0  0  0  0  0  0  0  0  0  0  0  0
    3.7589   -0.3319    1.2225 C   0  0  0  0  0  0  0  0  0  0  0  0
    3.2917    0.7834    1.8633 C   0  0  0  0  0  0  0  0  0  0  0  0
    3.9578    1.7919    2.5716 C   0  0  0  0  0  0  0  0  0  0  0  0
    3.2329    2.9677    2.9395 C   0  0  0  0  0  0  0  0  0  0  0  0
    3.9259    3.9429    3.5770 N   0  0  0  0  0  0  0  0  0  0  0  0
    5.4270    3.2391    3.6207 S   0  0  0  0  0  0  0  0  0  0  0  0
    5.2804    1.7654    2.8792 N   0  0  0  0  0  0  0  0  0  0  0  0
    1.8758    3.0506    2.6058 C   0  0  0  0  0  0  0  0  0  0  0  0
    0.9359    4.0320    2.7868 C   0  0  0  0  0  0  0  0  0  0  0  0
    0.7751    5.6054    3.4107 S   0  0  0  0  0  0  0  0  0  0  0  0
   -0.8635    5.6738    2.9131 C   0  0  0  0  0  0  0  0  0  0  0  0
   -1.8432    6.6745    2.8838 C   0  0  0  0  0  0  0  0  0  0  0  0
   -1.7381    7.9708    3.6043 C   0  0  0  0  0  0  0  0  0  0  0  0
   -0.5451    8.7097    3.6085 C   0  0  0  0  0  0  0  0  0  0  0  0
   -0.4828    9.9484    4.2511 C   0  0  0  0  0  0  0  0  0  0  0  0
   -1.6316   10.5002    4.8306 C   0  0  0  0  0  0  0  0  0  0  0  0
   -2.8445    9.7908    4.8025 C   0  0  0  0  0  0  0  0  0  0  0  0
   -4.1174   10.4197    5.3205 C   0  0  0  0  0  0  0  0  0  0  0  0
   -4.6169    9.7256    6.5909 C   0  0  0  0  0  0  0  0  0  0  0  0
   -2.8714    8.5049    4.2492 C   0  0  0  0  0  0  0  0  0  0  0  0
   -2.9810    6.2337    2.1623 C   0  0  0  0  0  0  0  0  0  0  0  0
   -2.7666    4.6173    1.6589 S   0  0  0  0  0  0  0  0  0  0  0  0
   -1.2406    4.4955    2.3210 C   0  0  0  0  0  0  0  0  0  0  0  0
   -0.2169    3.5710    2.2607 C   0  0  0  0  0  0  0  0  0  0  0  0
   -0.1328    2.2988    1.8112 N   0  0  0  0  0  0  0  0  0  0  0  0
    1.1995    2.0139    1.9434 C   0  0  0  0  0  0  0  0  0  0  0  0
    1.9376    0.8921    1.4912 C   0  0  0  0  0  0  0  0  0  0  0  0
    1.6013   -0.0750    0.5787 N   0  0  0  0  0  0  0  0  0  0  0  0
    2.7313   -0.8160    0.4862 C   0  0  0  0  0  0  0  0  0  0  0  0
    3.1062   -1.8909   -0.2934 C   0  0  0  0  0  0  0  0  0  0  0  0
    2.3051   -3.0031   -1.2320 S   0  0  0  0  0  0  0  0  0  0  0  0
    0.5556   -0.0391   -0.4609 C   0  0  0  0  0  0  0  0  0  0  0  0
   -0.4202   -1.2233   -0.3415 C   0  0  0  0  0  0  0  0  0  0  0  0
   -1.2464    1.3404    1.8813 C   0  0  0  0  0  0  0  0  0  0  0  0
   -1.8439    1.2798    3.2942 C   0  0  0  0  0  0  0  0  0  0  0  0
   -4.1197    7.0573    1.7108 C   0  0  0  0  0  0  0  0  0  0  0  0
   -4.1093    8.4213    1.4324 C   0  0  0  0  0  0  0  0  0  0  0  0
   -5.2688    8.9242    0.9336 N   0  0  0  0  0  0  0  0  0  0  0  0
   -6.2023    7.9613    0.7632 C   0  0  0  0  0  0  0  0  0  0  0  0
   -5.6255    6.4617    1.2719 S   0  0  0  0  0  0  0  0  0  0  0  0
   -7.5559    8.2341    0.2569 C   0  0  0  0  0  0  0  0  0  0  0  0
   -8.2395    7.3968   -0.5418 C   0  0  0  0  0  0  0  0  0  0  0  0
   -9.6909    7.4157   -0.6695 C   0  0  0  0  0  0  0  0  0  0  0  0
  -10.4455    8.3626   -0.3225 O   0  0  0  0  0  0  0  0  0  0  0  0
  -10.1182    6.1194   -1.1732 C   0  0  0  0  0  0  0  0  0  0  0  0
   -8.9955    5.3476   -1.4398 C   0  0  0  0  0  0  0  0  0  0  0  0
   -9.1380    4.0438   -1.9341 C   0  0  0  0  0  0  0  0  0  0  0  0
  -10.4209    3.5403   -2.1678 C   0  0  0  0  0  0  0  0  0  0  0  0
  -11.5611    4.3285   -1.9089 C   0  0  0  0  0  0  0  0  0  0  0  0
  -13.2837    3.5742   -2.2671 Br  0  0  0  0  0  0  0  0  0  0  0  0
  -11.4150    5.6353   -1.3947 C   0  0  0  0  0  0  0  0  0  0  0  0
  -12.8249    6.6424   -1.0893 Cl  0  0  0  0  0  0  0  0  0  0  0  0
   -7.7649    6.1472   -1.2001 C   0  0  0  0  0  0  0  0  0  0  0  0
   -6.5840    6.0004   -1.8527 C   0  0  0  0  0  0  0  0  0  0  0  0
   -6.1330    4.7374   -2.3824 C   0  0  0  0  0  0  0  0  0  0  0  0
   -5.7563    3.7240   -2.7808 N   0  0  0  0  0  0  0  0  0  0  0  0
   -5.7290    7.1328   -2.1007 C   0  0  0  0  0  0  0  0  0  0  0  0
   -5.0492    8.0458   -2.3058 N   0  0  0  0  0  0  0  0  0  0  0  0
    1.9303   -9.1038   -4.8219 H   0  0  0  0  0  0  0  0  0  0  0  0
   -3.1933   -8.3116   -7.0622 H   0  0  0  0  0  0  0  0  0  0  0  0
   -4.7395   -6.4284   -6.9723 H   0  0  0  0  0  0  0  0  0  0  0  0
    0.7979   -7.0469    2.4187 H   0  0  0  0  0  0  0  0  0  0  0  0
    2.4126   -7.8203    2.6496 H   0  0  0  0  0  0  0  0  0  0  0  0
    2.2967   -5.6220    3.7748 H   0  0  0  0  0  0  0  0  0  0  0  0
    3.5106   -5.5660    2.4430 H   0  0  0  0  0  0  0  0  0  0  0  0
    1.8731   -4.8113    2.2208 H   0  0  0  0  0  0  0  0  0  0  0  0
    0.8228  -10.2822    0.1180 H   0  0  0  0  0  0  0  0  0  0  0  0
    0.9046   -9.4304    1.6884 H   0  0  0  0  0  0  0  0  0  0  0  0
   -1.4513   -9.7703    0.9892 H   0  0  0  0  0  0  0  0  0  0  0  0
   -1.1463   -8.9242   -0.5740 H   0  0  0  0  0  0  0  0  0  0  0  0
   -1.0713   -8.0034    0.9880 H   0  0  0  0  0  0  0  0  0  0  0  0
    5.5611   -5.9116   -0.0511 H   0  0  0  0  0  0  0  0  0  0  0  0
    7.8339   -6.8660   -0.1462 H   0  0  0  0  0  0  0  0  0  0  0  0
    9.7252   -5.5088   -0.9710 H   0  0  0  0  0  0  0  0  0  0  0  0
   10.6290   -3.2594   -1.4307 H   0  0  0  0  0  0  0  0  0  0  0  0
    9.5302   -1.8535   -1.6066 H   0  0  0  0  0  0  0  0  0  0  0  0
   10.5658   -2.4469   -3.7870 H   0  0  0  0  0  0  0  0  0  0  0  0
    9.9009   -4.1208   -3.6783 H   0  0  0  0  0  0  0  0  0  0  0  0
    8.7814   -2.7095   -3.8543 H   0  0  0  0  0  0  0  0  0  0  0  0
    7.0644   -2.1762   -1.5897 H   0  0  0  0  0  0  0  0  0  0  0  0
    0.3309    8.3514    3.0921 H   0  0  0  0  0  0  0  0  0  0  0  0
    0.4462   10.5089    4.2627 H   0  0  0  0  0  0  0  0  0  0  0  0
   -1.5740   11.4838    5.2726 H   0  0  0  0  0  0  0  0  0  0  0  0
   -3.9606   11.4955    5.5222 H   0  0  0  0  0  0  0  0  0  0  0  0
   -4.8959   10.3343    4.5331 H   0  0  0  0  0  0  0  0  0  0  0  0
   -3.8404    9.7577    7.3894 H   0  0  0  0  0  0  0  0  0  0  0  0
   -5.5298   10.2584    6.9516 H   0  0  0  0  0  0  0  0  0  0  0  0
   -4.8860    8.6694    6.3724 H   0  0  0  0  0  0  0  0  0  0  0  0
   -3.8004    7.9470    4.2501 H   0  0  0  0  0  0  0  0  0  0  0  0
    1.0367   -0.0714   -1.4674 H   0  0  0  0  0  0  0  0  0  0  0  0
    0.0055    0.9234   -0.4330 H   0  0  0  0  0  0  0  0  0  0  0  0
   -0.3093   -1.9137   -1.1994 H   0  0  0  0  0  0  0  0  0  0  0  0
   -0.2532   -1.7897    0.6011 H   0  0  0  0  0  0  0  0  0  0  0  0
   -1.4704   -0.8503   -0.3474 H   0  0  0  0  0  0  0  0  0  0  0  0
   -0.8863    0.3206    1.6721 H   0  0  0  0  0  0  0  0  0  0  0  0
   -2.0335    1.6203    1.1448 H   0  0  0  0  0  0  0  0  0  0  0  0
   -1.0355    1.0866    4.0369 H   0  0  0  0  0  0  0  0  0  0  0  0
   -2.3574    2.2292    3.5430 H   0  0  0  0  0  0  0  0  0  0  0  0
   -2.5864    0.4554    3.3487 H   0  0  0  0  0  0  0  0  0  0  0  0
   -3.2284    9.0445    1.5399 H   0  0  0  0  0  0  0  0  0  0  0  0
   -8.0370    9.1344    0.6035 H   0  0  0  0  0  0  0  0  0  0  0  0
   -8.2901    3.4184   -2.1492 H   0  0  0  0  0  0  0  0  0  0  0  0
  -10.5389    2.5476   -2.5946 H   0  0  0  0  0  0  0  0  0  0  0  0
  1  2  2  3
  2  3  1  0
  3  4  2  0
  3  5  1  0
  5  6  2  0
  6  7  1  0
  7  8  2  0
  8  9  1  0
  9 10  1  0
  9 11  2  0
 11 12  1  0
  6 13  1  0
 13 14  2  3
 14 15  1  0
 15 16  3  0
 14 17  1  0
 17 18  3  0
  1 19  1  0
 19 20  2  0
 20 21  1  0
 20 22  1  0
 22 23  1  0
 22 24  2  0
 24 25  1  0
 25 26  2  0
 26 27  1  0
 27 28  1  0
 28 29  1  0
 27 30  2  0
 30 31  1  0
 31 32  2  0
 30 33  1  0
 33 34  1  0
 24 35  1  0
 35 36  2  0
 36 37  1  0
 37 38  2  0
 38 39  1  0
 39 40  2  0
 40 41  1  0
 41 42  1  0
 42 43  1  0
 41 44  2  0
 36 45  1  0
 45 46  1  0
 46 47  1  0
 47 48  1  0
 48 49  1  0
 49 50  1  0
 50 51  2  0
 51 52  1  0
 52 53  1  0
 50 54  1  0
 54 55  1  0
 55 56  1  0
 56 57  1  0
 57 58  1  0
 58 59  1  0
 59 60  2  0
 60 61  1  0
 61 62  2  0
 62 63  1  0
 63 64  1  0
 64 65  1  0
 63 66  2  0
 58 67  2  0
 67 68  1  0
 68 69  1  0
 69 70  1  0
 70 71  1  0
 71 72  1  0
 72 73  1  0
 73 74  1  0
 74 75  1  0
 75 76  1  0
 76 77  1  0
 74 78  1  0
 78 79  1  0
 71 80  1  0
 80 81  1  0
 67 82  1  0
 82 83  2  0
 83 84  1  0
 84 85  2  0
 85 86  1  0
 85 87  1  0
 87 88  2  3
 88 89  1  0
 89 90  2  0
 89 91  1  0
 91 92  2  0
 92 93  1  0
 93 94  2  0
 94 95  1  0
 95 96  1  0
 95 97  2  0
 97 98  1  0
 92 99  1  0
 99100  2  3
100101  1  0
101102  3  0
100103  1  0
103104  3  0
 13  2  1  0
 32 19  1  0
 77 35  1  0
 86 82  1  0
 99 88  1  0
 11  5  1  0
 32 25  1  0
 44 37  1  0
 76 45  2  0
 97 91  1  0
 75 47  2  0
 73 48  2  0
 53 49  2  0
 72 54  2  0
 70 55  2  0
 69 57  2  0
 66 59  1  0
  1105  1  0
  7106  1  0
  8107  1  0
 28108  1  0
 28109  1  0
 29110  1  0
 29111  1  0
 29112  1  0
 33113  1  0
 33114  1  0
 34115  1  0
 34116  1  0
 34117  1  0
 38118  1  0
 39119  1  0
 40120  1  0
 42121  1  0
 42122  1  0
 43123  1  0
 43124  1  0
 43125  1  0
 44126  1  0
 60127  1  0
 61128  1  0
 62129  1  0
 64130  1  0
 64131  1  0
 65132  1  0
 65133  1  0
 65134  1  0
 66135  1  0
 78136  1  0
 78137  1  0
 79138  1  0
 79139  1  0
 79140  1  0
 80141  1  0
 80142  1  0
 81143  1  0
 81144  1  0
 81145  1  0
 83146  1  0
 87147  1  0
 93148  1  0
 94149  1  0
M  END

