
     RDKit          3D

175193  0  0  0  0  0  0  0  0999 V2000
    3.5202    8.6513   -0.6246 C   0  0  0  0  0  0  0  0  0  0  0  0
    3.3062    7.4195   -1.1371 C   0  0  0  0  0  0  0  0  0  0  0  0
    2.1819    6.5173   -0.8229 C   0  0  0  0  0  0  0  0  0  0  0  0
    1.4021    6.6165    0.1674 O   0  0  0  0  0  0  0  0  0  0  0  0
    2.1421    5.4552   -1.8098 C   0  0  0  0  0  0  0  0  0  0  0  0
    3.2227    5.5909   -2.6597 C   0  0  0  0  0  0  0  0  0  0  0  0
    3.3772    4.7142   -3.7441 C   0  0  0  0  0  0  0  0  0  0  0  0
    2.4489    3.6758   -3.9177 C   0  0  0  0  0  0  0  0  0  0  0  0
    1.3609    3.5327   -3.0363 C   0  0  0  0  0  0  0  0  0  0  0  0
    0.1326    2.0878   -3.3253 Br  0  0  0  0  0  0  0  0  0  0  0  0
    1.1797    4.4476   -1.9851 C   0  0  0  0  0  0  0  0  0  0  0  0
   -0.2319    4.3470   -0.9339 Cl  0  0  0  0  0  0  0  0  0  0  0  0
    4.0768    6.7378   -2.2225 C   0  0  0  0  0  0  0  0  0  0  0  0
    5.4074    6.8872   -2.4718 C   0  0  0  0  0  0  0  0  0  0  0  0
    6.2350    7.7809   -1.7151 C   0  0  0  0  0  0  0  0  0  0  0  0
    6.9324    8.4880   -1.1111 N   0  0  0  0  0  0  0  0  0  0  0  0
    6.1267    6.0182   -3.3658 C   0  0  0  0  0  0  0  0  0  0  0  0
    6.7152    5.3187   -4.0746 N   0  0  0  0  0  0  0  0  0  0  0  0
    2.8689    9.0829    0.6342 C   0  0  0  0  0  0  0  0  0  0  0  0
    1.5062    9.4271    0.6546 C   0  0  0  0  0  0  0  0  0  0  0  0
    0.8505    9.6748   -0.5106 F   0  0  0  0  0  0  0  0  0  0  0  0
    0.7674    9.2691    1.8374 C   0  0  0  0  0  0  0  0  0  0  0  0
   -0.5831    9.3063    1.7547 F   0  0  0  0  0  0  0  0  0  0  0  0
    1.3987    8.7844    3.0021 C   0  0  0  0  0  0  0  0  0  0  0  0
    2.8072    8.7689    3.0425 C   0  0  0  0  0  0  0  0  0  0  0  0
    3.4571    8.4025    4.1771 N   0  0  0  0  0  0  0  0  0  0  0  0
    4.7832    8.1042    4.2049 C   0  0  0  0  0  0  0  0  0  0  0  0
    5.3695    7.6532    5.5220 C   0  0  0  0  0  0  0  0  0  0  0  0
    4.6575    6.4071    6.0418 C   0  0  0  0  0  0  0  0  0  0  0  0
    5.5137    8.1710    2.9878 C   0  0  0  0  0  0  0  0  0  0  0  0
    4.8544    8.5320    1.8539 N   0  0  0  0  0  0  0  0  0  0  0  0
    3.5339    8.8551    1.8458 C   0  0  0  0  0  0  0  0  0  0  0  0
    6.9403    7.7226    2.8333 C   0  0  0  0  0  0  0  0  0  0  0  0
    6.9856    6.2236    2.5535 C   0  0  0  0  0  0  0  0  0  0  0  0
    0.7384    7.6834    3.7315 C   0  0  0  0  0  0  0  0  0  0  0  0
   -0.5304    7.6326    4.3593 C   0  0  0  0  0  0  0  0  0  0  0  0
   -1.3316    8.7970    4.7518 C   0  0  0  0  0  0  0  0  0  0  0  0
   -2.4537    9.1786    3.9960 C   0  0  0  0  0  0  0  0  0  0  0  0
   -3.2213   10.2743    4.3907 C   0  0  0  0  0  0  0  0  0  0  0  0
   -2.9053   10.9670    5.5630 C   0  0  0  0  0  0  0  0  0  0  0  0
   -1.8075   10.5733    6.3438 C   0  0  0  0  0  0  0  0  0  0  0  0
   -1.5609   11.2373    7.6759 C   0  0  0  0  0  0  0  0  0  0  0  0
   -2.4316   10.5960    8.7545 C   0  0  0  0  0  0  0  0  0  0  0  0
   -1.0196    9.4891    5.9318 C   0  0  0  0  0  0  0  0  0  0  0  0
   -0.9285    6.3026    4.5660 C   0  0  0  0  0  0  0  0  0  0  0  0
   -2.4135    5.5643    4.9702 S   0  0  0  0  0  0  0  0  0  0  0  0
   -1.7938    4.0114    4.6126 C   0  0  0  0  0  0  0  0  0  0  0  0
   -2.3323    2.8309    4.1493 C   0  0  0  0  0  0  0  0  0  0  0  0
   -3.6713    2.4266    4.0237 C   0  0  0  0  0  0  0  0  0  0  0  0
   -3.9762    1.2929    3.2104 C   0  0  0  0  0  0  0  0  0  0  0  0
   -5.2823    0.9502    3.0990 N   0  0  0  0  0  0  0  0  0  0  0  0
   -5.9612    2.1313    4.0411 S   0  0  0  0  0  0  0  0  0  0  0  0
   -4.7184    3.0680    4.6023 N   0  0  0  0  0  0  0  0  0  0  0  0
   -2.9248    0.6298    2.5628 C   0  0  0  0  0  0  0  0  0  0  0  0
   -2.8870   -0.4869    1.7728 C   0  0  0  0  0  0  0  0  0  0  0  0
   -3.8982   -1.7609    1.2720 S   0  0  0  0  0  0  0  0  0  0  0  0
   -2.5541   -2.6171    0.6344 C   0  0  0  0  0  0  0  0  0  0  0  0
   -2.3792   -3.8805    0.0506 C   0  0  0  0  0  0  0  0  0  0  0  0
   -3.4481   -4.9059   -0.0312 C   0  0  0  0  0  0  0  0  0  0  0  0
   -3.1941   -6.2153    0.4120 C   0  0  0  0  0  0  0  0  0  0  0  0
   -4.2241   -7.1538    0.4772 C   0  0  0  0  0  0  0  0  0  0  0  0
   -5.5202   -6.8006    0.1040 C   0  0  0  0  0  0  0  0  0  0  0  0
   -5.7952   -5.5009   -0.3539 C   0  0  0  0  0  0  0  0  0  0  0  0
   -7.2032   -5.1162   -0.7210 C   0  0  0  0  0  0  0  0  0  0  0  0
   -7.6019   -5.7019   -2.0721 C   0  0  0  0  0  0  0  0  0  0  0  0
   -4.7479   -4.5617   -0.4384 C   0  0  0  0  0  0  0  0  0  0  0  0
   -1.0091   -4.1115   -0.2213 C   0  0  0  0  0  0  0  0  0  0  0  0
   -0.0680   -2.7987    0.3062 S   0  0  0  0  0  0  0  0  0  0  0  0
   -1.3859   -1.9360    0.8589 C   0  0  0  0  0  0  0  0  0  0  0  0
   -1.5817   -0.7340    1.5020 C   0  0  0  0  0  0  0  0  0  0  0  0
   -0.7453    0.1058    2.1469 N   0  0  0  0  0  0  0  0  0  0  0  0
   -1.5898    1.0157    2.7224 C   0  0  0  0  0  0  0  0  0  0  0  0
   -1.2936    2.1844    3.4593 C   0  0  0  0  0  0  0  0  0  0  0  0
   -0.1800    2.9864    3.3921 N   0  0  0  0  0  0  0  0  0  0  0  0
   -0.5132    4.0634    4.1439 C   0  0  0  0  0  0  0  0  0  0  0  0
   -0.0284    5.3580    4.1372 C   0  0  0  0  0  0  0  0  0  0  0  0
    1.2885    6.1018    3.4602 S   0  0  0  0  0  0  0  0  0  0  0  0
    0.8301    3.0066    2.3214 C   0  0  0  0  0  0  0  0  0  0  0  0
    2.2543    2.8605    2.8770 C   0  0  0  0  0  0  0  0  0  0  0  0
    0.5836   -0.2948    2.6313 C   0  0  0  0  0  0  0  0  0  0  0  0
    0.4794   -1.4067    3.6757 C   0  0  0  0  0  0  0  0  0  0  0  0
   -0.4322   -5.2296   -0.9865 C   0  0  0  0  0  0  0  0  0  0  0  0
    0.4915   -6.0917   -0.3780 C   0  0  0  0  0  0  0  0  0  0  0  0
    0.7797   -5.9626    0.9403 F   0  0  0  0  0  0  0  0  0  0  0  0
    1.1184   -7.0962   -1.1234 C   0  0  0  0  0  0  0  0  0  0  0  0
    1.9836   -7.9435   -0.5031 F   0  0  0  0  0  0  0  0  0  0  0  0
    0.8680   -7.2285   -2.4968 C   0  0  0  0  0  0  0  0  0  0  0  0
   -0.0059   -6.3189   -3.1247 C   0  0  0  0  0  0  0  0  0  0  0  0
   -0.1862   -6.3393   -4.4724 N   0  0  0  0  0  0  0  0  0  0  0  0
   -1.0214   -5.4761   -5.1139 C   0  0  0  0  0  0  0  0  0  0  0  0
   -1.0890   -5.5693   -6.6189 C   0  0  0  0  0  0  0  0  0  0  0  0
    0.2404   -5.1487   -7.2414 C   0  0  0  0  0  0  0  0  0  0  0  0
   -1.7336   -4.5241   -4.3392 C   0  0  0  0  0  0  0  0  0  0  0  0
   -1.5252   -4.4842   -2.9937 N   0  0  0  0  0  0  0  0  0  0  0  0
   -0.6840   -5.3445   -2.3630 C   0  0  0  0  0  0  0  0  0  0  0  0
   -2.6665   -3.4911   -4.9281 C   0  0  0  0  0  0  0  0  0  0  0  0
   -1.9070   -2.2254   -5.2988 C   0  0  0  0  0  0  0  0  0  0  0  0
    1.5676   -8.2857   -3.2614 C   0  0  0  0  0  0  0  0  0  0  0  0
    0.9297   -9.3091   -3.8626 C   0  0  0  0  0  0  0  0  0  0  0  0
   -0.4991   -9.6130   -3.7387 C   0  0  0  0  0  0  0  0  0  0  0  0
   -1.4261   -8.8026   -3.4601 O   0  0  0  0  0  0  0  0  0  0  0  0
   -0.6932  -11.0186   -4.0105 C   0  0  0  0  0  0  0  0  0  0  0  0
   -1.8717  -11.7538   -3.9130 C   0  0  0  0  0  0  0  0  0  0  0  0
   -1.8208  -13.1365   -4.1449 C   0  0  0  0  0  0  0  0  0  0  0  0
   -2.9873  -13.9147   -4.0637 C   0  0  0  0  0  0  0  0  0  0  0  0
   -2.9241  -15.2978   -4.2600 C   0  0  0  0  0  0  0  0  0  0  0  0
   -1.6958  -15.9166   -4.5358 C   0  0  0  0  0  0  0  0  0  0  0  0
   -1.6438  -17.2581   -4.7242 F   0  0  0  0  0  0  0  0  0  0  0  0
   -0.5306  -15.1518   -4.6326 C   0  0  0  0  0  0  0  0  0  0  0  0
   -0.5744  -13.7616   -4.4374 C   0  0  0  0  0  0  0  0  0  0  0  0
    0.6028  -12.9909   -4.5290 C   0  0  0  0  0  0  0  0  0  0  0  0
    0.5224  -11.5987   -4.3372 C   0  0  0  0  0  0  0  0  0  0  0  0
    1.5770  -10.5484   -4.3830 C   0  0  0  0  0  0  0  0  0  0  0  0
    2.8234  -10.6506   -4.9179 C   0  0  0  0  0  0  0  0  0  0  0  0
    3.3988  -11.9077   -5.3222 C   0  0  0  0  0  0  0  0  0  0  0  0
    3.8755  -12.9205   -5.6347 N   0  0  0  0  0  0  0  0  0  0  0  0
    3.6224   -9.4834   -5.2080 C   0  0  0  0  0  0  0  0  0  0  0  0
    4.2765   -8.5557   -5.4382 N   0  0  0  0  0  0  0  0  0  0  0  0
    4.2890    9.2880   -1.0293 H   0  0  0  0  0  0  0  0  0  0  0  0
    4.1659    4.8219   -4.4689 H   0  0  0  0  0  0  0  0  0  0  0  0
    2.5782    2.9935   -4.7446 H   0  0  0  0  0  0  0  0  0  0  0  0
    6.4525    7.4371    5.4643 H   0  0  0  0  0  0  0  0  0  0  0  0
    5.2519    8.4727    6.2587 H   0  0  0  0  0  0  0  0  0  0  0  0
    4.7276    5.5847    5.2961 H   0  0  0  0  0  0  0  0  0  0  0  0
    3.5847    6.6269    6.2492 H   0  0  0  0  0  0  0  0  0  0  0  0
    5.1333    6.0743    6.9873 H   0  0  0  0  0  0  0  0  0  0  0  0
    7.5628    7.9801    3.7087 H   0  0  0  0  0  0  0  0  0  0  0  0
    7.3980    8.2583    1.9702 H   0  0  0  0  0  0  0  0  0  0  0  0
    8.0425    5.8858    2.4734 H   0  0  0  0  0  0  0  0  0  0  0  0
    6.4659    6.0096    1.5909 H   0  0  0  0  0  0  0  0  0  0  0  0
    6.4820    5.6609    3.3666 H   0  0  0  0  0  0  0  0  0  0  0  0
   -2.7225    8.6285    3.1056 H   0  0  0  0  0  0  0  0  0  0  0  0
   -4.0780   10.5793    3.8037 H   0  0  0  0  0  0  0  0  0  0  0  0
   -3.5325   11.7877    5.8817 H   0  0  0  0  0  0  0  0  0  0  0  0
   -0.4958   11.1474    7.9699 H   0  0  0  0  0  0  0  0  0  0  0  0
   -1.7996   12.3198    7.6075 H   0  0  0  0  0  0  0  0  0  0  0  0
   -3.4952   10.5653    8.4310 H   0  0  0  0  0  0  0  0  0  0  0  0
   -2.0894    9.5577    8.9605 H   0  0  0  0  0  0  0  0  0  0  0  0
   -2.3694   11.1895    9.6909 H   0  0  0  0  0  0  0  0  0  0  0  0
   -0.1827    9.1672    6.5428 H   0  0  0  0  0  0  0  0  0  0  0  0
   -2.2056   -6.4990    0.7617 H   0  0  0  0  0  0  0  0  0  0  0  0
   -4.0248   -8.1513    0.8475 H   0  0  0  0  0  0  0  0  0  0  0  0
   -6.3122   -7.5290    0.1863 H   0  0  0  0  0  0  0  0  0  0  0  0
   -7.3095   -4.0076   -0.7599 H   0  0  0  0  0  0  0  0  0  0  0  0
   -7.9064   -5.4805    0.0612 H   0  0  0  0  0  0  0  0  0  0  0  0
   -7.6036   -6.8120   -2.0279 H   0  0  0  0  0  0  0  0  0  0  0  0
   -6.9048   -5.3608   -2.8662 H   0  0  0  0  0  0  0  0  0  0  0  0
   -8.6243   -5.3530   -2.3301 H   0  0  0  0  0  0  0  0  0  0  0  0
   -4.9567   -3.5545   -0.7894 H   0  0  0  0  0  0  0  0  0  0  0  0
    0.6284    2.2106    1.5753 H   0  0  0  0  0  0  0  0  0  0  0  0
    0.7527    3.9570    1.7476 H   0  0  0  0  0  0  0  0  0  0  0  0
    2.2612    2.3457    3.8598 H   0  0  0  0  0  0  0  0  0  0  0  0
    2.8828    2.2826    2.1563 H   0  0  0  0  0  0  0  0  0  0  0  0
    2.7407    3.8461    3.0145 H   0  0  0  0  0  0  0  0  0  0  0  0
    1.0906    0.5367    3.1276 H   0  0  0  0  0  0  0  0  0  0  0  0
    1.2098   -0.6373    1.7765 H   0  0  0  0  0  0  0  0  0  0  0  0
   -0.1575   -1.0700    4.5246 H   0  0  0  0  0  0  0  0  0  0  0  0
    1.4957   -1.6423    4.0625 H   0  0  0  0  0  0  0  0  0  0  0  0
    0.0484   -2.3317    3.2437 H   0  0  0  0  0  0  0  0  0  0  0  0
   -1.2984   -6.6249   -6.8954 H   0  0  0  0  0  0  0  0  0  0  0  0
   -1.8932   -4.9546   -7.0648 H   0  0  0  0  0  0  0  0  0  0  0  0
    1.0693   -5.7926   -6.8696 H   0  0  0  0  0  0  0  0  0  0  0  0
    0.4671   -4.0891   -6.9950 H   0  0  0  0  0  0  0  0  0  0  0  0
    0.1869   -5.2694   -8.3400 H   0  0  0  0  0  0  0  0  0  0  0  0
   -3.2335   -3.8814   -5.7932 H   0  0  0  0  0  0  0  0  0  0  0  0
   -3.4348   -3.2336   -4.1653 H   0  0  0  0  0  0  0  0  0  0  0  0
   -2.6211   -1.4700   -5.6939 H   0  0  0  0  0  0  0  0  0  0  0  0
   -1.1494   -2.4407   -6.0796 H   0  0  0  0  0  0  0  0  0  0  0  0
   -1.4047   -1.8084   -4.4029 H   0  0  0  0  0  0  0  0  0  0  0  0
    2.6404   -8.3266   -3.1481 H   0  0  0  0  0  0  0  0  0  0  0  0
   -2.8043  -11.2556   -3.6706 H   0  0  0  0  0  0  0  0  0  0  0  0
   -3.9473  -13.4551   -3.8515 H   0  0  0  0  0  0  0  0  0  0  0  0
   -3.8208  -15.8948   -4.1811 H   0  0  0  0  0  0  0  0  0  0  0  0
    0.4133  -15.6466   -4.8470 H   0  0  0  0  0  0  0  0  0  0  0  0
    1.5300  -13.4882   -4.7392 H   0  0  0  0  0  0  0  0  0  0  0  0
  1  2  2  3
  2  3  1  0
  3  4  2  0
  3  5  1  0
  5  6  2  0
  6  7  1  0
  7  8  2  0
  8  9  1  0
  9 10  1  0
  9 11  2  0
 11 12  1  0
  6 13  1  0
 13 14  2  3
 14 15  1  0
 15 16  3  0
 14 17  1  0
 17 18  3  0
  1 19  1  0
 19 20  2  0
 20 21  1  0
 20 22  1  0
 22 23  1  0
 22 24  2  0
 24 25  1  0
 25 26  2  0
 26 27  1  0
 27 28  1  0
 28 29  1  0
 27 30  2  0
 30 31  1  0
 31 32  2  0
 30 33  1  0
 33 34  1  0
 24 35  1  0
 35 36  2  0
 36 37  1  0
 37 38  2  0
 38 39  1  0
 39 40  2  0
 40 41  1  0
 41 42  1  0
 42 43  1  0
 41 44  2  0
 36 45  1  0
 45 46  1  0
 46 47  1  0
 47 48  1  0
 48 49  1  0
 49 50  1  0
 50 51  2  0
 51 52  1  0
 52 53  1  0
 50 54  1  0
 54 55  1  0
 55 56  1  0
 56 57  1  0
 57 58  1  0
 58 59  1  0
 59 60  2  0
 60 61  1  0
 61 62  2  0
 62 63  1  0
 63 64  1  0
 64 65  1  0
 63 66  2  0
 58 67  2  0
 67 68  1  0
 68 69  1  0
 69 70  1  0
 70 71  1  0
 71 72  1  0
 72 73  1  0
 73 74  1  0
 74 75  1  0
 75 76  1  0
 76 77  1  0
 74 78  1  0
 78 79  1  0
 71 80  1  0
 80 81  1  0
 67 82  1  0
 82 83  2  0
 83 84  1  0
 83 85  1  0
 85 86  1  0
 85 87  2  0
 87 88  1  0
 88 89  2  0
 89 90  1  0
 90 91  1  0
 91 92  1  0
 90 93  2  0
 93 94  1  0
 94 95  2  0
 93 96  1  0
 96 97  1  0
 87 98  1  0
 98 99  2  3
 99100  1  0
100101  2  0
100102  1  0
102103  2  0
103104  1  0
104105  2  0
105106  1  0
106107  2  0
107108  1  0
107109  1  0
109110  2  0
110111  1  0
111112  2  0
112113  1  0
113114  2  3
114115  1  0
115116  3  0
114117  1  0
117118  3  0
 13  2  1  0
 32 19  1  0
 77 35  1  0
 95 82  1  0
113 99  1  0
 11  5  1  0
 32 25  1  0
 44 37  1  0
 76 45  2  0
 95 88  1  0
112102  1  0
 75 47  2  0
110104  1  0
 73 48  2  0
 53 49  2  0
 72 54  2  0
 70 55  2  0
 69 57  2  0
 66 59  1  0
  1119  1  0
  7120  1  0
  8121  1  0
 28122  1  0
 28123  1  0
 29124  1  0
 29125  1  0
 29126  1  0
 33127  1  0
 33128  1  0
 34129  1  0
 34130  1  0
 34131  1  0
 38132  1  0
 39133  1  0
 40134  1  0
 42135  1  0
 42136  1  0
 43137  1  0
 43138  1  0
 43139  1  0
 44140  1  0
 60141  1  0
 61142  1  0
 62143  1  0
 64144  1  0
 64145  1  0
 65146  1  0
 65147  1  0
 65148  1  0
 66149  1  0
 78150  1  0
 78151  1  0
 79152  1  0
 79153  1  0
 79154  1  0
 80155  1  0
 80156  1  0
 81157  1  0
 81158  1  0
 81159  1  0
 91160  1  0
 91161  1  0
 92162  1  0
 92163  1  0
 92164  1  0
 96165  1  0
 96166  1  0
 97167  1  0
 97168  1  0
 97169  1  0
 98170  1  0
103171  1  0
105172  1  0
106173  1  0
109174  1  0
111175  1  0
M  END

