
     RDKit          3D

194215  0  0  0  0  0  0  0  0999 V2000
    7.9702   -3.4787    6.6066 C   0  0  0  0  0  0  0  0  0  0  0  0
    8.7874   -2.4063    6.5653 C   0  0  0  0  0  0  0  0  0  0  0  0
    9.6077   -1.9952    5.4205 C   0  0  0  0  0  0  0  0  0  0  0  0
   10.0335   -2.7537    4.5098 O   0  0  0  0  0  0  0  0  0  0  0  0
    9.8613   -0.5665    5.5267 C   0  0  0  0  0  0  0  0  0  0  0  0
    9.3378   -0.1073    6.7291 C   0  0  0  0  0  0  0  0  0  0  0  0
    9.3544    1.2660    7.0173 C   0  0  0  0  0  0  0  0  0  0  0  0
    9.9352    2.1491    6.0978 C   0  0  0  0  0  0  0  0  0  0  0  0
   10.4844    1.6753    4.8903 C   0  0  0  0  0  0  0  0  0  0  0  0
   11.2453    2.9473    3.6722 Br  0  0  0  0  0  0  0  0  0  0  0  0
   10.4424    0.2990    4.5879 C   0  0  0  0  0  0  0  0  0  0  0  0
   11.0717   -0.3137    3.0587 Cl  0  0  0  0  0  0  0  0  0  0  0  0
    8.7634   -1.2449    7.5009 C   0  0  0  0  0  0  0  0  0  0  0  0
    8.4429   -1.2646    8.8216 C   0  0  0  0  0  0  0  0  0  0  0  0
    8.4389   -0.0832    9.6438 C   0  0  0  0  0  0  0  0  0  0  0  0
    8.4221    0.8626   10.3155 N   0  0  0  0  0  0  0  0  0  0  0  0
    8.2034   -2.4919    9.5369 C   0  0  0  0  0  0  0  0  0  0  0  0
    8.0241   -3.4692   10.1317 N   0  0  0  0  0  0  0  0  0  0  0  0
    7.6876   -4.3676    5.4568 C   0  0  0  0  0  0  0  0  0  0  0  0
    7.6360   -5.7586    5.6604 C   0  0  0  0  0  0  0  0  0  0  0  0
    7.1708   -6.6288    4.6564 C   0  0  0  0  0  0  0  0  0  0  0  0
    7.0806   -7.9569    4.9176 F   0  0  0  0  0  0  0  0  0  0  0  0
    6.7461   -6.1244    3.4176 C   0  0  0  0  0  0  0  0  0  0  0  0
    6.8045   -4.7380    3.1939 C   0  0  0  0  0  0  0  0  0  0  0  0
    7.2426   -3.8588    4.2216 C   0  0  0  0  0  0  0  0  0  0  0  0
    7.1343   -2.5314    3.9538 N   0  0  0  0  0  0  0  0  0  0  0  0
    6.5269   -2.5642    2.4185 S   0  0  0  0  0  0  0  0  0  0  0  0
    6.3553   -4.1598    2.0451 N   0  0  0  0  0  0  0  0  0  0  0  0
    5.9887   -6.9564    2.4714 C   0  0  0  0  0  0  0  0  0  0  0  0
    6.4491   -7.2812    1.1812 C   0  0  0  0  0  0  0  0  0  0  0  0
    7.8748   -7.3899    0.8212 C   0  0  0  0  0  0  0  0  0  0  0  0
    8.4285   -6.5927   -0.1957 C   0  0  0  0  0  0  0  0  0  0  0  0
    9.7581   -6.7751   -0.5884 C   0  0  0  0  0  0  0  0  0  0  0  0
   10.5434   -7.7527    0.0229 C   0  0  0  0  0  0  0  0  0  0  0  0
   10.0122   -8.5446    1.0541 C   0  0  0  0  0  0  0  0  0  0  0  0
   10.8371   -9.6501    1.6615 C   0  0  0  0  0  0  0  0  0  0  0  0
   10.6572  -10.9476    0.8781 C   0  0  0  0  0  0  0  0  0  0  0  0
    8.6764   -8.3537    1.4521 C   0  0  0  0  0  0  0  0  0  0  0  0
    5.3937   -7.3636    0.2619 C   0  0  0  0  0  0  0  0  0  0  0  0
    5.3581   -7.2884   -1.4377 S   0  0  0  0  0  0  0  0  0  0  0  0
    3.6963   -6.9377   -1.4569 C   0  0  0  0  0  0  0  0  0  0  0  0
    2.9378   -6.1335   -2.2712 C   0  0  0  0  0  0  0  0  0  0  0  0
    3.2859   -5.5378   -3.4983 C   0  0  0  0  0  0  0  0  0  0  0  0
    2.5729   -4.3790   -3.9334 C   0  0  0  0  0  0  0  0  0  0  0  0
    2.9921   -3.7873   -5.0764 N   0  0  0  0  0  0  0  0  0  0  0  0
    4.2592   -4.7844   -5.4552 S   0  0  0  0  0  0  0  0  0  0  0  0
    4.3310   -5.9322   -4.2640 N   0  0  0  0  0  0  0  0  0  0  0  0
    1.5073   -3.9220   -3.1540 C   0  0  0  0  0  0  0  0  0  0  0  0
    0.6967   -2.8257   -3.2646 C   0  0  0  0  0  0  0  0  0  0  0  0
    0.5322   -1.3988   -4.1752 S   0  0  0  0  0  0  0  0  0  0  0  0
   -0.7194   -0.8574   -3.1411 C   0  0  0  0  0  0  0  0  0  0  0  0
   -1.3973    0.3571   -3.0015 C   0  0  0  0  0  0  0  0  0  0  0  0
   -1.2703    1.4878   -3.9382 C   0  0  0  0  0  0  0  0  0  0  0  0
   -0.8169    2.7346   -3.4875 C   0  0  0  0  0  0  0  0  0  0  0  0
   -0.7119    3.8101   -4.3717 C   0  0  0  0  0  0  0  0  0  0  0  0
   -1.0489    3.6477   -5.7167 C   0  0  0  0  0  0  0  0  0  0  0  0
   -1.4791    2.3992   -6.1919 C   0  0  0  0  0  0  0  0  0  0  0  0
   -1.8129    2.2231   -7.6485 C   0  0  0  0  0  0  0  0  0  0  0  0
   -0.5453    2.1187   -8.4890 C   0  0  0  0  0  0  0  0  0  0  0  0
   -1.5738    1.3159   -5.2985 C   0  0  0  0  0  0  0  0  0  0  0  0
   -2.1867    0.3498   -1.8288 C   0  0  0  0  0  0  0  0  0  0  0  0
   -2.0018   -1.1247   -0.9928 S   0  0  0  0  0  0  0  0  0  0  0  0
   -0.9641   -1.7604   -2.1409 C   0  0  0  0  0  0  0  0  0  0  0  0
   -0.1616   -2.8744   -2.2208 C   0  0  0  0  0  0  0  0  0  0  0  0
   -0.0066   -3.9611   -1.4353 N   0  0  0  0  0  0  0  0  0  0  0  0
    1.1028   -4.5681   -1.9720 C   0  0  0  0  0  0  0  0  0  0  0  0
    1.9171   -5.6107   -1.4591 C   0  0  0  0  0  0  0  0  0  0  0  0
    2.1250   -5.9626   -0.1493 N   0  0  0  0  0  0  0  0  0  0  0  0
    3.1883   -6.8115   -0.1940 C   0  0  0  0  0  0  0  0  0  0  0  0
    4.1524   -7.0974    0.7786 C   0  0  0  0  0  0  0  0  0  0  0  0
    4.3012   -6.7749    2.4106 S   0  0  0  0  0  0  0  0  0  0  0  0
    1.7907   -5.1372    1.0245 C   0  0  0  0  0  0  0  0  0  0  0  0
    2.6921   -3.9048    1.1015 C   0  0  0  0  0  0  0  0  0  0  0  0
   -1.1404   -4.5467   -0.6876 C   0  0  0  0  0  0  0  0  0  0  0  0
   -1.1924   -6.0732   -0.7516 C   0  0  0  0  0  0  0  0  0  0  0  0
   -3.0470    1.4281   -1.3440 C   0  0  0  0  0  0  0  0  0  0  0  0
   -4.4378    1.4985   -1.5033 C   0  0  0  0  0  0  0  0  0  0  0  0
   -5.2011    0.6203   -2.3414 N   0  0  0  0  0  0  0  0  0  0  0  0
   -5.9897   -0.3969   -1.7012 C   0  0  0  0  0  0  0  0  0  0  0  0
   -5.4827   -1.6939   -1.5502 C   0  0  0  0  0  0  0  0  0  0  0  0
   -6.2519   -2.6869   -0.9384 C   0  0  0  0  0  0  0  0  0  0  0  0
   -7.5524   -2.4019   -0.4970 C   0  0  0  0  0  0  0  0  0  0  0  0
   -8.3677   -3.4705    0.1655 C   0  0  0  0  0  0  0  0  0  0  0  0
   -8.0650   -1.1046   -0.6570 C   0  0  0  0  0  0  0  0  0  0  0  0
   -7.2907   -0.1129   -1.2660 C   0  0  0  0  0  0  0  0  0  0  0  0
   -5.3020    0.8535   -3.7694 C   0  0  0  0  0  0  0  0  0  0  0  0
   -5.9218   -0.0930   -4.6114 C   0  0  0  0  0  0  0  0  0  0  0  0
   -6.0638    0.1486   -5.9791 C   0  0  0  0  0  0  0  0  0  0  0  0
   -5.5973    1.3492   -6.5388 C   0  0  0  0  0  0  0  0  0  0  0  0
   -5.7689    1.6316   -8.0018 C   0  0  0  0  0  0  0  0  0  0  0  0
   -4.9593    2.2864   -5.7183 C   0  0  0  0  0  0  0  0  0  0  0  0
   -4.8139    2.0446   -4.3489 C   0  0  0  0  0  0  0  0  0  0  0  0
   -4.9442    2.6619   -0.9320 C   0  0  0  0  0  0  0  0  0  0  0  0
   -6.4446    3.4132   -0.8993 S   0  0  0  0  0  0  0  0  0  0  0  0
   -5.8742    4.8337   -0.1385 C   0  0  0  0  0  0  0  0  0  0  0  0
   -4.5023    4.6820    0.1209 C   0  0  0  0  0  0  0  0  0  0  0  0
   -3.6615    5.7061    0.6707 N   0  0  0  0  0  0  0  0  0  0  0  0
   -3.3589    6.8702   -0.1287 C   0  0  0  0  0  0  0  0  0  0  0  0
   -3.2552    8.1376    0.4693 C   0  0  0  0  0  0  0  0  0  0  0  0
   -2.9732    9.2662   -0.3056 C   0  0  0  0  0  0  0  0  0  0  0  0
   -2.7948    9.1463   -1.6920 C   0  0  0  0  0  0  0  0  0  0  0  0
   -2.4513   10.3482   -2.5239 C   0  0  0  0  0  0  0  0  0  0  0  0
   -2.8762    7.8796   -2.2880 C   0  0  0  0  0  0  0  0  0  0  0  0
   -3.1635    6.7522   -1.5168 C   0  0  0  0  0  0  0  0  0  0  0  0
   -3.0484    5.4940    1.9583 C   0  0  0  0  0  0  0  0  0  0  0  0
   -1.7058    5.8521    2.1784 C   0  0  0  0  0  0  0  0  0  0  0  0
   -1.1099    5.6295    3.4208 C   0  0  0  0  0  0  0  0  0  0  0  0
   -1.8457    5.0547    4.4670 C   0  0  0  0  0  0  0  0  0  0  0  0
   -1.1885    4.7734    5.7854 C   0  0  0  0  0  0  0  0  0  0  0  0
   -3.1779    4.6765    4.2458 C   0  0  0  0  0  0  0  0  0  0  0  0
   -3.7765    4.8984    3.0021 C   0  0  0  0  0  0  0  0  0  0  0  0
   -4.0245    3.4607   -0.3367 C   0  0  0  0  0  0  0  0  0  0  0  0
   -2.4976    2.7783   -0.4588 S   0  0  0  0  0  0  0  0  0  0  0  0
   -6.6897    5.9459    0.3915 C   0  0  0  0  0  0  0  0  0  0  0  0
   -7.8261    6.4336   -0.1529 C   0  0  0  0  0  0  0  0  0  0  0  0
   -8.4765    5.9918   -1.3939 C   0  0  0  0  0  0  0  0  0  0  0  0
   -7.9106    5.4398   -2.3724 O   0  0  0  0  0  0  0  0  0  0  0  0
   -9.8620    6.4317   -1.3725 C   0  0  0  0  0  0  0  0  0  0  0  0
  -10.0667    7.2040   -0.2397 C   0  0  0  0  0  0  0  0  0  0  0  0
  -11.3561    7.6497    0.0790 C   0  0  0  0  0  0  0  0  0  0  0  0
  -12.4112    7.3612   -0.7960 C   0  0  0  0  0  0  0  0  0  0  0  0
  -12.1911    6.6175   -1.9691 C   0  0  0  0  0  0  0  0  0  0  0  0
  -13.6853    6.2657   -3.1145 Br  0  0  0  0  0  0  0  0  0  0  0  0
  -10.9024    6.1309   -2.2630 C   0  0  0  0  0  0  0  0  0  0  0  0
  -10.6105    5.1509   -3.6984 Cl  0  0  0  0  0  0  0  0  0  0  0  0
   -8.7847    7.3772    0.4966 C   0  0  0  0  0  0  0  0  0  0  0  0
   -8.4854    8.3729    1.3728 C   0  0  0  0  0  0  0  0  0  0  0  0
   -7.1382    8.6511    1.8021 C   0  0  0  0  0  0  0  0  0  0  0  0
   -6.0620    8.8867    2.1573 N   0  0  0  0  0  0  0  0  0  0  0  0
   -9.4662    9.3283    1.8217 C   0  0  0  0  0  0  0  0  0  0  0  0
  -10.2438   10.1047    2.1882 N   0  0  0  0  0  0  0  0  0  0  0  0
    7.3589   -3.6557    7.4762 H   0  0  0  0  0  0  0  0  0  0  0  0
    8.8969    1.6795    7.8987 H   0  0  0  0  0  0  0  0  0  0  0  0
    9.9487    3.2078    6.3152 H   0  0  0  0  0  0  0  0  0  0  0  0
    7.9187   -6.1717    6.6206 H   0  0  0  0  0  0  0  0  0  0  0  0
    7.8303   -5.8345   -0.6846 H   0  0  0  0  0  0  0  0  0  0  0  0
   10.1792   -6.1689   -1.3837 H   0  0  0  0  0  0  0  0  0  0  0  0
   11.5646   -7.9092   -0.3127 H   0  0  0  0  0  0  0  0  0  0  0  0
   10.5297   -9.8222    2.7145 H   0  0  0  0  0  0  0  0  0  0  0  0
   11.9119   -9.3664    1.6627 H   0  0  0  0  0  0  0  0  0  0  0  0
   10.9134  -10.7983   -0.1960 H   0  0  0  0  0  0  0  0  0  0  0  0
   11.3245  -11.7291    1.2962 H   0  0  0  0  0  0  0  0  0  0  0  0
    9.6040  -11.2973    0.9477 H   0  0  0  0  0  0  0  0  0  0  0  0
    8.2534   -8.9865    2.2227 H   0  0  0  0  0  0  0  0  0  0  0  0
   -0.5160    2.8710   -2.4581 H   0  0  0  0  0  0  0  0  0  0  0  0
   -0.3619    4.7716   -4.0146 H   0  0  0  0  0  0  0  0  0  0  0  0
   -0.9572    4.4893   -6.3929 H   0  0  0  0  0  0  0  0  0  0  0  0
   -2.4258    1.3080   -7.8031 H   0  0  0  0  0  0  0  0  0  0  0  0
   -2.4153    3.0898   -7.9960 H   0  0  0  0  0  0  0  0  0  0  0  0
    0.0694    1.2567   -8.1544 H   0  0  0  0  0  0  0  0  0  0  0  0
   -0.8155    1.9705   -9.5556 H   0  0  0  0  0  0  0  0  0  0  0  0
    0.0530    3.0514   -8.4037 H   0  0  0  0  0  0  0  0  0  0  0  0
   -1.9029    0.3484   -5.6595 H   0  0  0  0  0  0  0  0  0  0  0  0
    1.8698   -5.7310    1.9566 H   0  0  0  0  0  0  0  0  0  0  0  0
    0.7556   -4.8042    0.9958 H   0  0  0  0  0  0  0  0  0  0  0  0
    2.4478   -3.3130    2.0063 H   0  0  0  0  0  0  0  0  0  0  0  0
    2.5402   -3.2642    0.2095 H   0  0  0  0  0  0  0  0  0  0  0  0
    3.7570   -4.2022    1.1449 H   0  0  0  0  0  0  0  0  0  0  0  0
   -1.1615   -4.1720    0.3575 H   0  0  0  0  0  0  0  0  0  0  0  0
   -2.0918   -4.1902   -1.1372 H   0  0  0  0  0  0  0  0  0  0  0  0
   -2.1743   -6.4250   -0.3669 H   0  0  0  0  0  0  0  0  0  0  0  0
   -0.4182   -6.5318   -0.1085 H   0  0  0  0  0  0  0  0  0  0  0  0
   -1.0747   -6.4295   -1.7939 H   0  0  0  0  0  0  0  0  0  0  0  0
   -4.5018   -1.9420   -1.9236 H   0  0  0  0  0  0  0  0  0  0  0  0
   -5.8404   -3.6831   -0.8178 H   0  0  0  0  0  0  0  0  0  0  0  0
   -8.2944   -4.4150   -0.4149 H   0  0  0  0  0  0  0  0  0  0  0  0
   -9.4388   -3.1810    0.2263 H   0  0  0  0  0  0  0  0  0  0  0  0
   -7.9836   -3.6448    1.1919 H   0  0  0  0  0  0  0  0  0  0  0  0
   -9.0657   -0.8614   -0.3275 H   0  0  0  0  0  0  0  0  0  0  0  0
   -7.7063    0.8742   -1.4033 H   0  0  0  0  0  0  0  0  0  0  0  0
   -6.2951   -1.0297   -4.2164 H   0  0  0  0  0  0  0  0  0  0  0  0
   -6.5520   -0.5938   -6.5998 H   0  0  0  0  0  0  0  0  0  0  0  0
   -6.3440    0.8267   -8.5080 H   0  0  0  0  0  0  0  0  0  0  0  0
   -6.3143    2.5900   -8.1351 H   0  0  0  0  0  0  0  0  0  0  0  0
   -4.7751    1.7104   -8.4864 H   0  0  0  0  0  0  0  0  0  0  0  0
   -4.5807    3.2132   -6.1353 H   0  0  0  0  0  0  0  0  0  0  0  0
   -4.3270    2.7977   -3.7467 H   0  0  0  0  0  0  0  0  0  0  0  0
   -3.3970    8.2537    1.5379 H   0  0  0  0  0  0  0  0  0  0  0  0
   -2.8951   10.2347    0.1738 H   0  0  0  0  0  0  0  0  0  0  0  0
   -1.3503   10.4097   -2.6450 H   0  0  0  0  0  0  0  0  0  0  0  0
   -2.9207   10.2728   -3.5277 H   0  0  0  0  0  0  0  0  0  0  0  0
   -2.8150   11.2807   -2.0429 H   0  0  0  0  0  0  0  0  0  0  0  0
   -2.7125    7.7635   -3.3522 H   0  0  0  0  0  0  0  0  0  0  0  0
   -3.2133    5.7843   -1.9995 H   0  0  0  0  0  0  0  0  0  0  0  0
   -1.1153    6.2877    1.3810 H   0  0  0  0  0  0  0  0  0  0  0  0
   -0.0730    5.9021    3.5684 H   0  0  0  0  0  0  0  0  0  0  0  0
   -0.7306    3.7630    5.7614 H   0  0  0  0  0  0  0  0  0  0  0  0
   -1.9297    4.8171    6.6103 H   0  0  0  0  0  0  0  0  0  0  0  0
   -0.3971    5.5246    5.9957 H   0  0  0  0  0  0  0  0  0  0  0  0
   -3.7508    4.2081    5.0361 H   0  0  0  0  0  0  0  0  0  0  0  0
   -4.8095    4.6096    2.8546 H   0  0  0  0  0  0  0  0  0  0  0  0
   -6.3478    6.3322    1.3375 H   0  0  0  0  0  0  0  0  0  0  0  0
  -11.5753    8.1721    0.9953 H   0  0  0  0  0  0  0  0  0  0  0  0
  -13.4107    7.7042   -0.5574 H   0  0  0  0  0  0  0  0  0  0  0  0
  1  2  2  3
  2  3  1  0
  3  4  2  0
  3  5  1  0
  5  6  2  0
  6  7  1  0
  7  8  2  0
  8  9  1  0
  9 10  1  0
  9 11  2  0
 11 12  1  0
  6 13  1  0
 13 14  2  3
 14 15  1  0
 15 16  3  0
 14 17  1  0
 17 18  3  0
  1 19  1  0
 19 20  2  0
 20 21  1  0
 21 22  1  0
 21 23  2  0
 23 24  1  0
 24 25  1  0
 25 26  2  0
 26 27  1  0
 27 28  1  0
 23 29  1  0
 29 30  2  0
 30 31  1  0
 31 32  2  0
 32 33  1  0
 33 34  2  0
 34 35  1  0
 35 36  1  0
 36 37  1  0
 35 38  2  0
 30 39  1  0
 39 40  1  0
 40 41  1  0
 41 42  1  0
 42 43  1  0
 43 44  1  0
 44 45  2  0
 45 46  1  0
 46 47  1  0
 44 48  1  0
 48 49  1  0
 49 50  1  0
 50 51  1  0
 51 52  1  0
 52 53  1  0
 53 54  2  0
 54 55  1  0
 55 56  2  0
 56 57  1  0
 57 58  1  0
 58 59  1  0
 57 60  2  0
 52 61  2  0
 61 62  1  0
 62 63  1  0
 63 64  1  0
 64 65  1  0
 65 66  1  0
 66 67  1  0
 67 68  1  0
 68 69  1  0
 69 70  1  0
 70 71  1  0
 68 72  1  0
 72 73  1  0
 65 74  1  0
 74 75  1  0
 61 76  1  0
 76 77  2  0
 77 78  1  0
 78 79  1  0
 79 80  2  0
 80 81  1  0
 81 82  2  0
 82 83  1  0
 82 84  1  0
 84 85  2  0
 78 86  1  0
 86 87  2  0
 87 88  1  0
 88 89  2  0
 89 90  1  0
 89 91  1  0
 91 92  2  0
 77 93  1  0
 93 94  1  0
 94 95  1  0
 95 96  2  0
 96 97  1  0
 97 98  1  0
 98 99  2  0
 99100  1  0
100101  2  0
101102  1  0
101103  1  0
103104  2  0
 97105  1  0
105106  2  0
106107  1  0
107108  2  0
108109  1  0
108110  1  0
110111  2  0
 96112  1  0
112113  1  0
 95114  1  0
114115  2  3
115116  1  0
116117  2  0
116118  1  0
118119  2  0
119120  1  0
120121  2  0
121122  1  0
122123  1  0
122124  2  0
124125  1  0
119126  1  0
126127  2  3
127128  1  0
128129  3  0
127130  1  0
130131  3  0
 13  2  1  0
 25 19  1  0
 71 29  1  0
113 76  1  0
126115  1  0
 11  5  1  0
 28 24  2  0
 38 31  1  0
 70 39  2  0
 85 79  1  0
 92 86  1  0
112 93  2  0
124118  1  0
 69 41  2  0
104 98  1  0
111105  1  0
 67 42  2  0
 47 43  2  0
 66 48  2  0
 64 49  2  0
 63 51  2  0
 60 53  1  0
  1132  1  0
  7133  1  0
  8134  1  0
 20135  1  0
 32136  1  0
 33137  1  0
 34138  1  0
 36139  1  0
 36140  1  0
 37141  1  0
 37142  1  0
 37143  1  0
 38144  1  0
 54145  1  0
 55146  1  0
 56147  1  0
 58148  1  0
 58149  1  0
 59150  1  0
 59151  1  0
 59152  1  0
 60153  1  0
 72154  1  0
 72155  1  0
 73156  1  0
 73157  1  0
 73158  1  0
 74159  1  0
 74160  1  0
 75161  1  0
 75162  1  0
 75163  1  0
 80164  1  0
 81165  1  0
 83166  1  0
 83167  1  0
 83168  1  0
 84169  1  0
 85170  1  0
 87171  1  0
 88172  1  0
 90173  1  0
 90174  1  0
 90175  1  0
 91176  1  0
 92177  1  0
 99178  1  0
100179  1  0
102180  1  0
102181  1  0
102182  1  0
103183  1  0
104184  1  0
106185  1  0
107186  1  0
109187  1  0
109188  1  0
109189  1  0
110190  1  0
111191  1  0
114192  1  0
120193  1  0
121194  1  0
M  END

