
     RDKit          3D

207227  0  0  0  0  0  0  0  0999 V2000
   -4.9769    4.4909    8.0839 C   0  0  0  0  0  0  0  0  0  0  0  0
   -5.5549    3.9599    6.9839 C   0  0  0  0  0  0  0  0  0  0  0  0
   -4.8387    3.5564    5.7608 C   0  0  0  0  0  0  0  0  0  0  0  0
   -3.5879    3.5252    5.6091 O   0  0  0  0  0  0  0  0  0  0  0  0
   -5.8067    3.2591    4.7248 C   0  0  0  0  0  0  0  0  0  0  0  0
   -7.0813    3.4236    5.2400 C   0  0  0  0  0  0  0  0  0  0  0  0
   -8.1919    3.2990    4.3913 C   0  0  0  0  0  0  0  0  0  0  0  0
   -7.9927    2.9438    3.0497 C   0  0  0  0  0  0  0  0  0  0  0  0
   -6.6959    2.7490    2.5405 C   0  0  0  0  0  0  0  0  0  0  0  0
   -6.4887    2.2919    0.6870 Br  0  0  0  0  0  0  0  0  0  0  0  0
   -5.5789    2.9208    3.3826 C   0  0  0  0  0  0  0  0  0  0  0  0
   -3.9449    2.7174    2.7564 Cl  0  0  0  0  0  0  0  0  0  0  0  0
   -7.0113    3.7771    6.6923 C   0  0  0  0  0  0  0  0  0  0  0  0
   -8.0253    3.7060    7.5944 C   0  0  0  0  0  0  0  0  0  0  0  0
   -7.8237    3.8889    9.0096 C   0  0  0  0  0  0  0  0  0  0  0  0
   -7.6857    4.0269   10.1523 N   0  0  0  0  0  0  0  0  0  0  0  0
   -9.3602    3.3037    7.2355 C   0  0  0  0  0  0  0  0  0  0  0  0
  -10.4371    2.9777    6.9695 N   0  0  0  0  0  0  0  0  0  0  0  0
   -3.5131    4.5474    8.2268 C   0  0  0  0  0  0  0  0  0  0  0  0
   -2.8244    3.3578    8.4904 C   0  0  0  0  0  0  0  0  0  0  0  0
   -1.4609    3.2384    8.1676 C   0  0  0  0  0  0  0  0  0  0  0  0
   -0.7741    2.0105    8.2481 O   0  0  0  0  0  0  0  0  0  0  0  0
   -1.3666    0.7387    8.5204 C   0  0  0  0  0  0  0  0  0  0  0  0
   -2.1335    0.2224    7.3063 C   0  0  0  0  0  0  0  0  0  0  0  0
   -0.7816    4.3616    7.6701 C   0  0  0  0  0  0  0  0  0  0  0  0
   -1.4364    5.5995    7.5747 C   0  0  0  0  0  0  0  0  0  0  0  0
   -2.8170    5.6960    7.8207 C   0  0  0  0  0  0  0  0  0  0  0  0
   -3.5454    6.8789    7.5878 O   0  0  0  0  0  0  0  0  0  0  0  0
   -2.9960    8.1373    7.1992 C   0  0  0  0  0  0  0  0  0  0  0  0
   -2.3618    8.8407    8.3957 C   0  0  0  0  0  0  0  0  0  0  0  0
    0.3975    4.1606    6.8235 C   0  0  0  0  0  0  0  0  0  0  0  0
    1.7573    4.2000    7.1901 C   0  0  0  0  0  0  0  0  0  0  0  0
    2.2371    4.5549    8.5329 C   0  0  0  0  0  0  0  0  0  0  0  0
    2.0036    3.7121    9.6310 C   0  0  0  0  0  0  0  0  0  0  0  0
    2.3635    4.1216   10.9174 C   0  0  0  0  0  0  0  0  0  0  0  0
    2.9211    5.3879   11.1229 C   0  0  0  0  0  0  0  0  0  0  0  0
    3.1547    6.2433   10.0319 C   0  0  0  0  0  0  0  0  0  0  0  0
    3.6650    7.6396   10.2615 C   0  0  0  0  0  0  0  0  0  0  0  0
    2.4996    8.6202   10.3879 C   0  0  0  0  0  0  0  0  0  0  0  0
    2.8216    5.8159    8.7381 C   0  0  0  0  0  0  0  0  0  0  0  0
    2.5679    4.0887    6.0534 C   0  0  0  0  0  0  0  0  0  0  0  0
    4.2517    3.9302    5.7771 S   0  0  0  0  0  0  0  0  0  0  0  0
    3.9996    3.8508    4.0898 C   0  0  0  0  0  0  0  0  0  0  0  0
    4.6564    3.4464    2.9495 C   0  0  0  0  0  0  0  0  0  0  0  0
    5.8893    2.7972    2.7572 C   0  0  0  0  0  0  0  0  0  0  0  0
    6.1502    2.1748    1.4907 C   0  0  0  0  0  0  0  0  0  0  0  0
    7.3208    1.5042    1.3655 N   0  0  0  0  0  0  0  0  0  0  0  0
    7.9339    1.7349    2.8882 S   0  0  0  0  0  0  0  0  0  0  0  0
    6.8239    2.6373    3.7245 N   0  0  0  0  0  0  0  0  0  0  0  0
    5.2088    2.3183    0.4618 C   0  0  0  0  0  0  0  0  0  0  0  0
    5.1618    1.8704   -0.8405 C   0  0  0  0  0  0  0  0  0  0  0  0
    5.6088    0.4037   -1.5744 S   0  0  0  0  0  0  0  0  0  0  0  0
    4.2838    0.4591   -2.6468 C   0  0  0  0  0  0  0  0  0  0  0  0
    3.6210   -0.5688   -3.3307 C   0  0  0  0  0  0  0  0  0  0  0  0
    4.2393   -1.8800   -3.6370 C   0  0  0  0  0  0  0  0  0  0  0  0
    3.6087   -3.0781   -3.2673 C   0  0  0  0  0  0  0  0  0  0  0  0
    4.1576   -4.3087   -3.6288 C   0  0  0  0  0  0  0  0  0  0  0  0
    5.3478   -4.3598   -4.3541 C   0  0  0  0  0  0  0  0  0  0  0  0
    5.9995   -3.1733   -4.7289 C   0  0  0  0  0  0  0  0  0  0  0  0
    7.2954   -3.2363   -5.4939 C   0  0  0  0  0  0  0  0  0  0  0  0
    8.4782   -3.3718   -4.5389 C   0  0  0  0  0  0  0  0  0  0  0  0
    5.4497   -1.9361   -4.3498 C   0  0  0  0  0  0  0  0  0  0  0  0
    2.2675   -0.2270   -3.5649 C   0  0  0  0  0  0  0  0  0  0  0  0
    1.9552    1.3194   -2.9442 S   0  0  0  0  0  0  0  0  0  0  0  0
    3.5100    1.5653   -2.3949 C   0  0  0  0  0  0  0  0  0  0  0  0
    3.9960    2.3563   -1.3715 C   0  0  0  0  0  0  0  0  0  0  0  0
    3.2857    3.0973   -0.4903 N   0  0  0  0  0  0  0  0  0  0  0  0
    4.0135    3.0085    0.6571 C   0  0  0  0  0  0  0  0  0  0  0  0
    3.6741    3.4423    1.9467 C   0  0  0  0  0  0  0  0  0  0  0  0
    2.4257    3.6205    2.4732 N   0  0  0  0  0  0  0  0  0  0  0  0
    2.6865    3.9250    3.7639 C   0  0  0  0  0  0  0  0  0  0  0  0
    1.8754    4.0110    4.8763 C   0  0  0  0  0  0  0  0  0  0  0  0
    0.2328    4.0264    5.1384 S   0  0  0  0  0  0  0  0  0  0  0  0
    1.1854    2.9534    2.0324 C   0  0  0  0  0  0  0  0  0  0  0  0
    1.0968    1.5338    2.5967 C   0  0  0  0  0  0  0  0  0  0  0  0
    2.4477    4.2380   -0.8908 C   0  0  0  0  0  0  0  0  0  0  0  0
    3.3150    5.4083   -1.3492 C   0  0  0  0  0  0  0  0  0  0  0  0
    1.2280   -1.1351   -4.0754 C   0  0  0  0  0  0  0  0  0  0  0  0
    0.1456   -1.6591   -3.3333 C   0  0  0  0  0  0  0  0  0  0  0  0
   -0.3579   -1.1328   -2.0869 N   0  0  0  0  0  0  0  0  0  0  0  0
   -0.6100   -2.0364   -0.9931 C   0  0  0  0  0  0  0  0  0  0  0  0
    0.4267   -2.8209   -0.4672 C   0  0  0  0  0  0  0  0  0  0  0  0
    0.1911   -3.6619    0.6226 C   0  0  0  0  0  0  0  0  0  0  0  0
   -1.0871   -3.7338    1.1972 C   0  0  0  0  0  0  0  0  0  0  0  0
   -1.3363   -4.5876    2.4071 C   0  0  0  0  0  0  0  0  0  0  0  0
   -2.1193   -2.9404    0.6814 C   0  0  0  0  0  0  0  0  0  0  0  0
   -1.8852   -2.1036   -0.4110 C   0  0  0  0  0  0  0  0  0  0  0  0
   -0.8420    0.2260   -1.9934 C   0  0  0  0  0  0  0  0  0  0  0  0
   -1.4262    0.8718   -3.0993 C   0  0  0  0  0  0  0  0  0  0  0  0
   -1.8944    2.1864   -2.9820 C   0  0  0  0  0  0  0  0  0  0  0  0
   -1.7870    2.8742   -1.7617 C   0  0  0  0  0  0  0  0  0  0  0  0
   -2.3241    4.2667   -1.6249 C   0  0  0  0  0  0  0  0  0  0  0  0
   -1.2386    2.2237   -0.6562 C   0  0  0  0  0  0  0  0  0  0  0  0
   -0.7525    0.9220   -0.7746 C   0  0  0  0  0  0  0  0  0  0  0  0
   -0.3933   -2.7786   -3.9688 C   0  0  0  0  0  0  0  0  0  0  0  0
   -1.6329   -3.8548   -3.6114 S   0  0  0  0  0  0  0  0  0  0  0  0
   -1.4097   -4.7716   -5.0288 C   0  0  0  0  0  0  0  0  0  0  0  0
   -0.3761   -4.2070   -5.8058 C   0  0  0  0  0  0  0  0  0  0  0  0
   -0.0893   -4.5557   -7.1764 N   0  0  0  0  0  0  0  0  0  0  0  0
    1.2710   -4.5050   -7.6626 C   0  0  0  0  0  0  0  0  0  0  0  0
    1.5832   -3.8042   -8.8400 C   0  0  0  0  0  0  0  0  0  0  0  0
    2.9000   -3.7596   -9.3150 C   0  0  0  0  0  0  0  0  0  0  0  0
    3.9295   -4.4106   -8.6167 C   0  0  0  0  0  0  0  0  0  0  0  0
    5.3281   -4.3985   -9.1551 C   0  0  0  0  0  0  0  0  0  0  0  0
    3.6199   -5.1082   -7.4388 C   0  0  0  0  0  0  0  0  0  0  0  0
    2.3064   -5.1425   -6.9585 C   0  0  0  0  0  0  0  0  0  0  0  0
   -1.1799   -4.7055   -8.1187 C   0  0  0  0  0  0  0  0  0  0  0  0
   -1.0769   -5.6216   -9.1837 C   0  0  0  0  0  0  0  0  0  0  0  0
   -2.1070   -5.7352  -10.1200 C   0  0  0  0  0  0  0  0  0  0  0  0
   -3.2546   -4.9385  -10.0105 C   0  0  0  0  0  0  0  0  0  0  0  0
   -4.3852   -5.0975  -10.9855 C   0  0  0  0  0  0  0  0  0  0  0  0
   -3.3744   -4.0454   -8.9396 C   0  0  0  0  0  0  0  0  0  0  0  0
   -2.3423   -3.9209   -8.0062 C   0  0  0  0  0  0  0  0  0  0  0  0
    0.1742   -3.1044   -5.1582 C   0  0  0  0  0  0  0  0  0  0  0  0
    1.4162   -2.0329   -5.5111 S   0  0  0  0  0  0  0  0  0  0  0  0
   -2.2271   -5.9446   -5.3807 C   0  0  0  0  0  0  0  0  0  0  0  0
   -1.7056   -7.1725   -5.5812 C   0  0  0  0  0  0  0  0  0  0  0  0
   -0.3582   -7.5912   -5.1770 C   0  0  0  0  0  0  0  0  0  0  0  0
    0.4917   -6.8654   -4.5921 O   0  0  0  0  0  0  0  0  0  0  0  0
   -0.2273   -9.0216   -5.3795 C   0  0  0  0  0  0  0  0  0  0  0  0
   -1.4313   -9.5198   -5.8577 C   0  0  0  0  0  0  0  0  0  0  0  0
   -1.5970  -10.9076   -5.9987 C   0  0  0  0  0  0  0  0  0  0  0  0
   -0.5197  -11.7582   -5.7203 C   0  0  0  0  0  0  0  0  0  0  0  0
    0.7106  -11.2412   -5.2811 C   0  0  0  0  0  0  0  0  0  0  0  0
    2.1454  -12.4676   -4.9386 Br  0  0  0  0  0  0  0  0  0  0  0  0
    0.8643   -9.8553   -5.0907 C   0  0  0  0  0  0  0  0  0  0  0  0
    2.3915   -9.1868   -4.5193 Cl  0  0  0  0  0  0  0  0  0  0  0  0
   -2.3993   -8.4020   -6.0776 C   0  0  0  0  0  0  0  0  0  0  0  0
   -3.5635   -8.4679   -6.7778 C   0  0  0  0  0  0  0  0  0  0  0  0
   -4.3671   -7.3085   -7.0662 C   0  0  0  0  0  0  0  0  0  0  0  0
   -5.0324   -6.3920   -7.3131 N   0  0  0  0  0  0  0  0  0  0  0  0
   -4.0289   -9.6737   -7.4075 C   0  0  0  0  0  0  0  0  0  0  0  0
   -4.4113  -10.6254   -7.9397 N   0  0  0  0  0  0  0  0  0  0  0  0
   -5.5592    4.9307    8.8776 H   0  0  0  0  0  0  0  0  0  0  0  0
   -9.1980    3.4944    4.7233 H   0  0  0  0  0  0  0  0  0  0  0  0
   -8.8468    2.8337    2.3978 H   0  0  0  0  0  0  0  0  0  0  0  0
   -3.3878    2.4912    8.8131 H   0  0  0  0  0  0  0  0  0  0  0  0
   -2.0228    0.7834    9.4162 H   0  0  0  0  0  0  0  0  0  0  0  0
   -0.5510    0.0192    8.7467 H   0  0  0  0  0  0  0  0  0  0  0  0
   -1.4534    0.1567    6.4281 H   0  0  0  0  0  0  0  0  0  0  0  0
   -2.9849    0.8912    7.0527 H   0  0  0  0  0  0  0  0  0  0  0  0
   -2.5310   -0.7903    7.5192 H   0  0  0  0  0  0  0  0  0  0  0  0
   -0.8912    6.4377    7.1658 H   0  0  0  0  0  0  0  0  0  0  0  0
   -3.8209    8.7689    6.8166 H   0  0  0  0  0  0  0  0  0  0  0  0
   -2.2611    8.0235    6.3691 H   0  0  0  0  0  0  0  0  0  0  0  0
   -1.5179    8.2455    8.8028 H   0  0  0  0  0  0  0  0  0  0  0  0
   -1.9806    9.8339    8.0805 H   0  0  0  0  0  0  0  0  0  0  0  0
   -3.1271    8.9876    9.1904 H   0  0  0  0  0  0  0  0  0  0  0  0
    1.5348    2.7468    9.4894 H   0  0  0  0  0  0  0  0  0  0  0  0
    2.1843    3.4700   11.7585 H   0  0  0  0  0  0  0  0  0  0  0  0
    3.1554    5.7071   12.1306 H   0  0  0  0  0  0  0  0  0  0  0  0
    4.2769    7.6813   11.1891 H   0  0  0  0  0  0  0  0  0  0  0  0
    4.3123    7.9523    9.4133 H   0  0  0  0  0  0  0  0  0  0  0  0
    1.8442    8.3263   11.2373 H   0  0  0  0  0  0  0  0  0  0  0  0
    1.8968    8.6317    9.4539 H   0  0  0  0  0  0  0  0  0  0  0  0
    2.8865    9.6435   10.5805 H   0  0  0  0  0  0  0  0  0  0  0  0
    2.9601    6.4846    7.8981 H   0  0  0  0  0  0  0  0  0  0  0  0
    2.6817   -3.0630   -2.7183 H   0  0  0  0  0  0  0  0  0  0  0  0
    3.6537   -5.2248   -3.3522 H   0  0  0  0  0  0  0  0  0  0  0  0
    5.7597   -5.3212   -4.6283 H   0  0  0  0  0  0  0  0  0  0  0  0
    7.4261   -2.3235   -6.1164 H   0  0  0  0  0  0  0  0  0  0  0  0
    7.2791   -4.1066   -6.1853 H   0  0  0  0  0  0  0  0  0  0  0  0
    8.5951   -2.4417   -3.9408 H   0  0  0  0  0  0  0  0  0  0  0  0
    8.3264   -4.2350   -3.8543 H   0  0  0  0  0  0  0  0  0  0  0  0
    9.4085   -3.5390   -5.1244 H   0  0  0  0  0  0  0  0  0  0  0  0
    5.9486   -1.0172   -4.6394 H   0  0  0  0  0  0  0  0  0  0  0  0
    0.3081    3.5443    2.3492 H   0  0  0  0  0  0  0  0  0  0  0  0
    1.1424    2.8515    0.9363 H   0  0  0  0  0  0  0  0  0  0  0  0
    1.8354    0.8799    2.0852 H   0  0  0  0  0  0  0  0  0  0  0  0
    0.0761    1.1306    2.4092 H   0  0  0  0  0  0  0  0  0  0  0  0
    1.2857    1.5149    3.6897 H   0  0  0  0  0  0  0  0  0  0  0  0
    1.8242    4.6047   -0.0523 H   0  0  0  0  0  0  0  0  0  0  0  0
    1.7704    3.9356   -1.7179 H   0  0  0  0  0  0  0  0  0  0  0  0
    2.6661    6.2053   -1.7689 H   0  0  0  0  0  0  0  0  0  0  0  0
    3.8694    5.8215   -0.4758 H   0  0  0  0  0  0  0  0  0  0  0  0
    4.0356    5.0854   -2.1307 H   0  0  0  0  0  0  0  0  0  0  0  0
    1.4249   -2.7489   -0.8727 H   0  0  0  0  0  0  0  0  0  0  0  0
    1.0084   -4.2481    1.0282 H   0  0  0  0  0  0  0  0  0  0  0  0
   -0.5657   -5.3790    2.4975 H   0  0  0  0  0  0  0  0  0  0  0  0
   -1.3112   -3.9518    3.3158 H   0  0  0  0  0  0  0  0  0  0  0  0
   -2.3297   -5.0761    2.3298 H   0  0  0  0  0  0  0  0  0  0  0  0
   -3.1064   -2.9643    1.1298 H   0  0  0  0  0  0  0  0  0  0  0  0
   -2.6953   -1.4999   -0.8002 H   0  0  0  0  0  0  0  0  0  0  0  0
   -1.5315    0.3582   -4.0443 H   0  0  0  0  0  0  0  0  0  0  0  0
   -2.3457    2.6669   -3.8401 H   0  0  0  0  0  0  0  0  0  0  0  0
   -1.7216    4.8429   -0.8915 H   0  0  0  0  0  0  0  0  0  0  0  0
   -3.3770    4.2236   -1.2726 H   0  0  0  0  0  0  0  0  0  0  0  0
   -2.2855    4.7994   -2.5990 H   0  0  0  0  0  0  0  0  0  0  0  0
   -1.1841    2.7243    0.3032 H   0  0  0  0  0  0  0  0  0  0  0  0
   -0.3068    0.4437    0.0906 H   0  0  0  0  0  0  0  0  0  0  0  0
    0.8112   -3.2820   -9.3907 H   0  0  0  0  0  0  0  0  0  0  0  0
    3.1180   -3.2186  -10.2251 H   0  0  0  0  0  0  0  0  0  0  0  0
    6.0562   -4.7283   -8.3852 H   0  0  0  0  0  0  0  0  0  0  0  0
    5.6113   -3.3775   -9.4848 H   0  0  0  0  0  0  0  0  0  0  0  0
    5.3958   -5.0930  -10.0203 H   0  0  0  0  0  0  0  0  0  0  0  0
    4.3968   -5.6249   -6.8915 H   0  0  0  0  0  0  0  0  0  0  0  0
    2.1025   -5.6753   -6.0448 H   0  0  0  0  0  0  0  0  0  0  0  0
   -0.1937   -6.2386   -9.2843 H   0  0  0  0  0  0  0  0  0  0  0  0
   -1.9967   -6.4352  -10.9356 H   0  0  0  0  0  0  0  0  0  0  0  0
   -5.1175   -5.8281  -10.5867 H   0  0  0  0  0  0  0  0  0  0  0  0
   -4.8935   -4.1226  -11.1549 H   0  0  0  0  0  0  0  0  0  0  0  0
   -4.0105   -5.4617  -11.9668 H   0  0  0  0  0  0  0  0  0  0  0  0
   -4.2649   -3.4372   -8.8267 H   0  0  0  0  0  0  0  0  0  0  0  0
   -2.4494   -3.2076   -7.2022 H   0  0  0  0  0  0  0  0  0  0  0  0
   -3.2921   -5.7799   -5.4317 H   0  0  0  0  0  0  0  0  0  0  0  0
   -2.5339  -11.3574   -6.2831 H   0  0  0  0  0  0  0  0  0  0  0  0
   -0.6434  -12.8254   -5.8420 H   0  0  0  0  0  0  0  0  0  0  0  0
  1  2  2  3
  2  3  1  0
  3  4  2  0
  3  5  1  0
  5  6  2  0
  6  7  1  0
  7  8  2  0
  8  9  1  0
  9 10  1  0
  9 11  2  0
 11 12  1  0
  6 13  1  0
 13 14  2  3
 14 15  1  0
 15 16  3  0
 14 17  1  0
 17 18  3  0
  1 19  1  0
 19 20  2  0
 20 21  1  0
 21 22  1  0
 22 23  1  0
 23 24  1  0
 21 25  2  0
 25 26  1  0
 26 27  2  0
 27 28  1  0
 28 29  1  0
 29 30  1  0
 25 31  1  0
 31 32  2  0
 32 33  1  0
 33 34  2  0
 34 35  1  0
 35 36  2  0
 36 37  1  0
 37 38  1  0
 38 39  1  0
 37 40  2  0
 32 41  1  0
 41 42  1  0
 42 43  1  0
 43 44  1  0
 44 45  1  0
 45 46  1  0
 46 47  2  0
 47 48  1  0
 48 49  1  0
 46 50  1  0
 50 51  1  0
 51 52  1  0
 52 53  1  0
 53 54  1  0
 54 55  1  0
 55 56  2  0
 56 57  1  0
 57 58  2  0
 58 59  1  0
 59 60  1  0
 60 61  1  0
 59 62  2  0
 54 63  2  0
 63 64  1  0
 64 65  1  0
 65 66  1  0
 66 67  1  0
 67 68  1  0
 68 69  1  0
 69 70  1  0
 70 71  1  0
 71 72  1  0
 72 73  1  0
 70 74  1  0
 74 75  1  0
 67 76  1  0
 76 77  1  0
 63 78  1  0
 78 79  2  0
 79 80  1  0
 80 81  1  0
 81 82  2  0
 82 83  1  0
 83 84  2  0
 84 85  1  0
 84 86  1  0
 86 87  2  0
 80 88  1  0
 88 89  2  0
 89 90  1  0
 90 91  2  0
 91 92  1  0
 91 93  1  0
 93 94  2  0
 79 95  1  0
 95 96  1  0
 96 97  1  0
 97 98  2  0
 98 99  1  0
 99100  1  0
100101  2  0
101102  1  0
102103  2  0
103104  1  0
103105  1  0
105106  2  0
 99107  1  0
107108  2  0
108109  1  0
109110  2  0
110111  1  0
110112  1  0
112113  2  0
 98114  1  0
114115  1  0
 97116  1  0
116117  2  3
117118  1  0
118119  2  0
118120  1  0
120121  2  0
121122  1  0
122123  2  0
123124  1  0
124125  1  0
124126  2  0
126127  1  0
121128  1  0
128129  2  3
129130  1  0
130131  3  0
129132  1  0
132133  3  0
 13  2  1  0
 27 19  1  0
 73 31  1  0
115 78  1  0
128117  1  0
 11  5  1  0
 40 33  1  0
 72 41  2  0
 87 81  1  0
 94 88  1  0
114 95  2  0
126120  1  0
 71 43  2  0
106100  1  0
113107  1  0
 69 44  2  0
 49 45  2  0
 68 50  2  0
 66 51  2  0
 65 53  2  0
 62 55  1  0
  1134  1  0
  7135  1  0
  8136  1  0
 20137  1  0
 23138  1  0
 23139  1  0
 24140  1  0
 24141  1  0
 24142  1  0
 26143  1  0
 29144  1  0
 29145  1  0
 30146  1  0
 30147  1  0
 30148  1  0
 34149  1  0
 35150  1  0
 36151  1  0
 38152  1  0
 38153  1  0
 39154  1  0
 39155  1  0
 39156  1  0
 40157  1  0
 56158  1  0
 57159  1  0
 58160  1  0
 60161  1  0
 60162  1  0
 61163  1  0
 61164  1  0
 61165  1  0
 62166  1  0
 74167  1  0
 74168  1  0
 75169  1  0
 75170  1  0
 75171  1  0
 76172  1  0
 76173  1  0
 77174  1  0
 77175  1  0
 77176  1  0
 82177  1  0
 83178  1  0
 85179  1  0
 85180  1  0
 85181  1  0
 86182  1  0
 87183  1  0
 89184  1  0
 90185  1  0
 92186  1  0
 92187  1  0
 92188  1  0
 93189  1  0
 94190  1  0
101191  1  0
102192  1  0
104193  1  0
104194  1  0
104195  1  0
105196  1  0
106197  1  0
108198  1  0
109199  1  0
111200  1  0
111201  1  0
111202  1  0
112203  1  0
113204  1  0
116205  1  0
122206  1  0
123207  1  0
M  END

