
     RDKit          3D

135150  0  0  0  0  0  0  0  0999 V2000
   -4.3139   -1.1446   -9.7695 C   0  0  0  0  0  0  0  0  0  0  0  0
   -5.6409   -1.1765  -10.0113 C   0  0  0  0  0  0  0  0  0  0  0  0
   -6.6908   -1.0437   -8.9961 C   0  0  0  0  0  0  0  0  0  0  0  0
   -6.5730   -1.3252   -7.7744 O   0  0  0  0  0  0  0  0  0  0  0  0
   -7.9211   -0.6385   -9.6504 C   0  0  0  0  0  0  0  0  0  0  0  0
   -7.7161   -0.6104  -11.0232 C   0  0  0  0  0  0  0  0  0  0  0  0
   -8.7556   -0.1930  -11.8685 C   0  0  0  0  0  0  0  0  0  0  0  0
   -9.9850    0.1811  -11.3095 C   0  0  0  0  0  0  0  0  0  0  0  0
  -10.1844    0.1458   -9.9187 C   0  0  0  0  0  0  0  0  0  0  0  0
  -11.8869    0.6896   -9.2256 Br  0  0  0  0  0  0  0  0  0  0  0  0
   -9.1433   -0.2710   -9.0689 C   0  0  0  0  0  0  0  0  0  0  0  0
   -9.3602   -0.2907   -7.3197 Cl  0  0  0  0  0  0  0  0  0  0  0  0
   -6.3194   -1.0453  -11.3373 C   0  0  0  0  0  0  0  0  0  0  0  0
   -5.8011   -1.3499  -12.5582 C   0  0  0  0  0  0  0  0  0  0  0  0
   -6.4742   -1.0397  -13.7935 C   0  0  0  0  0  0  0  0  0  0  0  0
   -6.9915   -0.7812  -14.7990 N   0  0  0  0  0  0  0  0  0  0  0  0
   -4.5308   -2.0079  -12.7156 C   0  0  0  0  0  0  0  0  0  0  0  0
   -3.5059   -2.5296  -12.8452 N   0  0  0  0  0  0  0  0  0  0  0  0
   -3.7240   -0.8720   -8.4493 C   0  0  0  0  0  0  0  0  0  0  0  0
   -2.5453   -1.4390   -7.9747 C   0  0  0  0  0  0  0  0  0  0  0  0
   -2.0714   -0.8340   -6.8017 C   0  0  0  0  0  0  0  0  0  0  0  0
   -0.7657   -1.1558   -6.2084 C   0  0  0  0  0  0  0  0  0  0  0  0
   -0.6731   -2.0680   -5.1506 C   0  0  0  0  0  0  0  0  0  0  0  0
    0.5365   -2.2417   -4.4684 C   0  0  0  0  0  0  0  0  0  0  0  0
    1.6767   -1.5302   -4.8903 C   0  0  0  0  0  0  0  0  0  0  0  0
    1.5927   -0.6235   -5.9631 C   0  0  0  0  0  0  0  0  0  0  0  0
    2.6900    0.1360   -6.3942 O   0  0  0  0  0  0  0  0  0  0  0  0
    3.9673    0.1431   -5.7611 C   0  0  0  0  0  0  0  0  0  0  0  0
    4.8709    1.1541   -6.4484 C   0  0  0  0  0  0  0  0  0  0  0  0
    0.3698   -0.4459   -6.6164 C   0  0  0  0  0  0  0  0  0  0  0  0
    0.5570   -3.1028   -3.3614 O   0  0  0  0  0  0  0  0  0  0  0  0
    1.6770   -3.2715   -2.4947 C   0  0  0  0  0  0  0  0  0  0  0  0
    1.2850   -4.1631   -1.3280 C   0  0  0  0  0  0  0  0  0  0  0  0
   -2.8532    0.2436   -6.3822 C   0  0  0  0  0  0  0  0  0  0  0  0
   -4.1164    0.4434   -7.4685 S   0  0  0  0  0  0  0  0  0  0  0  0
   -2.5845    1.1294   -5.2417 C   0  0  0  0  0  0  0  0  0  0  0  0
   -2.6352    2.5291   -5.2810 C   0  0  0  0  0  0  0  0  0  0  0  0
   -2.2449    3.0688   -4.0593 C   0  0  0  0  0  0  0  0  0  0  0  0
   -1.8372    4.6482   -3.5783 S   0  0  0  0  0  0  0  0  0  0  0  0
   -1.3316    4.0876   -2.0543 C   0  0  0  0  0  0  0  0  0  0  0  0
   -0.4569    4.5123   -1.0942 C   0  0  0  0  0  0  0  0  0  0  0  0
    0.3023    5.6898   -1.0092 C   0  0  0  0  0  0  0  0  0  0  0  0
    1.3986    5.7391   -0.0937 C   0  0  0  0  0  0  0  0  0  0  0  0
    2.1259    6.8829   -0.0619 N   0  0  0  0  0  0  0  0  0  0  0  0
    1.3296    7.7493   -1.2275 S   0  0  0  0  0  0  0  0  0  0  0  0
    0.1046    6.7830   -1.7877 N   0  0  0  0  0  0  0  0  0  0  0  0
    1.6465    4.6243    0.7133 C   0  0  0  0  0  0  0  0  0  0  0  0
    2.5321    4.4023    1.7335 C   0  0  0  0  0  0  0  0  0  0  0  0
    2.1905    3.2147    2.2897 C   0  0  0  0  0  0  0  0  0  0  0  0
    1.1251    2.6295    1.6979 N   0  0  0  0  0  0  0  0  0  0  0  0
    0.2038    1.6997    2.3634 C   0  0  0  0  0  0  0  0  0  0  0  0
   -0.4613    2.3551    3.5728 C   0  0  0  0  0  0  0  0  0  0  0  0
    0.8423    3.4749    0.6624 C   0  0  0  0  0  0  0  0  0  0  0  0
   -0.1495    3.3707   -0.3376 C   0  0  0  0  0  0  0  0  0  0  0  0
   -0.6946    2.2415   -0.8999 N   0  0  0  0  0  0  0  0  0  0  0  0
   -1.4304    2.7346   -1.9303 C   0  0  0  0  0  0  0  0  0  0  0  0
   -1.9285    2.1519   -3.0908 C   0  0  0  0  0  0  0  0  0  0  0  0
   -2.0605    0.6011   -3.7080 S   0  0  0  0  0  0  0  0  0  0  0  0
   -0.1299    0.8807   -0.8779 C   0  0  0  0  0  0  0  0  0  0  0  0
   -1.1926   -0.1713   -0.5368 C   0  0  0  0  0  0  0  0  0  0  0  0
    2.9417    2.9192    3.4082 C   0  0  0  0  0  0  0  0  0  0  0  0
    3.0392    1.6499    4.4902 S   0  0  0  0  0  0  0  0  0  0  0  0
    4.3526    2.3481    5.3239 C   0  0  0  0  0  0  0  0  0  0  0  0
    4.7259    3.5700    4.7448 C   0  0  0  0  0  0  0  0  0  0  0  0
    3.8927    3.8692    3.6709 C   0  0  0  0  0  0  0  0  0  0  0  0
    3.8071    5.1680    2.5613 S   0  0  0  0  0  0  0  0  0  0  0  0
    5.0763    1.6488    6.3788 C   0  0  0  0  0  0  0  0  0  0  0  0
    6.2531    0.9417    6.1805 C   0  0  0  0  0  0  0  0  0  0  0  0
    6.5570    0.0548    7.2241 C   0  0  0  0  0  0  0  0  0  0  0  0
    7.7308   -0.8847    7.1534 C   0  0  0  0  0  0  0  0  0  0  0  0
    7.2987   -2.2478    6.6216 C   0  0  0  0  0  0  0  0  0  0  0  0
    5.5818    0.0294    8.2296 C   0  0  0  0  0  0  0  0  0  0  0  0
    4.3927    1.1596    7.8300 S   0  0  0  0  0  0  0  0  0  0  0  0
    5.6252   -0.8011    9.4540 C   0  0  0  0  0  0  0  0  0  0  0  0
    4.5629   -1.1617   10.1973 C   0  0  0  0  0  0  0  0  0  0  0  0
    4.6825   -1.5065   11.6148 C   0  0  0  0  0  0  0  0  0  0  0  0
    5.7408   -1.8412   12.2113 O   0  0  0  0  0  0  0  0  0  0  0  0
    3.3978   -1.2822   12.2444 C   0  0  0  0  0  0  0  0  0  0  0  0
    3.0889   -1.2976   13.6029 C   0  0  0  0  0  0  0  0  0  0  0  0
    1.8049   -0.8863   14.0034 C   0  0  0  0  0  0  0  0  0  0  0  0
    1.4565   -0.8671   15.3619 C   0  0  0  0  0  0  0  0  0  0  0  0
    0.1930   -0.4177   15.7557 C   0  0  0  0  0  0  0  0  0  0  0  0
   -0.7306    0.0182   14.8005 C   0  0  0  0  0  0  0  0  0  0  0  0
   -0.4013    0.0013   13.4428 C   0  0  0  0  0  0  0  0  0  0  0  0
    0.8608   -0.4494   13.0267 C   0  0  0  0  0  0  0  0  0  0  0  0
    1.2043   -0.4569   11.6605 C   0  0  0  0  0  0  0  0  0  0  0  0
    2.4795   -0.8999   11.2826 C   0  0  0  0  0  0  0  0  0  0  0  0
    3.1067   -0.9758    9.9376 C   0  0  0  0  0  0  0  0  0  0  0  0
    2.4618   -1.2947    8.7876 C   0  0  0  0  0  0  0  0  0  0  0  0
    1.0256   -1.2667    8.6786 C   0  0  0  0  0  0  0  0  0  0  0  0
   -0.1282   -1.2468    8.5797 N   0  0  0  0  0  0  0  0  0  0  0  0
    3.1651   -1.8329    7.6506 C   0  0  0  0  0  0  0  0  0  0  0  0
    3.7244   -2.2668    6.7334 N   0  0  0  0  0  0  0  0  0  0  0  0
   -3.6056   -1.1858  -10.5761 H   0  0  0  0  0  0  0  0  0  0  0  0
   -8.6433   -0.1227  -12.9339 H   0  0  0  0  0  0  0  0  0  0  0  0
  -10.7855    0.5067  -11.9613 H   0  0  0  0  0  0  0  0  0  0  0  0
   -2.0169   -2.2330   -8.4882 H   0  0  0  0  0  0  0  0  0  0  0  0
   -1.5545   -2.5976   -4.8143 H   0  0  0  0  0  0  0  0  0  0  0  0
    2.6169   -1.6699   -4.3775 H   0  0  0  0  0  0  0  0  0  0  0  0
    3.8576    0.4278   -4.6924 H   0  0  0  0  0  0  0  0  0  0  0  0
    4.4279   -0.8669   -5.8305 H   0  0  0  0  0  0  0  0  0  0  0  0
    5.8577    1.1804   -5.9413 H   0  0  0  0  0  0  0  0  0  0  0  0
    5.0191    0.8696   -7.5109 H   0  0  0  0  0  0  0  0  0  0  0  0
    4.4125    2.1648   -6.4014 H   0  0  0  0  0  0  0  0  0  0  0  0
    0.2981    0.2762   -7.4222 H   0  0  0  0  0  0  0  0  0  0  0  0
    2.5159   -3.7419   -3.0519 H   0  0  0  0  0  0  0  0  0  0  0  0
    1.9979   -2.2844   -2.0991 H   0  0  0  0  0  0  0  0  0  0  0  0
    0.9638   -5.1589   -1.7005 H   0  0  0  0  0  0  0  0  0  0  0  0
    2.1571   -4.2965   -0.6508 H   0  0  0  0  0  0  0  0  0  0  0  0
    0.4525   -3.6978   -0.7596 H   0  0  0  0  0  0  0  0  0  0  0  0
   -2.8668    3.1144   -6.1617 H   0  0  0  0  0  0  0  0  0  0  0  0
    0.7483    0.7813    2.6697 H   0  0  0  0  0  0  0  0  0  0  0  0
   -0.6134    1.4261    1.6836 H   0  0  0  0  0  0  0  0  0  0  0  0
    0.2873    2.6435    4.3369 H   0  0  0  0  0  0  0  0  0  0  0  0
   -1.1719    1.6377    4.0355 H   0  0  0  0  0  0  0  0  0  0  0  0
   -1.0243    3.2597    3.2530 H   0  0  0  0  0  0  0  0  0  0  0  0
    0.2980    0.6513   -1.8788 H   0  0  0  0  0  0  0  0  0  0  0  0
    0.7162    0.8014   -0.1677 H   0  0  0  0  0  0  0  0  0  0  0  0
   -2.1915    0.1198   -0.9183 H   0  0  0  0  0  0  0  0  0  0  0  0
   -1.2731   -0.3220    0.5570 H   0  0  0  0  0  0  0  0  0  0  0  0
   -0.9076   -1.1499   -0.9817 H   0  0  0  0  0  0  0  0  0  0  0  0
    5.5552    4.1845    5.0695 H   0  0  0  0  0  0  0  0  0  0  0  0
    6.8383    1.0149    5.2707 H   0  0  0  0  0  0  0  0  0  0  0  0
    8.5091   -0.4644    6.4804 H   0  0  0  0  0  0  0  0  0  0  0  0
    8.1937   -1.0026    8.1561 H   0  0  0  0  0  0  0  0  0  0  0  0
    6.8323   -2.1413    5.6189 H   0  0  0  0  0  0  0  0  0  0  0  0
    6.5714   -2.7213    7.3136 H   0  0  0  0  0  0  0  0  0  0  0  0
    8.1832   -2.9127    6.5300 H   0  0  0  0  0  0  0  0  0  0  0  0
    6.6090   -1.0340    9.8406 H   0  0  0  0  0  0  0  0  0  0  0  0
    3.8378   -1.5869   14.3300 H   0  0  0  0  0  0  0  0  0  0  0  0
    2.1602   -1.1957   16.1177 H   0  0  0  0  0  0  0  0  0  0  0  0
   -0.0705   -0.4044   16.8045 H   0  0  0  0  0  0  0  0  0  0  0  0
   -1.7044    0.3709   15.1134 H   0  0  0  0  0  0  0  0  0  0  0  0
   -1.1291    0.3500   12.7203 H   0  0  0  0  0  0  0  0  0  0  0  0
    0.5065   -0.0796   10.9275 H   0  0  0  0  0  0  0  0  0  0  0  0
  1  2  2  3
  2  3  1  0
  3  4  2  0
  3  5  1  0
  5  6  2  0
  6  7  1  0
  7  8  2  0
  8  9  1  0
  9 10  1  0
  9 11  2  0
 11 12  1  0
  6 13  1  0
 13 14  2  3
 14 15  1  0
 15 16  3  0
 14 17  1  0
 17 18  3  0
  1 19  1  0
 19 20  2  0
 20 21  1  0
 21 22  1  0
 22 23  2  0
 23 24  1  0
 24 25  2  0
 25 26  1  0
 26 27  1  0
 27 28  1  0
 28 29  1  0
 26 30  2  0
 24 31  1  0
 31 32  1  0
 32 33  1  0
 21 34  2  0
 34 35  1  0
 34 36  1  0
 36 37  2  0
 37 38  1  0
 38 39  1  0
 39 40  1  0
 40 41  1  0
 41 42  1  0
 42 43  1  0
 43 44  2  0
 44 45  1  0
 45 46  1  0
 43 47  1  0
 47 48  1  0
 48 49  2  0
 49 50  1  0
 50 51  1  0
 51 52  1  0
 50 53  1  0
 53 54  1  0
 54 55  1  0
 55 56  1  0
 56 57  1  0
 57 58  1  0
 55 59  1  0
 59 60  1  0
 49 61  1  0
 61 62  1  0
 62 63  1  0
 63 64  2  0
 64 65  1  0
 65 66  1  0
 63 67  1  0
 67 68  2  0
 68 69  1  0
 69 70  1  0
 70 71  1  0
 69 72  2  0
 72 73  1  0
 72 74  1  0
 74 75  2  3
 75 76  1  0
 76 77  2  0
 76 78  1  0
 78 79  2  0
 79 80  1  0
 80 81  2  0
 81 82  1  0
 82 83  2  0
 83 84  1  0
 84 85  2  0
 85 86  1  0
 86 87  2  0
 87 88  1  0
 88 89  2  3
 89 90  1  0
 90 91  3  0
 89 92  1  0
 92 93  3  0
 13  2  1  0
 35 19  1  0
 58 36  1  0
 65 61  2  0
 73 67  1  0
 88 75  1  0
 11  5  1  0
 30 22  1  0
 57 38  2  0
 87 78  1  0
 56 40  2  0
 85 80  1  0
 54 41  2  0
 46 42  2  0
 53 47  2  0
 66 48  1  0
  1 94  1  0
  7 95  1  0
  8 96  1  0
 20 97  1  0
 23 98  1  0
 25 99  1  0
 28100  1  0
 28101  1  0
 29102  1  0
 29103  1  0
 29104  1  0
 30105  1  0
 32106  1  0
 32107  1  0
 33108  1  0
 33109  1  0
 33110  1  0
 37111  1  0
 51112  1  0
 51113  1  0
 52114  1  0
 52115  1  0
 52116  1  0
 59117  1  0
 59118  1  0
 60119  1  0
 60120  1  0
 60121  1  0
 64122  1  0
 68123  1  0
 70124  1  0
 70125  1  0
 71126  1  0
 71127  1  0
 71128  1  0
 74129  1  0
 79130  1  0
 81131  1  0
 82132  1  0
 83133  1  0
 84134  1  0
 86135  1  0
M  END

