
     RDKit          3D

173191  0  0  0  0  0  0  0  0999 V2000
   -7.1085    7.2775    0.7499 C   0  0  0  0  0  0  0  0  0  0  0  0
   -7.9851    8.0011    0.0298 C   0  0  0  0  0  0  0  0  0  0  0  0
   -9.1412    7.4885   -0.7154 C   0  0  0  0  0  0  0  0  0  0  0  0
   -9.7522    6.4111   -0.4839 O   0  0  0  0  0  0  0  0  0  0  0  0
   -9.5064    8.4776   -1.7211 C   0  0  0  0  0  0  0  0  0  0  0  0
   -8.7038    9.5977   -1.5605 C   0  0  0  0  0  0  0  0  0  0  0  0
   -8.7562   10.6378   -2.4963 C   0  0  0  0  0  0  0  0  0  0  0  0
   -9.6771   10.5597   -3.5502 C   0  0  0  0  0  0  0  0  0  0  0  0
  -10.5188    9.4401   -3.6869 C   0  0  0  0  0  0  0  0  0  0  0  0
  -11.7425    9.3953   -5.1568 Br  0  0  0  0  0  0  0  0  0  0  0  0
  -10.4307    8.3721   -2.7711 C   0  0  0  0  0  0  0  0  0  0  0  0
  -11.4304    6.9322   -2.9564 Cl  0  0  0  0  0  0  0  0  0  0  0  0
   -7.8260    9.4271   -0.3727 C   0  0  0  0  0  0  0  0  0  0  0  0
   -7.2532   10.4166    0.3595 C   0  0  0  0  0  0  0  0  0  0  0  0
   -6.6695   10.1792    1.6565 C   0  0  0  0  0  0  0  0  0  0  0  0
   -6.2072   10.0009    2.7039 N   0  0  0  0  0  0  0  0  0  0  0  0
   -7.3181   11.8015   -0.0291 C   0  0  0  0  0  0  0  0  0  0  0  0
   -7.3698   12.9180   -0.3308 N   0  0  0  0  0  0  0  0  0  0  0  0
   -7.2116    5.8274    1.0207 C   0  0  0  0  0  0  0  0  0  0  0  0
   -7.2514    4.8787   -0.0043 C   0  0  0  0  0  0  0  0  0  0  0  0
   -7.1219    3.5466    0.2263 C   0  0  0  0  0  0  0  0  0  0  0  0
   -7.1360    2.9120   -0.9562 N   0  0  0  0  0  0  0  0  0  0  0  0
   -7.2624    3.8651   -1.8431 O   0  0  0  0  0  0  0  0  0  0  0  0
   -7.3222    5.0680   -1.3317 N   0  0  0  0  0  0  0  0  0  0  0  0
   -6.9034    3.0186    1.5040 C   0  0  0  0  0  0  0  0  0  0  0  0
   -6.8128    3.9544    2.5706 C   0  0  0  0  0  0  0  0  0  0  0  0
   -6.5112    3.5444    3.8724 O   0  0  0  0  0  0  0  0  0  0  0  0
   -5.1894    3.2057    4.2896 C   0  0  0  0  0  0  0  0  0  0  0  0
   -4.3506    4.4647    4.4674 C   0  0  0  0  0  0  0  0  0  0  0  0
   -7.0047    5.3371    2.3348 C   0  0  0  0  0  0  0  0  0  0  0  0
   -6.9405    6.2041    3.4260 O   0  0  0  0  0  0  0  0  0  0  0  0
   -8.0562    6.9780    3.8505 C   0  0  0  0  0  0  0  0  0  0  0  0
   -7.7669    7.5670    5.2206 C   0  0  0  0  0  0  0  0  0  0  0  0
   -6.6063    1.5764    1.6897 C   0  0  0  0  0  0  0  0  0  0  0  0
   -6.9383    0.7778    2.8118 C   0  0  0  0  0  0  0  0  0  0  0  0
   -7.9823    1.1152    3.8123 C   0  0  0  0  0  0  0  0  0  0  0  0
   -9.2142    1.6407    3.3825 C   0  0  0  0  0  0  0  0  0  0  0  0
  -10.2061    1.9661    4.3102 C   0  0  0  0  0  0  0  0  0  0  0  0
   -9.9882    1.7623    5.6747 C   0  0  0  0  0  0  0  0  0  0  0  0
   -8.7598    1.2546    6.1231 C   0  0  0  0  0  0  0  0  0  0  0  0
   -8.5292    1.0082    7.5913 C   0  0  0  0  0  0  0  0  0  0  0  0
   -8.8634   -0.4366    7.9542 C   0  0  0  0  0  0  0  0  0  0  0  0
   -7.7649    0.9273    5.1899 C   0  0  0  0  0  0  0  0  0  0  0  0
   -6.1733   -0.3990    2.8262 C   0  0  0  0  0  0  0  0  0  0  0  0
   -5.8151   -1.5463    4.0331 S   0  0  0  0  0  0  0  0  0  0  0  0
   -4.6211   -2.2747    3.0705 C   0  0  0  0  0  0  0  0  0  0  0  0
   -3.4435   -2.9306    3.3181 C   0  0  0  0  0  0  0  0  0  0  0  0
   -2.8456   -3.2672    4.5434 C   0  0  0  0  0  0  0  0  0  0  0  0
   -1.4434   -3.5404    4.5737 C   0  0  0  0  0  0  0  0  0  0  0  0
   -0.8874   -3.7933    5.7836 N   0  0  0  0  0  0  0  0  0  0  0  0
   -2.2303   -3.6405    6.7398 S   0  0  0  0  0  0  0  0  0  0  0  0
   -3.4930   -3.2608    5.7349 N   0  0  0  0  0  0  0  0  0  0  0  0
   -0.7295   -3.5163    3.3704 C   0  0  0  0  0  0  0  0  0  0  0  0
    0.5717   -3.8125    3.0686 C   0  0  0  0  0  0  0  0  0  0  0  0
    2.0421   -4.1909    3.8314 S   0  0  0  0  0  0  0  0  0  0  0  0
    2.8199   -4.3619    2.3126 C   0  0  0  0  0  0  0  0  0  0  0  0
    4.1340   -4.6307    1.9053 C   0  0  0  0  0  0  0  0  0  0  0  0
    5.2935   -4.7208    2.8224 C   0  0  0  0  0  0  0  0  0  0  0  0
    5.4466   -3.7831    3.8544 C   0  0  0  0  0  0  0  0  0  0  0  0
    6.6024   -3.7746    4.6352 C   0  0  0  0  0  0  0  0  0  0  0  0
    7.6226   -4.6958    4.3906 C   0  0  0  0  0  0  0  0  0  0  0  0
    7.4790   -5.6548    3.3779 C   0  0  0  0  0  0  0  0  0  0  0  0
    8.6033   -6.6060    3.0695 C   0  0  0  0  0  0  0  0  0  0  0  0
    9.4606   -6.0768    1.9208 C   0  0  0  0  0  0  0  0  0  0  0  0
    6.3089   -5.6669    2.6006 C   0  0  0  0  0  0  0  0  0  0  0  0
    4.2081   -4.6789    0.4921 C   0  0  0  0  0  0  0  0  0  0  0  0
    2.6825   -4.3512   -0.1914 S   0  0  0  0  0  0  0  0  0  0  0  0
    1.9314   -4.1738    1.2849 C   0  0  0  0  0  0  0  0  0  0  0  0
    0.6678   -3.8232    1.7205 C   0  0  0  0  0  0  0  0  0  0  0  0
   -0.4994   -3.5453    1.0961 N   0  0  0  0  0  0  0  0  0  0  0  0
   -1.3440   -3.2514    2.1375 C   0  0  0  0  0  0  0  0  0  0  0  0
   -2.6881   -2.8071    2.1362 C   0  0  0  0  0  0  0  0  0  0  0  0
   -3.2928   -1.9311    1.2750 N   0  0  0  0  0  0  0  0  0  0  0  0
   -4.4819   -1.6540    1.8678 C   0  0  0  0  0  0  0  0  0  0  0  0
   -5.3460   -0.5674    1.7453 C   0  0  0  0  0  0  0  0  0  0  0  0
   -5.4443    0.7666    0.7442 S   0  0  0  0  0  0  0  0  0  0  0  0
   -2.6310   -1.0442    0.3105 C   0  0  0  0  0  0  0  0  0  0  0  0
   -1.9290    0.1083    1.0250 C   0  0  0  0  0  0  0  0  0  0  0  0
   -0.7922   -3.9500   -0.2956 C   0  0  0  0  0  0  0  0  0  0  0  0
   -2.1927   -4.5415   -0.4747 C   0  0  0  0  0  0  0  0  0  0  0  0
    5.4168   -4.8228   -0.3407 C   0  0  0  0  0  0  0  0  0  0  0  0
    5.4433   -5.7460   -1.3870 C   0  0  0  0  0  0  0  0  0  0  0  0
    6.4475   -5.7973   -2.2897 C   0  0  0  0  0  0  0  0  0  0  0  0
    6.1506   -6.7333   -3.2080 N   0  0  0  0  0  0  0  0  0  0  0  0
    4.9922   -7.2032   -2.8292 O   0  0  0  0  0  0  0  0  0  0  0  0
    4.5148   -6.6436   -1.7423 N   0  0  0  0  0  0  0  0  0  0  0  0
    7.5198   -4.9077   -2.2607 C   0  0  0  0  0  0  0  0  0  0  0  0
    7.5670   -3.9796   -1.1925 C   0  0  0  0  0  0  0  0  0  0  0  0
    8.6469   -3.0977   -1.0694 O   0  0  0  0  0  0  0  0  0  0  0  0
    8.8079   -1.9591   -1.9167 C   0  0  0  0  0  0  0  0  0  0  0  0
   10.2334   -1.9085   -2.4535 C   0  0  0  0  0  0  0  0  0  0  0  0
    6.5097   -3.9285   -0.2403 C   0  0  0  0  0  0  0  0  0  0  0  0
    6.5184   -2.9480    0.7565 O   0  0  0  0  0  0  0  0  0  0  0  0
    6.2844   -1.5729    0.4589 C   0  0  0  0  0  0  0  0  0  0  0  0
    5.0288   -1.1022    1.1800 C   0  0  0  0  0  0  0  0  0  0  0  0
    8.4794   -4.8502   -3.3748 C   0  0  0  0  0  0  0  0  0  0  0  0
    8.1354   -4.3794   -4.5931 C   0  0  0  0  0  0  0  0  0  0  0  0
    6.8723   -3.6940   -4.9075 C   0  0  0  0  0  0  0  0  0  0  0  0
    5.8281   -3.6805   -4.2078 O   0  0  0  0  0  0  0  0  0  0  0  0
    7.0274   -3.0072   -6.1695 C   0  0  0  0  0  0  0  0  0  0  0  0
    6.0795   -2.2265   -6.8301 C   0  0  0  0  0  0  0  0  0  0  0  0
    6.4106   -1.6707   -8.0757 C   0  0  0  0  0  0  0  0  0  0  0  0
    5.4754   -0.8973   -8.7822 C   0  0  0  0  0  0  0  0  0  0  0  0
    5.8083   -0.3593  -10.0279 C   0  0  0  0  0  0  0  0  0  0  0  0
    7.0725   -0.5891  -10.5784 C   0  0  0  0  0  0  0  0  0  0  0  0
    7.3838   -0.0656  -11.7907 F   0  0  0  0  0  0  0  0  0  0  0  0
    8.0205   -1.3458   -9.8803 C   0  0  0  0  0  0  0  0  0  0  0  0
    7.7037   -1.8940   -8.6263 C   0  0  0  0  0  0  0  0  0  0  0  0
    8.6471   -2.6804   -7.9268 C   0  0  0  0  0  0  0  0  0  0  0  0
    8.2931   -3.2391   -6.6852 C   0  0  0  0  0  0  0  0  0  0  0  0
    9.0374   -4.1559   -5.7659 C   0  0  0  0  0  0  0  0  0  0  0  0
   10.2033   -4.8080   -6.0151 C   0  0  0  0  0  0  0  0  0  0  0  0
   10.6232   -5.9499   -5.2409 C   0  0  0  0  0  0  0  0  0  0  0  0
   10.9595   -6.8693   -4.6164 N   0  0  0  0  0  0  0  0  0  0  0  0
   11.0551   -4.4777   -7.1266 C   0  0  0  0  0  0  0  0  0  0  0  0
   11.7482   -4.2196   -8.0180 N   0  0  0  0  0  0  0  0  0  0  0  0
   -6.2331    7.7550    1.1641 H   0  0  0  0  0  0  0  0  0  0  0  0
   -8.0865   11.4796   -2.4508 H   0  0  0  0  0  0  0  0  0  0  0  0
   -9.7242   11.3677   -4.2676 H   0  0  0  0  0  0  0  0  0  0  0  0
   -4.7024    2.5270    3.5551 H   0  0  0  0  0  0  0  0  0  0  0  0
   -5.2496    2.6775    5.2630 H   0  0  0  0  0  0  0  0  0  0  0  0
   -3.3657    4.1986    4.9088 H   0  0  0  0  0  0  0  0  0  0  0  0
   -4.8701    5.1709    5.1531 H   0  0  0  0  0  0  0  0  0  0  0  0
   -4.1876    4.9593    3.4864 H   0  0  0  0  0  0  0  0  0  0  0  0
   -8.2596    7.7975    3.1350 H   0  0  0  0  0  0  0  0  0  0  0  0
   -8.9530    6.3296    3.9186 H   0  0  0  0  0  0  0  0  0  0  0  0
   -7.4726    6.7582    5.9229 H   0  0  0  0  0  0  0  0  0  0  0  0
   -6.9382    8.3017    5.1485 H   0  0  0  0  0  0  0  0  0  0  0  0
   -8.6688    8.0807    5.6111 H   0  0  0  0  0  0  0  0  0  0  0  0
   -9.4130    1.7905    2.3286 H   0  0  0  0  0  0  0  0  0  0  0  0
  -11.1532    2.3637    3.9719 H   0  0  0  0  0  0  0  0  0  0  0  0
  -10.7730    2.0045    6.3814 H   0  0  0  0  0  0  0  0  0  0  0  0
   -7.4663    1.2167    7.8438 H   0  0  0  0  0  0  0  0  0  0  0  0
   -9.1535    1.6973    8.1991 H   0  0  0  0  0  0  0  0  0  0  0  0
   -8.6637   -0.6017    9.0355 H   0  0  0  0  0  0  0  0  0  0  0  0
   -8.2341   -1.1374    7.3651 H   0  0  0  0  0  0  0  0  0  0  0  0
   -9.9373   -0.6440    7.7505 H   0  0  0  0  0  0  0  0  0  0  0  0
   -6.8110    0.5576    5.5423 H   0  0  0  0  0  0  0  0  0  0  0  0
    4.6957   -3.0210    4.0264 H   0  0  0  0  0  0  0  0  0  0  0  0
    6.7230   -3.0307    5.4116 H   0  0  0  0  0  0  0  0  0  0  0  0
    8.5274   -4.6556    4.9855 H   0  0  0  0  0  0  0  0  0  0  0  0
    8.1914   -7.5994    2.7957 H   0  0  0  0  0  0  0  0  0  0  0  0
    9.2464   -6.7468    3.9647 H   0  0  0  0  0  0  0  0  0  0  0  0
    8.8458   -5.9559    1.0031 H   0  0  0  0  0  0  0  0  0  0  0  0
   10.2786   -6.7959    1.7089 H   0  0  0  0  0  0  0  0  0  0  0  0
    9.9108   -5.0981    2.1925 H   0  0  0  0  0  0  0  0  0  0  0  0
    6.2088   -6.3944    1.8006 H   0  0  0  0  0  0  0  0  0  0  0  0
   -3.3686   -0.6520   -0.4193 H   0  0  0  0  0  0  0  0  0  0  0  0
   -1.8900   -1.5838   -0.2822 H   0  0  0  0  0  0  0  0  0  0  0  0
   -1.5298    0.8237    0.2785 H   0  0  0  0  0  0  0  0  0  0  0  0
   -2.6342    0.6474    1.6896 H   0  0  0  0  0  0  0  0  0  0  0  0
   -1.0825   -0.2757    1.6328 H   0  0  0  0  0  0  0  0  0  0  0  0
   -0.6046   -3.1201   -1.0019 H   0  0  0  0  0  0  0  0  0  0  0  0
   -0.0863   -4.7555   -0.5934 H   0  0  0  0  0  0  0  0  0  0  0  0
   -2.2399   -5.0919   -1.4363 H   0  0  0  0  0  0  0  0  0  0  0  0
   -2.4162   -5.2577    0.3448 H   0  0  0  0  0  0  0  0  0  0  0  0
   -2.9637   -3.7501   -0.5110 H   0  0  0  0  0  0  0  0  0  0  0  0
    8.6098   -1.0357   -1.3312 H   0  0  0  0  0  0  0  0  0  0  0  0
    8.0967   -1.9928   -2.7702 H   0  0  0  0  0  0  0  0  0  0  0  0
   10.4508   -2.8040   -3.0686 H   0  0  0  0  0  0  0  0  0  0  0  0
   10.9572   -1.8734   -1.6114 H   0  0  0  0  0  0  0  0  0  0  0  0
   10.3618   -0.9996   -3.0838 H   0  0  0  0  0  0  0  0  0  0  0  0
    6.1477   -1.4230   -0.6383 H   0  0  0  0  0  0  0  0  0  0  0  0
    7.1571   -0.9763    0.7980 H   0  0  0  0  0  0  0  0  0  0  0  0
    5.1594   -1.1994    2.2774 H   0  0  0  0  0  0  0  0  0  0  0  0
    4.8308   -0.0387    0.9326 H   0  0  0  0  0  0  0  0  0  0  0  0
    4.1541   -1.7107    0.8609 H   0  0  0  0  0  0  0  0  0  0  0  0
    9.5072   -5.0793   -3.1501 H   0  0  0  0  0  0  0  0  0  0  0  0
    5.0988   -2.0761   -6.3888 H   0  0  0  0  0  0  0  0  0  0  0  0
    4.4894   -0.7093   -8.3726 H   0  0  0  0  0  0  0  0  0  0  0  0
    5.0837    0.2394  -10.5661 H   0  0  0  0  0  0  0  0  0  0  0  0
    8.9978   -1.4941  -10.3187 H   0  0  0  0  0  0  0  0  0  0  0  0
    9.6185   -2.8267   -8.3614 H   0  0  0  0  0  0  0  0  0  0  0  0
  1  2  2  3
  2  3  1  0
  3  4  2  0
  3  5  1  0
  5  6  2  0
  6  7  1  0
  7  8  2  0
  8  9  1  0
  9 10  1  0
  9 11  2  0
 11 12  1  0
  6 13  1  0
 13 14  2  3
 14 15  1  0
 15 16  3  0
 14 17  1  0
 17 18  3  0
  1 19  1  0
 19 20  1  0
 20 21  1  0
 21 22  2  0
 22 23  1  0
 23 24  1  0
 21 25  1  0
 25 26  2  0
 26 27  1  0
 27 28  1  0
 28 29  1  0
 26 30  1  0
 30 31  1  0
 31 32  1  0
 32 33  1  0
 25 34  1  0
 34 35  2  0
 35 36  1  0
 36 37  2  0
 37 38  1  0
 38 39  2  0
 39 40  1  0
 40 41  1  0
 41 42  1  0
 40 43  2  0
 35 44  1  0
 44 45  1  0
 45 46  1  0
 46 47  1  0
 47 48  1  0
 48 49  1  0
 49 50  2  0
 50 51  1  0
 51 52  1  0
 49 53  1  0
 53 54  1  0
 54 55  1  0
 55 56  1  0
 56 57  1  0
 57 58  1  0
 58 59  2  0
 59 60  1  0
 60 61  2  0
 61 62  1  0
 62 63  1  0
 63 64  1  0
 62 65  2  0
 57 66  2  0
 66 67  1  0
 67 68  1  0
 68 69  1  0
 69 70  1  0
 70 71  1  0
 71 72  1  0
 72 73  1  0
 73 74  1  0
 74 75  1  0
 75 76  1  0
 73 77  1  0
 77 78  1  0
 70 79  1  0
 79 80  1  0
 66 81  1  0
 81 82  1  0
 82 83  1  0
 83 84  2  0
 84 85  1  0
 85 86  1  0
 83 87  1  0
 87 88  2  0
 88 89  1  0
 89 90  1  0
 90 91  1  0
 88 92  1  0
 92 93  1  0
 93 94  1  0
 94 95  1  0
 87 96  1  0
 96 97  2  3
 97 98  1  0
 98 99  2  0
 98100  1  0
100101  2  0
101102  1  0
102103  2  0
103104  1  0
104105  2  0
105106  1  0
105107  1  0
107108  2  0
108109  1  0
109110  2  0
110111  1  0
111112  2  3
112113  1  0
113114  3  0
112115  1  0
115116  3  0
 13  2  1  0
 30 19  2  0
 76 34  1  0
 92 81  2  0
111 97  1  0
 11  5  1  0
 24 20  2  0
 43 36  1  0
 75 44  2  0
 86 82  2  0
110100  1  0
 74 46  2  0
108102  1  0
 72 47  2  0
 52 48  2  0
 71 53  2  0
 69 54  2  0
 68 56  2  0
 65 58  1  0
  1117  1  0
  7118  1  0
  8119  1  0
 28120  1  0
 28121  1  0
 29122  1  0
 29123  1  0
 29124  1  0
 32125  1  0
 32126  1  0
 33127  1  0
 33128  1  0
 33129  1  0
 37130  1  0
 38131  1  0
 39132  1  0
 41133  1  0
 41134  1  0
 42135  1  0
 42136  1  0
 42137  1  0
 43138  1  0
 59139  1  0
 60140  1  0
 61141  1  0
 63142  1  0
 63143  1  0
 64144  1  0
 64145  1  0
 64146  1  0
 65147  1  0
 77148  1  0
 77149  1  0
 78150  1  0
 78151  1  0
 78152  1  0
 79153  1  0
 79154  1  0
 80155  1  0
 80156  1  0
 80157  1  0
 90158  1  0
 90159  1  0
 91160  1  0
 91161  1  0
 91162  1  0
 94163  1  0
 94164  1  0
 95165  1  0
 95166  1  0
 95167  1  0
 96168  1  0
101169  1  0
103170  1  0
104171  1  0
107172  1  0
109173  1  0
M  END

