
     RDKit          3D

169186  0  0  0  0  0  0  0  0999 V2000
   -3.3014   -2.0604   -7.5473 C   0  0  0  0  0  0  0  0  0  0  0  0
   -2.7685   -3.2991   -7.6098 C   0  0  0  0  0  0  0  0  0  0  0  0
   -2.7491   -4.2838   -6.5223 C   0  0  0  0  0  0  0  0  0  0  0  0
   -2.7532   -4.0277   -5.2884 O   0  0  0  0  0  0  0  0  0  0  0  0
   -2.6515   -5.6077   -7.1067 C   0  0  0  0  0  0  0  0  0  0  0  0
   -2.4654   -5.4819   -8.4759 C   0  0  0  0  0  0  0  0  0  0  0  0
   -2.4492   -6.6214   -9.2870 C   0  0  0  0  0  0  0  0  0  0  0  0
   -2.5871   -7.8833   -8.6927 C   0  0  0  0  0  0  0  0  0  0  0  0
   -2.7655   -8.0092   -7.3012 C   0  0  0  0  0  0  0  0  0  0  0  0
   -3.0196   -9.7644   -6.5682 Br  0  0  0  0  0  0  0  0  0  0  0  0
   -2.8137   -6.8590   -6.4914 C   0  0  0  0  0  0  0  0  0  0  0  0
   -3.1180   -6.9822   -4.7602 Cl  0  0  0  0  0  0  0  0  0  0  0  0
   -2.3933   -4.0400   -8.8434 C   0  0  0  0  0  0  0  0  0  0  0  0
   -1.8283   -3.5085   -9.9576 C   0  0  0  0  0  0  0  0  0  0  0  0
   -1.4769   -2.1098  -10.0355 C   0  0  0  0  0  0  0  0  0  0  0  0
   -1.1824   -0.9908  -10.0884 N   0  0  0  0  0  0  0  0  0  0  0  0
   -1.3818   -4.3174  -11.0628 C   0  0  0  0  0  0  0  0  0  0  0  0
   -1.0266   -4.9590  -11.9558 N   0  0  0  0  0  0  0  0  0  0  0  0
   -3.8265   -1.4476   -6.3038 C   0  0  0  0  0  0  0  0  0  0  0  0
   -4.8403   -2.0755   -5.5736 C   0  0  0  0  0  0  0  0  0  0  0  0
   -5.4262   -3.2087   -6.0425 F   0  0  0  0  0  0  0  0  0  0  0  0
   -5.2088   -1.5942   -4.3181 C   0  0  0  0  0  0  0  0  0  0  0  0
   -5.9596   -2.4145   -3.5492 F   0  0  0  0  0  0  0  0  0  0  0  0
   -4.6963   -0.3688   -3.8242 C   0  0  0  0  0  0  0  0  0  0  0  0
   -3.7462    0.3233   -4.6269 C   0  0  0  0  0  0  0  0  0  0  0  0
   -3.2082    1.5098   -4.2279 N   0  0  0  0  0  0  0  0  0  0  0  0
   -2.2251    2.1477   -4.9226 C   0  0  0  0  0  0  0  0  0  0  0  0
   -1.6415    3.4347   -4.3881 C   0  0  0  0  0  0  0  0  0  0  0  0
   -2.4540    4.0496   -3.2474 C   0  0  0  0  0  0  0  0  0  0  0  0
   -1.7200    1.5332   -6.0883 C   0  0  0  0  0  0  0  0  0  0  0  0
   -2.2897    0.3763   -6.5163 N   0  0  0  0  0  0  0  0  0  0  0  0
   -3.2929   -0.2386   -5.8369 C   0  0  0  0  0  0  0  0  0  0  0  0
   -0.5833    2.1053   -6.8984 C   0  0  0  0  0  0  0  0  0  0  0  0
   -1.1026    2.7885   -8.1580 C   0  0  0  0  0  0  0  0  0  0  0  0
   -4.9984    0.0824   -2.4218 C   0  0  0  0  0  0  0  0  0  0  0  0
   -6.0944   -0.2965   -1.5942 C   0  0  0  0  0  0  0  0  0  0  0  0
   -7.4191   -0.7479   -2.0744 C   0  0  0  0  0  0  0  0  0  0  0  0
   -8.0710   -1.8362   -1.4689 C   0  0  0  0  0  0  0  0  0  0  0  0
   -9.3277   -2.2422   -1.9223 C   0  0  0  0  0  0  0  0  0  0  0  0
   -9.9444   -1.5709   -2.9790 C   0  0  0  0  0  0  0  0  0  0  0  0
   -9.3039   -0.4851   -3.5963 C   0  0  0  0  0  0  0  0  0  0  0  0
   -9.9977    0.2684   -4.6995 C   0  0  0  0  0  0  0  0  0  0  0  0
  -11.0169    1.2497   -4.1282 C   0  0  0  0  0  0  0  0  0  0  0  0
   -8.0441   -0.0744   -3.1361 C   0  0  0  0  0  0  0  0  0  0  0  0
   -5.8476    0.0312   -0.2498 C   0  0  0  0  0  0  0  0  0  0  0  0
   -6.5195   -0.5029    1.2293 S   0  0  0  0  0  0  0  0  0  0  0  0
   -5.3231    0.3038    2.1278 C   0  0  0  0  0  0  0  0  0  0  0  0
   -4.6938    0.1094    3.3365 C   0  0  0  0  0  0  0  0  0  0  0  0
   -4.8003   -0.9597    4.2475 C   0  0  0  0  0  0  0  0  0  0  0  0
   -3.7051   -1.2328    5.1339 C   0  0  0  0  0  0  0  0  0  0  0  0
   -3.8038   -2.3304    5.9173 N   0  0  0  0  0  0  0  0  0  0  0  0
   -5.2788   -2.8955    5.4184 S   0  0  0  0  0  0  0  0  0  0  0  0
   -5.8262   -1.8453    4.2564 N   0  0  0  0  0  0  0  0  0  0  0  0
   -2.6139   -0.3530    5.1424 C   0  0  0  0  0  0  0  0  0  0  0  0
   -1.4077   -0.3422    5.8071 C   0  0  0  0  0  0  0  0  0  0  0  0
   -0.3252   -1.5404    6.3418 S   0  0  0  0  0  0  0  0  0  0  0  0
    1.0331   -0.5346    6.0451 C   0  0  0  0  0  0  0  0  0  0  0  0
    2.4144   -0.7698    5.9299 C   0  0  0  0  0  0  0  0  0  0  0  0
    3.1001   -1.9962    6.3923 C   0  0  0  0  0  0  0  0  0  0  0  0
    4.2852   -1.8900    7.1396 C   0  0  0  0  0  0  0  0  0  0  0  0
    4.9417   -3.0364    7.5889 C   0  0  0  0  0  0  0  0  0  0  0  0
    4.4252   -4.2982    7.2954 C   0  0  0  0  0  0  0  0  0  0  0  0
    3.2428   -4.4232    6.5488 C   0  0  0  0  0  0  0  0  0  0  0  0
    2.7207   -5.7873    6.1836 C   0  0  0  0  0  0  0  0  0  0  0  0
    3.3784   -6.2875    4.9017 C   0  0  0  0  0  0  0  0  0  0  0  0
    2.5911   -3.2690    6.0881 C   0  0  0  0  0  0  0  0  0  0  0  0
    3.0543    0.3223    5.2861 C   0  0  0  0  0  0  0  0  0  0  0  0
    1.8998    1.5021    4.8718 S   0  0  0  0  0  0  0  0  0  0  0  0
    0.6235    0.6724    5.5397 C   0  0  0  0  0  0  0  0  0  0  0  0
   -0.7422    0.7692    5.3807 C   0  0  0  0  0  0  0  0  0  0  0  0
   -1.4377    1.4779    4.4651 N   0  0  0  0  0  0  0  0  0  0  0  0
   -2.5604    0.7386    4.2767 C   0  0  0  0  0  0  0  0  0  0  0  0
   -3.5096    0.8551    3.2503 C   0  0  0  0  0  0  0  0  0  0  0  0
   -3.2802    1.2742    1.9662 N   0  0  0  0  0  0  0  0  0  0  0  0
   -4.4301    0.9506    1.3246 C   0  0  0  0  0  0  0  0  0  0  0  0
   -4.7007    0.7398   -0.0214 C   0  0  0  0  0  0  0  0  0  0  0  0
   -3.8416    0.8729   -1.4425 S   0  0  0  0  0  0  0  0  0  0  0  0
   -1.9636    1.3216    1.3000 C   0  0  0  0  0  0  0  0  0  0  0  0
   -1.4263   -0.0863    1.0508 C   0  0  0  0  0  0  0  0  0  0  0  0
   -1.2614    2.9128    4.1940 C   0  0  0  0  0  0  0  0  0  0  0  0
   -1.4593    3.7286    5.4655 C   0  0  0  0  0  0  0  0  0  0  0  0
    4.4171    0.3807    4.7147 C   0  0  0  0  0  0  0  0  0  0  0  0
    4.8740   -0.6373    3.8566 C   0  0  0  0  0  0  0  0  0  0  0  0
    4.1617   -1.7809    3.6929 F   0  0  0  0  0  0  0  0  0  0  0  0
    6.0057   -0.4339    3.0558 C   0  0  0  0  0  0  0  0  0  0  0  0
    6.3817   -1.3969    2.1763 F   0  0  0  0  0  0  0  0  0  0  0  0
    6.6830    0.7945    3.0795 C   0  0  0  0  0  0  0  0  0  0  0  0
    6.2757    1.7889    3.9791 C   0  0  0  0  0  0  0  0  0  0  0  0
    6.9017    2.9965    4.0086 N   0  0  0  0  0  0  0  0  0  0  0  0
    6.4765    4.0161    4.8046 C   0  0  0  0  0  0  0  0  0  0  0  0
    7.2425    5.3104    4.7618 C   0  0  0  0  0  0  0  0  0  0  0  0
    8.2995    5.3671    5.8623 C   0  0  0  0  0  0  0  0  0  0  0  0
    5.3552    3.8033    5.6422 C   0  0  0  0  0  0  0  0  0  0  0  0
    4.7299    2.5964    5.6011 N   0  0  0  0  0  0  0  0  0  0  0  0
    5.1462    1.5845    4.7950 C   0  0  0  0  0  0  0  0  0  0  0  0
    4.7450    4.8785    6.4954 C   0  0  0  0  0  0  0  0  0  0  0  0
    3.5894    5.5518    5.7609 C   0  0  0  0  0  0  0  0  0  0  0  0
    7.7117    1.1000    2.0651 C   0  0  0  0  0  0  0  0  0  0  0  0
    7.4004    1.6237    0.8598 C   0  0  0  0  0  0  0  0  0  0  0  0
    6.0442    2.0004    0.4354 C   0  0  0  0  0  0  0  0  0  0  0  0
    4.9720    1.6825    1.0121 O   0  0  0  0  0  0  0  0  0  0  0  0
    6.1400    2.8266   -0.7538 C   0  0  0  0  0  0  0  0  0  0  0  0
    7.4751    2.9502   -1.1188 C   0  0  0  0  0  0  0  0  0  0  0  0
    7.8186    3.7626   -2.2123 C   0  0  0  0  0  0  0  0  0  0  0  0
    6.8045    4.4080   -2.9351 C   0  0  0  0  0  0  0  0  0  0  0  0
    5.4564    4.2574   -2.5737 C   0  0  0  0  0  0  0  0  0  0  0  0
    4.1217    5.1626   -3.6114 Br  0  0  0  0  0  0  0  0  0  0  0  0
    5.1105    3.4650   -1.4635 C   0  0  0  0  0  0  0  0  0  0  0  0
    3.4258    3.2912   -0.9733 Cl  0  0  0  0  0  0  0  0  0  0  0  0
    8.3323    2.1482   -0.1890 C   0  0  0  0  0  0  0  0  0  0  0  0
    9.6441    1.8295   -0.3532 C   0  0  0  0  0  0  0  0  0  0  0  0
   10.3112    0.8553    0.4702 C   0  0  0  0  0  0  0  0  0  0  0  0
   10.8572    0.0687    1.1219 N   0  0  0  0  0  0  0  0  0  0  0  0
   10.4570    2.3654   -1.4111 C   0  0  0  0  0  0  0  0  0  0  0  0
   11.1294    2.7868   -2.2543 N   0  0  0  0  0  0  0  0  0  0  0  0
   -3.3543   -1.4522   -8.4376 H   0  0  0  0  0  0  0  0  0  0  0  0
   -2.3800   -6.5599  -10.3589 H   0  0  0  0  0  0  0  0  0  0  0  0
   -2.5755   -8.7681   -9.3160 H   0  0  0  0  0  0  0  0  0  0  0  0
   -0.6124    3.2358   -4.0139 H   0  0  0  0  0  0  0  0  0  0  0  0
   -1.5855    4.1819   -5.2070 H   0  0  0  0  0  0  0  0  0  0  0  0
   -1.9758    5.0005   -2.9237 H   0  0  0  0  0  0  0  0  0  0  0  0
   -2.4746    3.3643   -2.3770 H   0  0  0  0  0  0  0  0  0  0  0  0
   -3.4908    4.2658   -3.5780 H   0  0  0  0  0  0  0  0  0  0  0  0
    0.0265    2.8212   -6.3095 H   0  0  0  0  0  0  0  0  0  0  0  0
    0.0981    1.2802   -7.1943 H   0  0  0  0  0  0  0  0  0  0  0  0
   -0.2603    3.2939   -8.6770 H   0  0  0  0  0  0  0  0  0  0  0  0
   -1.5383    2.0316   -8.8451 H   0  0  0  0  0  0  0  0  0  0  0  0
   -1.8746    3.5442   -7.9062 H   0  0  0  0  0  0  0  0  0  0  0  0
   -7.5998   -2.3875   -0.6672 H   0  0  0  0  0  0  0  0  0  0  0  0
   -9.8249   -3.0813   -1.4559 H   0  0  0  0  0  0  0  0  0  0  0  0
  -10.9236   -1.8926   -3.3122 H   0  0  0  0  0  0  0  0  0  0  0  0
   -9.2599    0.8265   -5.3161 H   0  0  0  0  0  0  0  0  0  0  0  0
  -10.5184   -0.4454   -5.3761 H   0  0  0  0  0  0  0  0  0  0  0  0
  -11.7953    0.7024   -3.5562 H   0  0  0  0  0  0  0  0  0  0  0  0
  -10.5203    1.9814   -3.4569 H   0  0  0  0  0  0  0  0  0  0  0  0
  -11.5124    1.8006   -4.9553 H   0  0  0  0  0  0  0  0  0  0  0  0
   -7.5555    0.7783   -3.5944 H   0  0  0  0  0  0  0  0  0  0  0  0
    4.6933   -0.9179    7.3883 H   0  0  0  0  0  0  0  0  0  0  0  0
    5.8542   -2.9459    8.1587 H   0  0  0  0  0  0  0  0  0  0  0  0
    4.9489   -5.1841    7.6438 H   0  0  0  0  0  0  0  0  0  0  0  0
    2.9219   -6.5073    7.0070 H   0  0  0  0  0  0  0  0  0  0  0  0
    1.6182   -5.7480    6.0407 H   0  0  0  0  0  0  0  0  0  0  0  0
    4.4771   -6.3706    5.0395 H   0  0  0  0  0  0  0  0  0  0  0  0
    3.1651   -5.5880    4.0636 H   0  0  0  0  0  0  0  0  0  0  0  0
    2.9763   -7.2898    4.6425 H   0  0  0  0  0  0  0  0  0  0  0  0
    1.7035   -3.3660    5.4775 H   0  0  0  0  0  0  0  0  0  0  0  0
   -1.2174    1.8658    1.8956 H   0  0  0  0  0  0  0  0  0  0  0  0
   -2.0370    1.8772    0.3453 H   0  0  0  0  0  0  0  0  0  0  0  0
   -2.2067   -0.7234    0.5871 H   0  0  0  0  0  0  0  0  0  0  0  0
   -0.5440   -0.0412    0.3799 H   0  0  0  0  0  0  0  0  0  0  0  0
   -1.1181   -0.5525    2.0129 H   0  0  0  0  0  0  0  0  0  0  0  0
   -2.0046    3.2639    3.4444 H   0  0  0  0  0  0  0  0  0  0  0  0
   -0.2440    3.0971    3.7893 H   0  0  0  0  0  0  0  0  0  0  0  0
   -0.7222    3.4207    6.2421 H   0  0  0  0  0  0  0  0  0  0  0  0
   -2.4905    3.5770    5.8604 H   0  0  0  0  0  0  0  0  0  0  0  0
   -1.3115    4.8097    5.2500 H   0  0  0  0  0  0  0  0  0  0  0  0
    6.5563    6.1795    4.8430 H   0  0  0  0  0  0  0  0  0  0  0  0
    7.7518    5.4039    3.7790 H   0  0  0  0  0  0  0  0  0  0  0  0
    8.8312    6.3425    5.8104 H   0  0  0  0  0  0  0  0  0  0  0  0
    9.0344    4.5437    5.7333 H   0  0  0  0  0  0  0  0  0  0  0  0
    7.8285    5.2798    6.8633 H   0  0  0  0  0  0  0  0  0  0  0  0
    4.3597    4.4218    7.4322 H   0  0  0  0  0  0  0  0  0  0  0  0
    5.4879    5.6396    6.8018 H   0  0  0  0  0  0  0  0  0  0  0  0
    3.1740    6.3688    6.3882 H   0  0  0  0  0  0  0  0  0  0  0  0
    2.7857    4.8141    5.5558 H   0  0  0  0  0  0  0  0  0  0  0  0
    3.9410    5.9830    4.7977 H   0  0  0  0  0  0  0  0  0  0  0  0
    8.7326    1.0230    2.3932 H   0  0  0  0  0  0  0  0  0  0  0  0
    8.8389    3.9365   -2.5111 H   0  0  0  0  0  0  0  0  0  0  0  0
    7.0679    5.0351   -3.7787 H   0  0  0  0  0  0  0  0  0  0  0  0
  1  2  2  3
  2  3  1  0
  3  4  2  0
  3  5  1  0
  5  6  2  0
  6  7  1  0
  7  8  2  0
  8  9  1  0
  9 10  1  0
  9 11  2  0
 11 12  1  0
  6 13  1  0
 13 14  2  3
 14 15  1  0
 15 16  3  0
 14 17  1  0
 17 18  3  0
  1 19  1  0
 19 20  2  0
 20 21  1  0
 20 22  1  0
 22 23  1  0
 22 24  2  0
 24 25  1  0
 25 26  2  0
 26 27  1  0
 27 28  1  0
 28 29  1  0
 27 30  2  0
 30 31  1  0
 31 32  2  0
 30 33  1  0
 33 34  1  0
 24 35  1  0
 35 36  2  0
 36 37  1  0
 37 38  2  0
 38 39  1  0
 39 40  2  0
 40 41  1  0
 41 42  1  0
 42 43  1  0
 41 44  2  0
 36 45  1  0
 45 46  1  0
 46 47  1  0
 47 48  1  0
 48 49  1  0
 49 50  1  0
 50 51  2  0
 51 52  1  0
 52 53  1  0
 50 54  1  0
 54 55  1  0
 55 56  1  0
 56 57  1  0
 57 58  1  0
 58 59  1  0
 59 60  2  0
 60 61  1  0
 61 62  2  0
 62 63  1  0
 63 64  1  0
 64 65  1  0
 63 66  2  0
 58 67  2  0
 67 68  1  0
 68 69  1  0
 69 70  1  0
 70 71  1  0
 71 72  1  0
 72 73  1  0
 73 74  1  0
 74 75  1  0
 75 76  1  0
 76 77  1  0
 74 78  1  0
 78 79  1  0
 71 80  1  0
 80 81  1  0
 67 82  1  0
 82 83  2  0
 83 84  1  0
 83 85  1  0
 85 86  1  0
 85 87  2  0
 87 88  1  0
 88 89  2  0
 89 90  1  0
 90 91  1  0
 91 92  1  0
 90 93  2  0
 93 94  1  0
 94 95  2  0
 93 96  1  0
 96 97  1  0
 87 98  1  0
 98 99  2  3
 99100  1  0
100101  2  0
100102  1  0
102103  2  0
103104  1  0
104105  2  0
105106  1  0
106107  1  0
106108  2  0
108109  1  0
103110  1  0
110111  2  3
111112  1  0
112113  3  0
111114  1  0
114115  3  0
 13  2  1  0
 32 19  1  0
 77 35  1  0
 95 82  1  0
110 99  1  0
 11  5  1  0
 32 25  1  0
 44 37  1  0
 76 45  2  0
 95 88  1  0
108102  1  0
 75 47  2  0
 73 48  2  0
 53 49  2  0
 72 54  2  0
 70 55  2  0
 69 57  2  0
 66 59  1  0
  1116  1  0
  7117  1  0
  8118  1  0
 28119  1  0
 28120  1  0
 29121  1  0
 29122  1  0
 29123  1  0
 33124  1  0
 33125  1  0
 34126  1  0
 34127  1  0
 34128  1  0
 38129  1  0
 39130  1  0
 40131  1  0
 42132  1  0
 42133  1  0
 43134  1  0
 43135  1  0
 43136  1  0
 44137  1  0
 60138  1  0
 61139  1  0
 62140  1  0
 64141  1  0
 64142  1  0
 65143  1  0
 65144  1  0
 65145  1  0
 66146  1  0
 78147  1  0
 78148  1  0
 79149  1  0
 79150  1  0
 79151  1  0
 80152  1  0
 80153  1  0
 81154  1  0
 81155  1  0
 81156  1  0
 91157  1  0
 91158  1  0
 92159  1  0
 92160  1  0
 92161  1  0
 96162  1  0
 96163  1  0
 97164  1  0
 97165  1  0
 97166  1  0
 98167  1  0
104168  1  0
105169  1  0
M  END

