
     RDKit          3D

199220  0  0  0  0  0  0  0  0999 V2000
   -4.3454    4.2686    8.2694 C   0  0  0  0  0  0  0  0  0  0  0  0
   -4.9682    3.2666    8.9121 C   0  0  0  0  0  0  0  0  0  0  0  0
   -6.1220    3.4970    9.7803 C   0  0  0  0  0  0  0  0  0  0  0  0
   -6.4126    4.5882   10.3421 O   0  0  0  0  0  0  0  0  0  0  0  0
   -6.9422    2.2964    9.7765 C   0  0  0  0  0  0  0  0  0  0  0  0
   -6.2948    1.3190    9.0281 C   0  0  0  0  0  0  0  0  0  0  0  0
   -6.9588    0.1425    8.6692 C   0  0  0  0  0  0  0  0  0  0  0  0
   -8.2768   -0.0503    9.1065 C   0  0  0  0  0  0  0  0  0  0  0  0
   -8.9293    0.9306    9.8795 C   0  0  0  0  0  0  0  0  0  0  0  0
  -10.7572    0.6318   10.3731 Br  0  0  0  0  0  0  0  0  0  0  0  0
   -8.2606    2.1226   10.2206 C   0  0  0  0  0  0  0  0  0  0  0  0
   -9.0828    3.3907   11.1322 Cl  0  0  0  0  0  0  0  0  0  0  0  0
   -4.9678    1.8155    8.5876 C   0  0  0  0  0  0  0  0  0  0  0  0
   -3.8750    1.0489    8.3417 C   0  0  0  0  0  0  0  0  0  0  0  0
   -3.9437   -0.3915    8.2828 C   0  0  0  0  0  0  0  0  0  0  0  0
   -3.9806   -1.5464    8.2405 N   0  0  0  0  0  0  0  0  0  0  0  0
   -2.5417    1.5956    8.3363 C   0  0  0  0  0  0  0  0  0  0  0  0
   -1.4629    2.0096    8.3384 N   0  0  0  0  0  0  0  0  0  0  0  0
   -3.6155    4.1102    6.9974 C   0  0  0  0  0  0  0  0  0  0  0  0
   -4.0263    3.3877    5.8505 C   0  0  0  0  0  0  0  0  0  0  0  0
   -5.3838    2.9576    5.5622 N   0  0  0  0  0  0  0  0  0  0  0  0
   -6.5318    3.6551    6.1046 C   0  0  0  0  0  0  0  0  0  0  0  0
   -7.6661    2.9343    6.5104 C   0  0  0  0  0  0  0  0  0  0  0  0
   -8.7300    3.5796    7.1475 C   0  0  0  0  0  0  0  0  0  0  0  0
   -8.6842    4.9643    7.3706 C   0  0  0  0  0  0  0  0  0  0  0  0
   -9.7526    5.6380    8.1785 C   0  0  0  0  0  0  0  0  0  0  0  0
   -7.5780    5.6968    6.9149 C   0  0  0  0  0  0  0  0  0  0  0  0
   -6.5261    5.0518    6.2623 C   0  0  0  0  0  0  0  0  0  0  0  0
   -5.6273    1.9346    4.5815 C   0  0  0  0  0  0  0  0  0  0  0  0
   -6.3825    2.2202    3.4346 C   0  0  0  0  0  0  0  0  0  0  0  0
   -6.6284    1.2259    2.4837 C   0  0  0  0  0  0  0  0  0  0  0  0
   -6.1257   -0.0678    2.6700 C   0  0  0  0  0  0  0  0  0  0  0  0
   -6.4342   -1.1433    1.6735 C   0  0  0  0  0  0  0  0  0  0  0  0
   -5.3910   -0.3621    3.8296 C   0  0  0  0  0  0  0  0  0  0  0  0
   -5.1375    0.6349    4.7748 C   0  0  0  0  0  0  0  0  0  0  0  0
   -2.9652    3.3119    4.9375 C   0  0  0  0  0  0  0  0  0  0  0  0
   -2.6836    2.5018    3.4944 S   0  0  0  0  0  0  0  0  0  0  0  0
   -1.0819    3.0558    3.3227 C   0  0  0  0  0  0  0  0  0  0  0  0
   -0.7789    3.9053    4.3990 C   0  0  0  0  0  0  0  0  0  0  0  0
    0.3895    4.7359    4.4904 N   0  0  0  0  0  0  0  0  0  0  0  0
    1.5938    4.1939    5.0463 C   0  0  0  0  0  0  0  0  0  0  0  0
    1.6026    3.6597    6.3434 C   0  0  0  0  0  0  0  0  0  0  0  0
    2.7855    3.1521    6.8888 C   0  0  0  0  0  0  0  0  0  0  0  0
    3.9751    3.1816    6.1451 C   0  0  0  0  0  0  0  0  0  0  0  0
    5.2347    2.6177    6.7325 C   0  0  0  0  0  0  0  0  0  0  0  0
    3.9760    3.7620    4.8655 C   0  0  0  0  0  0  0  0  0  0  0  0
    2.7915    4.2693    4.3218 C   0  0  0  0  0  0  0  0  0  0  0  0
    0.2502    6.1631    4.2940 C   0  0  0  0  0  0  0  0  0  0  0  0
    0.9984    7.0754    5.0627 C   0  0  0  0  0  0  0  0  0  0  0  0
    0.7912    8.4520    4.9307 C   0  0  0  0  0  0  0  0  0  0  0  0
   -0.1725    8.9403    4.0419 C   0  0  0  0  0  0  0  0  0  0  0  0
   -0.3943   10.4185    3.9190 C   0  0  0  0  0  0  0  0  0  0  0  0
   -0.8902    8.0413    3.2419 C   0  0  0  0  0  0  0  0  0  0  0  0
   -0.6847    6.6654    3.3699 C   0  0  0  0  0  0  0  0  0  0  0  0
   -1.8534    4.0104    5.2785 C   0  0  0  0  0  0  0  0  0  0  0  0
   -2.0584    4.7546    6.7620 S   0  0  0  0  0  0  0  0  0  0  0  0
   -0.1334    2.5617    2.3174 C   0  0  0  0  0  0  0  0  0  0  0  0
    0.7601    1.4930    2.5091 C   0  0  0  0  0  0  0  0  0  0  0  0
    0.6361    0.4812    3.5736 C   0  0  0  0  0  0  0  0  0  0  0  0
    1.3063    0.6851    4.7805 C   0  0  0  0  0  0  0  0  0  0  0  0
    1.1121   -0.1761    5.8599 C   0  0  0  0  0  0  0  0  0  0  0  0
    0.2644   -1.2743    5.7309 C   0  0  0  0  0  0  0  0  0  0  0  0
   -0.3516   -1.5400    4.5048 C   0  0  0  0  0  0  0  0  0  0  0  0
   -0.1397   -0.6951    3.3971 C   0  0  0  0  0  0  0  0  0  0  0  0
   -0.6862   -1.1159    2.0478 C   0  0  0  0  0  0  0  0  0  0  0  0
   -2.0469   -0.5087    1.7479 C   0  0  0  0  0  0  0  0  0  0  0  0
    1.6021    1.3523    1.4156 C   0  0  0  0  0  0  0  0  0  0  0  0
    2.9333    0.3332    1.0960 S   0  0  0  0  0  0  0  0  0  0  0  0
    3.0280    0.9485   -0.4767 C   0  0  0  0  0  0  0  0  0  0  0  0
    3.7815    0.8055   -1.5992 C   0  0  0  0  0  0  0  0  0  0  0  0
    5.0170    0.1990   -1.8204 C   0  0  0  0  0  0  0  0  0  0  0  0
    5.5914    0.2887   -3.1203 C   0  0  0  0  0  0  0  0  0  0  0  0
    6.7923   -0.3151   -3.2957 N   0  0  0  0  0  0  0  0  0  0  0  0
    7.0523   -0.8946   -1.7671 S   0  0  0  0  0  0  0  0  0  0  0  0
    5.7331   -0.4511   -0.8689 N   0  0  0  0  0  0  0  0  0  0  0  0
    4.8504    0.8895   -4.1546 C   0  0  0  0  0  0  0  0  0  0  0  0
    4.9074    0.5889   -5.4888 C   0  0  0  0  0  0  0  0  0  0  0  0
    5.7792   -0.6131   -6.3061 S   0  0  0  0  0  0  0  0  0  0  0  0
    4.4899   -0.9291   -7.3512 C   0  0  0  0  0  0  0  0  0  0  0  0
    4.2316   -2.0356   -8.1677 C   0  0  0  0  0  0  0  0  0  0  0  0
    5.2344   -3.0809   -8.4552 C   0  0  0  0  0  0  0  0  0  0  0  0
    5.6697   -3.3576   -9.7757 C   0  0  0  0  0  0  0  0  0  0  0  0
    5.2175   -2.5373  -10.9644 C   0  0  0  0  0  0  0  0  0  0  0  0
    5.9776   -1.2147  -11.0320 C   0  0  0  0  0  0  0  0  0  0  0  0
    6.6105   -4.3834   -9.9821 C   0  0  0  0  0  0  0  0  0  0  0  0
    7.1008   -5.1272   -8.9055 C   0  0  0  0  0  0  0  0  0  0  0  0
    6.6755   -4.8483   -7.6092 C   0  0  0  0  0  0  0  0  0  0  0  0
    5.7454   -3.8313   -7.3853 C   0  0  0  0  0  0  0  0  0  0  0  0
    2.8600   -2.1190   -8.4980 C   0  0  0  0  0  0  0  0  0  0  0  0
    2.0423   -0.8153   -7.7707 S   0  0  0  0  0  0  0  0  0  0  0  0
    3.4032   -0.1443   -7.0507 C   0  0  0  0  0  0  0  0  0  0  0  0
    3.6374    0.7373   -5.9818 C   0  0  0  0  0  0  0  0  0  0  0  0
    2.7895    1.2356   -5.0441 N   0  0  0  0  0  0  0  0  0  0  0  0
    3.5641    1.4101   -3.9251 C   0  0  0  0  0  0  0  0  0  0  0  0
    3.1190    1.5334   -2.5891 C   0  0  0  0  0  0  0  0  0  0  0  0
    2.0924    2.2786   -2.0493 N   0  0  0  0  0  0  0  0  0  0  0  0
    2.0707    1.8638   -0.7593 C   0  0  0  0  0  0  0  0  0  0  0  0
    1.2876    2.1542    0.3475 C   0  0  0  0  0  0  0  0  0  0  0  0
    0.0284    3.1923    0.7400 S   0  0  0  0  0  0  0  0  0  0  0  0
    1.4321    3.5032   -2.5351 C   0  0  0  0  0  0  0  0  0  0  0  0
    2.2741    4.2832   -3.5474 C   0  0  0  0  0  0  0  0  0  0  0  0
    1.3290    1.0749   -5.0793 C   0  0  0  0  0  0  0  0  0  0  0  0
    0.9058   -0.2611   -4.4683 C   0  0  0  0  0  0  0  0  0  0  0  0
    2.1765   -3.2852   -9.0890 C   0  0  0  0  0  0  0  0  0  0  0  0
    2.7176   -4.8735   -8.9755 S   0  0  0  0  0  0  0  0  0  0  0  0
    1.3890   -5.5761   -9.7146 C   0  0  0  0  0  0  0  0  0  0  0  0
    0.4862   -4.5893  -10.0759 C   0  0  0  0  0  0  0  0  0  0  0  0
    0.9196   -3.2923   -9.6989 C   0  0  0  0  0  0  0  0  0  0  0  0
    0.2342   -2.0965   -9.9469 O   0  0  0  0  0  0  0  0  0  0  0  0
   -1.1784   -1.9542   -9.9322 C   0  0  0  0  0  0  0  0  0  0  0  0
   -1.8466   -2.7837  -11.0252 C   0  0  0  0  0  0  0  0  0  0  0  0
   -1.9333   -4.2505  -10.6247 C   0  0  0  0  0  0  0  0  0  0  0  0
   -0.6860   -4.9075  -10.7718 O   0  0  0  0  0  0  0  0  0  0  0  0
    1.2012   -7.0179   -9.9014 C   0  0  0  0  0  0  0  0  0  0  0  0
    0.7562   -7.8438   -8.9421 C   0  0  0  0  0  0  0  0  0  0  0  0
    0.6866   -9.3016   -9.0934 C   0  0  0  0  0  0  0  0  0  0  0  0
    0.9719   -9.9434  -10.1425 O   0  0  0  0  0  0  0  0  0  0  0  0
    0.2842   -9.8829   -7.8177 C   0  0  0  0  0  0  0  0  0  0  0  0
    0.1123   -8.8626   -6.8984 C   0  0  0  0  0  0  0  0  0  0  0  0
   -0.3991   -9.1213   -5.6219 C   0  0  0  0  0  0  0  0  0  0  0  0
   -0.6900  -10.4482   -5.2705 C   0  0  0  0  0  0  0  0  0  0  0  0
   -0.4754  -11.4985   -6.1883 C   0  0  0  0  0  0  0  0  0  0  0  0
   -0.8988  -13.2830   -5.6352 Br  0  0  0  0  0  0  0  0  0  0  0  0
    0.0160  -11.2191   -7.4843 C   0  0  0  0  0  0  0  0  0  0  0  0
    0.2474  -12.5047   -8.6663 Cl  0  0  0  0  0  0  0  0  0  0  0  0
    0.3651   -7.5518   -7.5224 C   0  0  0  0  0  0  0  0  0  0  0  0
    0.6295   -6.4175   -6.8583 C   0  0  0  0  0  0  0  0  0  0  0  0
   -0.2590   -5.2999   -7.0553 C   0  0  0  0  0  0  0  0  0  0  0  0
   -0.9925   -4.4119   -7.1875 N   0  0  0  0  0  0  0  0  0  0  0  0
    1.2993   -6.4529   -5.5810 C   0  0  0  0  0  0  0  0  0  0  0  0
    1.8585   -6.4638   -4.5625 N   0  0  0  0  0  0  0  0  0  0  0  0
   -4.4636    5.2819    8.6329 H   0  0  0  0  0  0  0  0  0  0  0  0
   -6.5125   -0.5864    8.0117 H   0  0  0  0  0  0  0  0  0  0  0  0
   -8.8062   -0.9449    8.8125 H   0  0  0  0  0  0  0  0  0  0  0  0
   -7.7035    1.8617    6.3776 H   0  0  0  0  0  0  0  0  0  0  0  0
   -9.5732    2.9940    7.4922 H   0  0  0  0  0  0  0  0  0  0  0  0
   -9.4303    5.6778    9.2399 H   0  0  0  0  0  0  0  0  0  0  0  0
   -9.9211    6.6705    7.8140 H   0  0  0  0  0  0  0  0  0  0  0  0
  -10.7108    5.0794    8.1136 H   0  0  0  0  0  0  0  0  0  0  0  0
   -7.5252    6.7656    7.0804 H   0  0  0  0  0  0  0  0  0  0  0  0
   -5.6838    5.6381    5.9173 H   0  0  0  0  0  0  0  0  0  0  0  0
   -6.7668    3.2209    3.2717 H   0  0  0  0  0  0  0  0  0  0  0  0
   -7.2127    1.4696    1.6072 H   0  0  0  0  0  0  0  0  0  0  0  0
   -6.4756   -0.7198    0.6455 H   0  0  0  0  0  0  0  0  0  0  0  0
   -7.4175   -1.6006    1.9147 H   0  0  0  0  0  0  0  0  0  0  0  0
   -5.6528   -1.9333    1.6884 H   0  0  0  0  0  0  0  0  0  0  0  0
   -5.0170   -1.3648    3.9974 H   0  0  0  0  0  0  0  0  0  0  0  0
   -4.5568    0.3966    5.6548 H   0  0  0  0  0  0  0  0  0  0  0  0
    0.6912    3.6168    6.9211 H   0  0  0  0  0  0  0  0  0  0  0  0
    2.7695    2.7204    7.8820 H   0  0  0  0  0  0  0  0  0  0  0  0
    5.0306    1.6284    7.1911 H   0  0  0  0  0  0  0  0  0  0  0  0
    6.0134    2.4796    5.9511 H   0  0  0  0  0  0  0  0  0  0  0  0
    5.6230    3.3079    7.5107 H   0  0  0  0  0  0  0  0  0  0  0  0
    4.8943    3.8209    4.2891 H   0  0  0  0  0  0  0  0  0  0  0  0
    2.8029    4.7029    3.3294 H   0  0  0  0  0  0  0  0  0  0  0  0
    1.7258    6.7299    5.7827 H   0  0  0  0  0  0  0  0  0  0  0  0
    1.3712    9.1355    5.5365 H   0  0  0  0  0  0  0  0  0  0  0  0
   -0.4625   10.8788    4.9292 H   0  0  0  0  0  0  0  0  0  0  0  0
    0.4536   10.8756    3.3695 H   0  0  0  0  0  0  0  0  0  0  0  0
   -1.3379   10.6444    3.3765 H   0  0  0  0  0  0  0  0  0  0  0  0
   -1.6229    8.4034    2.5287 H   0  0  0  0  0  0  0  0  0  0  0  0
   -1.2682    5.9916    2.7529 H   0  0  0  0  0  0  0  0  0  0  0  0
    1.9960    1.5019    4.8706 H   0  0  0  0  0  0  0  0  0  0  0  0
    1.6216    0.0075    6.7946 H   0  0  0  0  0  0  0  0  0  0  0  0
    0.1073   -1.9456    6.5676 H   0  0  0  0  0  0  0  0  0  0  0  0
   -0.9697   -2.4257    4.4035 H   0  0  0  0  0  0  0  0  0  0  0  0
   -0.7824   -2.2215    2.0111 H   0  0  0  0  0  0  0  0  0  0  0  0
    0.0209   -0.8447    1.2401 H   0  0  0  0  0  0  0  0  0  0  0  0
   -2.7547   -0.6966    2.5847 H   0  0  0  0  0  0  0  0  0  0  0  0
   -1.9518    0.5803    1.5744 H   0  0  0  0  0  0  0  0  0  0  0  0
   -2.4615   -0.9599    0.8225 H   0  0  0  0  0  0  0  0  0  0  0  0
    4.1297   -2.3397  -10.9206 H   0  0  0  0  0  0  0  0  0  0  0  0
    5.3975   -3.0957  -11.9093 H   0  0  0  0  0  0  0  0  0  0  0  0
    7.0723   -1.3972  -11.0495 H   0  0  0  0  0  0  0  0  0  0  0  0
    5.7301   -0.5765  -10.1570 H   0  0  0  0  0  0  0  0  0  0  0  0
    5.6936   -0.6691  -11.9580 H   0  0  0  0  0  0  0  0  0  0  0  0
    6.9723   -4.6079  -10.9757 H   0  0  0  0  0  0  0  0  0  0  0  0
    7.8173   -5.9189   -9.0785 H   0  0  0  0  0  0  0  0  0  0  0  0
    7.0684   -5.4253   -6.7780 H   0  0  0  0  0  0  0  0  0  0  0  0
    5.4180   -3.6380   -6.3729 H   0  0  0  0  0  0  0  0  0  0  0  0
    0.4236    3.2703   -2.9382 H   0  0  0  0  0  0  0  0  0  0  0  0
    1.2671    4.1868   -1.6719 H   0  0  0  0  0  0  0  0  0  0  0  0
    3.3262    4.3460   -3.2009 H   0  0  0  0  0  0  0  0  0  0  0  0
    2.2340    3.8073   -4.5445 H   0  0  0  0  0  0  0  0  0  0  0  0
    1.8718    5.3123   -3.6531 H   0  0  0  0  0  0  0  0  0  0  0  0
    0.9585    1.1543   -6.1196 H   0  0  0  0  0  0  0  0  0  0  0  0
    0.8364    1.8873   -4.5398 H   0  0  0  0  0  0  0  0  0  0  0  0
    1.1751   -0.3020   -3.3949 H   0  0  0  0  0  0  0  0  0  0  0  0
   -0.1935   -0.3792   -4.5552 H   0  0  0  0  0  0  0  0  0  0  0  0
    1.3891   -1.1080   -4.9909 H   0  0  0  0  0  0  0  0  0  0  0  0
   -1.5740   -2.2080   -8.9250 H   0  0  0  0  0  0  0  0  0  0  0  0
   -1.4143   -0.8837  -10.1178 H   0  0  0  0  0  0  0  0  0  0  0  0
   -2.8797   -2.4011  -11.1736 H   0  0  0  0  0  0  0  0  0  0  0  0
   -1.2937   -2.6746  -11.9815 H   0  0  0  0  0  0  0  0  0  0  0  0
   -2.6641   -4.7545  -11.2930 H   0  0  0  0  0  0  0  0  0  0  0  0
   -2.3092   -4.3666   -9.5830 H   0  0  0  0  0  0  0  0  0  0  0  0
    1.4806   -7.4222  -10.8698 H   0  0  0  0  0  0  0  0  0  0  0  0
   -0.6071   -8.3142   -4.9319 H   0  0  0  0  0  0  0  0  0  0  0  0
   -1.0989  -10.6588   -4.2966 H   0  0  0  0  0  0  0  0  0  0  0  0
  1  2  2  3
  2  3  1  0
  3  4  2  0
  3  5  1  0
  5  6  2  0
  6  7  1  0
  7  8  2  0
  8  9  1  0
  9 10  1  0
  9 11  2  0
 11 12  1  0
  6 13  1  0
 13 14  2  3
 14 15  1  0
 15 16  3  0
 14 17  1  0
 17 18  3  0
  1 19  1  0
 19 20  2  0
 20 21  1  0
 21 22  1  0
 22 23  2  0
 23 24  1  0
 24 25  2  0
 25 26  1  0
 25 27  1  0
 27 28  2  0
 21 29  1  0
 29 30  2  0
 30 31  1  0
 31 32  2  0
 32 33  1  0
 32 34  1  0
 34 35  2  0
 20 36  1  0
 36 37  1  0
 37 38  1  0
 38 39  2  0
 39 40  1  0
 40 41  1  0
 41 42  2  0
 42 43  1  0
 43 44  2  0
 44 45  1  0
 44 46  1  0
 46 47  2  0
 40 48  1  0
 48 49  2  0
 49 50  1  0
 50 51  2  0
 51 52  1  0
 51 53  1  0
 53 54  2  0
 39 55  1  0
 55 56  1  0
 38 57  1  0
 57 58  2  0
 58 59  1  0
 59 60  2  0
 60 61  1  0
 61 62  2  0
 62 63  1  0
 63 64  2  0
 64 65  1  0
 65 66  1  0
 58 67  1  0
 67 68  1  0
 68 69  1  0
 69 70  1  0
 70 71  1  0
 71 72  1  0
 72 73  2  0
 73 74  1  0
 74 75  1  0
 72 76  1  0
 76 77  1  0
 77 78  1  0
 78 79  1  0
 79 80  1  0
 80 81  1  0
 81 82  2  0
 82 83  1  0
 83 84  1  0
 82 85  1  0
 85 86  2  0
 86 87  1  0
 87 88  2  0
 80 89  2  0
 89 90  1  0
 90 91  1  0
 91 92  1  0
 92 93  1  0
 93 94  1  0
 94 95  1  0
 95 96  1  0
 96 97  1  0
 97 98  1  0
 98 99  1  0
 96100  1  0
100101  1  0
 93102  1  0
102103  1  0
 89104  1  0
104105  1  0
105106  1  0
106107  2  0
107108  1  0
108109  1  0
109110  1  0
110111  1  0
111112  1  0
112113  1  0
106114  1  0
114115  2  3
115116  1  0
116117  2  0
116118  1  0
118119  2  0
119120  1  0
120121  2  0
121122  1  0
122123  1  0
122124  2  0
124125  1  0
119126  1  0
126127  2  3
127128  1  0
128129  3  0
127130  1  0
130131  3  0
 13  2  1  0
 56 19  1  0
 99 57  1  0
108104  2  0
126115  1  0
 11  5  1  0
 28 22  1  0
 35 29  1  0
 55 36  2  0
 64 59  1  0
 98 67  2  0
113107  1  0
124118  1  0
 47 41  1  0
 54 48  1  0
 97 69  2  0
 95 70  2  0
 75 71  2  0
 94 76  2  0
 92 77  2  0
 91 79  2  0
 88 81  1  0
  1132  1  0
  7133  1  0
  8134  1  0
 23135  1  0
 24136  1  0
 26137  1  0
 26138  1  0
 26139  1  0
 27140  1  0
 28141  1  0
 30142  1  0
 31143  1  0
 33144  1  0
 33145  1  0
 33146  1  0
 34147  1  0
 35148  1  0
 42149  1  0
 43150  1  0
 45151  1  0
 45152  1  0
 45153  1  0
 46154  1  0
 47155  1  0
 49156  1  0
 50157  1  0
 52158  1  0
 52159  1  0
 52160  1  0
 53161  1  0
 54162  1  0
 60163  1  0
 61164  1  0
 62165  1  0
 63166  1  0
 65167  1  0
 65168  1  0
 66169  1  0
 66170  1  0
 66171  1  0
 83172  1  0
 83173  1  0
 84174  1  0
 84175  1  0
 84176  1  0
 85177  1  0
 86178  1  0
 87179  1  0
 88180  1  0
100181  1  0
100182  1  0
101183  1  0
101184  1  0
101185  1  0
102186  1  0
102187  1  0
103188  1  0
103189  1  0
103190  1  0
110191  1  0
110192  1  0
111193  1  0
111194  1  0
112195  1  0
112196  1  0
114197  1  0
120198  1  0
121199  1  0
M  END

