
     RDKit          3D

249274  0  0  0  0  0  0  0  0999 V2000
    5.1527    1.0776    8.2639 C   0  0  0  0  0  0  0  0  0  0  0  0
    5.3756   -0.1758    7.8374 C   0  0  0  0  0  0  0  0  0  0  0  0
    6.6293   -0.8698    8.1264 C   0  0  0  0  0  0  0  0  0  0  0  0
    7.3325   -0.7131    9.1609 O   0  0  0  0  0  0  0  0  0  0  0  0
    6.9566   -1.7161    6.9928 C   0  0  0  0  0  0  0  0  0  0  0  0
    5.9218   -1.6468    6.0732 C   0  0  0  0  0  0  0  0  0  0  0  0
    6.0165   -2.3266    4.8516 C   0  0  0  0  0  0  0  0  0  0  0  0
    7.1590   -3.0934    4.5872 C   0  0  0  0  0  0  0  0  0  0  0  0
    8.1937   -3.1888    5.5387 C   0  0  0  0  0  0  0  0  0  0  0  0
    9.7099   -4.2869    5.1276 Br  0  0  0  0  0  0  0  0  0  0  0  0
    8.1072   -2.4818    6.7556 C   0  0  0  0  0  0  0  0  0  0  0  0
    9.4015   -2.5600    7.9443 Cl  0  0  0  0  0  0  0  0  0  0  0  0
    4.8123   -0.8324    6.6273 C   0  0  0  0  0  0  0  0  0  0  0  0
    3.4974   -1.1006    6.4362 C   0  0  0  0  0  0  0  0  0  0  0  0
    3.0123   -1.8246    5.2917 C   0  0  0  0  0  0  0  0  0  0  0  0
    2.6101   -2.4063    4.3752 N   0  0  0  0  0  0  0  0  0  0  0  0
    2.5450   -0.9233    7.5064 C   0  0  0  0  0  0  0  0  0  0  0  0
    1.7823   -0.7942    8.3649 N   0  0  0  0  0  0  0  0  0  0  0  0
    4.3518    2.0574    7.5169 C   0  0  0  0  0  0  0  0  0  0  0  0
    4.8683    3.0672    6.6831 C   0  0  0  0  0  0  0  0  0  0  0  0
    6.2619    3.2889    6.3954 N   0  0  0  0  0  0  0  0  0  0  0  0
    7.1068    2.2046    5.9725 C   0  0  0  0  0  0  0  0  0  0  0  0
    8.2942    1.9236    6.6678 C   0  0  0  0  0  0  0  0  0  0  0  0
    9.2197    1.0133    6.1508 C   0  0  0  0  0  0  0  0  0  0  0  0
    8.9701    0.3669    4.9314 C   0  0  0  0  0  0  0  0  0  0  0  0
   10.0119   -0.5306    4.3245 C   0  0  0  0  0  0  0  0  0  0  0  0
    7.7802    0.6393    4.2408 C   0  0  0  0  0  0  0  0  0  0  0  0
    6.8448    1.5371    4.7674 C   0  0  0  0  0  0  0  0  0  0  0  0
    6.7590    4.6424    6.3179 C   0  0  0  0  0  0  0  0  0  0  0  0
    7.5571    5.0515    5.2313 C   0  0  0  0  0  0  0  0  0  0  0  0
    7.9469    6.3862    5.1016 C   0  0  0  0  0  0  0  0  0  0  0  0
    7.5416    7.3368    6.0464 C   0  0  0  0  0  0  0  0  0  0  0  0
    7.9572    8.7716    5.9058 C   0  0  0  0  0  0  0  0  0  0  0  0
    6.7857    6.9259    7.1563 C   0  0  0  0  0  0  0  0  0  0  0  0
    6.3871    5.5925    7.2777 C   0  0  0  0  0  0  0  0  0  0  0  0
    3.8333    3.8327    6.1369 C   0  0  0  0  0  0  0  0  0  0  0  0
    3.7450    4.8912    4.8531 S   0  0  0  0  0  0  0  0  0  0  0  0
    2.0386    4.8621    4.6922 C   0  0  0  0  0  0  0  0  0  0  0  0
    1.5467    4.0396    5.7323 C   0  0  0  0  0  0  0  0  0  0  0  0
    0.1572    3.7695    5.9953 N   0  0  0  0  0  0  0  0  0  0  0  0
   -0.2414    2.3862    5.9226 C   0  0  0  0  0  0  0  0  0  0  0  0
   -0.0225    1.6540    4.7466 C   0  0  0  0  0  0  0  0  0  0  0  0
   -0.2768    0.2812    4.7020 C   0  0  0  0  0  0  0  0  0  0  0  0
   -0.7488   -0.3863    5.8434 C   0  0  0  0  0  0  0  0  0  0  0  0
   -1.0362   -1.8555    5.7916 C   0  0  0  0  0  0  0  0  0  0  0  0
   -0.9915    0.3415    7.0161 C   0  0  0  0  0  0  0  0  0  0  0  0
   -0.7214    1.7124    7.0610 C   0  0  0  0  0  0  0  0  0  0  0  0
   -0.6495    4.7755    6.6719 C   0  0  0  0  0  0  0  0  0  0  0  0
   -0.0854    6.0063    7.0768 C   0  0  0  0  0  0  0  0  0  0  0  0
   -0.8671    6.9881    7.6889 C   0  0  0  0  0  0  0  0  0  0  0  0
   -2.2342    6.7660    7.9125 C   0  0  0  0  0  0  0  0  0  0  0  0
   -3.0844    7.8297    8.5420 C   0  0  0  0  0  0  0  0  0  0  0  0
   -2.7947    5.5356    7.5585 C   0  0  0  0  0  0  0  0  0  0  0  0
   -2.0194    4.5602    6.9224 C   0  0  0  0  0  0  0  0  0  0  0  0
    2.5810    3.4756    6.4907 C   0  0  0  0  0  0  0  0  0  0  0  0
    2.6599    2.2016    7.5823 S   0  0  0  0  0  0  0  0  0  0  0  0
    1.4899    4.8477    3.3163 C   0  0  0  0  0  0  0  0  0  0  0  0
    0.2584    5.3065    2.7936 C   0  0  0  0  0  0  0  0  0  0  0  0
   -0.8194    5.9885    3.5339 C   0  0  0  0  0  0  0  0  0  0  0  0
   -0.5857    7.2938    3.9943 C   0  0  0  0  0  0  0  0  0  0  0  0
   -1.6128    8.0442    4.5689 C   0  0  0  0  0  0  0  0  0  0  0  0
   -2.8862    7.4867    4.7150 C   0  0  0  0  0  0  0  0  0  0  0  0
   -3.1309    6.1826    4.2857 C   0  0  0  0  0  0  0  0  0  0  0  0
   -2.1162    5.4161    3.6788 C   0  0  0  0  0  0  0  0  0  0  0  0
   -2.4146    3.9753    3.3047 C   0  0  0  0  0  0  0  0  0  0  0  0
   -3.5837    3.8521    2.3256 C   0  0  0  0  0  0  0  0  0  0  0  0
    0.1918    5.0565    1.4153 C   0  0  0  0  0  0  0  0  0  0  0  0
   -0.9295    5.4423    0.1779 S   0  0  0  0  0  0  0  0  0  0  0  0
    0.0428    4.6695   -0.9886 C   0  0  0  0  0  0  0  0  0  0  0  0
    0.1426    4.4901   -2.3424 C   0  0  0  0  0  0  0  0  0  0  0  0
   -0.6253    4.9370   -3.4153 C   0  0  0  0  0  0  0  0  0  0  0  0
   -0.1867    4.6515   -4.7418 C   0  0  0  0  0  0  0  0  0  0  0  0
   -0.9842    5.0884   -5.7526 N   0  0  0  0  0  0  0  0  0  0  0  0
   -2.1790    5.8330   -4.8734 S   0  0  0  0  0  0  0  0  0  0  0  0
   -1.7818    5.6363   -3.2793 N   0  0  0  0  0  0  0  0  0  0  0  0
    0.9536    3.8539   -4.9273 C   0  0  0  0  0  0  0  0  0  0  0  0
    1.2523    3.0335   -5.9935 C   0  0  0  0  0  0  0  0  0  0  0  0
    0.2817    2.5662   -7.2977 S   0  0  0  0  0  0  0  0  0  0  0  0
    0.7742    0.9498   -7.2007 C   0  0  0  0  0  0  0  0  0  0  0  0
    0.0503   -0.2067   -7.5326 C   0  0  0  0  0  0  0  0  0  0  0  0
   -1.0866   -0.2221   -8.4833 C   0  0  0  0  0  0  0  0  0  0  0  0
   -2.3934    0.2482   -8.1666 C   0  0  0  0  0  0  0  0  0  0  0  0
   -2.7264    0.9507   -6.8723 C   0  0  0  0  0  0  0  0  0  0  0  0
   -3.2222    2.3804   -7.1141 C   0  0  0  0  0  0  0  0  0  0  0  0
   -3.4284    0.0358   -9.0966 C   0  0  0  0  0  0  0  0  0  0  0  0
   -3.1737   -0.5625  -10.3329 C   0  0  0  0  0  0  0  0  0  0  0  0
   -1.8769   -0.9641  -10.6601 C   0  0  0  0  0  0  0  0  0  0  0  0
   -0.8457   -0.7964   -9.7384 C   0  0  0  0  0  0  0  0  0  0  0  0
    0.4130   -1.3186   -6.7397 C   0  0  0  0  0  0  0  0  0  0  0  0
    1.6331   -0.8058   -5.6892 S   0  0  0  0  0  0  0  0  0  0  0  0
    1.6951    0.7885   -6.1898 C   0  0  0  0  0  0  0  0  0  0  0  0
    1.9632    1.9722   -5.4793 C   0  0  0  0  0  0  0  0  0  0  0  0
    2.2379    2.1368   -4.1566 N   0  0  0  0  0  0  0  0  0  0  0  0
    1.6598    3.3344   -3.8290 C   0  0  0  0  0  0  0  0  0  0  0  0
    1.3347    3.7861   -2.5352 C   0  0  0  0  0  0  0  0  0  0  0  0
    2.0319    3.6429   -1.3699 N   0  0  0  0  0  0  0  0  0  0  0  0
    1.1811    4.1631   -0.4546 C   0  0  0  0  0  0  0  0  0  0  0  0
    1.2765    4.4071    0.8964 C   0  0  0  0  0  0  0  0  0  0  0  0
    2.3940    4.1145    2.0760 S   0  0  0  0  0  0  0  0  0  0  0  0
    3.5000    3.6370   -1.2289 C   0  0  0  0  0  0  0  0  0  0  0  0
    3.9943    2.5348   -0.2792 C   0  0  0  0  0  0  0  0  0  0  0  0
    2.5859    1.0473   -3.2378 C   0  0  0  0  0  0  0  0  0  0  0  0
    1.3542    0.4622   -2.5434 C   0  0  0  0  0  0  0  0  0  0  0  0
   -0.6145   -2.2153   -6.1984 C   0  0  0  0  0  0  0  0  0  0  0  0
   -0.9073   -3.5648   -6.5005 C   0  0  0  0  0  0  0  0  0  0  0  0
   -0.0011   -4.4980   -7.1459 N   0  0  0  0  0  0  0  0  0  0  0  0
    0.0611   -5.8913   -6.7626 C   0  0  0  0  0  0  0  0  0  0  0  0
    0.2507   -6.8786   -7.7437 C   0  0  0  0  0  0  0  0  0  0  0  0
    0.3508   -8.2275   -7.3862 C   0  0  0  0  0  0  0  0  0  0  0  0
    0.2488   -8.6089   -6.0414 C   0  0  0  0  0  0  0  0  0  0  0  0
    0.3597  -10.0576   -5.6546 C   0  0  0  0  0  0  0  0  0  0  0  0
    0.0695   -7.6302   -5.0561 C   0  0  0  0  0  0  0  0  0  0  0  0
   -0.0084   -6.2752   -5.4133 C   0  0  0  0  0  0  0  0  0  0  0  0
    1.0488   -4.0161   -7.9983 C   0  0  0  0  0  0  0  0  0  0  0  0
    2.3618   -3.8974   -7.5060 C   0  0  0  0  0  0  0  0  0  0  0  0
    3.4018   -3.5075   -8.3574 C   0  0  0  0  0  0  0  0  0  0  0  0
    3.1476   -3.2493   -9.7104 C   0  0  0  0  0  0  0  0  0  0  0  0
    4.2769   -2.9031  -10.6383 C   0  0  0  0  0  0  0  0  0  0  0  0
    1.8366   -3.3746  -10.2033 C   0  0  0  0  0  0  0  0  0  0  0  0
    0.7954   -3.7502   -9.3472 C   0  0  0  0  0  0  0  0  0  0  0  0
   -2.1110   -3.9342   -5.8673 C   0  0  0  0  0  0  0  0  0  0  0  0
   -3.0819   -5.3105   -5.8141 S   0  0  0  0  0  0  0  0  0  0  0  0
   -4.1645   -4.6632   -4.6567 C   0  0  0  0  0  0  0  0  0  0  0  0
   -3.7707   -3.3640   -4.3272 C   0  0  0  0  0  0  0  0  0  0  0  0
   -4.3269   -2.5788   -3.2540 N   0  0  0  0  0  0  0  0  0  0  0  0
   -3.5231   -2.3413   -2.0668 C   0  0  0  0  0  0  0  0  0  0  0  0
   -3.6249   -1.1331   -1.3472 C   0  0  0  0  0  0  0  0  0  0  0  0
   -2.8445   -0.9143   -0.2036 C   0  0  0  0  0  0  0  0  0  0  0  0
   -1.9440   -1.8940    0.2364 C   0  0  0  0  0  0  0  0  0  0  0  0
   -1.1340   -1.6604    1.4759 C   0  0  0  0  0  0  0  0  0  0  0  0
   -1.8103   -3.0851   -0.4922 C   0  0  0  0  0  0  0  0  0  0  0  0
   -2.5871   -3.3030   -1.6329 C   0  0  0  0  0  0  0  0  0  0  0  0
   -5.6468   -2.0048   -3.4089 C   0  0  0  0  0  0  0  0  0  0  0  0
   -6.5288   -1.9288   -2.3152 C   0  0  0  0  0  0  0  0  0  0  0  0
   -7.7908   -1.3427   -2.4569 C   0  0  0  0  0  0  0  0  0  0  0  0
   -8.2043   -0.8472   -3.7018 C   0  0  0  0  0  0  0  0  0  0  0  0
   -9.5525   -0.2092   -3.8505 C   0  0  0  0  0  0  0  0  0  0  0  0
   -7.3278   -0.9160   -4.7977 C   0  0  0  0  0  0  0  0  0  0  0  0
   -6.0668   -1.4945   -4.6539 C   0  0  0  0  0  0  0  0  0  0  0  0
   -2.6361   -3.0011   -5.0307 C   0  0  0  0  0  0  0  0  0  0  0  0
   -1.7213   -1.6174   -5.0514 S   0  0  0  0  0  0  0  0  0  0  0  0
   -5.2356   -5.3870   -3.9608 C   0  0  0  0  0  0  0  0  0  0  0  0
   -4.9893   -6.2695   -2.9807 C   0  0  0  0  0  0  0  0  0  0  0  0
   -3.6565   -6.6512   -2.4956 C   0  0  0  0  0  0  0  0  0  0  0  0
   -2.5982   -6.6901   -3.1756 O   0  0  0  0  0  0  0  0  0  0  0  0
   -3.7538   -6.9772   -1.0879 C   0  0  0  0  0  0  0  0  0  0  0  0
   -5.0817   -6.9021   -0.7006 C   0  0  0  0  0  0  0  0  0  0  0  0
   -5.4228   -6.9999    0.6567 C   0  0  0  0  0  0  0  0  0  0  0  0
   -4.4091   -7.2473    1.5978 C   0  0  0  0  0  0  0  0  0  0  0  0
   -3.0694   -7.3831    1.1903 C   0  0  0  0  0  0  0  0  0  0  0  0
   -1.7325   -7.7432    2.5200 Br  0  0  0  0  0  0  0  0  0  0  0  0
   -2.7256   -7.2293   -0.1680 C   0  0  0  0  0  0  0  0  0  0  0  0
   -1.0399   -7.3152   -0.6961 Cl  0  0  0  0  0  0  0  0  0  0  0  0
   -5.9354   -6.5960   -1.8797 C   0  0  0  0  0  0  0  0  0  0  0  0
   -7.2707   -6.7817   -2.0002 C   0  0  0  0  0  0  0  0  0  0  0  0
   -8.1148   -7.1238   -0.8821 C   0  0  0  0  0  0  0  0  0  0  0  0
   -8.8091   -7.3876    0.0092 N   0  0  0  0  0  0  0  0  0  0  0  0
   -7.9382   -6.6987   -3.2739 C   0  0  0  0  0  0  0  0  0  0  0  0
   -8.4758   -6.6337   -4.2990 N   0  0  0  0  0  0  0  0  0  0  0  0
    5.8074    1.4971    9.0217 H   0  0  0  0  0  0  0  0  0  0  0  0
    5.2421   -2.2681    4.1022 H   0  0  0  0  0  0  0  0  0  0  0  0
    7.2408   -3.6258    3.6466 H   0  0  0  0  0  0  0  0  0  0  0  0
    8.5081    2.4249    7.6043 H   0  0  0  0  0  0  0  0  0  0  0  0
   10.1375    0.8166    6.6937 H   0  0  0  0  0  0  0  0  0  0  0  0
   10.5700   -1.0805    5.1139 H   0  0  0  0  0  0  0  0  0  0  0  0
    9.5482   -1.2835    3.6507 H   0  0  0  0  0  0  0  0  0  0  0  0
   10.7329    0.0752    3.7348 H   0  0  0  0  0  0  0  0  0  0  0  0
    7.5836    0.1693    3.2844 H   0  0  0  0  0  0  0  0  0  0  0  0
    5.9482    1.7641    4.2044 H   0  0  0  0  0  0  0  0  0  0  0  0
    7.8479    4.3384    4.4702 H   0  0  0  0  0  0  0  0  0  0  0  0
    8.5466    6.6825    4.2477 H   0  0  0  0  0  0  0  0  0  0  0  0
    7.9749    9.0685    4.8353 H   0  0  0  0  0  0  0  0  0  0  0  0
    7.2476    9.4395    6.4363 H   0  0  0  0  0  0  0  0  0  0  0  0
    8.9731    8.9060    6.3345 H   0  0  0  0  0  0  0  0  0  0  0  0
    6.4878    7.6401    7.9130 H   0  0  0  0  0  0  0  0  0  0  0  0
    5.7750    5.3006    8.1253 H   0  0  0  0  0  0  0  0  0  0  0  0
    0.3681    2.1452    3.8668 H   0  0  0  0  0  0  0  0  0  0  0  0
   -0.0814   -0.2655    3.7875 H   0  0  0  0  0  0  0  0  0  0  0  0
   -2.0779   -2.0142    5.4474 H   0  0  0  0  0  0  0  0  0  0  0  0
   -0.3360   -2.3667    5.0955 H   0  0  0  0  0  0  0  0  0  0  0  0
   -0.9168   -2.3112    6.8012 H   0  0  0  0  0  0  0  0  0  0  0  0
   -1.3591   -0.1543    7.9114 H   0  0  0  0  0  0  0  0  0  0  0  0
   -0.8479    2.2468    7.9959 H   0  0  0  0  0  0  0  0  0  0  0  0
    0.9575    6.2404    6.9085 H   0  0  0  0  0  0  0  0  0  0  0  0
   -0.4084    7.9310    7.9503 H   0  0  0  0  0  0  0  0  0  0  0  0
   -4.1087    7.8064    8.1090 H   0  0  0  0  0  0  0  0  0  0  0  0
   -2.6577    8.8385    8.3583 H   0  0  0  0  0  0  0  0  0  0  0  0
   -3.1535    7.6623    9.6359 H   0  0  0  0  0  0  0  0  0  0  0  0
   -3.8448    5.3428    7.7423 H   0  0  0  0  0  0  0  0  0  0  0  0
   -2.5101    3.6463    6.6214 H   0  0  0  0  0  0  0  0  0  0  0  0
    0.3940    7.7423    3.8856 H   0  0  0  0  0  0  0  0  0  0  0  0
   -1.4264    9.0544    4.9149 H   0  0  0  0  0  0  0  0  0  0  0  0
   -3.6760    8.0586    5.1816 H   0  0  0  0  0  0  0  0  0  0  0  0
   -4.1154    5.7579    4.4478 H   0  0  0  0  0  0  0  0  0  0  0  0
   -2.6593    3.4083    4.2255 H   0  0  0  0  0  0  0  0  0  0  0  0
   -1.5395    3.4751    2.8515 H   0  0  0  0  0  0  0  0  0  0  0  0
   -3.4191    4.4929    1.4337 H   0  0  0  0  0  0  0  0  0  0  0  0
   -3.6717    2.7978    1.9945 H   0  0  0  0  0  0  0  0  0  0  0  0
   -4.5387    4.1446    2.8136 H   0  0  0  0  0  0  0  0  0  0  0  0
   -3.5239    0.3776   -6.3505 H   0  0  0  0  0  0  0  0  0  0  0  0
   -1.8505    0.9974   -6.1966 H   0  0  0  0  0  0  0  0  0  0  0  0
   -3.2986    2.9124   -6.1433 H   0  0  0  0  0  0  0  0  0  0  0  0
   -4.2259    2.3705   -7.5888 H   0  0  0  0  0  0  0  0  0  0  0  0
   -2.5220    2.9361   -7.7733 H   0  0  0  0  0  0  0  0  0  0  0  0
   -4.4411    0.3396   -8.8673 H   0  0  0  0  0  0  0  0  0  0  0  0
   -3.9787   -0.7206  -11.0313 H   0  0  0  0  0  0  0  0  0  0  0  0
   -1.6827   -1.4348  -11.6142 H   0  0  0  0  0  0  0  0  0  0  0  0
    0.1536   -1.1202  -10.0041 H   0  0  0  0  0  0  0  0  0  0  0  0
    3.8297    4.6231   -0.8482 H   0  0  0  0  0  0  0  0  0  0  0  0
    3.9861    3.5181   -2.2237 H   0  0  0  0  0  0  0  0  0  0  0  0
    4.5003    2.9810    0.6022 H   0  0  0  0  0  0  0  0  0  0  0  0
    4.7403    1.8871   -0.7868 H   0  0  0  0  0  0  0  0  0  0  0  0
    3.1544    1.8983    0.0679 H   0  0  0  0  0  0  0  0  0  0  0  0
    3.2945    1.3935   -2.4865 H   0  0  0  0  0  0  0  0  0  0  0  0
    3.1443    0.2501   -3.7681 H   0  0  0  0  0  0  0  0  0  0  0  0
    0.5310    0.3029   -3.2660 H   0  0  0  0  0  0  0  0  0  0  0  0
    0.9976    1.1366   -1.7367 H   0  0  0  0  0  0  0  0  0  0  0  0
    1.6147   -0.5161   -2.0804 H   0  0  0  0  0  0  0  0  0  0  0  0
    0.3260   -6.6072   -8.7883 H   0  0  0  0  0  0  0  0  0  0  0  0
    0.5100   -8.9635   -8.1643 H   0  0  0  0  0  0  0  0  0  0  0  0
   -0.4279  -10.3199   -4.9145 H   0  0  0  0  0  0  0  0  0  0  0  0
    0.2432  -10.7250   -6.5356 H   0  0  0  0  0  0  0  0  0  0  0  0
    1.3545  -10.2438   -5.1983 H   0  0  0  0  0  0  0  0  0  0  0  0
    0.0112   -7.9073   -4.0098 H   0  0  0  0  0  0  0  0  0  0  0  0
   -0.1066   -5.5289   -4.6329 H   0  0  0  0  0  0  0  0  0  0  0  0
    2.5799   -4.1162   -6.4683 H   0  0  0  0  0  0  0  0  0  0  0  0
    4.4110   -3.4249   -7.9672 H   0  0  0  0  0  0  0  0  0  0  0  0
    4.9828   -2.2076  -10.1351 H   0  0  0  0  0  0  0  0  0  0  0  0
    4.8340   -3.8255  -10.9151 H   0  0  0  0  0  0  0  0  0  0  0  0
    3.9068   -2.4087  -11.5640 H   0  0  0  0  0  0  0  0  0  0  0  0
    1.6259   -3.1888  -11.2466 H   0  0  0  0  0  0  0  0  0  0  0  0
   -0.2057   -3.8587   -9.7460 H   0  0  0  0  0  0  0  0  0  0  0  0
   -4.3048   -0.3562   -1.6644 H   0  0  0  0  0  0  0  0  0  0  0  0
   -2.9356    0.0182    0.3397 H   0  0  0  0  0  0  0  0  0  0  0  0
   -1.8132   -1.4968    2.3420 H   0  0  0  0  0  0  0  0  0  0  0  0
   -0.4712   -2.5199    1.7055 H   0  0  0  0  0  0  0  0  0  0  0  0
   -0.4943   -0.7627    1.3345 H   0  0  0  0  0  0  0  0  0  0  0  0
   -1.1028   -3.8438   -0.1857 H   0  0  0  0  0  0  0  0  0  0  0  0
   -2.4615   -4.2302   -2.1691 H   0  0  0  0  0  0  0  0  0  0  0  0
   -6.2340   -2.3169   -1.3485 H   0  0  0  0  0  0  0  0  0  0  0  0
   -8.4461   -1.2818   -1.5973 H   0  0  0  0  0  0  0  0  0  0  0  0
   -9.4702    0.8780   -3.6419 H   0  0  0  0  0  0  0  0  0  0  0  0
  -10.2844   -0.6632   -3.1451 H   0  0  0  0  0  0  0  0  0  0  0  0
   -9.9326   -0.3508   -4.8849 H   0  0  0  0  0  0  0  0  0  0  0  0
   -7.6260   -0.5361   -5.7674 H   0  0  0  0  0  0  0  0  0  0  0  0
   -5.4107   -1.5500   -5.5163 H   0  0  0  0  0  0  0  0  0  0  0  0
   -6.2247   -4.9679   -4.0615 H   0  0  0  0  0  0  0  0  0  0  0  0
   -6.4265   -6.8447    1.0105 H   0  0  0  0  0  0  0  0  0  0  0  0
   -4.6579   -7.3325    2.6500 H   0  0  0  0  0  0  0  0  0  0  0  0
  1  2  2  3
  2  3  1  0
  3  4  2  0
  3  5  1  0
  5  6  2  0
  6  7  1  0
  7  8  2  0
  8  9  1  0
  9 10  1  0
  9 11  2  0
 11 12  1  0
  6 13  1  0
 13 14  2  3
 14 15  1  0
 15 16  3  0
 14 17  1  0
 17 18  3  0
  1 19  1  0
 19 20  2  0
 20 21  1  0
 21 22  1  0
 22 23  2  0
 23 24  1  0
 24 25  2  0
 25 26  1  0
 25 27  1  0
 27 28  2  0
 21 29  1  0
 29 30  2  0
 30 31  1  0
 31 32  2  0
 32 33  1  0
 32 34  1  0
 34 35  2  0
 20 36  1  0
 36 37  1  0
 37 38  1  0
 38 39  2  0
 39 40  1  0
 40 41  1  0
 41 42  2  0
 42 43  1  0
 43 44  2  0
 44 45  1  0
 44 46  1  0
 46 47  2  0
 40 48  1  0
 48 49  2  0
 49 50  1  0
 50 51  2  0
 51 52  1  0
 51 53  1  0
 53 54  2  0
 39 55  1  0
 55 56  1  0
 38 57  1  0
 57 58  2  0
 58 59  1  0
 59 60  2  0
 60 61  1  0
 61 62  2  0
 62 63  1  0
 63 64  2  0
 64 65  1  0
 65 66  1  0
 58 67  1  0
 67 68  1  0
 68 69  1  0
 69 70  1  0
 70 71  1  0
 71 72  1  0
 72 73  2  0
 73 74  1  0
 74 75  1  0
 72 76  1  0
 76 77  1  0
 77 78  1  0
 78 79  1  0
 79 80  1  0
 80 81  1  0
 81 82  2  0
 82 83  1  0
 83 84  1  0
 82 85  1  0
 85 86  2  0
 86 87  1  0
 87 88  2  0
 80 89  2  0
 89 90  1  0
 90 91  1  0
 91 92  1  0
 92 93  1  0
 93 94  1  0
 94 95  1  0
 95 96  1  0
 96 97  1  0
 97 98  1  0
 98 99  1  0
 96100  1  0
100101  1  0
 93102  1  0
102103  1  0
 89104  1  0
104105  2  0
105106  1  0
106107  1  0
107108  2  0
108109  1  0
109110  2  0
110111  1  0
110112  1  0
112113  2  0
106114  1  0
114115  2  0
115116  1  0
116117  2  0
117118  1  0
117119  1  0
119120  2  0
105121  1  0
121122  1  0
122123  1  0
123124  2  0
124125  1  0
125126  1  0
126127  2  0
127128  1  0
128129  2  0
129130  1  0
129131  1  0
131132  2  0
125133  1  0
133134  2  0
134135  1  0
135136  2  0
136137  1  0
136138  1  0
138139  2  0
124140  1  0
140141  1  0
123142  1  0
142143  2  3
143144  1  0
144145  2  0
144146  1  0
146147  2  0
147148  1  0
148149  2  0
149150  1  0
150151  1  0
150152  2  0
152153  1  0
147154  1  0
154155  2  3
155156  1  0
156157  3  0
155158  1  0
158159  3  0
 13  2  1  0
 56 19  1  0
 99 57  1  0
141104  1  0
154143  1  0
 11  5  1  0
 28 22  1  0
 35 29  1  0
 55 36  2  0
 64 59  1  0
 98 67  2  0
113107  1  0
120114  1  0
140121  2  0
152146  1  0
 47 41  1  0
 54 48  1  0
 97 69  2  0
132126  1  0
139133  1  0
 95 70  2  0
 75 71  2  0
 94 76  2  0
 92 77  2  0
 91 79  2  0
 88 81  1  0
  1160  1  0
  7161  1  0
  8162  1  0
 23163  1  0
 24164  1  0
 26165  1  0
 26166  1  0
 26167  1  0
 27168  1  0
 28169  1  0
 30170  1  0
 31171  1  0
 33172  1  0
 33173  1  0
 33174  1  0
 34175  1  0
 35176  1  0
 42177  1  0
 43178  1  0
 45179  1  0
 45180  1  0
 45181  1  0
 46182  1  0
 47183  1  0
 49184  1  0
 50185  1  0
 52186  1  0
 52187  1  0
 52188  1  0
 53189  1  0
 54190  1  0
 60191  1  0
 61192  1  0
 62193  1  0
 63194  1  0
 65195  1  0
 65196  1  0
 66197  1  0
 66198  1  0
 66199  1  0
 83200  1  0
 83201  1  0
 84202  1  0
 84203  1  0
 84204  1  0
 85205  1  0
 86206  1  0
 87207  1  0
 88208  1  0
100209  1  0
100210  1  0
101211  1  0
101212  1  0
101213  1  0
102214  1  0
102215  1  0
103216  1  0
103217  1  0
103218  1  0
108219  1  0
109220  1  0
111221  1  0
111222  1  0
111223  1  0
112224  1  0
113225  1  0
115226  1  0
116227  1  0
118228  1  0
118229  1  0
118230  1  0
119231  1  0
120232  1  0
127233  1  0
128234  1  0
130235  1  0
130236  1  0
130237  1  0
131238  1  0
132239  1  0
134240  1  0
135241  1  0
137242  1  0
137243  1  0
137244  1  0
138245  1  0
139246  1  0
142247  1  0
148248  1  0
149249  1  0
M  END

