
     RDKit          3D

255280  0  0  0  0  0  0  0  0999 V2000
    4.6628    7.2803    2.7266 C   0  0  0  0  0  0  0  0  0  0  0  0
    4.8803    7.0852    4.0458 C   0  0  0  0  0  0  0  0  0  0  0  0
    5.9436    6.2482    4.6149 C   0  0  0  0  0  0  0  0  0  0  0  0
    6.8428    5.6551    3.9622 O   0  0  0  0  0  0  0  0  0  0  0  0
    5.9107    6.3634    6.0635 C   0  0  0  0  0  0  0  0  0  0  0  0
    4.9062    7.2510    6.4268 C   0  0  0  0  0  0  0  0  0  0  0  0
    4.7164    7.5683    7.7839 C   0  0  0  0  0  0  0  0  0  0  0  0
    5.5369    6.9611    8.7456 C   0  0  0  0  0  0  0  0  0  0  0  0
    6.5475    6.0645    8.3689 C   0  0  0  0  0  0  0  0  0  0  0  0
    7.6340    5.2875    9.7379 Br  0  0  0  0  0  0  0  0  0  0  0  0
    6.7523    5.7573    7.0096 C   0  0  0  0  0  0  0  0  0  0  0  0
    8.0408    4.6559    6.5125 Cl  0  0  0  0  0  0  0  0  0  0  0  0
    4.1827    7.7351    5.2054 C   0  0  0  0  0  0  0  0  0  0  0  0
    3.0257    8.4562    5.1723 C   0  0  0  0  0  0  0  0  0  0  0  0
    2.3246    8.7738    3.9562 C   0  0  0  0  0  0  0  0  0  0  0  0
    1.7498    9.0567    2.9867 N   0  0  0  0  0  0  0  0  0  0  0  0
    2.3611    8.9284    6.3591 C   0  0  0  0  0  0  0  0  0  0  0  0
    1.8163    9.3221    7.3014 N   0  0  0  0  0  0  0  0  0  0  0  0
    5.0397    6.3221    1.6645 C   0  0  0  0  0  0  0  0  0  0  0  0
    4.9906    6.6096    0.2860 C   0  0  0  0  0  0  0  0  0  0  0  0
    4.6603    7.8932   -0.2566 N   0  0  0  0  0  0  0  0  0  0  0  0
    3.2971    8.2066   -0.6349 C   0  0  0  0  0  0  0  0  0  0  0  0
    2.2306    7.3583   -0.2716 C   0  0  0  0  0  0  0  0  0  0  0  0
    0.9289    7.6283   -0.7008 C   0  0  0  0  0  0  0  0  0  0  0  0
    0.6570    8.7638   -1.4752 C   0  0  0  0  0  0  0  0  0  0  0  0
   -0.7271    9.0051   -1.9986 C   0  0  0  0  0  0  0  0  0  0  0  0
    1.7005    9.6325   -1.8087 C   0  0  0  0  0  0  0  0  0  0  0  0
    3.0035    9.3600   -1.3948 C   0  0  0  0  0  0  0  0  0  0  0  0
    5.7453    8.7564   -0.6266 C   0  0  0  0  0  0  0  0  0  0  0  0
    6.1289    9.8040    0.2197 C   0  0  0  0  0  0  0  0  0  0  0  0
    7.0845   10.7329   -0.2053 C   0  0  0  0  0  0  0  0  0  0  0  0
    7.6703   10.6143   -1.4775 C   0  0  0  0  0  0  0  0  0  0  0  0
    8.6125   11.6740   -1.9660 C   0  0  0  0  0  0  0  0  0  0  0  0
    7.2954    9.5530   -2.3160 C   0  0  0  0  0  0  0  0  0  0  0  0
    6.3483    8.6225   -1.8869 C   0  0  0  0  0  0  0  0  0  0  0  0
    5.0286    5.4460   -0.4886 C   0  0  0  0  0  0  0  0  0  0  0  0
    4.7704    5.1044   -2.1168 S   0  0  0  0  0  0  0  0  0  0  0  0
    4.8060    3.4107   -1.8974 C   0  0  0  0  0  0  0  0  0  0  0  0
    4.9511    3.1323   -0.5280 C   0  0  0  0  0  0  0  0  0  0  0  0
    4.9296    1.8110    0.0418 N   0  0  0  0  0  0  0  0  0  0  0  0
    4.0003    1.5228    1.1057 C   0  0  0  0  0  0  0  0  0  0  0  0
    4.4502    0.9772    2.3158 C   0  0  0  0  0  0  0  0  0  0  0  0
    3.5683    0.8056    3.3884 C   0  0  0  0  0  0  0  0  0  0  0  0
    2.2143    1.1408    3.2488 C   0  0  0  0  0  0  0  0  0  0  0  0
    1.2637    0.9883    4.4032 C   0  0  0  0  0  0  0  0  0  0  0  0
    1.7609    1.6872    2.0411 C   0  0  0  0  0  0  0  0  0  0  0  0
    2.6471    1.8833    0.9770 C   0  0  0  0  0  0  0  0  0  0  0  0
    5.9181    0.8453   -0.3802 C   0  0  0  0  0  0  0  0  0  0  0  0
    7.2074    1.2648   -0.7516 C   0  0  0  0  0  0  0  0  0  0  0  0
    8.1541    0.3449   -1.1969 C   0  0  0  0  0  0  0  0  0  0  0  0
    7.8236   -1.0133   -1.3074 C   0  0  0  0  0  0  0  0  0  0  0  0
    8.8472   -1.9982   -1.7840 C   0  0  0  0  0  0  0  0  0  0  0  0
    6.5452   -1.4418   -0.9175 C   0  0  0  0  0  0  0  0  0  0  0  0
    5.5986   -0.5207   -0.4602 C   0  0  0  0  0  0  0  0  0  0  0  0
    5.0858    4.2935    0.2182 C   0  0  0  0  0  0  0  0  0  0  0  0
    5.0807    4.6254    1.8573 S   0  0  0  0  0  0  0  0  0  0  0  0
    4.3696    2.4272   -2.9007 C   0  0  0  0  0  0  0  0  0  0  0  0
    5.2092    1.6507   -3.7295 C   0  0  0  0  0  0  0  0  0  0  0  0
    6.5282    2.1055   -4.2296 C   0  0  0  0  0  0  0  0  0  0  0  0
    6.6432    3.4091   -4.7387 C   0  0  0  0  0  0  0  0  0  0  0  0
    7.8312    3.8368   -5.3271 C   0  0  0  0  0  0  0  0  0  0  0  0
    8.9231    2.9724   -5.3988 C   0  0  0  0  0  0  0  0  0  0  0  0
    8.8443    1.6707   -4.8688 C   0  0  0  0  0  0  0  0  0  0  0  0
   10.0191    0.7273   -4.9780 C   0  0  0  0  0  0  0  0  0  0  0  0
   11.3049    1.3294   -4.4106 C   0  0  0  0  0  0  0  0  0  0  0  0
    7.6265    1.2316   -4.3069 C   0  0  0  0  0  0  0  0  0  0  0  0
    4.4835    0.5915   -4.2961 C   0  0  0  0  0  0  0  0  0  0  0  0
    4.8847   -0.7397   -5.2973 S   0  0  0  0  0  0  0  0  0  0  0  0
    3.2455   -1.2051   -5.3904 C   0  0  0  0  0  0  0  0  0  0  0  0
    2.4620   -2.2642   -5.7907 C   0  0  0  0  0  0  0  0  0  0  0  0
    2.7869   -3.5988   -6.0878 C   0  0  0  0  0  0  0  0  0  0  0  0
    1.7402   -4.5802   -6.0769 C   0  0  0  0  0  0  0  0  0  0  0  0
    2.1009   -5.8679   -6.3063 N   0  0  0  0  0  0  0  0  0  0  0  0
    3.7367   -5.6654   -6.4959 S   0  0  0  0  0  0  0  0  0  0  0  0
    4.0510   -4.0465   -6.3129 N   0  0  0  0  0  0  0  0  0  0  0  0
    0.4213   -4.1575   -5.8830 C   0  0  0  0  0  0  0  0  0  0  0  0
   -0.7828   -4.8315   -5.8332 C   0  0  0  0  0  0  0  0  0  0  0  0
   -1.2299   -6.2061   -4.9419 S   0  0  0  0  0  0  0  0  0  0  0  0
   -2.7748   -5.5806   -4.5646 C   0  0  0  0  0  0  0  0  0  0  0  0
   -3.6244   -5.8383   -3.4701 C   0  0  0  0  0  0  0  0  0  0  0  0
   -3.4083   -6.9831   -2.5538 C   0  0  0  0  0  0  0  0  0  0  0  0
   -3.3877   -8.2884   -3.0701 C   0  0  0  0  0  0  0  0  0  0  0  0
   -3.1830   -9.3840   -2.2246 C   0  0  0  0  0  0  0  0  0  0  0  0
   -2.9722   -9.1822   -0.8581 C   0  0  0  0  0  0  0  0  0  0  0  0
   -2.9442   -7.8856   -0.3305 C   0  0  0  0  0  0  0  0  0  0  0  0
   -2.6668   -7.6680    1.1315 C   0  0  0  0  0  0  0  0  0  0  0  0
   -3.9337   -7.8418    1.9617 C   0  0  0  0  0  0  0  0  0  0  0  0
   -3.1698   -6.7876   -1.1792 C   0  0  0  0  0  0  0  0  0  0  0  0
   -4.4758   -4.7275   -3.2118 C   0  0  0  0  0  0  0  0  0  0  0  0
   -4.0889   -3.4861   -4.2981 S   0  0  0  0  0  0  0  0  0  0  0  0
   -2.9133   -4.3278   -5.1116 C   0  0  0  0  0  0  0  0  0  0  0  0
   -1.7618   -3.8696   -5.7399 C   0  0  0  0  0  0  0  0  0  0  0  0
   -1.2371   -2.6215   -5.6697 N   0  0  0  0  0  0  0  0  0  0  0  0
    0.1120   -2.8175   -5.6886 C   0  0  0  0  0  0  0  0  0  0  0  0
    1.1482   -1.8911   -5.4562 C   0  0  0  0  0  0  0  0  0  0  0  0
    1.1382   -0.7461   -4.7011 N   0  0  0  0  0  0  0  0  0  0  0  0
    2.4334   -0.3604   -4.7064 C   0  0  0  0  0  0  0  0  0  0  0  0
    3.1385    0.6188   -4.0321 C   0  0  0  0  0  0  0  0  0  0  0  0
    2.7719    1.8481   -2.9700 S   0  0  0  0  0  0  0  0  0  0  0  0
    0.1569   -0.3542   -3.6802 C   0  0  0  0  0  0  0  0  0  0  0  0
   -0.4073    1.0446   -3.9508 C   0  0  0  0  0  0  0  0  0  0  0  0
   -1.9618   -1.3675   -5.9117 C   0  0  0  0  0  0  0  0  0  0  0  0
   -2.7531   -1.4295   -7.2211 C   0  0  0  0  0  0  0  0  0  0  0  0
   -5.0612   -4.3653   -1.9134 C   0  0  0  0  0  0  0  0  0  0  0  0
   -5.9988   -5.0606   -1.1206 C   0  0  0  0  0  0  0  0  0  0  0  0
   -6.9838   -5.9602   -1.6534 N   0  0  0  0  0  0  0  0  0  0  0  0
   -6.8377   -7.3797   -1.5096 C   0  0  0  0  0  0  0  0  0  0  0  0
   -6.9203   -7.9909   -0.2514 C   0  0  0  0  0  0  0  0  0  0  0  0
   -6.7259   -9.3654   -0.1191 C   0  0  0  0  0  0  0  0  0  0  0  0
   -6.4719  -10.1549   -1.2485 C   0  0  0  0  0  0  0  0  0  0  0  0
   -6.1630  -11.6096   -1.0800 C   0  0  0  0  0  0  0  0  0  0  0  0
   -6.4428   -9.5502   -2.5169 C   0  0  0  0  0  0  0  0  0  0  0  0
   -6.6324   -8.1729   -2.6453 C   0  0  0  0  0  0  0  0  0  0  0  0
   -8.1557   -5.4239   -2.3119 C   0  0  0  0  0  0  0  0  0  0  0  0
   -9.4399   -5.8278   -1.9154 C   0  0  0  0  0  0  0  0  0  0  0  0
  -10.5763   -5.2899   -2.5314 C   0  0  0  0  0  0  0  0  0  0  0  0
  -10.4441   -4.3537   -3.5703 C   0  0  0  0  0  0  0  0  0  0  0  0
  -11.6562   -3.7440   -4.2116 C   0  0  0  0  0  0  0  0  0  0  0  0
   -9.1633   -3.9458   -3.9641 C   0  0  0  0  0  0  0  0  0  0  0  0
   -8.0282   -4.4772   -3.3447 C   0  0  0  0  0  0  0  0  0  0  0  0
   -6.1048   -4.4501    0.1397 C   0  0  0  0  0  0  0  0  0  0  0  0
   -6.6671   -4.9366    1.6441 S   0  0  0  0  0  0  0  0  0  0  0  0
   -5.9608   -3.6456    2.5030 C   0  0  0  0  0  0  0  0  0  0  0  0
   -5.3476   -2.7618    1.5823 C   0  0  0  0  0  0  0  0  0  0  0  0
   -4.8204   -1.4298    1.8527 N   0  0  0  0  0  0  0  0  0  0  0  0
   -4.7767   -0.4713    0.7795 C   0  0  0  0  0  0  0  0  0  0  0  0
   -5.9492   -0.1610    0.0726 C   0  0  0  0  0  0  0  0  0  0  0  0
   -5.9033    0.7005   -1.0285 C   0  0  0  0  0  0  0  0  0  0  0  0
   -4.6942    1.2926   -1.4104 C   0  0  0  0  0  0  0  0  0  0  0  0
   -4.6483    2.1840   -2.6167 C   0  0  0  0  0  0  0  0  0  0  0  0
   -3.5244    0.9950   -0.6984 C   0  0  0  0  0  0  0  0  0  0  0  0
   -3.5686    0.1215    0.3956 C   0  0  0  0  0  0  0  0  0  0  0  0
   -4.7308   -0.8966    3.1821 C   0  0  0  0  0  0  0  0  0  0  0  0
   -5.8925   -0.6997    3.9477 C   0  0  0  0  0  0  0  0  0  0  0  0
   -5.7969   -0.2560    5.2668 C   0  0  0  0  0  0  0  0  0  0  0  0
   -4.5454    0.0430    5.8249 C   0  0  0  0  0  0  0  0  0  0  0  0
   -4.4383    0.4862    7.2522 C   0  0  0  0  0  0  0  0  0  0  0  0
   -3.3976   -0.0540    5.0260 C   0  0  0  0  0  0  0  0  0  0  0  0
   -3.4864   -0.5321    3.7169 C   0  0  0  0  0  0  0  0  0  0  0  0
   -5.3818   -3.3141    0.3040 C   0  0  0  0  0  0  0  0  0  0  0  0
   -4.4817   -3.0195   -1.0645 S   0  0  0  0  0  0  0  0  0  0  0  0
   -5.6676   -3.7099    3.9488 C   0  0  0  0  0  0  0  0  0  0  0  0
   -4.4052   -3.8400    4.4137 C   0  0  0  0  0  0  0  0  0  0  0  0
   -3.2049   -4.0170    3.5912 C   0  0  0  0  0  0  0  0  0  0  0  0
   -3.1603   -4.5011    2.4284 O   0  0  0  0  0  0  0  0  0  0  0  0
   -2.0639   -3.5308    4.3261 C   0  0  0  0  0  0  0  0  0  0  0  0
   -0.7469   -3.4127    3.8834 C   0  0  0  0  0  0  0  0  0  0  0  0
    0.2116   -2.8521    4.7469 C   0  0  0  0  0  0  0  0  0  0  0  0
    1.6239   -2.7593    4.3210 C   0  0  0  0  0  0  0  0  0  0  0  0
    1.9393   -2.9756    3.1161 O   0  0  0  0  0  0  0  0  0  0  0  0
    2.6163   -2.4495    5.2572 O   0  0  0  0  0  0  0  0  0  0  0  0
    4.0034   -2.5698    4.9738 C   0  0  0  0  0  0  0  0  0  0  0  0
   -0.1920   -2.3892    6.0185 C   0  0  0  0  0  0  0  0  0  0  0  0
   -1.5247   -2.5336    6.4483 C   0  0  0  0  0  0  0  0  0  0  0  0
   -2.4630   -3.1228    5.5840 C   0  0  0  0  0  0  0  0  0  0  0  0
   -3.9201   -3.4034    5.7563 C   0  0  0  0  0  0  0  0  0  0  0  0
   -4.6362   -3.4124    6.8998 C   0  0  0  0  0  0  0  0  0  0  0  0
   -5.8260   -4.2236    7.0109 C   0  0  0  0  0  0  0  0  0  0  0  0
   -6.7356   -4.9363    7.1303 N   0  0  0  0  0  0  0  0  0  0  0  0
   -4.1280   -2.8787    8.1386 C   0  0  0  0  0  0  0  0  0  0  0  0
   -3.7373   -2.4523    9.1472 N   0  0  0  0  0  0  0  0  0  0  0  0
    4.1010    8.1308    2.3887 H   0  0  0  0  0  0  0  0  0  0  0  0
    3.9821    8.2772    8.1241 H   0  0  0  0  0  0  0  0  0  0  0  0
    5.3979    7.2078    9.7886 H   0  0  0  0  0  0  0  0  0  0  0  0
    2.3994    6.4786    0.3405 H   0  0  0  0  0  0  0  0  0  0  0  0
    0.1323    6.9418   -0.4432 H   0  0  0  0  0  0  0  0  0  0  0  0
   -0.8948   10.0856   -2.1911 H   0  0  0  0  0  0  0  0  0  0  0  0
   -0.8637    8.4452   -2.9457 H   0  0  0  0  0  0  0  0  0  0  0  0
   -1.4882    8.6642   -1.2642 H   0  0  0  0  0  0  0  0  0  0  0  0
    1.5093   10.5160   -2.4041 H   0  0  0  0  0  0  0  0  0  0  0  0
    3.7831   10.0524   -1.6820 H   0  0  0  0  0  0  0  0  0  0  0  0
    5.6684    9.9132    1.1968 H   0  0  0  0  0  0  0  0  0  0  0  0
    7.3603   11.5511    0.4521 H   0  0  0  0  0  0  0  0  0  0  0  0
    9.3593   11.9125   -1.1780 H   0  0  0  0  0  0  0  0  0  0  0  0
    9.1561   11.3423   -2.8752 H   0  0  0  0  0  0  0  0  0  0  0  0
    8.0392   12.5944   -2.2128 H   0  0  0  0  0  0  0  0  0  0  0  0
    7.7231    9.4548   -3.3047 H   0  0  0  0  0  0  0  0  0  0  0  0
    6.0486    7.8205   -2.5462 H   0  0  0  0  0  0  0  0  0  0  0  0
    5.4946    0.7267    2.4456 H   0  0  0  0  0  0  0  0  0  0  0  0
    3.9440    0.4208    4.3246 H   0  0  0  0  0  0  0  0  0  0  0  0
    1.6876    0.3302    5.1929 H   0  0  0  0  0  0  0  0  0  0  0  0
    1.0597    1.9873    4.8420 H   0  0  0  0  0  0  0  0  0  0  0  0
    0.3077    0.5390    4.0577 H   0  0  0  0  0  0  0  0  0  0  0  0
    0.7231    1.9718    1.9240 H   0  0  0  0  0  0  0  0  0  0  0  0
    2.2824    2.3270    0.0593 H   0  0  0  0  0  0  0  0  0  0  0  0
    7.4794    2.3106   -0.6949 H   0  0  0  0  0  0  0  0  0  0  0  0
    9.1362    0.6980   -1.4861 H   0  0  0  0  0  0  0  0  0  0  0  0
    9.5389   -1.5246   -2.5129 H   0  0  0  0  0  0  0  0  0  0  0  0
    8.3609   -2.8625   -2.2846 H   0  0  0  0  0  0  0  0  0  0  0  0
    9.4388   -2.3615   -0.9188 H   0  0  0  0  0  0  0  0  0  0  0  0
    6.2805   -2.4898   -0.9774 H   0  0  0  0  0  0  0  0  0  0  0  0
    4.6127   -0.8689   -0.1837 H   0  0  0  0  0  0  0  0  0  0  0  0
    5.7966    4.0808   -4.7341 H   0  0  0  0  0  0  0  0  0  0  0  0
    7.9005    4.8319   -5.7491 H   0  0  0  0  0  0  0  0  0  0  0  0
    9.8226    3.3206   -5.8938 H   0  0  0  0  0  0  0  0  0  0  0  0
   10.1804    0.4610   -6.0449 H   0  0  0  0  0  0  0  0  0  0  0  0
    9.8086   -0.2127   -4.4293 H   0  0  0  0  0  0  0  0  0  0  0  0
   11.1563    1.6467   -3.3565 H   0  0  0  0  0  0  0  0  0  0  0  0
   11.6328    2.2048   -5.0108 H   0  0  0  0  0  0  0  0  0  0  0  0
   12.1188    0.5721   -4.4466 H   0  0  0  0  0  0  0  0  0  0  0  0
    7.5353    0.2156   -3.9413 H   0  0  0  0  0  0  0  0  0  0  0  0
   -3.5548   -8.4605   -4.1275 H   0  0  0  0  0  0  0  0  0  0  0  0
   -3.1966  -10.3884   -2.6304 H   0  0  0  0  0  0  0  0  0  0  0  0
   -2.8231  -10.0353   -0.2140 H   0  0  0  0  0  0  0  0  0  0  0  0
   -2.2593   -6.6511    1.2954 H   0  0  0  0  0  0  0  0  0  0  0  0
   -1.8924   -8.3786    1.4803 H   0  0  0  0  0  0  0  0  0  0  0  0
   -4.7270   -7.1584    1.5959 H   0  0  0  0  0  0  0  0  0  0  0  0
   -3.7186   -7.5984    3.0243 H   0  0  0  0  0  0  0  0  0  0  0  0
   -4.2943   -8.8902    1.8986 H   0  0  0  0  0  0  0  0  0  0  0  0
   -3.1218   -5.7828   -0.7729 H   0  0  0  0  0  0  0  0  0  0  0  0
    0.6452   -0.3681   -2.6835 H   0  0  0  0  0  0  0  0  0  0  0  0
   -0.6678   -1.0943   -3.6132 H   0  0  0  0  0  0  0  0  0  0  0  0
   -1.5180    1.0096   -4.0066 H   0  0  0  0  0  0  0  0  0  0  0  0
   -0.1348    1.7405   -3.1272 H   0  0  0  0  0  0  0  0  0  0  0  0
   -0.0183    1.4663   -4.9063 H   0  0  0  0  0  0  0  0  0  0  0  0
   -1.2492   -0.5249   -6.0141 H   0  0  0  0  0  0  0  0  0  0  0  0
   -2.6538   -1.1549   -5.0624 H   0  0  0  0  0  0  0  0  0  0  0  0
   -3.2516   -0.4512   -7.3975 H   0  0  0  0  0  0  0  0  0  0  0  0
   -3.5314   -2.2161   -7.1742 H   0  0  0  0  0  0  0  0  0  0  0  0
   -2.0672   -1.6398   -8.0680 H   0  0  0  0  0  0  0  0  0  0  0  0
   -7.1483   -7.4109    0.6260 H   0  0  0  0  0  0  0  0  0  0  0  0
   -6.7676   -9.8147    0.8647 H   0  0  0  0  0  0  0  0  0  0  0  0
   -6.9627  -12.1024   -0.4872 H   0  0  0  0  0  0  0  0  0  0  0  0
   -5.1965  -11.7173   -0.5410 H   0  0  0  0  0  0  0  0  0  0  0  0
   -6.0819  -12.1250   -2.0611 H   0  0  0  0  0  0  0  0  0  0  0  0
   -6.2411  -10.1412   -3.4025 H   0  0  0  0  0  0  0  0  0  0  0  0
   -6.5875   -7.7138   -3.6243 H   0  0  0  0  0  0  0  0  0  0  0  0
   -9.5647   -6.5370   -1.1095 H   0  0  0  0  0  0  0  0  0  0  0  0
  -11.5589   -5.5942   -2.1953 H   0  0  0  0  0  0  0  0  0  0  0  0
  -11.4840   -3.5954   -5.2997 H   0  0  0  0  0  0  0  0  0  0  0  0
  -12.5447   -4.3994   -4.0919 H   0  0  0  0  0  0  0  0  0  0  0  0
  -11.8716   -2.7589   -3.7441 H   0  0  0  0  0  0  0  0  0  0  0  0
   -9.0410   -3.2108   -4.7524 H   0  0  0  0  0  0  0  0  0  0  0  0
   -7.0632   -4.1462   -3.6841 H   0  0  0  0  0  0  0  0  0  0  0  0
   -6.8954   -0.6023    0.3618 H   0  0  0  0  0  0  0  0  0  0  0  0
   -6.8188    0.9212   -1.5676 H   0  0  0  0  0  0  0  0  0  0  0  0
   -3.7181    2.7908   -2.6282 H   0  0  0  0  0  0  0  0  0  0  0  0
   -5.5127    2.8819   -2.6073 H   0  0  0  0  0  0  0  0  0  0  0  0
   -4.6899    1.5664   -3.5383 H   0  0  0  0  0  0  0  0  0  0  0  0
   -2.5701    1.4029   -1.0153 H   0  0  0  0  0  0  0  0  0  0  0  0
   -2.6473   -0.1266    0.9038 H   0  0  0  0  0  0  0  0  0  0  0  0
   -6.8627   -0.9507    3.5315 H   0  0  0  0  0  0  0  0  0  0  0  0
   -6.6988   -0.1685    5.8582 H   0  0  0  0  0  0  0  0  0  0  0  0
   -4.4042    1.5921    7.2979 H   0  0  0  0  0  0  0  0  0  0  0  0
   -5.3037    0.1228    7.8440 H   0  0  0  0  0  0  0  0  0  0  0  0
   -3.5105    0.0818    7.7117 H   0  0  0  0  0  0  0  0  0  0  0  0
   -2.4283    0.2040    5.4322 H   0  0  0  0  0  0  0  0  0  0  0  0
   -2.5772   -0.6662    3.1436 H   0  0  0  0  0  0  0  0  0  0  0  0
   -6.4878   -3.4983    4.6186 H   0  0  0  0  0  0  0  0  0  0  0  0
   -0.4849   -3.7575    2.8924 H   0  0  0  0  0  0  0  0  0  0  0  0
    4.2780   -1.9714    4.0788 H   0  0  0  0  0  0  0  0  0  0  0  0
    4.2514   -3.6355    4.7937 H   0  0  0  0  0  0  0  0  0  0  0  0
    4.5868   -2.2047    5.8435 H   0  0  0  0  0  0  0  0  0  0  0  0
    0.5175   -1.9142    6.6778 H   0  0  0  0  0  0  0  0  0  0  0  0
   -1.7882   -2.1522    7.4232 H   0  0  0  0  0  0  0  0  0  0  0  0
  1  2  2  3
  2  3  1  0
  3  4  2  0
  3  5  1  0
  5  6  2  0
  6  7  1  0
  7  8  2  0
  8  9  1  0
  9 10  1  0
  9 11  2  0
 11 12  1  0
  6 13  1  0
 13 14  2  3
 14 15  1  0
 15 16  3  0
 14 17  1  0
 17 18  3  0
  1 19  1  0
 19 20  2  0
 20 21  1  0
 21 22  1  0
 22 23  2  0
 23 24  1  0
 24 25  2  0
 25 26  1  0
 25 27  1  0
 27 28  2  0
 21 29  1  0
 29 30  2  0
 30 31  1  0
 31 32  2  0
 32 33  1  0
 32 34  1  0
 34 35  2  0
 20 36  1  0
 36 37  1  0
 37 38  1  0
 38 39  2  0
 39 40  1  0
 40 41  1  0
 41 42  2  0
 42 43  1  0
 43 44  2  0
 44 45  1  0
 44 46  1  0
 46 47  2  0
 40 48  1  0
 48 49  2  0
 49 50  1  0
 50 51  2  0
 51 52  1  0
 51 53  1  0
 53 54  2  0
 39 55  1  0
 55 56  1  0
 38 57  1  0
 57 58  2  0
 58 59  1  0
 59 60  2  0
 60 61  1  0
 61 62  2  0
 62 63  1  0
 63 64  1  0
 64 65  1  0
 63 66  2  0
 58 67  1  0
 67 68  1  0
 68 69  1  0
 69 70  1  0
 70 71  1  0
 71 72  1  0
 72 73  2  0
 73 74  1  0
 74 75  1  0
 72 76  1  0
 76 77  1  0
 77 78  1  0
 78 79  1  0
 79 80  1  0
 80 81  1  0
 81 82  2  0
 82 83  1  0
 83 84  2  0
 84 85  1  0
 85 86  1  0
 86 87  1  0
 85 88  2  0
 80 89  2  0
 89 90  1  0
 90 91  1  0
 91 92  1  0
 92 93  1  0
 93 94  1  0
 94 95  1  0
 95 96  1  0
 96 97  1  0
 97 98  1  0
 98 99  1  0
 96100  1  0
100101  1  0
 93102  1  0
102103  1  0
 89104  1  0
104105  2  0
105106  1  0
106107  1  0
107108  2  0
108109  1  0
109110  2  0
110111  1  0
110112  1  0
112113  2  0
106114  1  0
114115  2  0
115116  1  0
116117  2  0
117118  1  0
117119  1  0
119120  2  0
105121  1  0
121122  1  0
122123  1  0
123124  2  0
124125  1  0
125126  1  0
126127  2  0
127128  1  0
128129  2  0
129130  1  0
129131  1  0
131132  2  0
125133  1  0
133134  2  0
134135  1  0
135136  2  0
136137  1  0
136138  1  0
138139  2  0
124140  1  0
140141  1  0
123142  1  0
142143  2  3
143144  1  0
144145  2  0
144146  1  0
146147  2  0
147148  1  0
148149  1  0
149150  2  0
149151  1  0
151152  1  0
148153  2  0
153154  1  0
154155  2  0
155156  1  0
156157  2  3
157158  1  0
158159  3  0
157160  1  0
160161  3  0
 13  2  1  0
 56 19  1  0
 99 57  1  0
141104  1  0
156143  1  0
 11  5  1  0
 28 22  1  0
 35 29  1  0
 55 36  2  0
 66 59  1  0
 98 67  2  0
113107  1  0
120114  1  0
140121  2  0
155146  1  0
 47 41  1  0
 54 48  1  0
 97 69  2  0
132126  1  0
139133  1  0
 95 70  2  0
 75 71  2  0
 94 76  2  0
 92 77  2  0
 91 79  2  0
 88 81  1  0
  1162  1  0
  7163  1  0
  8164  1  0
 23165  1  0
 24166  1  0
 26167  1  0
 26168  1  0
 26169  1  0
 27170  1  0
 28171  1  0
 30172  1  0
 31173  1  0
 33174  1  0
 33175  1  0
 33176  1  0
 34177  1  0
 35178  1  0
 42179  1  0
 43180  1  0
 45181  1  0
 45182  1  0
 45183  1  0
 46184  1  0
 47185  1  0
 49186  1  0
 50187  1  0
 52188  1  0
 52189  1  0
 52190  1  0
 53191  1  0
 54192  1  0
 60193  1  0
 61194  1  0
 62195  1  0
 64196  1  0
 64197  1  0
 65198  1  0
 65199  1  0
 65200  1  0
 66201  1  0
 82202  1  0
 83203  1  0
 84204  1  0
 86205  1  0
 86206  1  0
 87207  1  0
 87208  1  0
 87209  1  0
 88210  1  0
100211  1  0
100212  1  0
101213  1  0
101214  1  0
101215  1  0
102216  1  0
102217  1  0
103218  1  0
103219  1  0
103220  1  0
108221  1  0
109222  1  0
111223  1  0
111224  1  0
111225  1  0
112226  1  0
113227  1  0
115228  1  0
116229  1  0
118230  1  0
118231  1  0
118232  1  0
119233  1  0
120234  1  0
127235  1  0
128236  1  0
130237  1  0
130238  1  0
130239  1  0
131240  1  0
132241  1  0
134242  1  0
135243  1  0
137244  1  0
137245  1  0
137246  1  0
138247  1  0
139248  1  0
142249  1  0
147250  1  0
152251  1  0
152252  1  0
152253  1  0
153254  1  0
154255  1  0
M  END

