
     RDKit          3D

249274  0  0  0  0  0  0  0  0999 V2000
    0.6217   -7.9935    2.4040 C   0  0  0  0  0  0  0  0  0  0  0  0
    1.4153   -8.7050    3.1518 C   0  0  0  0  0  0  0  0  0  0  0  0
    2.9054   -8.3624    3.2861 C   0  0  0  0  0  0  0  0  0  0  0  0
    3.5583   -7.7776    2.4090 O   0  0  0  0  0  0  0  0  0  0  0  0
    3.4648   -9.0116    4.4210 C   0  0  0  0  0  0  0  0  0  0  0  0
    2.4931   -9.8618    4.9217 C   0  0  0  0  0  0  0  0  0  0  0  0
    2.8512  -10.6425    6.0003 C   0  0  0  0  0  0  0  0  0  0  0  0
    4.1402  -10.4872    6.5684 C   0  0  0  0  0  0  0  0  0  0  0  0
    5.1535   -9.6513    6.0260 C   0  0  0  0  0  0  0  0  0  0  0  0
    6.8594   -9.6947    6.7731 Br  0  0  0  0  0  0  0  0  0  0  0  0
    4.8384   -8.9072    4.8866 C   0  0  0  0  0  0  0  0  0  0  0  0
    6.0467   -7.9343    3.9792 Cl  0  0  0  0  0  0  0  0  0  0  0  0
    1.2000   -9.7083    4.2721 C   0  0  0  0  0  0  0  0  0  0  0  0
   -0.0479  -10.0613    4.8105 C   0  0  0  0  0  0  0  0  0  0  0  0
   -1.1590  -10.3263    3.9568 C   0  0  0  0  0  0  0  0  0  0  0  0
   -1.9678  -10.7116    3.2522 N   0  0  0  0  0  0  0  0  0  0  0  0
   -0.1283  -10.3162    6.1980 C   0  0  0  0  0  0  0  0  0  0  0  0
   -0.2162  -10.6023    7.3369 N   0  0  0  0  0  0  0  0  0  0  0  0
    1.0986   -6.9112    1.4675 C   0  0  0  0  0  0  0  0  0  0  0  0
    1.8804   -5.8397    1.9187 C   0  0  0  0  0  0  0  0  0  0  0  0
    1.7103   -5.2314    3.2771 N   0  0  0  0  0  0  0  0  0  0  0  0
    2.7622   -4.8890    4.1977 C   0  0  0  0  0  0  0  0  0  0  0  0
    2.8156   -5.4630    5.4968 C   0  0  0  0  0  0  0  0  0  0  0  0
    3.5284   -4.8558    6.5355 C   0  0  0  0  0  0  0  0  0  0  0  0
    4.2633   -3.6653    6.2856 C   0  0  0  0  0  0  0  0  0  0  0  0
    5.0433   -3.0026    7.3654 C   0  0  0  0  0  0  0  0  0  0  0  0
    4.3076   -3.1616    4.9804 C   0  0  0  0  0  0  0  0  0  0  0  0
    3.5280   -3.7290    3.9947 C   0  0  0  0  0  0  0  0  0  0  0  0
    0.3763   -4.7656    3.5263 C   0  0  0  0  0  0  0  0  0  0  0  0
   -0.2978   -5.0750    4.7452 C   0  0  0  0  0  0  0  0  0  0  0  0
   -1.6311   -4.7185    4.8986 C   0  0  0  0  0  0  0  0  0  0  0  0
   -2.3040   -4.0735    3.8427 C   0  0  0  0  0  0  0  0  0  0  0  0
   -3.7194   -3.6326    3.9689 C   0  0  0  0  0  0  0  0  0  0  0  0
   -1.6275   -3.7804    2.6526 C   0  0  0  0  0  0  0  0  0  0  0  0
   -0.3037   -4.0967    2.5147 C   0  0  0  0  0  0  0  0  0  0  0  0
    2.5688   -5.2548    0.8618 C   0  0  0  0  0  0  0  0  0  0  0  0
    3.5837   -3.9645    0.7725 S   0  0  0  0  0  0  0  0  0  0  0  0
    3.6702   -3.7104   -0.9034 C   0  0  0  0  0  0  0  0  0  0  0  0
    2.8782   -4.7879   -1.4352 C   0  0  0  0  0  0  0  0  0  0  0  0
    2.2956   -4.8027   -2.7760 N   0  0  0  0  0  0  0  0  0  0  0  0
    2.5484   -5.9660   -3.6124 C   0  0  0  0  0  0  0  0  0  0  0  0
    1.4638   -6.6724   -4.2241 C   0  0  0  0  0  0  0  0  0  0  0  0
    1.7083   -7.7748   -5.0331 C   0  0  0  0  0  0  0  0  0  0  0  0
    3.0296   -8.2341   -5.2319 C   0  0  0  0  0  0  0  0  0  0  0  0
    3.2931   -9.3942   -6.1345 C   0  0  0  0  0  0  0  0  0  0  0  0
    4.0941   -7.5552   -4.5993 C   0  0  0  0  0  0  0  0  0  0  0  0
    3.8431   -6.4516   -3.7883 C   0  0  0  0  0  0  0  0  0  0  0  0
    1.2429   -3.8928   -3.0540 C   0  0  0  0  0  0  0  0  0  0  0  0
    0.9962   -3.4499   -4.3891 C   0  0  0  0  0  0  0  0  0  0  0  0
    0.0574   -2.4583   -4.6448 C   0  0  0  0  0  0  0  0  0  0  0  0
   -0.6951   -1.9044   -3.5835 C   0  0  0  0  0  0  0  0  0  0  0  0
   -1.6837   -0.7747   -3.8047 C   0  0  0  0  0  0  0  0  0  0  0  0
   -0.5052   -2.3760   -2.2783 C   0  0  0  0  0  0  0  0  0  0  0  0
    0.4206   -3.3645   -2.0158 C   0  0  0  0  0  0  0  0  0  0  0  0
    2.3041   -5.6321   -0.4223 C   0  0  0  0  0  0  0  0  0  0  0  0
    1.1375   -6.8683   -0.2575 S   0  0  0  0  0  0  0  0  0  0  0  0
    4.2547   -2.3685   -1.3690 C   0  0  0  0  0  0  0  0  0  0  0  0
    4.7494   -1.6974   -2.5587 C   0  0  0  0  0  0  0  0  0  0  0  0
    4.6878   -2.2073   -3.9421 C   0  0  0  0  0  0  0  0  0  0  0  0
    5.5107   -3.2679   -4.3976 C   0  0  0  0  0  0  0  0  0  0  0  0
    5.5504   -3.6200   -5.7498 C   0  0  0  0  0  0  0  0  0  0  0  0
    4.7532   -2.9138   -6.6689 C   0  0  0  0  0  0  0  0  0  0  0  0
    3.9110   -1.8702   -6.2263 C   0  0  0  0  0  0  0  0  0  0  0  0
    2.9162   -1.2064   -7.1626 C   0  0  0  0  0  0  0  0  0  0  0  0
    3.4734    0.0391   -7.8503 C   0  0  0  0  0  0  0  0  0  0  0  0
    3.9080   -1.5189   -4.8667 C   0  0  0  0  0  0  0  0  0  0  0  0
    5.1828   -0.3351   -2.3175 C   0  0  0  0  0  0  0  0  0  0  0  0
    5.5529    1.1362   -3.2077 S   0  0  0  0  0  0  0  0  0  0  0  0
    5.5642    2.1235   -1.7836 C   0  0  0  0  0  0  0  0  0  0  0  0
    5.3999    3.4496   -1.3429 C   0  0  0  0  0  0  0  0  0  0  0  0
    5.4245    4.6616   -2.0420 C   0  0  0  0  0  0  0  0  0  0  0  0
    4.8273    5.8263   -1.4435 C   0  0  0  0  0  0  0  0  0  0  0  0
    4.8044    6.9387   -2.2023 N   0  0  0  0  0  0  0  0  0  0  0  0
    5.5369    6.3789   -3.5867 S   0  0  0  0  0  0  0  0  0  0  0  0
    5.8842    4.7877   -3.2889 N   0  0  0  0  0  0  0  0  0  0  0  0
    4.1766    5.7021   -0.2030 C   0  0  0  0  0  0  0  0  0  0  0  0
    3.0954    6.4121    0.3217 C   0  0  0  0  0  0  0  0  0  0  0  0
    2.0064    7.6395   -0.1910 S   0  0  0  0  0  0  0  0  0  0  0  0
    0.7879    7.1003    0.9075 C   0  0  0  0  0  0  0  0  0  0  0  0
   -0.5941    7.2497    0.8313 C   0  0  0  0  0  0  0  0  0  0  0  0
   -1.2284    8.5961    0.8637 C   0  0  0  0  0  0  0  0  0  0  0  0
   -1.4104    9.3644   -0.3076 C   0  0  0  0  0  0  0  0  0  0  0  0
   -2.0352   10.6123   -0.2654 C   0  0  0  0  0  0  0  0  0  0  0  0
   -2.4876   11.1206    0.9561 C   0  0  0  0  0  0  0  0  0  0  0  0
   -2.3433   10.3565    2.1471 C   0  0  0  0  0  0  0  0  0  0  0  0
   -2.8222   10.8567    3.4850 C   0  0  0  0  0  0  0  0  0  0  0  0
   -1.6650   11.3717    4.3533 C   0  0  0  0  0  0  0  0  0  0  0  0
   -1.7031    9.1009    2.0872 C   0  0  0  0  0  0  0  0  0  0  0  0
   -1.2712    6.1079    1.2885 C   0  0  0  0  0  0  0  0  0  0  0  0
   -0.1247    5.0087    1.9431 S   0  0  0  0  0  0  0  0  0  0  0  0
    1.2026    5.9826    1.5619 C   0  0  0  0  0  0  0  0  0  0  0  0
    2.5417    5.6551    1.2624 C   0  0  0  0  0  0  0  0  0  0  0  0
    3.2351    4.5308    1.5398 N   0  0  0  0  0  0  0  0  0  0  0  0
    4.2271    4.5073    0.5771 C   0  0  0  0  0  0  0  0  0  0  0  0
    4.9071    3.3440   -0.0049 C   0  0  0  0  0  0  0  0  0  0  0  0
    4.9184    2.0446    0.3782 N   0  0  0  0  0  0  0  0  0  0  0  0
    5.2758    1.3602   -0.7216 C   0  0  0  0  0  0  0  0  0  0  0  0
    5.0814    0.0319   -1.0265 C   0  0  0  0  0  0  0  0  0  0  0  0
    4.3804   -1.1898   -0.1674 S   0  0  0  0  0  0  0  0  0  0  0  0
    4.6330    1.3889    1.6757 C   0  0  0  0  0  0  0  0  0  0  0  0
    5.6973    1.7487    2.7095 C   0  0  0  0  0  0  0  0  0  0  0  0
    3.1696    4.0108    2.9293 C   0  0  0  0  0  0  0  0  0  0  0  0
    3.8741    4.9340    3.9338 C   0  0  0  0  0  0  0  0  0  0  0  0
   -2.5374    5.6321    0.6529 C   0  0  0  0  0  0  0  0  0  0  0  0
   -3.2970    4.5040    1.0007 C   0  0  0  0  0  0  0  0  0  0  0  0
   -3.6115    4.0867    2.3515 N   0  0  0  0  0  0  0  0  0  0  0  0
   -4.6909    4.7502    3.0778 C   0  0  0  0  0  0  0  0  0  0  0  0
   -5.6968    3.9934    3.7212 C   0  0  0  0  0  0  0  0  0  0  0  0
   -6.6713    4.6344    4.4973 C   0  0  0  0  0  0  0  0  0  0  0  0
   -6.6354    6.0411    4.6437 C   0  0  0  0  0  0  0  0  0  0  0  0
   -7.6743    6.7390    5.4883 C   0  0  0  0  0  0  0  0  0  0  0  0
   -5.6302    6.7907    3.9962 C   0  0  0  0  0  0  0  0  0  0  0  0
   -4.6696    6.1375    3.2244 C   0  0  0  0  0  0  0  0  0  0  0  0
   -2.9633    2.9647    2.9635 C   0  0  0  0  0  0  0  0  0  0  0  0
   -2.6759    3.0050    4.3387 C   0  0  0  0  0  0  0  0  0  0  0  0
   -2.1390    1.9073    4.9821 C   0  0  0  0  0  0  0  0  0  0  0  0
   -1.8619    0.7199    4.2702 C   0  0  0  0  0  0  0  0  0  0  0  0
   -1.2942   -0.4565    4.9817 C   0  0  0  0  0  0  0  0  0  0  0  0
   -2.1400    0.6648    2.8877 C   0  0  0  0  0  0  0  0  0  0  0  0
   -2.6671    1.7790    2.2480 C   0  0  0  0  0  0  0  0  0  0  0  0
   -3.9911    4.0223   -0.0898 C   0  0  0  0  0  0  0  0  0  0  0  0
   -4.7243    2.5438   -0.3580 S   0  0  0  0  0  0  0  0  0  0  0  0
   -4.8850    2.7967   -2.0292 C   0  0  0  0  0  0  0  0  0  0  0  0
   -4.3594    4.0347   -2.3712 C   0  0  0  0  0  0  0  0  0  0  0  0
   -4.4967    4.5926   -3.7030 N   0  0  0  0  0  0  0  0  0  0  0  0
   -5.7927    4.5902   -4.3328 C   0  0  0  0  0  0  0  0  0  0  0  0
   -6.9352    4.9456   -3.5869 C   0  0  0  0  0  0  0  0  0  0  0  0
   -8.1880    4.9446   -4.1707 C   0  0  0  0  0  0  0  0  0  0  0  0
   -8.3500    4.5872   -5.5228 C   0  0  0  0  0  0  0  0  0  0  0  0
   -9.7254    4.5526   -6.1317 C   0  0  0  0  0  0  0  0  0  0  0  0
   -7.2063    4.2438   -6.2936 C   0  0  0  0  0  0  0  0  0  0  0  0
   -5.9432    4.2588   -5.7023 C   0  0  0  0  0  0  0  0  0  0  0  0
   -3.4156    5.3226   -4.2992 C   0  0  0  0  0  0  0  0  0  0  0  0
   -2.1294    4.7941   -4.2815 C   0  0  0  0  0  0  0  0  0  0  0  0
   -1.0789    5.5110   -4.8561 C   0  0  0  0  0  0  0  0  0  0  0  0
   -1.3368    6.7876   -5.4249 C   0  0  0  0  0  0  0  0  0  0  0  0
   -0.2324    7.5692   -6.0554 C   0  0  0  0  0  0  0  0  0  0  0  0
   -2.6396    7.3175   -5.4116 C   0  0  0  0  0  0  0  0  0  0  0  0
   -3.6655    6.5869   -4.8485 C   0  0  0  0  0  0  0  0  0  0  0  0
   -3.8656    4.6937   -1.2477 C   0  0  0  0  0  0  0  0  0  0  0  0
   -2.8850    6.0421   -0.9866 S   0  0  0  0  0  0  0  0  0  0  0  0
   -5.2956    1.7436   -2.9717 C   0  0  0  0  0  0  0  0  0  0  0  0
   -6.2009    0.8093   -2.6546 C   0  0  0  0  0  0  0  0  0  0  0  0
   -7.0841    0.8525   -1.5141 C   0  0  0  0  0  0  0  0  0  0  0  0
   -7.5433    1.9213   -0.9837 O   0  0  0  0  0  0  0  0  0  0  0  0
   -7.4971   -0.5050   -1.1870 C   0  0  0  0  0  0  0  0  0  0  0  0
   -8.3405   -0.9131   -0.1696 C   0  0  0  0  0  0  0  0  0  0  0  0
   -8.9963    0.2547    0.9962 Cl  0  0  0  0  0  0  0  0  0  0  0  0
   -8.6718   -2.2614   -0.0922 C   0  0  0  0  0  0  0  0  0  0  0  0
   -8.1512   -3.1981   -1.0236 C   0  0  0  0  0  0  0  0  0  0  0  0
   -8.6503   -5.0408   -0.9042 Br  0  0  0  0  0  0  0  0  0  0  0  0
   -7.3006   -2.7916   -2.0441 C   0  0  0  0  0  0  0  0  0  0  0  0
   -6.9799   -1.4021   -2.1144 C   0  0  0  0  0  0  0  0  0  0  0  0
   -6.2578   -0.6090   -3.1343 C   0  0  0  0  0  0  0  0  0  0  0  0
   -5.9091   -1.0516   -4.3545 C   0  0  0  0  0  0  0  0  0  0  0  0
   -5.6804   -2.4263   -4.6650 C   0  0  0  0  0  0  0  0  0  0  0  0
   -5.4797   -3.5665   -4.9044 N   0  0  0  0  0  0  0  0  0  0  0  0
   -5.8520   -0.1564   -5.4163 C   0  0  0  0  0  0  0  0  0  0  0  0
   -5.8072    0.6442   -6.3131 N   0  0  0  0  0  0  0  0  0  0  0  0
   -0.4629   -8.1305    2.3703 H   0  0  0  0  0  0  0  0  0  0  0  0
    2.1505  -11.3743    6.4502 H   0  0  0  0  0  0  0  0  0  0  0  0
    4.3117  -11.0887    7.4809 H   0  0  0  0  0  0  0  0  0  0  0  0
    2.2299   -6.3448    5.7101 H   0  0  0  0  0  0  0  0  0  0  0  0
    3.4603   -5.2733    7.5465 H   0  0  0  0  0  0  0  0  0  0  0  0
    4.4268   -2.9659    8.2914 H   0  0  0  0  0  0  0  0  0  0  0  0
    5.3564   -1.9694    7.0650 H   0  0  0  0  0  0  0  0  0  0  0  0
    5.9565   -3.5962    7.5636 H   0  0  0  0  0  0  0  0  0  0  0  0
    4.8683   -2.2453    4.7360 H   0  0  0  0  0  0  0  0  0  0  0  0
    3.4282   -3.1576    3.1051 H   0  0  0  0  0  0  0  0  0  0  0  0
    0.1545   -5.6563    5.5589 H   0  0  0  0  0  0  0  0  0  0  0  0
   -2.1196   -4.9115    5.8458 H   0  0  0  0  0  0  0  0  0  0  0  0
   -3.7360   -2.5608    4.2501 H   0  0  0  0  0  0  0  0  0  0  0  0
   -4.2335   -3.8058    2.9963 H   0  0  0  0  0  0  0  0  0  0  0  0
   -4.2201   -4.2275    4.7382 H   0  0  0  0  0  0  0  0  0  0  0  0
   -2.0933   -3.2607    1.8095 H   0  0  0  0  0  0  0  0  0  0  0  0
    0.1266   -3.8716    1.5532 H   0  0  0  0  0  0  0  0  0  0  0  0
    0.4304   -6.3979   -4.0534 H   0  0  0  0  0  0  0  0  0  0  0  0
    0.8541   -8.2587   -5.5166 H   0  0  0  0  0  0  0  0  0  0  0  0
    2.4914  -10.1459   -5.9978 H   0  0  0  0  0  0  0  0  0  0  0  0
    3.2629   -9.0634   -7.1962 H   0  0  0  0  0  0  0  0  0  0  0  0
    4.2693   -9.8898   -5.8960 H   0  0  0  0  0  0  0  0  0  0  0  0
    5.1289   -7.8642   -4.7664 H   0  0  0  0  0  0  0  0  0  0  0  0
    4.6645   -5.9525   -3.2920 H   0  0  0  0  0  0  0  0  0  0  0  0
    1.5655   -3.8394   -5.2293 H   0  0  0  0  0  0  0  0  0  0  0  0
   -0.0489   -2.0730   -5.6570 H   0  0  0  0  0  0  0  0  0  0  0  0
   -2.5928   -0.9753   -3.2141 H   0  0  0  0  0  0  0  0  0  0  0  0
   -1.9880   -0.7499   -4.8570 H   0  0  0  0  0  0  0  0  0  0  0  0
   -1.2267    0.1876   -3.5051 H   0  0  0  0  0  0  0  0  0  0  0  0
   -1.0520   -1.9445   -1.4463 H   0  0  0  0  0  0  0  0  0  0  0  0
    0.4632   -3.6818   -0.9670 H   0  0  0  0  0  0  0  0  0  0  0  0
    6.1719   -3.7831   -3.7114 H   0  0  0  0  0  0  0  0  0  0  0  0
    6.1935   -4.4220   -6.0918 H   0  0  0  0  0  0  0  0  0  0  0  0
    4.7580   -3.2189   -7.7164 H   0  0  0  0  0  0  0  0  0  0  0  0
    2.6006   -1.9502   -7.9200 H   0  0  0  0  0  0  0  0  0  0  0  0
    1.9995   -0.9286   -6.5842 H   0  0  0  0  0  0  0  0  0  0  0  0
    4.5749   -0.0407   -7.9917 H   0  0  0  0  0  0  0  0  0  0  0  0
    3.2721    0.9376   -7.2221 H   0  0  0  0  0  0  0  0  0  0  0  0
    2.9746    0.1648   -8.8453 H   0  0  0  0  0  0  0  0  0  0  0  0
    3.2602   -0.7018   -4.5157 H   0  0  0  0  0  0  0  0  0  0  0  0
   -1.0934    8.9436   -1.2551 H   0  0  0  0  0  0  0  0  0  0  0  0
   -2.1449   11.1811   -1.1907 H   0  0  0  0  0  0  0  0  0  0  0  0
   -2.9446   12.1085    1.0020 H   0  0  0  0  0  0  0  0  0  0  0  0
   -3.3284   10.0203    4.0146 H   0  0  0  0  0  0  0  0  0  0  0  0
   -3.5829   11.6621    3.3643 H   0  0  0  0  0  0  0  0  0  0  0  0
   -0.7516   11.6093    3.7469 H   0  0  0  0  0  0  0  0  0  0  0  0
   -1.3737   10.6002    5.0997 H   0  0  0  0  0  0  0  0  0  0  0  0
   -1.9792   12.2939    4.8937 H   0  0  0  0  0  0  0  0  0  0  0  0
   -1.5968    8.5051    3.0029 H   0  0  0  0  0  0  0  0  0  0  0  0
    3.5503    1.4881    1.8764 H   0  0  0  0  0  0  0  0  0  0  0  0
    4.7383    0.3007    1.7180 H   0  0  0  0  0  0  0  0  0  0  0  0
    6.6667    1.3277    2.4110 H   0  0  0  0  0  0  0  0  0  0  0  0
    5.8478    2.8600    2.8204 H   0  0  0  0  0  0  0  0  0  0  0  0
    5.3702    1.3127    3.6781 H   0  0  0  0  0  0  0  0  0  0  0  0
    2.1341    3.7949    3.2349 H   0  0  0  0  0  0  0  0  0  0  0  0
    3.6397    3.0909    3.0703 H   0  0  0  0  0  0  0  0  0  0  0  0
    3.9518    6.0014    3.5999 H   0  0  0  0  0  0  0  0  0  0  0  0
    3.3106    4.8959    4.8977 H   0  0  0  0  0  0  0  0  0  0  0  0
    4.9097    4.5409    4.1293 H   0  0  0  0  0  0  0  0  0  0  0  0
   -5.7192    2.9164    3.6513 H   0  0  0  0  0  0  0  0  0  0  0  0
   -7.4245    4.0273    4.9873 H   0  0  0  0  0  0  0  0  0  0  0  0
   -8.6637    6.5804    5.0160 H   0  0  0  0  0  0  0  0  0  0  0  0
   -7.6511    6.2903    6.4995 H   0  0  0  0  0  0  0  0  0  0  0  0
   -7.4702    7.8313    5.5615 H   0  0  0  0  0  0  0  0  0  0  0  0
   -5.5521    7.8700    4.0804 H   0  0  0  0  0  0  0  0  0  0  0  0
   -3.8959    6.7663    2.8043 H   0  0  0  0  0  0  0  0  0  0  0  0
   -2.8845    3.8928    4.9335 H   0  0  0  0  0  0  0  0  0  0  0  0
   -1.9379    1.9820    6.0434 H   0  0  0  0  0  0  0  0  0  0  0  0
   -0.8937   -1.2121    4.2675 H   0  0  0  0  0  0  0  0  0  0  0  0
   -2.0882   -0.9188    5.6046 H   0  0  0  0  0  0  0  0  0  0  0  0
   -0.4525   -0.1530    5.6388 H   0  0  0  0  0  0  0  0  0  0  0  0
   -1.9495   -0.2436    2.3222 H   0  0  0  0  0  0  0  0  0  0  0  0
   -2.8752    1.6832    1.1944 H   0  0  0  0  0  0  0  0  0  0  0  0
   -6.8908    5.2446   -2.5432 H   0  0  0  0  0  0  0  0  0  0  0  0
   -9.0216    5.2203   -3.5411 H   0  0  0  0  0  0  0  0  0  0  0  0
   -9.7363    5.2232   -7.0118 H   0  0  0  0  0  0  0  0  0  0  0  0
   -9.9483    3.5130   -6.4504 H   0  0  0  0  0  0  0  0  0  0  0  0
  -10.5092    4.8983   -5.4118 H   0  0  0  0  0  0  0  0  0  0  0  0
   -7.3189    3.9568   -7.3410 H   0  0  0  0  0  0  0  0  0  0  0  0
   -5.0655    3.9890   -6.2883 H   0  0  0  0  0  0  0  0  0  0  0  0
   -1.9616    3.8174   -3.8387 H   0  0  0  0  0  0  0  0  0  0  0  0
   -0.0910    5.0700   -4.8704 H   0  0  0  0  0  0  0  0  0  0  0  0
   -0.2634    8.5969   -5.6322 H   0  0  0  0  0  0  0  0  0  0  0  0
    0.7639    7.1349   -5.8327 H   0  0  0  0  0  0  0  0  0  0  0  0
   -0.3965    7.5853   -7.1576 H   0  0  0  0  0  0  0  0  0  0  0  0
   -2.8920    8.2879   -5.8435 H   0  0  0  0  0  0  0  0  0  0  0  0
   -4.6514    7.0335   -4.8413 H   0  0  0  0  0  0  0  0  0  0  0  0
   -4.6633    1.6930   -3.8459 H   0  0  0  0  0  0  0  0  0  0  0  0
   -9.3295   -2.6045    0.6748 H   0  0  0  0  0  0  0  0  0  0  0  0
   -6.9472   -3.5496   -2.7375 H   0  0  0  0  0  0  0  0  0  0  0  0
  1  2  2  3
  2  3  1  0
  3  4  2  0
  3  5  1  0
  5  6  2  0
  6  7  1  0
  7  8  2  0
  8  9  1  0
  9 10  1  0
  9 11  2  0
 11 12  1  0
  6 13  1  0
 13 14  2  3
 14 15  1  0
 15 16  3  0
 14 17  1  0
 17 18  3  0
  1 19  1  0
 19 20  2  0
 20 21  1  0
 21 22  1  0
 22 23  2  0
 23 24  1  0
 24 25  2  0
 25 26  1  0
 25 27  1  0
 27 28  2  0
 21 29  1  0
 29 30  2  0
 30 31  1  0
 31 32  2  0
 32 33  1  0
 32 34  1  0
 34 35  2  0
 20 36  1  0
 36 37  1  0
 37 38  1  0
 38 39  2  0
 39 40  1  0
 40 41  1  0
 41 42  2  0
 42 43  1  0
 43 44  2  0
 44 45  1  0
 44 46  1  0
 46 47  2  0
 40 48  1  0
 48 49  2  0
 49 50  1  0
 50 51  2  0
 51 52  1  0
 51 53  1  0
 53 54  2  0
 39 55  1  0
 55 56  1  0
 38 57  1  0
 57 58  2  0
 58 59  1  0
 59 60  2  0
 60 61  1  0
 61 62  2  0
 62 63  1  0
 63 64  1  0
 64 65  1  0
 63 66  2  0
 58 67  1  0
 67 68  1  0
 68 69  1  0
 69 70  1  0
 70 71  1  0
 71 72  1  0
 72 73  2  0
 73 74  1  0
 74 75  1  0
 72 76  1  0
 76 77  1  0
 77 78  1  0
 78 79  1  0
 79 80  1  0
 80 81  1  0
 81 82  2  0
 82 83  1  0
 83 84  2  0
 84 85  1  0
 85 86  1  0
 86 87  1  0
 85 88  2  0
 80 89  2  0
 89 90  1  0
 90 91  1  0
 91 92  1  0
 92 93  1  0
 93 94  1  0
 94 95  1  0
 95 96  1  0
 96 97  1  0
 97 98  1  0
 98 99  1  0
 96100  1  0
100101  1  0
 93102  1  0
102103  1  0
 89104  1  0
104105  2  0
105106  1  0
106107  1  0
107108  2  0
108109  1  0
109110  2  0
110111  1  0
110112  1  0
112113  2  0
106114  1  0
114115  2  0
115116  1  0
116117  2  0
117118  1  0
117119  1  0
119120  2  0
105121  1  0
121122  1  0
122123  1  0
123124  2  0
124125  1  0
125126  1  0
126127  2  0
127128  1  0
128129  2  0
129130  1  0
129131  1  0
131132  2  0
125133  1  0
133134  2  0
134135  1  0
135136  2  0
136137  1  0
136138  1  0
138139  2  0
124140  1  0
140141  1  0
123142  1  0
142143  2  3
143144  1  0
144145  2  0
144146  1  0
146147  2  0
147148  1  0
147149  1  0
149150  2  0
150151  1  0
150152  1  0
152153  2  0
153154  1  0
154155  2  3
155156  1  0
156157  3  0
155158  1  0
158159  3  0
 13  2  1  0
 56 19  1  0
 99 57  1  0
141104  1  0
154143  1  0
 11  5  1  0
 28 22  1  0
 35 29  1  0
 55 36  2  0
 66 59  1  0
 98 67  2  0
113107  1  0
120114  1  0
140121  2  0
153146  1  0
 47 41  1  0
 54 48  1  0
 97 69  2  0
132126  1  0
139133  1  0
 95 70  2  0
 75 71  2  0
 94 76  2  0
 92 77  2  0
 91 79  2  0
 88 81  1  0
  1160  1  0
  7161  1  0
  8162  1  0
 23163  1  0
 24164  1  0
 26165  1  0
 26166  1  0
 26167  1  0
 27168  1  0
 28169  1  0
 30170  1  0
 31171  1  0
 33172  1  0
 33173  1  0
 33174  1  0
 34175  1  0
 35176  1  0
 42177  1  0
 43178  1  0
 45179  1  0
 45180  1  0
 45181  1  0
 46182  1  0
 47183  1  0
 49184  1  0
 50185  1  0
 52186  1  0
 52187  1  0
 52188  1  0
 53189  1  0
 54190  1  0
 60191  1  0
 61192  1  0
 62193  1  0
 64194  1  0
 64195  1  0
 65196  1  0
 65197  1  0
 65198  1  0
 66199  1  0
 82200  1  0
 83201  1  0
 84202  1  0
 86203  1  0
 86204  1  0
 87205  1  0
 87206  1  0
 87207  1  0
 88208  1  0
100209  1  0
100210  1  0
101211  1  0
101212  1  0
101213  1  0
102214  1  0
102215  1  0
103216  1  0
103217  1  0
103218  1  0
108219  1  0
109220  1  0
111221  1  0
111222  1  0
111223  1  0
112224  1  0
113225  1  0
115226  1  0
116227  1  0
118228  1  0
118229  1  0
118230  1  0
119231  1  0
120232  1  0
127233  1  0
128234  1  0
130235  1  0
130236  1  0
130237  1  0
131238  1  0
132239  1  0
134240  1  0
135241  1  0
137242  1  0
137243  1  0
137244  1  0
138245  1  0
139246  1  0
142247  1  0
149248  1  0
152249  1  0
M  END

