
     RDKit          3D

264288  0  0  0  0  0  0  0  0999 V2000
   -7.0579   -7.8217   -0.2927 C   0  0  0  0  0  0  0  0  0  0  0  0
   -6.5900   -8.1414   -1.5153 C   0  0  0  0  0  0  0  0  0  0  0  0
   -5.8298   -7.2573   -2.4085 C   0  0  0  0  0  0  0  0  0  0  0  0
   -5.1628   -6.2471   -2.0642 O   0  0  0  0  0  0  0  0  0  0  0  0
   -5.9348   -7.7792   -3.7636 C   0  0  0  0  0  0  0  0  0  0  0  0
   -6.6397   -8.9695   -3.7319 C   0  0  0  0  0  0  0  0  0  0  0  0
   -7.0043   -9.5981   -4.9319 C   0  0  0  0  0  0  0  0  0  0  0  0
   -6.5856   -9.0397   -6.1486 C   0  0  0  0  0  0  0  0  0  0  0  0
   -5.8270   -7.8565   -6.1728 C   0  0  0  0  0  0  0  0  0  0  0  0
   -5.2901   -7.1523   -7.8711 Br  0  0  0  0  0  0  0  0  0  0  0  0
   -5.4985   -7.2024   -4.9660 C   0  0  0  0  0  0  0  0  0  0  0  0
   -4.5886   -5.6916   -4.9786 Cl  0  0  0  0  0  0  0  0  0  0  0  0
   -6.9574   -9.3334   -2.3278 C   0  0  0  0  0  0  0  0  0  0  0  0
   -7.2614  -10.5706   -1.8637 C   0  0  0  0  0  0  0  0  0  0  0  0
   -7.4351  -11.7030   -2.7372 C   0  0  0  0  0  0  0  0  0  0  0  0
   -7.5653  -12.6273   -3.4204 N   0  0  0  0  0  0  0  0  0  0  0  0
   -7.2396  -10.8827   -0.4575 C   0  0  0  0  0  0  0  0  0  0  0  0
   -7.2088  -11.1533    0.6670 N   0  0  0  0  0  0  0  0  0  0  0  0
   -6.9052   -6.4858    0.2952 C   0  0  0  0  0  0  0  0  0  0  0  0
   -6.2775   -6.1946    1.5103 C   0  0  0  0  0  0  0  0  0  0  0  0
   -5.5892   -7.1501    2.3287 N   0  0  0  0  0  0  0  0  0  0  0  0
   -4.4286   -7.8428    1.8097 C   0  0  0  0  0  0  0  0  0  0  0  0
   -3.6237   -7.2509    0.8184 C   0  0  0  0  0  0  0  0  0  0  0  0
   -2.5094   -7.9270    0.3125 C   0  0  0  0  0  0  0  0  0  0  0  0
   -2.1898   -9.2104    0.7754 C   0  0  0  0  0  0  0  0  0  0  0  0
   -0.9708   -9.9209    0.2657 C   0  0  0  0  0  0  0  0  0  0  0  0
   -2.9801   -9.7975    1.7733 C   0  0  0  0  0  0  0  0  0  0  0  0
   -4.1012   -9.1273    2.2719 C   0  0  0  0  0  0  0  0  0  0  0  0
   -6.0064   -7.2896    3.7016 C   0  0  0  0  0  0  0  0  0  0  0  0
   -5.0594   -7.3249    4.7412 C   0  0  0  0  0  0  0  0  0  0  0  0
   -5.4736   -7.4458    6.0702 C   0  0  0  0  0  0  0  0  0  0  0  0
   -6.8399   -7.5301    6.3816 C   0  0  0  0  0  0  0  0  0  0  0  0
   -7.2920   -7.6179    7.8093 C   0  0  0  0  0  0  0  0  0  0  0  0
   -7.7871   -7.4602    5.3508 C   0  0  0  0  0  0  0  0  0  0  0  0
   -7.3729   -7.3442    4.0220 C   0  0  0  0  0  0  0  0  0  0  0  0
   -6.2338   -4.8271    1.7355 C   0  0  0  0  0  0  0  0  0  0  0  0
   -5.3299   -3.8613    2.7624 S   0  0  0  0  0  0  0  0  0  0  0  0
   -5.6930   -2.4004    1.9501 C   0  0  0  0  0  0  0  0  0  0  0  0
   -6.5339   -2.7060    0.8564 C   0  0  0  0  0  0  0  0  0  0  0  0
   -7.0461   -1.7420   -0.0794 N   0  0  0  0  0  0  0  0  0  0  0  0
   -7.9503   -0.7457    0.4332 C   0  0  0  0  0  0  0  0  0  0  0  0
   -7.7524    0.6133    0.1476 C   0  0  0  0  0  0  0  0  0  0  0  0
   -8.6011    1.5796    0.6977 C   0  0  0  0  0  0  0  0  0  0  0  0
   -9.6487    1.1972    1.5517 C   0  0  0  0  0  0  0  0  0  0  0  0
  -10.5619    2.2273    2.1410 C   0  0  0  0  0  0  0  0  0  0  0  0
   -9.8648   -0.1625    1.8101 C   0  0  0  0  0  0  0  0  0  0  0  0
   -9.0192   -1.1257    1.2617 C   0  0  0  0  0  0  0  0  0  0  0  0
   -6.7625   -1.8575   -1.4970 C   0  0  0  0  0  0  0  0  0  0  0  0
   -5.5739   -2.4702   -1.9415 C   0  0  0  0  0  0  0  0  0  0  0  0
   -5.2668   -2.5327   -3.3020 C   0  0  0  0  0  0  0  0  0  0  0  0
   -6.1705   -2.0325   -4.2487 C   0  0  0  0  0  0  0  0  0  0  0  0
   -5.8388   -2.0714   -5.7133 C   0  0  0  0  0  0  0  0  0  0  0  0
   -7.3661   -1.4444   -3.8211 C   0  0  0  0  0  0  0  0  0  0  0  0
   -7.6615   -1.3566   -2.4584 C   0  0  0  0  0  0  0  0  0  0  0  0
   -6.8013   -4.0666    0.7722 C   0  0  0  0  0  0  0  0  0  0  0  0
   -7.4308   -5.0415   -0.4365 S   0  0  0  0  0  0  0  0  0  0  0  0
   -4.8026   -1.2277    2.0406 C   0  0  0  0  0  0  0  0  0  0  0  0
   -4.2768   -0.6178    0.9009 C   0  0  0  0  0  0  0  0  0  0  0  0
   -3.0148   -0.0793    1.1170 C   0  0  0  0  0  0  0  0  0  0  0  0
   -1.8484   -0.0641    0.1464 C   0  0  0  0  0  0  0  0  0  0  0  0
   -1.7700   -1.3174   -0.7404 C   0  0  0  0  0  0  0  0  0  0  0  0
   -1.1848   -1.2615   -2.0246 C   0  0  0  0  0  0  0  0  0  0  0  0
   -1.0885   -2.4047   -2.8196 C   0  0  0  0  0  0  0  0  0  0  0  0
   -1.5432   -3.6422   -2.3433 C   0  0  0  0  0  0  0  0  0  0  0  0
   -1.4223   -4.8787   -3.1898 C   0  0  0  0  0  0  0  0  0  0  0  0
   -0.1261   -5.6247   -2.8871 C   0  0  0  0  0  0  0  0  0  0  0  0
   -2.0470   -3.7266   -1.0386 C   0  0  0  0  0  0  0  0  0  0  0  0
   -2.1378   -2.5855   -0.2420 C   0  0  0  0  0  0  0  0  0  0  0  0
   -1.9230    1.2483   -0.6466 C   0  0  0  0  0  0  0  0  0  0  0  0
   -2.9282    1.3945   -1.6243 C   0  0  0  0  0  0  0  0  0  0  0  0
   -3.0448    2.5735   -2.3602 C   0  0  0  0  0  0  0  0  0  0  0  0
   -2.1827    3.6516   -2.1182 C   0  0  0  0  0  0  0  0  0  0  0  0
   -2.3233    4.9208   -2.9202 C   0  0  0  0  0  0  0  0  0  0  0  0
   -3.5771    5.6976   -2.5249 C   0  0  0  0  0  0  0  0  0  0  0  0
   -1.1886    3.5277   -1.1377 C   0  0  0  0  0  0  0  0  0  0  0  0
   -1.0632    2.3422   -0.4076 C   0  0  0  0  0  0  0  0  0  0  0  0
   -0.7088   -0.1184    1.1462 C   0  0  0  0  0  0  0  0  0  0  0  0
   -1.1644   -0.0766    2.4622 C   0  0  0  0  0  0  0  0  0  0  0  0
   -2.6098   -0.0760    2.4241 C   0  0  0  0  0  0  0  0  0  0  0  0
   -3.6984   -0.9900    3.3178 S   0  0  0  0  0  0  0  0  0  0  0  0
   -0.2993    0.1867    3.5322 C   0  0  0  0  0  0  0  0  0  0  0  0
    1.0655    0.3526    3.2228 C   0  0  0  0  0  0  0  0  0  0  0  0
    2.0961    1.1338    4.0384 C   0  0  0  0  0  0  0  0  0  0  0  0
    2.7897    0.3045    5.1213 C   0  0  0  0  0  0  0  0  0  0  0  0
    2.4635   -1.0454    5.3675 C   0  0  0  0  0  0  0  0  0  0  0  0
    3.1707   -1.7877    6.3199 C   0  0  0  0  0  0  0  0  0  0  0  0
    4.2158   -1.1997    7.0450 C   0  0  0  0  0  0  0  0  0  0  0  0
    4.9851   -2.0030    8.0594 C   0  0  0  0  0  0  0  0  0  0  0  0
    4.3651   -1.8612    9.4430 C   0  0  0  0  0  0  0  0  0  0  0  0
    4.5146    0.1529    6.8385 C   0  0  0  0  0  0  0  0  0  0  0  0
    3.8208    0.8924    5.8793 C   0  0  0  0  0  0  0  0  0  0  0  0
    1.4387    2.4163    4.5759 C   0  0  0  0  0  0  0  0  0  0  0  0
    1.1256    3.4910    3.7109 C   0  0  0  0  0  0  0  0  0  0  0  0
    0.4607    4.6252    4.1852 C   0  0  0  0  0  0  0  0  0  0  0  0
    0.0400    4.6937    5.5198 C   0  0  0  0  0  0  0  0  0  0  0  0
   -0.6636    5.9192    6.0436 C   0  0  0  0  0  0  0  0  0  0  0  0
    0.3016    6.8156    6.8082 C   0  0  0  0  0  0  0  0  0  0  0  0
    0.2951    3.6115    6.3732 C   0  0  0  0  0  0  0  0  0  0  0  0
    0.9710    2.4854    5.9068 C   0  0  0  0  0  0  0  0  0  0  0  0
    3.1190    1.3905    2.9435 C   0  0  0  0  0  0  0  0  0  0  0  0
    2.8511    0.6578    1.8210 C   0  0  0  0  0  0  0  0  0  0  0  0
    1.5334    0.1111    1.9279 C   0  0  0  0  0  0  0  0  0  0  0  0
    0.6583   -0.1112    0.8606 C   0  0  0  0  0  0  0  0  0  0  0  0
    3.5413    1.3824    0.4883 S   0  0  0  0  0  0  0  0  0  0  0  0
    4.2566    2.6465    1.3423 C   0  0  0  0  0  0  0  0  0  0  0  0
    3.9170    2.5198    2.6964 C   0  0  0  0  0  0  0  0  0  0  0  0
    4.5010    3.9252    0.6802 C   0  0  0  0  0  0  0  0  0  0  0  0
    5.7457    4.5428    0.4280 C   0  0  0  0  0  0  0  0  0  0  0  0
    7.0262    3.9538    0.7543 N   0  0  0  0  0  0  0  0  0  0  0  0
    7.1888    3.1191    1.9151 C   0  0  0  0  0  0  0  0  0  0  0  0
    7.5694    1.7750    1.7634 C   0  0  0  0  0  0  0  0  0  0  0  0
    7.7220    0.9522    2.8803 C   0  0  0  0  0  0  0  0  0  0  0  0
    7.5035    1.4635    4.1673 C   0  0  0  0  0  0  0  0  0  0  0  0
    7.7086    0.5715    5.3561 C   0  0  0  0  0  0  0  0  0  0  0  0
    7.1170    2.8046    4.3223 C   0  0  0  0  0  0  0  0  0  0  0  0
    6.9624    3.6296    3.2017 C   0  0  0  0  0  0  0  0  0  0  0  0
    8.0728    3.9459   -0.2321 C   0  0  0  0  0  0  0  0  0  0  0  0
    9.3605    4.3890    0.1010 C   0  0  0  0  0  0  0  0  0  0  0  0
   10.3730    4.3944   -0.8643 C   0  0  0  0  0  0  0  0  0  0  0  0
   10.1054    3.9604   -2.1728 C   0  0  0  0  0  0  0  0  0  0  0  0
   11.1986    3.9410   -3.2011 C   0  0  0  0  0  0  0  0  0  0  0  0
    8.8299    3.4769   -2.4907 C   0  0  0  0  0  0  0  0  0  0  0  0
    7.8181    3.4691   -1.5281 C   0  0  0  0  0  0  0  0  0  0  0  0
    5.5853    5.5691   -0.5242 C   0  0  0  0  0  0  0  0  0  0  0  0
    6.6295    6.5889   -1.3605 S   0  0  0  0  0  0  0  0  0  0  0  0
    5.4815    7.0624   -2.5253 C   0  0  0  0  0  0  0  0  0  0  0  0
    4.2575    6.4133   -2.2567 C   0  0  0  0  0  0  0  0  0  0  0  0
    3.1533    6.2988   -3.1871 N   0  0  0  0  0  0  0  0  0  0  0  0
    2.5782    7.4962   -3.7608 C   0  0  0  0  0  0  0  0  0  0  0  0
    2.4484    8.6630   -2.9942 C   0  0  0  0  0  0  0  0  0  0  0  0
    1.9384    9.8304   -3.5576 C   0  0  0  0  0  0  0  0  0  0  0  0
    1.5427    9.8542   -4.9018 C   0  0  0  0  0  0  0  0  0  0  0  0
    0.9974   11.1184   -5.4940 C   0  0  0  0  0  0  0  0  0  0  0  0
    1.6584    8.6896   -5.6718 C   0  0  0  0  0  0  0  0  0  0  0  0
    2.1834    7.5238   -5.1123 C   0  0  0  0  0  0  0  0  0  0  0  0
    2.6520    4.9795   -3.5448 C   0  0  0  0  0  0  0  0  0  0  0  0
    3.5060    3.8544   -3.5540 C   0  0  0  0  0  0  0  0  0  0  0  0
    3.0173    2.5862   -3.8679 C   0  0  0  0  0  0  0  0  0  0  0  0
    1.6634    2.4062   -4.1707 C   0  0  0  0  0  0  0  0  0  0  0  0
    1.1559    1.0381   -4.5261 C   0  0  0  0  0  0  0  0  0  0  0  0
    0.8102    3.5174   -4.1875 C   0  0  0  0  0  0  0  0  0  0  0  0
    1.2951    4.7855   -3.8633 C   0  0  0  0  0  0  0  0  0  0  0  0
    4.3514    5.6535   -1.0885 C   0  0  0  0  0  0  0  0  0  0  0  0
    3.3136    4.5836   -0.3467 S   0  0  0  0  0  0  0  0  0  0  0  0
    5.7365    8.0958   -3.5475 C   0  0  0  0  0  0  0  0  0  0  0  0
    5.5337    7.9219   -4.8648 C   0  0  0  0  0  0  0  0  0  0  0  0
    5.3988    6.6309   -5.5384 C   0  0  0  0  0  0  0  0  0  0  0  0
    5.5637    5.5028   -5.0053 O   0  0  0  0  0  0  0  0  0  0  0  0
    5.2824    6.8643   -6.9650 C   0  0  0  0  0  0  0  0  0  0  0  0
    5.1962    5.9273   -7.9999 C   0  0  0  0  0  0  0  0  0  0  0  0
    4.9737    4.2141   -7.6489 Cl  0  0  0  0  0  0  0  0  0  0  0  0
    5.2997    6.3851   -9.3292 C   0  0  0  0  0  0  0  0  0  0  0  0
    5.1846    5.2370  -10.6639 Cl  0  0  0  0  0  0  0  0  0  0  0  0
    5.5744    7.7490   -9.5875 C   0  0  0  0  0  0  0  0  0  0  0  0
    5.8282    8.2918  -11.2465 Cl  0  0  0  0  0  0  0  0  0  0  0  0
    5.6802    8.6695   -8.5226 C   0  0  0  0  0  0  0  0  0  0  0  0
    6.3891   10.2587   -8.8232 Cl  0  0  0  0  0  0  0  0  0  0  0  0
    5.4112    8.2191   -7.2144 C   0  0  0  0  0  0  0  0  0  0  0  0
    5.4365    8.9679   -5.9261 C   0  0  0  0  0  0  0  0  0  0  0  0
    4.9668   10.2301   -5.7405 C   0  0  0  0  0  0  0  0  0  0  0  0
    4.9792   10.8891   -4.4593 C   0  0  0  0  0  0  0  0  0  0  0  0
    5.0018   11.4327   -3.4346 N   0  0  0  0  0  0  0  0  0  0  0  0
    4.2671   10.9352   -6.7798 C   0  0  0  0  0  0  0  0  0  0  0  0
    3.6948   11.5008   -7.6123 N   0  0  0  0  0  0  0  0  0  0  0  0
   -7.6658   -8.5152    0.2671 H   0  0  0  0  0  0  0  0  0  0  0  0
   -7.6238  -10.4774   -4.9559 H   0  0  0  0  0  0  0  0  0  0  0  0
   -6.8579   -9.5284   -7.0805 H   0  0  0  0  0  0  0  0  0  0  0  0
   -3.8374   -6.2569    0.4520 H   0  0  0  0  0  0  0  0  0  0  0  0
   -1.8952   -7.4498   -0.4396 H   0  0  0  0  0  0  0  0  0  0  0  0
   -1.1489  -11.0132    0.2356 H   0  0  0  0  0  0  0  0  0  0  0  0
   -0.1077   -9.7083    0.9342 H   0  0  0  0  0  0  0  0  0  0  0  0
   -0.7211   -9.5809   -0.7628 H   0  0  0  0  0  0  0  0  0  0  0  0
   -2.7390  -10.7790    2.1592 H   0  0  0  0  0  0  0  0  0  0  0  0
   -4.7129   -9.6120    3.0229 H   0  0  0  0  0  0  0  0  0  0  0  0
   -4.0019   -7.2521    4.5215 H   0  0  0  0  0  0  0  0  0  0  0  0
   -4.7313   -7.4677    6.8577 H   0  0  0  0  0  0  0  0  0  0  0  0
   -8.2134   -8.2327    7.8876 H   0  0  0  0  0  0  0  0  0  0  0  0
   -6.5075   -8.0885    8.4414 H   0  0  0  0  0  0  0  0  0  0  0  0
   -7.5024   -6.5987    8.1953 H   0  0  0  0  0  0  0  0  0  0  0  0
   -8.8444   -7.4945    5.5751 H   0  0  0  0  0  0  0  0  0  0  0  0
   -8.1138   -7.3106    3.2350 H   0  0  0  0  0  0  0  0  0  0  0  0
   -6.9248    0.9238   -0.4784 H   0  0  0  0  0  0  0  0  0  0  0  0
   -8.4288    2.6241    0.4792 H   0  0  0  0  0  0  0  0  0  0  0  0
  -11.4049    2.4176    1.4477 H   0  0  0  0  0  0  0  0  0  0  0  0
  -10.9671    1.8788    3.1151 H   0  0  0  0  0  0  0  0  0  0  0  0
  -10.0155    3.1799    2.3195 H   0  0  0  0  0  0  0  0  0  0  0  0
  -10.6778   -0.4798    2.4504 H   0  0  0  0  0  0  0  0  0  0  0  0
   -9.1883   -2.1695    1.4860 H   0  0  0  0  0  0  0  0  0  0  0  0
   -4.8735   -2.8881   -1.2334 H   0  0  0  0  0  0  0  0  0  0  0  0
   -4.3301   -2.9757   -3.6125 H   0  0  0  0  0  0  0  0  0  0  0  0
   -5.0054   -2.7799   -5.9164 H   0  0  0  0  0  0  0  0  0  0  0  0
   -5.5369   -1.0583   -6.0522 H   0  0  0  0  0  0  0  0  0  0  0  0
   -6.7245   -2.4033   -6.2937 H   0  0  0  0  0  0  0  0  0  0  0  0
   -8.0715   -1.0593   -4.5450 H   0  0  0  0  0  0  0  0  0  0  0  0
   -8.5994   -0.9096   -2.1556 H   0  0  0  0  0  0  0  0  0  0  0  0
   -4.6509   -0.7837   -0.0913 H   0  0  0  0  0  0  0  0  0  0  0  0
   -0.8020   -0.3311   -2.4180 H   0  0  0  0  0  0  0  0  0  0  0  0
   -0.6459   -2.3269   -3.8057 H   0  0  0  0  0  0  0  0  0  0  0  0
   -1.4441   -4.6105   -4.2698 H   0  0  0  0  0  0  0  0  0  0  0  0
   -2.2843   -5.5555   -2.9989 H   0  0  0  0  0  0  0  0  0  0  0  0
   -0.0540   -6.5249   -3.5332 H   0  0  0  0  0  0  0  0  0  0  0  0
   -0.1122   -5.9499   -1.8230 H   0  0  0  0  0  0  0  0  0  0  0  0
    0.7520   -4.9712   -3.0862 H   0  0  0  0  0  0  0  0  0  0  0  0
   -2.3621   -4.6810   -0.6374 H   0  0  0  0  0  0  0  0  0  0  0  0
   -2.4997   -2.6991    0.7713 H   0  0  0  0  0  0  0  0  0  0  0  0
   -3.6163    0.5850   -1.8243 H   0  0  0  0  0  0  0  0  0  0  0  0
   -3.8172    2.6505   -3.1163 H   0  0  0  0  0  0  0  0  0  0  0  0
   -2.3777    4.6655   -4.0018 H   0  0  0  0  0  0  0  0  0  0  0  0
   -1.4411    5.5776   -2.7709 H   0  0  0  0  0  0  0  0  0  0  0  0
   -4.4610    5.0292   -2.4729 H   0  0  0  0  0  0  0  0  0  0  0  0
   -3.7760    6.4802   -3.2858 H   0  0  0  0  0  0  0  0  0  0  0  0
   -3.4273    6.1842   -1.5393 H   0  0  0  0  0  0  0  0  0  0  0  0
   -0.5089    4.3463   -0.9424 H   0  0  0  0  0  0  0  0  0  0  0  0
   -0.2943    2.3034    0.3504 H   0  0  0  0  0  0  0  0  0  0  0  0
   -0.6895    0.3912    4.5195 H   0  0  0  0  0  0  0  0  0  0  0  0
    1.6760   -1.5459    4.8174 H   0  0  0  0  0  0  0  0  0  0  0  0
    2.9081   -2.8285    6.4811 H   0  0  0  0  0  0  0  0  0  0  0  0
    4.9955   -3.0781    7.7729 H   0  0  0  0  0  0  0  0  0  0  0  0
    6.0414   -1.6645    8.0922 H   0  0  0  0  0  0  0  0  0  0  0  0
    4.9242   -2.4862   10.1712 H   0  0  0  0  0  0  0  0  0  0  0  0
    4.4102   -0.8014    9.7798 H   0  0  0  0  0  0  0  0  0  0  0  0
    3.3057   -2.1963    9.4280 H   0  0  0  0  0  0  0  0  0  0  0  0
    5.2999    0.6289    7.4120 H   0  0  0  0  0  0  0  0  0  0  0  0
    4.0937    1.9271    5.7194 H   0  0  0  0  0  0  0  0  0  0  0  0
    1.3834    3.4516    2.6614 H   0  0  0  0  0  0  0  0  0  0  0  0
    0.2634    5.4476    3.5096 H   0  0  0  0  0  0  0  0  0  0  0  0
   -1.1194    6.4958    5.2077 H   0  0  0  0  0  0  0  0  0  0  0  0
   -1.4897    5.6118    6.7224 H   0  0  0  0  0  0  0  0  0  0  0  0
   -0.2359    7.7025    7.1970 H   0  0  0  0  0  0  0  0  0  0  0  0
    1.1201    7.1590    6.1395 H   0  0  0  0  0  0  0  0  0  0  0  0
    0.7461    6.2644    7.6671 H   0  0  0  0  0  0  0  0  0  0  0  0
   -0.0398    3.6404    7.4018 H   0  0  0  0  0  0  0  0  0  0  0  0
    1.1130    1.6590    6.5875 H   0  0  0  0  0  0  0  0  0  0  0  0
    1.0059   -0.1155   -0.1622 H   0  0  0  0  0  0  0  0  0  0  0  0
    4.0484    3.3181    3.4189 H   0  0  0  0  0  0  0  0  0  0  0  0
    7.7310    1.3633    0.7757 H   0  0  0  0  0  0  0  0  0  0  0  0
    8.0128   -0.0811    2.7435 H   0  0  0  0  0  0  0  0  0  0  0  0
    7.0503   -0.3167    5.2718 H   0  0  0  0  0  0  0  0  0  0  0  0
    8.7653    0.2317    5.3902 H   0  0  0  0  0  0  0  0  0  0  0  0
    7.4798    1.0988    6.3031 H   0  0  0  0  0  0  0  0  0  0  0  0
    6.9392    3.2132    5.3067 H   0  0  0  0  0  0  0  0  0  0  0  0
    6.6645    4.6597    3.3337 H   0  0  0  0  0  0  0  0  0  0  0  0
    9.5738    4.7435    1.1031 H   0  0  0  0  0  0  0  0  0  0  0  0
   11.3589    4.7464   -0.5965 H   0  0  0  0  0  0  0  0  0  0  0  0
   11.9155    4.7713   -3.0277 H   0  0  0  0  0  0  0  0  0  0  0  0
   11.7408    2.9756   -3.1420 H   0  0  0  0  0  0  0  0  0  0  0  0
   10.7808    4.0596   -4.2223 H   0  0  0  0  0  0  0  0  0  0  0  0
    8.6130    3.1109   -3.4859 H   0  0  0  0  0  0  0  0  0  0  0  0
    6.8347    3.0973   -1.7843 H   0  0  0  0  0  0  0  0  0  0  0  0
    2.7501    8.6689   -1.9551 H   0  0  0  0  0  0  0  0  0  0  0  0
    1.8611   10.7232   -2.9530 H   0  0  0  0  0  0  0  0  0  0  0  0
    0.8538   11.0200   -6.5936 H   0  0  0  0  0  0  0  0  0  0  0  0
    1.7050   11.9541   -5.3103 H   0  0  0  0  0  0  0  0  0  0  0  0
    0.0198   11.3616   -5.0301 H   0  0  0  0  0  0  0  0  0  0  0  0
    1.3668    8.6884   -6.7170 H   0  0  0  0  0  0  0  0  0  0  0  0
    2.3024    6.6479   -5.7370 H   0  0  0  0  0  0  0  0  0  0  0  0
    4.5534    3.9505   -3.3050 H   0  0  0  0  0  0  0  0  0  0  0  0
    3.6949    1.7414   -3.8689 H   0  0  0  0  0  0  0  0  0  0  0  0
    1.5197    0.2971   -3.7849 H   0  0  0  0  0  0  0  0  0  0  0  0
    0.0455    1.0084   -4.5298 H   0  0  0  0  0  0  0  0  0  0  0  0
    1.5246    0.7563   -5.5341 H   0  0  0  0  0  0  0  0  0  0  0  0
   -0.2343    3.3984   -4.4470 H   0  0  0  0  0  0  0  0  0  0  0  0
    0.6109    5.6236   -3.8635 H   0  0  0  0  0  0  0  0  0  0  0  0
    6.0883    9.0415   -3.1720 H   0  0  0  0  0  0  0  0  0  0  0  0
  1  2  2  3
  2  3  1  0
  3  4  2  0
  3  5  1  0
  5  6  2  0
  6  7  1  0
  7  8  2  0
  8  9  1  0
  9 10  1  0
  9 11  2  0
 11 12  1  0
  6 13  1  0
 13 14  2  3
 14 15  1  0
 15 16  3  0
 14 17  1  0
 17 18  3  0
  1 19  1  0
 19 20  2  0
 20 21  1  0
 21 22  1  0
 22 23  2  0
 23 24  1  0
 24 25  2  0
 25 26  1  0
 25 27  1  0
 27 28  2  0
 21 29  1  0
 29 30  2  0
 30 31  1  0
 31 32  2  0
 32 33  1  0
 32 34  1  0
 34 35  2  0
 20 36  1  0
 36 37  1  0
 37 38  1  0
 38 39  2  0
 39 40  1  0
 40 41  1  0
 41 42  2  0
 42 43  1  0
 43 44  2  0
 44 45  1  0
 44 46  1  0
 46 47  2  0
 40 48  1  0
 48 49  2  0
 49 50  1  0
 50 51  2  0
 51 52  1  0
 51 53  1  0
 53 54  2  0
 39 55  1  0
 55 56  1  0
 38 57  1  0
 57 58  2  0
 58 59  1  0
 59 60  1  0
 60 61  1  0
 61 62  2  0
 62 63  1  0
 63 64  2  0
 64 65  1  0
 65 66  1  0
 64 67  1  0
 67 68  2  0
 60 69  1  0
 69 70  2  0
 70 71  1  0
 71 72  2  0
 72 73  1  0
 73 74  1  0
 72 75  1  0
 75 76  2  0
 60 77  1  0
 77 78  2  0
 78 79  1  0
 79 80  1  0
 78 81  1  0
 81 82  2  0
 82 83  1  0
 83 84  1  0
 84 85  2  0
 85 86  1  0
 86 87  2  0
 87 88  1  0
 88 89  1  0
 87 90  1  0
 90 91  2  0
 83 92  1  0
 92 93  2  0
 93 94  1  0
 94 95  2  0
 95 96  1  0
 96 97  1  0
 95 98  1  0
 98 99  2  0
 83100  1  0
100101  2  0
101102  1  0
102103  2  0
101104  1  0
104105  1  0
105106  2  0
105107  1  0
107108  2  0
108109  1  0
109110  1  0
110111  2  0
111112  1  0
112113  2  0
113114  1  0
113115  1  0
115116  2  0
109117  1  0
117118  2  0
118119  1  0
119120  2  0
120121  1  0
120122  1  0
122123  2  0
108124  1  0
124125  1  0
125126  1  0
126127  2  0
127128  1  0
128129  1  0
129130  2  0
130131  1  0
131132  2  0
132133  1  0
132134  1  0
134135  2  0
128136  1  0
136137  2  0
137138  1  0
138139  2  0
139140  1  0
139141  1  0
141142  2  0
127143  1  0
143144  1  0
126145  1  0
145146  2  3
146147  1  0
147148  2  0
147149  1  0
149150  2  0
150151  1  0
150152  1  0
152153  1  0
152154  2  0
154155  1  0
154156  1  0
156157  1  0
156158  2  0
158159  1  0
159160  2  3
160161  1  0
161162  3  0
160163  1  0
163164  3  0
 13  2  1  0
 56 19  1  0
 80 57  1  0
102 82  1  0
144107  1  0
159146  1  0
 11  5  1  0
 28 22  1  0
 35 29  1  0
 55 36  2  0
 79 59  2  0
 91 84  1  0
 99 92  1  0
106100  1  0
116110  1  0
123117  1  0
143124  2  0
158149  1  0
 47 41  1  0
 54 48  1  0
 68 61  1  0
 76 69  1  0
103 77  1  0
135129  1  0
142136  1  0
  1165  1  0
  7166  1  0
  8167  1  0
 23168  1  0
 24169  1  0
 26170  1  0
 26171  1  0
 26172  1  0
 27173  1  0
 28174  1  0
 30175  1  0
 31176  1  0
 33177  1  0
 33178  1  0
 33179  1  0
 34180  1  0
 35181  1  0
 42182  1  0
 43183  1  0
 45184  1  0
 45185  1  0
 45186  1  0
 46187  1  0
 47188  1  0
 49189  1  0
 50190  1  0
 52191  1  0
 52192  1  0
 52193  1  0
 53194  1  0
 54195  1  0
 58196  1  0
 62197  1  0
 63198  1  0
 65199  1  0
 65200  1  0
 66201  1  0
 66202  1  0
 66203  1  0
 67204  1  0
 68205  1  0
 70206  1  0
 71207  1  0
 73208  1  0
 73209  1  0
 74210  1  0
 74211  1  0
 74212  1  0
 75213  1  0
 76214  1  0
 81215  1  0
 85216  1  0
 86217  1  0
 88218  1  0
 88219  1  0
 89220  1  0
 89221  1  0
 89222  1  0
 90223  1  0
 91224  1  0
 93225  1  0
 94226  1  0
 96227  1  0
 96228  1  0
 97229  1  0
 97230  1  0
 97231  1  0
 98232  1  0
 99233  1  0
103234  1  0
106235  1  0
111236  1  0
112237  1  0
114238  1  0
114239  1  0
114240  1  0
115241  1  0
116242  1  0
118243  1  0
119244  1  0
121245  1  0
121246  1  0
121247  1  0
122248  1  0
123249  1  0
130250  1  0
131251  1  0
133252  1  0
133253  1  0
133254  1  0
134255  1  0
135256  1  0
137257  1  0
138258  1  0
140259  1  0
140260  1  0
140261  1  0
141262  1  0
142263  1  0
145264  1  0
M  END

