
     RDKit          3D

216238  0  0  0  0  0  0  0  0999 V2000
    1.8076   -1.8185    4.9315 C   0  0  0  0  0  0  0  0  0  0  0  0
    2.8945   -1.4032    4.2525 C   0  0  0  0  0  0  0  0  0  0  0  0
    3.0589   -1.4800    2.7980 C   0  0  0  0  0  0  0  0  0  0  0  0
    2.1448   -1.7068    1.9592 O   0  0  0  0  0  0  0  0  0  0  0  0
    4.4564   -1.2617    2.4753 C   0  0  0  0  0  0  0  0  0  0  0  0
    5.1504   -0.9955    3.6471 C   0  0  0  0  0  0  0  0  0  0  0  0
    6.5528   -0.9100    3.6187 C   0  0  0  0  0  0  0  0  0  0  0  0
    7.2209   -1.0160    2.3915 C   0  0  0  0  0  0  0  0  0  0  0  0
    6.5065   -1.2371    1.2022 C   0  0  0  0  0  0  0  0  0  0  0  0
    7.4847   -1.3916   -0.4403 Br  0  0  0  0  0  0  0  0  0  0  0  0
    5.1042   -1.3776    1.2366 C   0  0  0  0  0  0  0  0  0  0  0  0
    4.1975   -1.7094   -0.2337 Cl  0  0  0  0  0  0  0  0  0  0  0  0
    4.2095   -0.9533    4.8030 C   0  0  0  0  0  0  0  0  0  0  0  0
    4.4641   -0.4333    6.0342 C   0  0  0  0  0  0  0  0  0  0  0  0
    5.7398    0.1339    6.3811 C   0  0  0  0  0  0  0  0  0  0  0  0
    6.7588    0.6010    6.6734 N   0  0  0  0  0  0  0  0  0  0  0  0
    3.4610   -0.3101    7.0566 C   0  0  0  0  0  0  0  0  0  0  0  0
    2.6659   -0.2027    7.8935 N   0  0  0  0  0  0  0  0  0  0  0  0
    0.6690   -2.4735    4.2757 C   0  0  0  0  0  0  0  0  0  0  0  0
   -0.5447   -1.8665    3.8915 C   0  0  0  0  0  0  0  0  0  0  0  0
   -0.8377   -0.4556    4.0203 N   0  0  0  0  0  0  0  0  0  0  0  0
   -1.5620    0.2310    2.9824 C   0  0  0  0  0  0  0  0  0  0  0  0
   -2.7522    0.9087    3.2918 C   0  0  0  0  0  0  0  0  0  0  0  0
   -3.5196    1.4840    2.2747 C   0  0  0  0  0  0  0  0  0  0  0  0
   -3.1001    1.3961    0.9374 C   0  0  0  0  0  0  0  0  0  0  0  0
   -3.9365    1.9777   -0.1646 C   0  0  0  0  0  0  0  0  0  0  0  0
   -1.8895    0.7562    0.6345 C   0  0  0  0  0  0  0  0  0  0  0  0
   -1.1219    0.1826    1.6522 C   0  0  0  0  0  0  0  0  0  0  0  0
   -0.4616    0.2778    5.1990 C   0  0  0  0  0  0  0  0  0  0  0  0
   -0.7946   -0.2036    6.4738 C   0  0  0  0  0  0  0  0  0  0  0  0
   -0.5180    0.5597    7.6103 C   0  0  0  0  0  0  0  0  0  0  0  0
    0.1239    1.8022    7.4928 C   0  0  0  0  0  0  0  0  0  0  0  0
    0.3756    2.6501    8.7040 C   0  0  0  0  0  0  0  0  0  0  0  0
    0.4657    2.2809    6.2188 C   0  0  0  0  0  0  0  0  0  0  0  0
    0.1775    1.5238    5.0818 C   0  0  0  0  0  0  0  0  0  0  0  0
   -1.3280   -2.7752    3.1676 C   0  0  0  0  0  0  0  0  0  0  0  0
   -2.7298   -2.6505    2.2566 S   0  0  0  0  0  0  0  0  0  0  0  0
   -2.5667   -4.1717    1.5088 C   0  0  0  0  0  0  0  0  0  0  0  0
   -1.3931   -4.7797    1.9820 C   0  0  0  0  0  0  0  0  0  0  0  0
   -0.7771   -5.9298    1.3850 N   0  0  0  0  0  0  0  0  0  0  0  0
    0.2158   -5.7837    0.3332 C   0  0  0  0  0  0  0  0  0  0  0  0
    0.7452   -4.5173   -0.0012 C   0  0  0  0  0  0  0  0  0  0  0  0
    1.6623   -4.3777   -1.0423 C   0  0  0  0  0  0  0  0  0  0  0  0
    2.0954   -5.4978   -1.7606 C   0  0  0  0  0  0  0  0  0  0  0  0
    3.0594   -5.3362   -2.8989 C   0  0  0  0  0  0  0  0  0  0  0  0
    1.5572   -6.7547   -1.4599 C   0  0  0  0  0  0  0  0  0  0  0  0
    0.6268   -6.8963   -0.4252 C   0  0  0  0  0  0  0  0  0  0  0  0
   -1.0453   -7.2073    1.9907 C   0  0  0  0  0  0  0  0  0  0  0  0
   -0.0193   -7.9037    2.6443 C   0  0  0  0  0  0  0  0  0  0  0  0
   -0.2914   -9.1146    3.2886 C   0  0  0  0  0  0  0  0  0  0  0  0
   -1.5944   -9.6353    3.2999 C   0  0  0  0  0  0  0  0  0  0  0  0
   -1.8762  -10.9404    3.9846 C   0  0  0  0  0  0  0  0  0  0  0  0
   -2.6159   -8.9454    2.6247 C   0  0  0  0  0  0  0  0  0  0  0  0
   -2.3437   -7.7354    1.9818 C   0  0  0  0  0  0  0  0  0  0  0  0
   -0.7575   -3.9875    2.9358 C   0  0  0  0  0  0  0  0  0  0  0  0
    0.7527   -4.0608    3.6583 S   0  0  0  0  0  0  0  0  0  0  0  0
   -3.2999   -4.5226    0.2849 C   0  0  0  0  0  0  0  0  0  0  0  0
   -4.6694   -4.2519    0.0689 C   0  0  0  0  0  0  0  0  0  0  0  0
   -5.6584   -4.0925    1.1687 C   0  0  0  0  0  0  0  0  0  0  0  0
   -5.5666   -4.9305    2.2957 C   0  0  0  0  0  0  0  0  0  0  0  0
   -6.5164   -4.8584    3.3150 C   0  0  0  0  0  0  0  0  0  0  0  0
   -7.5789   -3.9605    3.2208 C   0  0  0  0  0  0  0  0  0  0  0  0
   -7.6848   -3.1062    2.1136 C   0  0  0  0  0  0  0  0  0  0  0  0
   -8.8769   -2.1998    1.9766 C   0  0  0  0  0  0  0  0  0  0  0  0
  -10.0163   -2.9264    1.2690 C   0  0  0  0  0  0  0  0  0  0  0  0
   -6.7148   -3.1664    1.0974 C   0  0  0  0  0  0  0  0  0  0  0  0
   -4.9458   -4.1749   -1.3105 C   0  0  0  0  0  0  0  0  0  0  0  0
   -6.1276   -3.3120   -2.1819 S   0  0  0  0  0  0  0  0  0  0  0  0
   -5.2069   -3.3250   -3.6047 C   0  0  0  0  0  0  0  0  0  0  0  0
   -4.9816   -2.3677   -4.5596 C   0  0  0  0  0  0  0  0  0  0  0  0
   -5.8009   -1.3144   -4.9697 C   0  0  0  0  0  0  0  0  0  0  0  0
   -5.2690   -0.3396   -5.8555 C   0  0  0  0  0  0  0  0  0  0  0  0
   -6.0881    0.6844   -6.2032 N   0  0  0  0  0  0  0  0  0  0  0  0
   -7.4496    0.2564   -5.3641 S   0  0  0  0  0  0  0  0  0  0  0  0
   -7.0859   -1.1469   -4.5623 N   0  0  0  0  0  0  0  0  0  0  0  0
   -3.9304   -0.4414   -6.2486 C   0  0  0  0  0  0  0  0  0  0  0  0
   -3.1378    0.5167   -6.8136 C   0  0  0  0  0  0  0  0  0  0  0  0
   -3.2852    2.1971   -7.0175 S   0  0  0  0  0  0  0  0  0  0  0  0
   -1.5992    2.4045   -6.9425 C   0  0  0  0  0  0  0  0  0  0  0  0
   -0.7821    3.5378   -6.7985 C   0  0  0  0  0  0  0  0  0  0  0  0
   -1.2671    4.9315   -6.8286 C   0  0  0  0  0  0  0  0  0  0  0  0
   -2.3459    5.3316   -6.0277 C   0  0  0  0  0  0  0  0  0  0  0  0
   -2.8187    6.6446   -6.0883 C   0  0  0  0  0  0  0  0  0  0  0  0
   -2.2210    7.5679   -6.9532 C   0  0  0  0  0  0  0  0  0  0  0  0
   -1.1381    7.1843   -7.7571 C   0  0  0  0  0  0  0  0  0  0  0  0
   -0.4896    8.1703   -8.6932 C   0  0  0  0  0  0  0  0  0  0  0  0
   -0.7714    7.8216  -10.1529 C   0  0  0  0  0  0  0  0  0  0  0  0
   -0.6448    5.8694   -7.6688 C   0  0  0  0  0  0  0  0  0  0  0  0
    0.5447    3.1640   -6.5151 C   0  0  0  0  0  0  0  0  0  0  0  0
    0.6434    1.4734   -6.3813 S   0  0  0  0  0  0  0  0  0  0  0  0
   -0.9681    1.2015   -6.7390 C   0  0  0  0  0  0  0  0  0  0  0  0
   -1.8494    0.1256   -6.6330 C   0  0  0  0  0  0  0  0  0  0  0  0
   -1.7544   -1.0700   -5.9935 N   0  0  0  0  0  0  0  0  0  0  0  0
   -3.0648   -1.4515   -5.7729 C   0  0  0  0  0  0  0  0  0  0  0  0
   -3.6307   -2.4844   -4.9470 C   0  0  0  0  0  0  0  0  0  0  0  0
   -3.0590   -3.5413   -4.2740 N   0  0  0  0  0  0  0  0  0  0  0  0
   -4.0223   -3.9683   -3.4258 C   0  0  0  0  0  0  0  0  0  0  0  0
   -3.8710   -4.4405   -2.1297 C   0  0  0  0  0  0  0  0  0  0  0  0
   -2.5037   -4.6801   -1.2018 S   0  0  0  0  0  0  0  0  0  0  0  0
   -1.9076   -4.3949   -4.6048 C   0  0  0  0  0  0  0  0  0  0  0  0
   -1.8827   -4.7613   -6.0928 C   0  0  0  0  0  0  0  0  0  0  0  0
   -0.5107   -1.5622   -5.3909 C   0  0  0  0  0  0  0  0  0  0  0  0
   -0.4587   -1.2531   -3.8935 C   0  0  0  0  0  0  0  0  0  0  0  0
    1.5493    4.0054   -5.8635 C   0  0  0  0  0  0  0  0  0  0  0  0
    1.3374    4.3649   -4.5207 C   0  0  0  0  0  0  0  0  0  0  0  0
    2.4332    4.7454   -3.7355 C   0  0  0  0  0  0  0  0  0  0  0  0
    2.4927    4.8977   -2.2209 C   0  0  0  0  0  0  0  0  0  0  0  0
    2.1695    3.5552   -1.4865 C   0  0  0  0  0  0  0  0  0  0  0  0
    0.7300    3.0469   -1.6039 C   0  0  0  0  0  0  0  0  0  0  0  0
    1.6145    6.1111   -1.8018 C   0  0  0  0  0  0  0  0  0  0  0  0
    1.5413    6.3818   -0.2970 C   0  0  0  0  0  0  0  0  0  0  0  0
    3.9784    5.2032   -2.0612 C   0  0  0  0  0  0  0  0  0  0  0  0
    4.6266    5.2468   -3.2843 C   0  0  0  0  0  0  0  0  0  0  0  0
    3.6684    4.9396   -4.3233 C   0  0  0  0  0  0  0  0  0  0  0  0
    3.8923    4.6665   -5.6745 C   0  0  0  0  0  0  0  0  0  0  0  0
    2.8268    4.1603   -6.4401 C   0  0  0  0  0  0  0  0  0  0  0  0
    6.0123    5.3821   -3.3809 C   0  0  0  0  0  0  0  0  0  0  0  0
    6.7633    5.4242   -2.1985 C   0  0  0  0  0  0  0  0  0  0  0  0
    6.1350    5.3068   -0.9383 C   0  0  0  0  0  0  0  0  0  0  0  0
    4.7270    5.2008   -0.8761 C   0  0  0  0  0  0  0  0  0  0  0  0
    6.9820    5.0876    0.2580 C   0  0  0  0  0  0  0  0  0  0  0  0
    6.6375    5.3292    1.5363 C   0  0  0  0  0  0  0  0  0  0  0  0
    7.1641    4.5233    2.6413 C   0  0  0  0  0  0  0  0  0  0  0  0
    8.1819    3.7790    2.5980 O   0  0  0  0  0  0  0  0  0  0  0  0
    6.2360    4.6203    3.7536 C   0  0  0  0  0  0  0  0  0  0  0  0
    6.1721    3.8248    4.8965 C   0  0  0  0  0  0  0  0  0  0  0  0
    5.0478    3.9273    5.7266 C   0  0  0  0  0  0  0  0  0  0  0  0
    4.9533    3.1546    6.8337 F   0  0  0  0  0  0  0  0  0  0  0  0
    4.0020    4.8068    5.3867 C   0  0  0  0  0  0  0  0  0  0  0  0
    4.0803    5.5878    4.2218 C   0  0  0  0  0  0  0  0  0  0  0  0
    5.2304    5.5136    3.4299 C   0  0  0  0  0  0  0  0  0  0  0  0
    5.4988    6.1137    2.0984 C   0  0  0  0  0  0  0  0  0  0  0  0
    5.0795    7.3372    1.6828 C   0  0  0  0  0  0  0  0  0  0  0  0
    4.1755    8.1377    2.4679 C   0  0  0  0  0  0  0  0  0  0  0  0
    3.4414    8.7875    3.0856 N   0  0  0  0  0  0  0  0  0  0  0  0
    5.5244    7.9341    0.4526 C   0  0  0  0  0  0  0  0  0  0  0  0
    5.8456    8.4186   -0.5473 N   0  0  0  0  0  0  0  0  0  0  0  0
    1.7834   -1.8146    6.0091 H   0  0  0  0  0  0  0  0  0  0  0  0
    7.1423   -0.8170    4.5135 H   0  0  0  0  0  0  0  0  0  0  0  0
    8.3035   -0.9593    2.3667 H   0  0  0  0  0  0  0  0  0  0  0  0
   -3.1069    0.9527    4.3162 H   0  0  0  0  0  0  0  0  0  0  0  0
   -4.4525    1.9771    2.5292 H   0  0  0  0  0  0  0  0  0  0  0  0
   -3.4086    2.8474   -0.6103 H   0  0  0  0  0  0  0  0  0  0  0  0
   -4.9273    2.3155    0.2083 H   0  0  0  0  0  0  0  0  0  0  0  0
   -4.1037    1.2095   -0.9486 H   0  0  0  0  0  0  0  0  0  0  0  0
   -1.5537    0.6814   -0.3909 H   0  0  0  0  0  0  0  0  0  0  0  0
   -0.2006   -0.3248    1.4023 H   0  0  0  0  0  0  0  0  0  0  0  0
   -1.3020   -1.1529    6.5855 H   0  0  0  0  0  0  0  0  0  0  0  0
   -0.8015    0.1870    8.5886 H   0  0  0  0  0  0  0  0  0  0  0  0
   -0.4983    3.3135    8.8787 H   0  0  0  0  0  0  0  0  0  0  0  0
    1.2833    3.2751    8.5609 H   0  0  0  0  0  0  0  0  0  0  0  0
    0.5304    2.0116    9.5994 H   0  0  0  0  0  0  0  0  0  0  0  0
    0.9462    3.2459    6.1028 H   0  0  0  0  0  0  0  0  0  0  0  0
    0.4363    1.9108    4.1042 H   0  0  0  0  0  0  0  0  0  0  0  0
    0.4399   -3.6238    0.5260 H   0  0  0  0  0  0  0  0  0  0  0  0
    2.0362   -3.3909   -1.2881 H   0  0  0  0  0  0  0  0  0  0  0  0
    3.6787   -6.2498   -3.0100 H   0  0  0  0  0  0  0  0  0  0  0  0
    3.7431   -4.4813   -2.7133 H   0  0  0  0  0  0  0  0  0  0  0  0
    2.4996   -5.1500   -3.8403 H   0  0  0  0  0  0  0  0  0  0  0  0
    1.8531   -7.6243   -2.0316 H   0  0  0  0  0  0  0  0  0  0  0  0
    0.2104   -7.8762   -0.2425 H   0  0  0  0  0  0  0  0  0  0  0  0
    0.9874   -7.5029    2.6641 H   0  0  0  0  0  0  0  0  0  0  0  0
    0.5118   -9.6442    3.7873 H   0  0  0  0  0  0  0  0  0  0  0  0
   -2.9682  -11.0858    4.1384 H   0  0  0  0  0  0  0  0  0  0  0  0
   -1.3831  -10.9650    4.9795 H   0  0  0  0  0  0  0  0  0  0  0  0
   -1.4888  -11.7772    3.3667 H   0  0  0  0  0  0  0  0  0  0  0  0
   -3.6244   -9.3359    2.6122 H   0  0  0  0  0  0  0  0  0  0  0  0
   -3.1399   -7.2132    1.4666 H   0  0  0  0  0  0  0  0  0  0  0  0
   -4.7770   -5.6642    2.3801 H   0  0  0  0  0  0  0  0  0  0  0  0
   -6.4398   -5.5131    4.1726 H   0  0  0  0  0  0  0  0  0  0  0  0
   -8.3268   -3.9353    4.0036 H   0  0  0  0  0  0  0  0  0  0  0  0
   -9.2225   -1.8669    2.9761 H   0  0  0  0  0  0  0  0  0  0  0  0
   -8.6051   -1.2911    1.3922 H   0  0  0  0  0  0  0  0  0  0  0  0
   -9.7087   -3.2174    0.2403 H   0  0  0  0  0  0  0  0  0  0  0  0
  -10.3016   -3.8432    1.8372 H   0  0  0  0  0  0  0  0  0  0  0  0
  -10.9031   -2.2590    1.2031 H   0  0  0  0  0  0  0  0  0  0  0  0
   -6.7906   -2.4847    0.2659 H   0  0  0  0  0  0  0  0  0  0  0  0
   -2.8141    4.6316   -5.3455 H   0  0  0  0  0  0  0  0  0  0  0  0
   -3.6385    6.9539   -5.4554 H   0  0  0  0  0  0  0  0  0  0  0  0
   -2.6074    8.5794   -6.9916 H   0  0  0  0  0  0  0  0  0  0  0  0
   -0.8591    9.2019   -8.4968 H   0  0  0  0  0  0  0  0  0  0  0  0
    0.6110    8.1710   -8.5219 H   0  0  0  0  0  0  0  0  0  0  0  0
   -1.8695    7.8262  -10.3501 H   0  0  0  0  0  0  0  0  0  0  0  0
   -0.2842    8.5734  -10.8106 H   0  0  0  0  0  0  0  0  0  0  0  0
   -0.3590    6.8171  -10.4001 H   0  0  0  0  0  0  0  0  0  0  0  0
    0.1892    5.5664   -8.2892 H   0  0  0  0  0  0  0  0  0  0  0  0
   -0.9647   -3.9716   -4.2163 H   0  0  0  0  0  0  0  0  0  0  0  0
   -1.9918   -5.3564   -4.0588 H   0  0  0  0  0  0  0  0  0  0  0  0
   -0.9790   -5.3685   -6.3086 H   0  0  0  0  0  0  0  0  0  0  0  0
   -2.7817   -5.3652   -6.3403 H   0  0  0  0  0  0  0  0  0  0  0  0
   -1.8725   -3.8641   -6.7424 H   0  0  0  0  0  0  0  0  0  0  0  0
   -0.3429   -2.6113   -5.6385 H   0  0  0  0  0  0  0  0  0  0  0  0
    0.3611   -1.0913   -5.8769 H   0  0  0  0  0  0  0  0  0  0  0  0
    0.4673   -1.6887   -3.4584 H   0  0  0  0  0  0  0  0  0  0  0  0
   -0.4538   -0.1527   -3.7341 H   0  0  0  0  0  0  0  0  0  0  0  0
   -1.3339   -1.6829   -3.3652 H   0  0  0  0  0  0  0  0  0  0  0  0
    0.3620    4.2483   -4.0758 H   0  0  0  0  0  0  0  0  0  0  0  0
    2.8434    2.7574   -1.8682 H   0  0  0  0  0  0  0  0  0  0  0  0
    2.3978    3.6623   -0.4068 H   0  0  0  0  0  0  0  0  0  0  0  0
   -0.0136    3.8513   -1.4257 H   0  0  0  0  0  0  0  0  0  0  0  0
    0.5552    2.5769   -2.5941 H   0  0  0  0  0  0  0  0  0  0  0  0
    0.5630    2.2561   -0.8413 H   0  0  0  0  0  0  0  0  0  0  0  0
    1.9990    7.0288   -2.3016 H   0  0  0  0  0  0  0  0  0  0  0  0
    0.5777    5.9651   -2.1759 H   0  0  0  0  0  0  0  0  0  0  0  0
    0.8726    7.2514   -0.1219 H   0  0  0  0  0  0  0  0  0  0  0  0
    1.1157    5.5140    0.2461 H   0  0  0  0  0  0  0  0  0  0  0  0
    2.5376    6.6327    0.1127 H   0  0  0  0  0  0  0  0  0  0  0  0
    4.8761    4.7640   -6.1127 H   0  0  0  0  0  0  0  0  0  0  0  0
    3.0063    3.8344   -7.4559 H   0  0  0  0  0  0  0  0  0  0  0  0
    6.5075    5.3874   -4.3390 H   0  0  0  0  0  0  0  0  0  0  0  0
    7.8418    5.4847   -2.2649 H   0  0  0  0  0  0  0  0  0  0  0  0
    4.2284    5.0269    0.0648 H   0  0  0  0  0  0  0  0  0  0  0  0
    7.8845    4.5060    0.0840 H   0  0  0  0  0  0  0  0  0  0  0  0
    6.9491    3.0997    5.1093 H   0  0  0  0  0  0  0  0  0  0  0  0
    3.1217    4.8616    6.0123 H   0  0  0  0  0  0  0  0  0  0  0  0
    3.2365    6.2026    3.9462 H   0  0  0  0  0  0  0  0  0  0  0  0
  1  2  2  3
  2  3  1  0
  3  4  2  0
  3  5  1  0
  5  6  2  0
  6  7  1  0
  7  8  2  0
  8  9  1  0
  9 10  1  0
  9 11  2  0
 11 12  1  0
  6 13  1  0
 13 14  2  3
 14 15  1  0
 15 16  3  0
 14 17  1  0
 17 18  3  0
  1 19  1  0
 19 20  2  0
 20 21  1  0
 21 22  1  0
 22 23  2  0
 23 24  1  0
 24 25  2  0
 25 26  1  0
 25 27  1  0
 27 28  2  0
 21 29  1  0
 29 30  2  0
 30 31  1  0
 31 32  2  0
 32 33  1  0
 32 34  1  0
 34 35  2  0
 20 36  1  0
 36 37  1  0
 37 38  1  0
 38 39  2  0
 39 40  1  0
 40 41  1  0
 41 42  2  0
 42 43  1  0
 43 44  2  0
 44 45  1  0
 44 46  1  0
 46 47  2  0
 40 48  1  0
 48 49  2  0
 49 50  1  0
 50 51  2  0
 51 52  1  0
 51 53  1  0
 53 54  2  0
 39 55  1  0
 55 56  1  0
 38 57  1  0
 57 58  2  0
 58 59  1  0
 59 60  2  0
 60 61  1  0
 61 62  2  0
 62 63  1  0
 63 64  1  0
 64 65  1  0
 63 66  2  0
 58 67  1  0
 67 68  1  0
 68 69  1  0
 69 70  1  0
 70 71  1  0
 71 72  1  0
 72 73  2  0
 73 74  1  0
 74 75  1  0
 72 76  1  0
 76 77  1  0
 77 78  1  0
 78 79  1  0
 79 80  1  0
 80 81  1  0
 81 82  2  0
 82 83  1  0
 83 84  2  0
 84 85  1  0
 85 86  1  0
 86 87  1  0
 85 88  2  0
 80 89  2  0
 89 90  1  0
 90 91  1  0
 91 92  1  0
 92 93  1  0
 93 94  1  0
 94 95  1  0
 95 96  1  0
 96 97  1  0
 97 98  1  0
 98 99  1  0
 96100  1  0
100101  1  0
 93102  1  0
102103  1  0
 89104  1  0
104105  2  0
105106  1  0
106107  1  0
107108  1  0
108109  1  0
107110  1  0
110111  1  0
107112  1  0
112113  2  0
113114  1  0
114115  1  0
115116  2  0
113117  1  0
117118  2  0
118119  1  0
119120  2  0
119121  1  0
121122  2  3
122123  1  0
123124  2  0
123125  1  0
125126  2  0
126127  1  0
127128  1  0
127129  2  0
129130  1  0
130131  2  0
131132  1  0
132133  2  3
133134  1  0
134135  3  0
133136  1  0
136137  3  0
 13  2  1  0
 56 19  1  0
 99 57  1  0
116104  1  0
132122  1  0
 11  5  1  0
 28 22  1  0
 35 29  1  0
 55 36  2  0
 66 59  1  0
 98 67  2  0
114106  2  0
131125  1  0
 47 41  1  0
 54 48  1  0
 97 69  2  0
120112  1  0
 95 70  2  0
 75 71  2  0
 94 76  2  0
 92 77  2  0
 91 79  2  0
 88 81  1  0
  1138  1  0
  7139  1  0
  8140  1  0
 23141  1  0
 24142  1  0
 26143  1  0
 26144  1  0
 26145  1  0
 27146  1  0
 28147  1  0
 30148  1  0
 31149  1  0
 33150  1  0
 33151  1  0
 33152  1  0
 34153  1  0
 35154  1  0
 42155  1  0
 43156  1  0
 45157  1  0
 45158  1  0
 45159  1  0
 46160  1  0
 47161  1  0
 49162  1  0
 50163  1  0
 52164  1  0
 52165  1  0
 52166  1  0
 53167  1  0
 54168  1  0
 60169  1  0
 61170  1  0
 62171  1  0
 64172  1  0
 64173  1  0
 65174  1  0
 65175  1  0
 65176  1  0
 66177  1  0
 82178  1  0
 83179  1  0
 84180  1  0
 86181  1  0
 86182  1  0
 87183  1  0
 87184  1  0
 87185  1  0
 88186  1  0
100187  1  0
100188  1  0
101189  1  0
101190  1  0
101191  1  0
102192  1  0
102193  1  0
103194  1  0
103195  1  0
103196  1  0
105197  1  0
108198  1  0
108199  1  0
109200  1  0
109201  1  0
109202  1  0
110203  1  0
110204  1  0
111205  1  0
111206  1  0
111207  1  0
115208  1  0
116209  1  0
117210  1  0
118211  1  0
120212  1  0
121213  1  0
126214  1  0
129215  1  0
130216  1  0
M  END

