
     RDKit          3D

225249  0  0  0  0  0  0  0  0999 V2000
   -1.0463    0.9263    5.8922 C   0  0  0  0  0  0  0  0  0  0  0  0
   -1.5192    1.5120    7.0058 C   0  0  0  0  0  0  0  0  0  0  0  0
   -2.2472    0.8274    8.0699 C   0  0  0  0  0  0  0  0  0  0  0  0
   -2.2407   -0.4150    8.2819 O   0  0  0  0  0  0  0  0  0  0  0  0
   -2.9204    1.8175    8.8852 C   0  0  0  0  0  0  0  0  0  0  0  0
   -2.5739    3.0847    8.4312 C   0  0  0  0  0  0  0  0  0  0  0  0
   -3.1642    4.2128    9.0209 C   0  0  0  0  0  0  0  0  0  0  0  0
   -4.0609    4.0403   10.0864 C   0  0  0  0  0  0  0  0  0  0  0  0
   -4.3905    2.7566   10.5482 C   0  0  0  0  0  0  0  0  0  0  0  0
   -5.6312    2.6014   11.9996 Br  0  0  0  0  0  0  0  0  0  0  0  0
   -3.8284    1.6207    9.9367 C   0  0  0  0  0  0  0  0  0  0  0  0
   -4.2459   -0.0023   10.4886 Cl  0  0  0  0  0  0  0  0  0  0  0  0
   -1.6026    2.9753    7.2998 C   0  0  0  0  0  0  0  0  0  0  0  0
   -0.8489    3.9733    6.7628 C   0  0  0  0  0  0  0  0  0  0  0  0
   -0.9654    5.3454    7.1746 C   0  0  0  0  0  0  0  0  0  0  0  0
   -1.0379    6.4554    7.4969 N   0  0  0  0  0  0  0  0  0  0  0  0
    0.2046    3.7300    5.8122 C   0  0  0  0  0  0  0  0  0  0  0  0
    1.0546    3.5533    5.0446 N   0  0  0  0  0  0  0  0  0  0  0  0
   -1.3317   -0.4688    5.5347 C   0  0  0  0  0  0  0  0  0  0  0  0
   -2.5799   -0.9553    5.1117 C   0  0  0  0  0  0  0  0  0  0  0  0
   -3.8064   -0.2006    5.1415 N   0  0  0  0  0  0  0  0  0  0  0  0
   -3.8398    1.1074    4.5323 C   0  0  0  0  0  0  0  0  0  0  0  0
   -4.4249    2.1959    5.2022 C   0  0  0  0  0  0  0  0  0  0  0  0
   -4.4708    3.4549    4.5978 C   0  0  0  0  0  0  0  0  0  0  0  0
   -3.9078    3.6529    3.3278 C   0  0  0  0  0  0  0  0  0  0  0  0
   -4.0113    4.9937    2.6636 C   0  0  0  0  0  0  0  0  0  0  0  0
   -3.3175    2.5703    2.6609 C   0  0  0  0  0  0  0  0  0  0  0  0
   -3.2784    1.3084    3.2609 C   0  0  0  0  0  0  0  0  0  0  0  0
   -4.9836   -0.7571    5.7725 C   0  0  0  0  0  0  0  0  0  0  0  0
   -6.2739   -0.3866    5.3476 C   0  0  0  0  0  0  0  0  0  0  0  0
   -7.4050   -0.8858    5.9922 C   0  0  0  0  0  0  0  0  0  0  0  0
   -7.2761   -1.7674    7.0741 C   0  0  0  0  0  0  0  0  0  0  0  0
   -8.4952   -2.3037    7.7670 C   0  0  0  0  0  0  0  0  0  0  0  0
   -5.9994   -2.1848    7.4692 C   0  0  0  0  0  0  0  0  0  0  0  0
   -4.8635   -1.6871    6.8255 C   0  0  0  0  0  0  0  0  0  0  0  0
   -2.4535   -2.1847    4.4665 C   0  0  0  0  0  0  0  0  0  0  0  0
   -3.4419   -3.0260    3.4110 S   0  0  0  0  0  0  0  0  0  0  0  0
   -2.2212   -4.0855    2.8529 C   0  0  0  0  0  0  0  0  0  0  0  0
   -1.0095   -3.7253    3.4842 C   0  0  0  0  0  0  0  0  0  0  0  0
    0.2737   -4.3347    3.2454 N   0  0  0  0  0  0  0  0  0  0  0  0
    0.7829   -5.3257    4.1809 C   0  0  0  0  0  0  0  0  0  0  0  0
   -0.0283   -5.8155    5.2311 C   0  0  0  0  0  0  0  0  0  0  0  0
    0.4420   -6.7991    6.1028 C   0  0  0  0  0  0  0  0  0  0  0  0
    1.7219   -7.3397    5.9338 C   0  0  0  0  0  0  0  0  0  0  0  0
    2.2273   -8.4037    6.8606 C   0  0  0  0  0  0  0  0  0  0  0  0
    2.5451   -6.8476    4.9117 C   0  0  0  0  0  0  0  0  0  0  0  0
    2.0794   -5.8621    4.0394 C   0  0  0  0  0  0  0  0  0  0  0  0
    1.1551   -3.6879    2.3066 C   0  0  0  0  0  0  0  0  0  0  0  0
    1.0813   -3.9862    0.9406 C   0  0  0  0  0  0  0  0  0  0  0  0
    1.9702   -3.3987    0.0346 C   0  0  0  0  0  0  0  0  0  0  0  0
    2.9493   -2.5006    0.4861 C   0  0  0  0  0  0  0  0  0  0  0  0
    3.8862   -1.8405   -0.4850 C   0  0  0  0  0  0  0  0  0  0  0  0
    3.0180   -2.1919    1.8518 C   0  0  0  0  0  0  0  0  0  0  0  0
    2.1414   -2.7984    2.7586 C   0  0  0  0  0  0  0  0  0  0  0  0
   -1.1884   -2.6652    4.3734 C   0  0  0  0  0  0  0  0  0  0  0  0
   -0.1240   -1.5727    5.0746 S   0  0  0  0  0  0  0  0  0  0  0  0
   -2.3332   -4.7695    1.5562 C   0  0  0  0  0  0  0  0  0  0  0  0
   -1.8474   -6.0428    1.1961 C   0  0  0  0  0  0  0  0  0  0  0  0
   -1.4682   -7.1154    2.1374 C   0  0  0  0  0  0  0  0  0  0  0  0
   -0.1380   -7.5659    2.1454 C   0  0  0  0  0  0  0  0  0  0  0  0
    0.2541   -8.6026    2.9916 C   0  0  0  0  0  0  0  0  0  0  0  0
   -0.6781   -9.2117    3.8298 C   0  0  0  0  0  0  0  0  0  0  0  0
   -2.0167   -8.8141    3.7932 C   0  0  0  0  0  0  0  0  0  0  0  0
   -2.4341   -7.7733    2.9453 C   0  0  0  0  0  0  0  0  0  0  0  0
   -3.9136   -7.4591    2.8704 C   0  0  0  0  0  0  0  0  0  0  0  0
   -4.4153   -6.7981    4.1540 C   0  0  0  0  0  0  0  0  0  0  0  0
   -1.8373   -6.2006   -0.1952 C   0  0  0  0  0  0  0  0  0  0  0  0
   -1.0671   -7.3099   -1.2312 S   0  0  0  0  0  0  0  0  0  0  0  0
   -1.4879   -6.3929   -2.6004 C   0  0  0  0  0  0  0  0  0  0  0  0
   -0.9688   -6.2001   -3.8532 C   0  0  0  0  0  0  0  0  0  0  0  0
    0.1668   -6.7644   -4.4569 C   0  0  0  0  0  0  0  0  0  0  0  0
    0.7705   -6.0806   -5.5609 C   0  0  0  0  0  0  0  0  0  0  0  0
    1.9136   -6.6145   -6.0655 N   0  0  0  0  0  0  0  0  0  0  0  0
    2.0856   -7.9119   -5.0495 S   0  0  0  0  0  0  0  0  0  0  0  0
    0.8091   -7.8675   -3.9936 N   0  0  0  0  0  0  0  0  0  0  0  0
    0.1474   -4.9359   -6.0712 C   0  0  0  0  0  0  0  0  0  0  0  0
    0.5225   -4.0147   -7.0251 C   0  0  0  0  0  0  0  0  0  0  0  0
    2.0390   -3.3763   -7.4400 S   0  0  0  0  0  0  0  0  0  0  0  0
    1.4066   -1.8062   -7.6352 C   0  0  0  0  0  0  0  0  0  0  0  0
    2.0350   -0.5592   -7.5358 C   0  0  0  0  0  0  0  0  0  0  0  0
    3.4878   -0.3758   -7.7194 C   0  0  0  0  0  0  0  0  0  0  0  0
    4.4308   -0.7243   -6.7150 C   0  0  0  0  0  0  0  0  0  0  0  0
    4.0122   -1.2305   -5.3486 C   0  0  0  0  0  0  0  0  0  0  0  0
    4.6911   -2.5507   -4.9943 C   0  0  0  0  0  0  0  0  0  0  0  0
    5.7886   -0.4306   -6.9380 C   0  0  0  0  0  0  0  0  0  0  0  0
    6.2055    0.1694   -8.1269 C   0  0  0  0  0  0  0  0  0  0  0  0
    5.2769    0.4962   -9.1124 C   0  0  0  0  0  0  0  0  0  0  0  0
    3.9240    0.2312   -8.9099 C   0  0  0  0  0  0  0  0  0  0  0  0
    1.1231    0.4542   -7.1501 C   0  0  0  0  0  0  0  0  0  0  0  0
   -0.4118   -0.2504   -6.9445 S   0  0  0  0  0  0  0  0  0  0  0  0
    0.0624   -1.7936   -7.3731 C   0  0  0  0  0  0  0  0  0  0  0  0
   -0.4380   -3.0354   -7.0164 C   0  0  0  0  0  0  0  0  0  0  0  0
   -1.4225   -3.2879   -6.1223 N   0  0  0  0  0  0  0  0  0  0  0  0
   -1.0146   -4.4208   -5.4959 C   0  0  0  0  0  0  0  0  0  0  0  0
   -1.4900   -4.9708   -4.2876 C   0  0  0  0  0  0  0  0  0  0  0  0
   -2.1444   -4.3273   -3.2687 N   0  0  0  0  0  0  0  0  0  0  0  0
   -2.1593   -5.2539   -2.2749 C   0  0  0  0  0  0  0  0  0  0  0  0
   -2.3381   -5.1388   -0.9035 C   0  0  0  0  0  0  0  0  0  0  0  0
   -2.7674   -3.9119    0.1500 S   0  0  0  0  0  0  0  0  0  0  0  0
   -2.1564   -2.8747   -3.0252 C   0  0  0  0  0  0  0  0  0  0  0  0
   -0.7764   -2.3919   -2.5758 C   0  0  0  0  0  0  0  0  0  0  0  0
   -2.8214   -2.8807   -6.3303 C   0  0  0  0  0  0  0  0  0  0  0  0
   -3.3438   -3.3721   -7.6796 C   0  0  0  0  0  0  0  0  0  0  0  0
    1.4329    1.8006   -6.6187 C   0  0  0  0  0  0  0  0  0  0  0  0
    2.6473    2.1926   -6.0542 C   0  0  0  0  0  0  0  0  0  0  0  0
    2.5712    3.3768   -5.3067 C   0  0  0  0  0  0  0  0  0  0  0  0
    3.6016    3.8943   -4.4997 C   0  0  0  0  0  0  0  0  0  0  0  0
    4.9045    3.2184   -4.3937 C   0  0  0  0  0  0  0  0  0  0  0  0
    5.8306    3.0406   -5.4178 C   0  0  0  0  0  0  0  0  0  0  0  0
    6.9155    2.2382   -5.0451 C   0  0  0  0  0  0  0  0  0  0  0  0
    6.8408    1.7804   -3.7312 C   0  0  0  0  0  0  0  0  0  0  0  0
    7.7980    0.8286   -3.0833 C   0  0  0  0  0  0  0  0  0  0  0  0
    8.2466    1.3316   -1.7136 C   0  0  0  0  0  0  0  0  0  0  0  0
    5.4154    2.3535   -3.0440 S   0  0  0  0  0  0  0  0  0  0  0  0
    3.2842    4.9956   -3.6967 C   0  0  0  0  0  0  0  0  0  0  0  0
    2.0148    5.5789   -3.6852 C   0  0  0  0  0  0  0  0  0  0  0  0
    0.9818    5.0750   -4.5103 C   0  0  0  0  0  0  0  0  0  0  0  0
   -0.3695    5.6732   -4.4909 C   0  0  0  0  0  0  0  0  0  0  0  0
   -0.6469    7.0289   -4.6382 C   0  0  0  0  0  0  0  0  0  0  0  0
   -1.9727    7.3642   -4.3466 C   0  0  0  0  0  0  0  0  0  0  0  0
   -2.7364    6.2722   -3.9556 C   0  0  0  0  0  0  0  0  0  0  0  0
   -4.1915    6.3214   -3.6039 C   0  0  0  0  0  0  0  0  0  0  0  0
   -4.4873    5.5931   -2.2929 C   0  0  0  0  0  0  0  0  0  0  0  0
   -1.7702    4.8912   -3.9930 S   0  0  0  0  0  0  0  0  0  0  0  0
    1.2948    3.9444   -5.2898 C   0  0  0  0  0  0  0  0  0  0  0  0
    0.2674    2.9614   -6.2007 S   0  0  0  0  0  0  0  0  0  0  0  0
    1.8862    6.5822   -2.7116 C   0  0  0  0  0  0  0  0  0  0  0  0
    3.0690    6.8218   -2.0071 C   0  0  0  0  0  0  0  0  0  0  0  0
    4.2462    5.7398   -2.5343 S   0  0  0  0  0  0  0  0  0  0  0  0
    3.1905    7.6151   -0.7754 C   0  0  0  0  0  0  0  0  0  0  0  0
    2.4788    8.7235   -0.5050 C   0  0  0  0  0  0  0  0  0  0  0  0
    1.8998    9.6299   -1.5050 C   0  0  0  0  0  0  0  0  0  0  0  0
    1.9110    9.4622   -2.7531 O   0  0  0  0  0  0  0  0  0  0  0  0
    1.4645   10.8417   -0.8305 C   0  0  0  0  0  0  0  0  0  0  0  0
    1.7511   10.7412    0.5256 C   0  0  0  0  0  0  0  0  0  0  0  0
    1.4001   11.7927    1.3893 C   0  0  0  0  0  0  0  0  0  0  0  0
    0.7763   12.9302    0.8680 C   0  0  0  0  0  0  0  0  0  0  0  0
    0.4979   13.0300   -0.5078 C   0  0  0  0  0  0  0  0  0  0  0  0
   -0.3475   14.6233   -1.1567 Br  0  0  0  0  0  0  0  0  0  0  0  0
    0.8440   11.9756   -1.3755 C   0  0  0  0  0  0  0  0  0  0  0  0
    0.4759   12.0684   -3.0968 Cl  0  0  0  0  0  0  0  0  0  0  0  0
    2.3549    9.4089    0.8183 C   0  0  0  0  0  0  0  0  0  0  0  0
    2.5504    8.8466    2.0415 C   0  0  0  0  0  0  0  0  0  0  0  0
    2.7929    7.4362    2.2121 C   0  0  0  0  0  0  0  0  0  0  0  0
    2.9875    6.3029    2.3535 N   0  0  0  0  0  0  0  0  0  0  0  0
    2.4986    9.5971    3.2714 C   0  0  0  0  0  0  0  0  0  0  0  0
    2.4731   10.1767    4.2723 N   0  0  0  0  0  0  0  0  0  0  0  0
   -0.5788    1.5023    5.1112 H   0  0  0  0  0  0  0  0  0  0  0  0
   -2.9729    5.2137    8.6808 H   0  0  0  0  0  0  0  0  0  0  0  0
   -4.5067    4.9143   10.5461 H   0  0  0  0  0  0  0  0  0  0  0  0
   -4.8423    2.0683    6.1936 H   0  0  0  0  0  0  0  0  0  0  0  0
   -4.9414    4.2785    5.1235 H   0  0  0  0  0  0  0  0  0  0  0  0
   -3.2730    5.0902    1.8416 H   0  0  0  0  0  0  0  0  0  0  0  0
   -5.0325    5.1181    2.2459 H   0  0  0  0  0  0  0  0  0  0  0  0
   -3.8175    5.8042    3.3976 H   0  0  0  0  0  0  0  0  0  0  0  0
   -2.8938    2.7004    1.6726 H   0  0  0  0  0  0  0  0  0  0  0  0
   -2.8240    0.4822    2.7278 H   0  0  0  0  0  0  0  0  0  0  0  0
   -6.4058    0.2922    4.5155 H   0  0  0  0  0  0  0  0  0  0  0  0
   -8.3852   -0.5810    5.6490 H   0  0  0  0  0  0  0  0  0  0  0  0
   -9.3340   -1.5770    7.7059 H   0  0  0  0  0  0  0  0  0  0  0  0
   -8.2806   -2.4846    8.8432 H   0  0  0  0  0  0  0  0  0  0  0  0
   -8.8052   -3.2605    7.2951 H   0  0  0  0  0  0  0  0  0  0  0  0
   -5.8816   -2.8920    8.2836 H   0  0  0  0  0  0  0  0  0  0  0  0
   -3.8913   -2.0189    7.1645 H   0  0  0  0  0  0  0  0  0  0  0  0
   -1.0346   -5.4463    5.3806 H   0  0  0  0  0  0  0  0  0  0  0  0
   -0.1993   -7.1472    6.9043 H   0  0  0  0  0  0  0  0  0  0  0  0
    2.8349   -9.1546    6.3065 H   0  0  0  0  0  0  0  0  0  0  0  0
    1.3820   -8.9413    7.3438 H   0  0  0  0  0  0  0  0  0  0  0  0
    2.8546   -7.9427    7.6525 H   0  0  0  0  0  0  0  0  0  0  0  0
    3.5439   -7.2395    4.7768 H   0  0  0  0  0  0  0  0  0  0  0  0
    2.7328   -5.5377    3.2358 H   0  0  0  0  0  0  0  0  0  0  0  0
    0.3540   -4.6877    0.5709 H   0  0  0  0  0  0  0  0  0  0  0  0
    1.8994   -3.6506   -1.0153 H   0  0  0  0  0  0  0  0  0  0  0  0
    3.5282   -0.8147   -0.7085 H   0  0  0  0  0  0  0  0  0  0  0  0
    4.9085   -1.7848   -0.0552 H   0  0  0  0  0  0  0  0  0  0  0  0
    3.9450   -2.4137   -1.4360 H   0  0  0  0  0  0  0  0  0  0  0  0
    3.7585   -1.4938    2.2191 H   0  0  0  0  0  0  0  0  0  0  0  0
    2.2407   -2.5879    3.8135 H   0  0  0  0  0  0  0  0  0  0  0  0
    0.6030   -7.0900    1.5113 H   0  0  0  0  0  0  0  0  0  0  0  0
    1.2838   -8.9294    3.0033 H   0  0  0  0  0  0  0  0  0  0  0  0
   -0.3701  -10.0038    4.4949 H   0  0  0  0  0  0  0  0  0  0  0  0
   -2.7376   -9.3353    4.4154 H   0  0  0  0  0  0  0  0  0  0  0  0
   -4.1669   -6.8043    2.0126 H   0  0  0  0  0  0  0  0  0  0  0  0
   -4.4753   -8.4054    2.7096 H   0  0  0  0  0  0  0  0  0  0  0  0
   -5.4966   -6.5574    4.0450 H   0  0  0  0  0  0  0  0  0  0  0  0
   -4.2928   -7.4776    5.0227 H   0  0  0  0  0  0  0  0  0  0  0  0
   -3.8593   -5.8583    4.3517 H   0  0  0  0  0  0  0  0  0  0  0  0
    4.2788   -0.4654   -4.5884 H   0  0  0  0  0  0  0  0  0  0  0  0
    2.9124   -1.3733   -5.2742 H   0  0  0  0  0  0  0  0  0  0  0  0
    5.7770   -2.3952   -4.8233 H   0  0  0  0  0  0  0  0  0  0  0  0
    4.2562   -2.9558   -4.0539 H   0  0  0  0  0  0  0  0  0  0  0  0
    4.5436   -3.2978   -5.8041 H   0  0  0  0  0  0  0  0  0  0  0  0
    6.5238   -0.6336   -6.1698 H   0  0  0  0  0  0  0  0  0  0  0  0
    7.2516    0.4000   -8.2726 H   0  0  0  0  0  0  0  0  0  0  0  0
    5.6080    0.9731  -10.0274 H   0  0  0  0  0  0  0  0  0  0  0  0
    3.2079    0.5226   -9.6712 H   0  0  0  0  0  0  0  0  0  0  0  0
   -2.9151   -2.6189   -2.2599 H   0  0  0  0  0  0  0  0  0  0  0  0
   -2.4331   -2.3050   -3.9179 H   0  0  0  0  0  0  0  0  0  0  0  0
   -0.8093   -1.3027   -2.3640 H   0  0  0  0  0  0  0  0  0  0  0  0
   -0.0311   -2.5799   -3.3729 H   0  0  0  0  0  0  0  0  0  0  0  0
   -0.4590   -2.9177   -1.6529 H   0  0  0  0  0  0  0  0  0  0  0  0
   -3.4810   -3.3195   -5.5513 H   0  0  0  0  0  0  0  0  0  0  0  0
   -2.9011   -1.7764   -6.2906 H   0  0  0  0  0  0  0  0  0  0  0  0
   -2.8017   -2.8656   -8.5050 H   0  0  0  0  0  0  0  0  0  0  0  0
   -3.1891   -4.4688   -7.7695 H   0  0  0  0  0  0  0  0  0  0  0  0
   -4.4249   -3.1508   -7.7732 H   0  0  0  0  0  0  0  0  0  0  0  0
    3.5396    1.6038   -6.0855 H   0  0  0  0  0  0  0  0  0  0  0  0
    5.7073    3.4468   -6.4159 H   0  0  0  0  0  0  0  0  0  0  0  0
    7.7165    1.9813   -5.7205 H   0  0  0  0  0  0  0  0  0  0  0  0
    7.3039   -0.1598   -2.9720 H   0  0  0  0  0  0  0  0  0  0  0  0
    8.6951    0.6907   -3.7245 H   0  0  0  0  0  0  0  0  0  0  0  0
    8.9979    0.6328   -1.2889 H   0  0  0  0  0  0  0  0  0  0  0  0
    8.7073    2.3401   -1.8035 H   0  0  0  0  0  0  0  0  0  0  0  0
    7.3889    1.3797   -1.0087 H   0  0  0  0  0  0  0  0  0  0  0  0
    0.1006    7.7683   -4.9103 H   0  0  0  0  0  0  0  0  0  0  0  0
   -2.3484    8.3765   -4.4035 H   0  0  0  0  0  0  0  0  0  0  0  0
   -4.5167    7.3768   -3.4962 H   0  0  0  0  0  0  0  0  0  0  0  0
   -4.7723    5.8530   -4.4221 H   0  0  0  0  0  0  0  0  0  0  0  0
   -4.2242    4.5124   -2.3670 H   0  0  0  0  0  0  0  0  0  0  0  0
   -3.9222    6.0540   -1.4490 H   0  0  0  0  0  0  0  0  0  0  0  0
   -5.5696    5.6666   -2.0614 H   0  0  0  0  0  0  0  0  0  0  0  0
    0.9434    7.0547   -2.4589 H   0  0  0  0  0  0  0  0  0  0  0  0
    3.8768    7.2225   -0.0396 H   0  0  0  0  0  0  0  0  0  0  0  0
    1.5882   11.7699    2.4457 H   0  0  0  0  0  0  0  0  0  0  0  0
    0.5033   13.7404    1.5335 H   0  0  0  0  0  0  0  0  0  0  0  0
  1  2  2  3
  2  3  1  0
  3  4  2  0
  3  5  1  0
  5  6  2  0
  6  7  1  0
  7  8  2  0
  8  9  1  0
  9 10  1  0
  9 11  2  0
 11 12  1  0
  6 13  1  0
 13 14  2  3
 14 15  1  0
 15 16  3  0
 14 17  1  0
 17 18  3  0
  1 19  1  0
 19 20  2  0
 20 21  1  0
 21 22  1  0
 22 23  2  0
 23 24  1  0
 24 25  2  0
 25 26  1  0
 25 27  1  0
 27 28  2  0
 21 29  1  0
 29 30  2  0
 30 31  1  0
 31 32  2  0
 32 33  1  0
 32 34  1  0
 34 35  2  0
 20 36  1  0
 36 37  1  0
 37 38  1  0
 38 39  2  0
 39 40  1  0
 40 41  1  0
 41 42  2  0
 42 43  1  0
 43 44  2  0
 44 45  1  0
 44 46  1  0
 46 47  2  0
 40 48  1  0
 48 49  2  0
 49 50  1  0
 50 51  2  0
 51 52  1  0
 51 53  1  0
 53 54  2  0
 39 55  1  0
 55 56  1  0
 38 57  1  0
 57 58  2  0
 58 59  1  0
 59 60  2  0
 60 61  1  0
 61 62  2  0
 62 63  1  0
 63 64  2  0
 64 65  1  0
 65 66  1  0
 58 67  1  0
 67 68  1  0
 68 69  1  0
 69 70  1  0
 70 71  1  0
 71 72  1  0
 72 73  2  0
 73 74  1  0
 74 75  1  0
 72 76  1  0
 76 77  1  0
 77 78  1  0
 78 79  1  0
 79 80  1  0
 80 81  1  0
 81 82  2  0
 82 83  1  0
 83 84  1  0
 82 85  1  0
 85 86  2  0
 86 87  1  0
 87 88  2  0
 80 89  2  0
 89 90  1  0
 90 91  1  0
 91 92  1  0
 92 93  1  0
 93 94  1  0
 94 95  1  0
 95 96  1  0
 96 97  1  0
 97 98  1  0
 98 99  1  0
 96100  1  0
100101  1  0
 93102  1  0
102103  1  0
 89104  1  0
104105  2  0
105106  1  0
106107  2  0
107108  1  0
108109  2  0
109110  1  0
110111  2  0
111112  1  0
112113  1  0
111114  1  0
107115  1  0
115116  2  0
116117  1  0
117118  1  0
118119  2  0
119120  1  0
120121  2  0
121122  1  0
122123  1  0
121124  1  0
117125  2  0
125126  1  0
116127  1  0
127128  2  0
128129  1  0
128130  1  0
130131  2  3
131132  1  0
132133  2  0
132134  1  0
134135  2  0
135136  1  0
136137  2  0
137138  1  0
138139  1  0
138140  2  0
140141  1  0
135142  1  0
142143  2  3
143144  1  0
144145  3  0
143146  1  0
146147  3  0
 13  2  1  0
 56 19  1  0
 99 57  1  0
126104  1  0
142131  1  0
 11  5  1  0
 28 22  1  0
 35 29  1  0
 55 36  2  0
 64 59  1  0
 98 67  2  0
125106  1  0
140134  1  0
 47 41  1  0
 54 48  1  0
 97 69  2  0
114108  1  0
129115  1  0
 95 70  2  0
124118  1  0
 75 71  2  0
 94 76  2  0
 92 77  2  0
 91 79  2  0
 88 81  1  0
  1148  1  0
  7149  1  0
  8150  1  0
 23151  1  0
 24152  1  0
 26153  1  0
 26154  1  0
 26155  1  0
 27156  1  0
 28157  1  0
 30158  1  0
 31159  1  0
 33160  1  0
 33161  1  0
 33162  1  0
 34163  1  0
 35164  1  0
 42165  1  0
 43166  1  0
 45167  1  0
 45168  1  0
 45169  1  0
 46170  1  0
 47171  1  0
 49172  1  0
 50173  1  0
 52174  1  0
 52175  1  0
 52176  1  0
 53177  1  0
 54178  1  0
 60179  1  0
 61180  1  0
 62181  1  0
 63182  1  0
 65183  1  0
 65184  1  0
 66185  1  0
 66186  1  0
 66187  1  0
 83188  1  0
 83189  1  0
 84190  1  0
 84191  1  0
 84192  1  0
 85193  1  0
 86194  1  0
 87195  1  0
 88196  1  0
100197  1  0
100198  1  0
101199  1  0
101200  1  0
101201  1  0
102202  1  0
102203  1  0
103204  1  0
103205  1  0
103206  1  0
105207  1  0
109208  1  0
110209  1  0
112210  1  0
112211  1  0
113212  1  0
113213  1  0
113214  1  0
119215  1  0
120216  1  0
122217  1  0
122218  1  0
123219  1  0
123220  1  0
123221  1  0
127222  1  0
130223  1  0
136224  1  0
137225  1  0
M  END

