
     RDKit          3D

237263  0  0  0  0  0  0  0  0999 V2000
   -0.4289    2.0050    6.9326 C   0  0  0  0  0  0  0  0  0  0  0  0
   -0.6615    2.9974    6.0614 C   0  0  0  0  0  0  0  0  0  0  0  0
    0.3344    4.0192    5.7333 C   0  0  0  0  0  0  0  0  0  0  0  0
    1.5499    3.9800    6.0500 O   0  0  0  0  0  0  0  0  0  0  0  0
   -0.3426    5.1921    5.2005 C   0  0  0  0  0  0  0  0  0  0  0  0
   -1.7109    5.0059    5.3112 C   0  0  0  0  0  0  0  0  0  0  0  0
   -2.5847    6.0332    4.9120 C   0  0  0  0  0  0  0  0  0  0  0  0
   -2.0547    7.2160    4.3847 C   0  0  0  0  0  0  0  0  0  0  0  0
   -0.6670    7.3780    4.2361 C   0  0  0  0  0  0  0  0  0  0  0  0
   -0.0162    8.9948    3.4412 Br  0  0  0  0  0  0  0  0  0  0  0  0
    0.2111    6.3592    4.6583 C   0  0  0  0  0  0  0  0  0  0  0  0
    1.9579    6.5379    4.4778 Cl  0  0  0  0  0  0  0  0  0  0  0  0
   -1.9917    3.6414    5.8362 C   0  0  0  0  0  0  0  0  0  0  0  0
   -3.2000    3.0225    5.9451 C   0  0  0  0  0  0  0  0  0  0  0  0
   -3.3130    1.6069    6.1956 C   0  0  0  0  0  0  0  0  0  0  0  0
   -3.4130    0.4712    6.3952 N   0  0  0  0  0  0  0  0  0  0  0  0
   -4.4514    3.7076    5.7796 C   0  0  0  0  0  0  0  0  0  0  0  0
   -5.4687    4.2534    5.6624 N   0  0  0  0  0  0  0  0  0  0  0  0
    0.3344    0.7791    6.5964 C   0  0  0  0  0  0  0  0  0  0  0  0
    1.3627    0.5499    5.6479 C   0  0  0  0  0  0  0  0  0  0  0  0
    1.9643    1.5237    4.7841 N   0  0  0  0  0  0  0  0  0  0  0  0
    1.2772    1.9585    3.5817 C   0  0  0  0  0  0  0  0  0  0  0  0
    0.1447    1.2710    3.0947 C   0  0  0  0  0  0  0  0  0  0  0  0
   -0.5205    1.7129    1.9484 C   0  0  0  0  0  0  0  0  0  0  0  0
   -0.0757    2.8509    1.2638 C   0  0  0  0  0  0  0  0  0  0  0  0
   -0.8006    3.3178    0.0339 C   0  0  0  0  0  0  0  0  0  0  0  0
    1.0428    3.5457    1.7421 C   0  0  0  0  0  0  0  0  0  0  0  0
    1.7158    3.1046    2.8856 C   0  0  0  0  0  0  0  0  0  0  0  0
    3.3903    1.6830    4.9176 C   0  0  0  0  0  0  0  0  0  0  0  0
    4.2445    1.3394    3.8555 C   0  0  0  0  0  0  0  0  0  0  0  0
    5.6307    1.4125    4.0121 C   0  0  0  0  0  0  0  0  0  0  0  0
    6.1845    1.8493    5.2214 C   0  0  0  0  0  0  0  0  0  0  0  0
    7.6732    1.8966    5.3804 C   0  0  0  0  0  0  0  0  0  0  0  0
    5.3372    2.1600    6.2966 C   0  0  0  0  0  0  0  0  0  0  0  0
    3.9510    2.0667    6.1466 C   0  0  0  0  0  0  0  0  0  0  0  0
    1.6226   -0.8071    5.4931 C   0  0  0  0  0  0  0  0  0  0  0  0
    2.4466   -1.6823    4.3236 S   0  0  0  0  0  0  0  0  0  0  0  0
    1.7481   -3.1766    4.7437 C   0  0  0  0  0  0  0  0  0  0  0  0
    0.8305   -2.9685    5.7936 C   0  0  0  0  0  0  0  0  0  0  0  0
   -0.1476   -3.9165    6.2496 N   0  0  0  0  0  0  0  0  0  0  0  0
   -0.0679   -4.3413    7.6252 C   0  0  0  0  0  0  0  0  0  0  0  0
   -1.1960   -4.2747    8.4617 C   0  0  0  0  0  0  0  0  0  0  0  0
   -1.0874   -4.5854    9.8195 C   0  0  0  0  0  0  0  0  0  0  0  0
    0.1517   -4.9546   10.3615 C   0  0  0  0  0  0  0  0  0  0  0  0
    0.2668   -5.2905   11.8194 C   0  0  0  0  0  0  0  0  0  0  0  0
    1.2710   -5.0553    9.5240 C   0  0  0  0  0  0  0  0  0  0  0  0
    1.1639   -4.7430    8.1664 C   0  0  0  0  0  0  0  0  0  0  0  0
   -1.3342   -4.1675    5.4610 C   0  0  0  0  0  0  0  0  0  0  0  0
   -1.9248   -5.4431    5.4678 C   0  0  0  0  0  0  0  0  0  0  0  0
   -3.0436   -5.7079    4.6743 C   0  0  0  0  0  0  0  0  0  0  0  0
   -3.5783   -4.7110    3.8449 C   0  0  0  0  0  0  0  0  0  0  0  0
   -4.7811   -4.9960    2.9969 C   0  0  0  0  0  0  0  0  0  0  0  0
   -3.0153   -3.4277    3.8585 C   0  0  0  0  0  0  0  0  0  0  0  0
   -1.8945   -3.1607    4.6542 C   0  0  0  0  0  0  0  0  0  0  0  0
    0.8285   -1.6386    6.2064 C   0  0  0  0  0  0  0  0  0  0  0  0
   -0.2185   -0.7400    7.1421 S   0  0  0  0  0  0  0  0  0  0  0  0
    1.8740   -4.3790    3.9058 C   0  0  0  0  0  0  0  0  0  0  0  0
    3.0733   -4.8800    3.3618 C   0  0  0  0  0  0  0  0  0  0  0  0
    4.4127   -4.4359    3.7737 C   0  0  0  0  0  0  0  0  0  0  0  0
    5.2057   -3.6475    2.9221 C   0  0  0  0  0  0  0  0  0  0  0  0
    6.4640   -3.2057    3.3462 C   0  0  0  0  0  0  0  0  0  0  0  0
    6.9433   -3.5571    4.6137 C   0  0  0  0  0  0  0  0  0  0  0  0
    6.1599   -4.3494    5.4696 C   0  0  0  0  0  0  0  0  0  0  0  0
    6.6909   -4.7808    6.8095 C   0  0  0  0  0  0  0  0  0  0  0  0
    7.3711   -6.1407    6.7044 C   0  0  0  0  0  0  0  0  0  0  0  0
    4.8937   -4.7818    5.0445 C   0  0  0  0  0  0  0  0  0  0  0  0
    2.8197   -5.8119    2.3380 C   0  0  0  0  0  0  0  0  0  0  0  0
    3.7712   -6.3855    1.0586 S   0  0  0  0  0  0  0  0  0  0  0  0
    2.4109   -6.9971    0.2410 C   0  0  0  0  0  0  0  0  0  0  0  0
    2.0891   -6.9957   -1.0925 C   0  0  0  0  0  0  0  0  0  0  0  0
    2.8627   -7.1337   -2.2499 C   0  0  0  0  0  0  0  0  0  0  0  0
    2.2250   -6.9887   -3.5218 C   0  0  0  0  0  0  0  0  0  0  0  0
    3.0111   -7.1258   -4.6179 N   0  0  0  0  0  0  0  0  0  0  0  0
    4.4612   -7.4464   -3.8843 S   0  0  0  0  0  0  0  0  0  0  0  0
    4.1875   -7.4127   -2.2516 N   0  0  0  0  0  0  0  0  0  0  0  0
    0.8629   -6.6389   -3.5669 C   0  0  0  0  0  0  0  0  0  0  0  0
    0.1418   -6.0673   -4.5823 C   0  0  0  0  0  0  0  0  0  0  0  0
    0.5775   -5.4221   -6.0933 S   0  0  0  0  0  0  0  0  0  0  0  0
   -0.6494   -4.2504   -6.0055 C   0  0  0  0  0  0  0  0  0  0  0  0
   -0.7986   -3.0377   -6.6808 C   0  0  0  0  0  0  0  0  0  0  0  0
   -0.1831   -2.7470   -7.9828 C   0  0  0  0  0  0  0  0  0  0  0  0
    1.1204   -2.2409   -8.0743 C   0  0  0  0  0  0  0  0  0  0  0  0
    1.6642   -1.9393   -9.3287 C   0  0  0  0  0  0  0  0  0  0  0  0
    0.9185   -2.1691  -10.4915 C   0  0  0  0  0  0  0  0  0  0  0  0
   -0.3759   -2.7079  -10.4099 C   0  0  0  0  0  0  0  0  0  0  0  0
   -1.1891   -2.9487  -11.6544 C   0  0  0  0  0  0  0  0  0  0  0  0
   -2.0801   -1.7541  -11.9549 C   0  0  0  0  0  0  0  0  0  0  0  0
   -0.9266   -2.9797   -9.1485 C   0  0  0  0  0  0  0  0  0  0  0  0
   -1.5897   -2.1272   -5.9668 C   0  0  0  0  0  0  0  0  0  0  0  0
   -2.0667   -2.8598   -4.5057 S   0  0  0  0  0  0  0  0  0  0  0  0
   -1.3157   -4.3286   -4.8067 C   0  0  0  0  0  0  0  0  0  0  0  0
   -0.8866   -5.3822   -3.9983 C   0  0  0  0  0  0  0  0  0  0  0  0
   -0.9201   -5.5454   -2.6478 N   0  0  0  0  0  0  0  0  0  0  0  0
    0.1354   -6.3828   -2.3960 C   0  0  0  0  0  0  0  0  0  0  0  0
    0.7312   -6.6846   -1.1509 C   0  0  0  0  0  0  0  0  0  0  0  0
    0.1738   -6.6196    0.0894 N   0  0  0  0  0  0  0  0  0  0  0  0
    1.2405   -6.7491    0.9207 C   0  0  0  0  0  0  0  0  0  0  0  0
    1.4910   -6.0534    2.0955 C   0  0  0  0  0  0  0  0  0  0  0  0
    0.5697   -5.0630    3.0698 S   0  0  0  0  0  0  0  0  0  0  0  0
   -1.1208   -7.2762    0.3527 C   0  0  0  0  0  0  0  0  0  0  0  0
   -1.7933   -6.7764    1.6176 C   0  0  0  0  0  0  0  0  0  0  0  0
   -1.5638   -4.6163   -1.7041 C   0  0  0  0  0  0  0  0  0  0  0  0
   -3.0844   -4.7856   -1.7212 C   0  0  0  0  0  0  0  0  0  0  0  0
   -1.3952   -0.6789   -6.0428 C   0  0  0  0  0  0  0  0  0  0  0  0
   -0.3603   -0.0390   -5.3796 C   0  0  0  0  0  0  0  0  0  0  0  0
   -0.4888    1.3551   -5.3668 C   0  0  0  0  0  0  0  0  0  0  0  0
    0.3687    2.2575   -4.7107 C   0  0  0  0  0  0  0  0  0  0  0  0
    1.5979    1.8117   -4.0176 C   0  0  0  0  0  0  0  0  0  0  0  0
    1.9659    2.1500   -2.7135 C   0  0  0  0  0  0  0  0  0  0  0  0
    3.2022    1.6079   -2.3530 C   0  0  0  0  0  0  0  0  0  0  0  0
    3.8593    1.8032   -1.1394 C   0  0  0  0  0  0  0  0  0  0  0  0
    5.1182    1.2003   -0.9407 C   0  0  0  0  0  0  0  0  0  0  0  0
    5.8762    1.4525    0.3276 C   0  0  0  0  0  0  0  0  0  0  0  0
    6.8241    2.6389    0.1697 C   0  0  0  0  0  0  0  0  0  0  0  0
    5.6924    0.4112   -1.9674 C   0  0  0  0  0  0  0  0  0  0  0  0
    5.0184    0.2238   -3.1841 C   0  0  0  0  0  0  0  0  0  0  0  0
    3.7840    0.8406   -3.3526 C   0  0  0  0  0  0  0  0  0  0  0  0
    2.7991    0.8375   -4.7085 S   0  0  0  0  0  0  0  0  0  0  0  0
   -0.0242    3.6069   -4.7036 C   0  0  0  0  0  0  0  0  0  0  0  0
   -1.1848    4.0633   -5.3424 C   0  0  0  0  0  0  0  0  0  0  0  0
   -2.0165    3.1653   -6.0486 C   0  0  0  0  0  0  0  0  0  0  0  0
   -3.1865    3.6361   -6.8093 C   0  0  0  0  0  0  0  0  0  0  0  0
   -4.7676    3.0423   -6.6659 S   0  0  0  0  0  0  0  0  0  0  0  0
   -5.4031    4.0466   -7.8529 C   0  0  0  0  0  0  0  0  0  0  0  0
   -6.7156    4.1138   -8.3168 C   0  0  0  0  0  0  0  0  0  0  0  0
   -7.0144    5.0395   -9.3259 C   0  0  0  0  0  0  0  0  0  0  0  0
   -6.0012    5.8589   -9.8784 C   0  0  0  0  0  0  0  0  0  0  0  0
   -6.3342    6.8605  -10.9471 C   0  0  0  0  0  0  0  0  0  0  0  0
   -6.7663    8.1888  -10.3328 C   0  0  0  0  0  0  0  0  0  0  0  0
   -4.6833    5.7689   -9.3845 C   0  0  0  0  0  0  0  0  0  0  0  0
   -4.4002    4.8504   -8.3728 C   0  0  0  0  0  0  0  0  0  0  0  0
   -3.1503    4.6267   -7.7918 C   0  0  0  0  0  0  0  0  0  0  0  0
   -1.6524    1.8032   -6.0132 C   0  0  0  0  0  0  0  0  0  0  0  0
   -2.4998    0.4620   -6.6047 S   0  0  0  0  0  0  0  0  0  0  0  0
   -1.4300    5.4296   -5.1113 C   0  0  0  0  0  0  0  0  0  0  0  0
   -0.4565    6.0263   -4.3128 C   0  0  0  0  0  0  0  0  0  0  0  0
    0.7132    4.8930   -3.9053 S   0  0  0  0  0  0  0  0  0  0  0  0
   -0.5428    7.3496   -3.6899 C   0  0  0  0  0  0  0  0  0  0  0  0
   -1.4303    7.6398   -2.7171 C   0  0  0  0  0  0  0  0  0  0  0  0
   -2.3250    6.6694   -2.0598 C   0  0  0  0  0  0  0  0  0  0  0  0
   -2.5360    5.4826   -2.4267 O   0  0  0  0  0  0  0  0  0  0  0  0
   -2.8730    7.2773   -0.8614 C   0  0  0  0  0  0  0  0  0  0  0  0
   -2.3717    8.5668   -0.7416 C   0  0  0  0  0  0  0  0  0  0  0  0
   -2.6712    9.3281    0.3998 C   0  0  0  0  0  0  0  0  0  0  0  0
   -3.5396    8.7973    1.3644 C   0  0  0  0  0  0  0  0  0  0  0  0
   -4.0973    7.5134    1.2028 C   0  0  0  0  0  0  0  0  0  0  0  0
   -5.3333    6.8771    2.5196 Br  0  0  0  0  0  0  0  0  0  0  0  0
   -3.7481    6.7305    0.0878 C   0  0  0  0  0  0  0  0  0  0  0  0
   -4.4177    5.1150   -0.1241 Cl  0  0  0  0  0  0  0  0  0  0  0  0
   -1.5319    8.9057   -1.9331 C   0  0  0  0  0  0  0  0  0  0  0  0
   -1.1852   10.1503   -2.3548 C   0  0  0  0  0  0  0  0  0  0  0  0
   -0.6133   10.3959   -3.6537 C   0  0  0  0  0  0  0  0  0  0  0  0
   -0.1574   10.6012   -4.6980 N   0  0  0  0  0  0  0  0  0  0  0  0
   -1.5409   11.3409   -1.6268 C   0  0  0  0  0  0  0  0  0  0  0  0
   -1.8276   12.3154   -1.0662 N   0  0  0  0  0  0  0  0  0  0  0  0
   -1.1948    1.8124    7.6704 H   0  0  0  0  0  0  0  0  0  0  0  0
   -3.6514    5.9569    5.0074 H   0  0  0  0  0  0  0  0  0  0  0  0
   -2.7249    8.0147    4.0865 H   0  0  0  0  0  0  0  0  0  0  0  0
   -0.2267    0.3869    3.5917 H   0  0  0  0  0  0  0  0  0  0  0  0
   -1.3827    1.1644    1.5910 H   0  0  0  0  0  0  0  0  0  0  0  0
   -1.8516    3.5604    0.2925 H   0  0  0  0  0  0  0  0  0  0  0  0
   -0.7979    2.5131   -0.7306 H   0  0  0  0  0  0  0  0  0  0  0  0
   -0.3238    4.2192   -0.4022 H   0  0  0  0  0  0  0  0  0  0  0  0
    1.3968    4.4328    1.2300 H   0  0  0  0  0  0  0  0  0  0  0  0
    2.5711    3.6703    3.2345 H   0  0  0  0  0  0  0  0  0  0  0  0
    3.8237    0.9778    2.9265 H   0  0  0  0  0  0  0  0  0  0  0  0
    6.2760    1.1124    3.1967 H   0  0  0  0  0  0  0  0  0  0  0  0
    8.0527    0.8801    5.6163 H   0  0  0  0  0  0  0  0  0  0  0  0
    8.1494    2.2478    4.4400 H   0  0  0  0  0  0  0  0  0  0  0  0
    7.9658    2.5926    6.1989 H   0  0  0  0  0  0  0  0  0  0  0  0
    5.7502    2.4575    7.2493 H   0  0  0  0  0  0  0  0  0  0  0  0
    3.3105    2.2831    6.9921 H   0  0  0  0  0  0  0  0  0  0  0  0
   -2.1478   -3.9459    8.0678 H   0  0  0  0  0  0  0  0  0  0  0  0
   -1.9623   -4.5166   10.4516 H   0  0  0  0  0  0  0  0  0  0  0  0
    0.0715   -6.3728   11.9643 H   0  0  0  0  0  0  0  0  0  0  0  0
    1.2853   -5.0495   12.1915 H   0  0  0  0  0  0  0  0  0  0  0  0
   -0.4628   -4.7008   12.4125 H   0  0  0  0  0  0  0  0  0  0  0  0
    2.2304   -5.3630    9.9230 H   0  0  0  0  0  0  0  0  0  0  0  0
    2.0465   -4.8060    7.5369 H   0  0  0  0  0  0  0  0  0  0  0  0
   -1.5023   -6.2332    6.0714 H   0  0  0  0  0  0  0  0  0  0  0  0
   -3.4747   -6.6995    4.6849 H   0  0  0  0  0  0  0  0  0  0  0  0
   -4.8198   -6.0705    2.7114 H   0  0  0  0  0  0  0  0  0  0  0  0
   -4.7508   -4.3956    2.0620 H   0  0  0  0  0  0  0  0  0  0  0  0
   -5.7031   -4.7412    3.5632 H   0  0  0  0  0  0  0  0  0  0  0  0
   -3.4304   -2.6393    3.2435 H   0  0  0  0  0  0  0  0  0  0  0  0
   -1.4727   -2.1619    4.6330 H   0  0  0  0  0  0  0  0  0  0  0  0
    4.8439   -3.3645    1.9406 H   0  0  0  0  0  0  0  0  0  0  0  0
    7.0715   -2.5974    2.6913 H   0  0  0  0  0  0  0  0  0  0  0  0
    7.9258   -3.2157    4.9262 H   0  0  0  0  0  0  0  0  0  0  0  0
    5.8613   -4.8433    7.5458 H   0  0  0  0  0  0  0  0  0  0  0  0
    7.4190   -4.0349    7.1958 H   0  0  0  0  0  0  0  0  0  0  0  0
    7.7871   -6.4239    7.6934 H   0  0  0  0  0  0  0  0  0  0  0  0
    6.6374   -6.9174    6.3891 H   0  0  0  0  0  0  0  0  0  0  0  0
    8.2027   -6.1038    5.9679 H   0  0  0  0  0  0  0  0  0  0  0  0
    4.2854   -5.4012    5.6948 H   0  0  0  0  0  0  0  0  0  0  0  0
    1.7054   -2.0680   -7.1781 H   0  0  0  0  0  0  0  0  0  0  0  0
    2.6665   -1.5387   -9.3988 H   0  0  0  0  0  0  0  0  0  0  0  0
    1.3547   -1.9279  -11.4539 H   0  0  0  0  0  0  0  0  0  0  0  0
   -1.8172   -3.8590  -11.5243 H   0  0  0  0  0  0  0  0  0  0  0  0
   -0.5157   -3.1340  -12.5212 H   0  0  0  0  0  0  0  0  0  0  0  0
   -2.7341   -1.5323  -11.0835 H   0  0  0  0  0  0  0  0  0  0  0  0
   -2.7305   -1.9822  -12.8292 H   0  0  0  0  0  0  0  0  0  0  0  0
   -1.4636   -0.8630  -12.1916 H   0  0  0  0  0  0  0  0  0  0  0  0
   -1.9361   -3.3703   -9.0710 H   0  0  0  0  0  0  0  0  0  0  0  0
   -0.9648   -8.3742    0.4350 H   0  0  0  0  0  0  0  0  0  0  0  0
   -1.8103   -7.1285   -0.4974 H   0  0  0  0  0  0  0  0  0  0  0  0
   -1.8583   -5.6686    1.6112 H   0  0  0  0  0  0  0  0  0  0  0  0
   -1.2412   -7.1332    2.5063 H   0  0  0  0  0  0  0  0  0  0  0  0
   -2.8249   -7.1899    1.6713 H   0  0  0  0  0  0  0  0  0  0  0  0
   -1.2039   -4.7502   -0.6726 H   0  0  0  0  0  0  0  0  0  0  0  0
   -1.3043   -3.5683   -1.9626 H   0  0  0  0  0  0  0  0  0  0  0  0
   -3.4924   -4.5887   -2.7366 H   0  0  0  0  0  0  0  0  0  0  0  0
   -3.3778   -5.8116   -1.4224 H   0  0  0  0  0  0  0  0  0  0  0  0
   -3.5411   -4.0643   -1.0065 H   0  0  0  0  0  0  0  0  0  0  0  0
    0.4205   -0.5803   -4.8626 H   0  0  0  0  0  0  0  0  0  0  0  0
    1.3686    2.7692   -2.0608 H   0  0  0  0  0  0  0  0  0  0  0  0
    3.4064    2.4200   -0.3726 H   0  0  0  0  0  0  0  0  0  0  0  0
    6.4594    0.5493    0.6148 H   0  0  0  0  0  0  0  0  0  0  0  0
    5.1662    1.6692    1.1513 H   0  0  0  0  0  0  0  0  0  0  0  0
    7.5745    2.4342   -0.6234 H   0  0  0  0  0  0  0  0  0  0  0  0
    7.3576    2.8186    1.1278 H   0  0  0  0  0  0  0  0  0  0  0  0
    6.2484    3.5540   -0.0932 H   0  0  0  0  0  0  0  0  0  0  0  0
    6.6643   -0.0430   -1.8210 H   0  0  0  0  0  0  0  0  0  0  0  0
    5.4582   -0.3785   -3.9699 H   0  0  0  0  0  0  0  0  0  0  0  0
   -7.4889    3.4757   -7.9061 H   0  0  0  0  0  0  0  0  0  0  0  0
   -8.0315    5.1171   -9.6883 H   0  0  0  0  0  0  0  0  0  0  0  0
   -7.1520    6.4713  -11.5907 H   0  0  0  0  0  0  0  0  0  0  0  0
   -5.4546    7.0294  -11.6009 H   0  0  0  0  0  0  0  0  0  0  0  0
   -6.9790    8.9147  -11.1418 H   0  0  0  0  0  0  0  0  0  0  0  0
   -5.9558    8.5993   -9.6898 H   0  0  0  0  0  0  0  0  0  0  0  0
   -7.6860    8.0524   -9.7223 H   0  0  0  0  0  0  0  0  0  0  0  0
   -3.8952    6.3872   -9.7945 H   0  0  0  0  0  0  0  0  0  0  0  0
   -2.2466    5.1470   -8.0812 H   0  0  0  0  0  0  0  0  0  0  0  0
   -2.3144    5.9548   -5.4463 H   0  0  0  0  0  0  0  0  0  0  0  0
    0.2444    8.0423   -3.9346 H   0  0  0  0  0  0  0  0  0  0  0  0
   -2.2272   10.2920    0.5762 H   0  0  0  0  0  0  0  0  0  0  0  0
   -3.7874    9.3857    2.2348 H   0  0  0  0  0  0  0  0  0  0  0  0
  1  2  2  3
  2  3  1  0
  3  4  2  0
  3  5  1  0
  5  6  2  0
  6  7  1  0
  7  8  2  0
  8  9  1  0
  9 10  1  0
  9 11  2  0
 11 12  1  0
  6 13  1  0
 13 14  2  3
 14 15  1  0
 15 16  3  0
 14 17  1  0
 17 18  3  0
  1 19  1  0
 19 20  2  0
 20 21  1  0
 21 22  1  0
 22 23  2  0
 23 24  1  0
 24 25  2  0
 25 26  1  0
 25 27  1  0
 27 28  2  0
 21 29  1  0
 29 30  2  0
 30 31  1  0
 31 32  2  0
 32 33  1  0
 32 34  1  0
 34 35  2  0
 20 36  1  0
 36 37  1  0
 37 38  1  0
 38 39  2  0
 39 40  1  0
 40 41  1  0
 41 42  2  0
 42 43  1  0
 43 44  2  0
 44 45  1  0
 44 46  1  0
 46 47  2  0
 40 48  1  0
 48 49  2  0
 49 50  1  0
 50 51  2  0
 51 52  1  0
 51 53  1  0
 53 54  2  0
 39 55  1  0
 55 56  1  0
 38 57  1  0
 57 58  2  0
 58 59  1  0
 59 60  2  0
 60 61  1  0
 61 62  2  0
 62 63  1  0
 63 64  1  0
 64 65  1  0
 63 66  2  0
 58 67  1  0
 67 68  1  0
 68 69  1  0
 69 70  1  0
 70 71  1  0
 71 72  1  0
 72 73  2  0
 73 74  1  0
 74 75  1  0
 72 76  1  0
 76 77  1  0
 77 78  1  0
 78 79  1  0
 79 80  1  0
 80 81  1  0
 81 82  2  0
 82 83  1  0
 83 84  2  0
 84 85  1  0
 85 86  1  0
 86 87  1  0
 85 88  2  0
 80 89  2  0
 89 90  1  0
 90 91  1  0
 91 92  1  0
 92 93  1  0
 93 94  1  0
 94 95  1  0
 95 96  1  0
 96 97  1  0
 97 98  1  0
 98 99  1  0
 96100  1  0
100101  1  0
 93102  1  0
102103  1  0
 89104  1  0
104105  2  0
105106  1  0
106107  2  0
107108  1  0
108109  2  0
109110  1  0
110111  2  0
111112  1  0
112113  1  0
113114  1  0
112115  2  0
115116  1  0
116117  2  0
117118  1  0
107119  1  0
119120  2  0
120121  1  0
121122  1  0
122123  1  0
123124  1  0
124125  2  0
125126  1  0
126127  2  0
127128  1  0
128129  1  0
127130  1  0
130131  2  0
131132  1  0
121133  2  0
133134  1  0
120135  1  0
135136  2  0
136137  1  0
136138  1  0
138139  2  3
139140  1  0
140141  2  0
140142  1  0
142143  2  0
143144  1  0
144145  2  0
145146  1  0
146147  1  0
146148  2  0
148149  1  0
143150  1  0
150151  2  3
151152  1  0
152153  3  0
151154  1  0
154155  3  0
 13  2  1  0
 56 19  1  0
 99 57  1  0
134104  1  0
150139  1  0
 11  5  1  0
 28 22  1  0
 35 29  1  0
 55 36  2  0
 66 59  1  0
 98 67  2  0
133106  1  0
148142  1  0
 47 41  1  0
 54 48  1  0
 97 69  2  0
118108  1  0
137119  1  0
 95 70  2  0
117110  1  0
132122  2  0
 75 71  2  0
 94 76  2  0
131124  1  0
 92 77  2  0
 91 79  2  0
 88 81  1  0
  1156  1  0
  7157  1  0
  8158  1  0
 23159  1  0
 24160  1  0
 26161  1  0
 26162  1  0
 26163  1  0
 27164  1  0
 28165  1  0
 30166  1  0
 31167  1  0
 33168  1  0
 33169  1  0
 33170  1  0
 34171  1  0
 35172  1  0
 42173  1  0
 43174  1  0
 45175  1  0
 45176  1  0
 45177  1  0
 46178  1  0
 47179  1  0
 49180  1  0
 50181  1  0
 52182  1  0
 52183  1  0
 52184  1  0
 53185  1  0
 54186  1  0
 60187  1  0
 61188  1  0
 62189  1  0
 64190  1  0
 64191  1  0
 65192  1  0
 65193  1  0
 65194  1  0
 66195  1  0
 82196  1  0
 83197  1  0
 84198  1  0
 86199  1  0
 86200  1  0
 87201  1  0
 87202  1  0
 87203  1  0
 88204  1  0
100205  1  0
100206  1  0
101207  1  0
101208  1  0
101209  1  0
102210  1  0
102211  1  0
103212  1  0
103213  1  0
103214  1  0
105215  1  0
109216  1  0
111217  1  0
113218  1  0
113219  1  0
114220  1  0
114221  1  0
114222  1  0
115223  1  0
116224  1  0
125225  1  0
126226  1  0
128227  1  0
128228  1  0
129229  1  0
129230  1  0
129231  1  0
130232  1  0
132233  1  0
135234  1  0
138235  1  0
144236  1  0
145237  1  0
M  END

