
     RDKit          3D

200221  0  0  0  0  0  0  0  0999 V2000
   -6.8100    3.0705    3.5276 C   0  0  0  0  0  0  0  0  0  0  0  0
   -6.8479    4.4136    3.4054 C   0  0  0  0  0  0  0  0  0  0  0  0
   -6.6703    5.2899    4.5651 C   0  0  0  0  0  0  0  0  0  0  0  0
   -6.4417    4.8989    5.7385 O   0  0  0  0  0  0  0  0  0  0  0  0
   -6.6848    6.6741    4.1326 C   0  0  0  0  0  0  0  0  0  0  0  0
   -6.9171    6.7020    2.7682 C   0  0  0  0  0  0  0  0  0  0  0  0
   -6.8118    7.9132    2.0648 C   0  0  0  0  0  0  0  0  0  0  0  0
   -6.5757    9.0990    2.7763 C   0  0  0  0  0  0  0  0  0  0  0  0
   -6.3816    9.0719    4.1669 C   0  0  0  0  0  0  0  0  0  0  0  0
   -6.0722   10.7347    5.0739 Br  0  0  0  0  0  0  0  0  0  0  0  0
   -6.4126    7.8454    4.8606 C   0  0  0  0  0  0  0  0  0  0  0  0
   -6.0347    7.7700    6.5773 Cl  0  0  0  0  0  0  0  0  0  0  0  0
   -7.1151    5.3230    2.2372 C   0  0  0  0  0  0  0  0  0  0  0  0
   -7.7672    5.0473    1.0728 C   0  0  0  0  0  0  0  0  0  0  0  0
   -8.4871    6.0659    0.3491 C   0  0  0  0  0  0  0  0  0  0  0  0
   -9.0718    6.8834   -0.2280 N   0  0  0  0  0  0  0  0  0  0  0  0
   -7.7870    3.7644    0.4288 C   0  0  0  0  0  0  0  0  0  0  0  0
   -7.8123    2.7650   -0.1592 N   0  0  0  0  0  0  0  0  0  0  0  0
   -6.4652    2.1393    2.4576 C   0  0  0  0  0  0  0  0  0  0  0  0
   -5.2331    2.1160    1.7856 C   0  0  0  0  0  0  0  0  0  0  0  0
   -4.0894    2.8707    2.2153 N   0  0  0  0  0  0  0  0  0  0  0  0
   -3.9445    4.2324    1.7754 C   0  0  0  0  0  0  0  0  0  0  0  0
   -4.1593    4.5679    0.4284 C   0  0  0  0  0  0  0  0  0  0  0  0
   -4.0822    5.8986    0.0108 C   0  0  0  0  0  0  0  0  0  0  0  0
   -3.8014    6.9122    0.9357 C   0  0  0  0  0  0  0  0  0  0  0  0
   -3.7071    8.3410    0.4842 C   0  0  0  0  0  0  0  0  0  0  0  0
   -3.5625    6.5793    2.2801 C   0  0  0  0  0  0  0  0  0  0  0  0
   -3.6322    5.2481    2.6948 C   0  0  0  0  0  0  0  0  0  0  0  0
   -3.1348    2.2529    3.1118 C   0  0  0  0  0  0  0  0  0  0  0  0
   -1.7762    2.6221    3.0839 C   0  0  0  0  0  0  0  0  0  0  0  0
   -0.8458    1.9879    3.9191 C   0  0  0  0  0  0  0  0  0  0  0  0
   -1.2600    0.9790    4.8008 C   0  0  0  0  0  0  0  0  0  0  0  0
   -0.2756    0.2816    5.6942 C   0  0  0  0  0  0  0  0  0  0  0  0
   -2.6093    0.5986    4.8284 C   0  0  0  0  0  0  0  0  0  0  0  0
   -3.5390    1.2315    3.9981 C   0  0  0  0  0  0  0  0  0  0  0  0
   -5.1281    0.9833    0.9950 C   0  0  0  0  0  0  0  0  0  0  0  0
   -3.9193    0.3665    0.0175 S   0  0  0  0  0  0  0  0  0  0  0  0
   -4.7924   -1.0485   -0.3604 C   0  0  0  0  0  0  0  0  0  0  0  0
   -6.0153   -1.0472    0.3233 C   0  0  0  0  0  0  0  0  0  0  0  0
   -6.8677   -2.1931    0.4491 N   0  0  0  0  0  0  0  0  0  0  0  0
   -7.6784   -2.5809   -0.6709 C   0  0  0  0  0  0  0  0  0  0  0  0
   -7.6635   -3.9045   -1.1266 C   0  0  0  0  0  0  0  0  0  0  0  0
   -8.4803   -4.2893   -2.1938 C   0  0  0  0  0  0  0  0  0  0  0  0
   -9.3107   -3.3516   -2.8255 C   0  0  0  0  0  0  0  0  0  0  0  0
  -10.2272   -3.7709   -3.9328 C   0  0  0  0  0  0  0  0  0  0  0  0
   -9.3241   -2.0231   -2.3673 C   0  0  0  0  0  0  0  0  0  0  0  0
   -8.5017   -1.6369   -1.3058 C   0  0  0  0  0  0  0  0  0  0  0  0
   -6.8980   -2.9252    1.6985 C   0  0  0  0  0  0  0  0  0  0  0  0
   -8.0730   -3.5771    2.1194 C   0  0  0  0  0  0  0  0  0  0  0  0
   -8.1112   -4.2513    3.3467 C   0  0  0  0  0  0  0  0  0  0  0  0
   -6.9869   -4.2687    4.1809 C   0  0  0  0  0  0  0  0  0  0  0  0
   -7.0365   -4.9990    5.4889 C   0  0  0  0  0  0  0  0  0  0  0  0
   -5.8028   -3.6452    3.7581 C   0  0  0  0  0  0  0  0  0  0  0  0
   -5.7611   -2.9752    2.5324 C   0  0  0  0  0  0  0  0  0  0  0  0
   -6.1651    0.1171    1.0704 C   0  0  0  0  0  0  0  0  0  0  0  0
   -7.3134    0.6895    2.1514 S   0  0  0  0  0  0  0  0  0  0  0  0
   -4.3603   -2.0314   -1.3521 C   0  0  0  0  0  0  0  0  0  0  0  0
   -4.4897   -1.8431   -2.7359 C   0  0  0  0  0  0  0  0  0  0  0  0
   -5.1270   -0.6628   -3.3353 C   0  0  0  0  0  0  0  0  0  0  0  0
   -6.4172   -0.7472   -3.8623 C   0  0  0  0  0  0  0  0  0  0  0  0
   -7.0457    0.3990   -4.3581 C   0  0  0  0  0  0  0  0  0  0  0  0
   -6.3802    1.6301   -4.3374 C   0  0  0  0  0  0  0  0  0  0  0  0
   -5.0762    1.7227   -3.8222 C   0  0  0  0  0  0  0  0  0  0  0  0
   -4.3441    3.0362   -3.8271 C   0  0  0  0  0  0  0  0  0  0  0  0
   -3.5652    3.2114   -5.1273 C   0  0  0  0  0  0  0  0  0  0  0  0
   -4.4474    0.5673   -3.3457 C   0  0  0  0  0  0  0  0  0  0  0  0
   -3.6384   -2.6873   -3.4468 C   0  0  0  0  0  0  0  0  0  0  0  0
   -3.0474   -2.5786   -5.0301 S   0  0  0  0  0  0  0  0  0  0  0  0
   -1.7776   -3.6543   -4.6992 C   0  0  0  0  0  0  0  0  0  0  0  0
   -0.4829   -3.6786   -5.1561 C   0  0  0  0  0  0  0  0  0  0  0  0
    0.1022   -2.8705   -6.1503 C   0  0  0  0  0  0  0  0  0  0  0  0
    1.5051   -2.6070   -6.0913 C   0  0  0  0  0  0  0  0  0  0  0  0
    2.0121   -1.7356   -7.0006 N   0  0  0  0  0  0  0  0  0  0  0  0
    0.6244   -1.3474   -7.8134 S   0  0  0  0  0  0  0  0  0  0  0  0
   -0.6024   -2.2023   -7.0980 N   0  0  0  0  0  0  0  0  0  0  0  0
    2.2641   -3.2531   -5.1124 C   0  0  0  0  0  0  0  0  0  0  0  0
    3.5724   -3.1236   -4.7278 C   0  0  0  0  0  0  0  0  0  0  0  0
    4.6396   -1.8058   -4.6764 S   0  0  0  0  0  0  0  0  0  0  0  0
    5.3981   -2.4199   -3.2813 C   0  0  0  0  0  0  0  0  0  0  0  0
    6.2554   -1.8435   -2.3447 C   0  0  0  0  0  0  0  0  0  0  0  0
    6.8603   -0.5155   -2.5098 C   0  0  0  0  0  0  0  0  0  0  0  0
    8.1034   -0.3857   -3.1364 C   0  0  0  0  0  0  0  0  0  0  0  0
    8.6691    0.8788   -3.3215 C   0  0  0  0  0  0  0  0  0  0  0  0
    7.9984    2.0197   -2.8731 C   0  0  0  0  0  0  0  0  0  0  0  0
    6.7585    1.9029   -2.2250 C   0  0  0  0  0  0  0  0  0  0  0  0
    6.0228    3.1349   -1.7709 C   0  0  0  0  0  0  0  0  0  0  0  0
    5.1258    3.6709   -2.8834 C   0  0  0  0  0  0  0  0  0  0  0  0
    6.1840    0.6305   -2.0613 C   0  0  0  0  0  0  0  0  0  0  0  0
    6.3442   -2.6362   -1.1852 C   0  0  0  0  0  0  0  0  0  0  0  0
    5.3093   -3.9831   -1.3214 S   0  0  0  0  0  0  0  0  0  0  0  0
    4.8134   -3.5905   -2.8715 C   0  0  0  0  0  0  0  0  0  0  0  0
    3.7550   -3.9750   -3.6739 C   0  0  0  0  0  0  0  0  0  0  0  0
    2.6208   -4.6260   -3.3305 N   0  0  0  0  0  0  0  0  0  0  0  0
    1.6856   -4.1286   -4.1861 C   0  0  0  0  0  0  0  0  0  0  0  0
    0.2788   -4.2047   -4.1015 C   0  0  0  0  0  0  0  0  0  0  0  0
   -0.4792   -4.3109   -2.9613 N   0  0  0  0  0  0  0  0  0  0  0  0
   -1.7452   -4.0234   -3.3779 C   0  0  0  0  0  0  0  0  0  0  0  0
   -2.8310   -3.4854   -2.6728 C   0  0  0  0  0  0  0  0  0  0  0  0
   -3.1540   -3.1862   -1.0516 S   0  0  0  0  0  0  0  0  0  0  0  0
   -0.0007   -4.0232   -1.5979 C   0  0  0  0  0  0  0  0  0  0  0  0
    0.2861   -2.5327   -1.4225 C   0  0  0  0  0  0  0  0  0  0  0  0
    2.5855   -5.9319   -2.6554 C   0  0  0  0  0  0  0  0  0  0  0  0
    3.3233   -6.9831   -3.4777 C   0  0  0  0  0  0  0  0  0  0  0  0
    7.0944   -2.3245    0.0353 C   0  0  0  0  0  0  0  0  0  0  0  0
    7.0869   -0.8612    0.9063 S   0  0  0  0  0  0  0  0  0  0  0  0
    8.0334   -1.3708    2.2161 C   0  0  0  0  0  0  0  0  0  0  0  0
    8.3145   -2.7074    1.9846 C   0  0  0  0  0  0  0  0  0  0  0  0
    9.0258   -3.7747    2.6753 C   0  0  0  0  0  0  0  0  0  0  0  0
    9.6163   -3.6778    3.7817 O   0  0  0  0  0  0  0  0  0  0  0  0
    8.9655   -4.9760    1.8938 N   0  0  0  0  0  0  0  0  0  0  0  0
    9.9077   -6.0862    1.9883 C   0  0  0  0  0  0  0  0  0  0  0  0
   11.2200   -5.7298    1.2992 C   0  0  0  0  0  0  0  0  0  0  0  0
    8.2184   -4.6127    0.7229 C   0  0  0  0  0  0  0  0  0  0  0  0
    8.0111   -5.3808   -0.2516 O   0  0  0  0  0  0  0  0  0  0  0  0
    7.8122   -3.2167    0.8160 C   0  0  0  0  0  0  0  0  0  0  0  0
    8.3468   -0.5921    3.4181 C   0  0  0  0  0  0  0  0  0  0  0  0
    9.5890   -0.4684    3.9194 C   0  0  0  0  0  0  0  0  0  0  0  0
   10.8366   -0.7484    3.1968 C   0  0  0  0  0  0  0  0  0  0  0  0
   10.9415   -1.3508    2.0968 O   0  0  0  0  0  0  0  0  0  0  0  0
   11.9311   -0.0975    3.9001 C   0  0  0  0  0  0  0  0  0  0  0  0
   11.4295    0.5449    5.0209 C   0  0  0  0  0  0  0  0  0  0  0  0
   12.2620    1.3756    5.7856 C   0  0  0  0  0  0  0  0  0  0  0  0
   13.6152    1.4902    5.4363 C   0  0  0  0  0  0  0  0  0  0  0  0
   14.1313    0.8002    4.3286 C   0  0  0  0  0  0  0  0  0  0  0  0
   15.9921    1.0005    3.9086 Br  0  0  0  0  0  0  0  0  0  0  0  0
   13.2828   -0.0012    3.5367 C   0  0  0  0  0  0  0  0  0  0  0  0
   13.9010   -0.8498    2.1223 Cl  0  0  0  0  0  0  0  0  0  0  0  0
    9.9750    0.2565    5.1621 C   0  0  0  0  0  0  0  0  0  0  0  0
    9.2377    0.3493    6.2954 C   0  0  0  0  0  0  0  0  0  0  0  0
    9.7609    0.8899    7.5231 C   0  0  0  0  0  0  0  0  0  0  0  0
   10.1732    1.3156    8.5182 N   0  0  0  0  0  0  0  0  0  0  0  0
    7.9171   -0.2194    6.3992 C   0  0  0  0  0  0  0  0  0  0  0  0
    6.8567   -0.6774    6.4935 N   0  0  0  0  0  0  0  0  0  0  0  0
   -6.7772    2.6415    4.5181 H   0  0  0  0  0  0  0  0  0  0  0  0
   -6.8884    7.9563    0.9971 H   0  0  0  0  0  0  0  0  0  0  0  0
   -6.5174   10.0373    2.2403 H   0  0  0  0  0  0  0  0  0  0  0  0
   -4.3883    3.7930   -0.2962 H   0  0  0  0  0  0  0  0  0  0  0  0
   -4.2437    6.1354   -1.0323 H   0  0  0  0  0  0  0  0  0  0  0  0
   -4.3621    8.5171   -0.3943 H   0  0  0  0  0  0  0  0  0  0  0  0
   -4.0328    9.0293    1.2934 H   0  0  0  0  0  0  0  0  0  0  0  0
   -2.6585    8.5771    0.2139 H   0  0  0  0  0  0  0  0  0  0  0  0
   -3.3299    7.3506    3.0038 H   0  0  0  0  0  0  0  0  0  0  0  0
   -3.4779    5.0117    3.7394 H   0  0  0  0  0  0  0  0  0  0  0  0
   -1.4242    3.3788    2.3914 H   0  0  0  0  0  0  0  0  0  0  0  0
    0.1958    2.2763    3.8659 H   0  0  0  0  0  0  0  0  0  0  0  0
   -0.2048   -0.7892    5.4086 H   0  0  0  0  0  0  0  0  0  0  0  0
   -0.6126    0.3519    6.7491 H   0  0  0  0  0  0  0  0  0  0  0  0
    0.7361    0.7372    5.6172 H   0  0  0  0  0  0  0  0  0  0  0  0
   -2.9445   -0.1754    5.5105 H   0  0  0  0  0  0  0  0  0  0  0  0
   -4.5723    0.9234    4.0672 H   0  0  0  0  0  0  0  0  0  0  0  0
   -7.0237   -4.6384   -0.6526 H   0  0  0  0  0  0  0  0  0  0  0  0
   -8.4657   -5.3194   -2.5249 H   0  0  0  0  0  0  0  0  0  0  0  0
  -11.2278   -4.0117   -3.5158 H   0  0  0  0  0  0  0  0  0  0  0  0
   -9.8313   -4.6591   -4.4647 H   0  0  0  0  0  0  0  0  0  0  0  0
  -10.3379   -2.9514   -4.6765 H   0  0  0  0  0  0  0  0  0  0  0  0
   -9.9669   -1.2912   -2.8355 H   0  0  0  0  0  0  0  0  0  0  0  0
   -8.5265   -0.6098   -0.9667 H   0  0  0  0  0  0  0  0  0  0  0  0
   -8.9632   -3.5573    1.5031 H   0  0  0  0  0  0  0  0  0  0  0  0
   -9.0273   -4.7481    3.6449 H   0  0  0  0  0  0  0  0  0  0  0  0
   -6.2362   -4.6395    6.1751 H   0  0  0  0  0  0  0  0  0  0  0  0
   -6.8978   -6.0883    5.3148 H   0  0  0  0  0  0  0  0  0  0  0  0
   -8.0175   -4.8313    5.9850 H   0  0  0  0  0  0  0  0  0  0  0  0
   -4.9184   -3.6642    4.3810 H   0  0  0  0  0  0  0  0  0  0  0  0
   -4.8364   -2.4969    2.2330 H   0  0  0  0  0  0  0  0  0  0  0  0
   -6.9399   -1.6963   -3.8802 H   0  0  0  0  0  0  0  0  0  0  0  0
   -8.0495    0.3348   -4.7551 H   0  0  0  0  0  0  0  0  0  0  0  0
   -6.8788    2.5069   -4.7285 H   0  0  0  0  0  0  0  0  0  0  0  0
   -3.6350    3.0821   -2.9713 H   0  0  0  0  0  0  0  0  0  0  0  0
   -5.0605    3.8764   -3.7062 H   0  0  0  0  0  0  0  0  0  0  0  0
   -2.8017    2.4094   -5.2296 H   0  0  0  0  0  0  0  0  0  0  0  0
   -3.0505    4.1947   -5.1258 H   0  0  0  0  0  0  0  0  0  0  0  0
   -4.2529    3.1693   -5.9991 H   0  0  0  0  0  0  0  0  0  0  0  0
   -3.4378    0.6247   -2.9586 H   0  0  0  0  0  0  0  0  0  0  0  0
    8.6284   -1.2636   -3.4967 H   0  0  0  0  0  0  0  0  0  0  0  0
    9.6208    0.9745   -3.8213 H   0  0  0  0  0  0  0  0  0  0  0  0
    8.4445    2.9937   -3.0341 H   0  0  0  0  0  0  0  0  0  0  0  0
    6.7484    3.9253   -1.4716 H   0  0  0  0  0  0  0  0  0  0  0  0
    5.4025    2.9013   -0.8772 H   0  0  0  0  0  0  0  0  0  0  0  0
    4.6529    4.6183   -2.5542 H   0  0  0  0  0  0  0  0  0  0  0  0
    4.3291    2.9377   -3.1210 H   0  0  0  0  0  0  0  0  0  0  0  0
    5.7250    3.8737   -3.7937 H   0  0  0  0  0  0  0  0  0  0  0  0
    5.2161    0.5345   -1.5872 H   0  0  0  0  0  0  0  0  0  0  0  0
   -0.7391   -4.3716   -0.8467 H   0  0  0  0  0  0  0  0  0  0  0  0
    0.9180   -4.5689   -1.3467 H   0  0  0  0  0  0  0  0  0  0  0  0
    1.1361   -2.2127   -2.0688 H   0  0  0  0  0  0  0  0  0  0  0  0
    0.5620   -2.3274   -0.3665 H   0  0  0  0  0  0  0  0  0  0  0  0
   -0.6067   -1.9261   -1.6774 H   0  0  0  0  0  0  0  0  0  0  0  0
    1.5392   -6.2809   -2.5389 H   0  0  0  0  0  0  0  0  0  0  0  0
    3.0450   -5.8506   -1.6472 H   0  0  0  0  0  0  0  0  0  0  0  0
    3.3059   -7.9516   -2.9360 H   0  0  0  0  0  0  0  0  0  0  0  0
    2.8190   -7.1104   -4.4567 H   0  0  0  0  0  0  0  0  0  0  0  0
    4.3761   -6.6803   -3.6466 H   0  0  0  0  0  0  0  0  0  0  0  0
   10.1037   -6.3177    3.0578 H   0  0  0  0  0  0  0  0  0  0  0  0
    9.4684   -6.9882    1.5151 H   0  0  0  0  0  0  0  0  0  0  0  0
   11.6815   -4.8476    1.7875 H   0  0  0  0  0  0  0  0  0  0  0  0
   11.9201   -6.5864    1.3682 H   0  0  0  0  0  0  0  0  0  0  0  0
   11.0390   -5.5009    0.2270 H   0  0  0  0  0  0  0  0  0  0  0  0
    7.5243   -0.0625    3.8736 H   0  0  0  0  0  0  0  0  0  0  0  0
   11.8870    1.9568    6.6100 H   0  0  0  0  0  0  0  0  0  0  0  0
   14.2630    2.1283    6.0244 H   0  0  0  0  0  0  0  0  0  0  0  0
  1  2  2  3
  2  3  1  0
  3  4  2  0
  3  5  1  0
  5  6  2  0
  6  7  1  0
  7  8  2  0
  8  9  1  0
  9 10  1  0
  9 11  2  0
 11 12  1  0
  6 13  1  0
 13 14  2  3
 14 15  1  0
 15 16  3  0
 14 17  1  0
 17 18  3  0
  1 19  1  0
 19 20  2  0
 20 21  1  0
 21 22  1  0
 22 23  2  0
 23 24  1  0
 24 25  2  0
 25 26  1  0
 25 27  1  0
 27 28  2  0
 21 29  1  0
 29 30  2  0
 30 31  1  0
 31 32  2  0
 32 33  1  0
 32 34  1  0
 34 35  2  0
 20 36  1  0
 36 37  1  0
 37 38  1  0
 38 39  2  0
 39 40  1  0
 40 41  1  0
 41 42  2  0
 42 43  1  0
 43 44  2  0
 44 45  1  0
 44 46  1  0
 46 47  2  0
 40 48  1  0
 48 49  2  0
 49 50  1  0
 50 51  2  0
 51 52  1  0
 51 53  1  0
 53 54  2  0
 39 55  1  0
 55 56  1  0
 38 57  1  0
 57 58  2  0
 58 59  1  0
 59 60  2  0
 60 61  1  0
 61 62  2  0
 62 63  1  0
 63 64  1  0
 64 65  1  0
 63 66  2  0
 58 67  1  0
 67 68  1  0
 68 69  1  0
 69 70  1  0
 70 71  1  0
 71 72  1  0
 72 73  2  0
 73 74  1  0
 74 75  1  0
 72 76  1  0
 76 77  1  0
 77 78  1  0
 78 79  1  0
 79 80  1  0
 80 81  1  0
 81 82  2  0
 82 83  1  0
 83 84  2  0
 84 85  1  0
 85 86  1  0
 86 87  1  0
 85 88  2  0
 80 89  2  0
 89 90  1  0
 90 91  1  0
 91 92  1  0
 92 93  1  0
 93 94  1  0
 94 95  1  0
 95 96  1  0
 96 97  1  0
 97 98  1  0
 98 99  1  0
 96100  1  0
100101  1  0
 93102  1  0
102103  1  0
 89104  1  0
104105  1  0
105106  1  0
106107  2  0
107108  1  0
108109  2  0
108110  1  0
110111  1  0
111112  1  0
110113  1  0
113114  2  0
113115  1  0
106116  1  0
116117  2  3
117118  1  0
118119  2  0
118120  1  0
120121  2  0
121122  1  0
122123  2  0
123124  1  0
124125  1  0
124126  2  0
126127  1  0
121128  1  0
128129  2  3
129130  1  0
130131  3  0
129132  1  0
132133  3  0
 13  2  1  0
 56 19  1  0
 99 57  1  0
115104  2  0
128117  1  0
 11  5  1  0
 28 22  1  0
 35 29  1  0
 55 36  2  0
 66 59  1  0
 98 67  2  0
115107  1  0
126120  1  0
 47 41  1  0
 54 48  1  0
 97 69  2  0
 95 70  2  0
 75 71  2  0
 94 76  2  0
 92 77  2  0
 91 79  2  0
 88 81  1  0
  1134  1  0
  7135  1  0
  8136  1  0
 23137  1  0
 24138  1  0
 26139  1  0
 26140  1  0
 26141  1  0
 27142  1  0
 28143  1  0
 30144  1  0
 31145  1  0
 33146  1  0
 33147  1  0
 33148  1  0
 34149  1  0
 35150  1  0
 42151  1  0
 43152  1  0
 45153  1  0
 45154  1  0
 45155  1  0
 46156  1  0
 47157  1  0
 49158  1  0
 50159  1  0
 52160  1  0
 52161  1  0
 52162  1  0
 53163  1  0
 54164  1  0
 60165  1  0
 61166  1  0
 62167  1  0
 64168  1  0
 64169  1  0
 65170  1  0
 65171  1  0
 65172  1  0
 66173  1  0
 82174  1  0
 83175  1  0
 84176  1  0
 86177  1  0
 86178  1  0
 87179  1  0
 87180  1  0
 87181  1  0
 88182  1  0
100183  1  0
100184  1  0
101185  1  0
101186  1  0
101187  1  0
102188  1  0
102189  1  0
103190  1  0
103191  1  0
103192  1  0
111193  1  0
111194  1  0
112195  1  0
112196  1  0
112197  1  0
116198  1  0
122199  1  0
123200  1  0
M  END

