
     RDKit          3D

163182  0  0  0  0  0  0  0  0999 V2000
    8.6165    3.7811    2.0579 C   0  0  0  0  0  0  0  0  0  0  0  0
    8.5706    4.9484    2.7273 C   0  0  0  0  0  0  0  0  0  0  0  0
    7.8490    6.1547    2.3039 C   0  0  0  0  0  0  0  0  0  0  0  0
    6.9282    6.2083    1.4459 O   0  0  0  0  0  0  0  0  0  0  0  0
    8.3634    7.2850    3.0574 C   0  0  0  0  0  0  0  0  0  0  0  0
    9.2996    6.8253    3.9732 C   0  0  0  0  0  0  0  0  0  0  0  0
   10.0346    7.7404    4.7405 C   0  0  0  0  0  0  0  0  0  0  0  0
    9.7730    9.1123    4.6035 C   0  0  0  0  0  0  0  0  0  0  0  0
    8.8020    9.5721    3.6945 C   0  0  0  0  0  0  0  0  0  0  0  0
    8.5068   11.4618    3.5497 Br  0  0  0  0  0  0  0  0  0  0  0  0
    8.0902    8.6525    2.8979 C   0  0  0  0  0  0  0  0  0  0  0  0
    6.9009    9.2087    1.7228 Cl  0  0  0  0  0  0  0  0  0  0  0  0
    9.3915    5.3409    3.9096 C   0  0  0  0  0  0  0  0  0  0  0  0
    9.8657    4.5156    4.8796 C   0  0  0  0  0  0  0  0  0  0  0  0
    9.6459    3.0918    4.8568 C   0  0  0  0  0  0  0  0  0  0  0  0
    9.4682    1.9478    4.8485 N   0  0  0  0  0  0  0  0  0  0  0  0
   10.4898    5.0090    6.0805 C   0  0  0  0  0  0  0  0  0  0  0  0
   10.9907    5.3913    7.0506 N   0  0  0  0  0  0  0  0  0  0  0  0
    7.7769    3.4912    0.8833 C   0  0  0  0  0  0  0  0  0  0  0  0
    7.9891    4.1067   -0.3638 C   0  0  0  0  0  0  0  0  0  0  0  0
    7.1021    3.8602   -1.4620 C   0  0  0  0  0  0  0  0  0  0  0  0
    7.3538    4.5489   -2.6050 N   0  0  0  0  0  0  0  0  0  0  0  0
    8.6938    5.4043   -2.1534 S   0  0  0  0  0  0  0  0  0  0  0  0
    9.0011    4.9859   -0.5849 N   0  0  0  0  0  0  0  0  0  0  0  0
    6.0115    2.9797   -1.3220 C   0  0  0  0  0  0  0  0  0  0  0  0
    5.8516    2.3227   -0.0834 C   0  0  0  0  0  0  0  0  0  0  0  0
    4.8573    1.3824    0.2409 C   0  0  0  0  0  0  0  0  0  0  0  0
    4.9371    0.9396    1.5582 C   0  0  0  0  0  0  0  0  0  0  0  0
    4.0201   -0.0150    2.1908 C   0  0  0  0  0  0  0  0  0  0  0  0
    3.1583   -0.6142    1.4893 O   0  0  0  0  0  0  0  0  0  0  0  0
    4.1063   -0.2486    3.5693 O   0  0  0  0  0  0  0  0  0  0  0  0
    3.2040   -1.0980    4.2776 C   0  0  0  0  0  0  0  0  0  0  0  0
    1.8503   -0.4191    4.4579 C   0  0  0  0  0  0  0  0  0  0  0  0
    6.2406    1.6905    2.3212 S   0  0  0  0  0  0  0  0  0  0  0  0
    6.7159    2.5847    0.9781 C   0  0  0  0  0  0  0  0  0  0  0  0
    4.9844    2.8674   -2.3756 C   0  0  0  0  0  0  0  0  0  0  0  0
    5.1413    2.3226   -3.6632 C   0  0  0  0  0  0  0  0  0  0  0  0
    6.3814    1.7135   -4.1601 C   0  0  0  0  0  0  0  0  0  0  0  0
    7.2430    2.4430   -4.9884 C   0  0  0  0  0  0  0  0  0  0  0  0
    8.4271    1.8649   -5.4474 C   0  0  0  0  0  0  0  0  0  0  0  0
    8.7486    0.5491   -5.0977 C   0  0  0  0  0  0  0  0  0  0  0  0
    7.8885   -0.1947   -4.2725 C   0  0  0  0  0  0  0  0  0  0  0  0
    8.2045   -1.6316   -3.9493 C   0  0  0  0  0  0  0  0  0  0  0  0
    7.6551   -2.5560   -5.0323 C   0  0  0  0  0  0  0  0  0  0  0  0
    6.7004    0.3927   -3.8087 C   0  0  0  0  0  0  0  0  0  0  0  0
    3.9108    2.2407   -4.3242 C   0  0  0  0  0  0  0  0  0  0  0  0
    3.3996    1.4378   -5.7357 S   0  0  0  0  0  0  0  0  0  0  0  0
    1.7657    1.7600   -5.3851 C   0  0  0  0  0  0  0  0  0  0  0  0
    0.5867    1.1195   -5.6572 C   0  0  0  0  0  0  0  0  0  0  0  0
    0.3363    0.0706   -6.5521 C   0  0  0  0  0  0  0  0  0  0  0  0
   -0.8634   -0.6821   -6.4144 C   0  0  0  0  0  0  0  0  0  0  0  0
   -1.0420   -1.7232   -7.2634 N   0  0  0  0  0  0  0  0  0  0  0  0
    0.3601   -1.6128   -8.1374 S   0  0  0  0  0  0  0  0  0  0  0  0
    1.2015   -0.3295   -7.5154 N   0  0  0  0  0  0  0  0  0  0  0  0
   -1.7685   -0.3182   -5.4172 C   0  0  0  0  0  0  0  0  0  0  0  0
   -2.9288   -0.9098   -5.0042 C   0  0  0  0  0  0  0  0  0  0  0  0
   -3.7614   -2.3821   -5.1845 S   0  0  0  0  0  0  0  0  0  0  0  0
   -4.7221   -2.0437   -3.8082 C   0  0  0  0  0  0  0  0  0  0  0  0
   -5.5648   -2.8222   -3.0052 C   0  0  0  0  0  0  0  0  0  0  0  0
   -6.1202   -4.1360   -3.3952 C   0  0  0  0  0  0  0  0  0  0  0  0
   -7.4917   -4.3838   -3.2288 C   0  0  0  0  0  0  0  0  0  0  0  0
   -8.0311   -5.6266   -3.5667 C   0  0  0  0  0  0  0  0  0  0  0  0
   -7.2051   -6.6372   -4.0640 C   0  0  0  0  0  0  0  0  0  0  0  0
   -5.8316   -6.4050   -4.2356 C   0  0  0  0  0  0  0  0  0  0  0  0
   -4.9294   -7.5186   -4.6936 C   0  0  0  0  0  0  0  0  0  0  0  0
   -4.4800   -8.3667   -3.5097 C   0  0  0  0  0  0  0  0  0  0  0  0
   -5.2940   -5.1533   -3.8972 C   0  0  0  0  0  0  0  0  0  0  0  0
   -5.8164   -2.1819   -1.7696 C   0  0  0  0  0  0  0  0  0  0  0  0
   -5.0179   -0.6776   -1.7291 S   0  0  0  0  0  0  0  0  0  0  0  0
   -4.3850   -0.8314   -3.2636 C   0  0  0  0  0  0  0  0  0  0  0  0
   -3.3731   -0.1933   -3.9522 C   0  0  0  0  0  0  0  0  0  0  0  0
   -2.6025    0.8770   -3.6563 N   0  0  0  0  0  0  0  0  0  0  0  0
   -1.5461    0.7604   -4.5329 C   0  0  0  0  0  0  0  0  0  0  0  0
   -0.2917    1.4459   -4.6031 C   0  0  0  0  0  0  0  0  0  0  0  0
    0.3720    2.1946   -3.6532 N   0  0  0  0  0  0  0  0  0  0  0  0
    1.6082    2.3867   -4.1882 C   0  0  0  0  0  0  0  0  0  0  0  0
    2.8345    2.6845   -3.5982 C   0  0  0  0  0  0  0  0  0  0  0  0
    3.3464    3.2206   -2.1003 S   0  0  0  0  0  0  0  0  0  0  0  0
    0.1013    2.2856   -2.2132 C   0  0  0  0  0  0  0  0  0  0  0  0
    0.2593    0.9274   -1.5349 C   0  0  0  0  0  0  0  0  0  0  0  0
   -3.1545    2.0444   -2.9504 C   0  0  0  0  0  0  0  0  0  0  0  0
   -2.9561    3.3484   -3.7286 C   0  0  0  0  0  0  0  0  0  0  0  0
   -6.3184   -2.8243   -0.5344 C   0  0  0  0  0  0  0  0  0  0  0  0
   -5.7753   -4.0420   -0.0685 C   0  0  0  0  0  0  0  0  0  0  0  0
   -6.1224   -4.5585    1.2240 C   0  0  0  0  0  0  0  0  0  0  0  0
   -5.5258   -5.7229    1.5912 N   0  0  0  0  0  0  0  0  0  0  0  0
   -4.5824   -6.0165    0.2684 S   0  0  0  0  0  0  0  0  0  0  0  0
   -4.8607   -4.7645   -0.7691 N   0  0  0  0  0  0  0  0  0  0  0  0
   -6.9829   -3.8430    2.0760 C   0  0  0  0  0  0  0  0  0  0  0  0
   -7.5303   -2.6398    1.5972 C   0  0  0  0  0  0  0  0  0  0  0  0
   -8.3832   -1.7855    2.3142 C   0  0  0  0  0  0  0  0  0  0  0  0
   -8.7346   -0.6435    1.5974 C   0  0  0  0  0  0  0  0  0  0  0  0
   -9.5605    0.4638    2.0991 C   0  0  0  0  0  0  0  0  0  0  0  0
   -9.9612    0.4561    3.2940 O   0  0  0  0  0  0  0  0  0  0  0  0
   -9.8824    1.5249    1.2465 O   0  0  0  0  0  0  0  0  0  0  0  0
  -10.5357    2.7134    1.6892 C   0  0  0  0  0  0  0  0  0  0  0  0
   -9.5477    3.6278    2.4011 C   0  0  0  0  0  0  0  0  0  0  0  0
   -7.9867   -0.6865    0.0850 S   0  0  0  0  0  0  0  0  0  0  0  0
   -7.2040   -2.1564    0.3265 C   0  0  0  0  0  0  0  0  0  0  0  0
   -7.2636   -4.3152    3.4442 C   0  0  0  0  0  0  0  0  0  0  0  0
   -6.3814   -4.1907    4.4553 C   0  0  0  0  0  0  0  0  0  0  0  0
   -4.9953   -3.7159    4.3279 C   0  0  0  0  0  0  0  0  0  0  0  0
   -4.4976   -3.1384    3.3289 O   0  0  0  0  0  0  0  0  0  0  0  0
   -4.2781   -4.0580    5.5457 C   0  0  0  0  0  0  0  0  0  0  0  0
   -5.1562   -4.6651    6.4311 C   0  0  0  0  0  0  0  0  0  0  0  0
   -4.6747   -5.1724    7.6464 C   0  0  0  0  0  0  0  0  0  0  0  0
   -3.3203   -5.0064    7.9708 C   0  0  0  0  0  0  0  0  0  0  0  0
   -2.4465   -4.3499    7.0872 C   0  0  0  0  0  0  0  0  0  0  0  0
   -0.6135   -4.1471    7.6017 Br  0  0  0  0  0  0  0  0  0  0  0  0
   -2.9194   -3.8792    5.8486 C   0  0  0  0  0  0  0  0  0  0  0  0
   -1.8293   -3.0936    4.7090 Cl  0  0  0  0  0  0  0  0  0  0  0  0
   -6.5346   -4.6799    5.8587 C   0  0  0  0  0  0  0  0  0  0  0  0
   -7.6988   -4.8571    6.5383 C   0  0  0  0  0  0  0  0  0  0  0  0
   -7.7408   -5.2038    7.9345 C   0  0  0  0  0  0  0  0  0  0  0  0
   -7.7959   -5.4763    9.0570 N   0  0  0  0  0  0  0  0  0  0  0  0
   -8.9850   -4.5548    5.9601 C   0  0  0  0  0  0  0  0  0  0  0  0
  -10.0247   -4.3127    5.5103 N   0  0  0  0  0  0  0  0  0  0  0  0
    9.2743    2.9897    2.3782 H   0  0  0  0  0  0  0  0  0  0  0  0
   10.8276    7.4314    5.4000 H   0  0  0  0  0  0  0  0  0  0  0  0
   10.3397    9.8231    5.1915 H   0  0  0  0  0  0  0  0  0  0  0  0
    4.1031    1.0306   -0.4512 H   0  0  0  0  0  0  0  0  0  0  0  0
    3.0834   -2.0639    3.7387 H   0  0  0  0  0  0  0  0  0  0  0  0
    3.6297   -1.3116    5.2795 H   0  0  0  0  0  0  0  0  0  0  0  0
    1.1591   -1.0942    5.0098 H   0  0  0  0  0  0  0  0  0  0  0  0
    1.3942   -0.1895    3.4718 H   0  0  0  0  0  0  0  0  0  0  0  0
    1.9676    0.5191    5.0394 H   0  0  0  0  0  0  0  0  0  0  0  0
    7.0002    3.4623   -5.2664 H   0  0  0  0  0  0  0  0  0  0  0  0
    9.0953    2.4309   -6.0820 H   0  0  0  0  0  0  0  0  0  0  0  0
    9.6643    0.1102   -5.4689 H   0  0  0  0  0  0  0  0  0  0  0  0
    9.3058   -1.7694   -3.8737 H   0  0  0  0  0  0  0  0  0  0  0  0
    7.7634   -1.9127   -2.9673 H   0  0  0  0  0  0  0  0  0  0  0  0
    7.9601   -3.6035   -4.8222 H   0  0  0  0  0  0  0  0  0  0  0  0
    6.5427   -2.5039   -5.0535 H   0  0  0  0  0  0  0  0  0  0  0  0
    8.0543   -2.2608   -6.0287 H   0  0  0  0  0  0  0  0  0  0  0  0
    6.0208   -0.1801   -3.1848 H   0  0  0  0  0  0  0  0  0  0  0  0
   -8.1478   -3.6119   -2.8474 H   0  0  0  0  0  0  0  0  0  0  0  0
   -9.0918   -5.8106   -3.4383 H   0  0  0  0  0  0  0  0  0  0  0  0
   -7.6318   -7.6025   -4.3105 H   0  0  0  0  0  0  0  0  0  0  0  0
   -5.4623   -8.1609   -5.4276 H   0  0  0  0  0  0  0  0  0  0  0  0
   -4.0359   -7.1016   -5.2058 H   0  0  0  0  0  0  0  0  0  0  0  0
   -3.8174   -9.1811   -3.8680 H   0  0  0  0  0  0  0  0  0  0  0  0
   -3.9179   -7.7440   -2.7806 H   0  0  0  0  0  0  0  0  0  0  0  0
   -5.3580   -8.8172   -3.0010 H   0  0  0  0  0  0  0  0  0  0  0  0
   -4.2278   -4.9877   -3.9878 H   0  0  0  0  0  0  0  0  0  0  0  0
   -0.8689    2.7303   -2.0158 H   0  0  0  0  0  0  0  0  0  0  0  0
    0.7772    3.0114   -1.7332 H   0  0  0  0  0  0  0  0  0  0  0  0
   -0.4807    0.2033   -1.9374 H   0  0  0  0  0  0  0  0  0  0  0  0
    0.0884    1.0328   -0.4419 H   0  0  0  0  0  0  0  0  0  0  0  0
    1.2847    0.5336   -1.7061 H   0  0  0  0  0  0  0  0  0  0  0  0
   -4.2555    1.9264   -2.8503 H   0  0  0  0  0  0  0  0  0  0  0  0
   -2.8052    2.0811   -1.9030 H   0  0  0  0  0  0  0  0  0  0  0  0
   -3.4679    4.1758   -3.1929 H   0  0  0  0  0  0  0  0  0  0  0  0
   -3.3997    3.2529   -4.7415 H   0  0  0  0  0  0  0  0  0  0  0  0
   -1.8888    3.6151   -3.8319 H   0  0  0  0  0  0  0  0  0  0  0  0
   -8.7208   -1.9783    3.3246 H   0  0  0  0  0  0  0  0  0  0  0  0
  -11.3894    2.4647    2.3581 H   0  0  0  0  0  0  0  0  0  0  0  0
  -10.9394    3.2465    0.8031 H   0  0  0  0  0  0  0  0  0  0  0  0
  -10.0506    4.5791    2.6785 H   0  0  0  0  0  0  0  0  0  0  0  0
   -9.1691    3.1442    3.3256 H   0  0  0  0  0  0  0  0  0  0  0  0
   -8.6983    3.8544    1.7270 H   0  0  0  0  0  0  0  0  0  0  0  0
   -8.2176   -4.7889    3.5929 H   0  0  0  0  0  0  0  0  0  0  0  0
   -5.2987   -5.7212    8.3327 H   0  0  0  0  0  0  0  0  0  0  0  0
   -2.9469   -5.3928    8.9103 H   0  0  0  0  0  0  0  0  0  0  0  0
  1  2  2  3
  2  3  1  0
  3  4  2  0
  3  5  1  0
  5  6  2  0
  6  7  1  0
  7  8  2  0
  8  9  1  0
  9 10  1  0
  9 11  2  0
 11 12  1  0
  6 13  1  0
 13 14  2  3
 14 15  1  0
 15 16  3  0
 14 17  1  0
 17 18  3  0
  1 19  1  0
 19 20  1  0
 20 21  1  0
 21 22  2  0
 22 23  1  0
 23 24  1  0
 21 25  1  0
 25 26  2  0
 26 27  1  0
 27 28  2  0
 28 29  1  0
 29 30  2  0
 29 31  1  0
 31 32  1  0
 32 33  1  0
 28 34  1  0
 34 35  1  0
 25 36  1  0
 36 37  2  0
 37 38  1  0
 38 39  2  0
 39 40  1  0
 40 41  2  0
 41 42  1  0
 42 43  1  0
 43 44  1  0
 42 45  2  0
 37 46  1  0
 46 47  1  0
 47 48  1  0
 48 49  1  0
 49 50  1  0
 50 51  1  0
 51 52  2  0
 52 53  1  0
 53 54  1  0
 51 55  1  0
 55 56  1  0
 56 57  1  0
 57 58  1  0
 58 59  1  0
 59 60  1  0
 60 61  2  0
 61 62  1  0
 62 63  2  0
 63 64  1  0
 64 65  1  0
 65 66  1  0
 64 67  2  0
 59 68  2  0
 68 69  1  0
 69 70  1  0
 70 71  1  0
 71 72  1  0
 72 73  1  0
 73 74  1  0
 74 75  1  0
 75 76  1  0
 76 77  1  0
 77 78  1  0
 75 79  1  0
 79 80  1  0
 72 81  1  0
 81 82  1  0
 68 83  1  0
 83 84  1  0
 84 85  1  0
 85 86  2  0
 86 87  1  0
 87 88  1  0
 85 89  1  0
 89 90  2  0
 90 91  1  0
 91 92  2  0
 92 93  1  0
 93 94  2  0
 93 95  1  0
 95 96  1  0
 96 97  1  0
 92 98  1  0
 98 99  1  0
 89100  1  0
100101  2  3
101102  1  0
102103  2  0
102104  1  0
104105  2  0
105106  1  0
106107  2  0
107108  1  0
108109  1  0
108110  2  0
110111  1  0
105112  1  0
112113  2  3
113114  1  0
114115  3  0
113116  1  0
116117  3  0
 13  2  1  0
 35 19  2  0
 78 36  1  0
 99 83  2  0
112101  1  0
 11  5  1  0
 24 20  2  0
 35 26  1  0
 45 38  1  0
 77 46  2  0
 88 84  2  0
 99 90  1  0
110104  1  0
 76 48  2  0
 74 49  2  0
 54 50  2  0
 73 55  2  0
 71 56  2  0
 70 58  2  0
 67 60  1  0
  1118  1  0
  7119  1  0
  8120  1  0
 27121  1  0
 32122  1  0
 32123  1  0
 33124  1  0
 33125  1  0
 33126  1  0
 39127  1  0
 40128  1  0
 41129  1  0
 43130  1  0
 43131  1  0
 44132  1  0
 44133  1  0
 44134  1  0
 45135  1  0
 61136  1  0
 62137  1  0
 63138  1  0
 65139  1  0
 65140  1  0
 66141  1  0
 66142  1  0
 66143  1  0
 67144  1  0
 79145  1  0
 79146  1  0
 80147  1  0
 80148  1  0
 80149  1  0
 81150  1  0
 81151  1  0
 82152  1  0
 82153  1  0
 82154  1  0
 91155  1  0
 96156  1  0
 96157  1  0
 97158  1  0
 97159  1  0
 97160  1  0
100161  1  0
106162  1  0
107163  1  0
M  END

