
     RDKit          3D

187206  0  0  0  0  0  0  0  0999 V2000
    4.2572    3.4287   -6.3807 C   0  0  0  0  0  0  0  0  0  0  0  0
    5.0387    3.2055   -7.4523 C   0  0  0  0  0  0  0  0  0  0  0  0
    5.0090    1.9952   -8.2816 C   0  0  0  0  0  0  0  0  0  0  0  0
    4.0664    1.1602   -8.3405 O   0  0  0  0  0  0  0  0  0  0  0  0
    6.2658    1.8991   -9.0029 C   0  0  0  0  0  0  0  0  0  0  0  0
    7.0427    3.0087   -8.7073 C   0  0  0  0  0  0  0  0  0  0  0  0
    8.3574    3.0884   -9.1941 C   0  0  0  0  0  0  0  0  0  0  0  0
    8.8479    2.0556  -10.0028 C   0  0  0  0  0  0  0  0  0  0  0  0
    8.0498    0.9424  -10.3141 C   0  0  0  0  0  0  0  0  0  0  0  0
    8.7961   -0.4369  -11.4179 Br  0  0  0  0  0  0  0  0  0  0  0  0
    6.7437    0.8489   -9.7993 C   0  0  0  0  0  0  0  0  0  0  0  0
    5.7426   -0.5589  -10.1343 Cl  0  0  0  0  0  0  0  0  0  0  0  0
    6.2880    3.9355   -7.8131 C   0  0  0  0  0  0  0  0  0  0  0  0
    6.5786    5.2347   -7.5409 C   0  0  0  0  0  0  0  0  0  0  0  0
    5.6629    6.1037   -6.8459 C   0  0  0  0  0  0  0  0  0  0  0  0
    4.9325    6.8060   -6.2863 N   0  0  0  0  0  0  0  0  0  0  0  0
    7.7651    5.8831   -8.0273 C   0  0  0  0  0  0  0  0  0  0  0  0
    8.7185    6.4207   -8.4049 N   0  0  0  0  0  0  0  0  0  0  0  0
    3.2219    2.4778   -5.9605 C   0  0  0  0  0  0  0  0  0  0  0  0
    3.3129    1.5802   -4.8797 C   0  0  0  0  0  0  0  0  0  0  0  0
    4.3868    1.5795   -3.9097 N   0  0  0  0  0  0  0  0  0  0  0  0
    4.0818    1.5481   -2.5008 C   0  0  0  0  0  0  0  0  0  0  0  0
    3.0908    2.3896   -1.9662 C   0  0  0  0  0  0  0  0  0  0  0  0
    2.7325    2.2941   -0.6185 C   0  0  0  0  0  0  0  0  0  0  0  0
    3.3645    1.3576    0.2156 C   0  0  0  0  0  0  0  0  0  0  0  0
    3.0015    1.2666    1.6664 C   0  0  0  0  0  0  0  0  0  0  0  0
    4.3887    0.5495   -0.3055 C   0  0  0  0  0  0  0  0  0  0  0  0
    4.7443    0.6438   -1.6554 C   0  0  0  0  0  0  0  0  0  0  0  0
    5.7510    1.7764   -4.3210 C   0  0  0  0  0  0  0  0  0  0  0  0
    6.3303    0.9422   -5.2892 C   0  0  0  0  0  0  0  0  0  0  0  0
    7.6464    1.1555   -5.7088 C   0  0  0  0  0  0  0  0  0  0  0  0
    8.3924    2.2217   -5.1811 C   0  0  0  0  0  0  0  0  0  0  0  0
    9.8100    2.4391   -5.6252 C   0  0  0  0  0  0  0  0  0  0  0  0
    7.8188    3.0485   -4.2016 C   0  0  0  0  0  0  0  0  0  0  0  0
    6.5098    2.8218   -3.7717 C   0  0  0  0  0  0  0  0  0  0  0  0
    2.1018    0.9048   -4.7032 C   0  0  0  0  0  0  0  0  0  0  0  0
    1.4949   -0.0739   -3.4896 S   0  0  0  0  0  0  0  0  0  0  0  0
   -0.1260    0.0391   -3.9882 C   0  0  0  0  0  0  0  0  0  0  0  0
   -0.1943    0.8828   -5.1214 C   0  0  0  0  0  0  0  0  0  0  0  0
   -1.3954    1.5301   -5.5849 N   0  0  0  0  0  0  0  0  0  0  0  0
   -1.6648    1.6331   -7.0064 C   0  0  0  0  0  0  0  0  0  0  0  0
   -2.3830    2.7275   -7.5303 C   0  0  0  0  0  0  0  0  0  0  0  0
   -2.6360    2.8235   -8.9005 C   0  0  0  0  0  0  0  0  0  0  0  0
   -2.1575    1.8428   -9.7792 C   0  0  0  0  0  0  0  0  0  0  0  0
   -2.4523    1.9324  -11.2492 C   0  0  0  0  0  0  0  0  0  0  0  0
   -1.4515    0.7451   -9.2673 C   0  0  0  0  0  0  0  0  0  0  0  0
   -1.1987    0.6454   -7.8964 C   0  0  0  0  0  0  0  0  0  0  0  0
   -2.2174    2.2169   -4.6182 C   0  0  0  0  0  0  0  0  0  0  0  0
   -1.6295    3.0635   -3.6641 C   0  0  0  0  0  0  0  0  0  0  0  0
   -2.4160    3.6984   -2.7019 C   0  0  0  0  0  0  0  0  0  0  0  0
   -3.8014    3.4861   -2.6701 C   0  0  0  0  0  0  0  0  0  0  0  0
   -4.6548    4.1887   -1.6570 C   0  0  0  0  0  0  0  0  0  0  0  0
   -4.3947    2.6434   -3.6251 C   0  0  0  0  0  0  0  0  0  0  0  0
   -3.6053    2.0134   -4.5943 C   0  0  0  0  0  0  0  0  0  0  0  0
    1.0835    1.3044   -5.5127 C   0  0  0  0  0  0  0  0  0  0  0  0
    1.6286    2.4944   -6.5635 S   0  0  0  0  0  0  0  0  0  0  0  0
   -1.2277   -0.3177   -3.0865 C   0  0  0  0  0  0  0  0  0  0  0  0
   -2.1432   -1.3824   -3.2476 C   0  0  0  0  0  0  0  0  0  0  0  0
   -2.2363   -2.2678   -4.4282 C   0  0  0  0  0  0  0  0  0  0  0  0
   -2.5294   -1.7382   -5.6922 C   0  0  0  0  0  0  0  0  0  0  0  0
   -2.6557   -2.5774   -6.7990 C   0  0  0  0  0  0  0  0  0  0  0  0
   -2.5125   -3.9578   -6.6511 C   0  0  0  0  0  0  0  0  0  0  0  0
   -2.2340   -4.5070   -5.3902 C   0  0  0  0  0  0  0  0  0  0  0  0
   -2.1894   -6.0016   -5.2077 C   0  0  0  0  0  0  0  0  0  0  0  0
   -3.5820   -6.5448   -4.9013 C   0  0  0  0  0  0  0  0  0  0  0  0
   -2.0998   -3.6589   -4.2820 C   0  0  0  0  0  0  0  0  0  0  0  0
   -2.8447   -1.6081   -2.0599 C   0  0  0  0  0  0  0  0  0  0  0  0
   -3.9976   -2.7763   -1.5667 S   0  0  0  0  0  0  0  0  0  0  0  0
   -3.9577   -2.1790    0.0236 C   0  0  0  0  0  0  0  0  0  0  0  0
   -4.5715   -2.3564    1.2312 C   0  0  0  0  0  0  0  0  0  0  0  0
   -5.6511   -3.1539    1.6315 C   0  0  0  0  0  0  0  0  0  0  0  0
   -6.1589   -3.0020    2.9578 C   0  0  0  0  0  0  0  0  0  0  0  0
   -7.2062   -3.7883    3.3080 N   0  0  0  0  0  0  0  0  0  0  0  0
   -7.4279   -4.6055    1.8835 S   0  0  0  0  0  0  0  0  0  0  0  0
   -6.2766   -4.0492    0.8287 N   0  0  0  0  0  0  0  0  0  0  0  0
   -5.5298   -2.0933    3.8196 C   0  0  0  0  0  0  0  0  0  0  0  0
   -5.6431   -1.8905    5.1645 C   0  0  0  0  0  0  0  0  0  0  0  0
   -6.4902   -2.5501    6.4800 S   0  0  0  0  0  0  0  0  0  0  0  0
   -5.4257   -1.7909    7.5796 C   0  0  0  0  0  0  0  0  0  0  0  0
   -5.3306   -1.7611    8.9733 C   0  0  0  0  0  0  0  0  0  0  0  0
   -6.3024   -2.4100    9.8819 C   0  0  0  0  0  0  0  0  0  0  0  0
   -6.8988   -1.6711   10.9169 C   0  0  0  0  0  0  0  0  0  0  0  0
   -7.8483   -2.2639   11.7538 C   0  0  0  0  0  0  0  0  0  0  0  0
   -8.2026   -3.6022   11.5726 C   0  0  0  0  0  0  0  0  0  0  0  0
   -7.6015   -4.3625   10.5555 C   0  0  0  0  0  0  0  0  0  0  0  0
   -8.0048   -5.7994   10.3451 C   0  0  0  0  0  0  0  0  0  0  0  0
   -9.1349   -5.9042    9.3249 C   0  0  0  0  0  0  0  0  0  0  0  0
   -6.6623   -3.7563    9.7042 C   0  0  0  0  0  0  0  0  0  0  0  0
   -4.2188   -0.9952    9.3904 C   0  0  0  0  0  0  0  0  0  0  0  0
   -3.3767   -0.4182    8.0150 S   0  0  0  0  0  0  0  0  0  0  0  0
   -4.4440   -1.0956    6.9210 C   0  0  0  0  0  0  0  0  0  0  0  0
   -4.5765   -1.1439    5.5465 C   0  0  0  0  0  0  0  0  0  0  0  0
   -3.7405   -0.8439    4.5203 N   0  0  0  0  0  0  0  0  0  0  0  0
   -4.3992   -1.3560    3.4328 C   0  0  0  0  0  0  0  0  0  0  0  0
   -3.9835   -1.4110    2.0856 C   0  0  0  0  0  0  0  0  0  0  0  0
   -3.1336   -0.5817    1.4036 N   0  0  0  0  0  0  0  0  0  0  0  0
   -3.1141   -1.1280    0.1638 C   0  0  0  0  0  0  0  0  0  0  0  0
   -2.4982   -0.7818   -1.0241 C   0  0  0  0  0  0  0  0  0  0  0  0
   -1.2974    0.2791   -1.4875 S   0  0  0  0  0  0  0  0  0  0  0  0
   -2.8577    0.8355    1.6877 C   0  0  0  0  0  0  0  0  0  0  0  0
   -3.8233    1.7462    0.9295 C   0  0  0  0  0  0  0  0  0  0  0  0
   -2.2816   -0.7045    4.6722 C   0  0  0  0  0  0  0  0  0  0  0  0
   -1.6497   -2.0244    5.1144 C   0  0  0  0  0  0  0  0  0  0  0  0
   -3.7546   -0.8815   10.7957 C   0  0  0  0  0  0  0  0  0  0  0  0
   -2.9271    0.0599   11.2692 C   0  0  0  0  0  0  0  0  0  0  0  0
   -2.5434    1.2627   10.5138 C   0  0  0  0  0  0  0  0  0  0  0  0
   -1.3034    1.4986   10.0583 C   0  0  0  0  0  0  0  0  0  0  0  0
   -1.0626    2.4194    8.9494 C   0  0  0  0  0  0  0  0  0  0  0  0
   -1.7750    3.4118    8.6472 O   0  0  0  0  0  0  0  0  0  0  0  0
    0.0855    1.9430    8.2046 C   0  0  0  0  0  0  0  0  0  0  0  0
    0.6027    2.4352    7.0079 C   0  0  0  0  0  0  0  0  0  0  0  0
    1.6722    1.7527    6.4103 C   0  0  0  0  0  0  0  0  0  0  0  0
    2.3446    2.3881    4.9205 Cl  0  0  0  0  0  0  0  0  0  0  0  0
    2.1709    0.5667    6.9945 C   0  0  0  0  0  0  0  0  0  0  0  0
    3.5683   -0.4407    6.1608 Br  0  0  0  0  0  0  0  0  0  0  0  0
    1.6266    0.0907    8.2017 C   0  0  0  0  0  0  0  0  0  0  0  0
    0.5938    0.8137    8.8166 C   0  0  0  0  0  0  0  0  0  0  0  0
   -0.1352    0.5728   10.0914 C   0  0  0  0  0  0  0  0  0  0  0  0
    0.3869   -0.0059   11.2011 C   0  0  0  0  0  0  0  0  0  0  0  0
    1.5806   -0.8153   11.1643 C   0  0  0  0  0  0  0  0  0  0  0  0
    2.5372   -1.4663   11.1558 N   0  0  0  0  0  0  0  0  0  0  0  0
   -0.0741    0.3504   12.5159 C   0  0  0  0  0  0  0  0  0  0  0  0
   -0.4158    0.6476   13.5788 N   0  0  0  0  0  0  0  0  0  0  0  0
    4.4941    4.2106   -5.6783 H   0  0  0  0  0  0  0  0  0  0  0  0
    9.0222    3.8949   -8.9378 H   0  0  0  0  0  0  0  0  0  0  0  0
    9.8606    2.1201  -10.3831 H   0  0  0  0  0  0  0  0  0  0  0  0
    2.5797    3.0999   -2.6027 H   0  0  0  0  0  0  0  0  0  0  0  0
    1.9549    2.9386   -0.2300 H   0  0  0  0  0  0  0  0  0  0  0  0
    1.9521    1.5919    1.8332 H   0  0  0  0  0  0  0  0  0  0  0  0
    3.0986    0.2212    2.0295 H   0  0  0  0  0  0  0  0  0  0  0  0
    3.6827    1.9162    2.2543 H   0  0  0  0  0  0  0  0  0  0  0  0
    4.9037   -0.1587    0.3327 H   0  0  0  0  0  0  0  0  0  0  0  0
    5.5190   -0.0043   -2.0469 H   0  0  0  0  0  0  0  0  0  0  0  0
    5.7592    0.1285   -5.7202 H   0  0  0  0  0  0  0  0  0  0  0  0
    8.0851    0.5010   -6.4544 H   0  0  0  0  0  0  0  0  0  0  0  0
    9.8767    2.3670   -6.7310 H   0  0  0  0  0  0  0  0  0  0  0  0
   10.1783    3.4431   -5.3213 H   0  0  0  0  0  0  0  0  0  0  0  0
   10.4629    1.6642   -5.1697 H   0  0  0  0  0  0  0  0  0  0  0  0
    8.3821    3.8705   -3.7759 H   0  0  0  0  0  0  0  0  0  0  0  0
    6.0743    3.4789   -3.0303 H   0  0  0  0  0  0  0  0  0  0  0  0
   -2.7410    3.5155   -6.8798 H   0  0  0  0  0  0  0  0  0  0  0  0
   -3.1944    3.6713   -9.2773 H   0  0  0  0  0  0  0  0  0  0  0  0
   -1.6289    1.4754  -11.8371 H   0  0  0  0  0  0  0  0  0  0  0  0
   -3.3971    1.3938  -11.4670 H   0  0  0  0  0  0  0  0  0  0  0  0
   -2.5542    2.9924  -11.5643 H   0  0  0  0  0  0  0  0  0  0  0  0
   -1.0920   -0.0314   -9.9325 H   0  0  0  0  0  0  0  0  0  0  0  0
   -0.6468   -0.2116   -7.5315 H   0  0  0  0  0  0  0  0  0  0  0  0
   -0.5596    3.2298   -3.6668 H   0  0  0  0  0  0  0  0  0  0  0  0
   -1.9424    4.3520   -1.9780 H   0  0  0  0  0  0  0  0  0  0  0  0
   -4.0416    4.5550   -0.8058 H   0  0  0  0  0  0  0  0  0  0  0  0
   -5.4233    3.4952   -1.2544 H   0  0  0  0  0  0  0  0  0  0  0  0
   -5.1599    5.0550   -2.1353 H   0  0  0  0  0  0  0  0  0  0  0  0
   -5.4644    2.4789   -3.6217 H   0  0  0  0  0  0  0  0  0  0  0  0
   -4.0734    1.3589   -5.3178 H   0  0  0  0  0  0  0  0  0  0  0  0
   -2.7109   -0.6849   -5.8090 H   0  0  0  0  0  0  0  0  0  0  0  0
   -2.8906   -2.1596   -7.7707 H   0  0  0  0  0  0  0  0  0  0  0  0
   -2.6419   -4.6012   -7.5129 H   0  0  0  0  0  0  0  0  0  0  0  0
   -1.5006   -6.2643   -4.3758 H   0  0  0  0  0  0  0  0  0  0  0  0
   -1.7997   -6.4902   -6.1278 H   0  0  0  0  0  0  0  0  0  0  0  0
   -3.5272   -7.6455   -4.7681 H   0  0  0  0  0  0  0  0  0  0  0  0
   -4.2742   -6.3233   -5.7408 H   0  0  0  0  0  0  0  0  0  0  0  0
   -3.9767   -6.0904   -3.9680 H   0  0  0  0  0  0  0  0  0  0  0  0
   -1.8979   -4.0789   -3.3060 H   0  0  0  0  0  0  0  0  0  0  0  0
   -6.6487   -0.6253   11.0603 H   0  0  0  0  0  0  0  0  0  0  0  0
   -8.3180   -1.6792   12.5372 H   0  0  0  0  0  0  0  0  0  0  0  0
   -8.9456   -4.0464   12.2256 H   0  0  0  0  0  0  0  0  0  0  0  0
   -8.3349   -6.2516   11.3062 H   0  0  0  0  0  0  0  0  0  0  0  0
   -7.1337   -6.3888    9.9862 H   0  0  0  0  0  0  0  0  0  0  0  0
   -9.4169   -6.9706    9.1943 H   0  0  0  0  0  0  0  0  0  0  0  0
   -8.8052   -5.5008    8.3438 H   0  0  0  0  0  0  0  0  0  0  0  0
  -10.0261   -5.3398    9.6738 H   0  0  0  0  0  0  0  0  0  0  0  0
   -6.2095   -4.3362    8.9095 H   0  0  0  0  0  0  0  0  0  0  0  0
   -1.8115    1.0787    1.4029 H   0  0  0  0  0  0  0  0  0  0  0  0
   -2.9947    1.0684    2.7608 H   0  0  0  0  0  0  0  0  0  0  0  0
   -3.6258    2.8052    1.1952 H   0  0  0  0  0  0  0  0  0  0  0  0
   -3.6963    1.6322   -0.1651 H   0  0  0  0  0  0  0  0  0  0  0  0
   -4.8719    1.4954    1.1980 H   0  0  0  0  0  0  0  0  0  0  0  0
   -1.7953   -0.4282    3.7221 H   0  0  0  0  0  0  0  0  0  0  0  0
   -2.0521    0.0907    5.4119 H   0  0  0  0  0  0  0  0  0  0  0  0
   -1.8801   -2.8245    4.3778 H   0  0  0  0  0  0  0  0  0  0  0  0
   -2.0281   -2.3256    6.1113 H   0  0  0  0  0  0  0  0  0  0  0  0
   -0.5471   -1.9044    5.1747 H   0  0  0  0  0  0  0  0  0  0  0  0
   -4.0831   -1.6503   11.4856 H   0  0  0  0  0  0  0  0  0  0  0  0
   -2.6516   -0.0007   12.3096 H   0  0  0  0  0  0  0  0  0  0  0  0
   -3.3548    1.8657   10.1257 H   0  0  0  0  0  0  0  0  0  0  0  0
    0.1834    3.3215    6.5485 H   0  0  0  0  0  0  0  0  0  0  0  0
    1.9956   -0.8329    8.6158 H   0  0  0  0  0  0  0  0  0  0  0  0
  1  2  2  3
  2  3  1  0
  3  4  2  0
  3  5  1  0
  5  6  2  0
  6  7  1  0
  7  8  2  0
  8  9  1  0
  9 10  1  0
  9 11  2  0
 11 12  1  0
  6 13  1  0
 13 14  2  3
 14 15  1  0
 15 16  3  0
 14 17  1  0
 17 18  3  0
  1 19  1  0
 19 20  2  0
 20 21  1  0
 21 22  1  0
 22 23  2  0
 23 24  1  0
 24 25  2  0
 25 26  1  0
 25 27  1  0
 27 28  2  0
 21 29  1  0
 29 30  2  0
 30 31  1  0
 31 32  2  0
 32 33  1  0
 32 34  1  0
 34 35  2  0
 20 36  1  0
 36 37  1  0
 37 38  1  0
 38 39  2  0
 39 40  1  0
 40 41  1  0
 41 42  2  0
 42 43  1  0
 43 44  2  0
 44 45  1  0
 44 46  1  0
 46 47  2  0
 40 48  1  0
 48 49  2  0
 49 50  1  0
 50 51  2  0
 51 52  1  0
 51 53  1  0
 53 54  2  0
 39 55  1  0
 55 56  1  0
 38 57  1  0
 57 58  2  0
 58 59  1  0
 59 60  2  0
 60 61  1  0
 61 62  2  0
 62 63  1  0
 63 64  1  0
 64 65  1  0
 63 66  2  0
 58 67  1  0
 67 68  1  0
 68 69  1  0
 69 70  1  0
 70 71  1  0
 71 72  1  0
 72 73  2  0
 73 74  1  0
 74 75  1  0
 72 76  1  0
 76 77  1  0
 77 78  1  0
 78 79  1  0
 79 80  1  0
 80 81  1  0
 81 82  2  0
 82 83  1  0
 83 84  2  0
 84 85  1  0
 85 86  1  0
 86 87  1  0
 85 88  2  0
 80 89  2  0
 89 90  1  0
 90 91  1  0
 91 92  1  0
 92 93  1  0
 93 94  1  0
 94 95  1  0
 95 96  1  0
 96 97  1  0
 97 98  1  0
 98 99  1  0
 96100  1  0
100101  1  0
 93102  1  0
102103  1  0
 89104  1  0
104105  2  3
105106  1  0
106107  2  3
107108  1  0
108109  2  0
108110  1  0
110111  2  0
111112  1  0
112113  1  0
112114  2  0
114115  1  0
114116  1  0
116117  2  0
117118  1  0
118119  2  3
119120  1  0
120121  3  0
119122  1  0
122123  3  0
 13  2  1  0
 56 19  1  0
 99 57  1  0
118107  1  0
 11  5  1  0
 28 22  1  0
 35 29  1  0
 55 36  2  0
 66 59  1  0
 98 67  2  0
117110  1  0
 47 41  1  0
 54 48  1  0
 97 69  2  0
 95 70  2  0
 75 71  2  0
 94 76  2  0
 92 77  2  0
 91 79  2  0
 88 81  1  0
  1124  1  0
  7125  1  0
  8126  1  0
 23127  1  0
 24128  1  0
 26129  1  0
 26130  1  0
 26131  1  0
 27132  1  0
 28133  1  0
 30134  1  0
 31135  1  0
 33136  1  0
 33137  1  0
 33138  1  0
 34139  1  0
 35140  1  0
 42141  1  0
 43142  1  0
 45143  1  0
 45144  1  0
 45145  1  0
 46146  1  0
 47147  1  0
 49148  1  0
 50149  1  0
 52150  1  0
 52151  1  0
 52152  1  0
 53153  1  0
 54154  1  0
 60155  1  0
 61156  1  0
 62157  1  0
 64158  1  0
 64159  1  0
 65160  1  0
 65161  1  0
 65162  1  0
 66163  1  0
 82164  1  0
 83165  1  0
 84166  1  0
 86167  1  0
 86168  1  0
 87169  1  0
 87170  1  0
 87171  1  0
 88172  1  0
100173  1  0
100174  1  0
101175  1  0
101176  1  0
101177  1  0
102178  1  0
102179  1  0
103180  1  0
103181  1  0
103182  1  0
104183  1  0
105184  1  0
106185  1  0
111186  1  0
116187  1  0
M  END

