
     RDKit          3D

203224  0  0  0  0  0  0  0  0999 V2000
   -2.3252   -1.1657   -9.0827 C   0  0  0  0  0  0  0  0  0  0  0  0
   -2.5292   -1.7633  -10.2699 C   0  0  0  0  0  0  0  0  0  0  0  0
   -2.9653   -3.1475  -10.4380 C   0  0  0  0  0  0  0  0  0  0  0  0
   -3.6819   -3.7925   -9.6252 O   0  0  0  0  0  0  0  0  0  0  0  0
   -2.5298   -3.6180  -11.7384 C   0  0  0  0  0  0  0  0  0  0  0  0
   -1.9500   -2.5603  -12.4309 C   0  0  0  0  0  0  0  0  0  0  0  0
   -1.3474   -2.7964  -13.6793 C   0  0  0  0  0  0  0  0  0  0  0  0
   -1.3454   -4.0990  -14.1989 C   0  0  0  0  0  0  0  0  0  0  0  0
   -1.9278   -5.1633  -13.4860 C   0  0  0  0  0  0  0  0  0  0  0  0
   -1.8440   -6.9246  -14.2254 Br  0  0  0  0  0  0  0  0  0  0  0  0
   -2.5196   -4.9262  -12.2329 C   0  0  0  0  0  0  0  0  0  0  0  0
   -3.1875   -6.2553  -11.2835 Cl  0  0  0  0  0  0  0  0  0  0  0  0
   -2.0101   -1.3160  -11.6001 C   0  0  0  0  0  0  0  0  0  0  0  0
   -1.7579   -0.0391  -11.9941 C   0  0  0  0  0  0  0  0  0  0  0  0
   -1.2361    0.2867  -13.2965 C   0  0  0  0  0  0  0  0  0  0  0  0
   -0.8174    0.5729  -14.3378 N   0  0  0  0  0  0  0  0  0  0  0  0
   -2.0808    1.0956  -11.1755 C   0  0  0  0  0  0  0  0  0  0  0  0
   -2.3412    2.0214  -10.5275 N   0  0  0  0  0  0  0  0  0  0  0  0
   -2.3508   -1.8854   -7.7956 C   0  0  0  0  0  0  0  0  0  0  0  0
   -1.5157   -2.9727   -7.4532 C   0  0  0  0  0  0  0  0  0  0  0  0
   -0.6175   -3.6741   -8.3401 N   0  0  0  0  0  0  0  0  0  0  0  0
   -0.5671   -5.1232   -8.2658 C   0  0  0  0  0  0  0  0  0  0  0  0
    0.6551   -5.8141   -8.3613 C   0  0  0  0  0  0  0  0  0  0  0  0
    0.7018   -7.2020   -8.1689 C   0  0  0  0  0  0  0  0  0  0  0  0
   -0.4614   -7.9149   -7.8583 C   0  0  0  0  0  0  0  0  0  0  0  0
   -0.4000   -9.3955   -7.6217 C   0  0  0  0  0  0  0  0  0  0  0  0
   -1.6869   -7.2368   -7.7820 C   0  0  0  0  0  0  0  0  0  0  0  0
   -1.7351   -5.8554   -7.9671 C   0  0  0  0  0  0  0  0  0  0  0  0
    0.3279   -2.9279   -9.1385 C   0  0  0  0  0  0  0  0  0  0  0  0
    0.6502   -3.3455  -10.4363 C   0  0  0  0  0  0  0  0  0  0  0  0
    1.4547   -2.5512  -11.2597 C   0  0  0  0  0  0  0  0  0  0  0  0
    1.9700   -1.3328  -10.7868 C   0  0  0  0  0  0  0  0  0  0  0  0
    2.7693   -0.4478  -11.6944 C   0  0  0  0  0  0  0  0  0  0  0  0
    1.6624   -0.9148   -9.4861 C   0  0  0  0  0  0  0  0  0  0  0  0
    0.8570   -1.7086   -8.6651 C   0  0  0  0  0  0  0  0  0  0  0  0
   -1.5118   -3.1827   -6.0791 C   0  0  0  0  0  0  0  0  0  0  0  0
   -0.4817   -4.0396   -5.0908 S   0  0  0  0  0  0  0  0  0  0  0  0
   -0.9945   -3.2854   -3.6510 C   0  0  0  0  0  0  0  0  0  0  0  0
   -2.0457   -2.3949   -3.9541 C   0  0  0  0  0  0  0  0  0  0  0  0
   -2.9504   -1.8413   -2.9805 N   0  0  0  0  0  0  0  0  0  0  0  0
   -3.3348   -0.4620   -3.0791 C   0  0  0  0  0  0  0  0  0  0  0  0
   -2.4068    0.5536   -2.8089 C   0  0  0  0  0  0  0  0  0  0  0  0
   -2.8173    1.8897   -2.7903 C   0  0  0  0  0  0  0  0  0  0  0  0
   -4.1557    2.2287   -3.0388 C   0  0  0  0  0  0  0  0  0  0  0  0
   -4.5866    3.6632   -2.9990 C   0  0  0  0  0  0  0  0  0  0  0  0
   -5.0742    1.2120   -3.3609 C   0  0  0  0  0  0  0  0  0  0  0  0
   -4.6671   -0.1244   -3.3715 C   0  0  0  0  0  0  0  0  0  0  0  0
   -3.6649   -2.7101   -2.0668 C   0  0  0  0  0  0  0  0  0  0  0  0
   -3.9176   -4.0554   -2.3973 C   0  0  0  0  0  0  0  0  0  0  0  0
   -4.5847   -4.8955   -1.5021 C   0  0  0  0  0  0  0  0  0  0  0  0
   -5.0255   -4.4059   -0.2642 C   0  0  0  0  0  0  0  0  0  0  0  0
   -5.7135   -5.3216    0.7056 C   0  0  0  0  0  0  0  0  0  0  0  0
   -4.7670   -3.0711    0.0809 C   0  0  0  0  0  0  0  0  0  0  0  0
   -4.1036   -2.2279   -0.8178 C   0  0  0  0  0  0  0  0  0  0  0  0
   -2.2625   -2.3344   -5.3383 C   0  0  0  0  0  0  0  0  0  0  0  0
   -3.0079   -1.2281   -6.3637 S   0  0  0  0  0  0  0  0  0  0  0  0
   -0.1556   -3.2690   -2.4329 C   0  0  0  0  0  0  0  0  0  0  0  0
    1.2608   -3.3300   -2.4443 C   0  0  0  0  0  0  0  0  0  0  0  0
    2.0900   -3.1631   -3.6484 C   0  0  0  0  0  0  0  0  0  0  0  0
    2.7467   -4.2505   -4.2303 C   0  0  0  0  0  0  0  0  0  0  0  0
    3.4705   -4.0830   -5.4128 C   0  0  0  0  0  0  0  0  0  0  0  0
    3.5615   -2.8208   -6.0040 C   0  0  0  0  0  0  0  0  0  0  0  0
    2.9144   -1.7185   -5.4266 C   0  0  0  0  0  0  0  0  0  0  0  0
    3.0233   -0.3508   -6.0459 C   0  0  0  0  0  0  0  0  0  0  0  0
    3.9498    0.5446   -5.2277 C   0  0  0  0  0  0  0  0  0  0  0  0
    2.1804   -1.8974   -4.2475 C   0  0  0  0  0  0  0  0  0  0  0  0
    1.7840   -3.1087   -1.1773 C   0  0  0  0  0  0  0  0  0  0  0  0
    3.3837   -2.8538   -0.6241 S   0  0  0  0  0  0  0  0  0  0  0  0
    2.7936   -2.3608    0.8835 C   0  0  0  0  0  0  0  0  0  0  0  0
    3.2494   -1.9163    2.0859 C   0  0  0  0  0  0  0  0  0  0  0  0
    4.5333   -1.8603    2.6450 C   0  0  0  0  0  0  0  0  0  0  0  0
    4.6643   -1.4588    4.0089 C   0  0  0  0  0  0  0  0  0  0  0  0
    5.9216   -1.4145    4.5164 N   0  0  0  0  0  0  0  0  0  0  0  0
    6.7779   -1.9069    3.1835 S   0  0  0  0  0  0  0  0  0  0  0  0
    5.6710   -2.1781    1.9800 N   0  0  0  0  0  0  0  0  0  0  0  0
    3.5121   -1.0815    4.7097 C   0  0  0  0  0  0  0  0  0  0  0  0
    3.3540   -0.4401    5.9067 C   0  0  0  0  0  0  0  0  0  0  0  0
    4.3393    0.2633    7.1024 S   0  0  0  0  0  0  0  0  0  0  0  0
    3.0267    1.1797    7.6861 C   0  0  0  0  0  0  0  0  0  0  0  0
    2.9003    2.1768    8.6536 C   0  0  0  0  0  0  0  0  0  0  0  0
    3.9815    2.5655    9.5775 C   0  0  0  0  0  0  0  0  0  0  0  0
    4.5688    1.6058   10.4153 C   0  0  0  0  0  0  0  0  0  0  0  0
    5.6139    1.9620   11.2722 C   0  0  0  0  0  0  0  0  0  0  0  0
    6.1107    3.2672   11.2691 C   0  0  0  0  0  0  0  0  0  0  0  0
    5.5431    4.2348   10.4255 C   0  0  0  0  0  0  0  0  0  0  0  0
    6.1374    5.6172   10.3376 C   0  0  0  0  0  0  0  0  0  0  0  0
    7.1186    5.6958    9.1705 C   0  0  0  0  0  0  0  0  0  0  0  0
    4.4733    3.8798    9.5887 C   0  0  0  0  0  0  0  0  0  0  0  0
    1.6074    2.7436    8.6046 C   0  0  0  0  0  0  0  0  0  0  0  0
    0.6661    1.9945    7.3957 S   0  0  0  0  0  0  0  0  0  0  0  0
    1.8986    0.9670    6.9327 C   0  0  0  0  0  0  0  0  0  0  0  0
    2.0807    0.0375    5.9298 C   0  0  0  0  0  0  0  0  0  0  0  0
    1.3904   -0.2333    4.7924 N   0  0  0  0  0  0  0  0  0  0  0  0
    2.2518   -1.0382    4.0995 C   0  0  0  0  0  0  0  0  0  0  0  0
    2.0990   -1.5795    2.8101 C   0  0  0  0  0  0  0  0  0  0  0  0
    0.9583   -1.9201    2.1313 N   0  0  0  0  0  0  0  0  0  0  0  0
    1.4394   -2.3708    0.9516 C   0  0  0  0  0  0  0  0  0  0  0  0
    0.8533   -2.8290   -0.2131 C   0  0  0  0  0  0  0  0  0  0  0  0
   -0.6880   -2.8605   -0.8604 S   0  0  0  0  0  0  0  0  0  0  0  0
   -0.3409   -2.3066    2.6996 C   0  0  0  0  0  0  0  0  0  0  0  0
   -0.3314   -3.7754    3.0987 C   0  0  0  0  0  0  0  0  0  0  0  0
    0.4187    0.7038    4.1916 C   0  0  0  0  0  0  0  0  0  0  0  0
    1.1021    2.0060    3.7682 C   0  0  0  0  0  0  0  0  0  0  0  0
    1.0602    3.7982    9.4515 C   0  0  0  0  0  0  0  0  0  0  0  0
    0.2511    3.4457   10.5409 C   0  0  0  0  0  0  0  0  0  0  0  0
   -0.6331    4.3821   11.1043 C   0  0  0  0  0  0  0  0  0  0  0  0
   -0.7287    5.6903   10.5804 C   0  0  0  0  0  0  0  0  0  0  0  0
    0.1876    6.0632    9.5887 C   0  0  0  0  0  0  0  0  0  0  0  0
    0.2714    7.2812    8.7731 C   0  0  0  0  0  0  0  0  0  0  0  0
   -0.4316    8.3184    8.9250 O   0  0  0  0  0  0  0  0  0  0  0  0
    1.2155    7.1096    7.7142 N   0  0  0  0  0  0  0  0  0  0  0  0
    1.3809    7.9546    6.5418 C   0  0  0  0  0  0  0  0  0  0  0  0
    0.2938    7.6683    5.5139 C   0  0  0  0  0  0  0  0  0  0  0  0
    1.6496    5.7548    7.8403 C   0  0  0  0  0  0  0  0  0  0  0  0
    2.3933    5.1752    7.0042 O   0  0  0  0  0  0  0  0  0  0  0  0
    1.0444    5.1312    9.0197 C   0  0  0  0  0  0  0  0  0  0  0  0
   -1.8028    6.6014   11.0200 C   0  0  0  0  0  0  0  0  0  0  0  0
   -3.0965    6.2327   11.1005 C   0  0  0  0  0  0  0  0  0  0  0  0
   -4.0461    6.8829   12.0049 C   0  0  0  0  0  0  0  0  0  0  0  0
   -3.9133    8.0226   12.5292 O   0  0  0  0  0  0  0  0  0  0  0  0
   -5.1236    5.9478   12.2710 C   0  0  0  0  0  0  0  0  0  0  0  0
   -6.1788    6.0755   13.1766 C   0  0  0  0  0  0  0  0  0  0  0  0
   -7.0618    4.9972   13.3248 C   0  0  0  0  0  0  0  0  0  0  0  0
   -6.8582    3.8072   12.5994 C   0  0  0  0  0  0  0  0  0  0  0  0
   -7.9423    2.4509   12.8394 Cl  0  0  0  0  0  0  0  0  0  0  0  0
   -5.7763    3.6920   11.7046 C   0  0  0  0  0  0  0  0  0  0  0  0
   -4.9273    4.7930   11.5282 C   0  0  0  0  0  0  0  0  0  0  0  0
   -3.7372    4.9616   10.6509 C   0  0  0  0  0  0  0  0  0  0  0  0
   -3.5323    4.3338    9.4651 C   0  0  0  0  0  0  0  0  0  0  0  0
   -2.7143    4.9163    8.4336 C   0  0  0  0  0  0  0  0  0  0  0  0
   -2.0752    5.3768    7.5835 N   0  0  0  0  0  0  0  0  0  0  0  0
   -4.2783    3.1669    9.0569 C   0  0  0  0  0  0  0  0  0  0  0  0
   -4.8757    2.2407    8.7042 N   0  0  0  0  0  0  0  0  0  0  0  0
   -1.9315   -0.1626   -9.0335 H   0  0  0  0  0  0  0  0  0  0  0  0
   -0.8493   -2.0212  -14.2358 H   0  0  0  0  0  0  0  0  0  0  0  0
   -0.8634   -4.2889  -15.1507 H   0  0  0  0  0  0  0  0  0  0  0  0
    1.5832   -5.2835   -8.5430 H   0  0  0  0  0  0  0  0  0  0  0  0
    1.6568   -7.7066   -8.2225 H   0  0  0  0  0  0  0  0  0  0  0  0
   -0.2080   -9.9201   -8.5816 H   0  0  0  0  0  0  0  0  0  0  0  0
   -1.3549   -9.7745   -7.1928 H   0  0  0  0  0  0  0  0  0  0  0  0
    0.4185   -9.6273   -6.9071 H   0  0  0  0  0  0  0  0  0  0  0  0
   -2.5988   -7.7710   -7.5407 H   0  0  0  0  0  0  0  0  0  0  0  0
   -2.6864   -5.3516   -7.8510 H   0  0  0  0  0  0  0  0  0  0  0  0
    0.2481   -4.2754  -10.8283 H   0  0  0  0  0  0  0  0  0  0  0  0
    1.6585   -2.8773  -12.2701 H   0  0  0  0  0  0  0  0  0  0  0  0
    3.2963   -1.0450  -12.4685 H   0  0  0  0  0  0  0  0  0  0  0  0
    2.0891    0.2696  -12.1937 H   0  0  0  0  0  0  0  0  0  0  0  0
    3.5365    0.1151  -11.1175 H   0  0  0  0  0  0  0  0  0  0  0  0
    2.0249    0.0402   -9.1162 H   0  0  0  0  0  0  0  0  0  0  0  0
    0.6231   -1.3611   -7.6718 H   0  0  0  0  0  0  0  0  0  0  0  0
   -1.3771    0.3037   -2.5740 H   0  0  0  0  0  0  0  0  0  0  0  0
   -2.0967    2.6656   -2.5550 H   0  0  0  0  0  0  0  0  0  0  0  0
   -4.2827    4.1771   -3.9354 H   0  0  0  0  0  0  0  0  0  0  0  0
   -5.6877    3.7452   -2.8797 H   0  0  0  0  0  0  0  0  0  0  0  0
   -4.1133    4.1799   -2.1390 H   0  0  0  0  0  0  0  0  0  0  0  0
   -6.1063    1.4538   -3.5732 H   0  0  0  0  0  0  0  0  0  0  0  0
   -5.3953   -0.8999   -3.5828 H   0  0  0  0  0  0  0  0  0  0  0  0
   -3.6005   -4.4639   -3.3499 H   0  0  0  0  0  0  0  0  0  0  0  0
   -4.7611   -5.9301   -1.7784 H   0  0  0  0  0  0  0  0  0  0  0  0
   -6.3175   -6.0852    0.1680 H   0  0  0  0  0  0  0  0  0  0  0  0
   -6.3956   -4.7498    1.3730 H   0  0  0  0  0  0  0  0  0  0  0  0
   -4.9484   -5.8373    1.3219 H   0  0  0  0  0  0  0  0  0  0  0  0
   -5.0795   -2.6807    1.0427 H   0  0  0  0  0  0  0  0  0  0  0  0
   -3.9134   -1.2057   -0.5310 H   0  0  0  0  0  0  0  0  0  0  0  0
    2.6602   -5.2371   -3.7929 H   0  0  0  0  0  0  0  0  0  0  0  0
    3.9588   -4.9331   -5.8760 H   0  0  0  0  0  0  0  0  0  0  0  0
    4.1397   -2.7014   -6.9087 H   0  0  0  0  0  0  0  0  0  0  0  0
    2.0164    0.1182   -6.1043 H   0  0  0  0  0  0  0  0  0  0  0  0
    3.4173   -0.4199   -7.0790 H   0  0  0  0  0  0  0  0  0  0  0  0
    4.0072    1.5426   -5.7054 H   0  0  0  0  0  0  0  0  0  0  0  0
    3.5617    0.6707   -4.1946 H   0  0  0  0  0  0  0  0  0  0  0  0
    4.9717    0.1097   -5.1831 H   0  0  0  0  0  0  0  0  0  0  0  0
    1.6629   -1.0585   -3.8028 H   0  0  0  0  0  0  0  0  0  0  0  0
    4.2093    0.5852   10.4188 H   0  0  0  0  0  0  0  0  0  0  0  0
    6.0526    1.2208   11.9286 H   0  0  0  0  0  0  0  0  0  0  0  0
    6.9436    3.5188   11.9129 H   0  0  0  0  0  0  0  0  0  0  0  0
    6.6670    5.8683   11.2812 H   0  0  0  0  0  0  0  0  0  0  0  0
    5.3285    6.3677   10.1908 H   0  0  0  0  0  0  0  0  0  0  0  0
    7.9512    4.9777    9.3146 H   0  0  0  0  0  0  0  0  0  0  0  0
    6.5974    5.4705    8.2182 H   0  0  0  0  0  0  0  0  0  0  0  0
    7.5384    6.7202    9.1056 H   0  0  0  0  0  0  0  0  0  0  0  0
    4.0491    4.6171    8.9264 H   0  0  0  0  0  0  0  0  0  0  0  0
   -0.5763   -1.7290    3.6070 H   0  0  0  0  0  0  0  0  0  0  0  0
   -1.1519   -2.1313    1.9587 H   0  0  0  0  0  0  0  0  0  0  0  0
    0.4382   -3.9395    3.8851 H   0  0  0  0  0  0  0  0  0  0  0  0
   -1.3235   -4.0553    3.5114 H   0  0  0  0  0  0  0  0  0  0  0  0
   -0.1054   -4.4177    2.2275 H   0  0  0  0  0  0  0  0  0  0  0  0
   -0.3965    0.9215    4.9114 H   0  0  0  0  0  0  0  0  0  0  0  0
   -0.0336    0.2918    3.2705 H   0  0  0  0  0  0  0  0  0  0  0  0
    1.8982    1.7885    3.0208 H   0  0  0  0  0  0  0  0  0  0  0  0
    0.3601    2.6882    3.3040 H   0  0  0  0  0  0  0  0  0  0  0  0
    1.5596    2.5251    4.6345 H   0  0  0  0  0  0  0  0  0  0  0  0
    0.2221    2.4214   10.8962 H   0  0  0  0  0  0  0  0  0  0  0  0
   -1.2991    4.0623   11.8951 H   0  0  0  0  0  0  0  0  0  0  0  0
    1.3389    9.0274    6.8382 H   0  0  0  0  0  0  0  0  0  0  0  0
    2.3779    7.7689    6.0846 H   0  0  0  0  0  0  0  0  0  0  0  0
   -0.7039    7.9403    5.9211 H   0  0  0  0  0  0  0  0  0  0  0  0
    0.2976    6.5898    5.2473 H   0  0  0  0  0  0  0  0  0  0  0  0
    0.4830    8.2637    4.5965 H   0  0  0  0  0  0  0  0  0  0  0  0
   -1.5089    7.5661   11.4011 H   0  0  0  0  0  0  0  0  0  0  0  0
   -6.3076    6.9812   13.7567 H   0  0  0  0  0  0  0  0  0  0  0  0
   -7.8892    5.0769   14.0195 H   0  0  0  0  0  0  0  0  0  0  0  0
   -5.6218    2.7602   11.1940 H   0  0  0  0  0  0  0  0  0  0  0  0
  1  2  2  3
  2  3  1  0
  3  4  2  0
  3  5  1  0
  5  6  2  0
  6  7  1  0
  7  8  2  0
  8  9  1  0
  9 10  1  0
  9 11  2  0
 11 12  1  0
  6 13  1  0
 13 14  2  3
 14 15  1  0
 15 16  3  0
 14 17  1  0
 17 18  3  0
  1 19  1  0
 19 20  2  0
 20 21  1  0
 21 22  1  0
 22 23  2  0
 23 24  1  0
 24 25  2  0
 25 26  1  0
 25 27  1  0
 27 28  2  0
 21 29  1  0
 29 30  2  0
 30 31  1  0
 31 32  2  0
 32 33  1  0
 32 34  1  0
 34 35  2  0
 20 36  1  0
 36 37  1  0
 37 38  1  0
 38 39  2  0
 39 40  1  0
 40 41  1  0
 41 42  2  0
 42 43  1  0
 43 44  2  0
 44 45  1  0
 44 46  1  0
 46 47  2  0
 40 48  1  0
 48 49  2  0
 49 50  1  0
 50 51  2  0
 51 52  1  0
 51 53  1  0
 53 54  2  0
 39 55  1  0
 55 56  1  0
 38 57  1  0
 57 58  2  0
 58 59  1  0
 59 60  2  0
 60 61  1  0
 61 62  2  0
 62 63  1  0
 63 64  1  0
 64 65  1  0
 63 66  2  0
 58 67  1  0
 67 68  1  0
 68 69  1  0
 69 70  1  0
 70 71  1  0
 71 72  1  0
 72 73  2  0
 73 74  1  0
 74 75  1  0
 72 76  1  0
 76 77  1  0
 77 78  1  0
 78 79  1  0
 79 80  1  0
 80 81  1  0
 81 82  2  0
 82 83  1  0
 83 84  2  0
 84 85  1  0
 85 86  1  0
 86 87  1  0
 85 88  2  0
 80 89  2  0
 89 90  1  0
 90 91  1  0
 91 92  1  0
 92 93  1  0
 93 94  1  0
 94 95  1  0
 95 96  1  0
 96 97  1  0
 97 98  1  0
 98 99  1  0
 96100  1  0
100101  1  0
 93102  1  0
102103  1  0
 89104  1  0
104105  2  0
105106  1  0
106107  2  0
107108  1  0
108109  1  0
109110  2  0
109111  1  0
111112  1  0
112113  1  0
111114  1  0
114115  2  0
114116  1  0
107117  1  0
117118  2  3
118119  1  0
119120  2  0
119121  1  0
121122  2  0
122123  1  0
123124  2  0
124125  1  0
124126  1  0
126127  2  0
127128  1  0
128129  2  3
129130  1  0
130131  3  0
129132  1  0
132133  3  0
 13  2  1  0
 56 19  1  0
 99 57  1  0
116104  1  0
128118  1  0
 11  5  1  0
 28 22  1  0
 35 29  1  0
 55 36  2  0
 66 59  1  0
 98 67  2  0
116108  2  0
127121  1  0
 47 41  1  0
 54 48  1  0
 97 69  2  0
 95 70  2  0
 75 71  2  0
 94 76  2  0
 92 77  2  0
 91 79  2  0
 88 81  1  0
  1134  1  0
  7135  1  0
  8136  1  0
 23137  1  0
 24138  1  0
 26139  1  0
 26140  1  0
 26141  1  0
 27142  1  0
 28143  1  0
 30144  1  0
 31145  1  0
 33146  1  0
 33147  1  0
 33148  1  0
 34149  1  0
 35150  1  0
 42151  1  0
 43152  1  0
 45153  1  0
 45154  1  0
 45155  1  0
 46156  1  0
 47157  1  0
 49158  1  0
 50159  1  0
 52160  1  0
 52161  1  0
 52162  1  0
 53163  1  0
 54164  1  0
 60165  1  0
 61166  1  0
 62167  1  0
 64168  1  0
 64169  1  0
 65170  1  0
 65171  1  0
 65172  1  0
 66173  1  0
 82174  1  0
 83175  1  0
 84176  1  0
 86177  1  0
 86178  1  0
 87179  1  0
 87180  1  0
 87181  1  0
 88182  1  0
100183  1  0
100184  1  0
101185  1  0
101186  1  0
101187  1  0
102188  1  0
102189  1  0
103190  1  0
103191  1  0
103192  1  0
105193  1  0
106194  1  0
112195  1  0
112196  1  0
113197  1  0
113198  1  0
113199  1  0
117200  1  0
122201  1  0
123202  1  0
126203  1  0
M  END

