
     RDKit          3D

307336  0  0  0  0  0  0  0  0999 V2000
   -7.3985   -2.1464   -1.6718 C   0  0  0  0  0  0  0  0  0  0  0  0
   -8.6422   -1.9536   -1.2023 C   0  0  0  0  0  0  0  0  0  0  0  0
   -9.2368   -2.8506   -0.2112 C   0  0  0  0  0  0  0  0  0  0  0  0
   -8.8418   -4.0187    0.0541 O   0  0  0  0  0  0  0  0  0  0  0  0
  -10.2995   -2.1349    0.4803 C   0  0  0  0  0  0  0  0  0  0  0  0
  -10.4419   -0.8848   -0.0996 C   0  0  0  0  0  0  0  0  0  0  0  0
  -11.2798    0.0695    0.4943 C   0  0  0  0  0  0  0  0  0  0  0  0
  -11.9917   -0.2741    1.6494 C   0  0  0  0  0  0  0  0  0  0  0  0
  -11.8581   -1.5501    2.2235 C   0  0  0  0  0  0  0  0  0  0  0  0
  -12.8513   -1.9358    3.8143 Br  0  0  0  0  0  0  0  0  0  0  0  0
  -11.0000   -2.5010    1.6383 C   0  0  0  0  0  0  0  0  0  0  0  0
  -10.7904   -4.0928    2.3624 Cl  0  0  0  0  0  0  0  0  0  0  0  0
   -9.5166   -0.7519   -1.2662 C   0  0  0  0  0  0  0  0  0  0  0  0
   -9.7343    0.0250   -2.3505 C   0  0  0  0  0  0  0  0  0  0  0  0
  -10.7499    1.0433   -2.3784 C   0  0  0  0  0  0  0  0  0  0  0  0
  -11.5700    1.8612   -2.4090 N   0  0  0  0  0  0  0  0  0  0  0  0
   -9.0722   -0.2083   -3.6062 C   0  0  0  0  0  0  0  0  0  0  0  0
   -8.5536   -0.3798   -4.6240 N   0  0  0  0  0  0  0  0  0  0  0  0
   -6.5143   -1.1256   -2.2531 C   0  0  0  0  0  0  0  0  0  0  0  0
   -6.0936    0.1072   -1.6890 C   0  0  0  0  0  0  0  0  0  0  0  0
   -6.6872    0.7722   -0.5492 N   0  0  0  0  0  0  0  0  0  0  0  0
   -6.9525    0.0696    0.6886 C   0  0  0  0  0  0  0  0  0  0  0  0
   -8.0205    0.4682    1.5158 C   0  0  0  0  0  0  0  0  0  0  0  0
   -8.3047   -0.2220    2.6960 C   0  0  0  0  0  0  0  0  0  0  0  0
   -7.5099   -1.3047    3.0907 C   0  0  0  0  0  0  0  0  0  0  0  0
   -7.8476   -2.0651    4.3398 C   0  0  0  0  0  0  0  0  0  0  0  0
   -6.4437   -1.7084    2.2742 C   0  0  0  0  0  0  0  0  0  0  0  0
   -6.1565   -1.0212    1.0887 C   0  0  0  0  0  0  0  0  0  0  0  0
   -6.9628    2.1908   -0.6563 C   0  0  0  0  0  0  0  0  0  0  0  0
   -7.5453    2.7161   -1.8265 C   0  0  0  0  0  0  0  0  0  0  0  0
   -7.7921    4.0869   -1.9408 C   0  0  0  0  0  0  0  0  0  0  0  0
   -7.4577    4.9531   -0.8953 C   0  0  0  0  0  0  0  0  0  0  0  0
   -7.6920    6.4294   -1.0247 C   0  0  0  0  0  0  0  0  0  0  0  0
   -6.8563    4.4399    0.2656 C   0  0  0  0  0  0  0  0  0  0  0  0
   -6.6158    3.0661    0.3830 C   0  0  0  0  0  0  0  0  0  0  0  0
   -5.0617    0.6695   -2.4462 C   0  0  0  0  0  0  0  0  0  0  0  0
   -4.1076    2.0463   -2.3206 S   0  0  0  0  0  0  0  0  0  0  0  0
   -3.2570    1.7681   -3.7728 C   0  0  0  0  0  0  0  0  0  0  0  0
   -3.7284    0.5713   -4.3490 C   0  0  0  0  0  0  0  0  0  0  0  0
   -3.4240    0.1075   -5.6739 N   0  0  0  0  0  0  0  0  0  0  0  0
   -4.1974    0.6003   -6.7954 C   0  0  0  0  0  0  0  0  0  0  0  0
   -5.5638    0.9163   -6.6692 C   0  0  0  0  0  0  0  0  0  0  0  0
   -6.3174    1.2595   -7.7951 C   0  0  0  0  0  0  0  0  0  0  0  0
   -5.7179    1.3000   -9.0627 C   0  0  0  0  0  0  0  0  0  0  0  0
   -6.5396    1.6503  -10.2675 C   0  0  0  0  0  0  0  0  0  0  0  0
   -4.3455    1.0423   -9.1821 C   0  0  0  0  0  0  0  0  0  0  0  0
   -3.5949    0.6951   -8.0567 C   0  0  0  0  0  0  0  0  0  0  0  0
   -2.5672   -1.0422   -5.8491 C   0  0  0  0  0  0  0  0  0  0  0  0
   -1.2784   -1.0593   -5.2871 C   0  0  0  0  0  0  0  0  0  0  0  0
   -0.4205   -2.1377   -5.5406 C   0  0  0  0  0  0  0  0  0  0  0  0
   -0.8493   -3.2266   -6.3074 C   0  0  0  0  0  0  0  0  0  0  0  0
    0.0817   -4.3789   -6.5680 C   0  0  0  0  0  0  0  0  0  0  0  0
   -2.1290   -3.2188   -6.8639 C   0  0  0  0  0  0  0  0  0  0  0  0
   -2.9865   -2.1340   -6.6336 C   0  0  0  0  0  0  0  0  0  0  0  0
   -4.7040   -0.0237   -3.5545 C   0  0  0  0  0  0  0  0  0  0  0  0
   -5.5933   -1.4336   -3.6602 S   0  0  0  0  0  0  0  0  0  0  0  0
   -2.1013    2.5768   -4.2112 C   0  0  0  0  0  0  0  0  0  0  0  0
   -1.2908    3.3333   -3.3620 C   0  0  0  0  0  0  0  0  0  0  0  0
   -0.1244    3.7621   -4.0008 C   0  0  0  0  0  0  0  0  0  0  0  0
    1.3981    4.0355   -3.3516 S   0  0  0  0  0  0  0  0  0  0  0  0
    2.2346    3.7236   -4.8027 C   0  0  0  0  0  0  0  0  0  0  0  0
    3.2768    2.6973   -4.9175 C   0  0  0  0  0  0  0  0  0  0  0  0
    4.0742    2.2177   -3.8587 C   0  0  0  0  0  0  0  0  0  0  0  0
    4.1522    0.8218   -3.6919 C   0  0  0  0  0  0  0  0  0  0  0  0
    4.8232    0.0139   -2.5893 C   0  0  0  0  0  0  0  0  0  0  0  0
    6.1874   -0.3966   -3.1477 C   0  0  0  0  0  0  0  0  0  0  0  0
    7.1172    0.6173   -3.4848 C   0  0  0  0  0  0  0  0  0  0  0  0
    8.3827    0.2896   -3.9632 C   0  0  0  0  0  0  0  0  0  0  0  0
    8.7463   -1.0482   -4.1589 C   0  0  0  0  0  0  0  0  0  0  0  0
   10.1289   -1.3882   -4.6544 C   0  0  0  0  0  0  0  0  0  0  0  0
   11.0759   -1.6797   -3.4887 C   0  0  0  0  0  0  0  0  0  0  0  0
    7.8202   -2.0604   -3.8643 C   0  0  0  0  0  0  0  0  0  0  0  0
    6.5566   -1.7377   -3.3629 C   0  0  0  0  0  0  0  0  0  0  0  0
    4.9259    0.8128   -1.2747 C   0  0  0  0  0  0  0  0  0  0  0  0
    3.7947    1.4945   -0.7771 C   0  0  0  0  0  0  0  0  0  0  0  0
    3.8866    2.2608    0.3911 C   0  0  0  0  0  0  0  0  0  0  0  0
    5.1005    2.3749    1.0792 C   0  0  0  0  0  0  0  0  0  0  0  0
    5.2096    3.2349    2.3105 C   0  0  0  0  0  0  0  0  0  0  0  0
    5.6661    4.6449    1.9398 C   0  0  0  0  0  0  0  0  0  0  0  0
    6.2283    1.7193    0.5813 C   0  0  0  0  0  0  0  0  0  0  0  0
    6.1325    0.9159   -0.5559 C   0  0  0  0  0  0  0  0  0  0  0  0
    3.8355   -1.1769   -2.4827 C   0  0  0  0  0  0  0  0  0  0  0  0
    2.8669   -1.0234   -3.4767 C   0  0  0  0  0  0  0  0  0  0  0  0
    3.2526    0.0317   -4.3743 C   0  0  0  0  0  0  0  0  0  0  0  0
    2.5712    0.4881   -5.5047 C   0  0  0  0  0  0  0  0  0  0  0  0
    2.8020    1.8147   -5.9063 C   0  0  0  0  0  0  0  0  0  0  0  0
    1.9803    2.6158   -6.8959 C   0  0  0  0  0  0  0  0  0  0  0  0
    1.1096    1.8378   -7.8854 C   0  0  0  0  0  0  0  0  0  0  0  0
    0.0042    2.4642   -8.4968 C   0  0  0  0  0  0  0  0  0  0  0  0
   -0.7060    1.8421   -9.5280 C   0  0  0  0  0  0  0  0  0  0  0  0
   -0.2951    0.5858  -10.0098 C   0  0  0  0  0  0  0  0  0  0  0  0
   -1.0499   -0.1005  -11.1194 C   0  0  0  0  0  0  0  0  0  0  0  0
   -1.7539   -1.3646  -10.6219 C   0  0  0  0  0  0  0  0  0  0  0  0
    0.8673    0.0052   -9.4892 C   0  0  0  0  0  0  0  0  0  0  0  0
    1.5785    0.6427   -8.4712 C   0  0  0  0  0  0  0  0  0  0  0  0
    2.9066    3.5182   -7.7324 C   0  0  0  0  0  0  0  0  0  0  0  0
    2.4900    4.8018   -8.1403 C   0  0  0  0  0  0  0  0  0  0  0  0
    3.3824    5.6879   -8.7421 C   0  0  0  0  0  0  0  0  0  0  0  0
    4.6936    5.2860   -9.0313 C   0  0  0  0  0  0  0  0  0  0  0  0
    5.6827    6.2685   -9.5999 C   0  0  0  0  0  0  0  0  0  0  0  0
    6.3389    7.0672   -8.4762 C   0  0  0  0  0  0  0  0  0  0  0  0
    5.0948    3.9821   -8.7101 C   0  0  0  0  0  0  0  0  0  0  0  0
    4.2043    3.0968   -8.0925 C   0  0  0  0  0  0  0  0  0  0  0  0
    1.3154    3.4765   -5.8344 C   0  0  0  0  0  0  0  0  0  0  0  0
   -0.0044    3.4140   -5.3228 C   0  0  0  0  0  0  0  0  0  0  0  0
   -1.3388    2.4700   -5.7250 S   0  0  0  0  0  0  0  0  0  0  0  0
    1.3166   -1.0194   -2.7660 S   0  0  0  0  0  0  0  0  0  0  0  0
    1.8962   -1.3499   -1.2387 C   0  0  0  0  0  0  0  0  0  0  0  0
    1.3359   -1.7568    0.0083 C   0  0  0  0  0  0  0  0  0  0  0  0
    2.3627   -2.3353    0.7162 C   0  0  0  0  0  0  0  0  0  0  0  0
    3.6129   -2.5287   -0.1341 C   0  0  0  0  0  0  0  0  0  0  0  0
    3.2289   -1.5893   -1.2739 C   0  0  0  0  0  0  0  0  0  0  0  0
    3.6109   -4.0224   -0.4975 C   0  0  0  0  0  0  0  0  0  0  0  0
    3.8463   -4.9611    0.5279 C   0  0  0  0  0  0  0  0  0  0  0  0
    3.7020   -6.3286    0.3007 C   0  0  0  0  0  0  0  0  0  0  0  0
    3.3604   -6.8071   -0.9674 C   0  0  0  0  0  0  0  0  0  0  0  0
    3.1450   -8.2878   -1.1920 C   0  0  0  0  0  0  0  0  0  0  0  0
    1.6749   -8.6018   -1.4663 C   0  0  0  0  0  0  0  0  0  0  0  0
    3.1641   -5.8842   -2.0134 C   0  0  0  0  0  0  0  0  0  0  0  0
    3.2864   -4.5094   -1.7796 C   0  0  0  0  0  0  0  0  0  0  0  0
    4.9568   -2.1157    0.4973 C   0  0  0  0  0  0  0  0  0  0  0  0
    6.1452   -2.6509   -0.0389 C   0  0  0  0  0  0  0  0  0  0  0  0
    7.3904   -2.3438    0.5068 C   0  0  0  0  0  0  0  0  0  0  0  0
    7.4800   -1.5049    1.6213 C   0  0  0  0  0  0  0  0  0  0  0  0
    8.8252   -1.1606    2.1935 C   0  0  0  0  0  0  0  0  0  0  0  0
    9.3988   -2.3287    2.9890 C   0  0  0  0  0  0  0  0  0  0  0  0
    6.3055   -0.9661    2.1721 C   0  0  0  0  0  0  0  0  0  0  0  0
    5.0636   -1.2202    1.5833 C   0  0  0  0  0  0  0  0  0  0  0  0
    2.2095   -2.2646    2.0972 C   0  0  0  0  0  0  0  0  0  0  0  0
    1.1554   -1.4304    2.4773 C   0  0  0  0  0  0  0  0  0  0  0  0
    0.3624   -0.8917    1.0747 S   0  0  0  0  0  0  0  0  0  0  0  0
    0.9401   -0.9851    3.8669 C   0  0  0  0  0  0  0  0  0  0  0  0
   -0.0456   -0.1455    4.4208 C   0  0  0  0  0  0  0  0  0  0  0  0
   -0.9279    0.7292    3.6825 N   0  0  0  0  0  0  0  0  0  0  0  0
   -2.3095    0.8297    4.1001 C   0  0  0  0  0  0  0  0  0  0  0  0
   -2.9009    2.0860    4.3243 C   0  0  0  0  0  0  0  0  0  0  0  0
   -4.1989    2.1811    4.8249 C   0  0  0  0  0  0  0  0  0  0  0  0
   -4.9248    1.0259    5.1197 C   0  0  0  0  0  0  0  0  0  0  0  0
   -6.3097    1.1361    5.6763 C   0  0  0  0  0  0  0  0  0  0  0  0
   -4.3570   -0.2317    4.8737 C   0  0  0  0  0  0  0  0  0  0  0  0
   -3.0592   -0.3337    4.3665 C   0  0  0  0  0  0  0  0  0  0  0  0
   -0.3586    1.7920    2.8852 C   0  0  0  0  0  0  0  0  0  0  0  0
   -0.9720    2.1785    1.6770 C   0  0  0  0  0  0  0  0  0  0  0  0
   -0.4799    3.2722    0.9557 C   0  0  0  0  0  0  0  0  0  0  0  0
    0.6209    4.0013    1.4383 C   0  0  0  0  0  0  0  0  0  0  0  0
    1.1150    5.1972    0.6830 C   0  0  0  0  0  0  0  0  0  0  0  0
    1.2150    3.6282    2.6518 C   0  0  0  0  0  0  0  0  0  0  0  0
    0.7454    2.5208    3.3586 C   0  0  0  0  0  0  0  0  0  0  0  0
    0.0437   -0.1216    5.8196 C   0  0  0  0  0  0  0  0  0  0  0  0
   -0.8265    0.5902    7.0441 S   0  0  0  0  0  0  0  0  0  0  0  0
    0.0982   -0.0307    8.3281 C   0  0  0  0  0  0  0  0  0  0  0  0
    1.1561   -0.8044    7.7805 C   0  0  0  0  0  0  0  0  0  0  0  0
    2.2483   -1.4041    8.5323 N   0  0  0  0  0  0  0  0  0  0  0  0
    3.2543   -2.1647    7.8450 C   0  0  0  0  0  0  0  0  0  0  0  0
    3.0256   -3.5121    7.5332 C   0  0  0  0  0  0  0  0  0  0  0  0
    3.9239   -4.2023    6.7100 C   0  0  0  0  0  0  0  0  0  0  0  0
    5.0481   -3.5427    6.1800 C   0  0  0  0  0  0  0  0  0  0  0  0
    5.9590   -4.2293    5.1990 C   0  0  0  0  0  0  0  0  0  0  0  0
    5.2913   -2.2107    6.5293 C   0  0  0  0  0  0  0  0  0  0  0  0
    4.4021   -1.5215    7.3583 C   0  0  0  0  0  0  0  0  0  0  0  0
    2.6121   -0.9427    9.8435 C   0  0  0  0  0  0  0  0  0  0  0  0
    2.9795    0.3966   10.0552 C   0  0  0  0  0  0  0  0  0  0  0  0
    3.4868    0.7999   11.2982 C   0  0  0  0  0  0  0  0  0  0  0  0
    3.6320   -0.1280   12.3391 C   0  0  0  0  0  0  0  0  0  0  0  0
    4.2590    0.2755   13.6395 C   0  0  0  0  0  0  0  0  0  0  0  0
    3.2607   -1.4680   12.1259 C   0  0  0  0  0  0  0  0  0  0  0  0
    2.7591   -1.8690   10.8848 C   0  0  0  0  0  0  0  0  0  0  0  0
    1.0528   -0.8466    6.3704 C   0  0  0  0  0  0  0  0  0  0  0  0
    1.8863   -1.5938    5.1390 S   0  0  0  0  0  0  0  0  0  0  0  0
   -0.2868    0.0124    9.7666 C   0  0  0  0  0  0  0  0  0  0  0  0
   -0.7895    1.0736   10.4279 C   0  0  0  0  0  0  0  0  0  0  0  0
   -0.6172    1.2161   11.8790 C   0  0  0  0  0  0  0  0  0  0  0  0
   -0.3505    0.2916   12.6973 O   0  0  0  0  0  0  0  0  0  0  0  0
   -0.6953    2.6246   12.2094 C   0  0  0  0  0  0  0  0  0  0  0  0
   -0.5990    3.2437   13.4633 C   0  0  0  0  0  0  0  0  0  0  0  0
   -0.7544    4.6376   13.5254 C   0  0  0  0  0  0  0  0  0  0  0  0
   -0.9979    5.3821   12.3618 C   0  0  0  0  0  0  0  0  0  0  0  0
   -1.2235    7.2765   12.4786 Br  0  0  0  0  0  0  0  0  0  0  0  0
   -1.0705    4.7385   11.1122 C   0  0  0  0  0  0  0  0  0  0  0  0
   -0.9148    3.3496   11.0515 C   0  0  0  0  0  0  0  0  0  0  0  0
   -1.0955    2.4396    9.8993 C   0  0  0  0  0  0  0  0  0  0  0  0
   -2.0023    2.7147    8.9442 C   0  0  0  0  0  0  0  0  0  0  0  0
   -1.8613    3.8873    8.1179 C   0  0  0  0  0  0  0  0  0  0  0  0
   -1.7012    4.8149    7.4518 N   0  0  0  0  0  0  0  0  0  0  0  0
   -3.1473    1.8627    8.7207 C   0  0  0  0  0  0  0  0  0  0  0  0
   -4.0837    1.2194    8.5320 N   0  0  0  0  0  0  0  0  0  0  0  0
   -6.9414   -3.1120   -1.5193 H   0  0  0  0  0  0  0  0  0  0  0  0
  -11.3574    1.0794    0.1172 H   0  0  0  0  0  0  0  0  0  0  0  0
  -12.6343    0.4638    2.1152 H   0  0  0  0  0  0  0  0  0  0  0  0
   -8.6563    1.2969    1.2342 H   0  0  0  0  0  0  0  0  0  0  0  0
   -9.1491    0.0880    3.3018 H   0  0  0  0  0  0  0  0  0  0  0  0
   -6.9445   -2.5481    4.7674 H   0  0  0  0  0  0  0  0  0  0  0  0
   -8.2692   -1.3867    5.1067 H   0  0  0  0  0  0  0  0  0  0  0  0
   -8.5995   -2.8445    4.1024 H   0  0  0  0  0  0  0  0  0  0  0  0
   -5.8255   -2.5554    2.5569 H   0  0  0  0  0  0  0  0  0  0  0  0
   -5.3174   -1.3371    0.4837 H   0  0  0  0  0  0  0  0  0  0  0  0
   -7.7904    2.0729   -2.6595 H   0  0  0  0  0  0  0  0  0  0  0  0
   -8.2465    4.4687   -2.8509 H   0  0  0  0  0  0  0  0  0  0  0  0
   -8.2962    6.7914   -0.1675 H   0  0  0  0  0  0  0  0  0  0  0  0
   -6.7142    6.9582   -1.0336 H   0  0  0  0  0  0  0  0  0  0  0  0
   -8.2336    6.6745   -1.9646 H   0  0  0  0  0  0  0  0  0  0  0  0
   -6.5688    5.1062    1.0698 H   0  0  0  0  0  0  0  0  0  0  0  0
   -6.1407    2.6915    1.2809 H   0  0  0  0  0  0  0  0  0  0  0  0
   -6.0616    0.8633   -5.7091 H   0  0  0  0  0  0  0  0  0  0  0  0
   -7.3774    1.4656   -7.6808 H   0  0  0  0  0  0  0  0  0  0  0  0
   -7.5154    1.1186  -10.2325 H   0  0  0  0  0  0  0  0  0  0  0  0
   -6.7138    2.7453  -10.3009 H   0  0  0  0  0  0  0  0  0  0  0  0
   -6.0212    1.3410  -11.2037 H   0  0  0  0  0  0  0  0  0  0  0  0
   -3.8597    1.0957  -10.1521 H   0  0  0  0  0  0  0  0  0  0  0  0
   -2.5467    0.4682   -8.1571 H   0  0  0  0  0  0  0  0  0  0  0  0
   -0.9325   -0.2289   -4.6943 H   0  0  0  0  0  0  0  0  0  0  0  0
    0.5834   -2.1256   -5.1493 H   0  0  0  0  0  0  0  0  0  0  0  0
    0.5351   -4.2583   -7.5732 H   0  0  0  0  0  0  0  0  0  0  0  0
    0.8908   -4.4231   -5.8087 H   0  0  0  0  0  0  0  0  0  0  0  0
   -0.4751   -5.3376   -6.5319 H   0  0  0  0  0  0  0  0  0  0  0  0
   -2.4646   -4.0455   -7.4757 H   0  0  0  0  0  0  0  0  0  0  0  0
   -3.9742   -2.1443   -7.0718 H   0  0  0  0  0  0  0  0  0  0  0  0
   -1.4435    3.4098   -2.2930 H   0  0  0  0  0  0  0  0  0  0  0  0
    4.4707    2.9030   -3.1163 H   0  0  0  0  0  0  0  0  0  0  0  0
    6.8694    1.6627   -3.3371 H   0  0  0  0  0  0  0  0  0  0  0  0
    9.0998    1.0836   -4.1740 H   0  0  0  0  0  0  0  0  0  0  0  0
   10.5346   -0.5483   -5.2579 H   0  0  0  0  0  0  0  0  0  0  0  0
   10.0831   -2.2687   -5.3255 H   0  0  0  0  0  0  0  0  0  0  0  0
   11.1868   -0.7806   -2.8416 H   0  0  0  0  0  0  0  0  0  0  0  0
   10.6950   -2.5201   -2.8763 H   0  0  0  0  0  0  0  0  0  0  0  0
   12.0754   -1.9462   -3.8864 H   0  0  0  0  0  0  0  0  0  0  0  0
    8.0835   -3.0961   -4.0207 H   0  0  0  0  0  0  0  0  0  0  0  0
    5.8649   -2.5507   -3.1726 H   0  0  0  0  0  0  0  0  0  0  0  0
    2.8490    1.4644   -1.3088 H   0  0  0  0  0  0  0  0  0  0  0  0
    3.0066    2.7912    0.7374 H   0  0  0  0  0  0  0  0  0  0  0  0
    5.9500    2.7959    3.0085 H   0  0  0  0  0  0  0  0  0  0  0  0
    4.2387    3.2790    2.8441 H   0  0  0  0  0  0  0  0  0  0  0  0
    4.9478    5.1210    1.2381 H   0  0  0  0  0  0  0  0  0  0  0  0
    6.6723    4.6112    1.4631 H   0  0  0  0  0  0  0  0  0  0  0  0
    5.7287    5.2638    2.8574 H   0  0  0  0  0  0  0  0  0  0  0  0
    7.1790    1.7950    1.0934 H   0  0  0  0  0  0  0  0  0  0  0  0
    7.0199    0.3818   -0.8610 H   0  0  0  0  0  0  0  0  0  0  0  0
    1.8307   -0.1406   -5.9709 H   0  0  0  0  0  0  0  0  0  0  0  0
   -0.3080    3.4553   -8.1853 H   0  0  0  0  0  0  0  0  0  0  0  0
   -1.5613    2.3443   -9.9628 H   0  0  0  0  0  0  0  0  0  0  0  0
   -1.8130    0.5734  -11.5651 H   0  0  0  0  0  0  0  0  0  0  0  0
   -0.3392   -0.3762  -11.9267 H   0  0  0  0  0  0  0  0  0  0  0  0
   -2.5257   -1.1146   -9.8657 H   0  0  0  0  0  0  0  0  0  0  0  0
   -1.0209   -2.0730  -10.1824 H   0  0  0  0  0  0  0  0  0  0  0  0
   -2.2643   -1.8671  -11.4707 H   0  0  0  0  0  0  0  0  0  0  0  0
    1.2524   -0.9207   -9.9076 H   0  0  0  0  0  0  0  0  0  0  0  0
    2.5279    0.2148   -8.1642 H   0  0  0  0  0  0  0  0  0  0  0  0
    1.4921    5.1540   -7.9177 H   0  0  0  0  0  0  0  0  0  0  0  0
    3.0446    6.6905   -8.9858 H   0  0  0  0  0  0  0  0  0  0  0  0
    5.1687    6.9586  -10.3036 H   0  0  0  0  0  0  0  0  0  0  0  0
    6.4706    5.7327  -10.1691 H   0  0  0  0  0  0  0  0  0  0  0  0
    6.9580    7.8841   -8.9094 H   0  0  0  0  0  0  0  0  0  0  0  0
    5.5668    7.5122   -7.8136 H   0  0  0  0  0  0  0  0  0  0  0  0
    6.9981    6.4005   -7.8781 H   0  0  0  0  0  0  0  0  0  0  0  0
    6.1042    3.6473   -8.9362 H   0  0  0  0  0  0  0  0  0  0  0  0
    4.5561    2.0973   -7.8468 H   0  0  0  0  0  0  0  0  0  0  0  0
    4.0699   -4.6317    1.5361 H   0  0  0  0  0  0  0  0  0  0  0  0
    3.8243   -7.0140    1.1329 H   0  0  0  0  0  0  0  0  0  0  0  0
    3.7581   -8.6348   -2.0507 H   0  0  0  0  0  0  0  0  0  0  0  0
    3.4702   -8.8649   -0.2977 H   0  0  0  0  0  0  0  0  0  0  0  0
    1.4272   -8.3309   -2.5207 H   0  0  0  0  0  0  0  0  0  0  0  0
    1.4801   -9.6806   -1.3322 H   0  0  0  0  0  0  0  0  0  0  0  0
    1.0129   -8.0212   -0.7715 H   0  0  0  0  0  0  0  0  0  0  0  0
    2.8940   -6.2426   -3.0057 H   0  0  0  0  0  0  0  0  0  0  0  0
    3.0761   -3.8403   -2.5998 H   0  0  0  0  0  0  0  0  0  0  0  0
    6.1150   -3.3210   -0.8902 H   0  0  0  0  0  0  0  0  0  0  0  0
    8.2861   -2.7744    0.0618 H   0  0  0  0  0  0  0  0  0  0  0  0
    9.5222   -0.9008    1.3704 H   0  0  0  0  0  0  0  0  0  0  0  0
    8.7435   -0.2676    2.8526 H   0  0  0  0  0  0  0  0  0  0  0  0
    8.6860   -2.6668    3.7696 H   0  0  0  0  0  0  0  0  0  0  0  0
    9.6270   -3.1785    2.3141 H   0  0  0  0  0  0  0  0  0  0  0  0
   10.3430   -2.0098    3.4889 H   0  0  0  0  0  0  0  0  0  0  0  0
    6.3625   -0.3114    3.0336 H   0  0  0  0  0  0  0  0  0  0  0  0
    4.2057   -0.6891    1.9768 H   0  0  0  0  0  0  0  0  0  0  0  0
    2.9511   -2.6557    2.7929 H   0  0  0  0  0  0  0  0  0  0  0  0
   -2.3429    2.9979    4.1487 H   0  0  0  0  0  0  0  0  0  0  0  0
   -4.6342    3.1599    4.9965 H   0  0  0  0  0  0  0  0  0  0  0  0
   -6.5394    0.2420    6.2883 H   0  0  0  0  0  0  0  0  0  0  0  0
   -6.3788    2.0359    6.3266 H   0  0  0  0  0  0  0  0  0  0  0  0
   -7.0419    1.2308    4.8510 H   0  0  0  0  0  0  0  0  0  0  0  0
   -4.9178   -1.1384    5.1000 H   0  0  0  0  0  0  0  0  0  0  0  0
   -2.6328   -1.3153    4.1878 H   0  0  0  0  0  0  0  0  0  0  0  0
   -1.8279    1.6329    1.2977 H   0  0  0  0  0  0  0  0  0  0  0  0
   -0.9628    3.5701    0.0370 H   0  0  0  0  0  0  0  0  0  0  0  0
    1.2065    4.9612   -0.4007 H   0  0  0  0  0  0  0  0  0  0  0  0
    2.1074    5.5260    1.0482 H   0  0  0  0  0  0  0  0  0  0  0  0
    0.3919    6.0293    0.8094 H   0  0  0  0  0  0  0  0  0  0  0  0
    2.0407    4.2033    3.0607 H   0  0  0  0  0  0  0  0  0  0  0  0
    1.2221    2.2548    4.2920 H   0  0  0  0  0  0  0  0  0  0  0  0
    2.1264   -4.0028    7.8815 H   0  0  0  0  0  0  0  0  0  0  0  0
    3.7173   -5.2282    6.4429 H   0  0  0  0  0  0  0  0  0  0  0  0
    5.7055   -5.3051    5.0871 H   0  0  0  0  0  0  0  0  0  0  0  0
    5.8728   -3.7454    4.2035 H   0  0  0  0  0  0  0  0  0  0  0  0
    7.0132   -4.1521    5.5499 H   0  0  0  0  0  0  0  0  0  0  0  0
    6.1465   -1.6809    6.1146 H   0  0  0  0  0  0  0  0  0  0  0  0
    4.5686   -0.4735    7.5699 H   0  0  0  0  0  0  0  0  0  0  0  0
    2.9251    1.1153    9.2447 H   0  0  0  0  0  0  0  0  0  0  0  0
    3.7975    1.8322   11.4386 H   0  0  0  0  0  0  0  0  0  0  0  0
    4.0994    1.3577   13.8356 H   0  0  0  0  0  0  0  0  0  0  0  0
    5.3550    0.0759   13.5993 H   0  0  0  0  0  0  0  0  0  0  0  0
    3.8183   -0.2960   14.4823 H   0  0  0  0  0  0  0  0  0  0  0  0
    3.3847   -2.2051   12.9086 H   0  0  0  0  0  0  0  0  0  0  0  0
    2.5161   -2.9116   10.7129 H   0  0  0  0  0  0  0  0  0  0  0  0
    0.0216   -0.8418   10.3606 H   0  0  0  0  0  0  0  0  0  0  0  0
   -0.4378    2.6654   14.3685 H   0  0  0  0  0  0  0  0  0  0  0  0
   -0.7065    5.1365   14.4808 H   0  0  0  0  0  0  0  0  0  0  0  0
   -1.2798    5.3270   10.2238 H   0  0  0  0  0  0  0  0  0  0  0  0
  1  2  2  3
  2  3  1  0
  3  4  2  0
  3  5  1  0
  5  6  2  0
  6  7  1  0
  7  8  2  0
  8  9  1  0
  9 10  1  0
  9 11  2  0
 11 12  1  0
  6 13  1  0
 13 14  2  3
 14 15  1  0
 15 16  3  0
 14 17  1  0
 17 18  3  0
  1 19  1  0
 19 20  2  0
 20 21  1  0
 21 22  1  0
 22 23  2  0
 23 24  1  0
 24 25  2  0
 25 26  1  0
 25 27  1  0
 27 28  2  0
 21 29  1  0
 29 30  2  0
 30 31  1  0
 31 32  2  0
 32 33  1  0
 32 34  1  0
 34 35  2  0
 20 36  1  0
 36 37  1  0
 37 38  1  0
 38 39  2  0
 39 40  1  0
 40 41  1  0
 41 42  2  0
 42 43  1  0
 43 44  2  0
 44 45  1  0
 44 46  1  0
 46 47  2  0
 40 48  1  0
 48 49  2  0
 49 50  1  0
 50 51  2  0
 51 52  1  0
 51 53  1  0
 53 54  2  0
 39 55  1  0
 55 56  1  0
 38 57  1  0
 57 58  2  0
 58 59  1  0
 59 60  1  0
 60 61  1  0
 61 62  1  0
 62 63  2  0
 63 64  1  0
 64 65  1  0
 65 66  1  0
 66 67  2  0
 67 68  1  0
 68 69  2  0
 69 70  1  0
 70 71  1  0
 69 72  1  0
 72 73  2  0
 65 74  1  0
 74 75  2  0
 75 76  1  0
 76 77  2  0
 77 78  1  0
 78 79  1  0
 77 80  1  0
 80 81  2  0
 65 82  1  0
 82 83  2  0
 83 84  1  0
 84 85  1  0
 85 86  2  0
 86 87  1  0
 87 88  1  0
 88 89  2  0
 89 90  1  0
 90 91  2  0
 91 92  1  0
 92 93  1  0
 91 94  1  0
 94 95  2  0
 87 96  1  0
 96 97  2  0
 97 98  1  0
 98 99  2  0
 99100  1  0
100101  1  0
 99102  1  0
102103  2  0
 87104  1  0
104105  1  0
105106  1  0
 83107  1  0
107108  1  0
108109  1  0
109110  2  0
110111  1  0
111112  1  0
111113  1  0
113114  2  0
114115  1  0
115116  2  0
116117  1  0
117118  1  0
116119  1  0
119120  2  0
111121  1  0
121122  2  0
122123  1  0
123124  2  0
124125  1  0
125126  1  0
124127  1  0
127128  2  0
110129  1  0
129130  2  0
130131  1  0
130132  1  0
132133  2  0
133134  1  0
134135  1  0
135136  2  0
136137  1  0
137138  2  0
138139  1  0
138140  1  0
140141  2  0
134142  1  0
142143  2  0
143144  1  0
144145  2  0
145146  1  0
145147  1  0
147148  2  0
133149  1  0
149150  1  0
150151  1  0
151152  2  0
152153  1  0
153154  1  0
154155  2  0
155156  1  0
156157  2  0
157158  1  0
157159  1  0
159160  2  0
153161  1  0
161162  2  0
162163  1  0
163164  2  0
164165  1  0
164166  1  0
166167  2  0
152168  1  0
168169  1  0
151170  1  0
170171  2  3
171172  1  0
172173  2  0
172174  1  0
174175  2  0
175176  1  0
176177  2  0
177178  1  0
177179  1  0
179180  2  0
180181  1  0
181182  2  3
182183  1  0
183184  3  0
182185  1  0
185186  3  0
 13  2  1  0
 56 19  1  0
106 57  1  0
112108  2  0
120113  1  0
128121  1  0
169132  1  0
181171  1  0
 11  5  1  0
 28 22  1  0
 35 29  1  0
 55 36  2  0
105 59  2  0
131109  1  0
141135  1  0
148142  1  0
168149  2  0
180174  1  0
 47 41  1  0
 54 48  1  0
104 61  2  0
160154  1  0
167161  1  0
 86 62  1  0
 95 88  1  0
103 96  1  0
 84 64  2  0
 73 66  1  0
 81 74  1  0
112 82  1  0
  1187  1  0
  7188  1  0
  8189  1  0
 23190  1  0
 24191  1  0
 26192  1  0
 26193  1  0
 26194  1  0
 27195  1  0
 28196  1  0
 30197  1  0
 31198  1  0
 33199  1  0
 33200  1  0
 33201  1  0
 34202  1  0
 35203  1  0
 42204  1  0
 43205  1  0
 45206  1  0
 45207  1  0
 45208  1  0
 46209  1  0
 47210  1  0
 49211  1  0
 50212  1  0
 52213  1  0
 52214  1  0
 52215  1  0
 53216  1  0
 54217  1  0
 58218  1  0
 63219  1  0
 67220  1  0
 68221  1  0
 70222  1  0
 70223  1  0
 71224  1  0
 71225  1  0
 71226  1  0
 72227  1  0
 73228  1  0
 75229  1  0
 76230  1  0
 78231  1  0
 78232  1  0
 79233  1  0
 79234  1  0
 79235  1  0
 80236  1  0
 81237  1  0
 85238  1  0
 89239  1  0
 90240  1  0
 92241  1  0
 92242  1  0
 93243  1  0
 93244  1  0
 93245  1  0
 94246  1  0
 95247  1  0
 97248  1  0
 98249  1  0
100250  1  0
100251  1  0
101252  1  0
101253  1  0
101254  1  0
102255  1  0
103256  1  0
114257  1  0
115258  1  0
117259  1  0
117260  1  0
118261  1  0
118262  1  0
118263  1  0
119264  1  0
120265  1  0
122266  1  0
123267  1  0
125268  1  0
125269  1  0
126270  1  0
126271  1  0
126272  1  0
127273  1  0
128274  1  0
129275  1  0
136276  1  0
137277  1  0
139278  1  0
139279  1  0
139280  1  0
140281  1  0
141282  1  0
143283  1  0
144284  1  0
146285  1  0
146286  1  0
146287  1  0
147288  1  0
148289  1  0
155290  1  0
156291  1  0
158292  1  0
158293  1  0
158294  1  0
159295  1  0
160296  1  0
162297  1  0
163298  1  0
165299  1  0
165300  1  0
165301  1  0
166302  1  0
167303  1  0
170304  1  0
175305  1  0
176306  1  0
179307  1  0
M  END

