
     RDKit          3D

249274  0  0  0  0  0  0  0  0999 V2000
    3.8587  -10.5007    4.6662 C   0  0  0  0  0  0  0  0  0  0  0  0
    3.4918  -11.7555    4.3795 C   0  0  0  0  0  0  0  0  0  0  0  0
    2.4152  -12.2170    3.4802 C   0  0  0  0  0  0  0  0  0  0  0  0
    1.6926  -11.4917    2.7538 O   0  0  0  0  0  0  0  0  0  0  0  0
    2.3689  -13.6810    3.5595 C   0  0  0  0  0  0  0  0  0  0  0  0
    3.3464  -14.0949    4.4448 C   0  0  0  0  0  0  0  0  0  0  0  0
    3.3474  -15.3959    4.9563 C   0  0  0  0  0  0  0  0  0  0  0  0
    2.3866  -16.2974    4.4965 C   0  0  0  0  0  0  0  0  0  0  0  0
    1.4264  -15.9020    3.5476 C   0  0  0  0  0  0  0  0  0  0  0  0
    0.2358  -17.2369    2.8323 Br  0  0  0  0  0  0  0  0  0  0  0  0
    1.3743  -14.5635    3.1038 C   0  0  0  0  0  0  0  0  0  0  0  0
    0.0937  -14.0179    2.0226 Cl  0  0  0  0  0  0  0  0  0  0  0  0
    4.2313  -12.9604    4.8074 C   0  0  0  0  0  0  0  0  0  0  0  0
    5.5740  -13.0701    4.6375 C   0  0  0  0  0  0  0  0  0  0  0  0
    6.3120  -12.0086    3.9544 C   0  0  0  0  0  0  0  0  0  0  0  0
    6.8256  -11.2214    3.2733 N   0  0  0  0  0  0  0  0  0  0  0  0
    6.2434  -14.3581    4.6147 C   0  0  0  0  0  0  0  0  0  0  0  0
    6.7773  -15.3925    4.5462 N   0  0  0  0  0  0  0  0  0  0  0  0
    3.4878   -9.3466    3.8568 C   0  0  0  0  0  0  0  0  0  0  0  0
    3.2053   -8.0628    4.3526 C   0  0  0  0  0  0  0  0  0  0  0  0
    3.1465   -7.7147    5.7522 N   0  0  0  0  0  0  0  0  0  0  0  0
    4.2261   -6.9373    6.3334 C   0  0  0  0  0  0  0  0  0  0  0  0
    5.5561   -7.2125    5.9846 C   0  0  0  0  0  0  0  0  0  0  0  0
    6.6015   -6.4964    6.5643 C   0  0  0  0  0  0  0  0  0  0  0  0
    6.3458   -5.4856    7.5076 C   0  0  0  0  0  0  0  0  0  0  0  0
    7.4702   -4.7291    8.1307 C   0  0  0  0  0  0  0  0  0  0  0  0
    5.0146   -5.1776    7.8328 C   0  0  0  0  0  0  0  0  0  0  0  0
    3.9686   -5.8927    7.2462 C   0  0  0  0  0  0  0  0  0  0  0  0
    1.9378   -7.9545    6.4894 C   0  0  0  0  0  0  0  0  0  0  0  0
    2.0043   -8.3645    7.8304 C   0  0  0  0  0  0  0  0  0  0  0  0
    0.8434   -8.4999    8.5946 C   0  0  0  0  0  0  0  0  0  0  0  0
   -0.4044   -8.2344    8.0152 C   0  0  0  0  0  0  0  0  0  0  0  0
   -1.6705   -8.3538    8.8132 C   0  0  0  0  0  0  0  0  0  0  0  0
   -0.4803   -7.8255    6.6711 C   0  0  0  0  0  0  0  0  0  0  0  0
    0.6856   -7.6949    5.9106 C   0  0  0  0  0  0  0  0  0  0  0  0
    3.1116   -7.1497    3.3180 C   0  0  0  0  0  0  0  0  0  0  0  0
    2.8391   -5.4950    3.1990 S   0  0  0  0  0  0  0  0  0  0  0  0
    3.0635   -5.4257    1.5091 C   0  0  0  0  0  0  0  0  0  0  0  0
    3.3808   -6.7181    1.0510 C   0  0  0  0  0  0  0  0  0  0  0  0
    4.0700   -7.0256   -0.1724 N   0  0  0  0  0  0  0  0  0  0  0  0
    3.3970   -7.8754   -1.1442 C   0  0  0  0  0  0  0  0  0  0  0  0
    4.1001   -8.8656   -1.8613 C   0  0  0  0  0  0  0  0  0  0  0  0
    3.4724   -9.5772   -2.8841 C   0  0  0  0  0  0  0  0  0  0  0  0
    2.1140   -9.3735   -3.1695 C   0  0  0  0  0  0  0  0  0  0  0  0
    1.4861  -10.0837   -4.3277 C   0  0  0  0  0  0  0  0  0  0  0  0
    1.3912   -8.4428   -2.4050 C   0  0  0  0  0  0  0  0  0  0  0  0
    2.0201   -7.7236   -1.3835 C   0  0  0  0  0  0  0  0  0  0  0  0
    5.5040   -6.8010   -0.2162 C   0  0  0  0  0  0  0  0  0  0  0  0
    6.2878   -6.7775    0.9571 C   0  0  0  0  0  0  0  0  0  0  0  0
    7.6591   -6.5301    0.9016 C   0  0  0  0  0  0  0  0  0  0  0  0
    8.2703   -6.2764   -0.3340 C   0  0  0  0  0  0  0  0  0  0  0  0
    9.7417   -6.0354   -0.3955 C   0  0  0  0  0  0  0  0  0  0  0  0
    7.5101   -6.3140   -1.5025 C   0  0  0  0  0  0  0  0  0  0  0  0
    6.1427   -6.5821   -1.4503 C   0  0  0  0  0  0  0  0  0  0  0  0
    3.3506   -7.6428    2.0810 C   0  0  0  0  0  0  0  0  0  0  0  0
    3.7430   -9.2668    2.1778 S   0  0  0  0  0  0  0  0  0  0  0  0
    2.6164   -4.2826    0.6731 C   0  0  0  0  0  0  0  0  0  0  0  0
    2.2496   -4.3923   -0.6942 C   0  0  0  0  0  0  0  0  0  0  0  0
    3.2965   -4.4871   -1.7468 C   0  0  0  0  0  0  0  0  0  0  0  0
    3.0132   -5.0544   -3.0026 C   0  0  0  0  0  0  0  0  0  0  0  0
    3.9295   -4.9478   -4.0585 C   0  0  0  0  0  0  0  0  0  0  0  0
    5.1353   -4.2552   -3.8640 C   0  0  0  0  0  0  0  0  0  0  0  0
    5.4287   -3.6763   -2.6233 C   0  0  0  0  0  0  0  0  0  0  0  0
    6.6929   -2.8838   -2.4311 C   0  0  0  0  0  0  0  0  0  0  0  0
    6.4655   -1.4146   -2.7479 C   0  0  0  0  0  0  0  0  0  0  0  0
    4.5074   -3.7894   -1.5690 C   0  0  0  0  0  0  0  0  0  0  0  0
    1.1756   -3.5438   -0.9666 C   0  0  0  0  0  0  0  0  0  0  0  0
   -0.1666   -3.7226   -2.0261 S   0  0  0  0  0  0  0  0  0  0  0  0
   -1.0182   -2.4938   -1.2027 C   0  0  0  0  0  0  0  0  0  0  0  0
   -2.1561   -1.7340   -1.3230 C   0  0  0  0  0  0  0  0  0  0  0  0
   -3.2750   -1.8575   -2.1525 C   0  0  0  0  0  0  0  0  0  0  0  0
   -4.3163   -0.8769   -2.0491 C   0  0  0  0  0  0  0  0  0  0  0  0
   -5.3997   -1.0470   -2.8478 N   0  0  0  0  0  0  0  0  0  0  0  0
   -4.9487   -2.4355   -3.6461 S   0  0  0  0  0  0  0  0  0  0  0  0
   -3.4620   -2.8689   -3.0495 N   0  0  0  0  0  0  0  0  0  0  0  0
   -4.1625    0.1732   -1.1381 C   0  0  0  0  0  0  0  0  0  0  0  0
   -4.9543    1.2578   -0.8456 C   0  0  0  0  0  0  0  0  0  0  0  0
   -6.2599    2.1121   -1.5175 S   0  0  0  0  0  0  0  0  0  0  0  0
   -5.8775    3.5045   -0.5893 C   0  0  0  0  0  0  0  0  0  0  0  0
   -6.1426    4.8653   -0.8155 C   0  0  0  0  0  0  0  0  0  0  0  0
   -7.4382    5.3773   -1.3107 C   0  0  0  0  0  0  0  0  0  0  0  0
   -8.0447    4.8823   -2.4775 C   0  0  0  0  0  0  0  0  0  0  0  0
   -9.3246    5.3300   -2.8497 C   0  0  0  0  0  0  0  0  0  0  0  0
  -10.0089    6.2551   -2.0493 C   0  0  0  0  0  0  0  0  0  0  0  0
   -9.3911    6.7732   -0.8997 C   0  0  0  0  0  0  0  0  0  0  0  0
  -10.1323    7.7282    0.0134 C   0  0  0  0  0  0  0  0  0  0  0  0
  -10.7485    6.9793    1.1929 C   0  0  0  0  0  0  0  0  0  0  0  0
   -8.1196    6.3313   -0.5327 C   0  0  0  0  0  0  0  0  0  0  0  0
   -5.1187    5.7039   -0.3146 C   0  0  0  0  0  0  0  0  0  0  0  0
   -3.9618    4.7233    0.4550 S   0  0  0  0  0  0  0  0  0  0  0  0
   -4.7624    3.2754    0.1813 C   0  0  0  0  0  0  0  0  0  0  0  0
   -4.2818    1.9873    0.0703 C   0  0  0  0  0  0  0  0  0  0  0  0
   -3.1313    1.4162    0.4829 N   0  0  0  0  0  0  0  0  0  0  0  0
   -3.0214    0.3034   -0.3207 C   0  0  0  0  0  0  0  0  0  0  0  0
   -1.9945   -0.6748   -0.4120 C   0  0  0  0  0  0  0  0  0  0  0  0
   -0.7769   -0.7423    0.2032 N   0  0  0  0  0  0  0  0  0  0  0  0
   -0.2949   -1.9510   -0.1980 C   0  0  0  0  0  0  0  0  0  0  0  0
    0.9281   -2.5835   -0.0281 C   0  0  0  0  0  0  0  0  0  0  0  0
    1.7831   -2.9561    1.3540 S   0  0  0  0  0  0  0  0  0  0  0  0
    0.0499    0.4216    0.5617 C   0  0  0  0  0  0  0  0  0  0  0  0
    1.4032    0.4592   -0.1556 C   0  0  0  0  0  0  0  0  0  0  0  0
   -2.6065    1.6795    1.8305 C   0  0  0  0  0  0  0  0  0  0  0  0
   -2.6915    0.4413    2.7380 C   0  0  0  0  0  0  0  0  0  0  0  0
   -4.7684    6.9855   -0.9736 C   0  0  0  0  0  0  0  0  0  0  0  0
   -3.8037    7.9593   -0.5932 C   0  0  0  0  0  0  0  0  0  0  0  0
   -3.1796    8.0346    0.7076 N   0  0  0  0  0  0  0  0  0  0  0  0
   -1.9172    7.3524    0.9445 C   0  0  0  0  0  0  0  0  0  0  0  0
   -0.7976    7.5874    0.1231 C   0  0  0  0  0  0  0  0  0  0  0  0
    0.4141    6.9311    0.3422 C   0  0  0  0  0  0  0  0  0  0  0  0
    0.5408    6.0189    1.4019 C   0  0  0  0  0  0  0  0  0  0  0  0
    1.8100    5.2602    1.6014 C   0  0  0  0  0  0  0  0  0  0  0  0
   -0.5715    5.7602    2.2192 C   0  0  0  0  0  0  0  0  0  0  0  0
   -1.7853    6.4138    1.9921 C   0  0  0  0  0  0  0  0  0  0  0  0
   -3.6417    9.0243    1.6572 C   0  0  0  0  0  0  0  0  0  0  0  0
   -3.8023   10.3755    1.2753 C   0  0  0  0  0  0  0  0  0  0  0  0
   -4.1377   11.3573    2.2166 C   0  0  0  0  0  0  0  0  0  0  0  0
   -4.3511   11.0047    3.5551 C   0  0  0  0  0  0  0  0  0  0  0  0
   -4.6600   12.0577    4.5757 C   0  0  0  0  0  0  0  0  0  0  0  0
   -4.2371    9.6626    3.9462 C   0  0  0  0  0  0  0  0  0  0  0  0
   -3.9102    8.6815    3.0036 C   0  0  0  0  0  0  0  0  0  0  0  0
   -3.4857    8.8081   -1.6829 C   0  0  0  0  0  0  0  0  0  0  0  0
   -2.3488   10.0084   -1.9581 S   0  0  0  0  0  0  0  0  0  0  0  0
   -2.5743   10.0696   -3.6393 C   0  0  0  0  0  0  0  0  0  0  0  0
   -3.5979    9.1651   -4.0161 C   0  0  0  0  0  0  0  0  0  0  0  0
   -4.0061    8.8546   -5.3831 N   0  0  0  0  0  0  0  0  0  0  0  0
   -4.9755    7.8275   -5.6507 C   0  0  0  0  0  0  0  0  0  0  0  0
   -4.5703    6.4837   -5.6734 C   0  0  0  0  0  0  0  0  0  0  0  0
   -5.5072    5.4806   -5.9331 C   0  0  0  0  0  0  0  0  0  0  0  0
   -6.8364    5.8150   -6.2316 C   0  0  0  0  0  0  0  0  0  0  0  0
   -7.8354    4.7278   -6.5128 C   0  0  0  0  0  0  0  0  0  0  0  0
   -7.2477    7.1565   -6.1976 C   0  0  0  0  0  0  0  0  0  0  0  0
   -6.3130    8.1576   -5.9037 C   0  0  0  0  0  0  0  0  0  0  0  0
   -3.3252    9.3484   -6.5492 C   0  0  0  0  0  0  0  0  0  0  0  0
   -2.0763    8.8273   -6.9228 C   0  0  0  0  0  0  0  0  0  0  0  0
   -1.4986    9.1759   -8.1488 C   0  0  0  0  0  0  0  0  0  0  0  0
   -2.2070    9.9849   -9.0575 C   0  0  0  0  0  0  0  0  0  0  0  0
   -1.6129   10.3024  -10.3931 C   0  0  0  0  0  0  0  0  0  0  0  0
   -3.4709   10.4885   -8.6986 C   0  0  0  0  0  0  0  0  0  0  0  0
   -4.0241   10.1739   -7.4512 C   0  0  0  0  0  0  0  0  0  0  0  0
   -4.0899    8.5087   -2.8679 C   0  0  0  0  0  0  0  0  0  0  0  0
   -5.1244    7.2314   -2.6132 S   0  0  0  0  0  0  0  0  0  0  0  0
   -1.5644   10.6732   -4.5204 C   0  0  0  0  0  0  0  0  0  0  0  0
   -0.2945   10.1978   -4.6006 C   0  0  0  0  0  0  0  0  0  0  0  0
    0.1442    8.8968   -4.0587 C   0  0  0  0  0  0  0  0  0  0  0  0
   -0.5822    8.0362   -3.4760 O   0  0  0  0  0  0  0  0  0  0  0  0
    1.5167    8.6777   -4.4248 C   0  0  0  0  0  0  0  0  0  0  0  0
    2.3027    7.5719   -4.0999 C   0  0  0  0  0  0  0  0  0  0  0  0
    3.6224    7.5438   -4.5538 C   0  0  0  0  0  0  0  0  0  0  0  0
    4.4172    6.4911   -4.2573 F   0  0  0  0  0  0  0  0  0  0  0  0
    4.1277    8.6127   -5.3161 C   0  0  0  0  0  0  0  0  0  0  0  0
    3.3182    9.7186   -5.6348 C   0  0  0  0  0  0  0  0  0  0  0  0
    1.9847    9.7379   -5.1829 C   0  0  0  0  0  0  0  0  0  0  0  0
    0.8927   10.7586   -5.3488 C   0  0  0  0  0  0  0  0  0  0  0  0
    0.9937   11.9635   -5.9757 C   0  0  0  0  0  0  0  0  0  0  0  0
   -0.0636   12.9411   -5.9738 C   0  0  0  0  0  0  0  0  0  0  0  0
   -0.8994   13.7473   -5.9823 N   0  0  0  0  0  0  0  0  0  0  0  0
    2.1811   12.3754   -6.6809 C   0  0  0  0  0  0  0  0  0  0  0  0
    3.1266   12.7312   -7.2551 N   0  0  0  0  0  0  0  0  0  0  0  0
    4.6228  -10.3576    5.4378 H   0  0  0  0  0  0  0  0  0  0  0  0
    3.9770  -15.6513    5.7762 H   0  0  0  0  0  0  0  0  0  0  0  0
    2.3991  -17.3239    4.8495 H   0  0  0  0  0  0  0  0  0  0  0  0
    5.7888   -7.9955    5.2781 H   0  0  0  0  0  0  0  0  0  0  0  0
    7.6160   -6.7418    6.2799 H   0  0  0  0  0  0  0  0  0  0  0  0
    8.4466   -5.1893    7.8855 H   0  0  0  0  0  0  0  0  0  0  0  0
    7.3545   -4.7334    9.2377 H   0  0  0  0  0  0  0  0  0  0  0  0
    7.4615   -3.6806    7.7609 H   0  0  0  0  0  0  0  0  0  0  0  0
    4.7780   -4.3863    8.5423 H   0  0  0  0  0  0  0  0  0  0  0  0
    2.9411   -5.6272    7.5017 H   0  0  0  0  0  0  0  0  0  0  0  0
    2.9647   -8.5535    8.3024 H   0  0  0  0  0  0  0  0  0  0  0  0
    0.9173   -8.7911    9.6381 H   0  0  0  0  0  0  0  0  0  0  0  0
   -2.1559   -7.3559    8.9020 H   0  0  0  0  0  0  0  0  0  0  0  0
   -1.4645   -8.7414    9.8355 H   0  0  0  0  0  0  0  0  0  0  0  0
   -2.3662   -9.0633    8.3094 H   0  0  0  0  0  0  0  0  0  0  0  0
   -1.4381   -7.5984    6.2183 H   0  0  0  0  0  0  0  0  0  0  0  0
    0.6077   -7.3441    4.8857 H   0  0  0  0  0  0  0  0  0  0  0  0
    5.1463   -9.0700   -1.6674 H   0  0  0  0  0  0  0  0  0  0  0  0
    4.0565  -10.2931   -3.4624 H   0  0  0  0  0  0  0  0  0  0  0  0
    0.3825  -10.1543   -4.2057 H   0  0  0  0  0  0  0  0  0  0  0  0
    1.7054   -9.5308   -5.2623 H   0  0  0  0  0  0  0  0  0  0  0  0
    1.8815  -11.1152   -4.4139 H   0  0  0  0  0  0  0  0  0  0  0  0
    0.3430   -8.2654   -2.6214 H   0  0  0  0  0  0  0  0  0  0  0  0
    1.4294   -6.9927   -0.8386 H   0  0  0  0  0  0  0  0  0  0  0  0
    5.8682   -6.9581    1.9357 H   0  0  0  0  0  0  0  0  0  0  0  0
    8.2250   -6.5500    1.8296 H   0  0  0  0  0  0  0  0  0  0  0  0
   10.2647   -6.9974   -0.6122 H   0  0  0  0  0  0  0  0  0  0  0  0
   10.1177   -5.6301    0.5759 H   0  0  0  0  0  0  0  0  0  0  0  0
    9.9781   -5.2954   -1.1899 H   0  0  0  0  0  0  0  0  0  0  0  0
    7.9669   -6.1330   -2.4711 H   0  0  0  0  0  0  0  0  0  0  0  0
    5.5671   -6.5914   -2.3717 H   0  0  0  0  0  0  0  0  0  0  0  0
    2.0692   -5.5529   -3.1685 H   0  0  0  0  0  0  0  0  0  0  0  0
    3.7005   -5.3929   -5.0219 H   0  0  0  0  0  0  0  0  0  0  0  0
    5.8371   -4.1661   -4.6861 H   0  0  0  0  0  0  0  0  0  0  0  0
    7.0452   -2.9801   -1.3797 H   0  0  0  0  0  0  0  0  0  0  0  0
    7.5105   -3.2834   -3.0807 H   0  0  0  0  0  0  0  0  0  0  0  0
    6.3169   -1.2706   -3.8445 H   0  0  0  0  0  0  0  0  0  0  0  0
    7.3499   -0.8185   -2.4354 H   0  0  0  0  0  0  0  0  0  0  0  0
    5.5731   -1.0293   -2.2025 H   0  0  0  0  0  0  0  0  0  0  0  0
    4.7212   -3.2802   -0.6308 H   0  0  0  0  0  0  0  0  0  0  0  0
   -7.5313    4.1732   -3.1078 H   0  0  0  0  0  0  0  0  0  0  0  0
   -9.7942    4.9349   -3.7403 H   0  0  0  0  0  0  0  0  0  0  0  0
  -11.0038    6.5714   -2.3321 H   0  0  0  0  0  0  0  0  0  0  0  0
  -10.9216    8.2694   -0.5462 H   0  0  0  0  0  0  0  0  0  0  0  0
   -9.4166    8.4867    0.3974 H   0  0  0  0  0  0  0  0  0  0  0  0
  -11.1525    7.7098    1.9260 H   0  0  0  0  0  0  0  0  0  0  0  0
   -9.9896    6.3445    1.7028 H   0  0  0  0  0  0  0  0  0  0  0  0
  -11.5808    6.3327    0.8383 H   0  0  0  0  0  0  0  0  0  0  0  0
   -7.6616    6.7065    0.3822 H   0  0  0  0  0  0  0  0  0  0  0  0
    0.2162    0.4516    1.6605 H   0  0  0  0  0  0  0  0  0  0  0  0
   -0.4593    1.3439    0.2151 H   0  0  0  0  0  0  0  0  0  0  0  0
    2.1298   -0.2321    0.3205 H   0  0  0  0  0  0  0  0  0  0  0  0
    1.8443    1.4777   -0.0794 H   0  0  0  0  0  0  0  0  0  0  0  0
    1.2820    0.2099   -1.2301 H   0  0  0  0  0  0  0  0  0  0  0  0
   -1.5850    2.1097    1.8152 H   0  0  0  0  0  0  0  0  0  0  0  0
   -3.1953    2.4905    2.3210 H   0  0  0  0  0  0  0  0  0  0  0  0
   -3.1703    0.7161    3.7029 H   0  0  0  0  0  0  0  0  0  0  0  0
   -3.2913   -0.3755    2.2852 H   0  0  0  0  0  0  0  0  0  0  0  0
   -1.6740    0.0413    2.9631 H   0  0  0  0  0  0  0  0  0  0  0  0
   -0.8443    8.2883   -0.6808 H   0  0  0  0  0  0  0  0  0  0  0  0
    1.2457    7.1347   -0.3195 H   0  0  0  0  0  0  0  0  0  0  0  0
    1.7308    4.2713    1.0998 H   0  0  0  0  0  0  0  0  0  0  0  0
    2.6751    5.8191    1.1812 H   0  0  0  0  0  0  0  0  0  0  0  0
    1.9971    5.1049    2.6846 H   0  0  0  0  0  0  0  0  0  0  0  0
   -0.5084    5.0288    3.0171 H   0  0  0  0  0  0  0  0  0  0  0  0
   -2.6292    6.1330    2.6013 H   0  0  0  0  0  0  0  0  0  0  0  0
   -3.6406   10.6886    0.2619 H   0  0  0  0  0  0  0  0  0  0  0  0
   -4.2188   12.3910    1.9043 H   0  0  0  0  0  0  0  0  0  0  0  0
   -5.1824   12.9157    4.1042 H   0  0  0  0  0  0  0  0  0  0  0  0
   -3.7148   12.4121    5.0343 H   0  0  0  0  0  0  0  0  0  0  0  0
   -5.3180   11.6549    5.3774 H   0  0  0  0  0  0  0  0  0  0  0  0
   -4.4160    9.3600    4.9708 H   0  0  0  0  0  0  0  0  0  0  0  0
   -3.8931    7.6593    3.3399 H   0  0  0  0  0  0  0  0  0  0  0  0
   -3.5382    6.2228   -5.4387 H   0  0  0  0  0  0  0  0  0  0  0  0
   -5.1856    4.4402   -5.8992 H   0  0  0  0  0  0  0  0  0  0  0  0
   -8.6336    5.1025   -7.1862 H   0  0  0  0  0  0  0  0  0  0  0  0
   -7.3338    3.8682   -7.0050 H   0  0  0  0  0  0  0  0  0  0  0  0
   -8.2812    4.3836   -5.5587 H   0  0  0  0  0  0  0  0  0  0  0  0
   -8.2678    7.4383   -6.4184 H   0  0  0  0  0  0  0  0  0  0  0  0
   -6.6237    9.1865   -5.8781 H   0  0  0  0  0  0  0  0  0  0  0  0
   -1.5722    8.1354   -6.2677 H   0  0  0  0  0  0  0  0  0  0  0  0
   -0.5357    8.7684   -8.4107 H   0  0  0  0  0  0  0  0  0  0  0  0
   -1.3687    9.3599  -10.9289 H   0  0  0  0  0  0  0  0  0  0  0  0
   -2.3111   10.8920  -11.0219 H   0  0  0  0  0  0  0  0  0  0  0  0
   -0.6864   10.8941  -10.2518 H   0  0  0  0  0  0  0  0  0  0  0  0
   -4.0504   11.0897   -9.3979 H   0  0  0  0  0  0  0  0  0  0  0  0
   -5.0198   10.5305   -7.2158 H   0  0  0  0  0  0  0  0  0  0  0  0
   -1.8892   11.5230   -5.0907 H   0  0  0  0  0  0  0  0  0  0  0  0
    1.8865    6.7588   -3.5086 H   0  0  0  0  0  0  0  0  0  0  0  0
    5.1521    8.5866   -5.6624 H   0  0  0  0  0  0  0  0  0  0  0  0
    3.7567   10.5063   -6.2138 H   0  0  0  0  0  0  0  0  0  0  0  0
  1  2  2  3
  2  3  1  0
  3  4  2  0
  3  5  1  0
  5  6  2  0
  6  7  1  0
  7  8  2  0
  8  9  1  0
  9 10  1  0
  9 11  2  0
 11 12  1  0
  6 13  1  0
 13 14  2  3
 14 15  1  0
 15 16  3  0
 14 17  1  0
 17 18  3  0
  1 19  1  0
 19 20  2  0
 20 21  1  0
 21 22  1  0
 22 23  2  0
 23 24  1  0
 24 25  2  0
 25 26  1  0
 25 27  1  0
 27 28  2  0
 21 29  1  0
 29 30  2  0
 30 31  1  0
 31 32  2  0
 32 33  1  0
 32 34  1  0
 34 35  2  0
 20 36  1  0
 36 37  1  0
 37 38  1  0
 38 39  2  0
 39 40  1  0
 40 41  1  0
 41 42  2  0
 42 43  1  0
 43 44  2  0
 44 45  1  0
 44 46  1  0
 46 47  2  0
 40 48  1  0
 48 49  2  0
 49 50  1  0
 50 51  2  0
 51 52  1  0
 51 53  1  0
 53 54  2  0
 39 55  1  0
 55 56  1  0
 38 57  1  0
 57 58  2  0
 58 59  1  0
 59 60  2  0
 60 61  1  0
 61 62  2  0
 62 63  1  0
 63 64  1  0
 64 65  1  0
 63 66  2  0
 58 67  1  0
 67 68  1  0
 68 69  1  0
 69 70  1  0
 70 71  1  0
 71 72  1  0
 72 73  2  0
 73 74  1  0
 74 75  1  0
 72 76  1  0
 76 77  1  0
 77 78  1  0
 78 79  1  0
 79 80  1  0
 80 81  1  0
 81 82  2  0
 82 83  1  0
 83 84  2  0
 84 85  1  0
 85 86  1  0
 86 87  1  0
 85 88  2  0
 80 89  2  0
 89 90  1  0
 90 91  1  0
 91 92  1  0
 92 93  1  0
 93 94  1  0
 94 95  1  0
 95 96  1  0
 96 97  1  0
 97 98  1  0
 98 99  1  0
 96100  1  0
100101  1  0
 93102  1  0
102103  1  0
 89104  1  0
104105  2  0
105106  1  0
106107  1  0
107108  2  0
108109  1  0
109110  2  0
110111  1  0
110112  1  0
112113  2  0
106114  1  0
114115  2  0
115116  1  0
116117  2  0
117118  1  0
117119  1  0
119120  2  0
105121  1  0
121122  1  0
122123  1  0
123124  2  0
124125  1  0
125126  1  0
126127  2  0
127128  1  0
128129  2  0
129130  1  0
129131  1  0
131132  2  0
125133  1  0
133134  2  0
134135  1  0
135136  2  0
136137  1  0
136138  1  0
138139  2  0
124140  1  0
140141  1  0
123142  1  0
142143  2  3
143144  1  0
144145  2  0
144146  1  0
146147  2  0
147148  1  0
148149  1  0
148150  2  0
150151  1  0
151152  2  0
152153  1  0
153154  2  3
154155  1  0
155156  3  0
154157  1  0
157158  3  0
 13  2  1  0
 56 19  1  0
 99 57  1  0
141104  1  0
153143  1  0
 11  5  1  0
 28 22  1  0
 35 29  1  0
 55 36  2  0
 66 59  1  0
 98 67  2  0
113107  1  0
120114  1  0
140121  2  0
152146  1  0
 47 41  1  0
 54 48  1  0
 97 69  2  0
132126  1  0
139133  1  0
 95 70  2  0
 75 71  2  0
 94 76  2  0
 92 77  2  0
 91 79  2  0
 88 81  1  0
  1159  1  0
  7160  1  0
  8161  1  0
 23162  1  0
 24163  1  0
 26164  1  0
 26165  1  0
 26166  1  0
 27167  1  0
 28168  1  0
 30169  1  0
 31170  1  0
 33171  1  0
 33172  1  0
 33173  1  0
 34174  1  0
 35175  1  0
 42176  1  0
 43177  1  0
 45178  1  0
 45179  1  0
 45180  1  0
 46181  1  0
 47182  1  0
 49183  1  0
 50184  1  0
 52185  1  0
 52186  1  0
 52187  1  0
 53188  1  0
 54189  1  0
 60190  1  0
 61191  1  0
 62192  1  0
 64193  1  0
 64194  1  0
 65195  1  0
 65196  1  0
 65197  1  0
 66198  1  0
 82199  1  0
 83200  1  0
 84201  1  0
 86202  1  0
 86203  1  0
 87204  1  0
 87205  1  0
 87206  1  0
 88207  1  0
100208  1  0
100209  1  0
101210  1  0
101211  1  0
101212  1  0
102213  1  0
102214  1  0
103215  1  0
103216  1  0
103217  1  0
108218  1  0
109219  1  0
111220  1  0
111221  1  0
111222  1  0
112223  1  0
113224  1  0
115225  1  0
116226  1  0
118227  1  0
118228  1  0
118229  1  0
119230  1  0
120231  1  0
127232  1  0
128233  1  0
130234  1  0
130235  1  0
130236  1  0
131237  1  0
132238  1  0
134239  1  0
135240  1  0
137241  1  0
137242  1  0
137243  1  0
138244  1  0
139245  1  0
142246  1  0
147247  1  0
150248  1  0
151249  1  0
M  END

