
     RDKit          3D

252277  0  0  0  0  0  0  0  0999 V2000
   -7.0560    7.1138    0.0548 C   0  0  0  0  0  0  0  0  0  0  0  0
   -8.1073    6.4007    0.4946 C   0  0  0  0  0  0  0  0  0  0  0  0
   -8.0931    4.9517    0.7532 C   0  0  0  0  0  0  0  0  0  0  0  0
   -7.0853    4.2048    0.6973 O   0  0  0  0  0  0  0  0  0  0  0  0
   -9.4630    4.5092    0.9730 C   0  0  0  0  0  0  0  0  0  0  0  0
  -10.3200    5.5967    0.8710 C   0  0  0  0  0  0  0  0  0  0  0  0
  -11.7070    5.3839    0.8858 C   0  0  0  0  0  0  0  0  0  0  0  0
  -12.2009    4.0935    1.1208 C   0  0  0  0  0  0  0  0  0  0  0  0
  -11.3206    3.0050    1.2807 C   0  0  0  0  0  0  0  0  0  0  0  0
  -12.0645    1.2639    1.5764 Br  0  0  0  0  0  0  0  0  0  0  0  0
   -9.9309    3.2004    1.1598 C   0  0  0  0  0  0  0  0  0  0  0  0
   -8.8236    1.8205    1.2125 Cl  0  0  0  0  0  0  0  0  0  0  0  0
   -9.5344    6.8462    0.6338 C   0  0  0  0  0  0  0  0  0  0  0  0
  -10.0052    8.1169    0.6957 C   0  0  0  0  0  0  0  0  0  0  0  0
  -11.3808    8.4270    0.9814 C   0  0  0  0  0  0  0  0  0  0  0  0
  -12.4844    8.7151    1.2193 N   0  0  0  0  0  0  0  0  0  0  0  0
   -9.1477    9.2689    0.6305 C   0  0  0  0  0  0  0  0  0  0  0  0
   -8.4610   10.2006    0.5841 N   0  0  0  0  0  0  0  0  0  0  0  0
   -5.6528    6.6685    0.1089 C   0  0  0  0  0  0  0  0  0  0  0  0
   -4.7229    6.8162   -0.9262 C   0  0  0  0  0  0  0  0  0  0  0  0
   -5.0947    7.1247   -2.2807 N   0  0  0  0  0  0  0  0  0  0  0  0
   -5.9339    6.1684   -2.9635 C   0  0  0  0  0  0  0  0  0  0  0  0
   -5.5777    4.8087   -2.9729 C   0  0  0  0  0  0  0  0  0  0  0  0
   -6.4209    3.8594   -3.5552 C   0  0  0  0  0  0  0  0  0  0  0  0
   -7.6284    4.2530   -4.1546 C   0  0  0  0  0  0  0  0  0  0  0  0
   -8.5657    3.2261   -4.7024 C   0  0  0  0  0  0  0  0  0  0  0  0
   -7.9858    5.6115   -4.1418 C   0  0  0  0  0  0  0  0  0  0  0  0
   -7.1360    6.5655   -3.5625 C   0  0  0  0  0  0  0  0  0  0  0  0
   -4.8086    8.4208   -2.8372 C   0  0  0  0  0  0  0  0  0  0  0  0
   -4.6365    8.5649   -4.2242 C   0  0  0  0  0  0  0  0  0  0  0  0
   -4.3531    9.8166   -4.7805 C   0  0  0  0  0  0  0  0  0  0  0  0
   -4.2294   10.9386   -3.9469 C   0  0  0  0  0  0  0  0  0  0  0  0
   -3.9985   12.2928   -4.5507 C   0  0  0  0  0  0  0  0  0  0  0  0
   -4.4025   10.8005   -2.5641 C   0  0  0  0  0  0  0  0  0  0  0  0
   -4.6755    9.5474   -2.0113 C   0  0  0  0  0  0  0  0  0  0  0  0
   -3.4269    6.5068   -0.5158 C   0  0  0  0  0  0  0  0  0  0  0  0
   -1.9189    6.4948   -1.2503 S   0  0  0  0  0  0  0  0  0  0  0  0
   -1.0934    6.0093    0.1640 C   0  0  0  0  0  0  0  0  0  0  0  0
   -2.0208    5.8123    1.2029 C   0  0  0  0  0  0  0  0  0  0  0  0
   -1.6783    5.2978    2.5059 N   0  0  0  0  0  0  0  0  0  0  0  0
   -0.8718    4.1086    2.6374 C   0  0  0  0  0  0  0  0  0  0  0  0
   -1.0085    3.0503    1.7156 C   0  0  0  0  0  0  0  0  0  0  0  0
   -0.2626    1.8742    1.8756 C   0  0  0  0  0  0  0  0  0  0  0  0
    0.6195    1.7361    2.9539 C   0  0  0  0  0  0  0  0  0  0  0  0
    1.4030    0.4732    3.1253 C   0  0  0  0  0  0  0  0  0  0  0  0
    0.7726    2.7979    3.8655 C   0  0  0  0  0  0  0  0  0  0  0  0
    0.0205    3.9650    3.7113 C   0  0  0  0  0  0  0  0  0  0  0  0
   -2.3248    5.8098    3.6811 C   0  0  0  0  0  0  0  0  0  0  0  0
   -1.8653    6.9806    4.3018 C   0  0  0  0  0  0  0  0  0  0  0  0
   -2.5405    7.5070    5.4112 C   0  0  0  0  0  0  0  0  0  0  0  0
   -3.6878    6.8639    5.9025 C   0  0  0  0  0  0  0  0  0  0  0  0
   -4.4701    7.4602    7.0341 C   0  0  0  0  0  0  0  0  0  0  0  0
   -4.1211    5.6629    5.3181 C   0  0  0  0  0  0  0  0  0  0  0  0
   -3.4271    5.1314    4.2239 C   0  0  0  0  0  0  0  0  0  0  0  0
   -3.3138    6.1301    0.7842 C   0  0  0  0  0  0  0  0  0  0  0  0
   -4.8336    6.1796    1.5196 S   0  0  0  0  0  0  0  0  0  0  0  0
    0.3713    5.9978    0.3210 C   0  0  0  0  0  0  0  0  0  0  0  0
    1.0842    6.6160    1.3757 C   0  0  0  0  0  0  0  0  0  0  0  0
    0.7844    7.9767    1.9571 C   0  0  0  0  0  0  0  0  0  0  0  0
    1.7693    8.6772    2.6993 C   0  0  0  0  0  0  0  0  0  0  0  0
    1.5284    9.9723    3.1699 C   0  0  0  0  0  0  0  0  0  0  0  0
    0.3077   10.6113    2.9155 C   0  0  0  0  0  0  0  0  0  0  0  0
   -0.6792    9.9457    2.1678 C   0  0  0  0  0  0  0  0  0  0  0  0
   -2.0058   10.6086    1.8795 C   0  0  0  0  0  0  0  0  0  0  0  0
   -2.0520   11.1833    0.4656 C   0  0  0  0  0  0  0  0  0  0  0  0
   -0.4080    8.6758    1.6540 C   0  0  0  0  0  0  0  0  0  0  0  0
    2.2365    5.8718    1.6720 C   0  0  0  0  0  0  0  0  0  0  0  0
    3.0791    5.6008    3.1419 S   0  0  0  0  0  0  0  0  0  0  0  0
    3.9060    4.2574    2.5207 C   0  0  0  0  0  0  0  0  0  0  0  0
    4.4456    3.1051    3.0436 C   0  0  0  0  0  0  0  0  0  0  0  0
    4.5695    2.7030    4.3857 C   0  0  0  0  0  0  0  0  0  0  0  0
    4.8062    1.3248    4.6712 C   0  0  0  0  0  0  0  0  0  0  0  0
    4.8815    0.9698    5.9781 N   0  0  0  0  0  0  0  0  0  0  0  0
    4.6389    2.4406    6.6916 S   0  0  0  0  0  0  0  0  0  0  0  0
    4.4337    3.5265    5.4572 N   0  0  0  0  0  0  0  0  0  0  0  0
    4.9552    0.4314    3.6008 C   0  0  0  0  0  0  0  0  0  0  0  0
    5.1689   -0.9145    3.5608 C   0  0  0  0  0  0  0  0  0  0  0  0
    5.0088   -2.2694    4.5601 S   0  0  0  0  0  0  0  0  0  0  0  0
    5.1102   -3.3446    3.2255 C   0  0  0  0  0  0  0  0  0  0  0  0
    4.8026   -4.7009    3.0443 C   0  0  0  0  0  0  0  0  0  0  0  0
    4.4367   -5.6403    4.1368 C   0  0  0  0  0  0  0  0  0  0  0  0
    3.6427   -5.2243    5.2266 C   0  0  0  0  0  0  0  0  0  0  0  0
    3.3404   -6.1054    6.2689 C   0  0  0  0  0  0  0  0  0  0  0  0
    3.8161   -7.4212    6.2390 C   0  0  0  0  0  0  0  0  0  0  0  0
    4.5947   -7.8617    5.1535 C   0  0  0  0  0  0  0  0  0  0  0  0
    5.0543   -9.2939    5.0825 C   0  0  0  0  0  0  0  0  0  0  0  0
    3.9570  -10.1673    4.4896 C   0  0  0  0  0  0  0  0  0  0  0  0
    4.8819   -6.9825    4.1013 C   0  0  0  0  0  0  0  0  0  0  0  0
    4.8114   -5.0465    1.6733 C   0  0  0  0  0  0  0  0  0  0  0  0
    5.1608   -3.6584    0.7501 S   0  0  0  0  0  0  0  0  0  0  0  0
    5.3061   -2.6406    2.0576 C   0  0  0  0  0  0  0  0  0  0  0  0
    5.3003   -1.2620    2.2523 C   0  0  0  0  0  0  0  0  0  0  0  0
    5.1632   -0.2062    1.4125 N   0  0  0  0  0  0  0  0  0  0  0  0
    4.8751    0.8366    2.2578 C   0  0  0  0  0  0  0  0  0  0  0  0
    4.4851    2.1774    1.9816 C   0  0  0  0  0  0  0  0  0  0  0  0
    3.8302    2.6906    0.8904 N   0  0  0  0  0  0  0  0  0  0  0  0
    3.5108    3.9659    1.2505 C   0  0  0  0  0  0  0  0  0  0  0  0
    2.5236    4.8502    0.7949 C   0  0  0  0  0  0  0  0  0  0  0  0
    1.2769    4.7218   -0.3134 S   0  0  0  0  0  0  0  0  0  0  0  0
    3.1644    1.9778   -0.2036 C   0  0  0  0  0  0  0  0  0  0  0  0
    3.6784    2.4946   -1.5548 C   0  0  0  0  0  0  0  0  0  0  0  0
    5.8075   -0.1642    0.0914 C   0  0  0  0  0  0  0  0  0  0  0  0
    7.2559    0.2892    0.2190 C   0  0  0  0  0  0  0  0  0  0  0  0
    4.0540   -6.1753    1.0879 C   0  0  0  0  0  0  0  0  0  0  0  0
    2.6762   -6.1307    0.8511 C   0  0  0  0  0  0  0  0  0  0  0  0
    1.8339   -5.0007    1.1511 N   0  0  0  0  0  0  0  0  0  0  0  0
    1.8805   -3.8410    0.2777 C   0  0  0  0  0  0  0  0  0  0  0  0
    2.3510   -3.9557   -1.0512 C   0  0  0  0  0  0  0  0  0  0  0  0
    2.3191   -2.8684   -1.9105 C   0  0  0  0  0  0  0  0  0  0  0  0
    1.8371   -1.6303   -1.4783 C   0  0  0  0  0  0  0  0  0  0  0  0
    1.8021   -0.4949   -2.4604 C   0  0  0  0  0  0  0  0  0  0  0  0
    1.4237   -1.4725   -0.1453 C   0  0  0  0  0  0  0  0  0  0  0  0
    1.4690   -2.5726    0.7375 C   0  0  0  0  0  0  0  0  0  0  0  0
    0.7112   -5.2513    2.0345 C   0  0  0  0  0  0  0  0  0  0  0  0
   -0.5837   -4.7666    1.7375 C   0  0  0  0  0  0  0  0  0  0  0  0
   -1.7065   -5.1671    2.4682 C   0  0  0  0  0  0  0  0  0  0  0  0
   -1.5541   -6.1131    3.4949 C   0  0  0  0  0  0  0  0  0  0  0  0
   -2.7376   -6.5597    4.3114 C   0  0  0  0  0  0  0  0  0  0  0  0
   -0.2592   -6.5754    3.8390 C   0  0  0  0  0  0  0  0  0  0  0  0
    0.8647   -6.1389    3.1322 C   0  0  0  0  0  0  0  0  0  0  0  0
    2.2529   -7.1472    0.0036 C   0  0  0  0  0  0  0  0  0  0  0  0
    0.8495   -7.3380   -0.8831 S   0  0  0  0  0  0  0  0  0  0  0  0
    1.5078   -8.4943   -1.9306 C   0  0  0  0  0  0  0  0  0  0  0  0
    2.8265   -8.8079   -1.5250 C   0  0  0  0  0  0  0  0  0  0  0  0
    3.4406  -10.0717   -1.8680 N   0  0  0  0  0  0  0  0  0  0  0  0
    4.7869  -10.1379   -2.3465 C   0  0  0  0  0  0  0  0  0  0  0  0
    5.0467  -10.2784   -3.7208 C   0  0  0  0  0  0  0  0  0  0  0  0
    6.3575  -10.4022   -4.1891 C   0  0  0  0  0  0  0  0  0  0  0  0
    7.4318  -10.3658   -3.2867 C   0  0  0  0  0  0  0  0  0  0  0  0
    8.8418  -10.5359   -3.7533 C   0  0  0  0  0  0  0  0  0  0  0  0
    7.1697  -10.2408   -1.9112 C   0  0  0  0  0  0  0  0  0  0  0  0
    5.8547  -10.1526   -1.4437 C   0  0  0  0  0  0  0  0  0  0  0  0
    2.7178  -11.3005   -1.6135 C   0  0  0  0  0  0  0  0  0  0  0  0
    2.9464  -12.4616   -2.3769 C   0  0  0  0  0  0  0  0  0  0  0  0
    2.2334  -13.6362   -2.1200 C   0  0  0  0  0  0  0  0  0  0  0  0
    1.2934  -13.6811   -1.0781 C   0  0  0  0  0  0  0  0  0  0  0  0
    0.6453  -14.9739   -0.7054 C   0  0  0  0  0  0  0  0  0  0  0  0
    1.0620  -12.5317   -0.3083 C   0  0  0  0  0  0  0  0  0  0  0  0
    1.7629  -11.3485   -0.5754 C   0  0  0  0  0  0  0  0  0  0  0  0
    3.2216   -7.9825   -0.4574 C   0  0  0  0  0  0  0  0  0  0  0  0
    4.6906   -7.5046    0.2203 S   0  0  0  0  0  0  0  0  0  0  0  0
    0.9269   -8.7108   -3.2745 C   0  0  0  0  0  0  0  0  0  0  0  0
    1.3679   -8.0136   -4.3568 C   0  0  0  0  0  0  0  0  0  0  0  0
    0.4659   -7.5965   -5.4468 C   0  0  0  0  0  0  0  0  0  0  0  0
   -0.5324   -8.2402   -5.8629 O   0  0  0  0  0  0  0  0  0  0  0  0
    0.8463   -6.2442   -5.8622 C   0  0  0  0  0  0  0  0  0  0  0  0
    0.3135   -5.4307   -6.8565 C   0  0  0  0  0  0  0  0  0  0  0  0
    0.9126   -4.1747   -7.0726 C   0  0  0  0  0  0  0  0  0  0  0  0
    2.0429   -3.7696   -6.3238 C   0  0  0  0  0  0  0  0  0  0  0  0
    2.6028   -2.3687   -6.4639 C   0  0  0  0  0  0  0  0  0  0  0  0
    2.5868   -4.6420   -5.3679 C   0  0  0  0  0  0  0  0  0  0  0  0
    1.9595   -5.8652   -5.1408 C   0  0  0  0  0  0  0  0  0  0  0  0
    2.4233   -6.9627   -4.2702 C   0  0  0  0  0  0  0  0  0  0  0  0
    3.7170   -7.2811   -4.3054 C   0  0  0  0  0  0  0  0  0  0  0  0
    4.5847   -6.5522   -3.4238 C   0  0  0  0  0  0  0  0  0  0  0  0
    5.2234   -5.9549   -2.6565 N   0  0  0  0  0  0  0  0  0  0  0  0
    4.2552   -7.6705   -5.5731 C   0  0  0  0  0  0  0  0  0  0  0  0
    4.6806   -7.9995   -6.5971 N   0  0  0  0  0  0  0  0  0  0  0  0
   -7.1841    8.1081   -0.3512 H   0  0  0  0  0  0  0  0  0  0  0  0
  -12.4125    6.1641    0.6721 H   0  0  0  0  0  0  0  0  0  0  0  0
  -13.2711    3.9389    1.1427 H   0  0  0  0  0  0  0  0  0  0  0  0
   -4.6537    4.4772   -2.5100 H   0  0  0  0  0  0  0  0  0  0  0  0
   -6.1317    2.8079   -3.5274 H   0  0  0  0  0  0  0  0  0  0  0  0
   -7.9990    2.4468   -5.2529 H   0  0  0  0  0  0  0  0  0  0  0  0
   -9.2829    3.6899   -5.4072 H   0  0  0  0  0  0  0  0  0  0  0  0
   -9.1289    2.7574   -3.8703 H   0  0  0  0  0  0  0  0  0  0  0  0
   -8.9334    5.9377   -4.5680 H   0  0  0  0  0  0  0  0  0  0  0  0
   -7.4428    7.6088   -3.5428 H   0  0  0  0  0  0  0  0  0  0  0  0
   -4.7162    7.7105   -4.8853 H   0  0  0  0  0  0  0  0  0  0  0  0
   -4.2486    9.9081   -5.8570 H   0  0  0  0  0  0  0  0  0  0  0  0
   -3.2445   12.2208   -5.3668 H   0  0  0  0  0  0  0  0  0  0  0  0
   -3.6153   13.0196   -3.7964 H   0  0  0  0  0  0  0  0  0  0  0  0
   -4.9535   12.6786   -4.9784 H   0  0  0  0  0  0  0  0  0  0  0  0
   -4.3485   11.6677   -1.9140 H   0  0  0  0  0  0  0  0  0  0  0  0
   -4.8073    9.4630   -0.9422 H   0  0  0  0  0  0  0  0  0  0  0  0
   -1.7119    3.1337    0.8957 H   0  0  0  0  0  0  0  0  0  0  0  0
   -0.4033    1.0649    1.1716 H   0  0  0  0  0  0  0  0  0  0  0  0
    1.9812    0.4655    4.0770 H   0  0  0  0  0  0  0  0  0  0  0  0
    2.1016    0.3523    2.2767 H   0  0  0  0  0  0  0  0  0  0  0  0
    0.7008   -0.3905    3.1581 H   0  0  0  0  0  0  0  0  0  0  0  0
    1.4458    2.7121    4.7035 H   0  0  0  0  0  0  0  0  0  0  0  0
    0.1476    4.7608    4.4349 H   0  0  0  0  0  0  0  0  0  0  0  0
   -0.9679    7.4657    3.9583 H   0  0  0  0  0  0  0  0  0  0  0  0
   -2.1807    8.4184    5.8634 H   0  0  0  0  0  0  0  0  0  0  0  0
   -5.5250    7.6074    6.7110 H   0  0  0  0  0  0  0  0  0  0  0  0
   -4.4504    6.7776    7.9121 H   0  0  0  0  0  0  0  0  0  0  0  0
   -4.0550    8.4440    7.3320 H   0  0  0  0  0  0  0  0  0  0  0  0
   -5.0140    5.1584    5.6721 H   0  0  0  0  0  0  0  0  0  0  0  0
   -3.7754    4.2149    3.7609 H   0  0  0  0  0  0  0  0  0  0  0  0
    2.7505    8.2595    2.8720 H   0  0  0  0  0  0  0  0  0  0  0  0
    2.3040   10.5017    3.7132 H   0  0  0  0  0  0  0  0  0  0  0  0
    0.1301   11.6057    3.3020 H   0  0  0  0  0  0  0  0  0  0  0  0
   -2.2085   11.4205    2.6105 H   0  0  0  0  0  0  0  0  0  0  0  0
   -2.8209    9.8572    1.9932 H   0  0  0  0  0  0  0  0  0  0  0  0
   -1.9653   10.3759   -0.2887 H   0  0  0  0  0  0  0  0  0  0  0  0
   -1.2297   11.9185    0.3164 H   0  0  0  0  0  0  0  0  0  0  0  0
   -3.0212   11.7051    0.3130 H   0  0  0  0  0  0  0  0  0  0  0  0
   -1.1574    8.2716    1.0130 H   0  0  0  0  0  0  0  0  0  0  0  0
    3.2365   -4.2288    5.2746 H   0  0  0  0  0  0  0  0  0  0  0  0
    2.7318   -5.7753    7.1077 H   0  0  0  0  0  0  0  0  0  0  0  0
    3.5548   -8.1037    7.0399 H   0  0  0  0  0  0  0  0  0  0  0  0
    5.9726   -9.3801    4.4593 H   0  0  0  0  0  0  0  0  0  0  0  0
    5.3091   -9.6643    6.0974 H   0  0  0  0  0  0  0  0  0  0  0  0
    3.5699   -9.7221    3.5442 H   0  0  0  0  0  0  0  0  0  0  0  0
    4.3527  -11.1784    4.2624 H   0  0  0  0  0  0  0  0  0  0  0  0
    3.1249  -10.2690    5.2233 H   0  0  0  0  0  0  0  0  0  0  0  0
    5.4778   -7.3296    3.2650 H   0  0  0  0  0  0  0  0  0  0  0  0
    2.0693    2.1360   -0.1481 H   0  0  0  0  0  0  0  0  0  0  0  0
    3.2753    0.8879   -0.1083 H   0  0  0  0  0  0  0  0  0  0  0  0
    3.5495    3.5960   -1.6497 H   0  0  0  0  0  0  0  0  0  0  0  0
    3.1085    2.0356   -2.3819 H   0  0  0  0  0  0  0  0  0  0  0  0
    4.7502    2.2746   -1.7082 H   0  0  0  0  0  0  0  0  0  0  0  0
    5.3107    0.5361   -0.5698 H   0  0  0  0  0  0  0  0  0  0  0  0
    5.7691   -1.1582   -0.4144 H   0  0  0  0  0  0  0  0  0  0  0  0
    7.6766    0.4462   -0.7981 H   0  0  0  0  0  0  0  0  0  0  0  0
    7.3111    1.2478    0.7785 H   0  0  0  0  0  0  0  0  0  0  0  0
    7.8597   -0.5042    0.7243 H   0  0  0  0  0  0  0  0  0  0  0  0
    2.6982   -4.9036   -1.4599 H   0  0  0  0  0  0  0  0  0  0  0  0
    2.6471   -2.9845   -2.9376 H   0  0  0  0  0  0  0  0  0  0  0  0
    1.2929    0.4002   -2.0354 H   0  0  0  0  0  0  0  0  0  0  0  0
    2.8435   -0.2412   -2.7490 H   0  0  0  0  0  0  0  0  0  0  0  0
    1.2569   -0.8041   -3.3784 H   0  0  0  0  0  0  0  0  0  0  0  0
    1.0578   -0.5216    0.2051 H   0  0  0  0  0  0  0  0  0  0  0  0
    1.1079   -2.4367    1.7486 H   0  0  0  0  0  0  0  0  0  0  0  0
   -0.7571   -4.0907    0.9041 H   0  0  0  0  0  0  0  0  0  0  0  0
   -2.6834   -4.7259    2.2287 H   0  0  0  0  0  0  0  0  0  0  0  0
   -3.6911   -6.2751    3.7994 H   0  0  0  0  0  0  0  0  0  0  0  0
   -2.7186   -6.0750    5.3118 H   0  0  0  0  0  0  0  0  0  0  0  0
   -2.7738   -7.6693    4.4065 H   0  0  0  0  0  0  0  0  0  0  0  0
   -0.1392   -7.3154    4.6147 H   0  0  0  0  0  0  0  0  0  0  0  0
    1.8439   -6.5413    3.4075 H   0  0  0  0  0  0  0  0  0  0  0  0
    4.2150  -10.3429   -4.4242 H   0  0  0  0  0  0  0  0  0  0  0  0
    6.5298  -10.5508   -5.2513 H   0  0  0  0  0  0  0  0  0  0  0  0
    9.1213  -11.6087   -3.6780 H   0  0  0  0  0  0  0  0  0  0  0  0
    9.5261   -9.9345   -3.1148 H   0  0  0  0  0  0  0  0  0  0  0  0
    8.9571  -10.2000   -4.8079 H   0  0  0  0  0  0  0  0  0  0  0  0
    7.9748  -10.2547   -1.1922 H   0  0  0  0  0  0  0  0  0  0  0  0
    5.6561  -10.1148   -0.3780 H   0  0  0  0  0  0  0  0  0  0  0  0
    3.6542  -12.4700   -3.1959 H   0  0  0  0  0  0  0  0  0  0  0  0
    2.4111  -14.5066   -2.7415 H   0  0  0  0  0  0  0  0  0  0  0  0
   -0.3050  -14.8009   -0.1674 H   0  0  0  0  0  0  0  0  0  0  0  0
    0.4388  -15.5781   -1.6166 H   0  0  0  0  0  0  0  0  0  0  0  0
    1.3273  -15.5454   -0.0453 H   0  0  0  0  0  0  0  0  0  0  0  0
    0.3487  -12.5314    0.5095 H   0  0  0  0  0  0  0  0  0  0  0  0
    1.5434  -10.4819    0.0462 H   0  0  0  0  0  0  0  0  0  0  0  0
   -0.1181   -8.9654   -3.2625 H   0  0  0  0  0  0  0  0  0  0  0  0
   -0.5590   -5.7416   -7.4294 H   0  0  0  0  0  0  0  0  0  0  0  0
    0.4806   -3.5046   -7.7980 H   0  0  0  0  0  0  0  0  0  0  0  0
    1.9045   -1.6546   -5.9714 H   0  0  0  0  0  0  0  0  0  0  0  0
    3.5945   -2.2926   -5.9694 H   0  0  0  0  0  0  0  0  0  0  0  0
    2.7367   -2.1022   -7.5376 H   0  0  0  0  0  0  0  0  0  0  0  0
    3.4633   -4.3626   -4.7966 H   0  0  0  0  0  0  0  0  0  0  0  0
  1  2  2  3
  2  3  1  0
  3  4  2  0
  3  5  1  0
  5  6  2  0
  6  7  1  0
  7  8  2  0
  8  9  1  0
  9 10  1  0
  9 11  2  0
 11 12  1  0
  6 13  1  0
 13 14  2  3
 14 15  1  0
 15 16  3  0
 14 17  1  0
 17 18  3  0
  1 19  1  0
 19 20  2  0
 20 21  1  0
 21 22  1  0
 22 23  2  0
 23 24  1  0
 24 25  2  0
 25 26  1  0
 25 27  1  0
 27 28  2  0
 21 29  1  0
 29 30  2  0
 30 31  1  0
 31 32  2  0
 32 33  1  0
 32 34  1  0
 34 35  2  0
 20 36  1  0
 36 37  1  0
 37 38  1  0
 38 39  2  0
 39 40  1  0
 40 41  1  0
 41 42  2  0
 42 43  1  0
 43 44  2  0
 44 45  1  0
 44 46  1  0
 46 47  2  0
 40 48  1  0
 48 49  2  0
 49 50  1  0
 50 51  2  0
 51 52  1  0
 51 53  1  0
 53 54  2  0
 39 55  1  0
 55 56  1  0
 38 57  1  0
 57 58  2  0
 58 59  1  0
 59 60  2  0
 60 61  1  0
 61 62  2  0
 62 63  1  0
 63 64  1  0
 64 65  1  0
 63 66  2  0
 58 67  1  0
 67 68  1  0
 68 69  1  0
 69 70  1  0
 70 71  1  0
 71 72  1  0
 72 73  2  0
 73 74  1  0
 74 75  1  0
 72 76  1  0
 76 77  1  0
 77 78  1  0
 78 79  1  0
 79 80  1  0
 80 81  1  0
 81 82  2  0
 82 83  1  0
 83 84  2  0
 84 85  1  0
 85 86  1  0
 86 87  1  0
 85 88  2  0
 80 89  2  0
 89 90  1  0
 90 91  1  0
 91 92  1  0
 92 93  1  0
 93 94  1  0
 94 95  1  0
 95 96  1  0
 96 97  1  0
 97 98  1  0
 98 99  1  0
 96100  1  0
100101  1  0
 93102  1  0
102103  1  0
 89104  1  0
104105  2  0
105106  1  0
106107  1  0
107108  2  0
108109  1  0
109110  2  0
110111  1  0
110112  1  0
112113  2  0
106114  1  0
114115  2  0
115116  1  0
116117  2  0
117118  1  0
117119  1  0
119120  2  0
105121  1  0
121122  1  0
122123  1  0
123124  2  0
124125  1  0
125126  1  0
126127  2  0
127128  1  0
128129  2  0
129130  1  0
129131  1  0
131132  2  0
125133  1  0
133134  2  0
134135  1  0
135136  2  0
136137  1  0
136138  1  0
138139  2  0
124140  1  0
140141  1  0
123142  1  0
142143  2  3
143144  1  0
144145  2  0
144146  1  0
146147  2  0
147148  1  0
148149  2  0
149150  1  0
149151  1  0
151152  2  0
152153  1  0
153154  2  3
154155  1  0
155156  3  0
154157  1  0
157158  3  0
 13  2  1  0
 56 19  1  0
 99 57  1  0
141104  1  0
153143  1  0
 11  5  1  0
 28 22  1  0
 35 29  1  0
 55 36  2  0
 66 59  1  0
 98 67  2  0
113107  1  0
120114  1  0
140121  2  0
152146  1  0
 47 41  1  0
 54 48  1  0
 97 69  2  0
132126  1  0
139133  1  0
 95 70  2  0
 75 71  2  0
 94 76  2  0
 92 77  2  0
 91 79  2  0
 88 81  1  0
  1159  1  0
  7160  1  0
  8161  1  0
 23162  1  0
 24163  1  0
 26164  1  0
 26165  1  0
 26166  1  0
 27167  1  0
 28168  1  0
 30169  1  0
 31170  1  0
 33171  1  0
 33172  1  0
 33173  1  0
 34174  1  0
 35175  1  0
 42176  1  0
 43177  1  0
 45178  1  0
 45179  1  0
 45180  1  0
 46181  1  0
 47182  1  0
 49183  1  0
 50184  1  0
 52185  1  0
 52186  1  0
 52187  1  0
 53188  1  0
 54189  1  0
 60190  1  0
 61191  1  0
 62192  1  0
 64193  1  0
 64194  1  0
 65195  1  0
 65196  1  0
 65197  1  0
 66198  1  0
 82199  1  0
 83200  1  0
 84201  1  0
 86202  1  0
 86203  1  0
 87204  1  0
 87205  1  0
 87206  1  0
 88207  1  0
100208  1  0
100209  1  0
101210  1  0
101211  1  0
101212  1  0
102213  1  0
102214  1  0
103215  1  0
103216  1  0
103217  1  0
108218  1  0
109219  1  0
111220  1  0
111221  1  0
111222  1  0
112223  1  0
113224  1  0
115225  1  0
116226  1  0
118227  1  0
118228  1  0
118229  1  0
119230  1  0
120231  1  0
127232  1  0
128233  1  0
130234  1  0
130235  1  0
130236  1  0
131237  1  0
132238  1  0
134239  1  0
135240  1  0
137241  1  0
137242  1  0
137243  1  0
138244  1  0
139245  1  0
142246  1  0
147247  1  0
148248  1  0
150249  1  0
150250  1  0
150251  1  0
151252  1  0
M  END

