
     RDKit          3D

262290  0  0  0  0  0  0  0  0999 V2000
   -6.8495    3.3783    1.9294 C   0  0  0  0  0  0  0  0  0  0  0  0
   -6.6601    2.0966    1.5579 C   0  0  0  0  0  0  0  0  0  0  0  0
   -5.7286    1.6393    0.5168 C   0  0  0  0  0  0  0  0  0  0  0  0
   -4.6961    2.2430    0.1278 O   0  0  0  0  0  0  0  0  0  0  0  0
   -6.2004    0.3635    0.0042 C   0  0  0  0  0  0  0  0  0  0  0  0
   -7.3264   -0.0134    0.7145 C   0  0  0  0  0  0  0  0  0  0  0  0
   -8.1091   -1.0828    0.2779 C   0  0  0  0  0  0  0  0  0  0  0  0
   -7.6971   -1.8133   -0.8482 C   0  0  0  0  0  0  0  0  0  0  0  0
   -6.5291   -1.4565   -1.5446 C   0  0  0  0  0  0  0  0  0  0  0  0
   -6.0536   -2.4561   -3.1094 Br  0  0  0  0  0  0  0  0  0  0  0  0
   -5.7626   -0.3554   -1.1220 C   0  0  0  0  0  0  0  0  0  0  0  0
   -4.3339    0.1541   -2.0139 Cl  0  0  0  0  0  0  0  0  0  0  0  0
   -7.5781    0.9574    1.8162 C   0  0  0  0  0  0  0  0  0  0  0  0
   -8.2595    0.7174    2.9628 C   0  0  0  0  0  0  0  0  0  0  0  0
   -8.9243   -0.5394    3.2070 C   0  0  0  0  0  0  0  0  0  0  0  0
   -9.4654   -1.5414    3.4096 N   0  0  0  0  0  0  0  0  0  0  0  0
   -8.2118    1.6242    4.0805 C   0  0  0  0  0  0  0  0  0  0  0  0
   -8.1679    2.3380    4.9902 N   0  0  0  0  0  0  0  0  0  0  0  0
   -6.0711    4.4724    1.3307 C   0  0  0  0  0  0  0  0  0  0  0  0
   -6.2882    4.9668    0.0365 C   0  0  0  0  0  0  0  0  0  0  0  0
   -7.5616    4.9509   -0.6251 N   0  0  0  0  0  0  0  0  0  0  0  0
   -8.0374    3.7220   -1.2095 C   0  0  0  0  0  0  0  0  0  0  0  0
   -7.2466    3.0158   -2.1244 C   0  0  0  0  0  0  0  0  0  0  0  0
   -7.7168    1.8315   -2.6989 C   0  0  0  0  0  0  0  0  0  0  0  0
   -8.9774    1.3235   -2.3428 C   0  0  0  0  0  0  0  0  0  0  0  0
   -9.5039    0.0670   -2.9705 C   0  0  0  0  0  0  0  0  0  0  0  0
   -9.7708    2.0323   -1.4358 C   0  0  0  0  0  0  0  0  0  0  0  0
   -9.3053    3.2219   -0.8680 C   0  0  0  0  0  0  0  0  0  0  0  0
   -8.4304    6.1040   -0.5035 C   0  0  0  0  0  0  0  0  0  0  0  0
   -8.3717    6.9406    0.6308 C   0  0  0  0  0  0  0  0  0  0  0  0
   -9.2528    8.0158    0.7736 C   0  0  0  0  0  0  0  0  0  0  0  0
  -10.1967    8.2925   -0.2231 C   0  0  0  0  0  0  0  0  0  0  0  0
  -11.1931    9.4002   -0.0293 C   0  0  0  0  0  0  0  0  0  0  0  0
  -10.2511    7.4771   -1.3613 C   0  0  0  0  0  0  0  0  0  0  0  0
   -9.3687    6.3967   -1.5065 C   0  0  0  0  0  0  0  0  0  0  0  0
   -5.1887    5.6793   -0.4242 C   0  0  0  0  0  0  0  0  0  0  0  0
   -4.6220    5.9716   -1.9676 S   0  0  0  0  0  0  0  0  0  0  0  0
   -3.0088    6.2920   -1.4917 C   0  0  0  0  0  0  0  0  0  0  0  0
   -2.9433    6.1872   -0.0824 C   0  0  0  0  0  0  0  0  0  0  0  0
   -1.8764    6.7002    0.7357 N   0  0  0  0  0  0  0  0  0  0  0  0
   -0.5145    6.3316    0.4755 C   0  0  0  0  0  0  0  0  0  0  0  0
    0.2606    7.0971   -0.4027 C   0  0  0  0  0  0  0  0  0  0  0  0
    1.5859    6.7427   -0.6635 C   0  0  0  0  0  0  0  0  0  0  0  0
    2.1588    5.6331   -0.0199 C   0  0  0  0  0  0  0  0  0  0  0  0
    3.5862    5.2712   -0.2808 C   0  0  0  0  0  0  0  0  0  0  0  0
    1.4012    4.9168    0.9177 C   0  0  0  0  0  0  0  0  0  0  0  0
    0.0624    5.2450    1.1451 C   0  0  0  0  0  0  0  0  0  0  0  0
   -2.1533    7.7325    1.7139 C   0  0  0  0  0  0  0  0  0  0  0  0
   -3.1628    8.6877    1.4830 C   0  0  0  0  0  0  0  0  0  0  0  0
   -3.4194    9.6973    2.4178 C   0  0  0  0  0  0  0  0  0  0  0  0
   -2.6574    9.7853    3.5888 C   0  0  0  0  0  0  0  0  0  0  0  0
   -2.9354   10.8643    4.5926 C   0  0  0  0  0  0  0  0  0  0  0  0
   -1.6699    8.8224    3.8438 C   0  0  0  0  0  0  0  0  0  0  0  0
   -1.4141    7.8112    2.9083 C   0  0  0  0  0  0  0  0  0  0  0  0
   -4.1648    5.7909    0.4566 C   0  0  0  0  0  0  0  0  0  0  0  0
   -4.5310    4.9616    1.8698 S   0  0  0  0  0  0  0  0  0  0  0  0
   -1.9175    5.7889   -2.3389 C   0  0  0  0  0  0  0  0  0  0  0  0
   -1.1409    6.4940   -3.2823 C   0  0  0  0  0  0  0  0  0  0  0  0
   -1.3872    7.8743   -3.7345 C   0  0  0  0  0  0  0  0  0  0  0  0
   -0.3302    8.7920   -3.8088 C   0  0  0  0  0  0  0  0  0  0  0  0
   -0.5443   10.0689   -4.3353 C   0  0  0  0  0  0  0  0  0  0  0  0
   -1.8068   10.4325   -4.8109 C   0  0  0  0  0  0  0  0  0  0  0  0
   -2.8716    9.5206   -4.7568 C   0  0  0  0  0  0  0  0  0  0  0  0
   -4.2186    9.8886   -5.3264 C   0  0  0  0  0  0  0  0  0  0  0  0
   -4.3713    9.3765   -6.7536 C   0  0  0  0  0  0  0  0  0  0  0  0
   -2.6555    8.2477   -4.2100 C   0  0  0  0  0  0  0  0  0  0  0  0
   -0.1788    5.6448   -3.8453 C   0  0  0  0  0  0  0  0  0  0  0  0
    1.1258    5.8664   -4.9309 S   0  0  0  0  0  0  0  0  0  0  0  0
    1.5023    4.2089   -4.8756 C   0  0  0  0  0  0  0  0  0  0  0  0
    2.5332    3.3601   -5.1918 C   0  0  0  0  0  0  0  0  0  0  0  0
    3.8465    3.6024   -5.6354 C   0  0  0  0  0  0  0  0  0  0  0  0
    4.8085    2.5423   -5.5676 C   0  0  0  0  0  0  0  0  0  0  0  0
    6.0684    2.8223   -5.9741 N   0  0  0  0  0  0  0  0  0  0  0  0
    5.8766    4.4197   -6.3735 S   0  0  0  0  0  0  0  0  0  0  0  0
    4.2921    4.8037   -6.0788 N   0  0  0  0  0  0  0  0  0  0  0  0
    4.3789    1.2777   -5.1370 C   0  0  0  0  0  0  0  0  0  0  0  0
    5.0160    0.0648   -5.0262 C   0  0  0  0  0  0  0  0  0  0  0  0
    6.5554   -0.4459   -4.5125 S   0  0  0  0  0  0  0  0  0  0  0  0
    5.9365   -1.9127   -3.8851 C   0  0  0  0  0  0  0  0  0  0  0  0
    6.4369   -2.8454   -2.9591 C   0  0  0  0  0  0  0  0  0  0  0  0
    7.8124   -2.8340   -2.4338 C   0  0  0  0  0  0  0  0  0  0  0  0
    8.5679   -4.0163   -2.4223 C   0  0  0  0  0  0  0  0  0  0  0  0
    9.8672   -4.0199   -1.9146 C   0  0  0  0  0  0  0  0  0  0  0  0
   10.4223   -2.8418   -1.4077 C   0  0  0  0  0  0  0  0  0  0  0  0
    9.6718   -1.6542   -1.3948 C   0  0  0  0  0  0  0  0  0  0  0  0
   10.2830   -0.3759   -0.8861 C   0  0  0  0  0  0  0  0  0  0  0  0
   10.9438    0.3830   -2.0295 C   0  0  0  0  0  0  0  0  0  0  0  0
    8.3760   -1.6535   -1.9219 C   0  0  0  0  0  0  0  0  0  0  0  0
    5.4110   -3.6745   -2.4610 C   0  0  0  0  0  0  0  0  0  0  0  0
    3.9283   -3.1739   -3.1239 S   0  0  0  0  0  0  0  0  0  0  0  0
    4.5783   -1.9743   -4.0808 C   0  0  0  0  0  0  0  0  0  0  0  0
    4.0567   -0.8428   -4.6795 C   0  0  0  0  0  0  0  0  0  0  0  0
    2.8326   -0.2827   -4.5314 N   0  0  0  0  0  0  0  0  0  0  0  0
    3.0514    1.0383   -4.7656 C   0  0  0  0  0  0  0  0  0  0  0  0
    2.1760    2.1266   -4.6249 C   0  0  0  0  0  0  0  0  0  0  0  0
    1.0737    2.2474   -3.8172 N   0  0  0  0  0  0  0  0  0  0  0  0
    0.6702    3.5194   -4.0512 C   0  0  0  0  0  0  0  0  0  0  0  0
   -0.2505    4.3400   -3.4350 C   0  0  0  0  0  0  0  0  0  0  0  0
   -1.4395    4.1516   -2.2849 S   0  0  0  0  0  0  0  0  0  0  0  0
    0.8172    1.5255   -2.5592 C   0  0  0  0  0  0  0  0  0  0  0  0
    1.5922    2.1482   -1.4015 C   0  0  0  0  0  0  0  0  0  0  0  0
    1.5512   -0.9983   -4.5948 C   0  0  0  0  0  0  0  0  0  0  0  0
    1.4591   -1.8345   -5.8685 C   0  0  0  0  0  0  0  0  0  0  0  0
    5.4168   -4.3809   -1.1753 C   0  0  0  0  0  0  0  0  0  0  0  0
    4.9092   -5.6825   -1.0054 C   0  0  0  0  0  0  0  0  0  0  0  0
    5.0638   -6.7411   -1.9669 N   0  0  0  0  0  0  0  0  0  0  0  0
    6.3999   -7.2012   -2.2762 C   0  0  0  0  0  0  0  0  0  0  0  0
    7.3878   -7.2844   -1.2762 C   0  0  0  0  0  0  0  0  0  0  0  0
    8.6819   -7.7047   -1.5843 C   0  0  0  0  0  0  0  0  0  0  0  0
    9.0271   -8.0260   -2.9054 C   0  0  0  0  0  0  0  0  0  0  0  0
   10.4158   -8.4835   -3.2277 C   0  0  0  0  0  0  0  0  0  0  0  0
    8.0447   -7.9666   -3.9050 C   0  0  0  0  0  0  0  0  0  0  0  0
    6.7453   -7.5484   -3.5951 C   0  0  0  0  0  0  0  0  0  0  0  0
    3.8993   -7.4128   -2.4834 C   0  0  0  0  0  0  0  0  0  0  0  0
    3.9056   -8.8033   -2.6922 C   0  0  0  0  0  0  0  0  0  0  0  0
    2.7918   -9.4440   -3.2385 C   0  0  0  0  0  0  0  0  0  0  0  0
    1.6528   -8.7037   -3.5892 C   0  0  0  0  0  0  0  0  0  0  0  0
    0.4506   -9.3910   -4.1572 C   0  0  0  0  0  0  0  0  0  0  0  0
    1.6285   -7.3247   -3.3508 C   0  0  0  0  0  0  0  0  0  0  0  0
    2.7349   -6.6866   -2.7957 C   0  0  0  0  0  0  0  0  0  0  0  0
    4.4058   -5.8762    0.2780 C   0  0  0  0  0  0  0  0  0  0  0  0
    3.6505   -7.1598    1.0565 S   0  0  0  0  0  0  0  0  0  0  0  0
    3.3966   -6.2807    2.4948 C   0  0  0  0  0  0  0  0  0  0  0  0
    3.9408   -4.9849    2.3746 C   0  0  0  0  0  0  0  0  0  0  0  0
    4.0644   -4.0522    3.4738 N   0  0  0  0  0  0  0  0  0  0  0  0
    4.4301   -4.5696    4.7692 C   0  0  0  0  0  0  0  0  0  0  0  0
    3.6201   -4.3113    5.8881 C   0  0  0  0  0  0  0  0  0  0  0  0
    3.8755   -4.9483    7.1053 C   0  0  0  0  0  0  0  0  0  0  0  0
    4.9505   -5.8426    7.2229 C   0  0  0  0  0  0  0  0  0  0  0  0
    5.1625   -6.6114    8.4913 C   0  0  0  0  0  0  0  0  0  0  0  0
    5.7746   -6.0787    6.1128 C   0  0  0  0  0  0  0  0  0  0  0  0
    5.5180   -5.4463    4.8991 C   0  0  0  0  0  0  0  0  0  0  0  0
    3.7512   -2.6482    3.3133 C   0  0  0  0  0  0  0  0  0  0  0  0
    4.4547   -1.6779    4.0471 C   0  0  0  0  0  0  0  0  0  0  0  0
    4.1037   -0.3238    3.9684 C   0  0  0  0  0  0  0  0  0  0  0  0
    3.0288    0.0794    3.1597 C   0  0  0  0  0  0  0  0  0  0  0  0
    2.6527    1.5299    3.0836 C   0  0  0  0  0  0  0  0  0  0  0  0
    2.3467   -0.8775    2.3961 C   0  0  0  0  0  0  0  0  0  0  0  0
    2.7029   -2.2312    2.4720 C   0  0  0  0  0  0  0  0  0  0  0  0
    4.4847   -4.8014    1.1048 C   0  0  0  0  0  0  0  0  0  0  0  0
    5.1996   -3.5274    0.2896 S   0  0  0  0  0  0  0  0  0  0  0  0
    2.6552   -6.7804    3.6622 C   0  0  0  0  0  0  0  0  0  0  0  0
    1.4511   -6.2733    4.0084 C   0  0  0  0  0  0  0  0  0  0  0  0
    0.6781   -5.3503    3.1719 C   0  0  0  0  0  0  0  0  0  0  0  0
    0.8341   -5.1577    1.9361 O   0  0  0  0  0  0  0  0  0  0  0  0
   -0.3416   -4.7320    3.9739 C   0  0  0  0  0  0  0  0  0  0  0  0
   -1.1702   -3.6520    3.5946 C   0  0  0  0  0  0  0  0  0  0  0  0
   -1.9740   -3.1723    4.6100 C   0  0  0  0  0  0  0  0  0  0  0  0
   -1.9635   -3.7137    5.9283 C   0  0  0  0  0  0  0  0  0  0  0  0
   -1.1473   -4.7684    6.3107 C   0  0  0  0  0  0  0  0  0  0  0  0
   -0.3148   -5.2877    5.2778 C   0  0  0  0  0  0  0  0  0  0  0  0
    0.7584   -6.3350    5.3408 C   0  0  0  0  0  0  0  0  0  0  0  0
    1.0088   -7.1848    6.3781 C   0  0  0  0  0  0  0  0  0  0  0  0
    0.2374   -7.1843    7.5917 C   0  0  0  0  0  0  0  0  0  0  0  0
   -0.3720   -7.1847    8.5784 N   0  0  0  0  0  0  0  0  0  0  0  0
    2.0386   -8.1832    6.3406 C   0  0  0  0  0  0  0  0  0  0  0  0
    2.8851   -8.9793    6.3286 N   0  0  0  0  0  0  0  0  0  0  0  0
   -2.9744   -2.7004    6.3752 C   0  0  0  0  0  0  0  0  0  0  0  0
   -4.4443   -3.1740    6.5553 C   0  0  0  0  0  0  0  0  0  0  0  0
   -5.2713   -1.9157    6.6270 C   0  0  0  0  0  0  0  0  0  0  0  0
   -5.2663   -1.3855    5.4017 C   0  0  0  0  0  0  0  0  0  0  0  0
   -4.4306   -2.3053    4.5421 C   0  0  0  0  0  0  0  0  0  0  0  0
   -4.8314   -3.6290    5.1612 C   0  0  0  0  0  0  0  0  0  0  0  0
   -2.9632   -2.1218    5.0283 C   0  0  0  0  0  0  0  0  0  0  0  0
   -7.6877    3.6520    2.5513 H   0  0  0  0  0  0  0  0  0  0  0  0
   -9.0407   -1.3468    0.7535 H   0  0  0  0  0  0  0  0  0  0  0  0
   -8.3096   -2.6306   -1.2079 H   0  0  0  0  0  0  0  0  0  0  0  0
   -6.2679    3.3906   -2.4024 H   0  0  0  0  0  0  0  0  0  0  0  0
   -7.0941    1.3066   -3.4135 H   0  0  0  0  0  0  0  0  0  0  0  0
   -8.6866   -0.5295   -3.4290 H   0  0  0  0  0  0  0  0  0  0  0  0
  -10.2472    0.3224   -3.7553 H   0  0  0  0  0  0  0  0  0  0  0  0
  -10.0004   -0.5636   -2.1996 H   0  0  0  0  0  0  0  0  0  0  0  0
  -10.7551    1.6672   -1.1609 H   0  0  0  0  0  0  0  0  0  0  0  0
   -9.9266    3.7492   -0.1554 H   0  0  0  0  0  0  0  0  0  0  0  0
   -7.6681    6.7469    1.4257 H   0  0  0  0  0  0  0  0  0  0  0  0
   -9.2015    8.6238    1.6692 H   0  0  0  0  0  0  0  0  0  0  0  0
  -11.4886    9.8427   -1.0038 H   0  0  0  0  0  0  0  0  0  0  0  0
  -12.0976    8.9986    0.4732 H   0  0  0  0  0  0  0  0  0  0  0  0
  -10.7629   10.2084    0.6021 H   0  0  0  0  0  0  0  0  0  0  0  0
  -10.9815    7.6770   -2.1405 H   0  0  0  0  0  0  0  0  0  0  0  0
   -9.4304    5.7886   -2.4021 H   0  0  0  0  0  0  0  0  0  0  0  0
   -0.1696    7.9624   -0.8923 H   0  0  0  0  0  0  0  0  0  0  0  0
    2.1611    7.3273   -1.3668 H   0  0  0  0  0  0  0  0  0  0  0  0
    4.2444    5.8588    0.3940 H   0  0  0  0  0  0  0  0  0  0  0  0
    3.7532    4.1899   -0.0979 H   0  0  0  0  0  0  0  0  0  0  0  0
    3.8596    5.4916   -1.3361 H   0  0  0  0  0  0  0  0  0  0  0  0
    1.8405    4.0926    1.4635 H   0  0  0  0  0  0  0  0  0  0  0  0
   -0.5132    4.6724    1.8615 H   0  0  0  0  0  0  0  0  0  0  0  0
   -3.7414    8.6696    0.5683 H   0  0  0  0  0  0  0  0  0  0  0  0
   -4.2050   10.4175    2.2198 H   0  0  0  0  0  0  0  0  0  0  0  0
   -2.0233   11.1024    5.1780 H   0  0  0  0  0  0  0  0  0  0  0  0
   -3.7297   10.5272    5.2879 H   0  0  0  0  0  0  0  0  0  0  0  0
   -3.2663   11.7989    4.0866 H   0  0  0  0  0  0  0  0  0  0  0  0
   -1.0882    8.8547    4.7558 H   0  0  0  0  0  0  0  0  0  0  0  0
   -0.6398    7.0890    3.1225 H   0  0  0  0  0  0  0  0  0  0  0  0
    0.6606    8.5187   -3.4687 H   0  0  0  0  0  0  0  0  0  0  0  0
    0.2732   10.7763   -4.3812 H   0  0  0  0  0  0  0  0  0  0  0  0
   -1.9542   11.4124   -5.2459 H   0  0  0  0  0  0  0  0  0  0  0  0
   -4.3480   10.9933   -5.3294 H   0  0  0  0  0  0  0  0  0  0  0  0
   -5.0259    9.4623   -4.6921 H   0  0  0  0  0  0  0  0  0  0  0  0
   -5.3823    9.6433   -7.1397 H   0  0  0  0  0  0  0  0  0  0  0  0
   -3.6103    9.8323   -7.4192 H   0  0  0  0  0  0  0  0  0  0  0  0
   -4.2675    8.2699   -6.7922 H   0  0  0  0  0  0  0  0  0  0  0  0
   -3.4654    7.5273   -4.2024 H   0  0  0  0  0  0  0  0  0  0  0  0
    8.1507   -4.9269   -2.8282 H   0  0  0  0  0  0  0  0  0  0  0  0
   10.4462   -4.9313   -1.9205 H   0  0  0  0  0  0  0  0  0  0  0  0
   11.4329   -2.8533   -1.0244 H   0  0  0  0  0  0  0  0  0  0  0  0
   11.0416   -0.5976   -0.1015 H   0  0  0  0  0  0  0  0  0  0  0  0
    9.4984    0.2615   -0.4269 H   0  0  0  0  0  0  0  0  0  0  0  0
   11.7260   -0.2461   -2.5133 H   0  0  0  0  0  0  0  0  0  0  0  0
   11.4289    1.3070   -1.6407 H   0  0  0  0  0  0  0  0  0  0  0  0
   10.1805    0.6709   -2.7937 H   0  0  0  0  0  0  0  0  0  0  0  0
    7.7972   -0.7372   -1.9088 H   0  0  0  0  0  0  0  0  0  0  0  0
    1.1187    0.4684   -2.5967 H   0  0  0  0  0  0  0  0  0  0  0  0
   -0.2694    1.5289   -2.3397 H   0  0  0  0  0  0  0  0  0  0  0  0
    1.4595    3.2445   -1.4026 H   0  0  0  0  0  0  0  0  0  0  0  0
    1.2234    1.7478   -0.4371 H   0  0  0  0  0  0  0  0  0  0  0  0
    2.6760    1.9085   -1.4949 H   0  0  0  0  0  0  0  0  0  0  0  0
    0.6930   -0.2794   -4.6167 H   0  0  0  0  0  0  0  0  0  0  0  0
    1.4369   -1.6585   -3.7036 H   0  0  0  0  0  0  0  0  0  0  0  0
    1.3600   -1.1757   -6.7473 H   0  0  0  0  0  0  0  0  0  0  0  0
    2.3386   -2.4859   -5.9974 H   0  0  0  0  0  0  0  0  0  0  0  0
    0.5716   -2.4857   -5.8121 H   0  0  0  0  0  0  0  0  0  0  0  0
    7.1479   -7.0353   -0.2490 H   0  0  0  0  0  0  0  0  0  0  0  0
    9.4211   -7.7680   -0.7945 H   0  0  0  0  0  0  0  0  0  0  0  0
   10.5260   -9.5570   -2.9629 H   0  0  0  0  0  0  0  0  0  0  0  0
   10.6393   -8.3553   -4.3110 H   0  0  0  0  0  0  0  0  0  0  0  0
   11.1595   -7.8901   -2.6525 H   0  0  0  0  0  0  0  0  0  0  0  0
    8.2872   -8.2300   -4.9301 H   0  0  0  0  0  0  0  0  0  0  0  0
    6.0053   -7.4902   -4.3836 H   0  0  0  0  0  0  0  0  0  0  0  0
    4.7728   -9.3948   -2.4183 H   0  0  0  0  0  0  0  0  0  0  0  0
    2.8141  -10.5147   -3.3783 H   0  0  0  0  0  0  0  0  0  0  0  0
   -0.1060   -8.7138   -4.8400 H   0  0  0  0  0  0  0  0  0  0  0  0
    0.7448  -10.2916   -4.7391 H   0  0  0  0  0  0  0  0  0  0  0  0
   -0.2221   -9.7004   -3.3311 H   0  0  0  0  0  0  0  0  0  0  0  0
    0.7464   -6.7445   -3.5876 H   0  0  0  0  0  0  0  0  0  0  0  0
    2.6893   -5.6223   -2.6158 H   0  0  0  0  0  0  0  0  0  0  0  0
    2.7579   -3.6572    5.8032 H   0  0  0  0  0  0  0  0  0  0  0  0
    3.2136   -4.7740    7.9470 H   0  0  0  0  0  0  0  0  0  0  0  0
    4.5478   -7.5373    8.4610 H   0  0  0  0  0  0  0  0  0  0  0  0
    6.2337   -6.8915    8.6113 H   0  0  0  0  0  0  0  0  0  0  0  0
    4.8617   -6.0060    9.3754 H   0  0  0  0  0  0  0  0  0  0  0  0
    6.5951   -6.7777    6.1828 H   0  0  0  0  0  0  0  0  0  0  0  0
    6.1447   -5.6623    4.0433 H   0  0  0  0  0  0  0  0  0  0  0  0
    5.2756   -1.9644    4.6921 H   0  0  0  0  0  0  0  0  0  0  0  0
    4.6650    0.4005    4.5398 H   0  0  0  0  0  0  0  0  0  0  0  0
    3.2546    2.0311    2.2991 H   0  0  0  0  0  0  0  0  0  0  0  0
    1.5733    1.6489    2.8401 H   0  0  0  0  0  0  0  0  0  0  0  0
    2.8346    2.0359    4.0568 H   0  0  0  0  0  0  0  0  0  0  0  0
    1.5279   -0.5818    1.7530 H   0  0  0  0  0  0  0  0  0  0  0  0
    2.1422   -2.9491    1.8951 H   0  0  0  0  0  0  0  0  0  0  0  0
    3.2143   -7.4277    4.3135 H   0  0  0  0  0  0  0  0  0  0  0  0
   -1.1594   -3.2152    2.6063 H   0  0  0  0  0  0  0  0  0  0  0  0
   -1.1373   -5.0959    7.3322 H   0  0  0  0  0  0  0  0  0  0  0  0
   -2.5900   -2.0205    7.1714 H   0  0  0  0  0  0  0  0  0  0  0  0
   -4.6137   -3.9026    7.3726 H   0  0  0  0  0  0  0  0  0  0  0  0
   -5.8297   -1.5434    7.4742 H   0  0  0  0  0  0  0  0  0  0  0  0
   -5.8117   -0.5050    5.0894 H   0  0  0  0  0  0  0  0  0  0  0  0
   -4.5958   -2.2067    3.4479 H   0  0  0  0  0  0  0  0  0  0  0  0
   -4.2479   -4.4996    4.7830 H   0  0  0  0  0  0  0  0  0  0  0  0
   -5.9184   -3.8564    5.0573 H   0  0  0  0  0  0  0  0  0  0  0  0
   -2.5610   -1.0822    4.9754 H   0  0  0  0  0  0  0  0  0  0  0  0
  1  2  2  3
  2  3  1  0
  3  4  2  0
  3  5  1  0
  5  6  2  0
  6  7  1  0
  7  8  2  0
  8  9  1  0
  9 10  1  0
  9 11  2  0
 11 12  1  0
  6 13  1  0
 13 14  2  3
 14 15  1  0
 15 16  3  0
 14 17  1  0
 17 18  3  0
  1 19  1  0
 19 20  2  0
 20 21  1  0
 21 22  1  0
 22 23  2  0
 23 24  1  0
 24 25  2  0
 25 26  1  0
 25 27  1  0
 27 28  2  0
 21 29  1  0
 29 30  2  0
 30 31  1  0
 31 32  2  0
 32 33  1  0
 32 34  1  0
 34 35  2  0
 20 36  1  0
 36 37  1  0
 37 38  1  0
 38 39  2  0
 39 40  1  0
 40 41  1  0
 41 42  2  0
 42 43  1  0
 43 44  2  0
 44 45  1  0
 44 46  1  0
 46 47  2  0
 40 48  1  0
 48 49  2  0
 49 50  1  0
 50 51  2  0
 51 52  1  0
 51 53  1  0
 53 54  2  0
 39 55  1  0
 55 56  1  0
 38 57  1  0
 57 58  2  0
 58 59  1  0
 59 60  2  0
 60 61  1  0
 61 62  2  0
 62 63  1  0
 63 64  1  0
 64 65  1  0
 63 66  2  0
 58 67  1  0
 67 68  1  0
 68 69  1  0
 69 70  1  0
 70 71  1  0
 71 72  1  0
 72 73  2  0
 73 74  1  0
 74 75  1  0
 72 76  1  0
 76 77  1  0
 77 78  1  0
 78 79  1  0
 79 80  1  0
 80 81  1  0
 81 82  2  0
 82 83  1  0
 83 84  2  0
 84 85  1  0
 85 86  1  0
 86 87  1  0
 85 88  2  0
 80 89  2  0
 89 90  1  0
 90 91  1  0
 91 92  1  0
 92 93  1  0
 93 94  1  0
 94 95  1  0
 95 96  1  0
 96 97  1  0
 97 98  1  0
 98 99  1  0
 96100  1  0
100101  1  0
 93102  1  0
102103  1  0
 89104  1  0
104105  2  0
105106  1  0
106107  1  0
107108  2  0
108109  1  0
109110  2  0
110111  1  0
110112  1  0
112113  2  0
106114  1  0
114115  2  0
115116  1  0
116117  2  0
117118  1  0
117119  1  0
119120  2  0
105121  1  0
121122  1  0
122123  1  0
123124  2  0
124125  1  0
125126  1  0
126127  2  0
127128  1  0
128129  2  0
129130  1  0
129131  1  0
131132  2  0
125133  1  0
133134  2  0
134135  1  0
135136  2  0
136137  1  0
136138  1  0
138139  2  0
124140  1  0
140141  1  0
123142  1  0
142143  2  3
143144  1  0
144145  2  0
144146  1  0
146147  2  0
147148  1  0
148149  2  0
149150  1  0
150151  2  0
151152  1  0
152153  2  3
153154  1  0
154155  3  0
153156  1  0
156157  3  0
149158  1  0
158159  1  0
159160  1  0
160161  2  0
161162  1  0
162163  1  0
162164  1  0
 13  2  1  0
 56 19  1  0
 99 57  1  0
141104  1  0
152143  1  0
164158  1  0
 11  5  1  0
 28 22  1  0
 35 29  1  0
 55 36  2  0
 66 59  1  0
 98 67  2  0
113107  1  0
120114  1  0
140121  2  0
151146  1  0
163159  1  0
 47 41  1  0
 54 48  1  0
 97 69  2  0
132126  1  0
139133  1  0
164148  1  0
 95 70  2  0
 75 71  2  0
 94 76  2  0
 92 77  2  0
 91 79  2  0
 88 81  1  0
  1165  1  0
  7166  1  0
  8167  1  0
 23168  1  0
 24169  1  0
 26170  1  0
 26171  1  0
 26172  1  0
 27173  1  0
 28174  1  0
 30175  1  0
 31176  1  0
 33177  1  0
 33178  1  0
 33179  1  0
 34180  1  0
 35181  1  0
 42182  1  0
 43183  1  0
 45184  1  0
 45185  1  0
 45186  1  0
 46187  1  0
 47188  1  0
 49189  1  0
 50190  1  0
 52191  1  0
 52192  1  0
 52193  1  0
 53194  1  0
 54195  1  0
 60196  1  0
 61197  1  0
 62198  1  0
 64199  1  0
 64200  1  0
 65201  1  0
 65202  1  0
 65203  1  0
 66204  1  0
 82205  1  0
 83206  1  0
 84207  1  0
 86208  1  0
 86209  1  0
 87210  1  0
 87211  1  0
 87212  1  0
 88213  1  0
100214  1  0
100215  1  0
101216  1  0
101217  1  0
101218  1  0
102219  1  0
102220  1  0
103221  1  0
103222  1  0
103223  1  0
108224  1  0
109225  1  0
111226  1  0
111227  1  0
111228  1  0
112229  1  0
113230  1  0
115231  1  0
116232  1  0
118233  1  0
118234  1  0
118235  1  0
119236  1  0
120237  1  0
127238  1  0
128239  1  0
130240  1  0
130241  1  0
130242  1  0
131243  1  0
132244  1  0
134245  1  0
135246  1  0
137247  1  0
137248  1  0
137249  1  0
138250  1  0
139251  1  0
142252  1  0
147253  1  0
150254  1  0
158255  1  0
159256  1  0
160257  1  0
161258  1  0
162259  1  0
163260  1  0
163261  1  0
164262  1  0
M  END

