
     RDKit          3D

296324  0  0  0  0  0  0  0  0999 V2000
   -8.7463   -4.1888    6.6570 C   0  0  0  0  0  0  0  0  0  0  0  0
   -9.8330   -3.9970    5.8818 C   0  0  0  0  0  0  0  0  0  0  0  0
  -11.1840   -4.2308    6.4037 C   0  0  0  0  0  0  0  0  0  0  0  0
  -11.4579   -4.8147    7.4914 O   0  0  0  0  0  0  0  0  0  0  0  0
  -12.1456   -3.5883    5.5299 C   0  0  0  0  0  0  0  0  0  0  0  0
  -11.4745   -3.0515    4.4353 C   0  0  0  0  0  0  0  0  0  0  0  0
  -12.2120   -2.5792    3.3357 C   0  0  0  0  0  0  0  0  0  0  0  0
  -13.6064   -2.5370    3.4160 C   0  0  0  0  0  0  0  0  0  0  0  0
  -14.2800   -2.9956    4.5629 C   0  0  0  0  0  0  0  0  0  0  0  0
  -16.1805   -2.8025    4.6448 Br  0  0  0  0  0  0  0  0  0  0  0  0
  -13.5467   -3.5361    5.6400 C   0  0  0  0  0  0  0  0  0  0  0  0
  -14.3633   -4.1105    7.0977 Cl  0  0  0  0  0  0  0  0  0  0  0  0
  -10.0043   -3.2509    4.5905 C   0  0  0  0  0  0  0  0  0  0  0  0
   -9.0650   -2.9557    3.6622 C   0  0  0  0  0  0  0  0  0  0  0  0
   -7.8771   -3.7475    3.4969 C   0  0  0  0  0  0  0  0  0  0  0  0
   -6.9083   -4.3683    3.3090 N   0  0  0  0  0  0  0  0  0  0  0  0
   -9.2833   -1.9767    2.6230 C   0  0  0  0  0  0  0  0  0  0  0  0
   -9.4377   -1.1896    1.7769 N   0  0  0  0  0  0  0  0  0  0  0  0
   -7.4812   -3.4529    6.5366 C   0  0  0  0  0  0  0  0  0  0  0  0
   -7.2268   -2.1254    6.9493 C   0  0  0  0  0  0  0  0  0  0  0  0
   -8.0632   -1.4155    7.8969 N   0  0  0  0  0  0  0  0  0  0  0  0
   -8.8227   -2.1635    8.8724 C   0  0  0  0  0  0  0  0  0  0  0  0
  -10.1775   -1.8687    9.0913 C   0  0  0  0  0  0  0  0  0  0  0  0
  -10.9151   -2.5990   10.0258 C   0  0  0  0  0  0  0  0  0  0  0  0
  -10.3019   -3.6306   10.7559 C   0  0  0  0  0  0  0  0  0  0  0  0
  -11.1172   -4.4655   11.7014 C   0  0  0  0  0  0  0  0  0  0  0  0
   -8.9414   -3.9072   10.5575 C   0  0  0  0  0  0  0  0  0  0  0  0
   -8.1992   -3.1666    9.6328 C   0  0  0  0  0  0  0  0  0  0  0  0
   -7.8303   -0.0247    8.2020 C   0  0  0  0  0  0  0  0  0  0  0  0
   -7.4221    0.3519    9.4933 C   0  0  0  0  0  0  0  0  0  0  0  0
   -7.2353    1.6968    9.8126 C   0  0  0  0  0  0  0  0  0  0  0  0
   -7.4402    2.6893    8.8449 C   0  0  0  0  0  0  0  0  0  0  0  0
   -7.2768    4.1328    9.2209 C   0  0  0  0  0  0  0  0  0  0  0  0
   -7.8226    2.3175    7.5408 C   0  0  0  0  0  0  0  0  0  0  0  0
   -8.0237    0.9656    7.2277 C   0  0  0  0  0  0  0  0  0  0  0  0
   -5.8882   -1.7906    6.6747 C   0  0  0  0  0  0  0  0  0  0  0  0
   -4.9861   -0.3907    6.7631 S   0  0  0  0  0  0  0  0  0  0  0  0
   -3.5159   -1.0906    6.2524 C   0  0  0  0  0  0  0  0  0  0  0  0
   -3.7118   -2.4940    6.0850 C   0  0  0  0  0  0  0  0  0  0  0  0
   -2.6567   -3.5018    5.9675 N   0  0  0  0  0  0  0  0  0  0  0  0
   -2.5935   -4.3767    4.8124 C   0  0  0  0  0  0  0  0  0  0  0  0
   -3.4599   -5.4776    4.6842 C   0  0  0  0  0  0  0  0  0  0  0  0
   -3.3691   -6.3494    3.5962 C   0  0  0  0  0  0  0  0  0  0  0  0
   -2.3152   -6.2284    2.6909 C   0  0  0  0  0  0  0  0  0  0  0  0
   -2.2438   -7.1228    1.4855 C   0  0  0  0  0  0  0  0  0  0  0  0
   -1.3453   -5.2411    2.9044 C   0  0  0  0  0  0  0  0  0  0  0  0
   -1.4858   -4.3223    3.9505 C   0  0  0  0  0  0  0  0  0  0  0  0
   -1.7334   -3.7589    7.0656 C   0  0  0  0  0  0  0  0  0  0  0  0
   -1.1256   -5.0258    7.2132 C   0  0  0  0  0  0  0  0  0  0  0  0
   -0.2123   -5.2750    8.2389 C   0  0  0  0  0  0  0  0  0  0  0  0
    0.1412   -4.2571    9.1406 C   0  0  0  0  0  0  0  0  0  0  0  0
    1.1062   -4.5321   10.2529 C   0  0  0  0  0  0  0  0  0  0  0  0
   -0.4806   -3.0108    9.0343 C   0  0  0  0  0  0  0  0  0  0  0  0
   -1.4087   -2.7632    8.0186 C   0  0  0  0  0  0  0  0  0  0  0  0
   -5.0703   -2.8116    6.2892 C   0  0  0  0  0  0  0  0  0  0  0  0
   -6.0054   -4.1967    6.2047 S   0  0  0  0  0  0  0  0  0  0  0  0
   -2.3540   -0.2464    5.8765 C   0  0  0  0  0  0  0  0  0  0  0  0
   -2.4218    1.4477    5.7244 S   0  0  0  0  0  0  0  0  0  0  0  0
   -0.9653    1.6635    4.9231 C   0  0  0  0  0  0  0  0  0  0  0  0
   -0.7630    2.4546    3.7254 C   0  0  0  0  0  0  0  0  0  0  0  0
   -0.3570    1.6362    2.7202 C   0  0  0  0  0  0  0  0  0  0  0  0
    0.2616    0.3680    3.3029 C   0  0  0  0  0  0  0  0  0  0  0  0
   -0.5170    0.3877    4.6161 C   0  0  0  0  0  0  0  0  0  0  0  0
   -1.1997   -0.6653    5.2380 C   0  0  0  0  0  0  0  0  0  0  0  0
    0.0355   -0.8291    2.3728 C   0  0  0  0  0  0  0  0  0  0  0  0
    1.0641   -1.2682    1.5031 C   0  0  0  0  0  0  0  0  0  0  0  0
    0.8594   -2.3362    0.6225 C   0  0  0  0  0  0  0  0  0  0  0  0
   -0.3916   -2.9644    0.5458 C   0  0  0  0  0  0  0  0  0  0  0  0
   -0.5965   -4.1689   -0.3454 C   0  0  0  0  0  0  0  0  0  0  0  0
   -0.4822   -3.8248   -1.8210 C   0  0  0  0  0  0  0  0  0  0  0  0
   -1.4360   -2.4947    1.3533 C   0  0  0  0  0  0  0  0  0  0  0  0
   -1.2284   -1.4423    2.2496 C   0  0  0  0  0  0  0  0  0  0  0  0
    1.7388    0.5176    3.7314 C   0  0  0  0  0  0  0  0  0  0  0  0
    2.5221    1.6602    3.4344 C   0  0  0  0  0  0  0  0  0  0  0  0
    3.7620    1.8596    4.0327 C   0  0  0  0  0  0  0  0  0  0  0  0
    4.2899    0.9034    4.9081 C   0  0  0  0  0  0  0  0  0  0  0  0
    5.6035    1.1542    5.6009 C   0  0  0  0  0  0  0  0  0  0  0  0
    5.4266    2.1277    6.7646 C   0  0  0  0  0  0  0  0  0  0  0  0
    3.5612   -0.2692    5.1643 C   0  0  0  0  0  0  0  0  0  0  0  0
    2.3080   -0.4620    4.5777 C   0  0  0  0  0  0  0  0  0  0  0  0
   -0.1015    2.3186    1.5274 C   0  0  0  0  0  0  0  0  0  0  0  0
   -0.5053    1.8766    0.2620 C   0  0  0  0  0  0  0  0  0  0  0  0
   -1.6604    0.9604    0.1469 C   0  0  0  0  0  0  0  0  0  0  0  0
   -1.8477   -0.0801   -0.7564 C   0  0  0  0  0  0  0  0  0  0  0  0
   -3.0901   -0.7221   -0.6236 C   0  0  0  0  0  0  0  0  0  0  0  0
   -3.9025   -0.1668    0.3697 C   0  0  0  0  0  0  0  0  0  0  0  0
   -5.1707   -0.7220    0.9576 C   0  0  0  0  0  0  0  0  0  0  0  0
   -5.9195   -1.6502    0.0102 C   0  0  0  0  0  0  0  0  0  0  0  0
   -3.0648    1.1069    1.0650 S   0  0  0  0  0  0  0  0  0  0  0  0
   -0.2170    2.7236   -0.8100 C   0  0  0  0  0  0  0  0  0  0  0  0
   -0.4098    2.3354   -2.4357 S   0  0  0  0  0  0  0  0  0  0  0  0
    0.1995    3.7898   -2.9707 C   0  0  0  0  0  0  0  0  0  0  0  0
    1.0104    4.0320   -4.1255 C   0  0  0  0  0  0  0  0  0  0  0  0
    1.9514    4.9610   -3.7504 C   0  0  0  0  0  0  0  0  0  0  0  0
    1.5127    5.7015   -2.4798 C   0  0  0  0  0  0  0  0  0  0  0  0
    2.7199    6.0769   -1.6048 C   0  0  0  0  0  0  0  0  0  0  0  0
    3.5125    5.0604   -1.0411 C   0  0  0  0  0  0  0  0  0  0  0  0
    4.7003    5.3508   -0.3735 C   0  0  0  0  0  0  0  0  0  0  0  0
    5.1439    6.6767   -0.2671 C   0  0  0  0  0  0  0  0  0  0  0  0
    6.4427    6.9973    0.4155 C   0  0  0  0  0  0  0  0  0  0  0  0
    6.2138    7.4072    1.8660 C   0  0  0  0  0  0  0  0  0  0  0  0
    4.3510    7.7065   -0.7953 C   0  0  0  0  0  0  0  0  0  0  0  0
    3.1628    7.4146   -1.4589 C   0  0  0  0  0  0  0  0  0  0  0  0
    0.6595    6.9049   -2.9365 C   0  0  0  0  0  0  0  0  0  0  0  0
    1.1247    7.7492   -3.9682 C   0  0  0  0  0  0  0  0  0  0  0  0
    0.3300    8.7812   -4.4692 C   0  0  0  0  0  0  0  0  0  0  0  0
   -0.9478    9.0134   -3.9355 C   0  0  0  0  0  0  0  0  0  0  0  0
   -1.8338   10.0809   -4.5142 C   0  0  0  0  0  0  0  0  0  0  0  0
   -2.7503    9.5023   -5.5895 C   0  0  0  0  0  0  0  0  0  0  0  0
   -1.4187    8.1932   -2.9060 C   0  0  0  0  0  0  0  0  0  0  0  0
   -0.6315    7.1513   -2.4121 C   0  0  0  0  0  0  0  0  0  0  0  0
    0.6051    4.5981   -1.9216 C   0  0  0  0  0  0  0  0  0  0  0  0
    0.3205    4.0215   -0.6455 C   0  0  0  0  0  0  0  0  0  0  0  0
    0.4474    4.5484    0.6804 C   0  0  0  0  0  0  0  0  0  0  0  0
    0.0998    3.6834    1.7396 C   0  0  0  0  0  0  0  0  0  0  0  0
   -0.3272    4.0519    3.3633 S   0  0  0  0  0  0  0  0  0  0  0  0
    1.0053    5.8683    1.0070 C   0  0  0  0  0  0  0  0  0  0  0  0
    2.1609    6.0606    1.7573 C   0  0  0  0  0  0  0  0  0  0  0  0
    2.4613    7.4144    1.9624 C   0  0  0  0  0  0  0  0  0  0  0  0
    1.5121    8.2814    1.4366 C   0  0  0  0  0  0  0  0  0  0  0  0
    1.6455    9.7697    1.3012 C   0  0  0  0  0  0  0  0  0  0  0  0
    2.2549   10.4090    2.5473 C   0  0  0  0  0  0  0  0  0  0  0  0
    0.3234    7.3643    0.6839 S   0  0  0  0  0  0  0  0  0  0  0  0
    3.2464    4.6716   -4.2246 C   0  0  0  0  0  0  0  0  0  0  0  0
    3.2695    3.5182   -5.0207 C   0  0  0  0  0  0  0  0  0  0  0  0
    1.7260    2.8612   -5.0659 S   0  0  0  0  0  0  0  0  0  0  0  0
    4.4608    2.7495   -5.4093 C   0  0  0  0  0  0  0  0  0  0  0  0
    4.8621    1.5277   -4.8310 C   0  0  0  0  0  0  0  0  0  0  0  0
    4.0605    0.8006   -3.8828 N   0  0  0  0  0  0  0  0  0  0  0  0
    4.4664    0.8531   -2.5038 C   0  0  0  0  0  0  0  0  0  0  0  0
    5.7198    0.3469   -2.1176 C   0  0  0  0  0  0  0  0  0  0  0  0
    6.1669    0.4849   -0.8048 C   0  0  0  0  0  0  0  0  0  0  0  0
    5.3736    1.1419    0.1442 C   0  0  0  0  0  0  0  0  0  0  0  0
    5.8751    1.3353    1.5399 C   0  0  0  0  0  0  0  0  0  0  0  0
    4.0992    1.6042   -0.2210 C   0  0  0  0  0  0  0  0  0  0  0  0
    3.6542    1.4688   -1.5386 C   0  0  0  0  0  0  0  0  0  0  0  0
    2.9319   -0.0046   -4.3338 C   0  0  0  0  0  0  0  0  0  0  0  0
    1.9662   -0.5015   -3.4276 C   0  0  0  0  0  0  0  0  0  0  0  0
    0.8188   -1.1434   -3.8922 C   0  0  0  0  0  0  0  0  0  0  0  0
    0.6280   -1.3715   -5.2595 C   0  0  0  0  0  0  0  0  0  0  0  0
   -0.6257   -2.0205   -5.7614 C   0  0  0  0  0  0  0  0  0  0  0  0
    1.5952   -0.9285   -6.1659 C   0  0  0  0  0  0  0  0  0  0  0  0
    2.7265   -0.2502   -5.7132 C   0  0  0  0  0  0  0  0  0  0  0  0
    5.8128    0.8876   -5.6217 C   0  0  0  0  0  0  0  0  0  0  0  0
    6.3259   -0.7047   -5.6358 S   0  0  0  0  0  0  0  0  0  0  0  0
    6.8746   -0.6567   -7.2361 C   0  0  0  0  0  0  0  0  0  0  0  0
    6.6365    0.6198   -7.7794 C   0  0  0  0  0  0  0  0  0  0  0  0
    6.5883    0.8778   -9.1944 N   0  0  0  0  0  0  0  0  0  0  0  0
    5.9381   -0.0865  -10.0391 C   0  0  0  0  0  0  0  0  0  0  0  0
    6.6485   -0.7116  -11.0733 C   0  0  0  0  0  0  0  0  0  0  0  0
    6.0549   -1.7314  -11.8221 C   0  0  0  0  0  0  0  0  0  0  0  0
    4.7314   -2.1218  -11.5562 C   0  0  0  0  0  0  0  0  0  0  0  0
    4.1142   -3.2479  -12.3318 C   0  0  0  0  0  0  0  0  0  0  0  0
    4.0144   -1.4831  -10.5329 C   0  0  0  0  0  0  0  0  0  0  0  0
    4.6111   -0.4649   -9.7838 C   0  0  0  0  0  0  0  0  0  0  0  0
    7.1195    2.0946   -9.7602 C   0  0  0  0  0  0  0  0  0  0  0  0
    8.2458    2.7208   -9.1917 C   0  0  0  0  0  0  0  0  0  0  0  0
    8.8015    3.8564   -9.7898 C   0  0  0  0  0  0  0  0  0  0  0  0
    8.2356    4.3924  -10.9565 C   0  0  0  0  0  0  0  0  0  0  0  0
    8.8849    5.5512  -11.6518 C   0  0  0  0  0  0  0  0  0  0  0  0
    7.1060    3.7778  -11.5186 C   0  0  0  0  0  0  0  0  0  0  0  0
    6.5491    2.6464  -10.9219 C   0  0  0  0  0  0  0  0  0  0  0  0
    6.0701    1.4698   -6.8278 C   0  0  0  0  0  0  0  0  0  0  0  0
    5.1826    2.8876   -6.9511 S   0  0  0  0  0  0  0  0  0  0  0  0
    7.4223   -1.8186   -7.9477 C   0  0  0  0  0  0  0  0  0  0  0  0
    6.7480   -2.9774   -8.0977 C   0  0  0  0  0  0  0  0  0  0  0  0
    5.3738   -3.2373   -7.6636 C   0  0  0  0  0  0  0  0  0  0  0  0
    4.5010   -2.3708   -7.4092 O   0  0  0  0  0  0  0  0  0  0  0  0
    5.1765   -4.6718   -7.5738 C   0  0  0  0  0  0  0  0  0  0  0  0
    6.3516   -5.3133   -7.9422 C   0  0  0  0  0  0  0  0  0  0  0  0
    6.4084   -6.7145   -7.9349 C   0  0  0  0  0  0  0  0  0  0  0  0
    5.2671   -7.4456   -7.5554 C   0  0  0  0  0  0  0  0  0  0  0  0
    4.0759   -6.7823   -7.1947 C   0  0  0  0  0  0  0  0  0  0  0  0
    2.5512   -7.8386   -6.6959 Br  0  0  0  0  0  0  0  0  0  0  0  0
    4.0195   -5.3785   -7.2105 C   0  0  0  0  0  0  0  0  0  0  0  0
    2.5242   -4.5241   -6.8106 Cl  0  0  0  0  0  0  0  0  0  0  0  0
    7.3446   -4.2985   -8.4044 C   0  0  0  0  0  0  0  0  0  0  0  0
    8.5088   -4.5237   -9.0680 C   0  0  0  0  0  0  0  0  0  0  0  0
    9.0569   -3.5409   -9.9709 C   0  0  0  0  0  0  0  0  0  0  0  0
    9.4727   -2.7947  -10.7535 N   0  0  0  0  0  0  0  0  0  0  0  0
    9.1614   -5.8006   -9.0558 C   0  0  0  0  0  0  0  0  0  0  0  0
    9.7049   -6.8215   -9.0387 N   0  0  0  0  0  0  0  0  0  0  0  0
   -8.8362   -4.8385    7.5171 H   0  0  0  0  0  0  0  0  0  0  0  0
  -11.7461   -2.2846    2.4068 H   0  0  0  0  0  0  0  0  0  0  0  0
  -14.1759   -2.1713    2.5665 H   0  0  0  0  0  0  0  0  0  0  0  0
  -10.6564   -1.0837    8.5236 H   0  0  0  0  0  0  0  0  0  0  0  0
  -11.9633   -2.3774   10.1646 H   0  0  0  0  0  0  0  0  0  0  0  0
  -11.7088   -5.2081   11.1244 H   0  0  0  0  0  0  0  0  0  0  0  0
  -11.8103   -3.8198   12.2790 H   0  0  0  0  0  0  0  0  0  0  0  0
  -10.4678   -5.0072   12.4215 H   0  0  0  0  0  0  0  0  0  0  0  0
   -8.4543   -4.7002   11.1089 H   0  0  0  0  0  0  0  0  0  0  0  0
   -7.1505   -3.3989    9.4894 H   0  0  0  0  0  0  0  0  0  0  0  0
   -7.2595   -0.3928   10.2599 H   0  0  0  0  0  0  0  0  0  0  0  0
   -6.9462    1.9643   10.8219 H   0  0  0  0  0  0  0  0  0  0  0  0
   -7.4090    4.7967    8.3411 H   0  0  0  0  0  0  0  0  0  0  0  0
   -6.2620    4.2987    9.6402 H   0  0  0  0  0  0  0  0  0  0  0  0
   -8.0293    4.4054    9.9874 H   0  0  0  0  0  0  0  0  0  0  0  0
   -7.9775    3.0725    6.7770 H   0  0  0  0  0  0  0  0  0  0  0  0
   -8.3310    0.6875    6.2292 H   0  0  0  0  0  0  0  0  0  0  0  0
   -4.1408   -5.7414    5.4664 H   0  0  0  0  0  0  0  0  0  0  0  0
   -4.0903   -7.1477    3.4902 H   0  0  0  0  0  0  0  0  0  0  0  0
   -1.1936   -7.2471    1.1475 H   0  0  0  0  0  0  0  0  0  0  0  0
   -2.6523   -8.1257    1.7230 H   0  0  0  0  0  0  0  0  0  0  0  0
   -2.8379   -6.6727    0.6610 H   0  0  0  0  0  0  0  0  0  0  0  0
   -0.4691   -5.1913    2.2678 H   0  0  0  0  0  0  0  0  0  0  0  0
   -0.6973   -3.6053    4.1021 H   0  0  0  0  0  0  0  0  0  0  0  0
   -1.3624   -5.8399    6.5440 H   0  0  0  0  0  0  0  0  0  0  0  0
    0.2256   -6.2612    8.3304 H   0  0  0  0  0  0  0  0  0  0  0  0
    1.7902   -5.3666    9.9891 H   0  0  0  0  0  0  0  0  0  0  0  0
    1.7226   -3.6337   10.4540 H   0  0  0  0  0  0  0  0  0  0  0  0
    0.5436   -4.7992   11.1729 H   0  0  0  0  0  0  0  0  0  0  0  0
   -0.2408   -2.2221    9.7407 H   0  0  0  0  0  0  0  0  0  0  0  0
   -1.8496   -1.7843    7.9972 H   0  0  0  0  0  0  0  0  0  0  0  0
   -0.9326   -1.6829    5.0864 H   0  0  0  0  0  0  0  0  0  0  0  0
    2.0374   -0.7963    1.5011 H   0  0  0  0  0  0  0  0  0  0  0  0
    1.6809   -2.6808    0.0081 H   0  0  0  0  0  0  0  0  0  0  0  0
    0.1588   -4.9410   -0.0889 H   0  0  0  0  0  0  0  0  0  0  0  0
   -1.6029   -4.6097   -0.1733 H   0  0  0  0  0  0  0  0  0  0  0  0
    0.5457   -3.4767   -2.0513 H   0  0  0  0  0  0  0  0  0  0  0  0
   -1.2282   -3.0488   -2.0916 H   0  0  0  0  0  0  0  0  0  0  0  0
   -0.6813   -4.7338   -2.4267 H   0  0  0  0  0  0  0  0  0  0  0  0
   -2.4211   -2.9515    1.2946 H   0  0  0  0  0  0  0  0  0  0  0  0
   -2.0743   -1.1017    2.8325 H   0  0  0  0  0  0  0  0  0  0  0  0
    2.1764    2.4302    2.7743 H   0  0  0  0  0  0  0  0  0  0  0  0
    4.3061    2.7755    3.8337 H   0  0  0  0  0  0  0  0  0  0  0  0
    6.0256    0.2013    5.9869 H   0  0  0  0  0  0  0  0  0  0  0  0
    6.3381    1.5677    4.8748 H   0  0  0  0  0  0  0  0  0  0  0  0
    6.3644    2.1820    7.3526 H   0  0  0  0  0  0  0  0  0  0  0  0
    5.1862    3.1448    6.3799 H   0  0  0  0  0  0  0  0  0  0  0  0
    4.6068    1.7899    7.4332 H   0  0  0  0  0  0  0  0  0  0  0  0
    3.9453   -1.0068    5.8610 H   0  0  0  0  0  0  0  0  0  0  0  0
    1.7495   -1.3537    4.8372 H   0  0  0  0  0  0  0  0  0  0  0  0
   -1.0949   -0.4047   -1.4575 H   0  0  0  0  0  0  0  0  0  0  0  0
   -3.3649   -1.5886   -1.2090 H   0  0  0  0  0  0  0  0  0  0  0  0
   -5.8382    0.1219    1.2366 H   0  0  0  0  0  0  0  0  0  0  0  0
   -4.9132   -1.2763    1.8856 H   0  0  0  0  0  0  0  0  0  0  0  0
   -6.1364   -1.1288   -0.9456 H   0  0  0  0  0  0  0  0  0  0  0  0
   -6.8754   -1.9557    0.4791 H   0  0  0  0  0  0  0  0  0  0  0  0
   -5.3207   -2.5678   -0.1856 H   0  0  0  0  0  0  0  0  0  0  0  0
    3.2053    4.0376   -1.1409 H   0  0  0  0  0  0  0  0  0  0  0  0
    5.2862    4.5422    0.0430 H   0  0  0  0  0  0  0  0  0  0  0  0
    6.9539    7.8296   -0.1210 H   0  0  0  0  0  0  0  0  0  0  0  0
    7.1229    6.1152    0.3870 H   0  0  0  0  0  0  0  0  0  0  0  0
    5.6294    6.6316    2.4043 H   0  0  0  0  0  0  0  0  0  0  0  0
    7.1914    7.5325    2.3726 H   0  0  0  0  0  0  0  0  0  0  0  0
    5.6718    8.3763    1.9050 H   0  0  0  0  0  0  0  0  0  0  0  0
    4.6644    8.7411   -0.6955 H   0  0  0  0  0  0  0  0  0  0  0  0
    2.5951    8.2458   -1.8472 H   0  0  0  0  0  0  0  0  0  0  0  0
    2.1009    7.5865   -4.4114 H   0  0  0  0  0  0  0  0  0  0  0  0
    0.7043    9.3933   -5.2826 H   0  0  0  0  0  0  0  0  0  0  0  0
   -2.4522   10.5388   -3.7102 H   0  0  0  0  0  0  0  0  0  0  0  0
   -1.2178   10.8955   -4.9584 H   0  0  0  0  0  0  0  0  0  0  0  0
   -2.1497    9.0554   -6.4096 H   0  0  0  0  0  0  0  0  0  0  0  0
   -3.3837   10.3100   -6.0108 H   0  0  0  0  0  0  0  0  0  0  0  0
   -3.4104    8.7241   -5.1566 H   0  0  0  0  0  0  0  0  0  0  0  0
   -2.4088    8.3438   -2.4963 H   0  0  0  0  0  0  0  0  0  0  0  0
   -1.0544    6.5219   -1.6448 H   0  0  0  0  0  0  0  0  0  0  0  0
    2.8006    5.2578    2.0949 H   0  0  0  0  0  0  0  0  0  0  0  0
    3.3596    7.7385    2.4675 H   0  0  0  0  0  0  0  0  0  0  0  0
    2.2818   10.0034    0.4207 H   0  0  0  0  0  0  0  0  0  0  0  0
    0.6401   10.2064    1.1282 H   0  0  0  0  0  0  0  0  0  0  0  0
    3.3190   10.1088    2.6597 H   0  0  0  0  0  0  0  0  0  0  0  0
    2.2156   11.5165    2.4478 H   0  0  0  0  0  0  0  0  0  0  0  0
    1.6810   10.1130    3.4531 H   0  0  0  0  0  0  0  0  0  0  0  0
    4.1383    5.1841   -3.8984 H   0  0  0  0  0  0  0  0  0  0  0  0
    6.3608   -0.1437   -2.8348 H   0  0  0  0  0  0  0  0  0  0  0  0
    7.1401    0.0918   -0.5355 H   0  0  0  0  0  0  0  0  0  0  0  0
    5.4040    0.5852    2.2086 H   0  0  0  0  0  0  0  0  0  0  0  0
    6.9780    1.2077    1.5891 H   0  0  0  0  0  0  0  0  0  0  0  0
    5.6370    2.3647    1.8793 H   0  0  0  0  0  0  0  0  0  0  0  0
    3.4660    2.0956    0.5029 H   0  0  0  0  0  0  0  0  0  0  0  0
    2.6861    1.8602   -1.8174 H   0  0  0  0  0  0  0  0  0  0  0  0
    2.0728   -0.3840   -2.3632 H   0  0  0  0  0  0  0  0  0  0  0  0
    0.0660   -1.4469   -3.1884 H   0  0  0  0  0  0  0  0  0  0  0  0
   -1.3083   -1.2465   -6.1698 H   0  0  0  0  0  0  0  0  0  0  0  0
   -0.3865   -2.7502   -6.5683 H   0  0  0  0  0  0  0  0  0  0  0  0
   -1.1516   -2.5696   -4.9498 H   0  0  0  0  0  0  0  0  0  0  0  0
    1.4585   -1.0858   -7.2280 H   0  0  0  0  0  0  0  0  0  0  0  0
    3.4186    0.1033   -6.4604 H   0  0  0  0  0  0  0  0  0  0  0  0
    7.6751   -0.4327  -11.2661 H   0  0  0  0  0  0  0  0  0  0  0  0
    6.6287   -2.2204  -12.6012 H   0  0  0  0  0  0  0  0  0  0  0  0
    4.2897   -3.1047  -13.4191 H   0  0  0  0  0  0  0  0  0  0  0  0
    4.5719   -4.2092  -12.0136 H   0  0  0  0  0  0  0  0  0  0  0  0
    3.0170   -3.3029  -12.1622 H   0  0  0  0  0  0  0  0  0  0  0  0
    3.0005   -1.7777  -10.3021 H   0  0  0  0  0  0  0  0  0  0  0  0
    4.0532    0.0171   -8.9902 H   0  0  0  0  0  0  0  0  0  0  0  0
    8.7090    2.3131   -8.3052 H   0  0  0  0  0  0  0  0  0  0  0  0
    9.6866    4.3047   -9.3575 H   0  0  0  0  0  0  0  0  0  0  0  0
    9.3230    6.2554  -10.9113 H   0  0  0  0  0  0  0  0  0  0  0  0
    8.1473    6.1139  -12.2636 H   0  0  0  0  0  0  0  0  0  0  0  0
    9.6927    5.1748  -12.3127 H   0  0  0  0  0  0  0  0  0  0  0  0
    6.6650    4.1652  -12.4268 H   0  0  0  0  0  0  0  0  0  0  0  0
    5.6729    2.1947  -11.3752 H   0  0  0  0  0  0  0  0  0  0  0  0
    8.4720   -1.7589   -8.2123 H   0  0  0  0  0  0  0  0  0  0  0  0
    7.2989   -7.2636   -8.1977 H   0  0  0  0  0  0  0  0  0  0  0  0
    5.3155   -8.5228   -7.5247 H   0  0  0  0  0  0  0  0  0  0  0  0
  1  2  2  3
  2  3  1  0
  3  4  2  0
  3  5  1  0
  5  6  2  0
  6  7  1  0
  7  8  2  0
  8  9  1  0
  9 10  1  0
  9 11  2  0
 11 12  1  0
  6 13  1  0
 13 14  2  3
 14 15  1  0
 15 16  3  0
 14 17  1  0
 17 18  3  0
  1 19  1  0
 19 20  2  0
 20 21  1  0
 21 22  1  0
 22 23  2  0
 23 24  1  0
 24 25  2  0
 25 26  1  0
 25 27  1  0
 27 28  2  0
 21 29  1  0
 29 30  2  0
 30 31  1  0
 31 32  2  0
 32 33  1  0
 32 34  1  0
 34 35  2  0
 20 36  1  0
 36 37  1  0
 37 38  1  0
 38 39  2  0
 39 40  1  0
 40 41  1  0
 41 42  2  0
 42 43  1  0
 43 44  2  0
 44 45  1  0
 44 46  1  0
 46 47  2  0
 40 48  1  0
 48 49  2  0
 49 50  1  0
 50 51  2  0
 51 52  1  0
 51 53  1  0
 53 54  2  0
 39 55  1  0
 55 56  1  0
 38 57  1  0
 57 58  1  0
 58 59  1  0
 59 60  1  0
 60 61  2  0
 61 62  1  0
 62 63  1  0
 63 64  1  0
 62 65  1  0
 65 66  2  0
 66 67  1  0
 67 68  2  0
 68 69  1  0
 69 70  1  0
 68 71  1  0
 71 72  2  0
 62 73  1  0
 73 74  2  0
 74 75  1  0
 75 76  2  0
 76 77  1  0
 77 78  1  0
 76 79  1  0
 79 80  2  0
 61 81  1  0
 81 82  2  0
 82 83  1  0
 83 84  2  0
 84 85  1  0
 85 86  2  0
 86 87  1  0
 87 88  1  0
 86 89  1  0
 82 90  1  0
 90 91  1  0
 91 92  1  0
 92 93  1  0
 93 94  2  0
 94 95  1  0
 95 96  1  0
 96 97  2  0
 97 98  1  0
 98 99  2  0
 99100  1  0
100101  1  0
 99102  1  0
102103  2  0
 95104  1  0
104105  2  0
105106  1  0
106107  2  0
107108  1  0
108109  1  0
107110  1  0
110111  2  0
 95112  1  0
112113  1  0
113114  1  0
114115  2  0
115116  1  0
114117  1  0
117118  2  0
118119  1  0
119120  2  0
120121  1  0
121122  1  0
120123  1  0
 94124  1  0
124125  2  0
125126  1  0
125127  1  0
127128  2  0
128129  1  0
129130  1  0
130131  2  0
131132  1  0
132133  2  0
133134  1  0
133135  1  0
135136  2  0
129137  1  0
137138  2  0
138139  1  0
139140  2  0
140141  1  0
140142  1  0
142143  2  0
128144  1  0
144145  1  0
145146  1  0
146147  2  0
147148  1  0
148149  1  0
149150  2  0
150151  1  0
151152  2  0
152153  1  0
152154  1  0
154155  2  0
148156  1  0
156157  2  0
157158  1  0
158159  2  0
159160  1  0
159161  1  0
161162  2  0
147163  1  0
163164  1  0
146165  1  0
165166  2  3
166167  1  0
167168  2  0
167169  1  0
169170  2  0
170171  1  0
171172  2  0
172173  1  0
173174  1  0
173175  2  0
175176  1  0
170177  1  0
177178  2  3
178179  1  0
179180  3  0
178181  1  0
181182  3  0
 13  2  1  0
 56 19  1  0
 64 57  2  0
 72 65  1  0
 80 73  1  0
115 81  1  0
123117  1  0
164127  1  0
177166  1  0
 11  5  1  0
 28 22  1  0
 35 29  1  0
 55 36  2  0
 63 59  2  0
 89 83  1  0
113 90  2  0
136130  1  0
143137  1  0
163144  2  0
175169  1  0
 47 41  1  0
 54 48  1  0
116 60  1  0
155149  1  0
162156  1  0
112 92  2  0
126 93  1  0
103 96  1  0
111104  1  0
  1183  1  0
  7184  1  0
  8185  1  0
 23186  1  0
 24187  1  0
 26188  1  0
 26189  1  0
 26190  1  0
 27191  1  0
 28192  1  0
 30193  1  0
 31194  1  0
 33195  1  0
 33196  1  0
 33197  1  0
 34198  1  0
 35199  1  0
 42200  1  0
 43201  1  0
 45202  1  0
 45203  1  0
 45204  1  0
 46205  1  0
 47206  1  0
 49207  1  0
 50208  1  0
 52209  1  0
 52210  1  0
 52211  1  0
 53212  1  0
 54213  1  0
 64214  1  0
 66215  1  0
 67216  1  0
 69217  1  0
 69218  1  0
 70219  1  0
 70220  1  0
 70221  1  0
 71222  1  0
 72223  1  0
 74224  1  0
 75225  1  0
 77226  1  0
 77227  1  0
 78228  1  0
 78229  1  0
 78230  1  0
 79231  1  0
 80232  1  0
 84233  1  0
 85234  1  0
 87235  1  0
 87236  1  0
 88237  1  0
 88238  1  0
 88239  1  0
 97240  1  0
 98241  1  0
100242  1  0
100243  1  0
101244  1  0
101245  1  0
101246  1  0
102247  1  0
103248  1  0
105249  1  0
106250  1  0
108251  1  0
108252  1  0
109253  1  0
109254  1  0
109255  1  0
110256  1  0
111257  1  0
118258  1  0
119259  1  0
121260  1  0
121261  1  0
122262  1  0
122263  1  0
122264  1  0
124265  1  0
131266  1  0
132267  1  0
134268  1  0
134269  1  0
134270  1  0
135271  1  0
136272  1  0
138273  1  0
139274  1  0
141275  1  0
141276  1  0
141277  1  0
142278  1  0
143279  1  0
150280  1  0
151281  1  0
153282  1  0
153283  1  0
153284  1  0
154285  1  0
155286  1  0
157287  1  0
158288  1  0
160289  1  0
160290  1  0
160291  1  0
161292  1  0
162293  1  0
165294  1  0
171295  1  0
172296  1  0
M  END

