
     RDKit          3D

255281  0  0  0  0  0  0  0  0999 V2000
    7.7025   -1.8810    6.6682 C   0  0  0  0  0  0  0  0  0  0  0  0
    7.5564   -2.9483    7.4811 C   0  0  0  0  0  0  0  0  0  0  0  0
    7.5750   -4.3810    7.1244 C   0  0  0  0  0  0  0  0  0  0  0  0
    6.4450   -4.8682    6.7939 O   0  0  0  0  0  0  0  0  0  0  0  0
    8.2898   -5.0673    8.2250 C   0  0  0  0  0  0  0  0  0  0  0  0
    8.5169   -4.1400    9.2428 C   0  0  0  0  0  0  0  0  0  0  0  0
    8.9226   -4.5562   10.5124 C   0  0  0  0  0  0  0  0  0  0  0  0
    9.1074   -5.9090   10.7395 C   0  0  0  0  0  0  0  0  0  0  0  0
    8.7596   -6.8658    9.7734 C   0  0  0  0  0  0  0  0  0  0  0  0
    9.0224   -8.7137   10.0994 Br  0  0  0  0  0  0  0  0  0  0  0  0
    8.3336   -6.4388    8.4835 C   0  0  0  0  0  0  0  0  0  0  0  0
    7.3176   -7.5127    7.5512 Cl  0  0  0  0  0  0  0  0  0  0  0  0
    7.8635   -2.8473    8.9041 C   0  0  0  0  0  0  0  0  0  0  0  0
    7.2074   -2.0107    9.7499 C   0  0  0  0  0  0  0  0  0  0  0  0
    6.0703   -1.2021    9.3100 C   0  0  0  0  0  0  0  0  0  0  0  0
    5.1911   -0.5478    8.9506 N   0  0  0  0  0  0  0  0  0  0  0  0
    7.6693   -1.7527   11.0677 C   0  0  0  0  0  0  0  0  0  0  0  0
    8.0882   -1.5384   12.1302 N   0  0  0  0  0  0  0  0  0  0  0  0
    7.6211   -1.8507    5.1972 C   0  0  0  0  0  0  0  0  0  0  0  0
    8.6418   -1.8746    4.2194 C   0  0  0  0  0  0  0  0  0  0  0  0
   10.0446   -1.9220    4.5763 N   0  0  0  0  0  0  0  0  0  0  0  0
   10.6723   -0.8090    5.2856 C   0  0  0  0  0  0  0  0  0  0  0  0
   11.4520    0.1403    4.5884 C   0  0  0  0  0  0  0  0  0  0  0  0
   12.1156    1.1597    5.2776 C   0  0  0  0  0  0  0  0  0  0  0  0
   12.0194    1.2866    6.6780 C   0  0  0  0  0  0  0  0  0  0  0  0
   12.7590    2.3771    7.4065 C   0  0  0  0  0  0  0  0  0  0  0  0
   11.2986    0.3187    7.3922 C   0  0  0  0  0  0  0  0  0  0  0  0
   10.6765   -0.7376    6.6950 C   0  0  0  0  0  0  0  0  0  0  0  0
   10.8799   -2.8321    3.8863 C   0  0  0  0  0  0  0  0  0  0  0  0
   11.3277   -2.5475    2.5910 C   0  0  0  0  0  0  0  0  0  0  0  0
   12.1323   -3.4567    1.9223 C   0  0  0  0  0  0  0  0  0  0  0  0
   12.4398   -4.6811    2.5053 C   0  0  0  0  0  0  0  0  0  0  0  0
   13.2561   -5.6683    1.7131 C   0  0  0  0  0  0  0  0  0  0  0  0
   12.0450   -4.9527    3.8267 C   0  0  0  0  0  0  0  0  0  0  0  0
   11.2457   -4.0117    4.4981 C   0  0  0  0  0  0  0  0  0  0  0  0
    8.1934   -1.4125    2.9552 C   0  0  0  0  0  0  0  0  0  0  0  0
    8.4175   -1.9330    1.3417 S   0  0  0  0  0  0  0  0  0  0  0  0
    7.0574   -1.0931    0.7370 C   0  0  0  0  0  0  0  0  0  0  0  0
    6.4184   -0.4530    1.8050 C   0  0  0  0  0  0  0  0  0  0  0  0
    5.8681    0.8574    1.5716 N   0  0  0  0  0  0  0  0  0  0  0  0
    4.6857    1.2968    2.2542 C   0  0  0  0  0  0  0  0  0  0  0  0
    4.7610    1.6447    3.5970 C   0  0  0  0  0  0  0  0  0  0  0  0
    3.6660    2.1825    4.2653 C   0  0  0  0  0  0  0  0  0  0  0  0
    2.5045    2.4879    3.5567 C   0  0  0  0  0  0  0  0  0  0  0  0
    1.3376    3.0941    4.2911 C   0  0  0  0  0  0  0  0  0  0  0  0
    2.4228    2.1977    2.1812 C   0  0  0  0  0  0  0  0  0  0  0  0
    3.5115    1.6095    1.5293 C   0  0  0  0  0  0  0  0  0  0  0  0
    6.6756    1.8662    0.9358 C   0  0  0  0  0  0  0  0  0  0  0  0
    6.2359    2.5370   -0.2419 C   0  0  0  0  0  0  0  0  0  0  0  0
    6.9667    3.5948   -0.7947 C   0  0  0  0  0  0  0  0  0  0  0  0
    8.1499    4.0446   -0.1553 C   0  0  0  0  0  0  0  0  0  0  0  0
    8.8649    5.2721   -0.6295 C   0  0  0  0  0  0  0  0  0  0  0  0
    8.6123    3.3498    0.9794 C   0  0  0  0  0  0  0  0  0  0  0  0
    7.8719    2.2958    1.5265 C   0  0  0  0  0  0  0  0  0  0  0  0
    6.9939   -0.7857    3.0128 C   0  0  0  0  0  0  0  0  0  0  0  0
    6.3006   -1.0599    4.4968 S   0  0  0  0  0  0  0  0  0  0  0  0
    6.3763   -1.2076   -0.5761 C   0  0  0  0  0  0  0  0  0  0  0  0
    6.8597   -0.7533   -1.8274 C   0  0  0  0  0  0  0  0  0  0  0  0
    8.1825   -1.1163   -2.3217 C   0  0  0  0  0  0  0  0  0  0  0  0
    9.2886   -0.4499   -1.7919 C   0  0  0  0  0  0  0  0  0  0  0  0
   10.5853   -0.9151   -2.0363 C   0  0  0  0  0  0  0  0  0  0  0  0
   10.7753   -2.0557   -2.8095 C   0  0  0  0  0  0  0  0  0  0  0  0
    9.6853   -2.7205   -3.3647 C   0  0  0  0  0  0  0  0  0  0  0  0
    8.3744   -2.2766   -3.1255 C   0  0  0  0  0  0  0  0  0  0  0  0
    7.2438   -3.0318   -3.7775 C   0  0  0  0  0  0  0  0  0  0  0  0
    7.1522   -2.7054   -5.2781 C   0  0  0  0  0  0  0  0  0  0  0  0
    5.7738   -0.3612   -2.6442 C   0  0  0  0  0  0  0  0  0  0  0  0
    5.6170    0.4052   -4.1474 S   0  0  0  0  0  0  0  0  0  0  0  0
    3.9213    0.3415   -4.0920 C   0  0  0  0  0  0  0  0  0  0  0  0
    2.7946    0.6770   -4.8057 C   0  0  0  0  0  0  0  0  0  0  0  0
    2.5982    1.3421   -6.0315 C   0  0  0  0  0  0  0  0  0  0  0  0
    1.2592    1.5901   -6.4678 C   0  0  0  0  0  0  0  0  0  0  0  0
    1.1294    2.2076   -7.6774 N   0  0  0  0  0  0  0  0  0  0  0  0
    2.7120    2.3949   -8.1062 S   0  0  0  0  0  0  0  0  0  0  0  0
    3.5786    1.7331   -6.8644 N   0  0  0  0  0  0  0  0  0  0  0  0
    0.1955    1.1322   -5.6801 C   0  0  0  0  0  0  0  0  0  0  0  0
   -1.1692    1.2040   -5.8150 C   0  0  0  0  0  0  0  0  0  0  0  0
   -2.4062    1.9961   -6.7017 S   0  0  0  0  0  0  0  0  0  0  0  0
   -3.6617    1.3867   -5.7129 C   0  0  0  0  0  0  0  0  0  0  0  0
   -5.0909    1.4852   -5.5851 C   0  0  0  0  0  0  0  0  0  0  0  0
   -5.9448    2.3161   -6.5372 C   0  0  0  0  0  0  0  0  0  0  0  0
   -7.1757    3.0081   -6.2372 C   0  0  0  0  0  0  0  0  0  0  0  0
   -7.7592    3.2071   -4.8517 C   0  0  0  0  0  0  0  0  0  0  0  0
   -6.7922    3.9981   -3.9494 C   0  0  0  0  0  0  0  0  0  0  0  0
   -7.9254    3.6073   -7.2912 C   0  0  0  0  0  0  0  0  0  0  0  0
   -7.4702    3.6379   -8.6141 C   0  0  0  0  0  0  0  0  0  0  0  0
   -6.3500    2.8539   -8.9095 C   0  0  0  0  0  0  0  0  0  0  0  0
   -5.5440    2.3103   -7.9157 C   0  0  0  0  0  0  0  0  0  0  0  0
   -5.5210    0.5930   -4.5075 C   0  0  0  0  0  0  0  0  0  0  0  0
   -4.1677   -0.1553   -3.8095 S   0  0  0  0  0  0  0  0  0  0  0  0
   -3.0728    0.6179   -4.7466 C   0  0  0  0  0  0  0  0  0  0  0  0
   -1.7028    0.5616   -4.7726 C   0  0  0  0  0  0  0  0  0  0  0  0
   -0.7808    0.2323   -3.8199 N   0  0  0  0  0  0  0  0  0  0  0  0
    0.3921    0.4400   -4.4813 C   0  0  0  0  0  0  0  0  0  0  0  0
    1.7208    0.1896   -4.0428 C   0  0  0  0  0  0  0  0  0  0  0  0
    2.1723   -0.5131   -2.9602 N   0  0  0  0  0  0  0  0  0  0  0  0
    3.4974   -0.2895   -2.9795 C   0  0  0  0  0  0  0  0  0  0  0  0
    4.5373   -0.6382   -2.1421 C   0  0  0  0  0  0  0  0  0  0  0  0
    4.6514   -1.1940   -0.5993 S   0  0  0  0  0  0  0  0  0  0  0  0
    1.4368   -1.4935   -2.1710 C   0  0  0  0  0  0  0  0  0  0  0  0
    2.1414   -2.8526   -2.0993 C   0  0  0  0  0  0  0  0  0  0  0  0
   -1.0197    0.5720   -2.3924 C   0  0  0  0  0  0  0  0  0  0  0  0
   -0.4283    1.9238   -2.0133 C   0  0  0  0  0  0  0  0  0  0  0  0
   -6.5941    0.7331   -3.5032 C   0  0  0  0  0  0  0  0  0  0  0  0
   -7.7805   -0.0172   -3.3872 C   0  0  0  0  0  0  0  0  0  0  0  0
   -8.1488   -1.0305   -4.3284 N   0  0  0  0  0  0  0  0  0  0  0  0
   -8.5958   -0.5636   -5.6057 C   0  0  0  0  0  0  0  0  0  0  0  0
   -7.6913   -0.4817   -6.6892 C   0  0  0  0  0  0  0  0  0  0  0  0
   -8.1115    0.0092   -7.9243 C   0  0  0  0  0  0  0  0  0  0  0  0
   -9.4503    0.3829   -8.1166 C   0  0  0  0  0  0  0  0  0  0  0  0
   -9.9222    0.8702   -9.4590 C   0  0  0  0  0  0  0  0  0  0  0  0
  -10.3691    0.2060   -7.0495 C   0  0  0  0  0  0  0  0  0  0  0  0
   -9.9382   -0.2277   -5.8000 C   0  0  0  0  0  0  0  0  0  0  0  0
   -7.6885   -2.4067   -4.1337 C   0  0  0  0  0  0  0  0  0  0  0  0
   -7.4684   -3.2832   -5.2422 C   0  0  0  0  0  0  0  0  0  0  0  0
   -6.8678   -4.5357   -5.0557 C   0  0  0  0  0  0  0  0  0  0  0  0
   -6.5417   -4.9705   -3.7638 C   0  0  0  0  0  0  0  0  0  0  0  0
   -5.9565   -6.3404   -3.5371 C   0  0  0  0  0  0  0  0  0  0  0  0
   -6.8444   -4.1557   -2.6656 C   0  0  0  0  0  0  0  0  0  0  0  0
   -7.3711   -2.8828   -2.8511 C   0  0  0  0  0  0  0  0  0  0  0  0
   -8.3441    0.1203   -2.0941 C   0  0  0  0  0  0  0  0  0  0  0  0
   -9.6578   -0.5277   -1.2282 S   0  0  0  0  0  0  0  0  0  0  0  0
   -9.1208    0.0749    0.2867 C   0  0  0  0  0  0  0  0  0  0  0  0
   -7.9104    0.7302    0.1264 C   0  0  0  0  0  0  0  0  0  0  0  0
   -6.8944    0.7501    1.1635 N   0  0  0  0  0  0  0  0  0  0  0  0
   -6.2721   -0.4892    1.5936 C   0  0  0  0  0  0  0  0  0  0  0  0
   -5.7727   -0.6258    2.9019 C   0  0  0  0  0  0  0  0  0  0  0  0
   -5.2169   -1.8436    3.3146 C   0  0  0  0  0  0  0  0  0  0  0  0
   -5.1396   -2.9434    2.4361 C   0  0  0  0  0  0  0  0  0  0  0  0
   -4.5168   -4.2398    2.8825 C   0  0  0  0  0  0  0  0  0  0  0  0
   -5.5980   -2.8108    1.1312 C   0  0  0  0  0  0  0  0  0  0  0  0
   -6.1377   -1.5943    0.7157 C   0  0  0  0  0  0  0  0  0  0  0  0
   -6.2814    1.9990    1.5376 C   0  0  0  0  0  0  0  0  0  0  0  0
   -5.0021    2.3177    1.0659 C   0  0  0  0  0  0  0  0  0  0  0  0
   -4.3735    3.4711    1.5097 C   0  0  0  0  0  0  0  0  0  0  0  0
   -5.0184    4.3275    2.4216 C   0  0  0  0  0  0  0  0  0  0  0  0
   -4.3501    5.5932    2.9147 C   0  0  0  0  0  0  0  0  0  0  0  0
   -6.2937    3.9949    2.8971 C   0  0  0  0  0  0  0  0  0  0  0  0
   -6.9212    2.8290    2.4579 C   0  0  0  0  0  0  0  0  0  0  0  0
   -7.5928    0.8454   -1.2135 C   0  0  0  0  0  0  0  0  0  0  0  0
   -6.2394    1.3820   -1.9756 S   0  0  0  0  0  0  0  0  0  0  0  0
   -9.8996    0.2389    1.5378 C   0  0  0  0  0  0  0  0  0  0  0  0
  -10.4811    1.4402    1.7860 C   0  0  0  0  0  0  0  0  0  0  0  0
  -10.8394    2.3963    0.7341 C   0  0  0  0  0  0  0  0  0  0  0  0
  -11.0222    2.1132   -0.4819 O   0  0  0  0  0  0  0  0  0  0  0  0
  -11.0199    3.6970    1.3025 C   0  0  0  0  0  0  0  0  0  0  0  0
  -11.2289    4.8934    0.6273 C   0  0  0  0  0  0  0  0  0  0  0  0
  -11.2720    6.0959    1.3432 C   0  0  0  0  0  0  0  0  0  0  0  0
  -11.4410    7.3201    0.6868 C   0  0  0  0  0  0  0  0  0  0  0  0
  -11.4523    8.5169    1.4162 C   0  0  0  0  0  0  0  0  0  0  0  0
  -11.2966    8.4838    2.7950 C   0  0  0  0  0  0  0  0  0  0  0  0
  -11.2658    9.6448    3.5026 F   0  0  0  0  0  0  0  0  0  0  0  0
  -11.1068    7.2719    3.4691 C   0  0  0  0  0  0  0  0  0  0  0  0
  -11.1034    6.0674    2.7471 C   0  0  0  0  0  0  0  0  0  0  0  0
  -10.8870    4.8488    3.4231 C   0  0  0  0  0  0  0  0  0  0  0  0
  -10.8237    3.6517    2.6748 C   0  0  0  0  0  0  0  0  0  0  0  0
  -10.4841    2.2456    3.0826 C   0  0  0  0  0  0  0  0  0  0  0  0
  -10.0672    1.8374    4.3181 C   0  0  0  0  0  0  0  0  0  0  0  0
   -9.7014    0.4677    4.6353 C   0  0  0  0  0  0  0  0  0  0  0  0
   -9.3604   -0.6077    4.9084 N   0  0  0  0  0  0  0  0  0  0  0  0
   -9.9131    2.7326    5.4332 C   0  0  0  0  0  0  0  0  0  0  0  0
   -9.7570    3.4604    6.3273 N   0  0  0  0  0  0  0  0  0  0  0  0
    7.6079   -0.9006    7.1520 H   0  0  0  0  0  0  0  0  0  0  0  0
    9.1545   -3.8643   11.3045 H   0  0  0  0  0  0  0  0  0  0  0  0
    9.4960   -6.2065   11.7165 H   0  0  0  0  0  0  0  0  0  0  0  0
   11.5373    0.1157    3.5193 H   0  0  0  0  0  0  0  0  0  0  0  0
   12.6578    1.9079    4.7306 H   0  0  0  0  0  0  0  0  0  0  0  0
   12.1635    2.7406    8.2841 H   0  0  0  0  0  0  0  0  0  0  0  0
   12.9669    3.2605    6.7643 H   0  0  0  0  0  0  0  0  0  0  0  0
   13.7223    1.9958    7.7987 H   0  0  0  0  0  0  0  0  0  0  0  0
   11.2188    0.3817    8.4710 H   0  0  0  0  0  0  0  0  0  0  0  0
   10.2010   -1.5008    7.2906 H   0  0  0  0  0  0  0  0  0  0  0  0
   11.0567   -1.6065    2.1453 H   0  0  0  0  0  0  0  0  0  0  0  0
   12.4716   -3.1899    0.9441 H   0  0  0  0  0  0  0  0  0  0  0  0
   12.9568   -5.6443    0.6315 H   0  0  0  0  0  0  0  0  0  0  0  0
   13.0927   -6.6945    2.1028 H   0  0  0  0  0  0  0  0  0  0  0  0
   14.3315   -5.3902    1.8040 H   0  0  0  0  0  0  0  0  0  0  0  0
   12.2783   -5.8984    4.3086 H   0  0  0  0  0  0  0  0  0  0  0  0
   10.8929   -4.2581    5.5016 H   0  0  0  0  0  0  0  0  0  0  0  0
    5.7247    1.5913    4.1267 H   0  0  0  0  0  0  0  0  0  0  0  0
    3.7413    2.3832    5.3478 H   0  0  0  0  0  0  0  0  0  0  0  0
    1.6848    3.9819    4.8706 H   0  0  0  0  0  0  0  0  0  0  0  0
    0.5522    3.4306    3.5962 H   0  0  0  0  0  0  0  0  0  0  0  0
    0.9226    2.3358    4.9968 H   0  0  0  0  0  0  0  0  0  0  0  0
    1.5277    2.4521    1.6409 H   0  0  0  0  0  0  0  0  0  0  0  0
    3.4393    1.4422    0.4718 H   0  0  0  0  0  0  0  0  0  0  0  0
    5.3421    2.2313   -0.7439 H   0  0  0  0  0  0  0  0  0  0  0  0
    6.5979    4.1326   -1.6524 H   0  0  0  0  0  0  0  0  0  0  0  0
    8.7245    5.4215   -1.7134 H   0  0  0  0  0  0  0  0  0  0  0  0
    8.4547    6.1687   -0.0697 H   0  0  0  0  0  0  0  0  0  0  0  0
    9.9485    5.2056   -0.4178 H   0  0  0  0  0  0  0  0  0  0  0  0
    9.5016    3.6723    1.4955 H   0  0  0  0  0  0  0  0  0  0  0  0
    8.2286    1.7941    2.4158 H   0  0  0  0  0  0  0  0  0  0  0  0
    9.1449    0.4209   -1.1731 H   0  0  0  0  0  0  0  0  0  0  0  0
   11.4265   -0.4171   -1.6078 H   0  0  0  0  0  0  0  0  0  0  0  0
   11.7506   -2.4233   -2.9977 H   0  0  0  0  0  0  0  0  0  0  0  0
    9.8427   -3.6267   -3.9586 H   0  0  0  0  0  0  0  0  0  0  0  0
    7.3996   -4.1289   -3.6736 H   0  0  0  0  0  0  0  0  0  0  0  0
    6.2636   -2.8355   -3.3257 H   0  0  0  0  0  0  0  0  0  0  0  0
    8.0366   -3.1175   -5.8107 H   0  0  0  0  0  0  0  0  0  0  0  0
    7.1460   -1.6089   -5.4410 H   0  0  0  0  0  0  0  0  0  0  0  0
    6.2365   -3.1484   -5.7327 H   0  0  0  0  0  0  0  0  0  0  0  0
   -8.7086    3.8103   -4.8712 H   0  0  0  0  0  0  0  0  0  0  0  0
   -8.1243    2.2643   -4.3935 H   0  0  0  0  0  0  0  0  0  0  0  0
   -5.8010    3.5045   -3.9492 H   0  0  0  0  0  0  0  0  0  0  0  0
   -6.6720    5.0339   -4.3182 H   0  0  0  0  0  0  0  0  0  0  0  0
   -7.2013    4.0681   -2.9348 H   0  0  0  0  0  0  0  0  0  0  0  0
   -8.9000    4.0768   -7.0942 H   0  0  0  0  0  0  0  0  0  0  0  0
   -8.0887    4.1500   -9.3801 H   0  0  0  0  0  0  0  0  0  0  0  0
   -6.1656    2.6307   -9.9200 H   0  0  0  0  0  0  0  0  0  0  0  0
   -4.6154    1.8344   -8.2170 H   0  0  0  0  0  0  0  0  0  0  0  0
    0.4475   -1.6946   -2.6469 H   0  0  0  0  0  0  0  0  0  0  0  0
    1.2943   -1.1104   -1.1484 H   0  0  0  0  0  0  0  0  0  0  0  0
    2.8722   -2.9832   -2.9248 H   0  0  0  0  0  0  0  0  0  0  0  0
    1.3858   -3.6643   -2.1824 H   0  0  0  0  0  0  0  0  0  0  0  0
    2.6466   -2.9818   -1.1268 H   0  0  0  0  0  0  0  0  0  0  0  0
   -2.0992    0.6140   -2.1997 H   0  0  0  0  0  0  0  0  0  0  0  0
   -0.7240   -0.2446   -1.7052 H   0  0  0  0  0  0  0  0  0  0  0  0
   -0.6337    2.1556   -0.9348 H   0  0  0  0  0  0  0  0  0  0  0  0
    0.6795    1.9039   -2.1511 H   0  0  0  0  0  0  0  0  0  0  0  0
   -0.8582    2.7152   -2.6922 H   0  0  0  0  0  0  0  0  0  0  0  0
   -6.6777   -0.8036   -6.5371 H   0  0  0  0  0  0  0  0  0  0  0  0
   -7.3852    0.1194   -8.7296 H   0  0  0  0  0  0  0  0  0  0  0  0
   -9.0633    1.0183  -10.1541 H   0  0  0  0  0  0  0  0  0  0  0  0
  -10.6157    0.1176   -9.9118 H   0  0  0  0  0  0  0  0  0  0  0  0
  -10.4569    1.8464   -9.3409 H   0  0  0  0  0  0  0  0  0  0  0  0
  -11.4078    0.4561   -7.2203 H   0  0  0  0  0  0  0  0  0  0  0  0
  -10.6532   -0.3027   -4.9838 H   0  0  0  0  0  0  0  0  0  0  0  0
   -7.8246   -3.0225   -6.2164 H   0  0  0  0  0  0  0  0  0  0  0  0
   -6.6638   -5.1622   -5.9138 H   0  0  0  0  0  0  0  0  0  0  0  0
   -5.3832   -6.6750   -4.4283 H   0  0  0  0  0  0  0  0  0  0  0  0
   -5.2667   -6.3381   -2.6603 H   0  0  0  0  0  0  0  0  0  0  0  0
   -6.7904   -7.0643   -3.3488 H   0  0  0  0  0  0  0  0  0  0  0  0
   -6.6067   -4.4991   -1.6691 H   0  0  0  0  0  0  0  0  0  0  0  0
   -7.5538   -2.3013   -1.9627 H   0  0  0  0  0  0  0  0  0  0  0  0
   -5.8257    0.1958    3.6063 H   0  0  0  0  0  0  0  0  0  0  0  0
   -4.8253   -1.9415    4.3267 H   0  0  0  0  0  0  0  0  0  0  0  0
   -4.6816   -4.4178    3.9574 H   0  0  0  0  0  0  0  0  0  0  0  0
   -3.4356   -4.2274    2.6689 H   0  0  0  0  0  0  0  0  0  0  0  0
   -4.9749   -5.0853    2.3238 H   0  0  0  0  0  0  0  0  0  0  0  0
   -5.5090   -3.6372    0.4190 H   0  0  0  0  0  0  0  0  0  0  0  0
   -6.4604   -1.4884   -0.2993 H   0  0  0  0  0  0  0  0  0  0  0  0
   -4.4803    1.6549    0.3666 H   0  0  0  0  0  0  0  0  0  0  0  0
   -3.3760    3.7004    1.1620 H   0  0  0  0  0  0  0  0  0  0  0  0
   -4.8600    6.4506    2.4268 H   0  0  0  0  0  0  0  0  0  0  0  0
   -3.2784    5.6136    2.6598 H   0  0  0  0  0  0  0  0  0  0  0  0
   -4.4624    5.6848    4.0104 H   0  0  0  0  0  0  0  0  0  0  0  0
   -6.7938    4.6086    3.6412 H   0  0  0  0  0  0  0  0  0  0  0  0
   -7.9079    2.5779    2.8205 H   0  0  0  0  0  0  0  0  0  0  0  0
   -9.5987   -0.4054    2.3566 H   0  0  0  0  0  0  0  0  0  0  0  0
  -11.3317    4.8842   -0.4473 H   0  0  0  0  0  0  0  0  0  0  0  0
  -11.5736    7.3602   -0.3944 H   0  0  0  0  0  0  0  0  0  0  0  0
  -11.5801    9.4596    0.9039 H   0  0  0  0  0  0  0  0  0  0  0  0
  -10.9467    7.2725    4.5603 H   0  0  0  0  0  0  0  0  0  0  0  0
  -10.7790    4.8597    4.5013 H   0  0  0  0  0  0  0  0  0  0  0  0
  1  2  2  3
  2  3  1  0
  3  4  2  0
  3  5  1  0
  5  6  2  0
  6  7  1  0
  7  8  2  0
  8  9  1  0
  9 10  1  0
  9 11  2  0
 11 12  1  0
  6 13  1  0
 13 14  2  3
 14 15  1  0
 15 16  3  0
 14 17  1  0
 17 18  3  0
  1 19  1  0
 19 20  2  0
 20 21  1  0
 21 22  1  0
 22 23  2  0
 23 24  1  0
 24 25  2  0
 25 26  1  0
 25 27  1  0
 27 28  2  0
 21 29  1  0
 29 30  2  0
 30 31  1  0
 31 32  2  0
 32 33  1  0
 32 34  1  0
 34 35  2  0
 20 36  1  0
 36 37  1  0
 37 38  1  0
 38 39  2  0
 39 40  1  0
 40 41  1  0
 41 42  2  0
 42 43  1  0
 43 44  2  0
 44 45  1  0
 44 46  1  0
 46 47  2  0
 40 48  1  0
 48 49  2  0
 49 50  1  0
 50 51  2  0
 51 52  1  0
 51 53  1  0
 53 54  2  0
 39 55  1  0
 55 56  1  0
 38 57  1  0
 57 58  2  0
 58 59  1  0
 59 60  2  0
 60 61  1  0
 61 62  2  0
 62 63  1  0
 63 64  2  0
 64 65  1  0
 65 66  1  0
 58 67  1  0
 67 68  1  0
 68 69  1  0
 69 70  1  0
 70 71  1  0
 71 72  1  0
 72 73  2  0
 73 74  1  0
 74 75  1  0
 72 76  1  0
 76 77  1  0
 77 78  1  0
 78 79  1  0
 79 80  1  0
 80 81  1  0
 81 82  2  0
 82 83  1  0
 83 84  1  0
 82 85  1  0
 85 86  2  0
 86 87  1  0
 87 88  2  0
 80 89  2  0
 89 90  1  0
 90 91  1  0
 91 92  1  0
 92 93  1  0
 93 94  1  0
 94 95  1  0
 95 96  1  0
 96 97  1  0
 97 98  1  0
 98 99  1  0
 96100  1  0
100101  1  0
 93102  1  0
102103  1  0
 89104  1  0
104105  2  0
105106  1  0
106107  1  0
107108  2  0
108109  1  0
109110  2  0
110111  1  0
110112  1  0
112113  2  0
106114  1  0
114115  2  0
115116  1  0
116117  2  0
117118  1  0
117119  1  0
119120  2  0
105121  1  0
121122  1  0
122123  1  0
123124  2  0
124125  1  0
125126  1  0
126127  2  0
127128  1  0
128129  2  0
129130  1  0
129131  1  0
131132  2  0
125133  1  0
133134  2  0
134135  1  0
135136  2  0
136137  1  0
136138  1  0
138139  2  0
124140  1  0
140141  1  0
123142  1  0
142143  2  3
143144  1  0
144145  2  0
144146  1  0
146147  2  0
147148  1  0
148149  2  0
149150  1  0
150151  2  0
151152  1  0
151153  1  0
153154  2  0
154155  1  0
155156  2  0
156157  1  0
157158  2  3
158159  1  0
159160  3  0
158161  1  0
161162  3  0
 13  2  1  0
 56 19  1  0
 99 57  1  0
141104  1  0
157143  1  0
 11  5  1  0
 28 22  1  0
 35 29  1  0
 55 36  2  0
 64 59  1  0
 98 67  2  0
113107  1  0
120114  1  0
140121  2  0
156146  1  0
 47 41  1  0
 54 48  1  0
 97 69  2  0
132126  1  0
139133  1  0
154148  1  0
 95 70  2  0
 75 71  2  0
 94 76  2  0
 92 77  2  0
 91 79  2  0
 88 81  1  0
  1163  1  0
  7164  1  0
  8165  1  0
 23166  1  0
 24167  1  0
 26168  1  0
 26169  1  0
 26170  1  0
 27171  1  0
 28172  1  0
 30173  1  0
 31174  1  0
 33175  1  0
 33176  1  0
 33177  1  0
 34178  1  0
 35179  1  0
 42180  1  0
 43181  1  0
 45182  1  0
 45183  1  0
 45184  1  0
 46185  1  0
 47186  1  0
 49187  1  0
 50188  1  0
 52189  1  0
 52190  1  0
 52191  1  0
 53192  1  0
 54193  1  0
 60194  1  0
 61195  1  0
 62196  1  0
 63197  1  0
 65198  1  0
 65199  1  0
 66200  1  0
 66201  1  0
 66202  1  0
 83203  1  0
 83204  1  0
 84205  1  0
 84206  1  0
 84207  1  0
 85208  1  0
 86209  1  0
 87210  1  0
 88211  1  0
100212  1  0
100213  1  0
101214  1  0
101215  1  0
101216  1  0
102217  1  0
102218  1  0
103219  1  0
103220  1  0
103221  1  0
108222  1  0
109223  1  0
111224  1  0
111225  1  0
111226  1  0
112227  1  0
113228  1  0
115229  1  0
116230  1  0
118231  1  0
118232  1  0
118233  1  0
119234  1  0
120235  1  0
127236  1  0
128237  1  0
130238  1  0
130239  1  0
130240  1  0
131241  1  0
132242  1  0
134243  1  0
135244  1  0
137245  1  0
137246  1  0
137247  1  0
138248  1  0
139249  1  0
142250  1  0
147251  1  0
149252  1  0
150253  1  0
153254  1  0
155255  1  0
M  END

