
     RDKit          3D

244268  0  0  0  0  0  0  0  0999 V2000
    7.4750   -1.6399    5.4751 C   0  0  0  0  0  0  0  0  0  0  0  0
    6.5815   -1.6969    6.4799 C   0  0  0  0  0  0  0  0  0  0  0  0
    6.7516   -2.6042    7.6114 C   0  0  0  0  0  0  0  0  0  0  0  0
    7.8567   -3.0168    8.0578 O   0  0  0  0  0  0  0  0  0  0  0  0
    5.4308   -3.0223    8.0588 C   0  0  0  0  0  0  0  0  0  0  0  0
    4.4737   -2.3504    7.3144 C   0  0  0  0  0  0  0  0  0  0  0  0
    3.1093   -2.6258    7.4970 C   0  0  0  0  0  0  0  0  0  0  0  0
    2.7405   -3.5738    8.4596 C   0  0  0  0  0  0  0  0  0  0  0  0
    3.7128   -4.2365    9.2318 C   0  0  0  0  0  0  0  0  0  0  0  0
    3.1303   -5.5209   10.5248 Br  0  0  0  0  0  0  0  0  0  0  0  0
    5.0834   -3.9745    9.0237 C   0  0  0  0  0  0  0  0  0  0  0  0
    6.3208   -4.8194    9.9443 Cl  0  0  0  0  0  0  0  0  0  0  0  0
    5.1320   -1.3874    6.4021 C   0  0  0  0  0  0  0  0  0  0  0  0
    4.6271   -0.1877    6.0290 C   0  0  0  0  0  0  0  0  0  0  0  0
    3.2165    0.0840    6.0036 C   0  0  0  0  0  0  0  0  0  0  0  0
    2.0788    0.3147    5.9791 N   0  0  0  0  0  0  0  0  0  0  0  0
    5.4948    0.9499    5.8266 C   0  0  0  0  0  0  0  0  0  0  0  0
    6.2110    1.8504    5.6812 N   0  0  0  0  0  0  0  0  0  0  0  0
    7.0530   -1.6114    4.0671 C   0  0  0  0  0  0  0  0  0  0  0  0
    6.9198   -2.7471    3.2513 C   0  0  0  0  0  0  0  0  0  0  0  0
    7.1024   -4.1025    3.6899 N   0  0  0  0  0  0  0  0  0  0  0  0
    6.0917   -4.7431    4.5028 C   0  0  0  0  0  0  0  0  0  0  0  0
    4.7264   -4.4532    4.3151 C   0  0  0  0  0  0  0  0  0  0  0  0
    3.7505   -5.1112    5.0687 C   0  0  0  0  0  0  0  0  0  0  0  0
    4.1212   -6.0497    6.0422 C   0  0  0  0  0  0  0  0  0  0  0  0
    3.0696   -6.7914    6.8131 C   0  0  0  0  0  0  0  0  0  0  0  0
    5.4813   -6.3301    6.2461 C   0  0  0  0  0  0  0  0  0  0  0  0
    6.4570   -5.6795    5.4878 C   0  0  0  0  0  0  0  0  0  0  0  0
    8.2953   -4.8032    3.2844 C   0  0  0  0  0  0  0  0  0  0  0  0
    8.2209   -6.1290    2.8211 C   0  0  0  0  0  0  0  0  0  0  0  0
    9.3828   -6.8227    2.4701 C   0  0  0  0  0  0  0  0  0  0  0  0
   10.6377   -6.2095    2.5948 C   0  0  0  0  0  0  0  0  0  0  0  0
   11.8857   -6.9565    2.2253 C   0  0  0  0  0  0  0  0  0  0  0  0
   10.7126   -4.8736    3.0141 C   0  0  0  0  0  0  0  0  0  0  0  0
    9.5509   -4.1744    3.3551 C   0  0  0  0  0  0  0  0  0  0  0  0
    6.4628   -2.4062    1.9852 C   0  0  0  0  0  0  0  0  0  0  0  0
    5.8536   -3.2798    0.7000 S   0  0  0  0  0  0  0  0  0  0  0  0
    5.3384   -1.9103   -0.1839 C   0  0  0  0  0  0  0  0  0  0  0  0
    5.5919   -0.7615    0.5923 C   0  0  0  0  0  0  0  0  0  0  0  0
    5.0550    0.5478    0.3425 N   0  0  0  0  0  0  0  0  0  0  0  0
    3.9715    1.0173    1.1826 C   0  0  0  0  0  0  0  0  0  0  0  0
    2.8831    0.1779    1.4807 C   0  0  0  0  0  0  0  0  0  0  0  0
    1.8274    0.6338    2.2750 C   0  0  0  0  0  0  0  0  0  0  0  0
    1.8423    1.9345    2.7957 C   0  0  0  0  0  0  0  0  0  0  0  0
    0.7045    2.4214    3.6461 C   0  0  0  0  0  0  0  0  0  0  0  0
    2.9578    2.7536    2.5644 C   0  0  0  0  0  0  0  0  0  0  0  0
    4.0100    2.3012    1.7611 C   0  0  0  0  0  0  0  0  0  0  0  0
    5.7937    1.4623   -0.5010 C   0  0  0  0  0  0  0  0  0  0  0  0
    7.1936    1.3528   -0.6331 C   0  0  0  0  0  0  0  0  0  0  0  0
    7.9057    2.2581   -1.4230 C   0  0  0  0  0  0  0  0  0  0  0  0
    7.2360    3.2911   -2.0923 C   0  0  0  0  0  0  0  0  0  0  0  0
    8.0122    4.2388   -2.9603 C   0  0  0  0  0  0  0  0  0  0  0  0
    5.8412    3.3937   -1.9827 C   0  0  0  0  0  0  0  0  0  0  0  0
    5.1257    2.4867   -1.1937 C   0  0  0  0  0  0  0  0  0  0  0  0
    6.2412   -1.0856    1.7817 C   0  0  0  0  0  0  0  0  0  0  0  0
    6.6240   -0.2283    3.1690 S   0  0  0  0  0  0  0  0  0  0  0  0
    4.3462   -2.0296   -1.2611 C   0  0  0  0  0  0  0  0  0  0  0  0
    4.5515   -1.8931   -2.6518 C   0  0  0  0  0  0  0  0  0  0  0  0
    5.7735   -1.3913   -3.3019 C   0  0  0  0  0  0  0  0  0  0  0  0
    5.8609   -0.0160   -3.5622 C   0  0  0  0  0  0  0  0  0  0  0  0
    6.9685    0.5091   -4.2275 C   0  0  0  0  0  0  0  0  0  0  0  0
    8.0003   -0.3285   -4.6482 C   0  0  0  0  0  0  0  0  0  0  0  0
    7.9082   -1.7055   -4.4351 C   0  0  0  0  0  0  0  0  0  0  0  0
    6.7885   -2.2579   -3.7842 C   0  0  0  0  0  0  0  0  0  0  0  0
    6.7180   -3.7633   -3.6342 C   0  0  0  0  0  0  0  0  0  0  0  0
    7.6262   -4.2464   -2.5099 C   0  0  0  0  0  0  0  0  0  0  0  0
    3.4170   -2.2994   -3.3646 C   0  0  0  0  0  0  0  0  0  0  0  0
    2.9833   -2.3033   -5.0136 S   0  0  0  0  0  0  0  0  0  0  0  0
    1.4628   -2.9805   -4.6500 C   0  0  0  0  0  0  0  0  0  0  0  0
    0.2271   -3.0829   -5.2327 C   0  0  0  0  0  0  0  0  0  0  0  0
   -0.2346   -2.6339   -6.4772 C   0  0  0  0  0  0  0  0  0  0  0  0
   -1.6438   -2.5345   -6.6925 C   0  0  0  0  0  0  0  0  0  0  0  0
   -2.0508   -2.0163   -7.8781 N   0  0  0  0  0  0  0  0  0  0  0  0
   -0.5767   -1.7177   -8.5730 S   0  0  0  0  0  0  0  0  0  0  0  0
    0.5716   -2.1914   -7.4733 N   0  0  0  0  0  0  0  0  0  0  0  0
   -2.5171   -2.9556   -5.6794 C   0  0  0  0  0  0  0  0  0  0  0  0
   -3.8820   -2.8175   -5.5291 C   0  0  0  0  0  0  0  0  0  0  0  0
   -4.9006   -1.5448   -5.9994 S   0  0  0  0  0  0  0  0  0  0  0  0
   -5.6773   -1.4714   -4.4880 C   0  0  0  0  0  0  0  0  0  0  0  0
   -6.2629   -0.3815   -3.8160 C   0  0  0  0  0  0  0  0  0  0  0  0
   -7.0685    0.6591   -4.4951 C   0  0  0  0  0  0  0  0  0  0  0  0
   -6.5224    1.7312   -5.2614 C   0  0  0  0  0  0  0  0  0  0  0  0
   -5.0353    1.9426   -5.4757 C   0  0  0  0  0  0  0  0  0  0  0  0
   -4.3292    2.4187   -4.2169 C   0  0  0  0  0  0  0  0  0  0  0  0
   -7.4055    2.6812   -5.8176 C   0  0  0  0  0  0  0  0  0  0  0  0
   -8.7866    2.5646   -5.6495 C   0  0  0  0  0  0  0  0  0  0  0  0
   -9.3148    1.5060   -4.9156 C   0  0  0  0  0  0  0  0  0  0  0  0
   -8.4619    0.5667   -4.3360 C   0  0  0  0  0  0  0  0  0  0  0  0
   -6.1866   -0.5365   -2.4053 C   0  0  0  0  0  0  0  0  0  0  0  0
   -5.3708   -1.9932   -2.0822 S   0  0  0  0  0  0  0  0  0  0  0  0
   -5.1661   -2.4476   -3.6675 C   0  0  0  0  0  0  0  0  0  0  0  0
   -4.1624   -3.2162   -4.2442 C   0  0  0  0  0  0  0  0  0  0  0  0
   -3.0690   -3.6863   -3.6063 N   0  0  0  0  0  0  0  0  0  0  0  0
   -2.0415   -3.4393   -4.4578 C   0  0  0  0  0  0  0  0  0  0  0  0
   -0.6567   -3.4015   -4.1871 C   0  0  0  0  0  0  0  0  0  0  0  0
   -0.0106   -3.3650   -2.9725 N   0  0  0  0  0  0  0  0  0  0  0  0
    1.2820   -3.1577   -3.3166 C   0  0  0  0  0  0  0  0  0  0  0  0
    2.3868   -2.7543   -2.5873 C   0  0  0  0  0  0  0  0  0  0  0  0
    2.8023   -2.6800   -0.9744 S   0  0  0  0  0  0  0  0  0  0  0  0
   -0.5732   -2.9833   -1.6652 C   0  0  0  0  0  0  0  0  0  0  0  0
   -0.3853   -4.0908   -0.6237 C   0  0  0  0  0  0  0  0  0  0  0  0
   -3.1093   -4.7092   -2.5508 C   0  0  0  0  0  0  0  0  0  0  0  0
   -4.0703   -5.8452   -2.9090 C   0  0  0  0  0  0  0  0  0  0  0  0
   -6.3236    0.5324   -1.3768 C   0  0  0  0  0  0  0  0  0  0  0  0
   -5.7930    0.4339   -0.0722 C   0  0  0  0  0  0  0  0  0  0  0  0
   -5.7163   -0.7836    0.6921 N   0  0  0  0  0  0  0  0  0  0  0  0
   -4.4490   -1.2307    1.2371 C   0  0  0  0  0  0  0  0  0  0  0  0
   -3.2308   -0.8394    0.6403 C   0  0  0  0  0  0  0  0  0  0  0  0
   -2.0073   -1.2163    1.2004 C   0  0  0  0  0  0  0  0  0  0  0  0
   -1.9713   -2.0244    2.3470 C   0  0  0  0  0  0  0  0  0  0  0  0
   -0.6635   -2.3897    2.9821 C   0  0  0  0  0  0  0  0  0  0  0  0
   -3.1741   -2.4221    2.9433 C   0  0  0  0  0  0  0  0  0  0  0  0
   -4.3985   -2.0321    2.3975 C   0  0  0  0  0  0  0  0  0  0  0  0
   -6.9683   -1.3612    1.1161 C   0  0  0  0  0  0  0  0  0  0  0  0
   -7.9555   -0.5520    1.7063 C   0  0  0  0  0  0  0  0  0  0  0  0
   -9.1639   -1.1043    2.1369 C   0  0  0  0  0  0  0  0  0  0  0  0
   -9.4172   -2.4747    1.9604 C   0  0  0  0  0  0  0  0  0  0  0  0
  -10.6974   -3.0795    2.4595 C   0  0  0  0  0  0  0  0  0  0  0  0
   -8.4340   -3.2862    1.3720 C   0  0  0  0  0  0  0  0  0  0  0  0
   -7.2183   -2.7331    0.9489 C   0  0  0  0  0  0  0  0  0  0  0  0
   -5.5114    1.6820    0.4699 C   0  0  0  0  0  0  0  0  0  0  0  0
   -4.6238    2.1883    1.7990 S   0  0  0  0  0  0  0  0  0  0  0  0
   -4.6793    3.8355    1.3622 C   0  0  0  0  0  0  0  0  0  0  0  0
   -5.4310    3.9820    0.1862 C   0  0  0  0  0  0  0  0  0  0  0  0
   -5.7814    5.2499   -0.3935 N   0  0  0  0  0  0  0  0  0  0  0  0
   -5.4554    5.5222   -1.7658 C   0  0  0  0  0  0  0  0  0  0  0  0
   -4.1268    5.4450   -2.2074 C   0  0  0  0  0  0  0  0  0  0  0  0
   -3.8120    5.7077   -3.5446 C   0  0  0  0  0  0  0  0  0  0  0  0
   -4.8276    6.0394   -4.4593 C   0  0  0  0  0  0  0  0  0  0  0  0
   -4.5129    6.2044   -5.9169 C   0  0  0  0  0  0  0  0  0  0  0  0
   -6.1572    6.1116   -4.0165 C   0  0  0  0  0  0  0  0  0  0  0  0
   -6.4683    5.8711   -2.6757 C   0  0  0  0  0  0  0  0  0  0  0  0
   -6.5141    6.2104    0.3959 C   0  0  0  0  0  0  0  0  0  0  0  0
   -6.2789    7.5882    0.2457 C   0  0  0  0  0  0  0  0  0  0  0  0
   -6.9551    8.5134    1.0466 C   0  0  0  0  0  0  0  0  0  0  0  0
   -7.8753    8.0774    2.0121 C   0  0  0  0  0  0  0  0  0  0  0  0
   -8.6148    9.0743    2.8550 C   0  0  0  0  0  0  0  0  0  0  0  0
   -8.1390    6.7067    2.1416 C   0  0  0  0  0  0  0  0  0  0  0  0
   -7.4621    5.7808    1.3450 C   0  0  0  0  0  0  0  0  0  0  0  0
   -5.8558    2.7446   -0.2965 C   0  0  0  0  0  0  0  0  0  0  0  0
   -6.5240    2.1952   -1.7318 S   0  0  0  0  0  0  0  0  0  0  0  0
   -3.7633    4.8575    1.8831 C   0  0  0  0  0  0  0  0  0  0  0  0
   -2.4355    4.7548    1.7200 C   0  0  0  0  0  0  0  0  0  0  0  0
   -1.6266    3.4020    0.8347 S   0  0  0  0  0  0  0  0  0  0  0  0
   -0.1132    4.3584    0.8746 C   0  0  0  0  0  0  0  0  0  0  0  0
    0.9190    3.9982    0.2493 O   0  0  0  0  0  0  0  0  0  0  0  0
   -0.1611    5.5712    1.6280 N   0  0  0  0  0  0  0  0  0  0  0  0
    0.9198    6.5550    1.6700 C   0  0  0  0  0  0  0  0  0  0  0  0
    0.9198    7.3940    0.3987 C   0  0  0  0  0  0  0  0  0  0  0  0
   -1.4876    5.8094    2.0837 C   0  0  0  0  0  0  0  0  0  0  0  0
   -1.8121    6.8546    2.7091 O   0  0  0  0  0  0  0  0  0  0  0  0
    8.4750   -2.0202    5.6565 H   0  0  0  0  0  0  0  0  0  0  0  0
    2.3446   -2.1609    6.8965 H   0  0  0  0  0  0  0  0  0  0  0  0
    1.6916   -3.7984    8.6074 H   0  0  0  0  0  0  0  0  0  0  0  0
    4.4128   -3.7389    3.5645 H   0  0  0  0  0  0  0  0  0  0  0  0
    2.7051   -4.8907    4.8915 H   0  0  0  0  0  0  0  0  0  0  0  0
    2.6434   -7.5959    6.1782 H   0  0  0  0  0  0  0  0  0  0  0  0
    2.2536   -6.0997    7.1128 H   0  0  0  0  0  0  0  0  0  0  0  0
    3.4939   -7.2464    7.7323 H   0  0  0  0  0  0  0  0  0  0  0  0
    5.7866   -7.0571    6.9876 H   0  0  0  0  0  0  0  0  0  0  0  0
    7.5001   -5.9115    5.6659 H   0  0  0  0  0  0  0  0  0  0  0  0
    7.2616   -6.6201    2.7247 H   0  0  0  0  0  0  0  0  0  0  0  0
    9.3042   -7.8356    2.1023 H   0  0  0  0  0  0  0  0  0  0  0  0
   12.7563   -6.5835    2.8048 H   0  0  0  0  0  0  0  0  0  0  0  0
   12.0901   -6.8250    1.1439 H   0  0  0  0  0  0  0  0  0  0  0  0
   11.7723   -8.0393    2.4443 H   0  0  0  0  0  0  0  0  0  0  0  0
   11.6724   -4.3814    3.0896 H   0  0  0  0  0  0  0  0  0  0  0  0
    9.6347   -3.1481    3.6924 H   0  0  0  0  0  0  0  0  0  0  0  0
    2.8458   -0.8285    1.0993 H   0  0  0  0  0  0  0  0  0  0  0  0
    0.9911   -0.0248    2.4753 H   0  0  0  0  0  0  0  0  0  0  0  0
    0.5612    3.5140    3.5190 H   0  0  0  0  0  0  0  0  0  0  0  0
    0.9132    2.2199    4.7149 H   0  0  0  0  0  0  0  0  0  0  0  0
   -0.2420    1.9122    3.3597 H   0  0  0  0  0  0  0  0  0  0  0  0
    3.0081    3.7472    2.9961 H   0  0  0  0  0  0  0  0  0  0  0  0
    4.8611    2.9506    1.6004 H   0  0  0  0  0  0  0  0  0  0  0  0
    7.7410    0.5762   -0.1178 H   0  0  0  0  0  0  0  0  0  0  0  0
    8.9813    2.1550   -1.5110 H   0  0  0  0  0  0  0  0  0  0  0  0
    7.3931    5.1018   -3.2787 H   0  0  0  0  0  0  0  0  0  0  0  0
    8.3754    3.7084   -3.8663 H   0  0  0  0  0  0  0  0  0  0  0  0
    8.8888    4.6280   -2.4006 H   0  0  0  0  0  0  0  0  0  0  0  0
    5.3047    4.1733   -2.5103 H   0  0  0  0  0  0  0  0  0  0  0  0
    4.0484    2.5799   -1.1320 H   0  0  0  0  0  0  0  0  0  0  0  0
    5.0601    0.6478   -3.2606 H   0  0  0  0  0  0  0  0  0  0  0  0
    7.0239    1.5711   -4.4246 H   0  0  0  0  0  0  0  0  0  0  0  0
    8.8540    0.0839   -5.1664 H   0  0  0  0  0  0  0  0  0  0  0  0
    8.7051   -2.3458   -4.7919 H   0  0  0  0  0  0  0  0  0  0  0  0
    5.6814   -4.1123   -3.4426 H   0  0  0  0  0  0  0  0  0  0  0  0
    7.0406   -4.2400   -4.5850 H   0  0  0  0  0  0  0  0  0  0  0  0
    8.6771   -3.9360   -2.6833 H   0  0  0  0  0  0  0  0  0  0  0  0
    7.2910   -3.8212   -1.5479 H   0  0  0  0  0  0  0  0  0  0  0  0
    7.5811   -5.3546   -2.4415 H   0  0  0  0  0  0  0  0  0  0  0  0
   -4.8667    2.7019   -6.2716 H   0  0  0  0  0  0  0  0  0  0  0  0
   -4.5467    1.0289   -5.8383 H   0  0  0  0  0  0  0  0  0  0  0  0
   -3.3162    2.7929   -4.4714 H   0  0  0  0  0  0  0  0  0  0  0  0
   -4.2238    1.5842   -3.4918 H   0  0  0  0  0  0  0  0  0  0  0  0
   -4.9060    3.2416   -3.7600 H   0  0  0  0  0  0  0  0  0  0  0  0
   -7.0275    3.5194   -6.3906 H   0  0  0  0  0  0  0  0  0  0  0  0
   -9.4473    3.2943   -6.0959 H   0  0  0  0  0  0  0  0  0  0  0  0
  -10.3848    1.4133   -4.7929 H   0  0  0  0  0  0  0  0  0  0  0  0
   -8.8918   -0.2423   -3.7536 H   0  0  0  0  0  0  0  0  0  0  0  0
   -1.6388   -2.7063   -1.7506 H   0  0  0  0  0  0  0  0  0  0  0  0
   -0.0841   -2.0543   -1.3017 H   0  0  0  0  0  0  0  0  0  0  0  0
    0.4642   -3.8584    0.0458 H   0  0  0  0  0  0  0  0  0  0  0  0
   -0.1983   -5.0734   -1.1061 H   0  0  0  0  0  0  0  0  0  0  0  0
   -1.2929   -4.1696    0.0148 H   0  0  0  0  0  0  0  0  0  0  0  0
   -3.4261   -4.2527   -1.5898 H   0  0  0  0  0  0  0  0  0  0  0  0
   -2.1092   -5.1630   -2.4290 H   0  0  0  0  0  0  0  0  0  0  0  0
   -3.8156   -6.2664   -3.9054 H   0  0  0  0  0  0  0  0  0  0  0  0
   -5.1162   -5.4736   -2.9263 H   0  0  0  0  0  0  0  0  0  0  0  0
   -3.9945   -6.6494   -2.1480 H   0  0  0  0  0  0  0  0  0  0  0  0
   -3.2263   -0.2269   -0.2521 H   0  0  0  0  0  0  0  0  0  0  0  0
   -1.0855   -0.8734    0.7445 H   0  0  0  0  0  0  0  0  0  0  0  0
   -0.7179   -3.4028    3.4353 H   0  0  0  0  0  0  0  0  0  0  0  0
   -0.4188   -1.6503    3.7768 H   0  0  0  0  0  0  0  0  0  0  0  0
    0.1537   -2.3926    2.2281 H   0  0  0  0  0  0  0  0  0  0  0  0
   -3.1640   -3.0210    3.8457 H   0  0  0  0  0  0  0  0  0  0  0  0
   -5.3033   -2.3432    2.9064 H   0  0  0  0  0  0  0  0  0  0  0  0
   -7.7800    0.5065    1.8541 H   0  0  0  0  0  0  0  0  0  0  0  0
   -9.9019   -0.4625    2.6023 H   0  0  0  0  0  0  0  0  0  0  0  0
  -11.0969   -3.7983    1.7128 H   0  0  0  0  0  0  0  0  0  0  0  0
  -10.5053   -3.6152    3.4130 H   0  0  0  0  0  0  0  0  0  0  0  0
  -11.4677   -2.2990    2.6355 H   0  0  0  0  0  0  0  0  0  0  0  0
   -8.6075   -4.3489    1.2441 H   0  0  0  0  0  0  0  0  0  0  0  0
   -6.4714   -3.3722    0.4961 H   0  0  0  0  0  0  0  0  0  0  0  0
   -3.3401    5.1748   -1.5129 H   0  0  0  0  0  0  0  0  0  0  0  0
   -2.7832    5.6224   -3.8710 H   0  0  0  0  0  0  0  0  0  0  0  0
   -4.7291    5.2542   -6.4505 H   0  0  0  0  0  0  0  0  0  0  0  0
   -3.4448    6.4679   -6.0695 H   0  0  0  0  0  0  0  0  0  0  0  0
   -5.1356    7.0132   -6.3574 H   0  0  0  0  0  0  0  0  0  0  0  0
   -6.9555    6.3459   -4.7133 H   0  0  0  0  0  0  0  0  0  0  0  0
   -7.4988    5.9309   -2.3478 H   0  0  0  0  0  0  0  0  0  0  0  0
   -5.5495    7.9451   -0.4709 H   0  0  0  0  0  0  0  0  0  0  0  0
   -6.7536    9.5705    0.9225 H   0  0  0  0  0  0  0  0  0  0  0  0
   -9.5140    9.4297    2.3077 H   0  0  0  0  0  0  0  0  0  0  0  0
   -7.9651    9.9424    3.0921 H   0  0  0  0  0  0  0  0  0  0  0  0
   -8.9364    8.6169    3.8172 H   0  0  0  0  0  0  0  0  0  0  0  0
   -8.8658    6.3522    2.8646 H   0  0  0  0  0  0  0  0  0  0  0  0
   -7.6809    4.7276    1.4694 H   0  0  0  0  0  0  0  0  0  0  0  0
   -4.1876    5.7594    2.3016 H   0  0  0  0  0  0  0  0  0  0  0  0
    1.8985    6.0365    1.7705 H   0  0  0  0  0  0  0  0  0  0  0  0
    0.7944    7.2180    2.5523 H   0  0  0  0  0  0  0  0  0  0  0  0
    1.1054    6.7501   -0.4886 H   0  0  0  0  0  0  0  0  0  0  0  0
    1.7174    8.1657    0.4602 H   0  0  0  0  0  0  0  0  0  0  0  0
   -0.0628    7.9000    0.2774 H   0  0  0  0  0  0  0  0  0  0  0  0
  1  2  2  3
  2  3  1  0
  3  4  2  0
  3  5  1  0
  5  6  2  0
  6  7  1  0
  7  8  2  0
  8  9  1  0
  9 10  1  0
  9 11  2  0
 11 12  1  0
  6 13  1  0
 13 14  2  3
 14 15  1  0
 15 16  3  0
 14 17  1  0
 17 18  3  0
  1 19  1  0
 19 20  2  0
 20 21  1  0
 21 22  1  0
 22 23  2  0
 23 24  1  0
 24 25  2  0
 25 26  1  0
 25 27  1  0
 27 28  2  0
 21 29  1  0
 29 30  2  0
 30 31  1  0
 31 32  2  0
 32 33  1  0
 32 34  1  0
 34 35  2  0
 20 36  1  0
 36 37  1  0
 37 38  1  0
 38 39  2  0
 39 40  1  0
 40 41  1  0
 41 42  2  0
 42 43  1  0
 43 44  2  0
 44 45  1  0
 44 46  1  0
 46 47  2  0
 40 48  1  0
 48 49  2  0
 49 50  1  0
 50 51  2  0
 51 52  1  0
 51 53  1  0
 53 54  2  0
 39 55  1  0
 55 56  1  0
 38 57  1  0
 57 58  2  0
 58 59  1  0
 59 60  2  0
 60 61  1  0
 61 62  2  0
 62 63  1  0
 63 64  2  0
 64 65  1  0
 65 66  1  0
 58 67  1  0
 67 68  1  0
 68 69  1  0
 69 70  1  0
 70 71  1  0
 71 72  1  0
 72 73  2  0
 73 74  1  0
 74 75  1  0
 72 76  1  0
 76 77  1  0
 77 78  1  0
 78 79  1  0
 79 80  1  0
 80 81  1  0
 81 82  2  0
 82 83  1  0
 83 84  1  0
 82 85  1  0
 85 86  2  0
 86 87  1  0
 87 88  2  0
 80 89  2  0
 89 90  1  0
 90 91  1  0
 91 92  1  0
 92 93  1  0
 93 94  1  0
 94 95  1  0
 95 96  1  0
 96 97  1  0
 97 98  1  0
 98 99  1  0
 96100  1  0
100101  1  0
 93102  1  0
102103  1  0
 89104  1  0
104105  2  0
105106  1  0
106107  1  0
107108  2  0
108109  1  0
109110  2  0
110111  1  0
110112  1  0
112113  2  0
106114  1  0
114115  2  0
115116  1  0
116117  2  0
117118  1  0
117119  1  0
119120  2  0
105121  1  0
121122  1  0
122123  1  0
123124  2  0
124125  1  0
125126  1  0
126127  2  0
127128  1  0
128129  2  0
129130  1  0
129131  1  0
131132  2  0
125133  1  0
133134  2  0
134135  1  0
135136  2  0
136137  1  0
136138  1  0
138139  2  0
124140  1  0
140141  1  0
123142  1  0
142143  2  3
143144  1  0
144145  1  0
145146  2  0
145147  1  0
147148  1  0
148149  1  0
147150  1  0
150151  2  0
 13  2  1  0
 56 19  1  0
 99 57  1  0
141104  1  0
150143  1  0
 11  5  1  0
 28 22  1  0
 35 29  1  0
 55 36  2  0
 64 59  1  0
 98 67  2  0
113107  1  0
120114  1  0
140121  2  0
 47 41  1  0
 54 48  1  0
 97 69  2  0
132126  1  0
139133  1  0
 95 70  2  0
 75 71  2  0
 94 76  2  0
 92 77  2  0
 91 79  2  0
 88 81  1  0
  1152  1  0
  7153  1  0
  8154  1  0
 23155  1  0
 24156  1  0
 26157  1  0
 26158  1  0
 26159  1  0
 27160  1  0
 28161  1  0
 30162  1  0
 31163  1  0
 33164  1  0
 33165  1  0
 33166  1  0
 34167  1  0
 35168  1  0
 42169  1  0
 43170  1  0
 45171  1  0
 45172  1  0
 45173  1  0
 46174  1  0
 47175  1  0
 49176  1  0
 50177  1  0
 52178  1  0
 52179  1  0
 52180  1  0
 53181  1  0
 54182  1  0
 60183  1  0
 61184  1  0
 62185  1  0
 63186  1  0
 65187  1  0
 65188  1  0
 66189  1  0
 66190  1  0
 66191  1  0
 83192  1  0
 83193  1  0
 84194  1  0
 84195  1  0
 84196  1  0
 85197  1  0
 86198  1  0
 87199  1  0
 88200  1  0
100201  1  0
100202  1  0
101203  1  0
101204  1  0
101205  1  0
102206  1  0
102207  1  0
103208  1  0
103209  1  0
103210  1  0
108211  1  0
109212  1  0
111213  1  0
111214  1  0
111215  1  0
112216  1  0
113217  1  0
115218  1  0
116219  1  0
118220  1  0
118221  1  0
118222  1  0
119223  1  0
120224  1  0
127225  1  0
128226  1  0
130227  1  0
130228  1  0
130229  1  0
131230  1  0
132231  1  0
134232  1  0
135233  1  0
137234  1  0
137235  1  0
137236  1  0
138237  1  0
139238  1  0
142239  1  0
148240  1  0
148241  1  0
149242  1  0
149243  1  0
149244  1  0
M  END

