
     RDKit          3D

193213  0  0  0  0  0  0  0  0999 V2000
    5.6625    5.4496    0.3214 C   0  0  0  0  0  0  0  0  0  0  0  0
    5.9361    5.9403   -0.9091 C   0  0  0  0  0  0  0  0  0  0  0  0
    5.9420    5.1527   -2.1527 C   0  0  0  0  0  0  0  0  0  0  0  0
    5.7693    3.9068   -2.2466 O   0  0  0  0  0  0  0  0  0  0  0  0
    6.0845    6.0512   -3.2847 C   0  0  0  0  0  0  0  0  0  0  0  0
    6.1759    7.3513   -2.8194 C   0  0  0  0  0  0  0  0  0  0  0  0
    6.1775    8.4152   -3.7397 C   0  0  0  0  0  0  0  0  0  0  0  0
    6.1474    8.1355   -5.1119 C   0  0  0  0  0  0  0  0  0  0  0  0
    6.0730    6.8137   -5.5755 C   0  0  0  0  0  0  0  0  0  0  0  0
    5.9985    6.5027   -7.4646 Br  0  0  0  0  0  0  0  0  0  0  0  0
    6.0246    5.7479   -4.6550 C   0  0  0  0  0  0  0  0  0  0  0  0
    5.8389    4.0837   -5.2088 Cl  0  0  0  0  0  0  0  0  0  0  0  0
    6.1418    7.3702   -1.3216 C   0  0  0  0  0  0  0  0  0  0  0  0
    6.3381    8.4535   -0.5230 C   0  0  0  0  0  0  0  0  0  0  0  0
    6.8137    9.7083   -1.0326 C   0  0  0  0  0  0  0  0  0  0  0  0
    7.2060   10.7217   -1.4291 N   0  0  0  0  0  0  0  0  0  0  0  0
    6.2229    8.4214    0.9097 C   0  0  0  0  0  0  0  0  0  0  0  0
    6.1239    8.4222    2.0641 N   0  0  0  0  0  0  0  0  0  0  0  0
    5.4434    4.0211    0.5850 C   0  0  0  0  0  0  0  0  0  0  0  0
    4.2072    3.4302    0.8989 C   0  0  0  0  0  0  0  0  0  0  0  0
    2.9904    4.1433    1.1909 N   0  0  0  0  0  0  0  0  0  0  0  0
    2.5274    5.1815    0.3010 C   0  0  0  0  0  0  0  0  0  0  0  0
    2.6599    5.0370   -1.0914 C   0  0  0  0  0  0  0  0  0  0  0  0
    2.2836    6.0714   -1.9500 C   0  0  0  0  0  0  0  0  0  0  0  0
    1.7417    7.2549   -1.4362 C   0  0  0  0  0  0  0  0  0  0  0  0
    1.3848    8.3814   -2.3575 C   0  0  0  0  0  0  0  0  0  0  0  0
    1.5858    7.3985   -0.0496 C   0  0  0  0  0  0  0  0  0  0  0  0
    1.9769    6.3685    0.8132 C   0  0  0  0  0  0  0  0  0  0  0  0
    2.2538    3.7865    2.3812 C   0  0  0  0  0  0  0  0  0  0  0  0
    0.8539    3.6917    2.3537 C   0  0  0  0  0  0  0  0  0  0  0  0
    0.1510    3.2843    3.4958 C   0  0  0  0  0  0  0  0  0  0  0  0
    0.8389    2.9755    4.6803 C   0  0  0  0  0  0  0  0  0  0  0  0
    0.0934    2.4802    5.8843 C   0  0  0  0  0  0  0  0  0  0  0  0
    2.2361    3.0635    4.7062 C   0  0  0  0  0  0  0  0  0  0  0  0
    2.9367    3.4689    3.5710 C   0  0  0  0  0  0  0  0  0  0  0  0
    4.3078    2.0442    0.9075 C   0  0  0  0  0  0  0  0  0  0  0  0
    3.1741    0.8104    0.8594 S   0  0  0  0  0  0  0  0  0  0  0  0
    4.3233   -0.4073    0.5645 C   0  0  0  0  0  0  0  0  0  0  0  0
    5.6024    0.1652    0.4978 C   0  0  0  0  0  0  0  0  0  0  0  0
    6.8161   -0.5728    0.2951 N   0  0  0  0  0  0  0  0  0  0  0  0
    7.8099   -0.6383    1.3494 C   0  0  0  0  0  0  0  0  0  0  0  0
    7.4554   -0.3908    2.6917 C   0  0  0  0  0  0  0  0  0  0  0  0
    8.4100   -0.4559    3.7113 C   0  0  0  0  0  0  0  0  0  0  0  0
    9.7398   -0.7905    3.4132 C   0  0  0  0  0  0  0  0  0  0  0  0
   10.7734   -0.8117    4.4984 C   0  0  0  0  0  0  0  0  0  0  0  0
   10.1094   -1.0196    2.0798 C   0  0  0  0  0  0  0  0  0  0  0  0
    9.1558   -0.9518    1.0579 C   0  0  0  0  0  0  0  0  0  0  0  0
    7.0408   -1.1905   -0.9831 C   0  0  0  0  0  0  0  0  0  0  0  0
    7.2519   -0.3953   -2.1228 C   0  0  0  0  0  0  0  0  0  0  0  0
    7.5396   -0.9944   -3.3525 C   0  0  0  0  0  0  0  0  0  0  0  0
    7.6255   -2.3941   -3.4559 C   0  0  0  0  0  0  0  0  0  0  0  0
    7.9342   -3.0395   -4.7749 C   0  0  0  0  0  0  0  0  0  0  0  0
    7.3739   -3.1837   -2.3231 C   0  0  0  0  0  0  0  0  0  0  0  0
    7.1021   -2.5849   -1.0950 C   0  0  0  0  0  0  0  0  0  0  0  0
    5.5505    1.5470    0.6799 C   0  0  0  0  0  0  0  0  0  0  0  0
    6.6338    2.8082    0.4219 S   0  0  0  0  0  0  0  0  0  0  0  0
    3.9642   -1.7438    0.0958 C   0  0  0  0  0  0  0  0  0  0  0  0
    4.1438   -2.9547    0.7809 C   0  0  0  0  0  0  0  0  0  0  0  0
    4.4627   -3.0247    2.2151 C   0  0  0  0  0  0  0  0  0  0  0  0
    5.7604   -3.2932    2.6706 C   0  0  0  0  0  0  0  0  0  0  0  0
    6.0092   -3.4041    4.0401 C   0  0  0  0  0  0  0  0  0  0  0  0
    4.9623   -3.2777    4.9581 C   0  0  0  0  0  0  0  0  0  0  0  0
    3.6563   -3.0347    4.5125 C   0  0  0  0  0  0  0  0  0  0  0  0
    2.5115   -2.9272    5.4834 C   0  0  0  0  0  0  0  0  0  0  0  0
    2.1072   -1.4693    5.6942 C   0  0  0  0  0  0  0  0  0  0  0  0
    3.4162   -2.8978    3.1403 C   0  0  0  0  0  0  0  0  0  0  0  0
    3.4696   -3.9902    0.1258 C   0  0  0  0  0  0  0  0  0  0  0  0
    2.9881   -5.5160    0.6771 S   0  0  0  0  0  0  0  0  0  0  0  0
    1.8492   -5.6847   -0.5707 C   0  0  0  0  0  0  0  0  0  0  0  0
    0.6165   -6.2652   -0.5735 C   0  0  0  0  0  0  0  0  0  0  0  0
    0.0453   -7.0875    0.4105 C   0  0  0  0  0  0  0  0  0  0  0  0
   -1.3715   -7.2030    0.4808 C   0  0  0  0  0  0  0  0  0  0  0  0
   -1.8866   -7.9336    1.5023 N   0  0  0  0  0  0  0  0  0  0  0  0
   -0.4845   -8.3811    2.2559 S   0  0  0  0  0  0  0  0  0  0  0  0
    0.7541   -7.7126    1.3858 N   0  0  0  0  0  0  0  0  0  0  0  0
   -2.1414   -6.5554   -0.4867 C   0  0  0  0  0  0  0  0  0  0  0  0
   -3.4937   -6.4177   -0.6190 C   0  0  0  0  0  0  0  0  0  0  0  0
   -4.7923   -6.3842    0.4672 S   0  0  0  0  0  0  0  0  0  0  0  0
   -5.6869   -5.3781   -0.5779 C   0  0  0  0  0  0  0  0  0  0  0  0
   -6.8045   -4.5724   -0.3440 C   0  0  0  0  0  0  0  0  0  0  0  0
   -7.4560   -4.5080    0.9814 C   0  0  0  0  0  0  0  0  0  0  0  0
   -7.5033   -3.2914    1.6795 C   0  0  0  0  0  0  0  0  0  0  0  0
   -8.0332   -3.2388    2.9678 C   0  0  0  0  0  0  0  0  0  0  0  0
   -8.5046   -4.4015    3.5797 C   0  0  0  0  0  0  0  0  0  0  0  0
   -8.4650   -5.6272    2.8989 C   0  0  0  0  0  0  0  0  0  0  0  0
   -8.9122   -6.8875    3.5895 C   0  0  0  0  0  0  0  0  0  0  0  0
   -7.7624   -7.5117    4.3743 C   0  0  0  0  0  0  0  0  0  0  0  0
   -7.9320   -5.6751    1.5988 C   0  0  0  0  0  0  0  0  0  0  0  0
   -6.9779   -3.6358   -1.3924 C   0  0  0  0  0  0  0  0  0  0  0  0
   -5.6841   -3.7711   -2.4976 S   0  0  0  0  0  0  0  0  0  0  0  0
   -4.9703   -5.0607   -1.7020 C   0  0  0  0  0  0  0  0  0  0  0  0
   -3.7077   -5.6334   -1.7102 C   0  0  0  0  0  0  0  0  0  0  0  0
   -2.5525   -5.2441   -2.3009 N   0  0  0  0  0  0  0  0  0  0  0  0
   -1.5737   -5.7651   -1.4966 C   0  0  0  0  0  0  0  0  0  0  0  0
   -0.1695   -5.5101   -1.4618 C   0  0  0  0  0  0  0  0  0  0  0  0
    0.5198   -4.3966   -1.8858 N   0  0  0  0  0  0  0  0  0  0  0  0
    1.7682   -4.5624   -1.3513 C   0  0  0  0  0  0  0  0  0  0  0  0
    2.7241   -3.6112   -0.9652 C   0  0  0  0  0  0  0  0  0  0  0  0
    2.9133   -1.9680   -1.2160 S   0  0  0  0  0  0  0  0  0  0  0  0
   -0.0602   -3.0724   -2.1608 C   0  0  0  0  0  0  0  0  0  0  0  0
    0.4474   -2.4974   -3.4877 C   0  0  0  0  0  0  0  0  0  0  0  0
   -2.4286   -4.7154   -3.6640 C   0  0  0  0  0  0  0  0  0  0  0  0
   -3.1432   -5.6001   -4.6776 C   0  0  0  0  0  0  0  0  0  0  0  0
   -8.0582   -2.6344   -1.5213 C   0  0  0  0  0  0  0  0  0  0  0  0
   -9.2933   -2.6692   -0.8836 C   0  0  0  0  0  0  0  0  0  0  0  0
  -10.1383   -1.5938   -1.2101 C   0  0  0  0  0  0  0  0  0  0  0  0
  -11.4862   -1.4526   -0.6264 C   0  0  0  0  0  0  0  0  0  0  0  0
  -12.1499   -0.3889   -0.7929 O   0  0  0  0  0  0  0  0  0  0  0  0
  -12.0205   -2.4969    0.1398 O   0  0  0  0  0  0  0  0  0  0  0  0
  -13.3390   -2.4615    0.6694 C   0  0  0  0  0  0  0  0  0  0  0  0
   -9.5642   -0.7053   -2.1289 C   0  0  0  0  0  0  0  0  0  0  0  0
   -8.0442   -1.3047   -2.5490 S   0  0  0  0  0  0  0  0  0  0  0  0
  -10.2922    0.3414   -2.8660 C   0  0  0  0  0  0  0  0  0  0  0  0
   -9.8360    1.5830   -3.1103 C   0  0  0  0  0  0  0  0  0  0  0  0
   -8.4949    2.1047   -2.7604 C   0  0  0  0  0  0  0  0  0  0  0  0
   -7.6748    1.6157   -1.9391 O   0  0  0  0  0  0  0  0  0  0  0  0
   -8.3066    3.3380   -3.4897 C   0  0  0  0  0  0  0  0  0  0  0  0
   -7.2547    4.2290   -3.5905 C   0  0  0  0  0  0  0  0  0  0  0  0
   -7.8022    5.4307   -4.6475 S   0  0  0  0  0  0  0  0  0  0  0  0
   -9.3470    4.8074   -4.9577 C   0  0  0  0  0  0  0  0  0  0  0  0
   -9.4355    3.6350   -4.2149 C   0  0  0  0  0  0  0  0  0  0  0  0
  -10.4922    2.6266   -3.9711 C   0  0  0  0  0  0  0  0  0  0  0  0
  -11.8004    2.7383   -4.3213 C   0  0  0  0  0  0  0  0  0  0  0  0
  -12.2688    3.7954   -5.1798 C   0  0  0  0  0  0  0  0  0  0  0  0
  -12.6613    4.6355   -5.8742 N   0  0  0  0  0  0  0  0  0  0  0  0
  -12.8218    1.8761   -3.7901 C   0  0  0  0  0  0  0  0  0  0  0  0
  -13.6522    1.1909   -3.3578 N   0  0  0  0  0  0  0  0  0  0  0  0
    5.4648    6.1018    1.1501 H   0  0  0  0  0  0  0  0  0  0  0  0
    6.1413    9.4487   -3.4386 H   0  0  0  0  0  0  0  0  0  0  0  0
    6.1482    8.9529   -5.8243 H   0  0  0  0  0  0  0  0  0  0  0  0
    3.0756    4.1296   -1.5096 H   0  0  0  0  0  0  0  0  0  0  0  0
    2.4198    5.9500   -3.0167 H   0  0  0  0  0  0  0  0  0  0  0  0
    0.9576    7.9855   -3.3055 H   0  0  0  0  0  0  0  0  0  0  0  0
    0.6292    9.0499   -1.8934 H   0  0  0  0  0  0  0  0  0  0  0  0
    2.2990    8.9702   -2.5868 H   0  0  0  0  0  0  0  0  0  0  0  0
    1.1784    8.3097    0.3653 H   0  0  0  0  0  0  0  0  0  0  0  0
    1.8696    6.5064    1.8800 H   0  0  0  0  0  0  0  0  0  0  0  0
    0.3043    3.9122    1.4457 H   0  0  0  0  0  0  0  0  0  0  0  0
   -0.9271    3.2032    3.4491 H   0  0  0  0  0  0  0  0  0  0  0  0
    0.0681    1.3691    5.8728 H   0  0  0  0  0  0  0  0  0  0  0  0
    0.5952    2.8162    6.8184 H   0  0  0  0  0  0  0  0  0  0  0  0
   -0.9487    2.8679    5.8953 H   0  0  0  0  0  0  0  0  0  0  0  0
    2.7837    2.8123    5.6083 H   0  0  0  0  0  0  0  0  0  0  0  0
    4.0162    3.5315    3.6181 H   0  0  0  0  0  0  0  0  0  0  0  0
    6.4336   -0.1551    2.9651 H   0  0  0  0  0  0  0  0  0  0  0  0
    8.1121   -0.2558    4.7331 H   0  0  0  0  0  0  0  0  0  0  0  0
   11.5947   -1.5168    4.2442 H   0  0  0  0  0  0  0  0  0  0  0  0
   11.1975    0.2057    4.6305 H   0  0  0  0  0  0  0  0  0  0  0  0
   10.3210   -1.1429    5.4580 H   0  0  0  0  0  0  0  0  0  0  0  0
   11.1378   -1.2434    1.8258 H   0  0  0  0  0  0  0  0  0  0  0  0
    9.4791   -1.1183    0.0418 H   0  0  0  0  0  0  0  0  0  0  0  0
    7.2177    0.6828   -2.0495 H   0  0  0  0  0  0  0  0  0  0  0  0
    7.7227   -0.3698   -4.2172 H   0  0  0  0  0  0  0  0  0  0  0  0
    8.6471   -2.4177   -5.3562 H   0  0  0  0  0  0  0  0  0  0  0  0
    6.9953   -3.1641   -5.3561 H   0  0  0  0  0  0  0  0  0  0  0  0
    8.4012   -4.0368   -4.6239 H   0  0  0  0  0  0  0  0  0  0  0  0
    7.4037   -4.2641   -2.3903 H   0  0  0  0  0  0  0  0  0  0  0  0
    6.9445   -3.2087   -0.2297 H   0  0  0  0  0  0  0  0  0  0  0  0
    6.5782   -3.4216    1.9746 H   0  0  0  0  0  0  0  0  0  0  0  0
    7.0169   -3.5916    4.3905 H   0  0  0  0  0  0  0  0  0  0  0  0
    5.1742   -3.3758    6.0154 H   0  0  0  0  0  0  0  0  0  0  0  0
    1.6420   -3.4937    5.0907 H   0  0  0  0  0  0  0  0  0  0  0  0
    2.7807   -3.3739    6.4631 H   0  0  0  0  0  0  0  0  0  0  0  0
    1.2043   -1.4234    6.3401 H   0  0  0  0  0  0  0  0  0  0  0  0
    1.8703   -0.9831    4.7224 H   0  0  0  0  0  0  0  0  0  0  0  0
    2.9282   -0.9116    6.1933 H   0  0  0  0  0  0  0  0  0  0  0  0
    2.4085   -2.7080    2.7867 H   0  0  0  0  0  0  0  0  0  0  0  0
   -7.1099   -2.3846    1.2339 H   0  0  0  0  0  0  0  0  0  0  0  0
   -8.0586   -2.2948    3.5048 H   0  0  0  0  0  0  0  0  0  0  0  0
   -8.8901   -4.3488    4.5927 H   0  0  0  0  0  0  0  0  0  0  0  0
   -9.2931   -7.6208    2.8456 H   0  0  0  0  0  0  0  0  0  0  0  0
   -9.7474   -6.6579    4.2845 H   0  0  0  0  0  0  0  0  0  0  0  0
   -8.1396   -8.3789    4.9544 H   0  0  0  0  0  0  0  0  0  0  0  0
   -7.3339   -6.7756    5.0887 H   0  0  0  0  0  0  0  0  0  0  0  0
   -6.9635   -7.8567    3.6828 H   0  0  0  0  0  0  0  0  0  0  0  0
   -7.8691   -6.6238    1.0784 H   0  0  0  0  0  0  0  0  0  0  0  0
   -1.1652   -3.0916   -2.1582 H   0  0  0  0  0  0  0  0  0  0  0  0
    0.1904   -2.3780   -1.3330 H   0  0  0  0  0  0  0  0  0  0  0  0
   -0.0163   -3.0151   -4.3500 H   0  0  0  0  0  0  0  0  0  0  0  0
    0.1838   -1.4230   -3.5366 H   0  0  0  0  0  0  0  0  0  0  0  0
    1.5486   -2.5999   -3.5707 H   0  0  0  0  0  0  0  0  0  0  0  0
   -1.3634   -4.7013   -3.9579 H   0  0  0  0  0  0  0  0  0  0  0  0
   -2.8461   -3.6859   -3.7091 H   0  0  0  0  0  0  0  0  0  0  0  0
   -4.2264   -5.6953   -4.4396 H   0  0  0  0  0  0  0  0  0  0  0  0
   -2.6878   -6.6118   -4.6915 H   0  0  0  0  0  0  0  0  0  0  0  0
   -3.0466   -5.1592   -5.6917 H   0  0  0  0  0  0  0  0  0  0  0  0
   -9.5979   -3.4647   -0.2137 H   0  0  0  0  0  0  0  0  0  0  0  0
  -13.4657   -1.5765    1.3258 H   0  0  0  0  0  0  0  0  0  0  0  0
  -14.0757   -2.4222   -0.1606 H   0  0  0  0  0  0  0  0  0  0  0  0
  -13.5170   -3.3782    1.2658 H   0  0  0  0  0  0  0  0  0  0  0  0
  -11.2468    0.0359   -3.2506 H   0  0  0  0  0  0  0  0  0  0  0  0
   -6.2918    4.1686   -3.0996 H   0  0  0  0  0  0  0  0  0  0  0  0
  -10.0858    5.2402   -5.6119 H   0  0  0  0  0  0  0  0  0  0  0  0
  1  2  2  3
  2  3  1  0
  3  4  2  0
  3  5  1  0
  5  6  2  0
  6  7  1  0
  7  8  2  0
  8  9  1  0
  9 10  1  0
  9 11  2  0
 11 12  1  0
  6 13  1  0
 13 14  2  3
 14 15  1  0
 15 16  3  0
 14 17  1  0
 17 18  3  0
  1 19  1  0
 19 20  2  0
 20 21  1  0
 21 22  1  0
 22 23  2  0
 23 24  1  0
 24 25  2  0
 25 26  1  0
 25 27  1  0
 27 28  2  0
 21 29  1  0
 29 30  2  0
 30 31  1  0
 31 32  2  0
 32 33  1  0
 32 34  1  0
 34 35  2  0
 20 36  1  0
 36 37  1  0
 37 38  1  0
 38 39  2  0
 39 40  1  0
 40 41  1  0
 41 42  2  0
 42 43  1  0
 43 44  2  0
 44 45  1  0
 44 46  1  0
 46 47  2  0
 40 48  1  0
 48 49  2  0
 49 50  1  0
 50 51  2  0
 51 52  1  0
 51 53  1  0
 53 54  2  0
 39 55  1  0
 55 56  1  0
 38 57  1  0
 57 58  2  0
 58 59  1  0
 59 60  2  0
 60 61  1  0
 61 62  2  0
 62 63  1  0
 63 64  1  0
 64 65  1  0
 63 66  2  0
 58 67  1  0
 67 68  1  0
 68 69  1  0
 69 70  1  0
 70 71  1  0
 71 72  1  0
 72 73  2  0
 73 74  1  0
 74 75  1  0
 72 76  1  0
 76 77  1  0
 77 78  1  0
 78 79  1  0
 79 80  1  0
 80 81  1  0
 81 82  2  0
 82 83  1  0
 83 84  2  0
 84 85  1  0
 85 86  1  0
 86 87  1  0
 85 88  2  0
 80 89  2  0
 89 90  1  0
 90 91  1  0
 91 92  1  0
 92 93  1  0
 93 94  1  0
 94 95  1  0
 95 96  1  0
 96 97  1  0
 97 98  1  0
 98 99  1  0
 96100  1  0
100101  1  0
 93102  1  0
102103  1  0
 89104  1  0
104105  2  0
105106  1  0
106107  1  0
107108  2  0
107109  1  0
109110  1  0
106111  2  0
111112  1  0
111113  1  0
113114  2  3
114115  1  0
115116  2  0
115117  1  0
117118  2  0
118119  1  0
119120  1  0
120121  2  0
121122  1  0
122123  2  3
123124  1  0
124125  3  0
123126  1  0
126127  3  0
 13  2  1  0
 56 19  1  0
 99 57  1  0
112104  1  0
122114  1  0
 11  5  1  0
 28 22  1  0
 35 29  1  0
 55 36  2  0
 66 59  1  0
 98 67  2  0
121117  1  0
 47 41  1  0
 54 48  1  0
 97 69  2  0
 95 70  2  0
 75 71  2  0
 94 76  2  0
 92 77  2  0
 91 79  2  0
 88 81  1  0
  1128  1  0
  7129  1  0
  8130  1  0
 23131  1  0
 24132  1  0
 26133  1  0
 26134  1  0
 26135  1  0
 27136  1  0
 28137  1  0
 30138  1  0
 31139  1  0
 33140  1  0
 33141  1  0
 33142  1  0
 34143  1  0
 35144  1  0
 42145  1  0
 43146  1  0
 45147  1  0
 45148  1  0
 45149  1  0
 46150  1  0
 47151  1  0
 49152  1  0
 50153  1  0
 52154  1  0
 52155  1  0
 52156  1  0
 53157  1  0
 54158  1  0
 60159  1  0
 61160  1  0
 62161  1  0
 64162  1  0
 64163  1  0
 65164  1  0
 65165  1  0
 65166  1  0
 66167  1  0
 82168  1  0
 83169  1  0
 84170  1  0
 86171  1  0
 86172  1  0
 87173  1  0
 87174  1  0
 87175  1  0
 88176  1  0
100177  1  0
100178  1  0
101179  1  0
101180  1  0
101181  1  0
102182  1  0
102183  1  0
103184  1  0
103185  1  0
103186  1  0
105187  1  0
110188  1  0
110189  1  0
110190  1  0
113191  1  0
118192  1  0
120193  1  0
M  END

