
     RDKit          3D

215236  0  0  0  0  0  0  0  0999 V2000
    4.0146   -8.3456   -2.4374 C   0  0  0  0  0  0  0  0  0  0  0  0
    4.8904   -8.8615   -1.5587 C   0  0  0  0  0  0  0  0  0  0  0  0
    4.4631   -9.4963   -0.3153 C   0  0  0  0  0  0  0  0  0  0  0  0
    3.3077   -9.9312   -0.0694 O   0  0  0  0  0  0  0  0  0  0  0  0
    5.5601   -9.4027    0.6413 C   0  0  0  0  0  0  0  0  0  0  0  0
    6.6519   -8.8211    0.0073 C   0  0  0  0  0  0  0  0  0  0  0  0
    7.7797   -8.4530    0.7514 C   0  0  0  0  0  0  0  0  0  0  0  0
    7.7988   -8.7095    2.1275 C   0  0  0  0  0  0  0  0  0  0  0  0
    6.6964   -9.3018    2.7690 C   0  0  0  0  0  0  0  0  0  0  0  0
    6.7728   -9.5604    4.6669 Br  0  0  0  0  0  0  0  0  0  0  0  0
    5.5494   -9.6476    2.0231 C   0  0  0  0  0  0  0  0  0  0  0  0
    4.1150  -10.2808    2.8219 Cl  0  0  0  0  0  0  0  0  0  0  0  0
    6.3443   -8.5805   -1.4229 C   0  0  0  0  0  0  0  0  0  0  0  0
    7.2393   -8.4928   -2.4368 C   0  0  0  0  0  0  0  0  0  0  0  0
    6.8399   -8.6217   -3.8142 C   0  0  0  0  0  0  0  0  0  0  0  0
    6.5360   -8.7268   -4.9282 N   0  0  0  0  0  0  0  0  0  0  0  0
    8.6564   -8.4470   -2.2136 C   0  0  0  0  0  0  0  0  0  0  0  0
    9.8017   -8.4113   -2.0545 N   0  0  0  0  0  0  0  0  0  0  0  0
    4.2627   -7.1537   -3.2670 C   0  0  0  0  0  0  0  0  0  0  0  0
    4.8771   -5.9423   -2.8606 C   0  0  0  0  0  0  0  0  0  0  0  0
    5.2340   -5.5966   -1.4995 N   0  0  0  0  0  0  0  0  0  0  0  0
    6.3760   -4.7351   -1.2836 C   0  0  0  0  0  0  0  0  0  0  0  0
    6.3010   -3.6615   -0.3736 C   0  0  0  0  0  0  0  0  0  0  0  0
    7.3775   -2.7817   -0.2205 C   0  0  0  0  0  0  0  0  0  0  0  0
    8.5395   -2.9479   -0.9831 C   0  0  0  0  0  0  0  0  0  0  0  0
    9.6583   -1.9475   -0.8917 C   0  0  0  0  0  0  0  0  0  0  0  0
    8.6071   -3.9899   -1.9160 C   0  0  0  0  0  0  0  0  0  0  0  0
    7.5400   -4.8856   -2.0539 C   0  0  0  0  0  0  0  0  0  0  0  0
    4.3443   -5.9290   -0.3988 C   0  0  0  0  0  0  0  0  0  0  0  0
    4.8632   -6.1819    0.8864 C   0  0  0  0  0  0  0  0  0  0  0  0
    4.0291   -6.5974    1.9247 C   0  0  0  0  0  0  0  0  0  0  0  0
    2.6529   -6.7606    1.7037 C   0  0  0  0  0  0  0  0  0  0  0  0
    1.7673   -7.3082    2.7835 C   0  0  0  0  0  0  0  0  0  0  0  0
    2.1249   -6.4849    0.4372 C   0  0  0  0  0  0  0  0  0  0  0  0
    2.9562   -6.0459   -0.5950 C   0  0  0  0  0  0  0  0  0  0  0  0
    4.7464   -4.9705   -3.8569 C   0  0  0  0  0  0  0  0  0  0  0  0
    4.8496   -3.3067   -3.7771 S   0  0  0  0  0  0  0  0  0  0  0  0
    3.9026   -3.0034   -5.1527 C   0  0  0  0  0  0  0  0  0  0  0  0
    3.4637   -4.2444   -5.6689 C   0  0  0  0  0  0  0  0  0  0  0  0
    2.3627   -4.4055   -6.5868 N   0  0  0  0  0  0  0  0  0  0  0  0
    1.1134   -3.7226   -6.3658 C   0  0  0  0  0  0  0  0  0  0  0  0
    0.4927   -3.0366   -7.4159 C   0  0  0  0  0  0  0  0  0  0  0  0
   -0.6562   -2.2765   -7.1818 C   0  0  0  0  0  0  0  0  0  0  0  0
   -1.2104   -2.2079   -5.8956 C   0  0  0  0  0  0  0  0  0  0  0  0
   -2.4329   -1.3798   -5.6339 C   0  0  0  0  0  0  0  0  0  0  0  0
   -0.6348   -2.9594   -4.8582 C   0  0  0  0  0  0  0  0  0  0  0  0
    0.5216   -3.7138   -5.0932 C   0  0  0  0  0  0  0  0  0  0  0  0
    2.4371   -5.4322   -7.5955 C   0  0  0  0  0  0  0  0  0  0  0  0
    1.4151   -6.3864   -7.7088 C   0  0  0  0  0  0  0  0  0  0  0  0
    1.5122   -7.4183   -8.6476 C   0  0  0  0  0  0  0  0  0  0  0  0
    2.6193   -7.4898   -9.5059 C   0  0  0  0  0  0  0  0  0  0  0  0
    2.7398   -8.6181  -10.4837 C   0  0  0  0  0  0  0  0  0  0  0  0
    3.6415   -6.5361   -9.3920 C   0  0  0  0  0  0  0  0  0  0  0  0
    3.5530   -5.5133   -8.4400 C   0  0  0  0  0  0  0  0  0  0  0  0
    3.9893   -5.3154   -4.9346 C   0  0  0  0  0  0  0  0  0  0  0  0
    3.4797   -6.9038   -4.7594 S   0  0  0  0  0  0  0  0  0  0  0  0
    3.1774   -1.7350   -5.2633 C   0  0  0  0  0  0  0  0  0  0  0  0
    2.9615   -0.9320   -6.4090 C   0  0  0  0  0  0  0  0  0  0  0  0
    3.6732   -1.1034   -7.6929 C   0  0  0  0  0  0  0  0  0  0  0  0
    2.9852   -0.9999   -8.9128 C   0  0  0  0  0  0  0  0  0  0  0  0
    3.6599   -1.1983  -10.1205 C   0  0  0  0  0  0  0  0  0  0  0  0
    5.0320   -1.4650  -10.1240 C   0  0  0  0  0  0  0  0  0  0  0  0
    5.7397   -1.5381   -8.9153 C   0  0  0  0  0  0  0  0  0  0  0  0
    7.2247   -1.7933   -8.9124 C   0  0  0  0  0  0  0  0  0  0  0  0
    7.5269   -3.2765   -8.7246 C   0  0  0  0  0  0  0  0  0  0  0  0
    5.0516   -1.3776   -7.7053 C   0  0  0  0  0  0  0  0  0  0  0  0
    2.0200    0.0697   -6.1236 C   0  0  0  0  0  0  0  0  0  0  0  0
    1.3425    1.4197   -6.9465 S   0  0  0  0  0  0  0  0  0  0  0  0
    0.3903    1.8416   -5.5870 C   0  0  0  0  0  0  0  0  0  0  0  0
   -0.3837    2.8650   -5.0826 C   0  0  0  0  0  0  0  0  0  0  0  0
   -0.7013    4.1567   -5.5409 C   0  0  0  0  0  0  0  0  0  0  0  0
   -1.3052    5.0954   -4.6183 C   0  0  0  0  0  0  0  0  0  0  0  0
   -1.5592    6.3385   -5.0935 N   0  0  0  0  0  0  0  0  0  0  0  0
   -0.9840    6.1680   -6.6414 S   0  0  0  0  0  0  0  0  0  0  0  0
   -0.4254    4.6146   -6.7860 N   0  0  0  0  0  0  0  0  0  0  0  0
   -1.6071    4.6646   -3.3188 C   0  0  0  0  0  0  0  0  0  0  0  0
   -2.2065    5.2408   -2.2144 C   0  0  0  0  0  0  0  0  0  0  0  0
   -2.8804    6.7005   -1.6361 S   0  0  0  0  0  0  0  0  0  0  0  0
   -3.3257    5.9610   -0.1414 C   0  0  0  0  0  0  0  0  0  0  0  0
   -3.9180    6.3800    1.0630 C   0  0  0  0  0  0  0  0  0  0  0  0
   -4.3465    7.7687    1.3036 C   0  0  0  0  0  0  0  0  0  0  0  0
   -3.4482    8.8268    1.0958 C   0  0  0  0  0  0  0  0  0  0  0  0
   -3.8290   10.1353    1.3731 C   0  0  0  0  0  0  0  0  0  0  0  0
   -5.1203   10.4079    1.8323 C   0  0  0  0  0  0  0  0  0  0  0  0
   -6.0336    9.3672    2.0393 C   0  0  0  0  0  0  0  0  0  0  0  0
   -7.4466    9.6721    2.4435 C   0  0  0  0  0  0  0  0  0  0  0  0
   -8.3362    9.8368    1.2124 C   0  0  0  0  0  0  0  0  0  0  0  0
   -5.6417    8.0446    1.7736 C   0  0  0  0  0  0  0  0  0  0  0  0
   -4.0132    5.2921    1.9820 C   0  0  0  0  0  0  0  0  0  0  0  0
   -3.3520    3.8914    1.2692 S   0  0  0  0  0  0  0  0  0  0  0  0
   -2.9835    4.6415   -0.1558 C   0  0  0  0  0  0  0  0  0  0  0  0
   -2.3520    4.2464   -1.3034 C   0  0  0  0  0  0  0  0  0  0  0  0
   -1.9142    3.0429   -1.7221 N   0  0  0  0  0  0  0  0  0  0  0  0
   -1.3651    3.3418   -2.9239 C   0  0  0  0  0  0  0  0  0  0  0  0
   -0.6394    2.4903   -3.7559 C   0  0  0  0  0  0  0  0  0  0  0  0
    0.0618    1.3838   -3.3870 N   0  0  0  0  0  0  0  0  0  0  0  0
    0.6152    0.9904   -4.5506 C   0  0  0  0  0  0  0  0  0  0  0  0
    1.5490    0.0266   -4.8396 C   0  0  0  0  0  0  0  0  0  0  0  0
    2.2541   -1.1882   -3.9553 S   0  0  0  0  0  0  0  0  0  0  0  0
    0.6567    1.1226   -2.0641 C   0  0  0  0  0  0  0  0  0  0  0  0
    1.9875    1.8644   -1.9089 C   0  0  0  0  0  0  0  0  0  0  0  0
   -2.5477    1.7654   -1.3541 C   0  0  0  0  0  0  0  0  0  0  0  0
   -4.0079    1.7378   -1.8058 C   0  0  0  0  0  0  0  0  0  0  0  0
   -4.4425    5.2733    3.4101 C   0  0  0  0  0  0  0  0  0  0  0  0
   -4.1265    6.2941    4.3069 C   0  0  0  0  0  0  0  0  0  0  0  0
   -3.5578    7.4796    4.0559 N   0  0  0  0  0  0  0  0  0  0  0  0
   -3.4687    8.0747    5.2375 N   0  0  0  0  0  0  0  0  0  0  0  0
   -2.8065    9.3535    5.4302 C   0  0  0  0  0  0  0  0  0  0  0  0
   -1.2899    9.1662    5.3821 C   0  0  0  0  0  0  0  0  0  0  0  0
   -3.9288    7.3262    6.2345 N   0  0  0  0  0  0  0  0  0  0  0  0
   -4.3350    6.1827    5.6575 C   0  0  0  0  0  0  0  0  0  0  0  0
   -4.7667    4.9840    6.2571 C   0  0  0  0  0  0  0  0  0  0  0  0
   -5.0703    3.9135    5.3706 C   0  0  0  0  0  0  0  0  0  0  0  0
   -5.0191    4.0945    3.9520 C   0  0  0  0  0  0  0  0  0  0  0  0
   -5.5344    3.1473    3.0413 O   0  0  0  0  0  0  0  0  0  0  0  0
   -6.1461    1.9014    3.3544 C   0  0  0  0  0  0  0  0  0  0  0  0
   -5.3863    2.6622    5.8957 O   0  0  0  0  0  0  0  0  0  0  0  0
   -4.3604    1.7619    6.3141 C   0  0  0  0  0  0  0  0  0  0  0  0
   -5.0692    4.8033    7.7083 C   0  0  0  0  0  0  0  0  0  0  0  0
   -4.9982    5.7323    8.6805 C   0  0  0  0  0  0  0  0  0  0  0  0
   -3.7385    6.3688    9.0832 C   0  0  0  0  0  0  0  0  0  0  0  0
   -2.6747    6.4331    8.4031 O   0  0  0  0  0  0  0  0  0  0  0  0
   -3.8316    6.7261   10.4847 C   0  0  0  0  0  0  0  0  0  0  0  0
   -2.8883    7.3893   11.2683 C   0  0  0  0  0  0  0  0  0  0  0  0
   -3.1727    7.6209   12.6282 C   0  0  0  0  0  0  0  0  0  0  0  0
   -2.1782    8.3779   13.4728 C   0  0  0  0  0  0  0  0  0  0  0  0
   -4.4021    7.1640   13.1757 C   0  0  0  0  0  0  0  0  0  0  0  0
   -4.7249    7.3596   14.6337 C   0  0  0  0  0  0  0  0  0  0  0  0
   -5.3374    6.5128   12.3470 C   0  0  0  0  0  0  0  0  0  0  0  0
   -5.0344    6.2880   10.9998 C   0  0  0  0  0  0  0  0  0  0  0  0
   -5.8315    5.6572    9.9197 C   0  0  0  0  0  0  0  0  0  0  0  0
   -7.1058    5.1800    9.9911 C   0  0  0  0  0  0  0  0  0  0  0  0
   -7.7927    4.9434   11.2332 C   0  0  0  0  0  0  0  0  0  0  0  0
   -8.3536    4.7423   12.2255 N   0  0  0  0  0  0  0  0  0  0  0  0
   -7.8454    4.8296    8.8012 C   0  0  0  0  0  0  0  0  0  0  0  0
   -8.4448    4.5380    7.8548 N   0  0  0  0  0  0  0  0  0  0  0  0
    2.9901   -8.6999   -2.4132 H   0  0  0  0  0  0  0  0  0  0  0  0
    8.6159   -7.9287    0.3089 H   0  0  0  0  0  0  0  0  0  0  0  0
    8.6657   -8.4195    2.7165 H   0  0  0  0  0  0  0  0  0  0  0  0
    5.4005   -3.4828    0.1981 H   0  0  0  0  0  0  0  0  0  0  0  0
    7.2918   -1.9591    0.4771 H   0  0  0  0  0  0  0  0  0  0  0  0
   10.6346   -2.4455   -1.0736 H   0  0  0  0  0  0  0  0  0  0  0  0
    9.5104   -1.1579   -1.6603 H   0  0  0  0  0  0  0  0  0  0  0  0
    9.6877   -1.4784    0.1144 H   0  0  0  0  0  0  0  0  0  0  0  0
    9.4846   -4.1132   -2.5399 H   0  0  0  0  0  0  0  0  0  0  0  0
    7.6140   -5.6765   -2.7873 H   0  0  0  0  0  0  0  0  0  0  0  0
    5.9264   -6.0901    1.0762 H   0  0  0  0  0  0  0  0  0  0  0  0
    4.4624   -6.8196    2.8943 H   0  0  0  0  0  0  0  0  0  0  0  0
    2.2348   -7.2032    3.7855 H   0  0  0  0  0  0  0  0  0  0  0  0
    0.7983   -6.7634    2.7942 H   0  0  0  0  0  0  0  0  0  0  0  0
    1.5720   -8.3851    2.5915 H   0  0  0  0  0  0  0  0  0  0  0  0
    1.0630   -6.6095    0.2496 H   0  0  0  0  0  0  0  0  0  0  0  0
    2.5154   -5.8252   -1.5589 H   0  0  0  0  0  0  0  0  0  0  0  0
    0.9187   -3.0576   -8.4105 H   0  0  0  0  0  0  0  0  0  0  0  0
   -1.1109   -1.7280   -8.0011 H   0  0  0  0  0  0  0  0  0  0  0  0
   -2.4911   -0.5338   -6.3538 H   0  0  0  0  0  0  0  0  0  0  0  0
   -2.4033   -0.9517   -4.6093 H   0  0  0  0  0  0  0  0  0  0  0  0
   -3.3412   -2.0109   -5.7433 H   0  0  0  0  0  0  0  0  0  0  0  0
   -1.0602   -2.9432   -3.8629 H   0  0  0  0  0  0  0  0  0  0  0  0
    0.9780   -4.2568   -4.2781 H   0  0  0  0  0  0  0  0  0  0  0  0
    0.5497   -6.3435   -7.0541 H   0  0  0  0  0  0  0  0  0  0  0  0
    0.7147   -8.1522   -8.7071 H   0  0  0  0  0  0  0  0  0  0  0  0
    3.2668   -8.2810  -11.4024 H   0  0  0  0  0  0  0  0  0  0  0  0
    3.3162   -9.4497  -10.0214 H   0  0  0  0  0  0  0  0  0  0  0  0
    1.7386   -8.9890  -10.7851 H   0  0  0  0  0  0  0  0  0  0  0  0
    4.5187   -6.5942  -10.0280 H   0  0  0  0  0  0  0  0  0  0  0  0
    4.3529   -4.7884   -8.3605 H   0  0  0  0  0  0  0  0  0  0  0  0
    1.9248   -0.7890   -8.9291 H   0  0  0  0  0  0  0  0  0  0  0  0
    3.1206   -1.1386  -11.0546 H   0  0  0  0  0  0  0  0  0  0  0  0
    5.5409   -1.6123  -11.0670 H   0  0  0  0  0  0  0  0  0  0  0  0
    7.6796   -1.4422   -9.8611 H   0  0  0  0  0  0  0  0  0  0  0  0
    7.7036   -1.2199   -8.0884 H   0  0  0  0  0  0  0  0  0  0  0  0
    8.6238   -3.4437   -8.7958 H   0  0  0  0  0  0  0  0  0  0  0  0
    7.1841   -3.6121   -7.7214 H   0  0  0  0  0  0  0  0  0  0  0  0
    7.0211   -3.8780   -9.5099 H   0  0  0  0  0  0  0  0  0  0  0  0
    5.5984   -1.4337   -6.7673 H   0  0  0  0  0  0  0  0  0  0  0  0
   -2.4415    8.6292    0.7327 H   0  0  0  0  0  0  0  0  0  0  0  0
   -3.1270   10.9480    1.2149 H   0  0  0  0  0  0  0  0  0  0  0  0
   -5.4045   11.4323    2.0120 H   0  0  0  0  0  0  0  0  0  0  0  0
   -7.8481    8.8559    3.0813 H   0  0  0  0  0  0  0  0  0  0  0  0
   -7.4677   10.6054    3.0471 H   0  0  0  0  0  0  0  0  0  0  0  0
   -7.8945   10.5795    0.5172 H   0  0  0  0  0  0  0  0  0  0  0  0
   -9.3405   10.1923    1.5295 H   0  0  0  0  0  0  0  0  0  0  0  0
   -8.4443    8.8649    0.6911 H   0  0  0  0  0  0  0  0  0  0  0  0
   -6.3415    7.2265    1.9226 H   0  0  0  0  0  0  0  0  0  0  0  0
    0.0069    1.4481   -1.2363 H   0  0  0  0  0  0  0  0  0  0  0  0
    0.8125    0.0327   -1.9302 H   0  0  0  0  0  0  0  0  0  0  0  0
    1.8041    2.9583   -1.8296 H   0  0  0  0  0  0  0  0  0  0  0  0
    2.6529    1.6850   -2.7762 H   0  0  0  0  0  0  0  0  0  0  0  0
    2.5026    1.5113   -0.9930 H   0  0  0  0  0  0  0  0  0  0  0  0
   -2.4833    1.6208   -0.2552 H   0  0  0  0  0  0  0  0  0  0  0  0
   -2.0441    0.9148   -1.8509 H   0  0  0  0  0  0  0  0  0  0  0  0
   -4.0511    1.7416   -2.9191 H   0  0  0  0  0  0  0  0  0  0  0  0
   -4.4967    0.8168   -1.4327 H   0  0  0  0  0  0  0  0  0  0  0  0
   -4.5628    2.6223   -1.4257 H   0  0  0  0  0  0  0  0  0  0  0  0
   -3.1180   10.0631    4.6381 H   0  0  0  0  0  0  0  0  0  0  0  0
   -3.0959    9.7853    6.4146 H   0  0  0  0  0  0  0  0  0  0  0  0
   -0.9922    8.6731    4.4320 H   0  0  0  0  0  0  0  0  0  0  0  0
   -0.9672    8.5247    6.2345 H   0  0  0  0  0  0  0  0  0  0  0  0
   -0.7800   10.1534    5.4392 H   0  0  0  0  0  0  0  0  0  0  0  0
   -5.3923    1.2007    3.7748 H   0  0  0  0  0  0  0  0  0  0  0  0
   -6.5329    1.4572    2.4170 H   0  0  0  0  0  0  0  0  0  0  0  0
   -7.0040    2.0398    4.0481 H   0  0  0  0  0  0  0  0  0  0  0  0
   -4.7710    0.7292    6.3070 H   0  0  0  0  0  0  0  0  0  0  0  0
   -4.0126    2.0072    7.3449 H   0  0  0  0  0  0  0  0  0  0  0  0
   -3.4990    1.7910    5.6062 H   0  0  0  0  0  0  0  0  0  0  0  0
   -5.5977    3.8975    7.9635 H   0  0  0  0  0  0  0  0  0  0  0  0
   -1.9601    7.7282   10.8200 H   0  0  0  0  0  0  0  0  0  0  0  0
   -1.8275    7.7313   14.3040 H   0  0  0  0  0  0  0  0  0  0  0  0
   -1.2903    8.6905   12.8860 H   0  0  0  0  0  0  0  0  0  0  0  0
   -2.6540    9.2916   13.8894 H   0  0  0  0  0  0  0  0  0  0  0  0
   -4.7707    8.4451   14.8702 H   0  0  0  0  0  0  0  0  0  0  0  0
   -3.9444    6.8748   15.2598 H   0  0  0  0  0  0  0  0  0  0  0  0
   -5.7054    6.9154   14.9056 H   0  0  0  0  0  0  0  0  0  0  0  0
   -6.2735    6.1971   12.7704 H   0  0  0  0  0  0  0  0  0  0  0  0
  1  2  2  3
  2  3  1  0
  3  4  2  0
  3  5  1  0
  5  6  2  0
  6  7  1  0
  7  8  2  0
  8  9  1  0
  9 10  1  0
  9 11  2  0
 11 12  1  0
  6 13  1  0
 13 14  2  3
 14 15  1  0
 15 16  3  0
 14 17  1  0
 17 18  3  0
  1 19  1  0
 19 20  2  0
 20 21  1  0
 21 22  1  0
 22 23  2  0
 23 24  1  0
 24 25  2  0
 25 26  1  0
 25 27  1  0
 27 28  2  0
 21 29  1  0
 29 30  2  0
 30 31  1  0
 31 32  2  0
 32 33  1  0
 32 34  1  0
 34 35  2  0
 20 36  1  0
 36 37  1  0
 37 38  1  0
 38 39  2  0
 39 40  1  0
 40 41  1  0
 41 42  2  0
 42 43  1  0
 43 44  2  0
 44 45  1  0
 44 46  1  0
 46 47  2  0
 40 48  1  0
 48 49  2  0
 49 50  1  0
 50 51  2  0
 51 52  1  0
 51 53  1  0
 53 54  2  0
 39 55  1  0
 55 56  1  0
 38 57  1  0
 57 58  2  0
 58 59  1  0
 59 60  2  0
 60 61  1  0
 61 62  2  0
 62 63  1  0
 63 64  1  0
 64 65  1  0
 63 66  2  0
 58 67  1  0
 67 68  1  0
 68 69  1  0
 69 70  1  0
 70 71  1  0
 71 72  1  0
 72 73  2  0
 73 74  1  0
 74 75  1  0
 72 76  1  0
 76 77  1  0
 77 78  1  0
 78 79  1  0
 79 80  1  0
 80 81  1  0
 81 82  2  0
 82 83  1  0
 83 84  2  0
 84 85  1  0
 85 86  1  0
 86 87  1  0
 85 88  2  0
 80 89  2  0
 89 90  1  0
 90 91  1  0
 91 92  1  0
 92 93  1  0
 93 94  1  0
 94 95  1  0
 95 96  1  0
 96 97  1  0
 97 98  1  0
 98 99  1  0
 96100  1  0
100101  1  0
 93102  1  0
102103  1  0
 89104  1  0
104105  1  0
105106  2  0
106107  1  0
107108  1  0
108109  1  0
107110  1  0
110111  2  0
111112  1  0
112113  2  0
113114  1  0
114115  1  0
115116  1  0
113117  1  0
117118  1  0
112119  1  0
119120  2  3
120121  1  0
121122  2  0
121123  1  0
123124  2  0
124125  1  0
125126  1  0
125127  2  0
127128  1  0
127129  1  0
129130  2  0
130131  1  0
131132  2  3
132133  1  0
133134  3  0
132135  1  0
135136  3  0
 13  2  1  0
 56 19  1  0
 99 57  1  0
114104  2  0
131120  1  0
 11  5  1  0
 28 22  1  0
 35 29  1  0
 55 36  2  0
 66 59  1  0
 98 67  2  0
111105  1  0
130123  1  0
 47 41  1  0
 54 48  1  0
 97 69  2  0
 95 70  2  0
 75 71  2  0
 94 76  2  0
 92 77  2  0
 91 79  2  0
 88 81  1  0
  1137  1  0
  7138  1  0
  8139  1  0
 23140  1  0
 24141  1  0
 26142  1  0
 26143  1  0
 26144  1  0
 27145  1  0
 28146  1  0
 30147  1  0
 31148  1  0
 33149  1  0
 33150  1  0
 33151  1  0
 34152  1  0
 35153  1  0
 42154  1  0
 43155  1  0
 45156  1  0
 45157  1  0
 45158  1  0
 46159  1  0
 47160  1  0
 49161  1  0
 50162  1  0
 52163  1  0
 52164  1  0
 52165  1  0
 53166  1  0
 54167  1  0
 60168  1  0
 61169  1  0
 62170  1  0
 64171  1  0
 64172  1  0
 65173  1  0
 65174  1  0
 65175  1  0
 66176  1  0
 82177  1  0
 83178  1  0
 84179  1  0
 86180  1  0
 86181  1  0
 87182  1  0
 87183  1  0
 87184  1  0
 88185  1  0
100186  1  0
100187  1  0
101188  1  0
101189  1  0
101190  1  0
102191  1  0
102192  1  0
103193  1  0
103194  1  0
103195  1  0
108196  1  0
108197  1  0
109198  1  0
109199  1  0
109200  1  0
116201  1  0
116202  1  0
116203  1  0
118204  1  0
118205  1  0
118206  1  0
119207  1  0
124208  1  0
126209  1  0
126210  1  0
126211  1  0
128212  1  0
128213  1  0
128214  1  0
129215  1  0
M  END

