
     RDKit          3D

228252  0  0  0  0  0  0  0  0999 V2000
    6.7642   -0.3091   -6.5583 C   0  0  0  0  0  0  0  0  0  0  0  0
    6.9391   -1.6084   -6.2495 C   0  0  0  0  0  0  0  0  0  0  0  0
    5.9275   -2.4873   -5.6451 C   0  0  0  0  0  0  0  0  0  0  0  0
    4.6820   -2.3014   -5.6414 O   0  0  0  0  0  0  0  0  0  0  0  0
    6.6063   -3.5912   -4.9871 C   0  0  0  0  0  0  0  0  0  0  0  0
    7.9704   -3.4706   -5.2034 C   0  0  0  0  0  0  0  0  0  0  0  0
    8.8594   -4.3095   -4.5187 C   0  0  0  0  0  0  0  0  0  0  0  0
    8.3492   -5.3033   -3.6743 C   0  0  0  0  0  0  0  0  0  0  0  0
    6.9631   -5.4456   -3.4926 C   0  0  0  0  0  0  0  0  0  0  0  0
    6.3361   -6.8135   -2.3033 Br  0  0  0  0  0  0  0  0  0  0  0  0
    6.0707   -4.5725   -4.1423 C   0  0  0  0  0  0  0  0  0  0  0  0
    4.3338   -4.6894   -3.8727 Cl  0  0  0  0  0  0  0  0  0  0  0  0
    8.2427   -2.3147   -6.1025 C   0  0  0  0  0  0  0  0  0  0  0  0
    9.3693   -2.0969   -6.8280 C   0  0  0  0  0  0  0  0  0  0  0  0
   10.5172   -2.9601   -6.7448 C   0  0  0  0  0  0  0  0  0  0  0  0
   11.4451   -3.6495   -6.6904 N   0  0  0  0  0  0  0  0  0  0  0  0
    9.4385   -1.0776   -7.8441 C   0  0  0  0  0  0  0  0  0  0  0  0
    9.5056   -0.2636   -8.6644 N   0  0  0  0  0  0  0  0  0  0  0  0
    5.4673    0.3575   -6.4022 C   0  0  0  0  0  0  0  0  0  0  0  0
    5.0919    1.1440   -5.3034 C   0  0  0  0  0  0  0  0  0  0  0  0
    5.9957    1.6413   -4.3022 N   0  0  0  0  0  0  0  0  0  0  0  0
    6.1054    3.0650   -4.0995 C   0  0  0  0  0  0  0  0  0  0  0  0
    6.0718    3.9453   -5.1943 C   0  0  0  0  0  0  0  0  0  0  0  0
    6.1817    5.3229   -5.0002 C   0  0  0  0  0  0  0  0  0  0  0  0
    6.3043    5.8458   -3.7039 C   0  0  0  0  0  0  0  0  0  0  0  0
    6.4303    7.3232   -3.4844 C   0  0  0  0  0  0  0  0  0  0  0  0
    6.3393    4.9712   -2.6079 C   0  0  0  0  0  0  0  0  0  0  0  0
    6.2437    3.5910   -2.8041 C   0  0  0  0  0  0  0  0  0  0  0  0
    6.8622    0.7305   -3.6051 C   0  0  0  0  0  0  0  0  0  0  0  0
    8.2443    0.9709   -3.5435 C   0  0  0  0  0  0  0  0  0  0  0  0
    9.0973    0.0421   -2.9393 C   0  0  0  0  0  0  0  0  0  0  0  0
    8.5792   -1.1338   -2.3777 C   0  0  0  0  0  0  0  0  0  0  0  0
    9.5069   -2.1333   -1.7506 C   0  0  0  0  0  0  0  0  0  0  0  0
    7.1959   -1.3665   -2.4211 C   0  0  0  0  0  0  0  0  0  0  0  0
    6.3455   -0.4421   -3.0339 C   0  0  0  0  0  0  0  0  0  0  0  0
    3.7318    1.4339   -5.3399 C   0  0  0  0  0  0  0  0  0  0  0  0
    2.6614    2.1976   -4.2971 S   0  0  0  0  0  0  0  0  0  0  0  0
    1.2884    1.8554   -5.2545 C   0  0  0  0  0  0  0  0  0  0  0  0
    1.6821    1.1409   -6.4036 C   0  0  0  0  0  0  0  0  0  0  0  0
    0.8408    0.8725   -7.5371 N   0  0  0  0  0  0  0  0  0  0  0  0
    0.5204   -0.4832   -7.9480 C   0  0  0  0  0  0  0  0  0  0  0  0
    1.1588   -1.6033   -7.3786 C   0  0  0  0  0  0  0  0  0  0  0  0
    0.8650   -2.8951   -7.8194 C   0  0  0  0  0  0  0  0  0  0  0  0
   -0.0828   -3.0988   -8.8290 C   0  0  0  0  0  0  0  0  0  0  0  0
   -0.4382   -4.4906   -9.2585 C   0  0  0  0  0  0  0  0  0  0  0  0
   -0.7629   -1.9981   -9.3636 C   0  0  0  0  0  0  0  0  0  0  0  0
   -0.4603   -0.7041   -8.9324 C   0  0  0  0  0  0  0  0  0  0  0  0
    0.6946    1.9504   -8.4765 C   0  0  0  0  0  0  0  0  0  0  0  0
    1.4470    1.9527   -9.6616 C   0  0  0  0  0  0  0  0  0  0  0  0
    1.3315    3.0076  -10.5703 C   0  0  0  0  0  0  0  0  0  0  0  0
    0.4602    4.0763  -10.3038 C   0  0  0  0  0  0  0  0  0  0  0  0
    0.3361    5.2215  -11.2632 C   0  0  0  0  0  0  0  0  0  0  0  0
   -0.2970    4.0701   -9.1248 C   0  0  0  0  0  0  0  0  0  0  0  0
   -0.1830    3.0123   -8.2180 C   0  0  0  0  0  0  0  0  0  0  0  0
    3.0596    0.9311   -6.4083 C   0  0  0  0  0  0  0  0  0  0  0  0
    4.1204    0.0978   -7.4148 S   0  0  0  0  0  0  0  0  0  0  0  0
   -0.0778    2.2470   -4.8743 C   0  0  0  0  0  0  0  0  0  0  0  0
   -1.2483    1.4584   -4.9714 C   0  0  0  0  0  0  0  0  0  0  0  0
   -1.2647   -0.0093   -5.1586 C   0  0  0  0  0  0  0  0  0  0  0  0
   -2.2685   -0.6167   -5.9283 C   0  0  0  0  0  0  0  0  0  0  0  0
   -2.3328   -2.0076   -6.0322 C   0  0  0  0  0  0  0  0  0  0  0  0
   -1.3957   -2.8059   -5.3697 C   0  0  0  0  0  0  0  0  0  0  0  0
   -0.3771   -2.2151   -4.6065 C   0  0  0  0  0  0  0  0  0  0  0  0
    0.6594   -3.0640   -3.9194 C   0  0  0  0  0  0  0  0  0  0  0  0
    0.3041   -3.2789   -2.4518 C   0  0  0  0  0  0  0  0  0  0  0  0
   -0.3306   -0.8176   -4.4861 C   0  0  0  0  0  0  0  0  0  0  0  0
   -2.3634    2.1745   -4.5180 C   0  0  0  0  0  0  0  0  0  0  0  0
   -3.9208    1.6718   -4.0358 S   0  0  0  0  0  0  0  0  0  0  0  0
   -4.2079    3.1309   -3.2253 C   0  0  0  0  0  0  0  0  0  0  0  0
   -4.9027    3.4373   -2.0829 C   0  0  0  0  0  0  0  0  0  0  0  0
   -6.0920    2.9375   -1.5477 C   0  0  0  0  0  0  0  0  0  0  0  0
   -6.5310    3.4334   -0.2808 C   0  0  0  0  0  0  0  0  0  0  0  0
   -7.6860    2.9148    0.2070 N   0  0  0  0  0  0  0  0  0  0  0  0
   -8.0777    1.8777   -1.0260 S   0  0  0  0  0  0  0  0  0  0  0  0
   -6.8744    2.0118   -2.1568 N   0  0  0  0  0  0  0  0  0  0  0  0
   -5.7069    4.3278    0.4230 C   0  0  0  0  0  0  0  0  0  0  0  0
   -5.6684    4.5776    1.7709 C   0  0  0  0  0  0  0  0  0  0  0  0
   -6.4895    3.8926    3.0859 S   0  0  0  0  0  0  0  0  0  0  0  0
   -5.1417    4.0567    4.1054 C   0  0  0  0  0  0  0  0  0  0  0  0
   -4.8252    3.3756    5.2873 C   0  0  0  0  0  0  0  0  0  0  0  0
   -5.8421    2.7204    6.1443 C   0  0  0  0  0  0  0  0  0  0  0  0
   -6.9640    3.4541    6.5633 C   0  0  0  0  0  0  0  0  0  0  0  0
   -7.9154    2.8751    7.4057 C   0  0  0  0  0  0  0  0  0  0  0  0
   -7.7527    1.5616    7.8527 C   0  0  0  0  0  0  0  0  0  0  0  0
   -6.6370    0.8129    7.4459 C   0  0  0  0  0  0  0  0  0  0  0  0
   -6.4499   -0.6030    7.9245 C   0  0  0  0  0  0  0  0  0  0  0  0
   -7.1053   -1.5921    6.9671 C   0  0  0  0  0  0  0  0  0  0  0  0
   -5.7072    1.3862    6.5653 C   0  0  0  0  0  0  0  0  0  0  0  0
   -3.4283    3.3392    5.4923 C   0  0  0  0  0  0  0  0  0  0  0  0
   -2.6602    4.1244    4.1980 S   0  0  0  0  0  0  0  0  0  0  0  0
   -4.0706    4.5657    3.4064 C   0  0  0  0  0  0  0  0  0  0  0  0
   -4.3731    4.8926    2.0799 C   0  0  0  0  0  0  0  0  0  0  0  0
   -3.5828    4.9625    0.9734 N   0  0  0  0  0  0  0  0  0  0  0  0
   -4.4404    4.6930   -0.0653 C   0  0  0  0  0  0  0  0  0  0  0  0
   -4.1215    4.3751   -1.4066 C   0  0  0  0  0  0  0  0  0  0  0  0
   -3.0385    4.7361   -2.1514 N   0  0  0  0  0  0  0  0  0  0  0  0
   -3.1086    3.9418   -3.2450 C   0  0  0  0  0  0  0  0  0  0  0  0
   -2.0804    3.4198   -4.0151 C   0  0  0  0  0  0  0  0  0  0  0  0
   -0.4399    3.7280   -4.1179 S   0  0  0  0  0  0  0  0  0  0  0  0
   -2.2941    5.9970   -2.0731 C   0  0  0  0  0  0  0  0  0  0  0  0
   -2.7544    6.9716   -3.1580 C   0  0  0  0  0  0  0  0  0  0  0  0
   -2.1229    4.7714    0.9875 C   0  0  0  0  0  0  0  0  0  0  0  0
   -1.4027    6.0031    1.5387 C   0  0  0  0  0  0  0  0  0  0  0  0
   -2.7262    2.3125    6.2619 C   0  0  0  0  0  0  0  0  0  0  0  0
   -2.3546    1.0939    5.7103 C   0  0  0  0  0  0  0  0  0  0  0  0
   -1.9027    0.1762    6.6645 C   0  0  0  0  0  0  0  0  0  0  0  0
   -1.5641   -1.1646    6.4170 C   0  0  0  0  0  0  0  0  0  0  0  0
   -1.7545   -1.7859    5.0916 C   0  0  0  0  0  0  0  0  0  0  0  0
   -0.5655   -2.5653    4.1835 S   0  0  0  0  0  0  0  0  0  0  0  0
   -1.5769   -3.0012    2.9054 C   0  0  0  0  0  0  0  0  0  0  0  0
   -1.1743   -3.8371    1.7315 C   0  0  0  0  0  0  0  0  0  0  0  0
   -1.3192   -5.3203    2.0554 C   0  0  0  0  0  0  0  0  0  0  0  0
   -2.8659   -2.5695    3.1934 C   0  0  0  0  0  0  0  0  0  0  0  0
   -3.9360   -2.8096    2.3921 F   0  0  0  0  0  0  0  0  0  0  0  0
   -2.9644   -1.8883    4.4110 C   0  0  0  0  0  0  0  0  0  0  0  0
   -4.1388   -1.4159    4.8993 F   0  0  0  0  0  0  0  0  0  0  0  0
   -1.1124   -1.9121    7.5157 C   0  0  0  0  0  0  0  0  0  0  0  0
   -1.0219   -1.3818    8.8088 C   0  0  0  0  0  0  0  0  0  0  0  0
   -1.4064   -0.0445    9.0639 C   0  0  0  0  0  0  0  0  0  0  0  0
   -1.3465    0.5452   10.4145 C   0  0  0  0  0  0  0  0  0  0  0  0
   -0.4905    1.9361   10.8245 S   0  0  0  0  0  0  0  0  0  0  0  0
   -0.8903    1.9143   12.4598 C   0  0  0  0  0  0  0  0  0  0  0  0
   -0.3665    2.8677   13.4875 C   0  0  0  0  0  0  0  0  0  0  0  0
    0.9554    2.3658   14.0573 C   0  0  0  0  0  0  0  0  0  0  0  0
   -1.6900    0.8040   12.7062 C   0  0  0  0  0  0  0  0  0  0  0  0
   -1.9515    0.0409   11.5617 C   0  0  0  0  0  0  0  0  0  0  0  0
   -2.7190   -1.0788   11.5765 F   0  0  0  0  0  0  0  0  0  0  0  0
   -2.1615    0.4766   13.9344 F   0  0  0  0  0  0  0  0  0  0  0  0
   -1.8498    0.7089    7.9572 C   0  0  0  0  0  0  0  0  0  0  0  0
   -2.4648    2.2835    7.9281 S   0  0  0  0  0  0  0  0  0  0  0  0
   -0.5232   -2.3099    9.7429 C   0  0  0  0  0  0  0  0  0  0  0  0
   -0.2967   -3.5687    9.1875 C   0  0  0  0  0  0  0  0  0  0  0  0
   -0.6300   -3.5221    7.5344 S   0  0  0  0  0  0  0  0  0  0  0  0
    0.3177   -4.7102    9.8785 C   0  0  0  0  0  0  0  0  0  0  0  0
   -0.1905   -5.9571    9.8343 C   0  0  0  0  0  0  0  0  0  0  0  0
   -1.4668   -6.3346    9.2129 C   0  0  0  0  0  0  0  0  0  0  0  0
   -2.4150   -5.5603    8.9182 O   0  0  0  0  0  0  0  0  0  0  0  0
   -1.4968   -7.7684    9.0617 C   0  0  0  0  0  0  0  0  0  0  0  0
   -2.4639   -8.5443    8.4209 C   0  0  0  0  0  0  0  0  0  0  0  0
   -2.2611   -9.9344    8.3241 C   0  0  0  0  0  0  0  0  0  0  0  0
   -3.2718  -10.7955    7.6103 C   0  0  0  0  0  0  0  0  0  0  0  0
   -3.2230  -12.1017    8.0741 F   0  0  0  0  0  0  0  0  0  0  0  0
   -4.5539  -10.3107    7.8210 F   0  0  0  0  0  0  0  0  0  0  0  0
   -3.0056  -10.7887    6.2527 F   0  0  0  0  0  0  0  0  0  0  0  0
   -1.0583  -10.4942    8.8140 C   0  0  0  0  0  0  0  0  0  0  0  0
   -0.0969   -9.6921    9.4510 C   0  0  0  0  0  0  0  0  0  0  0  0
   -0.3463   -8.3162    9.6034 C   0  0  0  0  0  0  0  0  0  0  0  0
    0.4813   -7.2385   10.2237 C   0  0  0  0  0  0  0  0  0  0  0  0
    1.4917   -7.4093   11.1182 C   0  0  0  0  0  0  0  0  0  0  0  0
    2.1027   -6.3136   11.8223 C   0  0  0  0  0  0  0  0  0  0  0  0
    2.6028   -5.4489   12.4125 N   0  0  0  0  0  0  0  0  0  0  0  0
    1.9370   -8.7110   11.5369 C   0  0  0  0  0  0  0  0  0  0  0  0
    2.3035   -9.7533   11.8864 N   0  0  0  0  0  0  0  0  0  0  0  0
    7.6148    0.3318   -6.7322 H   0  0  0  0  0  0  0  0  0  0  0  0
    9.9275   -4.1822   -4.5812 H   0  0  0  0  0  0  0  0  0  0  0  0
    9.0334   -5.9547   -3.1433 H   0  0  0  0  0  0  0  0  0  0  0  0
    5.9796    3.5619   -6.2035 H   0  0  0  0  0  0  0  0  0  0  0  0
    6.1723    5.9818   -5.8615 H   0  0  0  0  0  0  0  0  0  0  0  0
    5.7218    7.6479   -2.6928 H   0  0  0  0  0  0  0  0  0  0  0  0
    7.4674    7.5626   -3.1677 H   0  0  0  0  0  0  0  0  0  0  0  0
    6.1984    7.8907   -4.4102 H   0  0  0  0  0  0  0  0  0  0  0  0
    6.4346    5.3595   -1.5995 H   0  0  0  0  0  0  0  0  0  0  0  0
    6.2631    2.9301   -1.9453 H   0  0  0  0  0  0  0  0  0  0  0  0
    8.6624    1.8618   -3.9938 H   0  0  0  0  0  0  0  0  0  0  0  0
   10.1629    0.2349   -2.9208 H   0  0  0  0  0  0  0  0  0  0  0  0
   10.0822   -1.6497   -0.9340 H   0  0  0  0  0  0  0  0  0  0  0  0
    8.9492   -2.9958   -1.3283 H   0  0  0  0  0  0  0  0  0  0  0  0
   10.2147   -2.5146   -2.5149 H   0  0  0  0  0  0  0  0  0  0  0  0
    6.7750   -2.2691   -1.9984 H   0  0  0  0  0  0  0  0  0  0  0  0
    5.2839   -0.6434   -3.0759 H   0  0  0  0  0  0  0  0  0  0  0  0
    1.8806   -1.4949   -6.5816 H   0  0  0  0  0  0  0  0  0  0  0  0
    1.3673   -3.7376   -7.3622 H   0  0  0  0  0  0  0  0  0  0  0  0
   -0.8107   -4.4948  -10.3051 H   0  0  0  0  0  0  0  0  0  0  0  0
    0.4516   -5.1525   -9.2083 H   0  0  0  0  0  0  0  0  0  0  0  0
   -1.2285   -4.8926   -8.5915 H   0  0  0  0  0  0  0  0  0  0  0  0
   -1.5310   -2.1399  -10.1150 H   0  0  0  0  0  0  0  0  0  0  0  0
   -1.0081    0.1241   -9.3626 H   0  0  0  0  0  0  0  0  0  0  0  0
    2.1304    1.1400   -9.8720 H   0  0  0  0  0  0  0  0  0  0  0  0
    1.9224    2.9916  -11.4780 H   0  0  0  0  0  0  0  0  0  0  0  0
    0.6466    6.1613  -10.7591 H   0  0  0  0  0  0  0  0  0  0  0  0
    0.9778    5.0731  -12.1580 H   0  0  0  0  0  0  0  0  0  0  0  0
   -0.7180    5.3177  -11.5972 H   0  0  0  0  0  0  0  0  0  0  0  0
   -0.9842    4.8820   -8.9121 H   0  0  0  0  0  0  0  0  0  0  0  0
   -0.7943    3.0190   -7.3274 H   0  0  0  0  0  0  0  0  0  0  0  0
   -3.0010   -0.0117   -6.4501 H   0  0  0  0  0  0  0  0  0  0  0  0
   -3.1079   -2.4699   -6.6303 H   0  0  0  0  0  0  0  0  0  0  0  0
   -1.4556   -3.8828   -5.4651 H   0  0  0  0  0  0  0  0  0  0  0  0
    1.6540   -2.5704   -3.9877 H   0  0  0  0  0  0  0  0  0  0  0  0
    0.7510   -4.0505   -4.4248 H   0  0  0  0  0  0  0  0  0  0  0  0
    0.2635   -2.3051   -1.9178 H   0  0  0  0  0  0  0  0  0  0  0  0
    1.0779   -3.9135   -1.9694 H   0  0  0  0  0  0  0  0  0  0  0  0
   -0.6793   -3.7874   -2.3637 H   0  0  0  0  0  0  0  0  0  0  0  0
    0.4289   -0.3645   -3.8624 H   0  0  0  0  0  0  0  0  0  0  0  0
   -7.0947    4.4814    6.2478 H   0  0  0  0  0  0  0  0  0  0  0  0
   -8.7756    3.4498    7.7236 H   0  0  0  0  0  0  0  0  0  0  0  0
   -8.4958    1.1280    8.5116 H   0  0  0  0  0  0  0  0  0  0  0  0
   -6.8881   -0.7291    8.9378 H   0  0  0  0  0  0  0  0  0  0  0  0
   -5.3656   -0.8355    8.0045 H   0  0  0  0  0  0  0  0  0  0  0  0
   -6.6661   -1.4969    5.9514 H   0  0  0  0  0  0  0  0  0  0  0  0
   -6.9365   -2.6261    7.3311 H   0  0  0  0  0  0  0  0  0  0  0  0
   -8.2003   -1.4072    6.9118 H   0  0  0  0  0  0  0  0  0  0  0  0
   -4.8974    0.7769    6.2024 H   0  0  0  0  0  0  0  0  0  0  0  0
   -1.2030    5.8008   -2.1847 H   0  0  0  0  0  0  0  0  0  0  0  0
   -2.4749    6.4898   -1.1000 H   0  0  0  0  0  0  0  0  0  0  0  0
   -3.8467    7.1578   -3.0627 H   0  0  0  0  0  0  0  0  0  0  0  0
   -2.2177    7.9364   -3.0498 H   0  0  0  0  0  0  0  0  0  0  0  0
   -2.5385    6.5573   -4.1676 H   0  0  0  0  0  0  0  0  0  0  0  0
   -1.8678    3.8832    1.6055 H   0  0  0  0  0  0  0  0  0  0  0  0
   -1.7237    4.5308   -0.0122 H   0  0  0  0  0  0  0  0  0  0  0  0
   -1.7644    6.2543    2.5553 H   0  0  0  0  0  0  0  0  0  0  0  0
   -1.5651    6.8870    0.8930 H   0  0  0  0  0  0  0  0  0  0  0  0
   -0.3134    5.7971    1.5920 H   0  0  0  0  0  0  0  0  0  0  0  0
   -2.4712    0.8694    4.6573 H   0  0  0  0  0  0  0  0  0  0  0  0
   -1.8137   -3.5875    0.8565 H   0  0  0  0  0  0  0  0  0  0  0  0
   -0.1201   -3.6168    1.4622 H   0  0  0  0  0  0  0  0  0  0  0  0
   -1.0525   -5.9263    1.1630 H   0  0  0  0  0  0  0  0  0  0  0  0
   -0.6424   -5.5971    2.8934 H   0  0  0  0  0  0  0  0  0  0  0  0
   -2.3671   -5.5548    2.3381 H   0  0  0  0  0  0  0  0  0  0  0  0
   -1.1081    2.9819   14.3071 H   0  0  0  0  0  0  0  0  0  0  0  0
   -0.2115    3.8643   13.0211 H   0  0  0  0  0  0  0  0  0  0  0  0
    1.7188    2.2960   13.2527 H   0  0  0  0  0  0  0  0  0  0  0  0
    1.3165    3.0737   14.8340 H   0  0  0  0  0  0  0  0  0  0  0  0
    0.8198    1.3651   14.5215 H   0  0  0  0  0  0  0  0  0  0  0  0
   -0.3348   -2.0840   10.7843 H   0  0  0  0  0  0  0  0  0  0  0  0
    1.2682   -4.5092   10.3385 H   0  0  0  0  0  0  0  0  0  0  0  0
   -3.3481   -8.0783    8.0054 H   0  0  0  0  0  0  0  0  0  0  0  0
   -0.8508  -11.5472    8.6861 H   0  0  0  0  0  0  0  0  0  0  0  0
    0.8295  -10.1461    9.7570 H   0  0  0  0  0  0  0  0  0  0  0  0
  1  2  2  3
  2  3  1  0
  3  4  2  0
  3  5  1  0
  5  6  2  0
  6  7  1  0
  7  8  2  0
  8  9  1  0
  9 10  1  0
  9 11  2  0
 11 12  1  0
  6 13  1  0
 13 14  2  3
 14 15  1  0
 15 16  3  0
 14 17  1  0
 17 18  3  0
  1 19  1  0
 19 20  2  0
 20 21  1  0
 21 22  1  0
 22 23  2  0
 23 24  1  0
 24 25  2  0
 25 26  1  0
 25 27  1  0
 27 28  2  0
 21 29  1  0
 29 30  2  0
 30 31  1  0
 31 32  2  0
 32 33  1  0
 32 34  1  0
 34 35  2  0
 20 36  1  0
 36 37  1  0
 37 38  1  0
 38 39  2  0
 39 40  1  0
 40 41  1  0
 41 42  2  0
 42 43  1  0
 43 44  2  0
 44 45  1  0
 44 46  1  0
 46 47  2  0
 40 48  1  0
 48 49  2  0
 49 50  1  0
 50 51  2  0
 51 52  1  0
 51 53  1  0
 53 54  2  0
 39 55  1  0
 55 56  1  0
 38 57  1  0
 57 58  2  0
 58 59  1  0
 59 60  2  0
 60 61  1  0
 61 62  2  0
 62 63  1  0
 63 64  1  0
 64 65  1  0
 63 66  2  0
 58 67  1  0
 67 68  1  0
 68 69  1  0
 69 70  1  0
 70 71  1  0
 71 72  1  0
 72 73  2  0
 73 74  1  0
 74 75  1  0
 72 76  1  0
 76 77  1  0
 77 78  1  0
 78 79  1  0
 79 80  1  0
 80 81  1  0
 81 82  2  0
 82 83  1  0
 83 84  2  0
 84 85  1  0
 85 86  1  0
 86 87  1  0
 85 88  2  0
 80 89  2  0
 89 90  1  0
 90 91  1  0
 91 92  1  0
 92 93  1  0
 93 94  1  0
 94 95  1  0
 95 96  1  0
 96 97  1  0
 97 98  1  0
 98 99  1  0
 96100  1  0
100101  1  0
 93102  1  0
102103  1  0
 89104  1  0
104105  2  0
105106  1  0
106107  2  0
107108  1  0
108109  1  0
109110  1  0
110111  1  0
111112  1  0
110113  2  0
113114  1  0
113115  1  0
115116  1  0
107117  1  0
117118  2  0
118119  1  0
119120  1  0
120121  1  0
121122  1  0
122123  1  0
123124  1  0
122125  2  0
125126  1  0
126127  1  0
125128  1  0
119129  2  0
129130  1  0
118131  1  0
131132  2  0
132133  1  0
132134  1  0
134135  2  3
135136  1  0
136137  2  0
136138  1  0
138139  2  0
139140  1  0
140141  1  0
141142  1  0
141143  1  0
141144  1  0
140145  2  0
145146  1  0
146147  2  0
147148  1  0
148149  2  3
149150  1  0
150151  3  0
149152  1  0
152153  3  0
 13  2  1  0
 56 19  1  0
 99 57  1  0
130104  1  0
148135  1  0
 11  5  1  0
 28 22  1  0
 35 29  1  0
 55 36  2  0
 66 59  1  0
 98 67  2  0
129106  1  0
147138  1  0
 47 41  1  0
 54 48  1  0
 97 69  2  0
115108  2  0
133117  1  0
 95 70  2  0
126120  2  0
 75 71  2  0
 94 76  2  0
 92 77  2  0
 91 79  2  0
 88 81  1  0
  1154  1  0
  7155  1  0
  8156  1  0
 23157  1  0
 24158  1  0
 26159  1  0
 26160  1  0
 26161  1  0
 27162  1  0
 28163  1  0
 30164  1  0
 31165  1  0
 33166  1  0
 33167  1  0
 33168  1  0
 34169  1  0
 35170  1  0
 42171  1  0
 43172  1  0
 45173  1  0
 45174  1  0
 45175  1  0
 46176  1  0
 47177  1  0
 49178  1  0
 50179  1  0
 52180  1  0
 52181  1  0
 52182  1  0
 53183  1  0
 54184  1  0
 60185  1  0
 61186  1  0
 62187  1  0
 64188  1  0
 64189  1  0
 65190  1  0
 65191  1  0
 65192  1  0
 66193  1  0
 82194  1  0
 83195  1  0
 84196  1  0
 86197  1  0
 86198  1  0
 87199  1  0
 87200  1  0
 87201  1  0
 88202  1  0
100203  1  0
100204  1  0
101205  1  0
101206  1  0
101207  1  0
102208  1  0
102209  1  0
103210  1  0
103211  1  0
103212  1  0
105213  1  0
111214  1  0
111215  1  0
112216  1  0
112217  1  0
112218  1  0
123219  1  0
123220  1  0
124221  1  0
124222  1  0
124223  1  0
131224  1  0
134225  1  0
139226  1  0
145227  1  0
146228  1  0
M  END

