
     RDKit          3D

244266  0  0  0  0  0  0  0  0999 V2000
   -7.9064    6.2817   -1.0867 C   0  0  0  0  0  0  0  0  0  0  0  0
   -8.2699    5.0342   -1.4558 C   0  0  0  0  0  0  0  0  0  0  0  0
   -7.5515    3.7931   -1.0995 C   0  0  0  0  0  0  0  0  0  0  0  0
   -6.4806    3.7158   -0.4430 O   0  0  0  0  0  0  0  0  0  0  0  0
   -8.3302    2.6591   -1.5552 C   0  0  0  0  0  0  0  0  0  0  0  0
   -9.4972    3.1168   -2.1449 C   0  0  0  0  0  0  0  0  0  0  0  0
  -10.4798    2.1995   -2.5402 C   0  0  0  0  0  0  0  0  0  0  0  0
  -10.2243    0.8254   -2.4082 C   0  0  0  0  0  0  0  0  0  0  0  0
   -9.0057    0.3693   -1.8810 C   0  0  0  0  0  0  0  0  0  0  0  0
   -8.7061   -1.5216   -1.7653 Br  0  0  0  0  0  0  0  0  0  0  0  0
   -8.0441    1.2903   -1.4309 C   0  0  0  0  0  0  0  0  0  0  0  0
   -6.5074    0.7434   -0.7785 Cl  0  0  0  0  0  0  0  0  0  0  0  0
   -9.4893    4.6117   -2.2113 C   0  0  0  0  0  0  0  0  0  0  0  0
  -10.2621    5.3904   -3.0209 C   0  0  0  0  0  0  0  0  0  0  0  0
  -10.0316    6.7997   -3.1887 C   0  0  0  0  0  0  0  0  0  0  0  0
   -9.8613    7.9359   -3.3450 N   0  0  0  0  0  0  0  0  0  0  0  0
  -11.2776    4.8457   -3.8820 C   0  0  0  0  0  0  0  0  0  0  0  0
  -12.0918    4.4164   -4.5873 N   0  0  0  0  0  0  0  0  0  0  0  0
   -6.6187    6.5598   -0.4505 C   0  0  0  0  0  0  0  0  0  0  0  0
   -5.3589    6.4921   -1.0627 C   0  0  0  0  0  0  0  0  0  0  0  0
   -5.1438    6.4192   -2.4802 N   0  0  0  0  0  0  0  0  0  0  0  0
   -4.7268    7.5980   -3.1749 C   0  0  0  0  0  0  0  0  0  0  0  0
   -5.6787    8.5031   -3.6705 C   0  0  0  0  0  0  0  0  0  0  0  0
   -5.2699    9.6615   -4.3341 C   0  0  0  0  0  0  0  0  0  0  0  0
   -3.8998    9.9435   -4.4904 C   0  0  0  0  0  0  0  0  0  0  0  0
   -3.4661   11.2009   -5.1797 C   0  0  0  0  0  0  0  0  0  0  0  0
   -2.9514    9.0467   -3.9684 C   0  0  0  0  0  0  0  0  0  0  0  0
   -3.3609    7.8818   -3.3191 C   0  0  0  0  0  0  0  0  0  0  0  0
   -5.4237    5.2150   -3.2078 C   0  0  0  0  0  0  0  0  0  0  0  0
   -4.6684    4.0589   -2.9647 C   0  0  0  0  0  0  0  0  0  0  0  0
   -5.0333    2.8433   -3.5539 C   0  0  0  0  0  0  0  0  0  0  0  0
   -6.1622    2.7684   -4.3769 C   0  0  0  0  0  0  0  0  0  0  0  0
   -6.6200    1.4342   -4.8906 C   0  0  0  0  0  0  0  0  0  0  0  0
   -6.8958    3.9363   -4.6544 C   0  0  0  0  0  0  0  0  0  0  0  0
   -6.5124    5.1596   -4.0914 C   0  0  0  0  0  0  0  0  0  0  0  0
   -4.3394    6.4852   -0.1136 C   0  0  0  0  0  0  0  0  0  0  0  0
   -2.7477    5.9925   -0.1831 S   0  0  0  0  0  0  0  0  0  0  0  0
   -2.5517    5.9111    1.5078 C   0  0  0  0  0  0  0  0  0  0  0  0
   -3.7460    6.3177    2.1450 C   0  0  0  0  0  0  0  0  0  0  0  0
   -3.9365    6.4575    3.5732 N   0  0  0  0  0  0  0  0  0  0  0  0
   -5.0763    7.1594    4.0884 C   0  0  0  0  0  0  0  0  0  0  0  0
   -5.1424    8.5574    3.9917 C   0  0  0  0  0  0  0  0  0  0  0  0
   -6.2454    9.2505    4.4960 C   0  0  0  0  0  0  0  0  0  0  0  0
   -7.2962    8.5476    5.1084 C   0  0  0  0  0  0  0  0  0  0  0  0
   -8.4559    9.3036    5.6897 C   0  0  0  0  0  0  0  0  0  0  0  0
   -7.2231    7.1504    5.2195 C   0  0  0  0  0  0  0  0  0  0  0  0
   -6.1187    6.4576    4.7065 C   0  0  0  0  0  0  0  0  0  0  0  0
   -2.8301    6.3454    4.4882 C   0  0  0  0  0  0  0  0  0  0  0  0
   -2.8339    5.3464    5.4705 C   0  0  0  0  0  0  0  0  0  0  0  0
   -1.7355    5.1990    6.3253 C   0  0  0  0  0  0  0  0  0  0  0  0
   -0.6455    6.0735    6.2375 C   0  0  0  0  0  0  0  0  0  0  0  0
    0.5447    5.8799    7.1313 C   0  0  0  0  0  0  0  0  0  0  0  0
   -0.6597    7.0996    5.2747 C   0  0  0  0  0  0  0  0  0  0  0  0
   -1.7498    7.2380    4.4121 C   0  0  0  0  0  0  0  0  0  0  0  0
   -4.7358    6.5884    1.1843 C   0  0  0  0  0  0  0  0  0  0  0  0
   -6.4198    6.6557    1.2385 S   0  0  0  0  0  0  0  0  0  0  0  0
   -1.5143    5.0524    2.0876 C   0  0  0  0  0  0  0  0  0  0  0  0
   -0.1817    5.0522    1.6668 C   0  0  0  0  0  0  0  0  0  0  0  0
    0.4668    3.8691    2.0263 C   0  0  0  0  0  0  0  0  0  0  0  0
    1.6788    3.1749    1.4180 C   0  0  0  0  0  0  0  0  0  0  0  0
    2.9264    3.6608    2.2422 C   0  0  0  0  0  0  0  0  0  0  0  0
    3.9791    2.5968    2.5589 C   0  0  0  0  0  0  0  0  0  0  0  0
    1.7806    3.3738   -0.1064 C   0  0  0  0  0  0  0  0  0  0  0  0
    3.0278    3.3398   -0.7735 C   0  0  0  0  0  0  0  0  0  0  0  0
    3.1002    3.3861   -2.1688 C   0  0  0  0  0  0  0  0  0  0  0  0
    1.9356    3.5034   -2.9465 C   0  0  0  0  0  0  0  0  0  0  0  0
    2.0090    3.5273   -4.4526 C   0  0  0  0  0  0  0  0  0  0  0  0
    2.7957    4.7421   -4.9652 C   0  0  0  0  0  0  0  0  0  0  0  0
    0.6932    3.5280   -2.2985 C   0  0  0  0  0  0  0  0  0  0  0  0
    0.6149    3.4253   -0.9066 C   0  0  0  0  0  0  0  0  0  0  0  0
    1.2880    1.7380    1.7308 C   0  0  0  0  0  0  0  0  0  0  0  0
    0.2080    1.6640    2.6138 C   0  0  0  0  0  0  0  0  0  0  0  0
   -0.2923    3.0093    2.7735 C   0  0  0  0  0  0  0  0  0  0  0  0
   -1.8616    3.5842    2.8763 S   0  0  0  0  0  0  0  0  0  0  0  0
   -0.2931    0.4378    3.1013 C   0  0  0  0  0  0  0  0  0  0  0  0
    0.2844   -0.7428    2.5812 C   0  0  0  0  0  0  0  0  0  0  0  0
    0.0735   -2.2166    2.9854 C   0  0  0  0  0  0  0  0  0  0  0  0
   -1.3840   -2.7004    2.9714 C   0  0  0  0  0  0  0  0  0  0  0  0
   -1.7049   -3.9728    3.5061 C   0  0  0  0  0  0  0  0  0  0  0  0
   -3.0311   -4.4178    3.5539 C   0  0  0  0  0  0  0  0  0  0  0  0
   -4.0643   -3.6357    3.0229 C   0  0  0  0  0  0  0  0  0  0  0  0
   -5.4980   -4.0969    3.1268 C   0  0  0  0  0  0  0  0  0  0  0  0
   -6.1365   -3.6045    4.4212 C   0  0  0  0  0  0  0  0  0  0  0  0
   -3.7519   -2.4043    2.4311 C   0  0  0  0  0  0  0  0  0  0  0  0
   -2.4309   -1.9510    2.3885 C   0  0  0  0  0  0  0  0  0  0  0  0
    0.8104   -2.4857    4.3313 C   0  0  0  0  0  0  0  0  0  0  0  0
    0.1096   -1.9347    5.5794 C   0  0  0  0  0  0  0  0  0  0  0  0
    0.8569   -2.8783    1.8667 C   0  0  0  0  0  0  0  0  0  0  0  0
    1.4888   -1.9585    1.1046 C   0  0  0  0  0  0  0  0  0  0  0  0
    1.2245   -0.6413    1.5598 C   0  0  0  0  0  0  0  0  0  0  0  0
    1.7841    0.5685    1.1390 C   0  0  0  0  0  0  0  0  0  0  0  0
    2.4392   -2.6447   -0.0587 S   0  0  0  0  0  0  0  0  0  0  0  0
    2.0752   -4.2334    0.4306 C   0  0  0  0  0  0  0  0  0  0  0  0
    1.2101   -4.1980    1.5471 C   0  0  0  0  0  0  0  0  0  0  0  0
    2.8306   -5.3891   -0.0841 C   0  0  0  0  0  0  0  0  0  0  0  0
    3.3333   -5.4301   -1.3957 C   0  0  0  0  0  0  0  0  0  0  0  0
    2.6981   -4.7878   -2.5227 N   0  0  0  0  0  0  0  0  0  0  0  0
    1.4122   -5.3042   -2.9258 C   0  0  0  0  0  0  0  0  0  0  0  0
    1.2182   -6.6920   -3.0539 C   0  0  0  0  0  0  0  0  0  0  0  0
   -0.0195   -7.2052   -3.4389 C   0  0  0  0  0  0  0  0  0  0  0  0
   -1.0824   -6.3413   -3.7336 C   0  0  0  0  0  0  0  0  0  0  0  0
   -2.4215   -6.8939   -4.1233 C   0  0  0  0  0  0  0  0  0  0  0  0
   -0.9078   -4.9545   -3.5765 C   0  0  0  0  0  0  0  0  0  0  0  0
    0.3335   -4.4400   -3.1842 C   0  0  0  0  0  0  0  0  0  0  0  0
    3.3791   -3.7630   -3.2938 C   0  0  0  0  0  0  0  0  0  0  0  0
    3.0475   -3.5382   -4.6423 C   0  0  0  0  0  0  0  0  0  0  0  0
    3.7072   -2.5544   -5.3899 C   0  0  0  0  0  0  0  0  0  0  0  0
    4.7048   -1.7650   -4.7987 C   0  0  0  0  0  0  0  0  0  0  0  0
    5.4422   -0.7388   -5.6006 C   0  0  0  0  0  0  0  0  0  0  0  0
    5.0560   -1.9978   -3.4623 C   0  0  0  0  0  0  0  0  0  0  0  0
    4.3979   -2.9818   -2.7177 C   0  0  0  0  0  0  0  0  0  0  0  0
    4.5216   -6.1451   -1.4876 C   0  0  0  0  0  0  0  0  0  0  0  0
    5.8078   -5.9282   -2.5281 S   0  0  0  0  0  0  0  0  0  0  0  0
    6.9636   -6.5287   -1.4512 C   0  0  0  0  0  0  0  0  0  0  0  0
    6.3182   -7.0181   -0.2903 C   0  0  0  0  0  0  0  0  0  0  0  0
    6.9820   -7.6833    0.8181 N   0  0  0  0  0  0  0  0  0  0  0  0
    6.2222   -8.5398    1.6889 C   0  0  0  0  0  0  0  0  0  0  0  0
    6.4177   -8.4835    3.0771 C   0  0  0  0  0  0  0  0  0  0  0  0
    5.7934   -9.4128    3.9206 C   0  0  0  0  0  0  0  0  0  0  0  0
    4.9581  -10.4079    3.3895 C   0  0  0  0  0  0  0  0  0  0  0  0
    4.3148  -11.4341    4.2744 C   0  0  0  0  0  0  0  0  0  0  0  0
    4.7545  -10.4592    1.9977 C   0  0  0  0  0  0  0  0  0  0  0  0
    5.3949   -9.5457    1.1582 C   0  0  0  0  0  0  0  0  0  0  0  0
    8.3781   -8.0097    0.7002 C   0  0  0  0  0  0  0  0  0  0  0  0
    9.3198   -7.3483    1.4945 C   0  0  0  0  0  0  0  0  0  0  0  0
   10.6826   -7.6157    1.3241 C   0  0  0  0  0  0  0  0  0  0  0  0
   11.1131   -8.5374    0.3525 C   0  0  0  0  0  0  0  0  0  0  0  0
   12.5731   -8.8280    0.1842 C   0  0  0  0  0  0  0  0  0  0  0  0
   10.1604   -9.2316   -0.4081 C   0  0  0  0  0  0  0  0  0  0  0  0
    8.7987   -8.9611   -0.2406 C   0  0  0  0  0  0  0  0  0  0  0  0
    4.9516   -6.7118   -0.3295 C   0  0  0  0  0  0  0  0  0  0  0  0
    3.8857   -6.2868    0.9080 S   0  0  0  0  0  0  0  0  0  0  0  0
    8.3361   -5.9828   -1.4955 C   0  0  0  0  0  0  0  0  0  0  0  0
    8.6720   -4.8122   -0.8990 C   0  0  0  0  0  0  0  0  0  0  0  0
    7.7826   -4.0007   -0.0373 C   0  0  0  0  0  0  0  0  0  0  0  0
    6.6545   -4.3221    0.4164 O   0  0  0  0  0  0  0  0  0  0  0  0
    8.4321   -2.7494    0.2645 C   0  0  0  0  0  0  0  0  0  0  0  0
    7.9870   -1.7184    1.1015 C   0  0  0  0  0  0  0  0  0  0  0  0
    8.8433   -0.6436    1.3554 C   0  0  0  0  0  0  0  0  0  0  0  0
   10.1375   -0.6387    0.8089 C   0  0  0  0  0  0  0  0  0  0  0  0
   11.3177    0.8000    1.2208 Br  0  0  0  0  0  0  0  0  0  0  0  0
   10.5715   -1.6869   -0.0206 C   0  0  0  0  0  0  0  0  0  0  0  0
    9.6881   -2.7236   -0.3286 C   0  0  0  0  0  0  0  0  0  0  0  0
    9.9058   -3.9743   -1.1253 C   0  0  0  0  0  0  0  0  0  0  0  0
   10.8478   -4.1444   -2.0818 C   0  0  0  0  0  0  0  0  0  0  0  0
   11.7211   -3.0671   -2.4671 C   0  0  0  0  0  0  0  0  0  0  0  0
   12.4125   -2.1876   -2.7834 N   0  0  0  0  0  0  0  0  0  0  0  0
   11.2127   -5.4354   -2.5909 C   0  0  0  0  0  0  0  0  0  0  0  0
   11.5453   -6.4911   -2.9194 N   0  0  0  0  0  0  0  0  0  0  0  0
   -8.5713    7.1129   -1.2021 H   0  0  0  0  0  0  0  0  0  0  0  0
  -11.4416    2.5142   -2.8994 H   0  0  0  0  0  0  0  0  0  0  0  0
  -10.9760    0.1102   -2.7274 H   0  0  0  0  0  0  0  0  0  0  0  0
   -6.7355    8.3077   -3.5378 H   0  0  0  0  0  0  0  0  0  0  0  0
   -6.0140   10.3463   -4.7237 H   0  0  0  0  0  0  0  0  0  0  0  0
   -2.3656   11.2248   -5.3255 H   0  0  0  0  0  0  0  0  0  0  0  0
   -3.9403   11.2534   -6.1888 H   0  0  0  0  0  0  0  0  0  0  0  0
   -3.7661   12.0818   -4.5880 H   0  0  0  0  0  0  0  0  0  0  0  0
   -1.8912    9.2556   -4.0581 H   0  0  0  0  0  0  0  0  0  0  0  0
   -2.6182    7.1973   -2.9295 H   0  0  0  0  0  0  0  0  0  0  0  0
   -3.8183    4.0940   -2.3003 H   0  0  0  0  0  0  0  0  0  0  0  0
   -4.4552    1.9535   -3.3356 H   0  0  0  0  0  0  0  0  0  0  0  0
   -5.7950    0.9379   -5.4328 H   0  0  0  0  0  0  0  0  0  0  0  0
   -6.9303    0.7921   -4.0432 H   0  0  0  0  0  0  0  0  0  0  0  0
   -7.4878    1.5367   -5.5816 H   0  0  0  0  0  0  0  0  0  0  0  0
   -7.7811    3.8947   -5.2737 H   0  0  0  0  0  0  0  0  0  0  0  0
   -7.1148    6.0400   -4.2864 H   0  0  0  0  0  0  0  0  0  0  0  0
   -4.3379    9.1068    3.5238 H   0  0  0  0  0  0  0  0  0  0  0  0
   -6.2824   10.3291    4.4146 H   0  0  0  0  0  0  0  0  0  0  0  0
   -9.3034    8.6240    5.9219 H   0  0  0  0  0  0  0  0  0  0  0  0
   -8.8113   10.0658    4.9665 H   0  0  0  0  0  0  0  0  0  0  0  0
   -8.1415    9.8107    6.6242 H   0  0  0  0  0  0  0  0  0  0  0  0
   -8.0136    6.5920    5.7041 H   0  0  0  0  0  0  0  0  0  0  0  0
   -6.0692    5.3810    4.7942 H   0  0  0  0  0  0  0  0  0  0  0  0
   -3.6673    4.6589    5.5457 H   0  0  0  0  0  0  0  0  0  0  0  0
   -1.7341    4.3937    7.0485 H   0  0  0  0  0  0  0  0  0  0  0  0
    1.0773    4.9509    6.8427 H   0  0  0  0  0  0  0  0  0  0  0  0
    1.2453    6.7350    7.0654 H   0  0  0  0  0  0  0  0  0  0  0  0
    0.2063    5.7941    8.1878 H   0  0  0  0  0  0  0  0  0  0  0  0
    0.1683    7.7902    5.1967 H   0  0  0  0  0  0  0  0  0  0  0  0
   -1.7512    8.0338    3.6786 H   0  0  0  0  0  0  0  0  0  0  0  0
    0.2299    5.7773    0.9706 H   0  0  0  0  0  0  0  0  0  0  0  0
    2.5971    4.0453    3.2365 H   0  0  0  0  0  0  0  0  0  0  0  0
    3.4056    4.5290    1.7437 H   0  0  0  0  0  0  0  0  0  0  0  0
    4.5151    2.2560    1.6417 H   0  0  0  0  0  0  0  0  0  0  0  0
    3.5350    1.7197    3.0871 H   0  0  0  0  0  0  0  0  0  0  0  0
    4.7446    3.0379    3.2422 H   0  0  0  0  0  0  0  0  0  0  0  0
    3.9547    3.2768   -0.2299 H   0  0  0  0  0  0  0  0  0  0  0  0
    4.0694    3.3271   -2.6492 H   0  0  0  0  0  0  0  0  0  0  0  0
    0.9878    3.5607   -4.8981 H   0  0  0  0  0  0  0  0  0  0  0  0
    2.4958    2.5959   -4.8210 H   0  0  0  0  0  0  0  0  0  0  0  0
    3.8634    4.6737   -4.6577 H   0  0  0  0  0  0  0  0  0  0  0  0
    2.7559    4.7485   -6.0753 H   0  0  0  0  0  0  0  0  0  0  0  0
    2.3382    5.6819   -4.6085 H   0  0  0  0  0  0  0  0  0  0  0  0
   -0.2222    3.5726   -2.8719 H   0  0  0  0  0  0  0  0  0  0  0  0
   -0.3669    3.3730   -0.4609 H   0  0  0  0  0  0  0  0  0  0  0  0
   -1.1082    0.4106    3.8193 H   0  0  0  0  0  0  0  0  0  0  0  0
   -0.9397   -4.6167    3.9161 H   0  0  0  0  0  0  0  0  0  0  0  0
   -3.2526   -5.3746    4.0069 H   0  0  0  0  0  0  0  0  0  0  0  0
   -6.0825   -3.7236    2.2602 H   0  0  0  0  0  0  0  0  0  0  0  0
   -5.5446   -5.2075    3.0962 H   0  0  0  0  0  0  0  0  0  0  0  0
   -6.0965   -2.4955    4.4721 H   0  0  0  0  0  0  0  0  0  0  0  0
   -5.6092   -4.0276    5.2994 H   0  0  0  0  0  0  0  0  0  0  0  0
   -7.2055   -3.9196    4.4582 H   0  0  0  0  0  0  0  0  0  0  0  0
   -4.5301   -1.7936    2.0022 H   0  0  0  0  0  0  0  0  0  0  0  0
   -2.2368   -1.0052    1.9091 H   0  0  0  0  0  0  0  0  0  0  0  0
    0.9617   -3.5795    4.4804 H   0  0  0  0  0  0  0  0  0  0  0  0
    1.8331   -2.0496    4.2893 H   0  0  0  0  0  0  0  0  0  0  0  0
   -0.0107   -0.8392    5.5197 H   0  0  0  0  0  0  0  0  0  0  0  0
   -0.8723   -2.4186    5.7127 H   0  0  0  0  0  0  0  0  0  0  0  0
    0.7291   -2.1612    6.4680 H   0  0  0  0  0  0  0  0  0  0  0  0
    2.5579    0.5961    0.3850 H   0  0  0  0  0  0  0  0  0  0  0  0
    0.9109   -5.0677    2.1115 H   0  0  0  0  0  0  0  0  0  0  0  0
    2.0316   -7.3757   -2.8597 H   0  0  0  0  0  0  0  0  0  0  0  0
   -0.1467   -8.2747   -3.5298 H   0  0  0  0  0  0  0  0  0  0  0  0
   -2.9777   -6.1761   -4.7577 H   0  0  0  0  0  0  0  0  0  0  0  0
   -2.2914   -7.8352   -4.7040 H   0  0  0  0  0  0  0  0  0  0  0  0
   -3.0139   -7.1185   -3.2122 H   0  0  0  0  0  0  0  0  0  0  0  0
   -1.7296   -4.2737   -3.7736 H   0  0  0  0  0  0  0  0  0  0  0  0
    0.4519   -3.3671   -3.0670 H   0  0  0  0  0  0  0  0  0  0  0  0
    2.3094   -4.1535   -5.1446 H   0  0  0  0  0  0  0  0  0  0  0  0
    3.4454   -2.4222   -6.4349 H   0  0  0  0  0  0  0  0  0  0  0  0
    6.4273   -1.1485   -5.9081 H   0  0  0  0  0  0  0  0  0  0  0  0
    4.8705   -0.4537   -6.5128 H   0  0  0  0  0  0  0  0  0  0  0  0
    5.6066    0.1807   -4.9931 H   0  0  0  0  0  0  0  0  0  0  0  0
    5.8535   -1.4331   -2.9971 H   0  0  0  0  0  0  0  0  0  0  0  0
    4.7109   -3.1484   -1.6976 H   0  0  0  0  0  0  0  0  0  0  0  0
    7.0680   -7.7319    3.5028 H   0  0  0  0  0  0  0  0  0  0  0  0
    5.9754   -9.3627    4.9923 H   0  0  0  0  0  0  0  0  0  0  0  0
    4.6632  -12.4534    3.9979 H   0  0  0  0  0  0  0  0  0  0  0  0
    4.5468  -11.2541    5.3411 H   0  0  0  0  0  0  0  0  0  0  0  0
    3.2102  -11.3870    4.1431 H   0  0  0  0  0  0  0  0  0  0  0  0
    4.1295  -11.2313    1.5696 H   0  0  0  0  0  0  0  0  0  0  0  0
    5.2568   -9.6312    0.0860 H   0  0  0  0  0  0  0  0  0  0  0  0
    9.0003   -6.6187    2.2237 H   0  0  0  0  0  0  0  0  0  0  0  0
   11.4066   -7.0955    1.9390 H   0  0  0  0  0  0  0  0  0  0  0  0
   12.7783   -9.2245   -0.8320 H   0  0  0  0  0  0  0  0  0  0  0  0
   13.1702   -7.8963    0.3159 H   0  0  0  0  0  0  0  0  0  0  0  0
   12.8911   -9.5784    0.9386 H   0  0  0  0  0  0  0  0  0  0  0  0
   10.4681   -9.9655   -1.1429 H   0  0  0  0  0  0  0  0  0  0  0  0
    8.0763   -9.4823   -0.8560 H   0  0  0  0  0  0  0  0  0  0  0  0
    9.0074   -6.4700   -2.1845 H   0  0  0  0  0  0  0  0  0  0  0  0
    7.0101   -1.7549    1.5578 H   0  0  0  0  0  0  0  0  0  0  0  0
    8.5121    0.1706    1.9933 H   0  0  0  0  0  0  0  0  0  0  0  0
   11.5884   -1.6807   -0.3592 H   0  0  0  0  0  0  0  0  0  0  0  0
  1  2  2  3
  2  3  1  0
  3  4  2  0
  3  5  1  0
  5  6  2  0
  6  7  1  0
  7  8  2  0
  8  9  1  0
  9 10  1  0
  9 11  2  0
 11 12  1  0
  6 13  1  0
 13 14  2  3
 14 15  1  0
 15 16  3  0
 14 17  1  0
 17 18  3  0
  1 19  1  0
 19 20  2  0
 20 21  1  0
 21 22  1  0
 22 23  2  0
 23 24  1  0
 24 25  2  0
 25 26  1  0
 25 27  1  0
 27 28  2  0
 21 29  1  0
 29 30  2  0
 30 31  1  0
 31 32  2  0
 32 33  1  0
 32 34  1  0
 34 35  2  0
 20 36  1  0
 36 37  1  0
 37 38  1  0
 38 39  2  0
 39 40  1  0
 40 41  1  0
 41 42  2  0
 42 43  1  0
 43 44  2  0
 44 45  1  0
 44 46  1  0
 46 47  2  0
 40 48  1  0
 48 49  2  0
 49 50  1  0
 50 51  2  0
 51 52  1  0
 51 53  1  0
 53 54  2  0
 39 55  1  0
 55 56  1  0
 38 57  1  0
 57 58  2  0
 58 59  1  0
 59 60  1  0
 60 61  1  0
 61 62  1  0
 60 63  1  0
 63 64  2  0
 64 65  1  0
 65 66  2  0
 66 67  1  0
 67 68  1  0
 66 69  1  0
 69 70  2  0
 60 71  1  0
 71 72  2  0
 72 73  1  0
 73 74  1  0
 72 75  1  0
 75 76  2  0
 76 77  1  0
 77 78  1  0
 78 79  2  0
 79 80  1  0
 80 81  2  0
 81 82  1  0
 82 83  1  0
 81 84  1  0
 84 85  2  0
 77 86  1  0
 86 87  1  0
 77 88  1  0
 88 89  2  0
 89 90  1  0
 90 91  2  0
 89 92  1  0
 92 93  1  0
 93 94  2  0
 93 95  1  0
 95 96  2  0
 96 97  1  0
 97 98  1  0
 98 99  2  0
 99100  1  0
100101  2  0
101102  1  0
101103  1  0
103104  2  0
 97105  1  0
105106  2  0
106107  1  0
107108  2  0
108109  1  0
108110  1  0
110111  2  0
 96112  1  0
112113  1  0
113114  1  0
114115  2  0
115116  1  0
116117  1  0
117118  2  0
118119  1  0
119120  2  0
120121  1  0
120122  1  0
122123  2  0
116124  1  0
124125  2  0
125126  1  0
126127  2  0
127128  1  0
127129  1  0
129130  2  0
115131  1  0
131132  1  0
114133  1  0
133134  2  3
134135  1  0
135136  2  0
135137  1  0
137138  2  0
138139  1  0
139140  2  0
140141  1  0
140142  1  0
142143  2  0
143144  1  0
144145  2  3
145146  1  0
146147  3  0
145148  1  0
148149  3  0
 13  2  1  0
 56 19  1  0
 74 57  1  0
 90 76  1  0
132 95  1  0
144134  1  0
 11  5  1  0
 28 22  1  0
 35 29  1  0
 55 36  2  0
 73 59  2  0
 85 78  1  0
 94 88  1  0
104 98  1  0
111105  1  0
131112  2  0
143137  1  0
 47 41  1  0
 54 48  1  0
 70 63  1  0
 91 71  1  0
123117  1  0
130124  1  0
  1150  1  0
  7151  1  0
  8152  1  0
 23153  1  0
 24154  1  0
 26155  1  0
 26156  1  0
 26157  1  0
 27158  1  0
 28159  1  0
 30160  1  0
 31161  1  0
 33162  1  0
 33163  1  0
 33164  1  0
 34165  1  0
 35166  1  0
 42167  1  0
 43168  1  0
 45169  1  0
 45170  1  0
 45171  1  0
 46172  1  0
 47173  1  0
 49174  1  0
 50175  1  0
 52176  1  0
 52177  1  0
 52178  1  0
 53179  1  0
 54180  1  0
 58181  1  0
 61182  1  0
 61183  1  0
 62184  1  0
 62185  1  0
 62186  1  0
 64187  1  0
 65188  1  0
 67189  1  0
 67190  1  0
 68191  1  0
 68192  1  0
 68193  1  0
 69194  1  0
 70195  1  0
 75196  1  0
 79197  1  0
 80198  1  0
 82199  1  0
 82200  1  0
 83201  1  0
 83202  1  0
 83203  1  0
 84204  1  0
 85205  1  0
 86206  1  0
 86207  1  0
 87208  1  0
 87209  1  0
 87210  1  0
 91211  1  0
 94212  1  0
 99213  1  0
100214  1  0
102215  1  0
102216  1  0
102217  1  0
103218  1  0
104219  1  0
106220  1  0
107221  1  0
109222  1  0
109223  1  0
109224  1  0
110225  1  0
111226  1  0
118227  1  0
119228  1  0
121229  1  0
121230  1  0
121231  1  0
122232  1  0
123233  1  0
125234  1  0
126235  1  0
128236  1  0
128237  1  0
128238  1  0
129239  1  0
130240  1  0
133241  1  0
138242  1  0
139243  1  0
142244  1  0
M  END

