
     RDKit          3D

280306  0  0  0  0  0  0  0  0999 V2000
   -6.4765    2.6170   -8.4918 C   0  0  0  0  0  0  0  0  0  0  0  0
   -6.4174    1.2678   -8.4250 C   0  0  0  0  0  0  0  0  0  0  0  0
   -5.5359    0.4779   -7.5544 C   0  0  0  0  0  0  0  0  0  0  0  0
   -4.4074    0.8297   -7.1200 O   0  0  0  0  0  0  0  0  0  0  0  0
   -6.1176   -0.8391   -7.3618 C   0  0  0  0  0  0  0  0  0  0  0  0
   -7.2788   -0.9376   -8.1118 C   0  0  0  0  0  0  0  0  0  0  0  0
   -8.0269   -2.1277   -8.0809 C   0  0  0  0  0  0  0  0  0  0  0  0
   -7.5703   -3.2020   -7.3082 C   0  0  0  0  0  0  0  0  0  0  0  0
   -6.3913   -3.0974   -6.5550 C   0  0  0  0  0  0  0  0  0  0  0  0
   -5.8351   -4.6071   -5.5136 Br  0  0  0  0  0  0  0  0  0  0  0  0
   -5.6501   -1.9013   -6.5654 C   0  0  0  0  0  0  0  0  0  0  0  0
   -4.2004   -1.7241   -5.5837 Cl  0  0  0  0  0  0  0  0  0  0  0  0
   -7.4869    0.3262   -8.8848 C   0  0  0  0  0  0  0  0  0  0  0  0
   -8.3996    0.5502   -9.8696 C   0  0  0  0  0  0  0  0  0  0  0  0
   -9.4769   -0.3546  -10.1565 C   0  0  0  0  0  0  0  0  0  0  0  0
  -10.3579   -1.0650  -10.4048 N   0  0  0  0  0  0  0  0  0  0  0  0
   -8.3117    1.6820  -10.7593 C   0  0  0  0  0  0  0  0  0  0  0  0
   -8.2577    2.5808  -11.4913 N   0  0  0  0  0  0  0  0  0  0  0  0
   -5.7401    3.5497   -7.6198 C   0  0  0  0  0  0  0  0  0  0  0  0
   -6.3802    4.3652   -6.6823 C   0  0  0  0  0  0  0  0  0  0  0  0
   -7.7337    4.1410   -6.2516 N   0  0  0  0  0  0  0  0  0  0  0  0
   -8.8083    4.7846   -6.9695 C   0  0  0  0  0  0  0  0  0  0  0  0
   -8.6109    6.0458   -7.5593 C   0  0  0  0  0  0  0  0  0  0  0  0
   -9.6231    6.6461   -8.3058 C   0  0  0  0  0  0  0  0  0  0  0  0
  -10.8621    6.0056   -8.4562 C   0  0  0  0  0  0  0  0  0  0  0  0
  -11.9244    6.6330   -9.3079 C   0  0  0  0  0  0  0  0  0  0  0  0
  -11.0667    4.7510   -7.8672 C   0  0  0  0  0  0  0  0  0  0  0  0
  -10.0461    4.1418   -7.1302 C   0  0  0  0  0  0  0  0  0  0  0  0
   -7.9494    3.3657   -5.0462 C   0  0  0  0  0  0  0  0  0  0  0  0
   -8.9302    3.7445   -4.1146 C   0  0  0  0  0  0  0  0  0  0  0  0
   -9.0421    3.0763   -2.8899 C   0  0  0  0  0  0  0  0  0  0  0  0
   -8.1853    2.0086   -2.5837 C   0  0  0  0  0  0  0  0  0  0  0  0
   -8.2444    1.3389   -1.2423 C   0  0  0  0  0  0  0  0  0  0  0  0
   -7.2087    1.6218   -3.5100 C   0  0  0  0  0  0  0  0  0  0  0  0
   -7.0947    2.2904   -4.7264 C   0  0  0  0  0  0  0  0  0  0  0  0
   -5.4710    5.0636   -5.9055 C   0  0  0  0  0  0  0  0  0  0  0  0
   -5.6494    5.7588   -4.4039 S   0  0  0  0  0  0  0  0  0  0  0  0
   -4.0172    5.6061   -3.9534 C   0  0  0  0  0  0  0  0  0  0  0  0
   -3.3193    5.0395   -5.0439 C   0  0  0  0  0  0  0  0  0  0  0  0
   -1.9568    4.5887   -4.9843 N   0  0  0  0  0  0  0  0  0  0  0  0
   -1.6398    3.2001   -4.7052 C   0  0  0  0  0  0  0  0  0  0  0  0
   -2.5678    2.3606   -4.0541 C   0  0  0  0  0  0  0  0  0  0  0  0
   -2.2372    1.0486   -3.7176 C   0  0  0  0  0  0  0  0  0  0  0  0
   -0.9811    0.5253   -4.0607 C   0  0  0  0  0  0  0  0  0  0  0  0
   -0.6369   -0.8886   -3.6963 C   0  0  0  0  0  0  0  0  0  0  0  0
   -0.0815    1.3232   -4.7845 C   0  0  0  0  0  0  0  0  0  0  0  0
   -0.4049    2.6420   -5.1035 C   0  0  0  0  0  0  0  0  0  0  0  0
   -0.9424    5.5473   -5.3519 C   0  0  0  0  0  0  0  0  0  0  0  0
    0.2135    5.7003   -4.5672 C   0  0  0  0  0  0  0  0  0  0  0  0
    1.2044    6.6139   -4.9413 C   0  0  0  0  0  0  0  0  0  0  0  0
    1.0437    7.4066   -6.0895 C   0  0  0  0  0  0  0  0  0  0  0  0
    2.1300    8.3473   -6.5240 C   0  0  0  0  0  0  0  0  0  0  0  0
   -0.1127    7.2604   -6.8697 C   0  0  0  0  0  0  0  0  0  0  0  0
   -1.0975    6.3421   -6.5021 C   0  0  0  0  0  0  0  0  0  0  0  0
   -4.1690    4.7512   -6.1156 C   0  0  0  0  0  0  0  0  0  0  0  0
   -4.0479    3.6692   -7.4025 S   0  0  0  0  0  0  0  0  0  0  0  0
   -3.7350    5.2528   -2.5587 C   0  0  0  0  0  0  0  0  0  0  0  0
   -4.7379    4.1450   -1.7555 S   0  0  0  0  0  0  0  0  0  0  0  0
   -3.7595    4.0849   -0.4241 C   0  0  0  0  0  0  0  0  0  0  0  0
   -3.6075    3.1419    0.6206 C   0  0  0  0  0  0  0  0  0  0  0  0
   -2.4647    3.5028    1.3481 C   0  0  0  0  0  0  0  0  0  0  0  0
   -1.7147    4.6473    0.6224 C   0  0  0  0  0  0  0  0  0  0  0  0
   -0.3309    4.1265    0.2053 C   0  0  0  0  0  0  0  0  0  0  0  0
   -0.1349    3.4060   -0.9921 C   0  0  0  0  0  0  0  0  0  0  0  0
    1.1176    2.8725   -1.3053 C   0  0  0  0  0  0  0  0  0  0  0  0
    2.1902    3.0158   -0.4133 C   0  0  0  0  0  0  0  0  0  0  0  0
    3.5491    2.4716   -0.7551 C   0  0  0  0  0  0  0  0  0  0  0  0
    4.4306    3.5564   -1.3600 C   0  0  0  0  0  0  0  0  0  0  0  0
    1.9936    3.6919    0.7958 C   0  0  0  0  0  0  0  0  0  0  0  0
    0.7460    4.2289    1.1094 C   0  0  0  0  0  0  0  0  0  0  0  0
   -1.6439    5.9787    1.3745 C   0  0  0  0  0  0  0  0  0  0  0  0
   -0.8935    7.0334    0.8176 C   0  0  0  0  0  0  0  0  0  0  0  0
   -0.9071    8.3021    1.3933 C   0  0  0  0  0  0  0  0  0  0  0  0
   -1.6714    8.5510    2.5396 C   0  0  0  0  0  0  0  0  0  0  0  0
   -1.7476    9.9484    3.1043 C   0  0  0  0  0  0  0  0  0  0  0  0
   -2.6594   10.8329    2.2576 C   0  0  0  0  0  0  0  0  0  0  0  0
   -2.4201    7.5075    3.1044 C   0  0  0  0  0  0  0  0  0  0  0  0
   -2.4056    6.2323    2.5306 C   0  0  0  0  0  0  0  0  0  0  0  0
   -2.6608    4.8607   -0.5500 C   0  0  0  0  0  0  0  0  0  0  0  0
   -2.5964    5.5373   -1.7811 C   0  0  0  0  0  0  0  0  0  0  0  0
   -1.9606    2.6239    2.3373 C   0  0  0  0  0  0  0  0  0  0  0  0
   -2.5301    1.3365    2.3767 C   0  0  0  0  0  0  0  0  0  0  0  0
   -2.1430    0.1899    3.0379 C   0  0  0  0  0  0  0  0  0  0  0  0
   -1.3665   -0.0101    4.1874 C   0  0  0  0  0  0  0  0  0  0  0  0
   -1.2047   -1.3538    4.6088 C   0  0  0  0  0  0  0  0  0  0  0  0
   -1.5059   -2.3829    3.7101 C   0  0  0  0  0  0  0  0  0  0  0  0
   -2.3193   -2.1854    2.5933 C   0  0  0  0  0  0  0  0  0  0  0  0
   -2.7255   -0.8692    2.3529 C   0  0  0  0  0  0  0  0  0  0  0  0
   -3.5626   -0.4253    1.3849 N   0  0  0  0  0  0  0  0  0  0  0  0
   -4.4054   -1.2250    0.4887 C   0  0  0  0  0  0  0  0  0  0  0  0
   -5.8242   -1.3234    1.0420 C   0  0  0  0  0  0  0  0  0  0  0  0
   -3.4719    0.9239    1.4410 C   0  0  0  0  0  0  0  0  0  0  0  0
   -4.0959    1.8353    0.5968 C   0  0  0  0  0  0  0  0  0  0  0  0
   -0.5843   -3.4718    3.9565 C   0  0  0  0  0  0  0  0  0  0  0  0
    0.4471   -4.1066    2.7863 S   0  0  0  0  0  0  0  0  0  0  0  0
    1.8449   -3.9196    3.6981 C   0  0  0  0  0  0  0  0  0  0  0  0
    1.5313   -3.2975    4.8924 C   0  0  0  0  0  0  0  0  0  0  0  0
    0.1578   -3.0927    5.0671 C   0  0  0  0  0  0  0  0  0  0  0  0
   -0.5529   -1.9881    5.8418 C   0  0  0  0  0  0  0  0  0  0  0  0
   -1.6621   -2.6107    6.7121 C   0  0  0  0  0  0  0  0  0  0  0  0
   -2.8701   -1.9173    6.9413 C   0  0  0  0  0  0  0  0  0  0  0  0
   -3.8872   -2.4861    7.7095 C   0  0  0  0  0  0  0  0  0  0  0  0
   -3.7062   -3.7434    8.3032 C   0  0  0  0  0  0  0  0  0  0  0  0
   -4.8137   -4.3581    9.1089 C   0  0  0  0  0  0  0  0  0  0  0  0
   -5.7447   -5.1576    8.2057 C   0  0  0  0  0  0  0  0  0  0  0  0
   -2.5034   -4.4315    8.1024 C   0  0  0  0  0  0  0  0  0  0  0  0
   -1.4845   -3.8664    7.3346 C   0  0  0  0  0  0  0  0  0  0  0  0
    0.2923   -1.1107    6.7766 C   0  0  0  0  0  0  0  0  0  0  0  0
   -0.1632    0.1677    7.1641 C   0  0  0  0  0  0  0  0  0  0  0  0
    0.5040    0.9115    8.1391 C   0  0  0  0  0  0  0  0  0  0  0  0
    1.6186    0.3799    8.8006 C   0  0  0  0  0  0  0  0  0  0  0  0
    2.3415    1.1899    9.8406 C   0  0  0  0  0  0  0  0  0  0  0  0
    1.7883    0.9100   11.2330 C   0  0  0  0  0  0  0  0  0  0  0  0
    1.9862   -0.9439    8.5397 C   0  0  0  0  0  0  0  0  0  0  0  0
    1.2999   -1.6938    7.5828 C   0  0  0  0  0  0  0  0  0  0  0  0
    3.2094   -4.0069    3.1964 C   0  0  0  0  0  0  0  0  0  0  0  0
    4.0896   -2.9159    3.1889 C   0  0  0  0  0  0  0  0  0  0  0  0
    3.7088   -1.6258    2.6939 N   0  0  0  0  0  0  0  0  0  0  0  0
    3.9368   -1.3821    1.2963 C   0  0  0  0  0  0  0  0  0  0  0  0
    3.1506   -2.0269    0.3311 C   0  0  0  0  0  0  0  0  0  0  0  0
    3.4425   -1.8777   -1.0266 C   0  0  0  0  0  0  0  0  0  0  0  0
    4.5443   -1.1112   -1.4327 C   0  0  0  0  0  0  0  0  0  0  0  0
    4.8379   -0.9370   -2.8957 C   0  0  0  0  0  0  0  0  0  0  0  0
    5.3235   -0.4544   -0.4666 C   0  0  0  0  0  0  0  0  0  0  0  0
    5.0194   -0.5892    0.8909 C   0  0  0  0  0  0  0  0  0  0  0  0
    3.2570   -0.5629    3.5577 C   0  0  0  0  0  0  0  0  0  0  0  0
    3.7299   -0.4523    4.8760 C   0  0  0  0  0  0  0  0  0  0  0  0
    3.3751    0.6466    5.6655 C   0  0  0  0  0  0  0  0  0  0  0  0
    2.5171    1.6365    5.1577 C   0  0  0  0  0  0  0  0  0  0  0  0
    2.2075    2.8674    5.9552 C   0  0  0  0  0  0  0  0  0  0  0  0
    2.0142    1.5090    3.8576 C   0  0  0  0  0  0  0  0  0  0  0  0
    2.3774    0.4195    3.0638 C   0  0  0  0  0  0  0  0  0  0  0  0
    5.4030   -3.3598    3.1527 C   0  0  0  0  0  0  0  0  0  0  0  0
    6.8871   -2.5870    3.0977 S   0  0  0  0  0  0  0  0  0  0  0  0
    7.7537   -4.0498    2.9931 C   0  0  0  0  0  0  0  0  0  0  0  0
    6.8708   -5.1330    2.8601 C   0  0  0  0  0  0  0  0  0  0  0  0
    7.1567   -6.2455    1.9995 N   0  0  0  0  0  0  0  0  0  0  0  0
    7.7420   -7.4395    2.5385 C   0  0  0  0  0  0  0  0  0  0  0  0
    7.2441   -7.9987    3.7251 C   0  0  0  0  0  0  0  0  0  0  0  0
    7.8369   -9.1377    4.2684 C   0  0  0  0  0  0  0  0  0  0  0  0
    8.9526   -9.7197    3.6460 C   0  0  0  0  0  0  0  0  0  0  0  0
    9.6097  -10.9206    4.2482 C   0  0  0  0  0  0  0  0  0  0  0  0
    9.4362   -9.1746    2.4467 C   0  0  0  0  0  0  0  0  0  0  0  0
    8.8319   -8.0463    1.8939 C   0  0  0  0  0  0  0  0  0  0  0  0
    6.7574   -6.1566    0.6099 C   0  0  0  0  0  0  0  0  0  0  0  0
    6.8871   -4.9443   -0.0975 C   0  0  0  0  0  0  0  0  0  0  0  0
    6.3539   -4.8031   -1.3774 C   0  0  0  0  0  0  0  0  0  0  0  0
    5.6950   -5.8747   -1.9932 C   0  0  0  0  0  0  0  0  0  0  0  0
    5.0370   -5.6848   -3.3265 C   0  0  0  0  0  0  0  0  0  0  0  0
    5.5785   -7.0943   -1.3053 C   0  0  0  0  0  0  0  0  0  0  0  0
    6.1120   -7.2369   -0.0200 C   0  0  0  0  0  0  0  0  0  0  0  0
    5.5621   -4.6989    3.0487 C   0  0  0  0  0  0  0  0  0  0  0  0
    4.0717   -5.4663    3.0655 S   0  0  0  0  0  0  0  0  0  0  0  0
    9.2141   -4.1350    2.9223 C   0  0  0  0  0  0  0  0  0  0  0  0
    9.9578   -4.9402    3.7059 C   0  0  0  0  0  0  0  0  0  0  0  0
   11.3160   -5.3382    3.3542 C   0  0  0  0  0  0  0  0  0  0  0  0
   12.0686   -4.7612    2.5226 O   0  0  0  0  0  0  0  0  0  0  0  0
   11.6506   -6.5316    4.1009 C   0  0  0  0  0  0  0  0  0  0  0  0
   12.8147   -7.2963    4.0315 C   0  0  0  0  0  0  0  0  0  0  0  0
   12.9257   -8.4221    4.8556 C   0  0  0  0  0  0  0  0  0  0  0  0
   11.8791   -8.7649    5.7328 C   0  0  0  0  0  0  0  0  0  0  0  0
   12.0426  -10.3132    6.8383 Br  0  0  0  0  0  0  0  0  0  0  0  0
   10.7130   -7.9844    5.7813 C   0  0  0  0  0  0  0  0  0  0  0  0
   10.6056   -6.8547    4.9546 C   0  0  0  0  0  0  0  0  0  0  0  0
    9.5374   -5.8196    4.8443 C   0  0  0  0  0  0  0  0  0  0  0  0
    8.6268   -5.5244    5.8067 C   0  0  0  0  0  0  0  0  0  0  0  0
    8.2586   -6.4480    6.8532 C   0  0  0  0  0  0  0  0  0  0  0  0
    7.9396   -7.1666    7.7023 N   0  0  0  0  0  0  0  0  0  0  0  0
    8.0743   -4.2101    5.9635 C   0  0  0  0  0  0  0  0  0  0  0  0
    7.6216   -3.1561    6.1363 N   0  0  0  0  0  0  0  0  0  0  0  0
   -7.3223    3.0724   -8.9756 H   0  0  0  0  0  0  0  0  0  0  0  0
   -8.9458   -2.2578   -8.6265 H   0  0  0  0  0  0  0  0  0  0  0  0
   -8.1380   -4.1226   -7.2925 H   0  0  0  0  0  0  0  0  0  0  0  0
   -7.6643    6.5593   -7.4496 H   0  0  0  0  0  0  0  0  0  0  0  0
   -9.4355    7.6012   -8.7764 H   0  0  0  0  0  0  0  0  0  0  0  0
  -11.9357    7.7344   -9.1672 H   0  0  0  0  0  0  0  0  0  0  0  0
  -12.9301    6.2423   -9.0421 H   0  0  0  0  0  0  0  0  0  0  0  0
  -11.7257    6.4058  -10.3775 H   0  0  0  0  0  0  0  0  0  0  0  0
  -12.0115    4.2313   -7.9852 H   0  0  0  0  0  0  0  0  0  0  0  0
  -10.2209    3.1608   -6.7009 H   0  0  0  0  0  0  0  0  0  0  0  0
   -9.5743    4.5928   -4.3048 H   0  0  0  0  0  0  0  0  0  0  0  0
   -9.7835    3.4116   -2.1700 H   0  0  0  0  0  0  0  0  0  0  0  0
   -8.0818    0.2446   -1.3497 H   0  0  0  0  0  0  0  0  0  0  0  0
   -9.2343    1.5002   -0.7583 H   0  0  0  0  0  0  0  0  0  0  0  0
   -7.4530    1.7577   -0.5850 H   0  0  0  0  0  0  0  0  0  0  0  0
   -6.5197    0.8180   -3.2816 H   0  0  0  0  0  0  0  0  0  0  0  0
   -6.3072    1.9916   -5.3972 H   0  0  0  0  0  0  0  0  0  0  0  0
   -3.5558    2.7126   -3.8058 H   0  0  0  0  0  0  0  0  0  0  0  0
   -2.9590    0.4356   -3.1921 H   0  0  0  0  0  0  0  0  0  0  0  0
   -1.2221   -1.5896   -4.3292 H   0  0  0  0  0  0  0  0  0  0  0  0
   -0.8821   -1.0753   -2.6284 H   0  0  0  0  0  0  0  0  0  0  0  0
    0.4448   -1.0913   -3.8422 H   0  0  0  0  0  0  0  0  0  0  0  0
    0.8805    0.9295   -5.0872 H   0  0  0  0  0  0  0  0  0  0  0  0
    0.3115    3.2221   -5.6679 H   0  0  0  0  0  0  0  0  0  0  0  0
    0.3500    5.1023   -3.6736 H   0  0  0  0  0  0  0  0  0  0  0  0
    2.0989    6.6998   -4.3366 H   0  0  0  0  0  0  0  0  0  0  0  0
    2.7095    8.7039   -5.6479 H   0  0  0  0  0  0  0  0  0  0  0  0
    1.6959    9.2323   -7.0333 H   0  0  0  0  0  0  0  0  0  0  0  0
    2.8133    7.8244   -7.2227 H   0  0  0  0  0  0  0  0  0  0  0  0
   -0.2477    7.8522   -7.7647 H   0  0  0  0  0  0  0  0  0  0  0  0
   -1.9713    6.2368   -7.1305 H   0  0  0  0  0  0  0  0  0  0  0  0
   -0.9451    3.2475   -1.6903 H   0  0  0  0  0  0  0  0  0  0  0  0
    1.2441    2.3404   -2.2401 H   0  0  0  0  0  0  0  0  0  0  0  0
    4.0364    2.0743    0.1622 H   0  0  0  0  0  0  0  0  0  0  0  0
    3.4570    1.6320   -1.4778 H   0  0  0  0  0  0  0  0  0  0  0  0
    3.9386    4.0095   -2.2481 H   0  0  0  0  0  0  0  0  0  0  0  0
    5.3970    3.1118   -1.6745 H   0  0  0  0  0  0  0  0  0  0  0  0
    4.6340    4.3502   -0.6113 H   0  0  0  0  0  0  0  0  0  0  0  0
    2.8103    3.8075    1.4966 H   0  0  0  0  0  0  0  0  0  0  0  0
    0.6207    4.7202    2.0658 H   0  0  0  0  0  0  0  0  0  0  0  0
   -0.3183    6.8830   -0.0890 H   0  0  0  0  0  0  0  0  0  0  0  0
   -0.3427    9.1028    0.9296 H   0  0  0  0  0  0  0  0  0  0  0  0
   -0.7302   10.3968    3.1358 H   0  0  0  0  0  0  0  0  0  0  0  0
   -2.1317    9.9277    4.1487 H   0  0  0  0  0  0  0  0  0  0  0  0
   -2.2771   10.9033    1.2148 H   0  0  0  0  0  0  0  0  0  0  0  0
   -2.6920   11.8565    2.6876 H   0  0  0  0  0  0  0  0  0  0  0  0
   -3.6897   10.4213    2.2414 H   0  0  0  0  0  0  0  0  0  0  0  0
   -3.0331    7.6835    3.9808 H   0  0  0  0  0  0  0  0  0  0  0  0
   -3.0147    5.4581    2.9754 H   0  0  0  0  0  0  0  0  0  0  0  0
   -1.7646    6.1404   -2.1117 H   0  0  0  0  0  0  0  0  0  0  0  0
   -1.0701    2.8611    2.9085 H   0  0  0  0  0  0  0  0  0  0  0  0
   -0.9309    0.8376    4.6918 H   0  0  0  0  0  0  0  0  0  0  0  0
   -2.5599   -3.0025    1.9279 H   0  0  0  0  0  0  0  0  0  0  0  0
   -4.4306   -0.7678   -0.5266 H   0  0  0  0  0  0  0  0  0  0  0  0
   -3.9918   -2.2467    0.3664 H   0  0  0  0  0  0  0  0  0  0  0  0
   -6.3686   -0.3726    0.8841 H   0  0  0  0  0  0  0  0  0  0  0  0
   -5.7981   -1.5489    2.1282 H   0  0  0  0  0  0  0  0  0  0  0  0
   -6.3644   -2.1414    0.5277 H   0  0  0  0  0  0  0  0  0  0  0  0
   -4.8250    1.5236   -0.1383 H   0  0  0  0  0  0  0  0  0  0  0  0
    2.2966   -2.8866    5.5182 H   0  0  0  0  0  0  0  0  0  0  0  0
   -3.0341   -0.9367    6.5117 H   0  0  0  0  0  0  0  0  0  0  0  0
   -4.8137   -1.9442    7.8480 H   0  0  0  0  0  0  0  0  0  0  0  0
   -4.3988   -5.0315    9.8893 H   0  0  0  0  0  0  0  0  0  0  0  0
   -5.3954   -3.5653    9.6226 H   0  0  0  0  0  0  0  0  0  0  0  0
   -5.1997   -6.0162    7.7552 H   0  0  0  0  0  0  0  0  0  0  0  0
   -6.6042   -5.5441    8.7940 H   0  0  0  0  0  0  0  0  0  0  0  0
   -6.1366   -4.5142    7.3901 H   0  0  0  0  0  0  0  0  0  0  0  0
   -2.3453   -5.4081    8.5439 H   0  0  0  0  0  0  0  0  0  0  0  0
   -0.5626   -4.4182    7.2121 H   0  0  0  0  0  0  0  0  0  0  0  0
   -1.0882    0.5764    6.7841 H   0  0  0  0  0  0  0  0  0  0  0  0
    0.1368    1.8970    8.3952 H   0  0  0  0  0  0  0  0  0  0  0  0
    2.2393    2.2745    9.6182 H   0  0  0  0  0  0  0  0  0  0  0  0
    3.4273    0.9502    9.8197 H   0  0  0  0  0  0  0  0  0  0  0  0
    2.0604   -0.1181   11.5549 H   0  0  0  0  0  0  0  0  0  0  0  0
    2.2211    1.6337   11.9533 H   0  0  0  0  0  0  0  0  0  0  0  0
    0.6842    1.0218   11.2457 H   0  0  0  0  0  0  0  0  0  0  0  0
    2.7841   -1.4079    9.1073 H   0  0  0  0  0  0  0  0  0  0  0  0
    1.5186   -2.7498    7.5279 H   0  0  0  0  0  0  0  0  0  0  0  0
    2.3063   -2.6347    0.6295 H   0  0  0  0  0  0  0  0  0  0  0  0
    2.8148   -2.3646   -1.7610 H   0  0  0  0  0  0  0  0  0  0  0  0
    4.2149   -0.1143   -3.2992 H   0  0  0  0  0  0  0  0  0  0  0  0
    5.9086   -0.6977   -3.0588 H   0  0  0  0  0  0  0  0  0  0  0  0
    4.6068   -1.8723   -3.4499 H   0  0  0  0  0  0  0  0  0  0  0  0
    6.1627    0.1641   -0.7624 H   0  0  0  0  0  0  0  0  0  0  0  0
    5.6338   -0.0929    1.6300 H   0  0  0  0  0  0  0  0  0  0  0  0
    4.4080   -1.1923    5.2815 H   0  0  0  0  0  0  0  0  0  0  0  0
    3.7820    0.7368    6.6642 H   0  0  0  0  0  0  0  0  0  0  0  0
    1.1258    3.1069    5.8810 H   0  0  0  0  0  0  0  0  0  0  0  0
    2.7962    3.7228    5.5652 H   0  0  0  0  0  0  0  0  0  0  0  0
    2.4567    2.7290    7.0259 H   0  0  0  0  0  0  0  0  0  0  0  0
    1.3526    2.2623    3.4515 H   0  0  0  0  0  0  0  0  0  0  0  0
    1.9912    0.3550    2.0563 H   0  0  0  0  0  0  0  0  0  0  0  0
    6.3968   -7.5452    4.2280 H   0  0  0  0  0  0  0  0  0  0  0  0
    7.4431   -9.5488    5.1902 H   0  0  0  0  0  0  0  0  0  0  0  0
    9.4560  -10.9400    5.3477 H   0  0  0  0  0  0  0  0  0  0  0  0
   10.7040  -10.9011    4.0517 H   0  0  0  0  0  0  0  0  0  0  0  0
    9.1823  -11.8460    3.8092 H   0  0  0  0  0  0  0  0  0  0  0  0
   10.2921   -9.6144    1.9524 H   0  0  0  0  0  0  0  0  0  0  0  0
    9.2268   -7.6242    0.9786 H   0  0  0  0  0  0  0  0  0  0  0  0
    7.3846   -4.0956    0.3478 H   0  0  0  0  0  0  0  0  0  0  0  0
    6.4400   -3.8478   -1.8824 H   0  0  0  0  0  0  0  0  0  0  0  0
    5.5877   -4.9372   -3.9350 H   0  0  0  0  0  0  0  0  0  0  0  0
    5.0090   -6.6402   -3.8918 H   0  0  0  0  0  0  0  0  0  0  0  0
    3.9982   -5.3263   -3.1712 H   0  0  0  0  0  0  0  0  0  0  0  0
    5.0535   -7.9277   -1.7600 H   0  0  0  0  0  0  0  0  0  0  0  0
    5.9786   -8.1759    0.5043 H   0  0  0  0  0  0  0  0  0  0  0  0
    9.6926   -3.5644    2.1377 H   0  0  0  0  0  0  0  0  0  0  0  0
   13.6253   -7.0250    3.3627 H   0  0  0  0  0  0  0  0  0  0  0  0
   13.8208   -9.0288    4.8183 H   0  0  0  0  0  0  0  0  0  0  0  0
    9.9174   -8.2953    6.4334 H   0  0  0  0  0  0  0  0  0  0  0  0
  1  2  2  3
  2  3  1  0
  3  4  2  0
  3  5  1  0
  5  6  2  0
  6  7  1  0
  7  8  2  0
  8  9  1  0
  9 10  1  0
  9 11  2  0
 11 12  1  0
  6 13  1  0
 13 14  2  3
 14 15  1  0
 15 16  3  0
 14 17  1  0
 17 18  3  0
  1 19  1  0
 19 20  2  0
 20 21  1  0
 21 22  1  0
 22 23  2  0
 23 24  1  0
 24 25  2  0
 25 26  1  0
 25 27  1  0
 27 28  2  0
 21 29  1  0
 29 30  2  0
 30 31  1  0
 31 32  2  0
 32 33  1  0
 32 34  1  0
 34 35  2  0
 20 36  1  0
 36 37  1  0
 37 38  1  0
 38 39  2  0
 39 40  1  0
 40 41  1  0
 41 42  2  0
 42 43  1  0
 43 44  2  0
 44 45  1  0
 44 46  1  0
 46 47  2  0
 40 48  1  0
 48 49  2  0
 49 50  1  0
 50 51  2  0
 51 52  1  0
 51 53  1  0
 53 54  2  0
 39 55  1  0
 55 56  1  0
 38 57  1  0
 57 58  1  0
 58 59  1  0
 59 60  1  0
 60 61  2  0
 61 62  1  0
 62 63  1  0
 63 64  2  0
 64 65  1  0
 65 66  2  0
 66 67  1  0
 67 68  1  0
 66 69  1  0
 69 70  2  0
 62 71  1  0
 71 72  2  0
 72 73  1  0
 73 74  2  0
 74 75  1  0
 75 76  1  0
 74 77  1  0
 77 78  2  0
 62 79  1  0
 79 80  1  0
 61 81  1  0
 81 82  2  0
 82 83  1  0
 83 84  2  0
 84 85  1  0
 85 86  2  0
 86 87  1  0
 87 88  2  0
 88 89  1  0
 89 90  1  0
 90 91  1  0
 89 92  1  0
 92 93  2  0
 86 94  1  0
 94 95  1  0
 95 96  1  0
 96 97  2  0
 97 98  1  0
 98 99  1  0
 99100  1  0
100101  2  0
101102  1  0
102103  2  0
103104  1  0
104105  1  0
103106  1  0
106107  2  0
 99108  1  0
108109  2  0
109110  1  0
110111  2  0
111112  1  0
112113  1  0
111114  1  0
114115  2  0
 96116  1  0
116117  2  0
117118  1  0
118119  1  0
119120  2  0
120121  1  0
121122  2  0
122123  1  0
122124  1  0
124125  2  0
118126  1  0
126127  2  0
127128  1  0
128129  2  0
129130  1  0
129131  1  0
131132  2  0
117133  1  0
133134  1  0
134135  1  0
135136  2  0
136137  1  0
137138  1  0
138139  2  0
139140  1  0
140141  2  0
141142  1  0
141143  1  0
143144  2  0
137145  1  0
145146  2  0
146147  1  0
147148  2  0
148149  1  0
148150  1  0
150151  2  0
136152  1  0
152153  1  0
135154  1  0
154155  2  3
155156  1  0
156157  2  0
156158  1  0
158159  2  0
159160  1  0
160161  2  0
161162  1  0
161163  1  0
163164  2  0
164165  1  0
165166  2  3
166167  1  0
167168  3  0
166169  1  0
169170  3  0
 13  2  1  0
 56 19  1  0
 80 57  2  0
 92 82  1  0
 98 94  2  0
107100  1  0
115108  1  0
153116  1  0
165155  1  0
 11  5  1  0
 28 22  1  0
 35 29  1  0
 55 36  2  0
 79 59  2  0
 88 83  1  0
125119  1  0
132126  1  0
152133  2  0
164158  1  0
 47 41  1  0
 54 48  1  0
 93 60  1  0
144138  1  0
151145  1  0
 70 63  1  0
 78 71  1  0
 99 85  1  0
  1171  1  0
  7172  1  0
  8173  1  0
 23174  1  0
 24175  1  0
 26176  1  0
 26177  1  0
 26178  1  0
 27179  1  0
 28180  1  0
 30181  1  0
 31182  1  0
 33183  1  0
 33184  1  0
 33185  1  0
 34186  1  0
 35187  1  0
 42188  1  0
 43189  1  0
 45190  1  0
 45191  1  0
 45192  1  0
 46193  1  0
 47194  1  0
 49195  1  0
 50196  1  0
 52197  1  0
 52198  1  0
 52199  1  0
 53200  1  0
 54201  1  0
 64202  1  0
 65203  1  0
 67204  1  0
 67205  1  0
 68206  1  0
 68207  1  0
 68208  1  0
 69209  1  0
 70210  1  0
 72211  1  0
 73212  1  0
 75213  1  0
 75214  1  0
 76215  1  0
 76216  1  0
 76217  1  0
 77218  1  0
 78219  1  0
 80220  1  0
 81221  1  0
 84222  1  0
 87223  1  0
 90224  1  0
 90225  1  0
 91226  1  0
 91227  1  0
 91228  1  0
 93229  1  0
 97230  1  0
101231  1  0
102232  1  0
104233  1  0
104234  1  0
105235  1  0
105236  1  0
105237  1  0
106238  1  0
107239  1  0
109240  1  0
110241  1  0
112242  1  0
112243  1  0
113244  1  0
113245  1  0
113246  1  0
114247  1  0
115248  1  0
120249  1  0
121250  1  0
123251  1  0
123252  1  0
123253  1  0
124254  1  0
125255  1  0
127256  1  0
128257  1  0
130258  1  0
130259  1  0
130260  1  0
131261  1  0
132262  1  0
139263  1  0
140264  1  0
142265  1  0
142266  1  0
142267  1  0
143268  1  0
144269  1  0
146270  1  0
147271  1  0
149272  1  0
149273  1  0
149274  1  0
150275  1  0
151276  1  0
154277  1  0
159278  1  0
160279  1  0
163280  1  0
M  END

