
     RDKit          3D

249274  0  0  0  0  0  0  0  0999 V2000
    1.9201   -6.5116    2.2141 C   0  0  0  0  0  0  0  0  0  0  0  0
    3.1208   -7.1212    2.1785 C   0  0  0  0  0  0  0  0  0  0  0  0
    4.4031   -6.5015    2.5323 C   0  0  0  0  0  0  0  0  0  0  0  0
    4.5555   -5.4224    3.1695 O   0  0  0  0  0  0  0  0  0  0  0  0
    5.4812   -7.2966    1.9679 C   0  0  0  0  0  0  0  0  0  0  0  0
    4.9358   -8.3905    1.3157 C   0  0  0  0  0  0  0  0  0  0  0  0
    5.7694   -9.2522    0.5901 C   0  0  0  0  0  0  0  0  0  0  0  0
    7.1511   -9.0147    0.5775 C   0  0  0  0  0  0  0  0  0  0  0  0
    7.7048   -7.9215    1.2646 C   0  0  0  0  0  0  0  0  0  0  0  0
    9.5924   -7.6419    1.1674 Br  0  0  0  0  0  0  0  0  0  0  0  0
    6.8604   -7.0360    1.9613 C   0  0  0  0  0  0  0  0  0  0  0  0
    7.5138   -5.6127    2.7672 Cl  0  0  0  0  0  0  0  0  0  0  0  0
    3.4532   -8.3986    1.4834 C   0  0  0  0  0  0  0  0  0  0  0  0
    2.6176   -9.4460    1.2876 C   0  0  0  0  0  0  0  0  0  0  0  0
    3.0520  -10.6986    0.7339 C   0  0  0  0  0  0  0  0  0  0  0  0
    3.3767  -11.7190    0.2961 N   0  0  0  0  0  0  0  0  0  0  0  0
    1.2506   -9.4363    1.7576 C   0  0  0  0  0  0  0  0  0  0  0  0
    0.1538   -9.4323    2.1344 N   0  0  0  0  0  0  0  0  0  0  0  0
    1.6584   -5.2503    2.9265 C   0  0  0  0  0  0  0  0  0  0  0  0
    0.9396   -4.1772    2.3921 C   0  0  0  0  0  0  0  0  0  0  0  0
    0.3903   -4.1518    1.0683 N   0  0  0  0  0  0  0  0  0  0  0  0
   -1.0409   -4.1558    0.9282 C   0  0  0  0  0  0  0  0  0  0  0  0
   -1.8308   -5.0064    1.7245 C   0  0  0  0  0  0  0  0  0  0  0  0
   -3.2251   -4.9705    1.6322 C   0  0  0  0  0  0  0  0  0  0  0  0
   -3.8496   -4.0686    0.7642 C   0  0  0  0  0  0  0  0  0  0  0  0
   -5.3436   -4.0352    0.6591 C   0  0  0  0  0  0  0  0  0  0  0  0
   -3.0598   -3.2342   -0.0446 C   0  0  0  0  0  0  0  0  0  0  0  0
   -1.6682   -3.2718    0.0426 C   0  0  0  0  0  0  0  0  0  0  0  0
    1.2702   -4.1144   -0.0755 C   0  0  0  0  0  0  0  0  0  0  0  0
    2.4868   -3.4143   -0.0141 C   0  0  0  0  0  0  0  0  0  0  0  0
    3.3405   -3.3724   -1.1194 C   0  0  0  0  0  0  0  0  0  0  0  0
    2.9965   -4.0403   -2.3036 C   0  0  0  0  0  0  0  0  0  0  0  0
    3.8926   -3.9507   -3.5021 C   0  0  0  0  0  0  0  0  0  0  0  0
    1.7777   -4.7301   -2.3750 C   0  0  0  0  0  0  0  0  0  0  0  0
    0.9239   -4.7689   -1.2715 C   0  0  0  0  0  0  0  0  0  0  0  0
    0.7194   -3.1873    3.3406 C   0  0  0  0  0  0  0  0  0  0  0  0
   -0.0113   -1.6851    3.3260 S   0  0  0  0  0  0  0  0  0  0  0  0
    0.2746   -1.3711    4.9800 C   0  0  0  0  0  0  0  0  0  0  0  0
    0.9356   -2.4812    5.5409 C   0  0  0  0  0  0  0  0  0  0  0  0
    1.2267   -2.6776    6.9334 N   0  0  0  0  0  0  0  0  0  0  0  0
    2.3875   -2.0273    7.4960 C   0  0  0  0  0  0  0  0  0  0  0  0
    3.5527   -1.8488    6.7240 C   0  0  0  0  0  0  0  0  0  0  0  0
    4.6983   -1.2801    7.2887 C   0  0  0  0  0  0  0  0  0  0  0  0
    4.6963   -0.8750    8.6295 C   0  0  0  0  0  0  0  0  0  0  0  0
    5.9200   -0.2515    9.2382 C   0  0  0  0  0  0  0  0  0  0  0  0
    3.5289   -1.0162    9.3917 C   0  0  0  0  0  0  0  0  0  0  0  0
    2.3878   -1.5987    8.8321 C   0  0  0  0  0  0  0  0  0  0  0  0
    0.5721   -3.7876    7.6020 C   0  0  0  0  0  0  0  0  0  0  0  0
    1.2410   -4.5636    8.5694 C   0  0  0  0  0  0  0  0  0  0  0  0
    0.6216   -5.6813    9.1361 C   0  0  0  0  0  0  0  0  0  0  0  0
   -0.6755   -6.0478    8.7532 C   0  0  0  0  0  0  0  0  0  0  0  0
   -1.3188   -7.2799    9.3154 C   0  0  0  0  0  0  0  0  0  0  0  0
   -1.3396   -5.2985    7.7747 C   0  0  0  0  0  0  0  0  0  0  0  0
   -0.7256   -4.1804    7.2115 C   0  0  0  0  0  0  0  0  0  0  0  0
    1.1791   -3.4623    4.5796 C   0  0  0  0  0  0  0  0  0  0  0  0
    1.9203   -4.9692    4.5883 S   0  0  0  0  0  0  0  0  0  0  0  0
   -0.0961   -0.0836    5.5993 C   0  0  0  0  0  0  0  0  0  0  0  0
   -1.2580    0.1336    6.3686 C   0  0  0  0  0  0  0  0  0  0  0  0
   -1.9272   -0.8633    7.2125 C   0  0  0  0  0  0  0  0  0  0  0  0
   -1.3750   -1.1617    8.4648 C   0  0  0  0  0  0  0  0  0  0  0  0
   -2.0685   -1.9740    9.3620 C   0  0  0  0  0  0  0  0  0  0  0  0
   -3.3331   -2.4659    9.0307 C   0  0  0  0  0  0  0  0  0  0  0  0
   -3.9126   -2.1520    7.7860 C   0  0  0  0  0  0  0  0  0  0  0  0
   -5.2803   -2.6787    7.4367 C   0  0  0  0  0  0  0  0  0  0  0  0
   -5.1845   -4.0667    6.8161 C   0  0  0  0  0  0  0  0  0  0  0  0
   -3.1953   -1.3605    6.8728 C   0  0  0  0  0  0  0  0  0  0  0  0
   -1.7054    1.4567    6.2688 C   0  0  0  0  0  0  0  0  0  0  0  0
   -3.2465    2.1249    6.5191 S   0  0  0  0  0  0  0  0  0  0  0  0
   -2.8445    3.5334    5.6580 C   0  0  0  0  0  0  0  0  0  0  0  0
   -3.5660    4.3689    4.8443 C   0  0  0  0  0  0  0  0  0  0  0  0
   -4.9399    4.3574    4.5539 C   0  0  0  0  0  0  0  0  0  0  0  0
   -5.3924    4.9467    3.3308 C   0  0  0  0  0  0  0  0  0  0  0  0
   -6.7129    4.8335    3.0428 N   0  0  0  0  0  0  0  0  0  0  0  0
   -7.2143    3.9818    4.3721 S   0  0  0  0  0  0  0  0  0  0  0  0
   -5.8708    3.7189    5.3050 N   0  0  0  0  0  0  0  0  0  0  0  0
   -4.4562    5.5858    2.5057 C   0  0  0  0  0  0  0  0  0  0  0  0
   -4.5474    6.0746    1.2271 C   0  0  0  0  0  0  0  0  0  0  0  0
   -5.3297    5.3406   -0.0835 S   0  0  0  0  0  0  0  0  0  0  0  0
   -4.0237    5.5840   -1.1377 C   0  0  0  0  0  0  0  0  0  0  0  0
   -3.6260    4.8274   -2.2597 C   0  0  0  0  0  0  0  0  0  0  0  0
   -4.5072    3.7923   -2.8247 C   0  0  0  0  0  0  0  0  0  0  0  0
   -5.7497    4.1522   -3.3643 C   0  0  0  0  0  0  0  0  0  0  0  0
   -6.6459    3.1657   -3.7826 C   0  0  0  0  0  0  0  0  0  0  0  0
   -6.3291    1.8152   -3.6287 C   0  0  0  0  0  0  0  0  0  0  0  0
   -5.1082    1.4440   -3.0464 C   0  0  0  0  0  0  0  0  0  0  0  0
   -4.8369   -0.0002   -2.7426 C   0  0  0  0  0  0  0  0  0  0  0  0
   -5.6155   -0.4195   -1.5019 C   0  0  0  0  0  0  0  0  0  0  0  0
   -4.1975    2.4349   -2.6527 C   0  0  0  0  0  0  0  0  0  0  0  0
   -2.2303    4.9210   -2.4688 C   0  0  0  0  0  0  0  0  0  0  0  0
   -1.5713    5.8734   -1.2298 S   0  0  0  0  0  0  0  0  0  0  0  0
   -3.0071    6.2235   -0.4624 C   0  0  0  0  0  0  0  0  0  0  0  0
   -3.2722    6.4928    0.8818 C   0  0  0  0  0  0  0  0  0  0  0  0
   -2.3880    6.3013    1.8940 N   0  0  0  0  0  0  0  0  0  0  0  0
   -3.1106    5.6514    2.8410 C   0  0  0  0  0  0  0  0  0  0  0  0
   -2.6329    4.9179    3.9489 C   0  0  0  0  0  0  0  0  0  0  0  0
   -1.4019    4.3286    4.1084 N   0  0  0  0  0  0  0  0  0  0  0  0
   -1.5741    3.4857    5.1601 C   0  0  0  0  0  0  0  0  0  0  0  0
   -0.9375    2.2858    5.4897 C   0  0  0  0  0  0  0  0  0  0  0  0
    0.3066    1.3844    4.8269 S   0  0  0  0  0  0  0  0  0  0  0  0
   -0.3260    4.2016    3.1047 C   0  0  0  0  0  0  0  0  0  0  0  0
    1.0197    4.6480    3.6682 C   0  0  0  0  0  0  0  0  0  0  0  0
   -1.4120    7.3245    2.3050 C   0  0  0  0  0  0  0  0  0  0  0  0
   -0.4062    7.6687    1.2121 C   0  0  0  0  0  0  0  0  0  0  0  0
   -1.3470    4.1665   -3.3893 C   0  0  0  0  0  0  0  0  0  0  0  0
   -1.5960    3.7054   -4.7042 C   0  0  0  0  0  0  0  0  0  0  0  0
   -2.7512    4.0368   -5.4982 N   0  0  0  0  0  0  0  0  0  0  0  0
   -3.0738    5.4370   -5.6882 C   0  0  0  0  0  0  0  0  0  0  0  0
   -4.4033    5.8538   -5.8566 C   0  0  0  0  0  0  0  0  0  0  0  0
   -4.7095    7.2081   -6.0220 C   0  0  0  0  0  0  0  0  0  0  0  0
   -3.6890    8.1691   -6.0342 C   0  0  0  0  0  0  0  0  0  0  0  0
   -4.0201    9.6262   -6.1678 C   0  0  0  0  0  0  0  0  0  0  0  0
   -2.3584    7.7629   -5.8638 C   0  0  0  0  0  0  0  0  0  0  0  0
   -2.0538    6.4114   -5.6996 C   0  0  0  0  0  0  0  0  0  0  0  0
   -3.3746    2.9849   -6.2826 C   0  0  0  0  0  0  0  0  0  0  0  0
   -3.9434    3.2490   -7.5444 C   0  0  0  0  0  0  0  0  0  0  0  0
   -4.5488    2.2284   -8.2851 C   0  0  0  0  0  0  0  0  0  0  0  0
   -4.5705    0.9163   -7.7968 C   0  0  0  0  0  0  0  0  0  0  0  0
   -5.2773   -0.1601   -8.5611 C   0  0  0  0  0  0  0  0  0  0  0  0
   -3.9851    0.6366   -6.5558 C   0  0  0  0  0  0  0  0  0  0  0  0
   -3.3801    1.6554   -5.8158 C   0  0  0  0  0  0  0  0  0  0  0  0
   -0.4271    3.1949   -5.2845 C   0  0  0  0  0  0  0  0  0  0  0  0
    0.0074    2.7928   -6.8594 S   0  0  0  0  0  0  0  0  0  0  0  0
    1.6776    2.7027   -6.5195 C   0  0  0  0  0  0  0  0  0  0  0  0
    1.8897    3.0448   -5.1810 C   0  0  0  0  0  0  0  0  0  0  0  0
    3.1794    3.2968   -4.6083 N   0  0  0  0  0  0  0  0  0  0  0  0
    4.0493    2.1881   -4.3566 C   0  0  0  0  0  0  0  0  0  0  0  0
    3.6820    1.2046   -3.4280 C   0  0  0  0  0  0  0  0  0  0  0  0
    4.5337    0.1296   -3.1670 C   0  0  0  0  0  0  0  0  0  0  0  0
    5.7645    0.0249   -3.8395 C   0  0  0  0  0  0  0  0  0  0  0  0
    6.6870   -1.1299   -3.5774 C   0  0  0  0  0  0  0  0  0  0  0  0
    6.1272    1.0105   -4.7729 C   0  0  0  0  0  0  0  0  0  0  0  0
    5.2750    2.0885   -5.0290 C   0  0  0  0  0  0  0  0  0  0  0  0
    3.5419    4.6262   -4.1970 C   0  0  0  0  0  0  0  0  0  0  0  0
    4.0157    4.8637   -2.8920 C   0  0  0  0  0  0  0  0  0  0  0  0
    4.3175    6.1628   -2.4729 C   0  0  0  0  0  0  0  0  0  0  0  0
    4.1546    7.2437   -3.3516 C   0  0  0  0  0  0  0  0  0  0  0  0
    4.4566    8.6355   -2.8817 C   0  0  0  0  0  0  0  0  0  0  0  0
    3.6834    7.0108   -4.6557 C   0  0  0  0  0  0  0  0  0  0  0  0
    3.3733    5.7123   -5.0725 C   0  0  0  0  0  0  0  0  0  0  0  0
    0.6901    3.2871   -4.5239 C   0  0  0  0  0  0  0  0  0  0  0  0
    0.3147    3.9587   -3.0497 S   0  0  0  0  0  0  0  0  0  0  0  0
    2.7236    2.6457   -7.5452 C   0  0  0  0  0  0  0  0  0  0  0  0
    2.8939    1.5926   -8.3581 C   0  0  0  0  0  0  0  0  0  0  0  0
    2.3254    0.2552   -8.1419 C   0  0  0  0  0  0  0  0  0  0  0  0
    1.4252   -0.0578   -7.3190 O   0  0  0  0  0  0  0  0  0  0  0  0
    3.0639   -0.6826   -8.9633 C   0  0  0  0  0  0  0  0  0  0  0  0
    2.9287   -2.0705   -9.0212 C   0  0  0  0  0  0  0  0  0  0  0  0
    3.7814   -2.7913   -9.8639 C   0  0  0  0  0  0  0  0  0  0  0  0
    4.7609   -2.1224  -10.6174 C   0  0  0  0  0  0  0  0  0  0  0  0
    6.0703   -3.2192  -11.8510 I   0  0  0  0  0  0  0  0  0  0  0  0
    4.8828   -0.7250  -10.5415 C   0  0  0  0  0  0  0  0  0  0  0  0
    4.0147   -0.0032   -9.7078 C   0  0  0  0  0  0  0  0  0  0  0  0
    3.9151    1.4622   -9.4401 C   0  0  0  0  0  0  0  0  0  0  0  0
    4.4345    2.4682  -10.1876 C   0  0  0  0  0  0  0  0  0  0  0  0
    4.0177    3.8387  -10.0213 C   0  0  0  0  0  0  0  0  0  0  0  0
    3.6784    4.9382   -9.8992 N   0  0  0  0  0  0  0  0  0  0  0  0
    5.3527    2.2446  -11.2745 C   0  0  0  0  0  0  0  0  0  0  0  0
    6.0862    2.0874  -12.1562 N   0  0  0  0  0  0  0  0  0  0  0  0
    1.1064   -6.8993    1.6173 H   0  0  0  0  0  0  0  0  0  0  0  0
    5.3855  -10.0717   -0.0014 H   0  0  0  0  0  0  0  0  0  0  0  0
    7.7952   -9.6765    0.0117 H   0  0  0  0  0  0  0  0  0  0  0  0
   -1.3634   -5.6975    2.4174 H   0  0  0  0  0  0  0  0  0  0  0  0
   -3.8166   -5.6409    2.2461 H   0  0  0  0  0  0  0  0  0  0  0  0
   -5.8088   -4.2767    1.6375 H   0  0  0  0  0  0  0  0  0  0  0  0
   -5.6832   -4.7730   -0.0981 H   0  0  0  0  0  0  0  0  0  0  0  0
   -5.6985   -3.0269    0.3657 H   0  0  0  0  0  0  0  0  0  0  0  0
   -3.5153   -2.5459   -0.7332 H   0  0  0  0  0  0  0  0  0  0  0  0
   -1.0719   -2.5891   -0.5615 H   0  0  0  0  0  0  0  0  0  0  0  0
    2.7608   -2.8660    0.8813 H   0  0  0  0  0  0  0  0  0  0  0  0
    4.2631   -2.8030   -1.0616 H   0  0  0  0  0  0  0  0  0  0  0  0
    3.7067   -2.9950   -4.0411 H   0  0  0  0  0  0  0  0  0  0  0  0
    3.7100   -4.8004   -4.1977 H   0  0  0  0  0  0  0  0  0  0  0  0
    4.9577   -3.9919   -3.1895 H   0  0  0  0  0  0  0  0  0  0  0  0
    1.4846   -5.2294   -3.2904 H   0  0  0  0  0  0  0  0  0  0  0  0
   -0.0117   -5.3086   -1.3461 H   0  0  0  0  0  0  0  0  0  0  0  0
    3.5903   -2.1840    5.6949 H   0  0  0  0  0  0  0  0  0  0  0  0
    5.5905   -1.1722    6.6831 H   0  0  0  0  0  0  0  0  0  0  0  0
    5.8436    0.8525    9.1735 H   0  0  0  0  0  0  0  0  0  0  0  0
    6.0153   -0.5447   10.3051 H   0  0  0  0  0  0  0  0  0  0  0  0
    6.8403   -0.5808    8.7124 H   0  0  0  0  0  0  0  0  0  0  0  0
    3.5052   -0.6872   10.4211 H   0  0  0  0  0  0  0  0  0  0  0  0
    1.5116   -1.7374    9.4528 H   0  0  0  0  0  0  0  0  0  0  0  0
    2.2602   -4.3361    8.8552 H   0  0  0  0  0  0  0  0  0  0  0  0
    1.1642   -6.2750    9.8559 H   0  0  0  0  0  0  0  0  0  0  0  0
   -1.1574   -8.1229    8.6125 H   0  0  0  0  0  0  0  0  0  0  0  0
   -0.8845   -7.5464   10.3037 H   0  0  0  0  0  0  0  0  0  0  0  0
   -2.4113   -7.1227    9.4481 H   0  0  0  0  0  0  0  0  0  0  0  0
   -2.3307   -5.5879    7.4371 H   0  0  0  0  0  0  0  0  0  0  0  0
   -1.2645   -3.6261    6.4513 H   0  0  0  0  0  0  0  0  0  0  0  0
   -0.4280   -0.7338    8.7575 H   0  0  0  0  0  0  0  0  0  0  0  0
   -1.6364   -2.2024   10.3278 H   0  0  0  0  0  0  0  0  0  0  0  0
   -3.8615   -3.0841    9.7459 H   0  0  0  0  0  0  0  0  0  0  0  0
   -5.7862   -1.9889    6.7282 H   0  0  0  0  0  0  0  0  0  0  0  0
   -5.9108   -2.7306    8.3516 H   0  0  0  0  0  0  0  0  0  0  0  0
   -4.7244   -4.7740    7.5375 H   0  0  0  0  0  0  0  0  0  0  0  0
   -6.2020   -4.4304    6.5606 H   0  0  0  0  0  0  0  0  0  0  0  0
   -4.5749   -4.0312    5.8882 H   0  0  0  0  0  0  0  0  0  0  0  0
   -3.6343   -1.1066    5.9142 H   0  0  0  0  0  0  0  0  0  0  0  0
   -6.0266    5.1982   -3.4502 H   0  0  0  0  0  0  0  0  0  0  0  0
   -7.5995    3.4526   -4.2079 H   0  0  0  0  0  0  0  0  0  0  0  0
   -7.0407    1.0616   -3.9404 H   0  0  0  0  0  0  0  0  0  0  0  0
   -3.7525   -0.1744   -2.5670 H   0  0  0  0  0  0  0  0  0  0  0  0
   -5.1380   -0.6326   -3.6061 H   0  0  0  0  0  0  0  0  0  0  0  0
   -5.3123    0.1936   -0.6268 H   0  0  0  0  0  0  0  0  0  0  0  0
   -6.7063   -0.3101   -1.6694 H   0  0  0  0  0  0  0  0  0  0  0  0
   -5.4125   -1.4839   -1.2888 H   0  0  0  0  0  0  0  0  0  0  0  0
   -3.2697    2.1515   -2.1732 H   0  0  0  0  0  0  0  0  0  0  0  0
   -0.2643    3.1524    2.7625 H   0  0  0  0  0  0  0  0  0  0  0  0
   -0.5312    4.7786    2.1920 H   0  0  0  0  0  0  0  0  0  0  0  0
    1.0453    5.7469    3.8090 H   0  0  0  0  0  0  0  0  0  0  0  0
    1.2315    4.1602    4.6425 H   0  0  0  0  0  0  0  0  0  0  0  0
    1.8216    4.3638    2.9569 H   0  0  0  0  0  0  0  0  0  0  0  0
   -1.9478    8.2516    2.6028 H   0  0  0  0  0  0  0  0  0  0  0  0
   -0.8499    6.9805    3.1942 H   0  0  0  0  0  0  0  0  0  0  0  0
   -0.9189    8.1379    0.3488 H   0  0  0  0  0  0  0  0  0  0  0  0
    0.3299    8.4029    1.6033 H   0  0  0  0  0  0  0  0  0  0  0  0
    0.1497    6.7653    0.8886 H   0  0  0  0  0  0  0  0  0  0  0  0
   -5.2064    5.1285   -5.8575 H   0  0  0  0  0  0  0  0  0  0  0  0
   -5.7443    7.5051   -6.1405 H   0  0  0  0  0  0  0  0  0  0  0  0
   -4.8635    9.7683   -6.8754 H   0  0  0  0  0  0  0  0  0  0  0  0
   -4.3036   10.0345   -5.1758 H   0  0  0  0  0  0  0  0  0  0  0  0
   -3.1474   10.1956   -6.5540 H   0  0  0  0  0  0  0  0  0  0  0  0
   -1.5537    8.4912   -5.8629 H   0  0  0  0  0  0  0  0  0  0  0  0
   -1.0160    6.1290   -5.5877 H   0  0  0  0  0  0  0  0  0  0  0  0
   -3.9058    4.2440   -7.9724 H   0  0  0  0  0  0  0  0  0  0  0  0
   -4.9990    2.4641   -9.2425 H   0  0  0  0  0  0  0  0  0  0  0  0
   -5.1715    0.0058   -9.6545 H   0  0  0  0  0  0  0  0  0  0  0  0
   -6.3568   -0.1568   -8.2961 H   0  0  0  0  0  0  0  0  0  0  0  0
   -4.8502   -1.1581   -8.3261 H   0  0  0  0  0  0  0  0  0  0  0  0
   -3.9979   -0.3707   -6.1565 H   0  0  0  0  0  0  0  0  0  0  0  0
   -2.9158    1.4033   -4.8710 H   0  0  0  0  0  0  0  0  0  0  0  0
    2.7422    1.2805   -2.8955 H   0  0  0  0  0  0  0  0  0  0  0  0
    4.2336   -0.6134   -2.4399 H   0  0  0  0  0  0  0  0  0  0  0  0
    6.8402   -1.7090   -4.5142 H   0  0  0  0  0  0  0  0  0  0  0  0
    6.2777   -1.8135   -2.8037 H   0  0  0  0  0  0  0  0  0  0  0  0
    7.6682   -0.7490   -3.2234 H   0  0  0  0  0  0  0  0  0  0  0  0
    7.0667    0.9378   -5.3101 H   0  0  0  0  0  0  0  0  0  0  0  0
    5.5540    2.8325   -5.7670 H   0  0  0  0  0  0  0  0  0  0  0  0
    4.1169    4.0443   -2.1913 H   0  0  0  0  0  0  0  0  0  0  0  0
    4.6613    6.3301   -1.4561 H   0  0  0  0  0  0  0  0  0  0  0  0
    4.3397    9.3815   -3.6972 H   0  0  0  0  0  0  0  0  0  0  0  0
    3.7676    8.9088   -2.0542 H   0  0  0  0  0  0  0  0  0  0  0  0
    5.5005    8.6898   -2.5075 H   0  0  0  0  0  0  0  0  0  0  0  0
    3.5433    7.8358   -5.3429 H   0  0  0  0  0  0  0  0  0  0  0  0
    3.0079    5.5493   -6.0791 H   0  0  0  0  0  0  0  0  0  0  0  0
    3.4113    3.4767   -7.5811 H   0  0  0  0  0  0  0  0  0  0  0  0
    2.1830   -2.5812   -8.4260 H   0  0  0  0  0  0  0  0  0  0  0  0
    3.6956   -3.8659   -9.9226 H   0  0  0  0  0  0  0  0  0  0  0  0
    5.6636   -0.2486  -11.1053 H   0  0  0  0  0  0  0  0  0  0  0  0
  1  2  2  3
  2  3  1  0
  3  4  2  0
  3  5  1  0
  5  6  2  0
  6  7  1  0
  7  8  2  0
  8  9  1  0
  9 10  1  0
  9 11  2  0
 11 12  1  0
  6 13  1  0
 13 14  2  3
 14 15  1  0
 15 16  3  0
 14 17  1  0
 17 18  3  0
  1 19  1  0
 19 20  2  0
 20 21  1  0
 21 22  1  0
 22 23  2  0
 23 24  1  0
 24 25  2  0
 25 26  1  0
 25 27  1  0
 27 28  2  0
 21 29  1  0
 29 30  2  0
 30 31  1  0
 31 32  2  0
 32 33  1  0
 32 34  1  0
 34 35  2  0
 20 36  1  0
 36 37  1  0
 37 38  1  0
 38 39  2  0
 39 40  1  0
 40 41  1  0
 41 42  2  0
 42 43  1  0
 43 44  2  0
 44 45  1  0
 44 46  1  0
 46 47  2  0
 40 48  1  0
 48 49  2  0
 49 50  1  0
 50 51  2  0
 51 52  1  0
 51 53  1  0
 53 54  2  0
 39 55  1  0
 55 56  1  0
 38 57  1  0
 57 58  2  0
 58 59  1  0
 59 60  2  0
 60 61  1  0
 61 62  2  0
 62 63  1  0
 63 64  1  0
 64 65  1  0
 63 66  2  0
 58 67  1  0
 67 68  1  0
 68 69  1  0
 69 70  1  0
 70 71  1  0
 71 72  1  0
 72 73  2  0
 73 74  1  0
 74 75  1  0
 72 76  1  0
 76 77  1  0
 77 78  1  0
 78 79  1  0
 79 80  1  0
 80 81  1  0
 81 82  2  0
 82 83  1  0
 83 84  2  0
 84 85  1  0
 85 86  1  0
 86 87  1  0
 85 88  2  0
 80 89  2  0
 89 90  1  0
 90 91  1  0
 91 92  1  0
 92 93  1  0
 93 94  1  0
 94 95  1  0
 95 96  1  0
 96 97  1  0
 97 98  1  0
 98 99  1  0
 96100  1  0
100101  1  0
 93102  1  0
102103  1  0
 89104  1  0
104105  2  0
105106  1  0
106107  1  0
107108  2  0
108109  1  0
109110  2  0
110111  1  0
110112  1  0
112113  2  0
106114  1  0
114115  2  0
115116  1  0
116117  2  0
117118  1  0
117119  1  0
119120  2  0
105121  1  0
121122  1  0
122123  1  0
123124  2  0
124125  1  0
125126  1  0
126127  2  0
127128  1  0
128129  2  0
129130  1  0
129131  1  0
131132  2  0
125133  1  0
133134  2  0
134135  1  0
135136  2  0
136137  1  0
136138  1  0
138139  2  0
124140  1  0
140141  1  0
123142  1  0
142143  2  3
143144  1  0
144145  2  0
144146  1  0
146147  2  0
147148  1  0
148149  2  0
149150  1  0
149151  1  0
151152  2  0
152153  1  0
153154  2  3
154155  1  0
155156  3  0
154157  1  0
157158  3  0
 13  2  1  0
 56 19  1  0
 99 57  1  0
141104  1  0
153143  1  0
 11  5  1  0
 28 22  1  0
 35 29  1  0
 55 36  2  0
 66 59  1  0
 98 67  2  0
113107  1  0
120114  1  0
140121  2  0
152146  1  0
 47 41  1  0
 54 48  1  0
 97 69  2  0
132126  1  0
139133  1  0
 95 70  2  0
 75 71  2  0
 94 76  2  0
 92 77  2  0
 91 79  2  0
 88 81  1  0
  1159  1  0
  7160  1  0
  8161  1  0
 23162  1  0
 24163  1  0
 26164  1  0
 26165  1  0
 26166  1  0
 27167  1  0
 28168  1  0
 30169  1  0
 31170  1  0
 33171  1  0
 33172  1  0
 33173  1  0
 34174  1  0
 35175  1  0
 42176  1  0
 43177  1  0
 45178  1  0
 45179  1  0
 45180  1  0
 46181  1  0
 47182  1  0
 49183  1  0
 50184  1  0
 52185  1  0
 52186  1  0
 52187  1  0
 53188  1  0
 54189  1  0
 60190  1  0
 61191  1  0
 62192  1  0
 64193  1  0
 64194  1  0
 65195  1  0
 65196  1  0
 65197  1  0
 66198  1  0
 82199  1  0
 83200  1  0
 84201  1  0
 86202  1  0
 86203  1  0
 87204  1  0
 87205  1  0
 87206  1  0
 88207  1  0
100208  1  0
100209  1  0
101210  1  0
101211  1  0
101212  1  0
102213  1  0
102214  1  0
103215  1  0
103216  1  0
103217  1  0
108218  1  0
109219  1  0
111220  1  0
111221  1  0
111222  1  0
112223  1  0
113224  1  0
115225  1  0
116226  1  0
118227  1  0
118228  1  0
118229  1  0
119230  1  0
120231  1  0
127232  1  0
128233  1  0
130234  1  0
130235  1  0
130236  1  0
131237  1  0
132238  1  0
134239  1  0
135240  1  0
137241  1  0
137242  1  0
137243  1  0
138244  1  0
139245  1  0
142246  1  0
147247  1  0
148248  1  0
151249  1  0
M  END

