
     RDKit          3D

225249  0  0  0  0  0  0  0  0999 V2000
    7.3414   -1.3762    4.4327 C   0  0  0  0  0  0  0  0  0  0  0  0
    8.4719   -1.4026    5.1658 C   0  0  0  0  0  0  0  0  0  0  0  0
    9.3982   -0.2671    5.3052 C   0  0  0  0  0  0  0  0  0  0  0  0
    9.2828    0.8550    4.7416 O   0  0  0  0  0  0  0  0  0  0  0  0
   10.5237   -0.6862    6.1152 C   0  0  0  0  0  0  0  0  0  0  0  0
   10.3579   -2.0181    6.4758 C   0  0  0  0  0  0  0  0  0  0  0  0
   11.2424   -2.5970    7.4005 C   0  0  0  0  0  0  0  0  0  0  0  0
   12.3375   -1.8502    7.8622 C   0  0  0  0  0  0  0  0  0  0  0  0
   12.5294   -0.5239    7.4519 C   0  0  0  0  0  0  0  0  0  0  0  0
   14.0171    0.4412    8.1730 Br  0  0  0  0  0  0  0  0  0  0  0  0
   11.6055    0.0820    6.5767 C   0  0  0  0  0  0  0  0  0  0  0  0
   11.7802    1.7741    6.1140 Cl  0  0  0  0  0  0  0  0  0  0  0  0
    9.0984   -2.5593    5.8801 C   0  0  0  0  0  0  0  0  0  0  0  0
    8.6361   -3.8359    5.9779 C   0  0  0  0  0  0  0  0  0  0  0  0
    9.4418   -4.9156    6.4765 C   0  0  0  0  0  0  0  0  0  0  0  0
   10.0869   -5.7909    6.8802 N   0  0  0  0  0  0  0  0  0  0  0  0
    7.2935   -4.2011    5.6244 C   0  0  0  0  0  0  0  0  0  0  0  0
    6.2133   -4.5198    5.3409 N   0  0  0  0  0  0  0  0  0  0  0  0
    6.7826   -0.1279    3.8994 C   0  0  0  0  0  0  0  0  0  0  0  0
    6.0681    0.8216    4.6457 C   0  0  0  0  0  0  0  0  0  0  0  0
    5.4678    0.5434    5.9258 N   0  0  0  0  0  0  0  0  0  0  0  0
    4.5929   -0.6012    6.0676 C   0  0  0  0  0  0  0  0  0  0  0  0
    3.8076   -1.0422    4.9818 C   0  0  0  0  0  0  0  0  0  0  0  0
    2.9919   -2.1669    5.1062 C   0  0  0  0  0  0  0  0  0  0  0  0
    2.9333   -2.8648    6.3227 C   0  0  0  0  0  0  0  0  0  0  0  0
    2.0353   -4.0561    6.4688 C   0  0  0  0  0  0  0  0  0  0  0  0
    3.6713   -2.4038    7.4187 C   0  0  0  0  0  0  0  0  0  0  0  0
    4.5076   -1.2895    7.2871 C   0  0  0  0  0  0  0  0  0  0  0  0
    5.6528    1.4823    7.0021 C   0  0  0  0  0  0  0  0  0  0  0  0
    6.9270    2.0015    7.2838 C   0  0  0  0  0  0  0  0  0  0  0  0
    7.1133    2.9013    8.3328 C   0  0  0  0  0  0  0  0  0  0  0  0
    6.0204    3.3162    9.1072 C   0  0  0  0  0  0  0  0  0  0  0  0
    6.2339    4.2161   10.2851 C   0  0  0  0  0  0  0  0  0  0  0  0
    4.7422    2.8084    8.8255 C   0  0  0  0  0  0  0  0  0  0  0  0
    4.5620    1.8910    7.7859 C   0  0  0  0  0  0  0  0  0  0  0  0
    5.7169    1.9114    3.8556 C   0  0  0  0  0  0  0  0  0  0  0  0
    4.6655    3.2010    4.0634 S   0  0  0  0  0  0  0  0  0  0  0  0
    4.7138    3.6662    2.4274 C   0  0  0  0  0  0  0  0  0  0  0  0
    5.5123    2.7583    1.6990 C   0  0  0  0  0  0  0  0  0  0  0  0
    5.4123    2.5366    0.2818 N   0  0  0  0  0  0  0  0  0  0  0  0
    4.5044    1.5190   -0.1944 C   0  0  0  0  0  0  0  0  0  0  0  0
    4.9529    0.5165   -1.0769 C   0  0  0  0  0  0  0  0  0  0  0  0
    4.0648   -0.4436   -1.5698 C   0  0  0  0  0  0  0  0  0  0  0  0
    2.7203   -0.4214   -1.1916 C   0  0  0  0  0  0  0  0  0  0  0  0
    1.7622   -1.4289   -1.7634 C   0  0  0  0  0  0  0  0  0  0  0  0
    2.2727    0.5521   -0.2791 C   0  0  0  0  0  0  0  0  0  0  0  0
    3.1644    1.5009    0.2245 C   0  0  0  0  0  0  0  0  0  0  0  0
    6.4171    3.0546   -0.6145 C   0  0  0  0  0  0  0  0  0  0  0  0
    6.0608    3.3983   -1.9315 C   0  0  0  0  0  0  0  0  0  0  0  0
    7.0399    3.7724   -2.8609 C   0  0  0  0  0  0  0  0  0  0  0  0
    8.3873    3.8041   -2.4902 C   0  0  0  0  0  0  0  0  0  0  0  0
    9.4268    4.2046   -3.4941 C   0  0  0  0  0  0  0  0  0  0  0  0
    8.7441    3.5074   -1.1647 C   0  0  0  0  0  0  0  0  0  0  0  0
    7.7661    3.1333   -0.2328 C   0  0  0  0  0  0  0  0  0  0  0  0
    6.0717    1.8108    2.5500 C   0  0  0  0  0  0  0  0  0  0  0  0
    6.8809    0.3686    2.2766 S   0  0  0  0  0  0  0  0  0  0  0  0
    3.8457    4.7083    1.8614 C   0  0  0  0  0  0  0  0  0  0  0  0
    4.2105    5.6236    0.8541 C   0  0  0  0  0  0  0  0  0  0  0  0
    5.6170    6.0435    0.5927 C   0  0  0  0  0  0  0  0  0  0  0  0
    6.0677    6.4020   -0.6915 C   0  0  0  0  0  0  0  0  0  0  0  0
    7.3996    6.7723   -0.8954 C   0  0  0  0  0  0  0  0  0  0  0  0
    8.3048    6.7626    0.1696 C   0  0  0  0  0  0  0  0  0  0  0  0
    7.8727    6.4178    1.4566 C   0  0  0  0  0  0  0  0  0  0  0  0
    8.8463    6.3566    2.6066 C   0  0  0  0  0  0  0  0  0  0  0  0
    9.3756    4.9377    2.7847 C   0  0  0  0  0  0  0  0  0  0  0  0
    6.5310    6.0814    1.6606 C   0  0  0  0  0  0  0  0  0  0  0  0
    3.0586    6.1699    0.2568 C   0  0  0  0  0  0  0  0  0  0  0  0
    2.7844    6.7896   -1.2993 S   0  0  0  0  0  0  0  0  0  0  0  0
    1.1025    6.5893   -1.1879 C   0  0  0  0  0  0  0  0  0  0  0  0
    0.2021    6.1218   -2.1150 C   0  0  0  0  0  0  0  0  0  0  0  0
    0.4833    5.7759   -3.4511 C   0  0  0  0  0  0  0  0  0  0  0  0
   -0.2450    4.7141   -4.0643 C   0  0  0  0  0  0  0  0  0  0  0  0
    0.1221    4.3474   -5.3185 N   0  0  0  0  0  0  0  0  0  0  0  0
    1.3776    5.3973   -5.5589 S   0  0  0  0  0  0  0  0  0  0  0  0
    1.4999    6.3018   -4.1752 N   0  0  0  0  0  0  0  0  0  0  0  0
   -1.3064    4.1502   -3.3579 C   0  0  0  0  0  0  0  0  0  0  0  0
   -2.2135    3.1829   -3.6889 C   0  0  0  0  0  0  0  0  0  0  0  0
   -2.4259    1.9467   -4.8304 S   0  0  0  0  0  0  0  0  0  0  0  0
   -3.8674    1.4587   -4.0516 C   0  0  0  0  0  0  0  0  0  0  0  0
   -4.7316    0.3797   -4.2266 C   0  0  0  0  0  0  0  0  0  0  0  0
   -4.3463   -0.8441   -4.9744 C   0  0  0  0  0  0  0  0  0  0  0  0
   -4.1546   -2.0357   -4.2567 C   0  0  0  0  0  0  0  0  0  0  0  0
   -3.8038   -3.2157   -4.9169 C   0  0  0  0  0  0  0  0  0  0  0  0
   -3.6216   -3.2171   -6.2979 C   0  0  0  0  0  0  0  0  0  0  0  0
   -3.7860   -2.0327   -7.0348 C   0  0  0  0  0  0  0  0  0  0  0  0
   -3.5054   -2.0386   -8.5204 C   0  0  0  0  0  0  0  0  0  0  0  0
   -2.0014   -2.1238   -8.7746 C   0  0  0  0  0  0  0  0  0  0  0  0
   -4.1482   -0.8386   -6.3680 C   0  0  0  0  0  0  0  0  0  0  0  0
   -5.7944    0.4409   -3.2919 C   0  0  0  0  0  0  0  0  0  0  0  0
   -5.5460    1.7323   -2.1985 S   0  0  0  0  0  0  0  0  0  0  0  0
   -4.1528    2.2488   -2.9658 C   0  0  0  0  0  0  0  0  0  0  0  0
   -3.1676    3.1932   -2.7344 C   0  0  0  0  0  0  0  0  0  0  0  0
   -2.9080    4.0675   -1.7319 N   0  0  0  0  0  0  0  0  0  0  0  0
   -1.6961    4.6077   -2.0905 C   0  0  0  0  0  0  0  0  0  0  0  0
   -0.8089    5.4613   -1.3898 C   0  0  0  0  0  0  0  0  0  0  0  0
   -0.4505    5.3687   -0.0644 N   0  0  0  0  0  0  0  0  0  0  0  0
    0.7381    6.0349    0.0078 C   0  0  0  0  0  0  0  0  0  0  0  0
    1.8587    5.7837    0.8124 C   0  0  0  0  0  0  0  0  0  0  0  0
    2.1618    4.6941    2.0448 S   0  0  0  0  0  0  0  0  0  0  0  0
   -0.8548    4.3222    0.8848 C   0  0  0  0  0  0  0  0  0  0  0  0
   -0.3256    2.9566    0.4546 C   0  0  0  0  0  0  0  0  0  0  0  0
   -3.9025    4.4719   -0.7128 C   0  0  0  0  0  0  0  0  0  0  0  0
   -3.8249    5.9519   -0.3425 C   0  0  0  0  0  0  0  0  0  0  0  0
   -6.9743   -0.4477   -3.2778 C   0  0  0  0  0  0  0  0  0  0  0  0
   -7.9006   -0.5894   -2.2440 C   0  0  0  0  0  0  0  0  0  0  0  0
   -8.8882   -1.5531   -2.5221 C   0  0  0  0  0  0  0  0  0  0  0  0
   -9.9128   -1.9885   -1.6544 C   0  0  0  0  0  0  0  0  0  0  0  0
  -10.1834   -1.3218   -0.3641 C   0  0  0  0  0  0  0  0  0  0  0  0
  -10.1201   -2.0645    1.1470 S   0  0  0  0  0  0  0  0  0  0  0  0
  -10.5467   -0.7033    2.0321 C   0  0  0  0  0  0  0  0  0  0  0  0
  -10.6570   -0.6565    3.5239 C   0  0  0  0  0  0  0  0  0  0  0  0
   -9.3215   -0.2768    4.1576 C   0  0  0  0  0  0  0  0  0  0  0  0
  -10.7278    0.3690    1.1598 C   0  0  0  0  0  0  0  0  0  0  0  0
  -11.1444    1.9947    1.6801 Cl  0  0  0  0  0  0  0  0  0  0  0  0
  -10.5229    0.0224   -0.1869 C   0  0  0  0  0  0  0  0  0  0  0  0
  -10.7340    1.1642   -1.5121 Cl  0  0  0  0  0  0  0  0  0  0  0  0
  -10.6720   -3.0981   -2.0789 C   0  0  0  0  0  0  0  0  0  0  0  0
  -10.4625   -3.7217   -3.3157 C   0  0  0  0  0  0  0  0  0  0  0  0
   -9.4814   -3.2438   -4.2096 C   0  0  0  0  0  0  0  0  0  0  0  0
   -9.1994   -3.9016   -5.5010 C   0  0  0  0  0  0  0  0  0  0  0  0
  -10.1153   -4.0977   -6.5295 C   0  0  0  0  0  0  0  0  0  0  0  0
   -9.5370   -4.6445   -7.6793 C   0  0  0  0  0  0  0  0  0  0  0  0
   -8.1735   -4.8761   -7.5538 C   0  0  0  0  0  0  0  0  0  0  0  0
   -7.2797   -5.4670   -8.5949 C   0  0  0  0  0  0  0  0  0  0  0  0
   -7.1777   -6.9774   -8.4172 C   0  0  0  0  0  0  0  0  0  0  0  0
   -7.6830   -4.4298   -6.0109 S   0  0  0  0  0  0  0  0  0  0  0  0
   -8.7138   -2.1601   -3.7701 C   0  0  0  0  0  0  0  0  0  0  0  0
   -7.4041   -1.4628   -4.5449 S   0  0  0  0  0  0  0  0  0  0  0  0
  -11.2121   -4.8924   -3.4812 C   0  0  0  0  0  0  0  0  0  0  0  0
  -12.0072   -5.1888   -2.3807 C   0  0  0  0  0  0  0  0  0  0  0  0
  -11.7972   -4.0004   -1.1991 S   0  0  0  0  0  0  0  0  0  0  0  0
  -12.5592   -6.5242   -2.1422 C   0  0  0  0  0  0  0  0  0  0  0  0
  -11.7725   -7.5385   -1.7218 C   0  0  0  0  0  0  0  0  0  0  0  0
  -10.3443   -7.4177   -1.3950 C   0  0  0  0  0  0  0  0  0  0  0  0
   -9.7466   -6.3535   -1.0816 O   0  0  0  0  0  0  0  0  0  0  0  0
   -9.7430   -8.7348   -1.4037 C   0  0  0  0  0  0  0  0  0  0  0  0
  -10.7301   -9.6789   -1.6573 C   0  0  0  0  0  0  0  0  0  0  0  0
  -10.3787  -11.0384   -1.7482 C   0  0  0  0  0  0  0  0  0  0  0  0
   -9.0408  -11.4133   -1.5546 C   0  0  0  0  0  0  0  0  0  0  0  0
   -8.0520  -10.4510   -1.2907 C   0  0  0  0  0  0  0  0  0  0  0  0
   -6.2372  -11.0371   -1.0578 Br  0  0  0  0  0  0  0  0  0  0  0  0
   -8.3971   -9.0899   -1.2157 C   0  0  0  0  0  0  0  0  0  0  0  0
   -7.1717   -7.8616   -0.8936 Cl  0  0  0  0  0  0  0  0  0  0  0  0
  -12.0612   -9.0026   -1.7863 C   0  0  0  0  0  0  0  0  0  0  0  0
  -13.2810   -9.6038   -1.8487 C   0  0  0  0  0  0  0  0  0  0  0  0
  -13.4530  -11.0284   -1.9714 C   0  0  0  0  0  0  0  0  0  0  0  0
  -13.6115  -12.1697   -2.0687 N   0  0  0  0  0  0  0  0  0  0  0  0
  -14.5149   -8.8739   -1.7274 C   0  0  0  0  0  0  0  0  0  0  0  0
  -15.5310   -8.3201   -1.6315 N   0  0  0  0  0  0  0  0  0  0  0  0
    6.7753   -2.2613    4.2202 H   0  0  0  0  0  0  0  0  0  0  0  0
   11.0971   -3.5811    7.8074 H   0  0  0  0  0  0  0  0  0  0  0  0
   13.0266   -2.2963    8.5695 H   0  0  0  0  0  0  0  0  0  0  0  0
    3.8308   -0.5134    4.0376 H   0  0  0  0  0  0  0  0  0  0  0  0
    2.4055   -2.4867    4.2546 H   0  0  0  0  0  0  0  0  0  0  0  0
    1.0625   -3.7422    6.9081 H   0  0  0  0  0  0  0  0  0  0  0  0
    1.8452   -4.5392    5.4831 H   0  0  0  0  0  0  0  0  0  0  0  0
    2.5021   -4.8168    7.1341 H   0  0  0  0  0  0  0  0  0  0  0  0
    3.6038   -2.9119    8.3727 H   0  0  0  0  0  0  0  0  0  0  0  0
    5.1037   -0.9798    8.1346 H   0  0  0  0  0  0  0  0  0  0  0  0
    7.7791    1.6934    6.6973 H   0  0  0  0  0  0  0  0  0  0  0  0
    8.1061    3.2702    8.5438 H   0  0  0  0  0  0  0  0  0  0  0  0
    7.1429    4.8396   10.1508 H   0  0  0  0  0  0  0  0  0  0  0  0
    5.3656    4.8955   10.4235 H   0  0  0  0  0  0  0  0  0  0  0  0
    6.3616    3.5963   11.2009 H   0  0  0  0  0  0  0  0  0  0  0  0
    3.8846    3.1170    9.4137 H   0  0  0  0  0  0  0  0  0  0  0  0
    3.5661    1.5223    7.5741 H   0  0  0  0  0  0  0  0  0  0  0  0
    5.9883    0.4776   -1.3815 H   0  0  0  0  0  0  0  0  0  0  0  0
    4.4235   -1.2048   -2.2535 H   0  0  0  0  0  0  0  0  0  0  0  0
    1.7734   -1.3548   -2.8742 H   0  0  0  0  0  0  0  0  0  0  0  0
    0.7216   -1.2525   -1.4170 H   0  0  0  0  0  0  0  0  0  0  0  0
    2.0707   -2.4539   -1.4671 H   0  0  0  0  0  0  0  0  0  0  0  0
    1.2405    0.5652    0.0374 H   0  0  0  0  0  0  0  0  0  0  0  0
    2.8012    2.2319    0.9247 H   0  0  0  0  0  0  0  0  0  0  0  0
    5.0204    3.3674   -2.2442 H   0  0  0  0  0  0  0  0  0  0  0  0
    6.7332    4.0219   -3.8695 H   0  0  0  0  0  0  0  0  0  0  0  0
   10.4479    3.9589   -3.1389 H   0  0  0  0  0  0  0  0  0  0  0  0
    9.2593    3.6628   -4.4513 H   0  0  0  0  0  0  0  0  0  0  0  0
    9.3641    5.2959   -3.6757 H   0  0  0  0  0  0  0  0  0  0  0  0
    9.7820    3.5515   -0.8540 H   0  0  0  0  0  0  0  0  0  0  0  0
    8.0748    2.8761    0.7732 H   0  0  0  0  0  0  0  0  0  0  0  0
    5.4158    6.3552   -1.5477 H   0  0  0  0  0  0  0  0  0  0  0  0
    7.7400    7.0370   -1.8913 H   0  0  0  0  0  0  0  0  0  0  0  0
    9.3458    7.0149   -0.0182 H   0  0  0  0  0  0  0  0  0  0  0  0
    8.3459    6.6794    3.5417 H   0  0  0  0  0  0  0  0  0  0  0  0
    9.6988    7.0458    2.4287 H   0  0  0  0  0  0  0  0  0  0  0  0
   10.1473    4.9280    3.5861 H   0  0  0  0  0  0  0  0  0  0  0  0
    8.5547    4.2485    3.0846 H   0  0  0  0  0  0  0  0  0  0  0  0
    9.8366    4.5650    1.8426 H   0  0  0  0  0  0  0  0  0  0  0  0
    6.2012    5.8583    2.6638 H   0  0  0  0  0  0  0  0  0  0  0  0
   -4.2961   -2.0539   -3.1794 H   0  0  0  0  0  0  0  0  0  0  0  0
   -3.6930   -4.1402   -4.3609 H   0  0  0  0  0  0  0  0  0  0  0  0
   -3.3409   -4.1392   -6.7938 H   0  0  0  0  0  0  0  0  0  0  0  0
   -4.0065   -2.9051   -8.9990 H   0  0  0  0  0  0  0  0  0  0  0  0
   -3.8938   -1.1145   -9.0033 H   0  0  0  0  0  0  0  0  0  0  0  0
   -1.7689   -2.0379   -9.8565 H   0  0  0  0  0  0  0  0  0  0  0  0
   -1.4906   -1.2903   -8.2283 H   0  0  0  0  0  0  0  0  0  0  0  0
   -1.6022   -3.0934   -8.3857 H   0  0  0  0  0  0  0  0  0  0  0  0
   -4.2650    0.0888   -6.9235 H   0  0  0  0  0  0  0  0  0  0  0  0
   -0.4970    4.5686    1.9022 H   0  0  0  0  0  0  0  0  0  0  0  0
   -1.9383    4.2808    1.0028 H   0  0  0  0  0  0  0  0  0  0  0  0
    0.7117    3.0470    0.0759 H   0  0  0  0  0  0  0  0  0  0  0  0
   -0.3377    2.2542    1.3189 H   0  0  0  0  0  0  0  0  0  0  0  0
   -0.9558    2.5274   -0.3522 H   0  0  0  0  0  0  0  0  0  0  0  0
   -4.9147    4.3153   -1.1363 H   0  0  0  0  0  0  0  0  0  0  0  0
   -3.8447    3.8108    0.1766 H   0  0  0  0  0  0  0  0  0  0  0  0
   -2.9428    6.1834    0.2824 H   0  0  0  0  0  0  0  0  0  0  0  0
   -3.8055    6.5817   -1.2540 H   0  0  0  0  0  0  0  0  0  0  0  0
   -4.7296    6.2197    0.2487 H   0  0  0  0  0  0  0  0  0  0  0  0
   -7.8331   -0.0447   -1.3097 H   0  0  0  0  0  0  0  0  0  0  0  0
  -10.9776   -1.6509    3.9034 H   0  0  0  0  0  0  0  0  0  0  0  0
  -11.4253    0.0826    3.8303 H   0  0  0  0  0  0  0  0  0  0  0  0
   -9.0002    0.7309    3.8144 H   0  0  0  0  0  0  0  0  0  0  0  0
   -8.5365   -1.0187    3.8803 H   0  0  0  0  0  0  0  0  0  0  0  0
   -9.4231   -0.2644    5.2605 H   0  0  0  0  0  0  0  0  0  0  0  0
  -11.1648   -3.8300   -6.4624 H   0  0  0  0  0  0  0  0  0  0  0  0
  -10.0959   -4.8654   -8.5785 H   0  0  0  0  0  0  0  0  0  0  0  0
   -6.2681   -5.0186   -8.4993 H   0  0  0  0  0  0  0  0  0  0  0  0
   -7.6683   -5.2328   -9.6102 H   0  0  0  0  0  0  0  0  0  0  0  0
   -6.7212   -7.2142   -7.4305 H   0  0  0  0  0  0  0  0  0  0  0  0
   -8.1792   -7.4513   -8.4735 H   0  0  0  0  0  0  0  0  0  0  0  0
   -6.5374   -7.4057   -9.2170 H   0  0  0  0  0  0  0  0  0  0  0  0
  -11.1050   -5.5660   -4.3270 H   0  0  0  0  0  0  0  0  0  0  0  0
  -13.5444   -6.7077   -2.5379 H   0  0  0  0  0  0  0  0  0  0  0  0
  -11.0846  -11.8136   -1.9905 H   0  0  0  0  0  0  0  0  0  0  0  0
   -8.7602  -12.4589   -1.6155 H   0  0  0  0  0  0  0  0  0  0  0  0
  1  2  2  3
  2  3  1  0
  3  4  2  0
  3  5  1  0
  5  6  2  0
  6  7  1  0
  7  8  2  0
  8  9  1  0
  9 10  1  0
  9 11  2  0
 11 12  1  0
  6 13  1  0
 13 14  2  3
 14 15  1  0
 15 16  3  0
 14 17  1  0
 17 18  3  0
  1 19  1  0
 19 20  2  0
 20 21  1  0
 21 22  1  0
 22 23  2  0
 23 24  1  0
 24 25  2  0
 25 26  1  0
 25 27  1  0
 27 28  2  0
 21 29  1  0
 29 30  2  0
 30 31  1  0
 31 32  2  0
 32 33  1  0
 32 34  1  0
 34 35  2  0
 20 36  1  0
 36 37  1  0
 37 38  1  0
 38 39  2  0
 39 40  1  0
 40 41  1  0
 41 42  2  0
 42 43  1  0
 43 44  2  0
 44 45  1  0
 44 46  1  0
 46 47  2  0
 40 48  1  0
 48 49  2  0
 49 50  1  0
 50 51  2  0
 51 52  1  0
 51 53  1  0
 53 54  2  0
 39 55  1  0
 55 56  1  0
 38 57  1  0
 57 58  2  0
 58 59  1  0
 59 60  2  0
 60 61  1  0
 61 62  2  0
 62 63  1  0
 63 64  1  0
 64 65  1  0
 63 66  2  0
 58 67  1  0
 67 68  1  0
 68 69  1  0
 69 70  1  0
 70 71  1  0
 71 72  1  0
 72 73  2  0
 73 74  1  0
 74 75  1  0
 72 76  1  0
 76 77  1  0
 77 78  1  0
 78 79  1  0
 79 80  1  0
 80 81  1  0
 81 82  2  0
 82 83  1  0
 83 84  2  0
 84 85  1  0
 85 86  1  0
 86 87  1  0
 85 88  2  0
 80 89  2  0
 89 90  1  0
 90 91  1  0
 91 92  1  0
 92 93  1  0
 93 94  1  0
 94 95  1  0
 95 96  1  0
 96 97  1  0
 97 98  1  0
 98 99  1  0
 96100  1  0
100101  1  0
 93102  1  0
102103  1  0
 89104  1  0
104105  2  0
105106  1  0
106107  2  0
107108  1  0
108109  1  0
109110  1  0
110111  1  0
111112  1  0
110113  2  0
113114  1  0
113115  1  0
115116  1  0
107117  1  0
117118  2  0
118119  1  0
119120  1  0
120121  2  0
121122  1  0
122123  2  0
123124  1  0
124125  1  0
123126  1  0
119127  2  0
127128  1  0
118129  1  0
129130  2  0
130131  1  0
130132  1  0
132133  2  3
133134  1  0
134135  2  0
134136  1  0
136137  2  0
137138  1  0
138139  2  0
139140  1  0
140141  1  0
140142  2  0
142143  1  0
137144  1  0
144145  2  3
145146  1  0
146147  3  0
145148  1  0
148149  3  0
 13  2  1  0
 56 19  1  0
 99 57  1  0
128104  1  0
144133  1  0
 11  5  1  0
 28 22  1  0
 35 29  1  0
 55 36  2  0
 66 59  1  0
 98 67  2  0
127106  1  0
142136  1  0
 47 41  1  0
 54 48  1  0
 97 69  2  0
115108  2  0
131117  1  0
 95 70  2  0
126120  1  0
 75 71  2  0
 94 76  2  0
 92 77  2  0
 91 79  2  0
 88 81  1  0
  1150  1  0
  7151  1  0
  8152  1  0
 23153  1  0
 24154  1  0
 26155  1  0
 26156  1  0
 26157  1  0
 27158  1  0
 28159  1  0
 30160  1  0
 31161  1  0
 33162  1  0
 33163  1  0
 33164  1  0
 34165  1  0
 35166  1  0
 42167  1  0
 43168  1  0
 45169  1  0
 45170  1  0
 45171  1  0
 46172  1  0
 47173  1  0
 49174  1  0
 50175  1  0
 52176  1  0
 52177  1  0
 52178  1  0
 53179  1  0
 54180  1  0
 60181  1  0
 61182  1  0
 62183  1  0
 64184  1  0
 64185  1  0
 65186  1  0
 65187  1  0
 65188  1  0
 66189  1  0
 82190  1  0
 83191  1  0
 84192  1  0
 86193  1  0
 86194  1  0
 87195  1  0
 87196  1  0
 87197  1  0
 88198  1  0
100199  1  0
100200  1  0
101201  1  0
101202  1  0
101203  1  0
102204  1  0
102205  1  0
103206  1  0
103207  1  0
103208  1  0
105209  1  0
111210  1  0
111211  1  0
112212  1  0
112213  1  0
112214  1  0
121215  1  0
122216  1  0
124217  1  0
124218  1  0
125219  1  0
125220  1  0
125221  1  0
129222  1  0
132223  1  0
138224  1  0
139225  1  0
M  END

