
     RDKit          3D

193213  0  0  0  0  0  0  0  0999 V2000
    2.8237    5.7025    3.9273 C   0  0  0  0  0  0  0  0  0  0  0  0
    3.8843    6.4152    4.3528 C   0  0  0  0  0  0  0  0  0  0  0  0
    5.2905    6.1550    4.0174 C   0  0  0  0  0  0  0  0  0  0  0  0
    5.7099    5.4945    3.0270 O   0  0  0  0  0  0  0  0  0  0  0  0
    6.1312    6.8575    4.9677 C   0  0  0  0  0  0  0  0  0  0  0  0
    5.3239    7.6205    5.8006 C   0  0  0  0  0  0  0  0  0  0  0  0
    5.8836    8.2838    6.8984 C   0  0  0  0  0  0  0  0  0  0  0  0
    7.2717    8.2192    7.0974 C   0  0  0  0  0  0  0  0  0  0  0  0
    8.0895    7.4647    6.2368 C   0  0  0  0  0  0  0  0  0  0  0  0
    9.9729    7.3867    6.5956 Br  0  0  0  0  0  0  0  0  0  0  0  0
    7.5166    6.7673    5.1535 C   0  0  0  0  0  0  0  0  0  0  0  0
    8.5106    5.7625    4.0994 Cl  0  0  0  0  0  0  0  0  0  0  0  0
    3.8989    7.4999    5.3839 C   0  0  0  0  0  0  0  0  0  0  0  0
    2.8961    8.3671    5.6735 C   0  0  0  0  0  0  0  0  0  0  0  0
    3.0841    9.5025    6.5367 C   0  0  0  0  0  0  0  0  0  0  0  0
    3.2143   10.4220    7.2297 N   0  0  0  0  0  0  0  0  0  0  0  0
    1.6072    8.3028    5.0370 C   0  0  0  0  0  0  0  0  0  0  0  0
    0.5693    8.2663    4.5335 N   0  0  0  0  0  0  0  0  0  0  0  0
    2.9373    4.5804    2.9872 C   0  0  0  0  0  0  0  0  0  0  0  0
    2.2870    4.4997    1.7520 C   0  0  0  0  0  0  0  0  0  0  0  0
    1.1594    5.3070    1.3815 N   0  0  0  0  0  0  0  0  0  0  0  0
    1.2399    6.1421    0.2073 C   0  0  0  0  0  0  0  0  0  0  0  0
    2.4166    6.8570   -0.0759 C   0  0  0  0  0  0  0  0  0  0  0  0
    2.4924    7.6829   -1.2013 C   0  0  0  0  0  0  0  0  0  0  0  0
    1.3864    7.8214   -2.0524 C   0  0  0  0  0  0  0  0  0  0  0  0
    1.4648    8.7318   -3.2469 C   0  0  0  0  0  0  0  0  0  0  0  0
    0.2136    7.0988   -1.7819 C   0  0  0  0  0  0  0  0  0  0  0  0
    0.1446    6.2573   -0.6688 C   0  0  0  0  0  0  0  0  0  0  0  0
   -0.0870    5.1236    2.0958 C   0  0  0  0  0  0  0  0  0  0  0  0
   -0.4433    3.8615    2.6109 C   0  0  0  0  0  0  0  0  0  0  0  0
   -1.6456    3.6847    3.2985 C   0  0  0  0  0  0  0  0  0  0  0  0
   -2.5110    4.7694    3.4927 C   0  0  0  0  0  0  0  0  0  0  0  0
   -3.8107    4.5571    4.2105 C   0  0  0  0  0  0  0  0  0  0  0  0
   -2.1603    6.0325    2.9981 C   0  0  0  0  0  0  0  0  0  0  0  0
   -0.9568    6.2077    2.3078 C   0  0  0  0  0  0  0  0  0  0  0  0
    2.6581    3.3502    1.0678 C   0  0  0  0  0  0  0  0  0  0  0  0
    2.2642    2.6883   -0.4230 S   0  0  0  0  0  0  0  0  0  0  0  0
    3.2049    1.2858   -0.1662 C   0  0  0  0  0  0  0  0  0  0  0  0
    3.7886    1.3272    1.1041 C   0  0  0  0  0  0  0  0  0  0  0  0
    4.5467    0.2620    1.6941 N   0  0  0  0  0  0  0  0  0  0  0  0
    4.0900   -0.3279    2.9272 C   0  0  0  0  0  0  0  0  0  0  0  0
    4.9997   -0.6734    3.9446 C   0  0  0  0  0  0  0  0  0  0  0  0
    4.5428   -1.1781    5.1657 C   0  0  0  0  0  0  0  0  0  0  0  0
    3.1674   -1.3351    5.3969 C   0  0  0  0  0  0  0  0  0  0  0  0
    2.6786   -1.8825    6.7049 C   0  0  0  0  0  0  0  0  0  0  0  0
    2.2584   -1.0286    4.3744 C   0  0  0  0  0  0  0  0  0  0  0  0
    2.7147   -0.5299    3.1521 C   0  0  0  0  0  0  0  0  0  0  0  0
    5.8075   -0.1069    1.1130 C   0  0  0  0  0  0  0  0  0  0  0  0
    6.7567    0.8799    0.7921 C   0  0  0  0  0  0  0  0  0  0  0  0
    7.9934    0.5187    0.2576 C   0  0  0  0  0  0  0  0  0  0  0  0
    8.2964   -0.8314    0.0237 C   0  0  0  0  0  0  0  0  0  0  0  0
    9.6492   -1.2195   -0.4975 C   0  0  0  0  0  0  0  0  0  0  0  0
    7.3499   -1.8175    0.3434 C   0  0  0  0  0  0  0  0  0  0  0  0
    6.1139   -1.4557    0.8857 C   0  0  0  0  0  0  0  0  0  0  0  0
    3.4761    2.5128    1.7540 C   0  0  0  0  0  0  0  0  0  0  0  0
    3.8570    3.1670    3.2474 S   0  0  0  0  0  0  0  0  0  0  0  0
    3.3196    0.1891   -1.1296 C   0  0  0  0  0  0  0  0  0  0  0  0
    3.6675    0.3310   -2.4900 C   0  0  0  0  0  0  0  0  0  0  0  0
    4.1494    1.5977   -3.0886 C   0  0  0  0  0  0  0  0  0  0  0  0
    3.5819    2.1129   -4.2656 C   0  0  0  0  0  0  0  0  0  0  0  0
    3.9384    3.3891   -4.7172 C   0  0  0  0  0  0  0  0  0  0  0  0
    4.8539    4.1609   -4.0009 C   0  0  0  0  0  0  0  0  0  0  0  0
    5.4479    3.6506   -2.8364 C   0  0  0  0  0  0  0  0  0  0  0  0
    6.3674    4.5023   -1.9979 C   0  0  0  0  0  0  0  0  0  0  0  0
    5.6222    5.0758   -0.7988 C   0  0  0  0  0  0  0  0  0  0  0  0
    5.1051    2.3627   -2.4004 C   0  0  0  0  0  0  0  0  0  0  0  0
    3.4294   -0.8612   -3.1812 C   0  0  0  0  0  0  0  0  0  0  0  0
    3.4026   -1.2802   -4.8277 S   0  0  0  0  0  0  0  0  0  0  0  0
    2.7355   -2.8044   -4.4936 C   0  0  0  0  0  0  0  0  0  0  0  0
    1.8648   -3.6074   -5.1790 C   0  0  0  0  0  0  0  0  0  0  0  0
    1.3553   -3.4576   -6.4800 C   0  0  0  0  0  0  0  0  0  0  0  0
    0.1273   -4.1022   -6.8165 C   0  0  0  0  0  0  0  0  0  0  0  0
   -0.3839   -3.8578   -8.0504 N   0  0  0  0  0  0  0  0  0  0  0  0
    0.7688   -2.8110   -8.6221 S   0  0  0  0  0  0  0  0  0  0  0  0
    1.8925   -2.6346   -7.4165 N   0  0  0  0  0  0  0  0  0  0  0  0
   -0.4775   -4.9302   -5.8669 C   0  0  0  0  0  0  0  0  0  0  0  0
   -1.6967   -5.5589   -5.8485 C   0  0  0  0  0  0  0  0  0  0  0  0
   -3.2023   -5.0973   -6.4765 S   0  0  0  0  0  0  0  0  0  0  0  0
   -4.0238   -5.7260   -5.1267 C   0  0  0  0  0  0  0  0  0  0  0  0
   -5.3189   -5.5136   -4.6323 C   0  0  0  0  0  0  0  0  0  0  0  0
   -6.3841   -4.7939   -5.3583 C   0  0  0  0  0  0  0  0  0  0  0  0
   -6.1637   -3.5001   -5.8549 C   0  0  0  0  0  0  0  0  0  0  0  0
   -7.1925   -2.8105   -6.5021 C   0  0  0  0  0  0  0  0  0  0  0  0
   -8.4476   -3.4045   -6.6580 C   0  0  0  0  0  0  0  0  0  0  0  0
   -8.6754   -4.7068   -6.1859 C   0  0  0  0  0  0  0  0  0  0  0  0
  -10.0292   -5.3467   -6.3358 C   0  0  0  0  0  0  0  0  0  0  0  0
  -10.8763   -5.1049   -5.0900 C   0  0  0  0  0  0  0  0  0  0  0  0
   -7.6459   -5.3887   -5.5166 C   0  0  0  0  0  0  0  0  0  0  0  0
   -5.4229   -5.9394   -3.2933 C   0  0  0  0  0  0  0  0  0  0  0  0
   -3.9025   -6.4872   -2.7508 S   0  0  0  0  0  0  0  0  0  0  0  0
   -3.1411   -6.2599   -4.2236 C   0  0  0  0  0  0  0  0  0  0  0  0
   -1.8184   -6.1416   -4.6124 C   0  0  0  0  0  0  0  0  0  0  0  0
   -0.7332   -5.9153   -3.8312 N   0  0  0  0  0  0  0  0  0  0  0  0
    0.0610   -5.1106   -4.5922 C   0  0  0  0  0  0  0  0  0  0  0  0
    1.1605   -4.3205   -4.1952 C   0  0  0  0  0  0  0  0  0  0  0  0
    1.4369   -3.8313   -2.9407 N   0  0  0  0  0  0  0  0  0  0  0  0
    2.4647   -2.9648   -3.1611 C   0  0  0  0  0  0  0  0  0  0  0  0
    2.8957   -1.8702   -2.4174 C   0  0  0  0  0  0  0  0  0  0  0  0
    2.7023   -1.3628   -0.8300 S   0  0  0  0  0  0  0  0  0  0  0  0
    0.4204   -3.5941   -1.8963 C   0  0  0  0  0  0  0  0  0  0  0  0
   -0.4852   -2.4107   -2.2616 C   0  0  0  0  0  0  0  0  0  0  0  0
   -0.3087   -6.7799   -2.7225 C   0  0  0  0  0  0  0  0  0  0  0  0
    0.0603   -8.1735   -3.2214 C   0  0  0  0  0  0  0  0  0  0  0  0
   -6.5028   -5.5983   -2.3532 C   0  0  0  0  0  0  0  0  0  0  0  0
   -6.8420   -4.2522   -2.1328 C   0  0  0  0  0  0  0  0  0  0  0  0
   -7.6870   -3.9069   -1.0725 C   0  0  0  0  0  0  0  0  0  0  0  0
   -8.1926   -4.8980   -0.2248 C   0  0  0  0  0  0  0  0  0  0  0  0
   -7.9538   -6.2506   -0.5219 C   0  0  0  0  0  0  0  0  0  0  0  0
   -7.0804   -6.5954   -1.5543 C   0  0  0  0  0  0  0  0  0  0  0  0
   -8.9441   -4.4962    0.9813 C   0  0  0  0  0  0  0  0  0  0  0  0
   -8.5658   -4.8225    2.2383 C   0  0  0  0  0  0  0  0  0  0  0  0
   -7.4686   -5.7314    2.6065 C   0  0  0  0  0  0  0  0  0  0  0  0
   -6.5091   -6.1028    1.8729 O   0  0  0  0  0  0  0  0  0  0  0  0
   -7.6476   -6.1316    3.9818 C   0  0  0  0  0  0  0  0  0  0  0  0
   -6.9516   -7.1115    4.6884 C   0  0  0  0  0  0  0  0  0  0  0  0
   -7.3488   -7.3964    6.0010 C   0  0  0  0  0  0  0  0  0  0  0  0
   -8.4392   -6.7147    6.5741 C   0  0  0  0  0  0  0  0  0  0  0  0
   -9.0735   -7.2034    8.5258 I   0  0  0  0  0  0  0  0  0  0  0  0
   -9.1410   -5.7446    5.8353 C   0  0  0  0  0  0  0  0  0  0  0  0
   -8.7166   -5.4410    4.5289 C   0  0  0  0  0  0  0  0  0  0  0  0
   -9.2842   -4.5097    3.5137 C   0  0  0  0  0  0  0  0  0  0  0  0
  -10.0572   -3.4207    3.7671 C   0  0  0  0  0  0  0  0  0  0  0  0
  -10.2973   -2.3972    2.7808 C   0  0  0  0  0  0  0  0  0  0  0  0
  -10.4876   -1.5684    1.9927 N   0  0  0  0  0  0  0  0  0  0  0  0
  -10.5602   -3.1214    5.0816 C   0  0  0  0  0  0  0  0  0  0  0  0
  -10.9613   -2.8577    6.1390 N   0  0  0  0  0  0  0  0  0  0  0  0
    1.8274    5.9278    4.2737 H   0  0  0  0  0  0  0  0  0  0  0  0
    5.2822    8.8115    7.6186 H   0  0  0  0  0  0  0  0  0  0  0  0
    7.7073    8.7284    7.9450 H   0  0  0  0  0  0  0  0  0  0  0  0
    3.2733    6.7816    0.5850 H   0  0  0  0  0  0  0  0  0  0  0  0
    3.4070    8.2274   -1.4006 H   0  0  0  0  0  0  0  0  0  0  0  0
    0.4616    8.8913   -3.6994 H   0  0  0  0  0  0  0  0  0  0  0  0
    2.1393    8.2839   -4.0055 H   0  0  0  0  0  0  0  0  0  0  0  0
    1.8670    9.7213   -2.9455 H   0  0  0  0  0  0  0  0  0  0  0  0
   -0.6470    7.1819   -2.4332 H   0  0  0  0  0  0  0  0  0  0  0  0
   -0.7665    5.6988   -0.4905 H   0  0  0  0  0  0  0  0  0  0  0  0
    0.2010    3.0053    2.4693 H   0  0  0  0  0  0  0  0  0  0  0  0
   -1.9060    2.7055    3.6786 H   0  0  0  0  0  0  0  0  0  0  0  0
   -4.3735    5.5093    4.3334 H   0  0  0  0  0  0  0  0  0  0  0  0
   -3.6153    4.1327    5.2197 H   0  0  0  0  0  0  0  0  0  0  0  0
   -4.4405    3.8424    3.6333 H   0  0  0  0  0  0  0  0  0  0  0  0
   -2.8217    6.8802    3.1347 H   0  0  0  0  0  0  0  0  0  0  0  0
   -0.6977    7.1946    1.9408 H   0  0  0  0  0  0  0  0  0  0  0  0
    6.0645   -0.5321    3.8023 H   0  0  0  0  0  0  0  0  0  0  0  0
    5.2603   -1.4383    5.9345 H   0  0  0  0  0  0  0  0  0  0  0  0
    3.3825   -1.6294    7.5250 H   0  0  0  0  0  0  0  0  0  0  0  0
    2.5858   -2.9869    6.6299 H   0  0  0  0  0  0  0  0  0  0  0  0
    1.6873   -1.4474    6.9617 H   0  0  0  0  0  0  0  0  0  0  0  0
    1.1944   -1.1712    4.5275 H   0  0  0  0  0  0  0  0  0  0  0  0
    1.9937   -0.2947    2.3802 H   0  0  0  0  0  0  0  0  0  0  0  0
    6.5417    1.9279    0.9752 H   0  0  0  0  0  0  0  0  0  0  0  0
    8.7197    1.2907    0.0358 H   0  0  0  0  0  0  0  0  0  0  0  0
   10.3572   -1.3046    0.3529 H   0  0  0  0  0  0  0  0  0  0  0  0
    9.6074   -2.1932   -1.0303 H   0  0  0  0  0  0  0  0  0  0  0  0
   10.0291   -0.4535   -1.2077 H   0  0  0  0  0  0  0  0  0  0  0  0
    7.5703   -2.8635    0.1814 H   0  0  0  0  0  0  0  0  0  0  0  0
    5.3901   -2.2247    1.1235 H   0  0  0  0  0  0  0  0  0  0  0  0
    2.8327    1.5532   -4.8078 H   0  0  0  0  0  0  0  0  0  0  0  0
    3.4714    3.7963   -5.6057 H   0  0  0  0  0  0  0  0  0  0  0  0
    5.0900    5.1592   -4.3440 H   0  0  0  0  0  0  0  0  0  0  0  0
    6.7822    5.3373   -2.6038 H   0  0  0  0  0  0  0  0  0  0  0  0
    7.2234    3.8910   -1.6416 H   0  0  0  0  0  0  0  0  0  0  0  0
    4.8017    5.7412   -1.1454 H   0  0  0  0  0  0  0  0  0  0  0  0
    5.1997    4.2634   -0.1745 H   0  0  0  0  0  0  0  0  0  0  0  0
    6.3211    5.6734   -0.1760 H   0  0  0  0  0  0  0  0  0  0  0  0
    5.5555    1.9751   -1.4941 H   0  0  0  0  0  0  0  0  0  0  0  0
   -5.2005   -3.0233   -5.7262 H   0  0  0  0  0  0  0  0  0  0  0  0
   -7.0233   -1.8049   -6.8733 H   0  0  0  0  0  0  0  0  0  0  0  0
   -9.2365   -2.8539   -7.1540 H   0  0  0  0  0  0  0  0  0  0  0  0
   -9.9056   -6.4436   -6.4987 H   0  0  0  0  0  0  0  0  0  0  0  0
  -10.5549   -4.9349   -7.2244 H   0  0  0  0  0  0  0  0  0  0  0  0
  -11.0673   -4.0172   -4.9635 H   0  0  0  0  0  0  0  0  0  0  0  0
  -11.8470   -5.6381   -5.1954 H   0  0  0  0  0  0  0  0  0  0  0  0
  -10.3530   -5.4911   -4.1838 H   0  0  0  0  0  0  0  0  0  0  0  0
   -7.8198   -6.3881   -5.1315 H   0  0  0  0  0  0  0  0  0  0  0  0
    0.9041   -3.4232   -0.9141 H   0  0  0  0  0  0  0  0  0  0  0  0
   -0.2417   -4.4558   -1.7452 H   0  0  0  0  0  0  0  0  0  0  0  0
    0.0944   -1.4613   -2.3138 H   0  0  0  0  0  0  0  0  0  0  0  0
   -0.9755   -2.5921   -3.2421 H   0  0  0  0  0  0  0  0  0  0  0  0
   -1.2721   -2.2894   -1.4869 H   0  0  0  0  0  0  0  0  0  0  0  0
   -1.1218   -6.8560   -1.9715 H   0  0  0  0  0  0  0  0  0  0  0  0
    0.5988   -6.3762   -2.2307 H   0  0  0  0  0  0  0  0  0  0  0  0
   -0.7465   -8.6105   -3.8368 H   0  0  0  0  0  0  0  0  0  0  0  0
    0.2396   -8.8389   -2.3550 H   0  0  0  0  0  0  0  0  0  0  0  0
    0.9892   -8.1215   -3.8245 H   0  0  0  0  0  0  0  0  0  0  0  0
   -6.3953   -3.4684   -2.7322 H   0  0  0  0  0  0  0  0  0  0  0  0
   -7.8918   -2.8625   -0.8775 H   0  0  0  0  0  0  0  0  0  0  0  0
   -8.3861   -7.0330    0.0872 H   0  0  0  0  0  0  0  0  0  0  0  0
   -6.8297   -7.6385   -1.7154 H   0  0  0  0  0  0  0  0  0  0  0  0
   -9.8213   -3.8936    0.8151 H   0  0  0  0  0  0  0  0  0  0  0  0
   -6.1416   -7.6601    4.2248 H   0  0  0  0  0  0  0  0  0  0  0  0
   -6.8286   -8.1633    6.5657 H   0  0  0  0  0  0  0  0  0  0  0  0
  -10.0175   -5.2952    6.2721 H   0  0  0  0  0  0  0  0  0  0  0  0
  1  2  2  3
  2  3  1  0
  3  4  2  0
  3  5  1  0
  5  6  2  0
  6  7  1  0
  7  8  2  0
  8  9  1  0
  9 10  1  0
  9 11  2  0
 11 12  1  0
  6 13  1  0
 13 14  2  3
 14 15  1  0
 15 16  3  0
 14 17  1  0
 17 18  3  0
  1 19  1  0
 19 20  2  0
 20 21  1  0
 21 22  1  0
 22 23  2  0
 23 24  1  0
 24 25  2  0
 25 26  1  0
 25 27  1  0
 27 28  2  0
 21 29  1  0
 29 30  2  0
 30 31  1  0
 31 32  2  0
 32 33  1  0
 32 34  1  0
 34 35  2  0
 20 36  1  0
 36 37  1  0
 37 38  1  0
 38 39  2  0
 39 40  1  0
 40 41  1  0
 41 42  2  0
 42 43  1  0
 43 44  2  0
 44 45  1  0
 44 46  1  0
 46 47  2  0
 40 48  1  0
 48 49  2  0
 49 50  1  0
 50 51  2  0
 51 52  1  0
 51 53  1  0
 53 54  2  0
 39 55  1  0
 55 56  1  0
 38 57  1  0
 57 58  2  0
 58 59  1  0
 59 60  2  0
 60 61  1  0
 61 62  2  0
 62 63  1  0
 63 64  1  0
 64 65  1  0
 63 66  2  0
 58 67  1  0
 67 68  1  0
 68 69  1  0
 69 70  1  0
 70 71  1  0
 71 72  1  0
 72 73  2  0
 73 74  1  0
 74 75  1  0
 72 76  1  0
 76 77  1  0
 77 78  1  0
 78 79  1  0
 79 80  1  0
 80 81  1  0
 81 82  2  0
 82 83  1  0
 83 84  2  0
 84 85  1  0
 85 86  1  0
 86 87  1  0
 85 88  2  0
 80 89  2  0
 89 90  1  0
 90 91  1  0
 91 92  1  0
 92 93  1  0
 93 94  1  0
 94 95  1  0
 95 96  1  0
 96 97  1  0
 97 98  1  0
 98 99  1  0
 96100  1  0
100101  1  0
 93102  1  0
102103  1  0
 89104  1  0
104105  2  0
105106  1  0
106107  2  0
107108  1  0
108109  2  0
107110  1  0
110111  2  3
111112  1  0
112113  2  0
112114  1  0
114115  2  0
115116  1  0
116117  2  0
117118  1  0
117119  1  0
119120  2  0
120121  1  0
121122  2  3
122123  1  0
123124  3  0
122125  1  0
125126  3  0
 13  2  1  0
 56 19  1  0
 99 57  1  0
109104  1  0
121111  1  0
 11  5  1  0
 28 22  1  0
 35 29  1  0
 55 36  2  0
 66 59  1  0
 98 67  2  0
120114  1  0
 47 41  1  0
 54 48  1  0
 97 69  2  0
 95 70  2  0
 75 71  2  0
 94 76  2  0
 92 77  2  0
 91 79  2  0
 88 81  1  0
  1127  1  0
  7128  1  0
  8129  1  0
 23130  1  0
 24131  1  0
 26132  1  0
 26133  1  0
 26134  1  0
 27135  1  0
 28136  1  0
 30137  1  0
 31138  1  0
 33139  1  0
 33140  1  0
 33141  1  0
 34142  1  0
 35143  1  0
 42144  1  0
 43145  1  0
 45146  1  0
 45147  1  0
 45148  1  0
 46149  1  0
 47150  1  0
 49151  1  0
 50152  1  0
 52153  1  0
 52154  1  0
 52155  1  0
 53156  1  0
 54157  1  0
 60158  1  0
 61159  1  0
 62160  1  0
 64161  1  0
 64162  1  0
 65163  1  0
 65164  1  0
 65165  1  0
 66166  1  0
 82167  1  0
 83168  1  0
 84169  1  0
 86170  1  0
 86171  1  0
 87172  1  0
 87173  1  0
 87174  1  0
 88175  1  0
100176  1  0
100177  1  0
101178  1  0
101179  1  0
101180  1  0
102181  1  0
102182  1  0
103183  1  0
103184  1  0
103185  1  0
105186  1  0
106187  1  0
108188  1  0
109189  1  0
110190  1  0
115191  1  0
116192  1  0
119193  1  0
M  END

