
     RDKit          3D

199220  0  0  0  0  0  0  0  0999 V2000
    0.1612   -4.0374   -5.5400 C   0  0  0  0  0  0  0  0  0  0  0  0
    1.4997   -4.1685   -5.4583 C   0  0  0  0  0  0  0  0  0  0  0  0
    2.3891   -3.5000   -4.5001 C   0  0  0  0  0  0  0  0  0  0  0  0
    2.2472   -2.3323   -4.0500 O   0  0  0  0  0  0  0  0  0  0  0  0
    3.5740   -4.3234   -4.3298 C   0  0  0  0  0  0  0  0  0  0  0  0
    3.5312   -5.3609   -5.2486 C   0  0  0  0  0  0  0  0  0  0  0  0
    4.5142   -6.3594   -5.2208 C   0  0  0  0  0  0  0  0  0  0  0  0
    5.5451   -6.2731   -4.2716 C   0  0  0  0  0  0  0  0  0  0  0  0
    5.5884   -5.2131   -3.3495 C   0  0  0  0  0  0  0  0  0  0  0  0
    6.9966   -5.1799   -2.0497 Br  0  0  0  0  0  0  0  0  0  0  0  0
    4.5825   -4.2230   -3.3640 C   0  0  0  0  0  0  0  0  0  0  0  0
    4.5719   -2.9241   -2.1721 Cl  0  0  0  0  0  0  0  0  0  0  0  0
    2.3224   -5.2282   -6.1057 C   0  0  0  0  0  0  0  0  0  0  0  0
    2.1338   -5.7536   -7.3405 C   0  0  0  0  0  0  0  0  0  0  0  0
    1.0804   -5.2943   -8.2079 C   0  0  0  0  0  0  0  0  0  0  0  0
    0.2346   -4.9258   -8.9079 N   0  0  0  0  0  0  0  0  0  0  0  0
    3.0649   -6.6711   -7.9417 C   0  0  0  0  0  0  0  0  0  0  0  0
    3.8039   -7.4089   -8.4442 N   0  0  0  0  0  0  0  0  0  0  0  0
   -0.6674   -3.1877   -4.6600 C   0  0  0  0  0  0  0  0  0  0  0  0
   -1.8475   -2.5364   -5.0577 C   0  0  0  0  0  0  0  0  0  0  0  0
   -2.3300   -2.4798   -6.4085 N   0  0  0  0  0  0  0  0  0  0  0  0
   -3.1921   -3.5248   -6.9005 C   0  0  0  0  0  0  0  0  0  0  0  0
   -4.1620   -4.1092   -6.0688 C   0  0  0  0  0  0  0  0  0  0  0  0
   -5.0440   -5.0693   -6.5717 C   0  0  0  0  0  0  0  0  0  0  0  0
   -4.9591   -5.4728   -7.9123 C   0  0  0  0  0  0  0  0  0  0  0  0
   -5.9606   -6.4345   -8.4767 C   0  0  0  0  0  0  0  0  0  0  0  0
   -3.9883   -4.8995   -8.7447 C   0  0  0  0  0  0  0  0  0  0  0  0
   -3.1058   -3.9389   -8.2419 C   0  0  0  0  0  0  0  0  0  0  0  0
   -2.0659   -1.2970   -7.1934 C   0  0  0  0  0  0  0  0  0  0  0  0
   -0.8039   -0.6766   -7.1530 C   0  0  0  0  0  0  0  0  0  0  0  0
   -0.5471    0.4599   -7.9250 C   0  0  0  0  0  0  0  0  0  0  0  0
   -1.5447    0.9951   -8.7538 C   0  0  0  0  0  0  0  0  0  0  0  0
   -1.2682    2.2217   -9.5683 C   0  0  0  0  0  0  0  0  0  0  0  0
   -2.8146    0.4010   -8.7709 C   0  0  0  0  0  0  0  0  0  0  0  0
   -3.0722   -0.7363   -7.9997 C   0  0  0  0  0  0  0  0  0  0  0  0
   -2.4020   -1.8065   -4.0127 C   0  0  0  0  0  0  0  0  0  0  0  0
   -3.5869   -0.6260   -3.9339 S   0  0  0  0  0  0  0  0  0  0  0  0
   -3.2260   -0.1836   -2.3240 C   0  0  0  0  0  0  0  0  0  0  0  0
   -2.1598   -0.9878   -1.8512 C   0  0  0  0  0  0  0  0  0  0  0  0
   -1.3725   -0.6995   -0.6785 N   0  0  0  0  0  0  0  0  0  0  0  0
   -0.2343    0.2028   -0.7754 C   0  0  0  0  0  0  0  0  0  0  0  0
   -0.1489    1.1440   -1.8211 C   0  0  0  0  0  0  0  0  0  0  0  0
    0.9236    2.0374   -1.9030 C   0  0  0  0  0  0  0  0  0  0  0  0
    1.9551    1.9918   -0.9595 C   0  0  0  0  0  0  0  0  0  0  0  0
    3.0839    2.9774   -1.0371 C   0  0  0  0  0  0  0  0  0  0  0  0
    1.9013    1.0448    0.0709 C   0  0  0  0  0  0  0  0  0  0  0  0
    0.8278    0.1505    0.1549 C   0  0  0  0  0  0  0  0  0  0  0  0
   -1.6251   -1.4538    0.5264 C   0  0  0  0  0  0  0  0  0  0  0  0
   -1.7014   -0.8002    1.7705 C   0  0  0  0  0  0  0  0  0  0  0  0
   -1.8455   -1.5369    2.9499 C   0  0  0  0  0  0  0  0  0  0  0  0
   -1.9124   -2.9383    2.9063 C   0  0  0  0  0  0  0  0  0  0  0  0
   -2.0691   -3.7295    4.1707 C   0  0  0  0  0  0  0  0  0  0  0  0
   -1.8870   -3.5883    1.6653 C   0  0  0  0  0  0  0  0  0  0  0  0
   -1.7453   -2.8533    0.4856 C   0  0  0  0  0  0  0  0  0  0  0  0
   -1.7355   -1.8754   -2.8354 C   0  0  0  0  0  0  0  0  0  0  0  0
   -0.3920   -2.8657   -3.0013 S   0  0  0  0  0  0  0  0  0  0  0  0
   -3.7143    1.0529   -1.6871 C   0  0  0  0  0  0  0  0  0  0  0  0
   -3.8044    2.3165   -2.3144 C   0  0  0  0  0  0  0  0  0  0  0  0
   -3.6772    2.5742   -3.7571 C   0  0  0  0  0  0  0  0  0  0  0  0
   -2.4465    2.9262   -4.3286 C   0  0  0  0  0  0  0  0  0  0  0  0
   -2.3565    3.1628   -5.7019 C   0  0  0  0  0  0  0  0  0  0  0  0
   -3.4985    3.0928   -6.5044 C   0  0  0  0  0  0  0  0  0  0  0  0
   -4.7458    2.7887   -5.9357 C   0  0  0  0  0  0  0  0  0  0  0  0
   -5.9876    2.7452   -6.7864 C   0  0  0  0  0  0  0  0  0  0  0  0
   -6.3342    1.3144   -7.1783 C   0  0  0  0  0  0  0  0  0  0  0  0
   -4.8236    2.5144   -4.5617 C   0  0  0  0  0  0  0  0  0  0  0  0
   -4.0016    3.3291   -1.3807 C   0  0  0  0  0  0  0  0  0  0  0  0
   -3.6103    4.9864   -1.4370 S   0  0  0  0  0  0  0  0  0  0  0  0
   -3.7169    5.0995    0.2530 C   0  0  0  0  0  0  0  0  0  0  0  0
   -3.1433    5.8724    1.2214 C   0  0  0  0  0  0  0  0  0  0  0  0
   -2.4496    7.0775    1.1006 C   0  0  0  0  0  0  0  0  0  0  0  0
   -1.7429    7.5750    2.2242 C   0  0  0  0  0  0  0  0  0  0  0  0
   -1.0386    8.7202    2.0508 N   0  0  0  0  0  0  0  0  0  0  0  0
   -1.3803    9.0231    0.4593 S   0  0  0  0  0  0  0  0  0  0  0  0
   -2.3601    7.7920   -0.0513 N   0  0  0  0  0  0  0  0  0  0  0  0
   -1.7505    6.8327    3.4118 C   0  0  0  0  0  0  0  0  0  0  0  0
   -0.9136    6.9499    4.4888 C   0  0  0  0  0  0  0  0  0  0  0  0
    0.6510    7.5962    4.6298 S   0  0  0  0  0  0  0  0  0  0  0  0
    1.0980    6.4381    5.7855 C   0  0  0  0  0  0  0  0  0  0  0  0
    2.3565    5.9908    6.2070 C   0  0  0  0  0  0  0  0  0  0  0  0
    3.6221    6.5221    5.6867 C   0  0  0  0  0  0  0  0  0  0  0  0
    4.4343    7.3316    6.4885 C   0  0  0  0  0  0  0  0  0  0  0  0
    5.6572    7.8000    5.9961 C   0  0  0  0  0  0  0  0  0  0  0  0
    6.0783    7.4507    4.7089 C   0  0  0  0  0  0  0  0  0  0  0  0
    5.2854    6.6143    3.9090 C   0  0  0  0  0  0  0  0  0  0  0  0
    5.7335    6.2256    2.5251 C   0  0  0  0  0  0  0  0  0  0  0  0
    5.1534    7.1728    1.4797 C   0  0  0  0  0  0  0  0  0  0  0  0
    4.0454    6.1695    4.3966 C   0  0  0  0  0  0  0  0  0  0  0  0
    2.2595    4.7524    6.8643 C   0  0  0  0  0  0  0  0  0  0  0  0
    0.6539    4.2221    6.8097 S   0  0  0  0  0  0  0  0  0  0  0  0
    0.0596    5.5690    6.0232 C   0  0  0  0  0  0  0  0  0  0  0  0
   -1.0665    5.8202    5.2361 C   0  0  0  0  0  0  0  0  0  0  0  0
   -1.9644    4.9576    4.6831 N   0  0  0  0  0  0  0  0  0  0  0  0
   -2.4111    5.5910    3.5380 C   0  0  0  0  0  0  0  0  0  0  0  0
   -3.1611    5.1055    2.4078 C   0  0  0  0  0  0  0  0  0  0  0  0
   -3.7750    3.8937    2.1623 N   0  0  0  0  0  0  0  0  0  0  0  0
   -4.0328    3.9227    0.8360 C   0  0  0  0  0  0  0  0  0  0  0  0
   -4.1594    2.8998   -0.0870 C   0  0  0  0  0  0  0  0  0  0  0  0
   -3.9283    1.2419   -0.0052 S   0  0  0  0  0  0  0  0  0  0  0  0
   -4.5445    3.0058    3.0462 C   0  0  0  0  0  0  0  0  0  0  0  0
   -5.4731    3.8016    3.9661 C   0  0  0  0  0  0  0  0  0  0  0  0
   -2.1066    3.5614    5.1088 C   0  0  0  0  0  0  0  0  0  0  0  0
   -1.2927    2.6188    4.2187 C   0  0  0  0  0  0  0  0  0  0  0  0
    3.3461    3.7820    7.0069 C   0  0  0  0  0  0  0  0  0  0  0  0
    3.7676    3.2081    8.2217 C   0  0  0  0  0  0  0  0  0  0  0  0
    3.3959    3.7120    9.5894 C   0  0  0  0  0  0  0  0  0  0  0  0
    2.1673    2.9832   10.1333 C   0  0  0  0  0  0  0  0  0  0  0  0
    4.4376    2.0051    7.9867 C   0  0  0  0  0  0  0  0  0  0  0  0
    4.5288    1.6361    6.6792 C   0  0  0  0  0  0  0  0  0  0  0  0
    3.7834    2.7703    5.7085 S   0  0  0  0  0  0  0  0  0  0  0  0
    4.9543    0.3411    6.4425 C   0  0  0  0  0  0  0  0  0  0  0  0
    5.2121   -0.3166    7.6516 C   0  0  0  0  0  0  0  0  0  0  0  0
    4.9132    0.7245    8.9720 S   0  0  0  0  0  0  0  0  0  0  0  0
    5.4528   -1.7603    7.7380 C   0  0  0  0  0  0  0  0  0  0  0  0
    4.4748   -2.6509    8.0113 C   0  0  0  0  0  0  0  0  0  0  0  0
    3.0635   -2.3204    8.2432 C   0  0  0  0  0  0  0  0  0  0  0  0
    2.5976   -1.1891    8.5476 O   0  0  0  0  0  0  0  0  0  0  0  0
    2.2702   -3.5186    8.0602 C   0  0  0  0  0  0  0  0  0  0  0  0
    3.1104   -4.5829    7.7633 C   0  0  0  0  0  0  0  0  0  0  0  0
    2.5615   -5.8493    7.5065 C   0  0  0  0  0  0  0  0  0  0  0  0
    1.1692   -6.0157    7.5580 C   0  0  0  0  0  0  0  0  0  0  0  0
    0.3242   -4.9365    7.8570 C   0  0  0  0  0  0  0  0  0  0  0  0
   -1.5641   -5.2410    7.8883 Br  0  0  0  0  0  0  0  0  0  0  0  0
    0.8721   -3.6656    8.1142 C   0  0  0  0  0  0  0  0  0  0  0  0
   -0.1749   -2.2966    8.4913 Cl  0  0  0  0  0  0  0  0  0  0  0  0
    4.5343   -4.1303    7.7969 C   0  0  0  0  0  0  0  0  0  0  0  0
    5.6500   -4.9100    7.7956 C   0  0  0  0  0  0  0  0  0  0  0  0
    6.9401   -4.3971    8.1711 C   0  0  0  0  0  0  0  0  0  0  0  0
    7.9800   -3.9892    8.4725 N   0  0  0  0  0  0  0  0  0  0  0  0
    5.6263   -6.3129    7.4694 C   0  0  0  0  0  0  0  0  0  0  0  0
    5.6253   -7.4380    7.1939 N   0  0  0  0  0  0  0  0  0  0  0  0
   -0.3894   -4.6364   -6.2487 H   0  0  0  0  0  0  0  0  0  0  0  0
    4.4807   -7.2164   -5.8740 H   0  0  0  0  0  0  0  0  0  0  0  0
    6.3067   -7.0440   -4.2434 H   0  0  0  0  0  0  0  0  0  0  0  0
   -4.2607   -3.7965   -5.0369 H   0  0  0  0  0  0  0  0  0  0  0  0
   -5.8068   -5.4791   -5.9217 H   0  0  0  0  0  0  0  0  0  0  0  0
   -6.2530   -7.1865   -7.7132 H   0  0  0  0  0  0  0  0  0  0  0  0
   -6.8636   -5.8756   -8.8030 H   0  0  0  0  0  0  0  0  0  0  0  0
   -5.5364   -6.9768   -9.3498 H   0  0  0  0  0  0  0  0  0  0  0  0
   -3.9216   -5.1821   -9.7888 H   0  0  0  0  0  0  0  0  0  0  0  0
   -2.3685   -3.5006   -8.9007 H   0  0  0  0  0  0  0  0  0  0  0  0
   -0.0140   -1.0822   -6.5349 H   0  0  0  0  0  0  0  0  0  0  0  0
    0.4321    0.9189   -7.8830 H   0  0  0  0  0  0  0  0  0  0  0  0
   -1.3381    3.1205   -8.9234 H   0  0  0  0  0  0  0  0  0  0  0  0
   -0.2492    2.1664  -10.0048 H   0  0  0  0  0  0  0  0  0  0  0  0
   -1.9929    2.3164  -10.4034 H   0  0  0  0  0  0  0  0  0  0  0  0
   -3.6067    0.8195   -9.3797 H   0  0  0  0  0  0  0  0  0  0  0  0
   -4.0614   -1.1739   -8.0227 H   0  0  0  0  0  0  0  0  0  0  0  0
   -0.9101    1.1940   -2.5779 H   0  0  0  0  0  0  0  0  0  0  0  0
    0.9489    2.7637   -2.7061 H   0  0  0  0  0  0  0  0  0  0  0  0
    3.4113    3.0991   -2.0909 H   0  0  0  0  0  0  0  0  0  0  0  0
    2.7481    3.9592   -0.6487 H   0  0  0  0  0  0  0  0  0  0  0  0
    3.9598    2.6376   -0.4444 H   0  0  0  0  0  0  0  0  0  0  0  0
    2.6924    0.9924    0.8081 H   0  0  0  0  0  0  0  0  0  0  0  0
    0.8421   -0.5830    0.9483 H   0  0  0  0  0  0  0  0  0  0  0  0
   -1.6275    0.2793    1.8267 H   0  0  0  0  0  0  0  0  0  0  0  0
   -1.8908   -1.0188    3.8982 H   0  0  0  0  0  0  0  0  0  0  0  0
   -1.6236   -4.7413    4.0588 H   0  0  0  0  0  0  0  0  0  0  0  0
   -3.1471   -3.8362    4.4092 H   0  0  0  0  0  0  0  0  0  0  0  0
   -1.5575   -3.2241    5.0172 H   0  0  0  0  0  0  0  0  0  0  0  0
   -1.9588   -4.6668    1.6094 H   0  0  0  0  0  0  0  0  0  0  0  0
   -1.7027   -3.3848   -0.4550 H   0  0  0  0  0  0  0  0  0  0  0  0
   -1.5640    3.0272   -3.7153 H   0  0  0  0  0  0  0  0  0  0  0  0
   -1.4006    3.4160   -6.1451 H   0  0  0  0  0  0  0  0  0  0  0  0
   -3.4161    3.2985   -7.5637 H   0  0  0  0  0  0  0  0  0  0  0  0
   -5.8479    3.3555   -7.7034 H   0  0  0  0  0  0  0  0  0  0  0  0
   -6.8369    3.1855   -6.2242 H   0  0  0  0  0  0  0  0  0  0  0  0
   -5.5252    0.8797   -7.7993 H   0  0  0  0  0  0  0  0  0  0  0  0
   -6.4787    0.6860   -6.2723 H   0  0  0  0  0  0  0  0  0  0  0  0
   -7.2741    1.3074   -7.7690 H   0  0  0  0  0  0  0  0  0  0  0  0
   -5.7797    2.2597   -4.1168 H   0  0  0  0  0  0  0  0  0  0  0  0
    4.1245    7.5969    7.4918 H   0  0  0  0  0  0  0  0  0  0  0  0
    6.2846    8.4275    6.6163 H   0  0  0  0  0  0  0  0  0  0  0  0
    7.0218    7.8301    4.3402 H   0  0  0  0  0  0  0  0  0  0  0  0
    5.4058    5.1866    2.2968 H   0  0  0  0  0  0  0  0  0  0  0  0
    6.8461    6.2396    2.4627 H   0  0  0  0  0  0  0  0  0  0  0  0
    5.4898    8.2121    1.6759 H   0  0  0  0  0  0  0  0  0  0  0  0
    5.4982    6.8697    0.4680 H   0  0  0  0  0  0  0  0  0  0  0  0
    4.0426    7.1346    1.5026 H   0  0  0  0  0  0  0  0  0  0  0  0
    3.4210    5.5321    3.7807 H   0  0  0  0  0  0  0  0  0  0  0  0
   -5.2074    2.3489    2.4375 H   0  0  0  0  0  0  0  0  0  0  0  0
   -3.8953    2.2815    3.5597 H   0  0  0  0  0  0  0  0  0  0  0  0
   -6.0043    3.1098    4.6533 H   0  0  0  0  0  0  0  0  0  0  0  0
   -6.2265    4.3409    3.3568 H   0  0  0  0  0  0  0  0  0  0  0  0
   -4.9187    4.5528    4.5613 H   0  0  0  0  0  0  0  0  0  0  0  0
   -1.7672    3.4412    6.1567 H   0  0  0  0  0  0  0  0  0  0  0  0
   -3.1587    3.2926    5.2104 H   0  0  0  0  0  0  0  0  0  0  0  0
   -0.2070    2.8029    4.3571 H   0  0  0  0  0  0  0  0  0  0  0  0
   -1.5337    2.7780    3.1488 H   0  0  0  0  0  0  0  0  0  0  0  0
   -1.5151    1.5666    4.4886 H   0  0  0  0  0  0  0  0  0  0  0  0
    4.2515    3.5554   10.2814 H   0  0  0  0  0  0  0  0  0  0  0  0
    3.1914    4.8059    9.5487 H   0  0  0  0  0  0  0  0  0  0  0  0
    2.3427    1.8865   10.1620 H   0  0  0  0  0  0  0  0  0  0  0  0
    1.2779    3.1962    9.5069 H   0  0  0  0  0  0  0  0  0  0  0  0
    1.9594    3.3311   11.1668 H   0  0  0  0  0  0  0  0  0  0  0  0
    4.9652   -0.1306    5.4650 H   0  0  0  0  0  0  0  0  0  0  0  0
    6.3901   -2.0979    7.3279 H   0  0  0  0  0  0  0  0  0  0  0  0
    3.1602   -6.7051    7.2449 H   0  0  0  0  0  0  0  0  0  0  0  0
    0.7479   -6.9910    7.3503 H   0  0  0  0  0  0  0  0  0  0  0  0
  1  2  2  3
  2  3  1  0
  3  4  2  0
  3  5  1  0
  5  6  2  0
  6  7  1  0
  7  8  2  0
  8  9  1  0
  9 10  1  0
  9 11  2  0
 11 12  1  0
  6 13  1  0
 13 14  2  3
 14 15  1  0
 15 16  3  0
 14 17  1  0
 17 18  3  0
  1 19  1  0
 19 20  2  0
 20 21  1  0
 21 22  1  0
 22 23  2  0
 23 24  1  0
 24 25  2  0
 25 26  1  0
 25 27  1  0
 27 28  2  0
 21 29  1  0
 29 30  2  0
 30 31  1  0
 31 32  2  0
 32 33  1  0
 32 34  1  0
 34 35  2  0
 20 36  1  0
 36 37  1  0
 37 38  1  0
 38 39  2  0
 39 40  1  0
 40 41  1  0
 41 42  2  0
 42 43  1  0
 43 44  2  0
 44 45  1  0
 44 46  1  0
 46 47  2  0
 40 48  1  0
 48 49  2  0
 49 50  1  0
 50 51  2  0
 51 52  1  0
 51 53  1  0
 53 54  2  0
 39 55  1  0
 55 56  1  0
 38 57  1  0
 57 58  2  0
 58 59  1  0
 59 60  2  0
 60 61  1  0
 61 62  2  0
 62 63  1  0
 63 64  1  0
 64 65  1  0
 63 66  2  0
 58 67  1  0
 67 68  1  0
 68 69  1  0
 69 70  1  0
 70 71  1  0
 71 72  1  0
 72 73  2  0
 73 74  1  0
 74 75  1  0
 72 76  1  0
 76 77  1  0
 77 78  1  0
 78 79  1  0
 79 80  1  0
 80 81  1  0
 81 82  2  0
 82 83  1  0
 83 84  2  0
 84 85  1  0
 85 86  1  0
 86 87  1  0
 85 88  2  0
 80 89  2  0
 89 90  1  0
 90 91  1  0
 91 92  1  0
 92 93  1  0
 93 94  1  0
 94 95  1  0
 95 96  1  0
 96 97  1  0
 97 98  1  0
 98 99  1  0
 96100  1  0
100101  1  0
 93102  1  0
102103  1  0
 89104  1  0
104105  2  0
105106  1  0
106107  1  0
105108  1  0
108109  2  0
109110  1  0
109111  1  0
111112  2  0
112113  1  0
112114  1  0
114115  2  3
115116  1  0
116117  2  0
116118  1  0
118119  2  0
119120  1  0
120121  2  0
121122  1  0
122123  1  0
122124  2  0
124125  1  0
119126  1  0
126127  2  3
127128  1  0
128129  3  0
127130  1  0
130131  3  0
 13  2  1  0
 56 19  1  0
 99 57  1  0
110104  1  0
126115  1  0
 11  5  1  0
 28 22  1  0
 35 29  1  0
 55 36  2  0
 66 59  1  0
 98 67  2  0
113108  1  0
124118  1  0
 47 41  1  0
 54 48  1  0
 97 69  2  0
 95 70  2  0
 75 71  2  0
 94 76  2  0
 92 77  2  0
 91 79  2  0
 88 81  1  0
  1132  1  0
  7133  1  0
  8134  1  0
 23135  1  0
 24136  1  0
 26137  1  0
 26138  1  0
 26139  1  0
 27140  1  0
 28141  1  0
 30142  1  0
 31143  1  0
 33144  1  0
 33145  1  0
 33146  1  0
 34147  1  0
 35148  1  0
 42149  1  0
 43150  1  0
 45151  1  0
 45152  1  0
 45153  1  0
 46154  1  0
 47155  1  0
 49156  1  0
 50157  1  0
 52158  1  0
 52159  1  0
 52160  1  0
 53161  1  0
 54162  1  0
 60163  1  0
 61164  1  0
 62165  1  0
 64166  1  0
 64167  1  0
 65168  1  0
 65169  1  0
 65170  1  0
 66171  1  0
 82172  1  0
 83173  1  0
 84174  1  0
 86175  1  0
 86176  1  0
 87177  1  0
 87178  1  0
 87179  1  0
 88180  1  0
100181  1  0
100182  1  0
101183  1  0
101184  1  0
101185  1  0
102186  1  0
102187  1  0
103188  1  0
103189  1  0
103190  1  0
106191  1  0
106192  1  0
107193  1  0
107194  1  0
107195  1  0
111196  1  0
114197  1  0
120198  1  0
121199  1  0
M  END

