
     RDKit          3D

155171  0  0  0  0  0  0  0  0999 V2000
   -3.6728    5.4056    7.9892 C   0  0  0  0  0  0  0  0  0  0  0  0
   -3.6236    4.0789    8.2413 C   0  0  0  0  0  0  0  0  0  0  0  0
   -2.7476    3.1090    7.5680 C   0  0  0  0  0  0  0  0  0  0  0  0
   -1.7041    3.3814    6.9091 O   0  0  0  0  0  0  0  0  0  0  0  0
   -3.2684    1.7741    7.7937 C   0  0  0  0  0  0  0  0  0  0  0  0
   -4.3809    1.8624    8.6175 C   0  0  0  0  0  0  0  0  0  0  0  0
   -5.1768    0.7330    8.8430 C   0  0  0  0  0  0  0  0  0  0  0  0
   -4.7849   -0.4951    8.2896 C   0  0  0  0  0  0  0  0  0  0  0  0
   -3.6236   -0.5950    7.5027 C   0  0  0  0  0  0  0  0  0  0  0  0
   -3.1452   -2.3107    6.7886 Br  0  0  0  0  0  0  0  0  0  0  0  0
   -2.8550    0.5575    7.2304 C   0  0  0  0  0  0  0  0  0  0  0  0
   -1.4313    0.4707    6.1983 Cl  0  0  0  0  0  0  0  0  0  0  0  0
   -4.5839    3.2743    9.0522 C   0  0  0  0  0  0  0  0  0  0  0  0
   -5.2919    3.6877   10.1349 C   0  0  0  0  0  0  0  0  0  0  0  0
   -5.2561    5.0497   10.6062 C   0  0  0  0  0  0  0  0  0  0  0  0
   -5.2447    6.1392   11.0007 N   0  0  0  0  0  0  0  0  0  0  0  0
   -5.9827    2.7675   10.9990 C   0  0  0  0  0  0  0  0  0  0  0  0
   -6.5340    2.0433   11.7129 N   0  0  0  0  0  0  0  0  0  0  0  0
   -2.8351    6.0304    6.9604 C   0  0  0  0  0  0  0  0  0  0  0  0
   -1.5901    6.6052    7.1655 C   0  0  0  0  0  0  0  0  0  0  0  0
   -0.8787    6.8366    5.9712 C   0  0  0  0  0  0  0  0  0  0  0  0
    0.5305    7.2796    5.9602 C   0  0  0  0  0  0  0  0  0  0  0  0
    1.1615    7.4125    7.0481 O   0  0  0  0  0  0  0  0  0  0  0  0
    1.1677    7.5430    4.7441 O   0  0  0  0  0  0  0  0  0  0  0  0
    2.5789    7.6395    4.6069 C   0  0  0  0  0  0  0  0  0  0  0  0
    3.2027    6.2487    4.6210 C   0  0  0  0  0  0  0  0  0  0  0  0
   -1.5980    6.4644    4.8280 C   0  0  0  0  0  0  0  0  0  0  0  0
   -3.0663    5.8107    5.3152 S   0  0  0  0  0  0  0  0  0  0  0  0
   -1.0407    6.1877    3.4995 C   0  0  0  0  0  0  0  0  0  0  0  0
   -0.7804    7.1058    2.4559 C   0  0  0  0  0  0  0  0  0  0  0  0
   -0.8706    8.5776    2.5770 C   0  0  0  0  0  0  0  0  0  0  0  0
   -1.9671    9.1821    3.2100 C   0  0  0  0  0  0  0  0  0  0  0  0
   -1.9987   10.5691    3.3906 C   0  0  0  0  0  0  0  0  0  0  0  0
   -0.9322   11.3605    2.9465 C   0  0  0  0  0  0  0  0  0  0  0  0
    0.1704   10.7694    2.3124 C   0  0  0  0  0  0  0  0  0  0  0  0
    1.3166   11.6192    1.8277 C   0  0  0  0  0  0  0  0  0  0  0  0
    1.1712   11.9324    0.3391 C   0  0  0  0  0  0  0  0  0  0  0  0
    0.1880    9.3776    2.1181 C   0  0  0  0  0  0  0  0  0  0  0  0
   -0.3463    6.4240    1.3103 C   0  0  0  0  0  0  0  0  0  0  0  0
   -0.0383    6.8800   -0.3121 S   0  0  0  0  0  0  0  0  0  0  0  0
    0.2022    5.2536   -0.7538 C   0  0  0  0  0  0  0  0  0  0  0  0
    0.5339    4.4893   -1.8376 C   0  0  0  0  0  0  0  0  0  0  0  0
    0.8889    4.8341   -3.1455 C   0  0  0  0  0  0  0  0  0  0  0  0
    1.3072    3.8002   -4.0385 C   0  0  0  0  0  0  0  0  0  0  0  0
    1.6418    4.1697   -5.2968 N   0  0  0  0  0  0  0  0  0  0  0  0
    1.3875    5.8015   -5.1803 S   0  0  0  0  0  0  0  0  0  0  0  0
    0.8743    6.1000   -3.6339 N   0  0  0  0  0  0  0  0  0  0  0  0
    1.3298    2.4788   -3.5737 C   0  0  0  0  0  0  0  0  0  0  0  0
    1.5746    1.2902   -4.2075 C   0  0  0  0  0  0  0  0  0  0  0  0
    1.8741    0.6822   -5.7721 S   0  0  0  0  0  0  0  0  0  0  0  0
    1.6919   -0.9249   -5.2132 C   0  0  0  0  0  0  0  0  0  0  0  0
    1.8076   -2.1900   -5.8075 C   0  0  0  0  0  0  0  0  0  0  0  0
    1.8390   -2.4176   -7.2605 C   0  0  0  0  0  0  0  0  0  0  0  0
    0.7583   -1.9892   -8.0475 C   0  0  0  0  0  0  0  0  0  0  0  0
    0.7295   -2.2769   -9.4146 C   0  0  0  0  0  0  0  0  0  0  0  0
    1.7711   -3.0035  -10.0015 C   0  0  0  0  0  0  0  0  0  0  0  0
    2.8628   -3.4314   -9.2241 C   0  0  0  0  0  0  0  0  0  0  0  0
    3.9918   -4.2022   -9.8477 C   0  0  0  0  0  0  0  0  0  0  0  0
    5.1570   -3.2789  -10.1899 C   0  0  0  0  0  0  0  0  0  0  0  0
    2.9076   -3.0991   -7.8604 C   0  0  0  0  0  0  0  0  0  0  0  0
    1.6065   -3.2013   -4.8433 C   0  0  0  0  0  0  0  0  0  0  0  0
    1.2514   -2.5039   -3.3341 S   0  0  0  0  0  0  0  0  0  0  0  0
    1.3710   -0.9442   -3.8849 C   0  0  0  0  0  0  0  0  0  0  0  0
    1.3019    0.3114   -3.3168 C   0  0  0  0  0  0  0  0  0  0  0  0
    0.8269    0.7676   -2.1303 N   0  0  0  0  0  0  0  0  0  0  0  0
    0.9237    2.1314   -2.2728 C   0  0  0  0  0  0  0  0  0  0  0  0
    0.5772    3.1642   -1.3656 C   0  0  0  0  0  0  0  0  0  0  0  0
    0.3680    3.1243   -0.0075 N   0  0  0  0  0  0  0  0  0  0  0  0
    0.0898    4.4122    0.2966 C   0  0  0  0  0  0  0  0  0  0  0  0
   -0.2373    5.0673    1.4690 C   0  0  0  0  0  0  0  0  0  0  0  0
   -0.7138    4.5992    2.9989 S   0  0  0  0  0  0  0  0  0  0  0  0
    0.8700    2.1576    0.9777 C   0  0  0  0  0  0  0  0  0  0  0  0
    2.3757    1.9392    0.8345 C   0  0  0  0  0  0  0  0  0  0  0  0
   -0.1921    0.0424   -1.3542 C   0  0  0  0  0  0  0  0  0  0  0  0
    0.4239   -0.9710   -0.3865 C   0  0  0  0  0  0  0  0  0  0  0  0
    1.7340   -4.6582   -4.9894 C   0  0  0  0  0  0  0  0  0  0  0  0
    2.9316   -5.3123   -5.2526 C   0  0  0  0  0  0  0  0  0  0  0  0
    2.9830   -6.6442   -4.7979 C   0  0  0  0  0  0  0  0  0  0  0  0
    4.2224   -7.4432   -4.8977 C   0  0  0  0  0  0  0  0  0  0  0  0
    4.1795   -8.6969   -4.7946 O   0  0  0  0  0  0  0  0  0  0  0  0
    5.4361   -6.7854   -5.1526 O   0  0  0  0  0  0  0  0  0  0  0  0
    6.6880   -7.4570   -5.2722 C   0  0  0  0  0  0  0  0  0  0  0  0
    6.8592   -8.0379   -6.6693 C   0  0  0  0  0  0  0  0  0  0  0  0
    1.8141   -7.0570   -4.1433 C   0  0  0  0  0  0  0  0  0  0  0  0
    0.7743   -5.7310   -4.1313 S   0  0  0  0  0  0  0  0  0  0  0  0
    1.7358   -8.1635   -3.1569 C   0  0  0  0  0  0  0  0  0  0  0  0
    0.5807   -8.6350   -2.6367 C   0  0  0  0  0  0  0  0  0  0  0  0
   -0.7722   -8.3169   -3.0958 C   0  0  0  0  0  0  0  0  0  0  0  0
   -1.1133   -8.0481   -4.2812 O   0  0  0  0  0  0  0  0  0  0  0  0
   -1.6865   -8.4935   -1.9914 C   0  0  0  0  0  0  0  0  0  0  0  0
   -3.0477   -8.2041   -1.9492 C   0  0  0  0  0  0  0  0  0  0  0  0
   -3.7422   -8.4119   -0.7444 C   0  0  0  0  0  0  0  0  0  0  0  0
   -5.1191   -8.1628   -0.6602 C   0  0  0  0  0  0  0  0  0  0  0  0
   -5.8001   -8.3705    0.5446 C   0  0  0  0  0  0  0  0  0  0  0  0
   -5.1102   -8.8218    1.6747 C   0  0  0  0  0  0  0  0  0  0  0  0
   -5.7780   -9.0196    2.8359 F   0  0  0  0  0  0  0  0  0  0  0  0
   -3.7383   -9.0614    1.6108 C   0  0  0  0  0  0  0  0  0  0  0  0
   -3.0411   -8.8749    0.4053 C   0  0  0  0  0  0  0  0  0  0  0  0
   -1.6600   -9.1434    0.3303 C   0  0  0  0  0  0  0  0  0  0  0  0
   -0.9983   -8.9817   -0.8974 C   0  0  0  0  0  0  0  0  0  0  0  0
    0.4239   -9.2373   -1.2789 C   0  0  0  0  0  0  0  0  0  0  0  0
    1.3123  -10.0476   -0.6451 C   0  0  0  0  0  0  0  0  0  0  0  0
    2.4786  -10.5535   -1.3168 C   0  0  0  0  0  0  0  0  0  0  0  0
    3.4105  -10.9720   -1.8586 N   0  0  0  0  0  0  0  0  0  0  0  0
    1.0413  -10.6298    0.6392 C   0  0  0  0  0  0  0  0  0  0  0  0
    0.8305  -11.1116    1.6706 N   0  0  0  0  0  0  0  0  0  0  0  0
   -4.4447    6.0262    8.4206 H   0  0  0  0  0  0  0  0  0  0  0  0
   -6.1049    0.7866    9.3886 H   0  0  0  0  0  0  0  0  0  0  0  0
   -5.3980   -1.3700    8.4626 H   0  0  0  0  0  0  0  0  0  0  0  0
   -1.1741    6.7689    8.1513 H   0  0  0  0  0  0  0  0  0  0  0  0
    2.8110    8.1314    3.6409 H   0  0  0  0  0  0  0  0  0  0  0  0
    3.0040    8.2637    5.4224 H   0  0  0  0  0  0  0  0  0  0  0  0
    4.3068    6.3293    4.5333 H   0  0  0  0  0  0  0  0  0  0  0  0
    2.8111    5.6498    3.7667 H   0  0  0  0  0  0  0  0  0  0  0  0
    2.9522    5.7317    5.5732 H   0  0  0  0  0  0  0  0  0  0  0  0
   -2.8078    8.5898    3.5487 H   0  0  0  0  0  0  0  0  0  0  0  0
   -2.8410   11.0304    3.8868 H   0  0  0  0  0  0  0  0  0  0  0  0
   -0.9788   12.4307    3.0945 H   0  0  0  0  0  0  0  0  0  0  0  0
    2.2792   11.0873    1.9958 H   0  0  0  0  0  0  0  0  0  0  0  0
    1.3641   12.5711    2.3980 H   0  0  0  0  0  0  0  0  0  0  0  0
    0.2075   12.4547    0.1458 H   0  0  0  0  0  0  0  0  0  0  0  0
    2.0001   12.5938    0.0133 H   0  0  0  0  0  0  0  0  0  0  0  0
    1.2068   10.9976   -0.2599 H   0  0  0  0  0  0  0  0  0  0  0  0
    1.0457    8.9173    1.6384 H   0  0  0  0  0  0  0  0  0  0  0  0
   -0.0722   -1.4553   -7.6018 H   0  0  0  0  0  0  0  0  0  0  0  0
   -0.1111   -1.9480  -10.0143 H   0  0  0  0  0  0  0  0  0  0  0  0
    1.7322   -3.2258  -11.0610 H   0  0  0  0  0  0  0  0  0  0  0  0
    3.6503   -4.7075  -10.7757 H   0  0  0  0  0  0  0  0  0  0  0  0
    4.3421   -4.9897   -9.1463 H   0  0  0  0  0  0  0  0  0  0  0  0
    5.5312   -2.7664   -9.2747 H   0  0  0  0  0  0  0  0  0  0  0  0
    4.8375   -2.5145  -10.9316 H   0  0  0  0  0  0  0  0  0  0  0  0
    5.9869   -3.8715  -10.6227 H   0  0  0  0  0  0  0  0  0  0  0  0
    3.7754   -3.3584   -7.2762 H   0  0  0  0  0  0  0  0  0  0  0  0
    0.6939    2.5194    2.0061 H   0  0  0  0  0  0  0  0  0  0  0  0
    0.3198    1.2167    0.9368 H   0  0  0  0  0  0  0  0  0  0  0  0
    2.6374    1.5603   -0.1728 H   0  0  0  0  0  0  0  0  0  0  0  0
    2.9087    2.8947    1.0189 H   0  0  0  0  0  0  0  0  0  0  0  0
    2.7083    1.1937    1.5844 H   0  0  0  0  0  0  0  0  0  0  0  0
   -0.8804   -0.4915   -2.0453 H   0  0  0  0  0  0  0  0  0  0  0  0
   -0.8520    0.7556   -0.8170 H   0  0  0  0  0  0  0  0  0  0  0  0
    0.4103   -1.9915   -0.8133 H   0  0  0  0  0  0  0  0  0  0  0  0
   -0.1718   -1.0105    0.5483 H   0  0  0  0  0  0  0  0  0  0  0  0
    1.4675   -0.6977   -0.1364 H   0  0  0  0  0  0  0  0  0  0  0  0
    3.8077   -4.8071   -5.6268 H   0  0  0  0  0  0  0  0  0  0  0  0
    7.4994   -6.7158   -5.0984 H   0  0  0  0  0  0  0  0  0  0  0  0
    6.7797   -8.2499   -4.4956 H   0  0  0  0  0  0  0  0  0  0  0  0
    6.8721   -7.2191   -7.4203 H   0  0  0  0  0  0  0  0  0  0  0  0
    6.0264   -8.7319   -6.9042 H   0  0  0  0  0  0  0  0  0  0  0  0
    7.8200   -8.5938   -6.7191 H   0  0  0  0  0  0  0  0  0  0  0  0
    2.6676   -8.4134   -2.6696 H   0  0  0  0  0  0  0  0  0  0  0  0
   -3.5546   -7.8268   -2.8327 H   0  0  0  0  0  0  0  0  0  0  0  0
   -5.6681   -7.8071   -1.5232 H   0  0  0  0  0  0  0  0  0  0  0  0
   -6.8635   -8.1779    0.6024 H   0  0  0  0  0  0  0  0  0  0  0  0
   -3.2204   -9.4019    2.4983 H   0  0  0  0  0  0  0  0  0  0  0  0
   -1.1361   -9.4468    1.2234 H   0  0  0  0  0  0  0  0  0  0  0  0
  1  2  2  3
  2  3  1  0
  3  4  2  0
  3  5  1  0
  5  6  2  0
  6  7  1  0
  7  8  2  0
  8  9  1  0
  9 10  1  0
  9 11  2  0
 11 12  1  0
  6 13  1  0
 13 14  2  3
 14 15  1  0
 15 16  3  0
 14 17  1  0
 17 18  3  0
  1 19  1  0
 19 20  2  0
 20 21  1  0
 21 22  1  0
 22 23  2  0
 22 24  1  0
 24 25  1  0
 25 26  1  0
 21 27  2  0
 27 28  1  0
 27 29  1  0
 29 30  2  0
 30 31  1  0
 31 32  2  0
 32 33  1  0
 33 34  2  0
 34 35  1  0
 35 36  1  0
 36 37  1  0
 35 38  2  0
 30 39  1  0
 39 40  1  0
 40 41  1  0
 41 42  1  0
 42 43  1  0
 43 44  1  0
 44 45  2  0
 45 46  1  0
 46 47  1  0
 44 48  1  0
 48 49  1  0
 49 50  1  0
 50 51  1  0
 51 52  1  0
 52 53  1  0
 53 54  2  0
 54 55  1  0
 55 56  2  0
 56 57  1  0
 57 58  1  0
 58 59  1  0
 57 60  2  0
 52 61  2  0
 61 62  1  0
 62 63  1  0
 63 64  1  0
 64 65  1  0
 65 66  1  0
 66 67  1  0
 67 68  1  0
 68 69  1  0
 69 70  1  0
 70 71  1  0
 68 72  1  0
 72 73  1  0
 65 74  1  0
 74 75  1  0
 61 76  1  0
 76 77  2  0
 77 78  1  0
 78 79  1  0
 79 80  2  0
 79 81  1  0
 81 82  1  0
 82 83  1  0
 78 84  2  0
 84 85  1  0
 84 86  1  0
 86 87  2  3
 87 88  1  0
 88 89  2  0
 88 90  1  0
 90 91  2  0
 91 92  1  0
 92 93  2  0
 93 94  1  0
 94 95  2  0
 95 96  1  0
 95 97  1  0
 97 98  2  0
 98 99  1  0
 99100  2  0
100101  1  0
101102  2  3
102103  1  0
103104  3  0
102105  1  0
105106  3  0
 13  2  1  0
 28 19  1  0
 71 29  1  0
 85 76  1  0
101 87  1  0
 11  5  1  0
 38 31  1  0
 70 39  2  0
100 90  1  0
 69 41  2  0
 98 92  1  0
 67 42  2  0
 47 43  2  0
 66 48  2  0
 64 49  2  0
 63 51  2  0
 60 53  1  0
  1107  1  0
  7108  1  0
  8109  1  0
 20110  1  0
 25111  1  0
 25112  1  0
 26113  1  0
 26114  1  0
 26115  1  0
 32116  1  0
 33117  1  0
 34118  1  0
 36119  1  0
 36120  1  0
 37121  1  0
 37122  1  0
 37123  1  0
 38124  1  0
 54125  1  0
 55126  1  0
 56127  1  0
 58128  1  0
 58129  1  0
 59130  1  0
 59131  1  0
 59132  1  0
 60133  1  0
 72134  1  0
 72135  1  0
 73136  1  0
 73137  1  0
 73138  1  0
 74139  1  0
 74140  1  0
 75141  1  0
 75142  1  0
 75143  1  0
 77144  1  0
 82145  1  0
 82146  1  0
 83147  1  0
 83148  1  0
 83149  1  0
 86150  1  0
 91151  1  0
 93152  1  0
 94153  1  0
 97154  1  0
 99155  1  0
M  END

