
     RDKit          3D

137153  0  0  0  0  0  0  0  0999 V2000
    6.7905    2.7699   -0.4357 C   0  0  0  0  0  0  0  0  0  0  0  0
    7.0333    3.0168    0.8712 C   0  0  0  0  0  0  0  0  0  0  0  0
    6.2138    3.8619    1.7469 C   0  0  0  0  0  0  0  0  0  0  0  0
    5.4590    4.8010    1.3705 O   0  0  0  0  0  0  0  0  0  0  0  0
    6.5166    3.5307    3.1266 C   0  0  0  0  0  0  0  0  0  0  0  0
    7.5579    2.6146    3.1492 C   0  0  0  0  0  0  0  0  0  0  0  0
    7.9473    2.0312    4.3645 C   0  0  0  0  0  0  0  0  0  0  0  0
    7.3088    2.4355    5.5499 C   0  0  0  0  0  0  0  0  0  0  0  0
    6.2729    3.3857    5.5228 C   0  0  0  0  0  0  0  0  0  0  0  0
    5.4384    3.8803    7.1785 Br  0  0  0  0  0  0  0  0  0  0  0  0
    5.8554    3.9376    4.2952 C   0  0  0  0  0  0  0  0  0  0  0  0
    4.5108    5.0730    4.2224 Cl  0  0  0  0  0  0  0  0  0  0  0  0
    8.0324    2.3476    1.7595 C   0  0  0  0  0  0  0  0  0  0  0  0
    9.2342    1.8284    1.4041 C   0  0  0  0  0  0  0  0  0  0  0  0
    9.6956    1.8037    0.0400 C   0  0  0  0  0  0  0  0  0  0  0  0
   10.0776    1.7827   -1.0532 N   0  0  0  0  0  0  0  0  0  0  0  0
   10.2021    1.3856    2.3765 C   0  0  0  0  0  0  0  0  0  0  0  0
   10.9879    1.0313    3.1485 N   0  0  0  0  0  0  0  0  0  0  0  0
    5.5778    3.2463   -1.1236 C   0  0  0  0  0  0  0  0  0  0  0  0
    5.5431    3.9201   -2.3352 C   0  0  0  0  0  0  0  0  0  0  0  0
    4.2472    4.3082   -2.7184 C   0  0  0  0  0  0  0  0  0  0  0  0
    3.9770    5.3591   -4.0970 Cl  0  0  0  0  0  0  0  0  0  0  0  0
    3.2579    3.8985   -1.8237 C   0  0  0  0  0  0  0  0  0  0  0  0
    4.0047    3.0680   -0.5636 S   0  0  0  0  0  0  0  0  0  0  0  0
    1.8190    4.2277   -1.8220 C   0  0  0  0  0  0  0  0  0  0  0  0
    0.9124    4.1798   -2.9041 C   0  0  0  0  0  0  0  0  0  0  0  0
    1.2180    3.7252   -4.2773 C   0  0  0  0  0  0  0  0  0  0  0  0
    1.9638    2.5579   -4.5056 C   0  0  0  0  0  0  0  0  0  0  0  0
    2.2439    2.1427   -5.8123 C   0  0  0  0  0  0  0  0  0  0  0  0
    1.7812    2.8877   -6.9007 C   0  0  0  0  0  0  0  0  0  0  0  0
    1.0353    4.0598   -6.6875 C   0  0  0  0  0  0  0  0  0  0  0  0
    0.4993    4.8437   -7.8598 C   0  0  0  0  0  0  0  0  0  0  0  0
   -0.8554    4.3017   -8.2999 C   0  0  0  0  0  0  0  0  0  0  0  0
    0.7403    4.4606   -5.3748 C   0  0  0  0  0  0  0  0  0  0  0  0
   -0.3931    4.4530   -2.4719 C   0  0  0  0  0  0  0  0  0  0  0  0
   -1.8931    4.0386   -3.1566 S   0  0  0  0  0  0  0  0  0  0  0  0
   -2.6968    4.2661   -1.6762 C   0  0  0  0  0  0  0  0  0  0  0  0
   -3.7027    3.5567   -1.0869 C   0  0  0  0  0  0  0  0  0  0  0  0
   -4.7602    2.8221   -1.6280 C   0  0  0  0  0  0  0  0  0  0  0  0
   -5.5661    2.0328   -0.7540 C   0  0  0  0  0  0  0  0  0  0  0  0
   -6.5703    1.3186   -1.3228 N   0  0  0  0  0  0  0  0  0  0  0  0
   -6.3665    1.7633   -2.9045 S   0  0  0  0  0  0  0  0  0  0  0  0
   -5.0791    2.8021   -2.9470 N   0  0  0  0  0  0  0  0  0  0  0  0
   -5.2281    1.9713    0.6063 C   0  0  0  0  0  0  0  0  0  0  0  0
   -5.5640    1.0308    1.5415 C   0  0  0  0  0  0  0  0  0  0  0  0
   -6.2458   -0.5197    1.4070 S   0  0  0  0  0  0  0  0  0  0  0  0
   -5.3412   -1.0963    2.7246 C   0  0  0  0  0  0  0  0  0  0  0  0
   -5.0631   -2.3878    3.1931 C   0  0  0  0  0  0  0  0  0  0  0  0
   -5.6844   -3.6276    2.6757 C   0  0  0  0  0  0  0  0  0  0  0  0
   -6.1782   -4.5909    3.5725 C   0  0  0  0  0  0  0  0  0  0  0  0
   -6.7382   -5.7769    3.0939 C   0  0  0  0  0  0  0  0  0  0  0  0
   -6.7877   -6.0236    1.7202 C   0  0  0  0  0  0  0  0  0  0  0  0
   -6.2723   -5.0859    0.8129 C   0  0  0  0  0  0  0  0  0  0  0  0
   -6.3266   -5.3532   -0.6675 C   0  0  0  0  0  0  0  0  0  0  0  0
   -7.6066   -4.7882   -1.2717 C   0  0  0  0  0  0  0  0  0  0  0  0
   -5.7355   -3.8816    1.2971 C   0  0  0  0  0  0  0  0  0  0  0  0
   -4.0011   -2.3723    4.1196 C   0  0  0  0  0  0  0  0  0  0  0  0
   -3.4184   -0.7882    4.2858 S   0  0  0  0  0  0  0  0  0  0  0  0
   -4.5235   -0.1134    3.2221 C   0  0  0  0  0  0  0  0  0  0  0  0
   -4.6179    1.0937    2.5266 C   0  0  0  0  0  0  0  0  0  0  0  0
   -3.6773    2.0473    2.2817 N   0  0  0  0  0  0  0  0  0  0  0  0
   -4.1050    2.6386    1.1206 C   0  0  0  0  0  0  0  0  0  0  0  0
   -3.3903    3.5194    0.2736 C   0  0  0  0  0  0  0  0  0  0  0  0
   -2.2847    4.2658    0.5617 N   0  0  0  0  0  0  0  0  0  0  0  0
   -1.8432    4.6419   -0.6673 C   0  0  0  0  0  0  0  0  0  0  0  0
   -0.5297    4.7092   -1.1280 C   0  0  0  0  0  0  0  0  0  0  0  0
    0.9597    4.5370   -0.3850 S   0  0  0  0  0  0  0  0  0  0  0  0
   -2.3063    5.2243    1.6837 C   0  0  0  0  0  0  0  0  0  0  0  0
   -0.9114    5.6046    2.1671 C   0  0  0  0  0  0  0  0  0  0  0  0
   -2.2827    1.9578    2.7491 C   0  0  0  0  0  0  0  0  0  0  0  0
   -1.4637    1.0270    1.8496 C   0  0  0  0  0  0  0  0  0  0  0  0
   -3.1489   -3.5245    4.4318 C   0  0  0  0  0  0  0  0  0  0  0  0
   -2.4206   -3.7001    5.5994 C   0  0  0  0  0  0  0  0  0  0  0  0
   -1.3779   -4.6359    5.4768 C   0  0  0  0  0  0  0  0  0  0  0  0
   -0.2634   -4.9518    6.7954 Cl  0  0  0  0  0  0  0  0  0  0  0  0
   -1.2428   -5.1785    4.1932 C   0  0  0  0  0  0  0  0  0  0  0  0
   -2.4261   -4.4568    3.2411 S   0  0  0  0  0  0  0  0  0  0  0  0
   -0.0550   -5.9203    3.7051 C   0  0  0  0  0  0  0  0  0  0  0  0
    0.0799   -6.4877    2.4869 C   0  0  0  0  0  0  0  0  0  0  0  0
   -0.9435   -6.5758    1.4394 C   0  0  0  0  0  0  0  0  0  0  0  0
   -2.1688   -6.8270    1.6107 O   0  0  0  0  0  0  0  0  0  0  0  0
   -0.2835   -6.5185    0.1542 C   0  0  0  0  0  0  0  0  0  0  0  0
   -0.8609   -6.2976   -1.0924 C   0  0  0  0  0  0  0  0  0  0  0  0
   -0.0128   -6.1032   -2.1983 C   0  0  0  0  0  0  0  0  0  0  0  0
   -0.5488   -5.8298   -3.4654 C   0  0  0  0  0  0  0  0  0  0  0  0
    0.3005   -5.5995   -4.5532 C   0  0  0  0  0  0  0  0  0  0  0  0
    1.6854   -5.6563   -4.3880 C   0  0  0  0  0  0  0  0  0  0  0  0
    2.4996   -5.4383   -5.4495 F   0  0  0  0  0  0  0  0  0  0  0  0
    2.2365   -5.9263   -3.1315 C   0  0  0  0  0  0  0  0  0  0  0  0
    1.4001   -6.1458   -2.0262 C   0  0  0  0  0  0  0  0  0  0  0  0
    1.9480   -6.3782   -0.7485 C   0  0  0  0  0  0  0  0  0  0  0  0
    1.0856   -6.5725    0.3405 C   0  0  0  0  0  0  0  0  0  0  0  0
    1.3807   -6.7202    1.7926 C   0  0  0  0  0  0  0  0  0  0  0  0
    2.5200   -7.1947    2.3500 C   0  0  0  0  0  0  0  0  0  0  0  0
    2.5995   -7.5402    3.7455 C   0  0  0  0  0  0  0  0  0  0  0  0
    2.6621   -7.8255    4.8651 N   0  0  0  0  0  0  0  0  0  0  0  0
    3.6917   -7.4957    1.5684 C   0  0  0  0  0  0  0  0  0  0  0  0
    4.6397   -7.7304    0.9442 N   0  0  0  0  0  0  0  0  0  0  0  0
    7.4298    2.1174   -1.0074 H   0  0  0  0  0  0  0  0  0  0  0  0
    8.6910    1.2541    4.4181 H   0  0  0  0  0  0  0  0  0  0  0  0
    7.6024    1.9949    6.4948 H   0  0  0  0  0  0  0  0  0  0  0  0
    6.4327    4.1730   -2.8985 H   0  0  0  0  0  0  0  0  0  0  0  0
    2.3178    1.9604   -3.6773 H   0  0  0  0  0  0  0  0  0  0  0  0
    2.8163    1.2398   -5.9833 H   0  0  0  0  0  0  0  0  0  0  0  0
    1.9939    2.5489   -7.9080 H   0  0  0  0  0  0  0  0  0  0  0  0
    0.3932    5.9167   -7.5888 H   0  0  0  0  0  0  0  0  0  0  0  0
    1.2119    4.7879   -8.7122 H   0  0  0  0  0  0  0  0  0  0  0  0
   -0.7666    3.2339   -8.5918 H   0  0  0  0  0  0  0  0  0  0  0  0
   -1.5934    4.3940   -7.4727 H   0  0  0  0  0  0  0  0  0  0  0  0
   -1.2230    4.8753   -9.1770 H   0  0  0  0  0  0  0  0  0  0  0  0
    0.1555    5.3548   -5.2095 H   0  0  0  0  0  0  0  0  0  0  0  0
   -6.1403   -4.4152    4.6398 H   0  0  0  0  0  0  0  0  0  0  0  0
   -7.1338   -6.5045    3.7893 H   0  0  0  0  0  0  0  0  0  0  0  0
   -7.2275   -6.9460    1.3640 H   0  0  0  0  0  0  0  0  0  0  0  0
   -5.4474   -4.8996   -1.1740 H   0  0  0  0  0  0  0  0  0  0  0  0
   -6.2873   -6.4484   -0.8606 H   0  0  0  0  0  0  0  0  0  0  0  0
   -7.6325   -5.0063   -2.3586 H   0  0  0  0  0  0  0  0  0  0  0  0
   -8.4975   -5.2526   -0.7958 H   0  0  0  0  0  0  0  0  0  0  0  0
   -7.6509   -3.6862   -1.1296 H   0  0  0  0  0  0  0  0  0  0  0  0
   -5.3355   -3.1583    0.5989 H   0  0  0  0  0  0  0  0  0  0  0  0
   -2.8836    4.8175    2.5403 H   0  0  0  0  0  0  0  0  0  0  0  0
   -2.8372    6.1454    1.3639 H   0  0  0  0  0  0  0  0  0  0  0  0
   -0.4067    6.2444    1.4147 H   0  0  0  0  0  0  0  0  0  0  0  0
   -0.2977    4.7042    2.3674 H   0  0  0  0  0  0  0  0  0  0  0  0
   -0.9944    6.1912    3.1025 H   0  0  0  0  0  0  0  0  0  0  0  0
   -1.7943    2.9405    2.7662 H   0  0  0  0  0  0  0  0  0  0  0  0
   -2.2508    1.6069    3.8011 H   0  0  0  0  0  0  0  0  0  0  0  0
   -1.4213    1.4359    0.8197 H   0  0  0  0  0  0  0  0  0  0  0  0
   -1.9202    0.0154    1.8134 H   0  0  0  0  0  0  0  0  0  0  0  0
   -0.4312    0.9382    2.2386 H   0  0  0  0  0  0  0  0  0  0  0  0
   -2.5986   -3.1259    6.5017 H   0  0  0  0  0  0  0  0  0  0  0  0
    0.8228   -5.8222    4.3253 H   0  0  0  0  0  0  0  0  0  0  0  0
   -1.9388   -6.2294   -1.1893 H   0  0  0  0  0  0  0  0  0  0  0  0
   -1.6238   -5.7773   -3.6090 H   0  0  0  0  0  0  0  0  0  0  0  0
   -0.1223   -5.3769   -5.5242 H   0  0  0  0  0  0  0  0  0  0  0  0
    3.3139   -5.9534   -3.0200 H   0  0  0  0  0  0  0  0  0  0  0  0
    3.0196   -6.3372   -0.6193 H   0  0  0  0  0  0  0  0  0  0  0  0
  1  2  2  3
  2  3  1  0
  3  4  2  0
  3  5  1  0
  5  6  2  0
  6  7  1  0
  7  8  2  0
  8  9  1  0
  9 10  1  0
  9 11  2  0
 11 12  1  0
  6 13  1  0
 13 14  2  3
 14 15  1  0
 15 16  3  0
 14 17  1  0
 17 18  3  0
  1 19  1  0
 19 20  2  0
 20 21  1  0
 21 22  1  0
 21 23  2  0
 23 24  1  0
 23 25  1  0
 25 26  2  0
 26 27  1  0
 27 28  2  0
 28 29  1  0
 29 30  2  0
 30 31  1  0
 31 32  1  0
 32 33  1  0
 31 34  2  0
 26 35  1  0
 35 36  1  0
 36 37  1  0
 37 38  1  0
 38 39  1  0
 39 40  1  0
 40 41  2  0
 41 42  1  0
 42 43  1  0
 40 44  1  0
 44 45  1  0
 45 46  1  0
 46 47  1  0
 47 48  1  0
 48 49  1  0
 49 50  2  0
 50 51  1  0
 51 52  2  0
 52 53  1  0
 53 54  1  0
 54 55  1  0
 53 56  2  0
 48 57  2  0
 57 58  1  0
 58 59  1  0
 59 60  1  0
 60 61  1  0
 61 62  1  0
 62 63  1  0
 63 64  1  0
 64 65  1  0
 65 66  1  0
 66 67  1  0
 64 68  1  0
 68 69  1  0
 61 70  1  0
 70 71  1  0
 57 72  1  0
 72 73  2  0
 73 74  1  0
 74 75  1  0
 74 76  2  0
 76 77  1  0
 76 78  1  0
 78 79  2  3
 79 80  1  0
 80 81  2  0
 80 82  1  0
 82 83  2  0
 83 84  1  0
 84 85  2  0
 85 86  1  0
 86 87  2  0
 87 88  1  0
 87 89  1  0
 89 90  2  0
 90 91  1  0
 91 92  2  0
 92 93  1  0
 93 94  2  3
 94 95  1  0
 95 96  3  0
 94 97  1  0
 97 98  3  0
 13  2  1  0
 24 19  1  0
 67 25  1  0
 77 72  1  0
 93 79  1  0
 11  5  1  0
 34 27  1  0
 66 35  2  0
 92 82  1  0
 65 37  2  0
 90 84  1  0
 63 38  2  0
 43 39  2  0
 62 44  2  0
 60 45  2  0
 59 47  2  0
 56 49  1  0
  1 99  1  0
  7100  1  0
  8101  1  0
 20102  1  0
 28103  1  0
 29104  1  0
 30105  1  0
 32106  1  0
 32107  1  0
 33108  1  0
 33109  1  0
 33110  1  0
 34111  1  0
 50112  1  0
 51113  1  0
 52114  1  0
 54115  1  0
 54116  1  0
 55117  1  0
 55118  1  0
 55119  1  0
 56120  1  0
 68121  1  0
 68122  1  0
 69123  1  0
 69124  1  0
 69125  1  0
 70126  1  0
 70127  1  0
 71128  1  0
 71129  1  0
 71130  1  0
 73131  1  0
 78132  1  0
 83133  1  0
 85134  1  0
 86135  1  0
 89136  1  0
 91137  1  0
M  END

