
     RDKit          3D

137151  0  0  0  0  0  0  0  0999 V2000
   -3.5255    4.4859    8.4611 C   0  0  0  0  0  0  0  0  0  0  0  0
   -2.0681    4.3152    8.5295 C   0  0  0  0  0  0  0  0  0  0  0  0
   -1.3939    3.4675    7.6889 C   0  0  0  0  0  0  0  0  0  0  0  0
   -1.7452    2.5022    6.9414 O   0  0  0  0  0  0  0  0  0  0  0  0
    0.0042    3.8512    7.7633 C   0  0  0  0  0  0  0  0  0  0  0  0
    0.1123    4.8445    8.6002 C   0  0  0  0  0  0  0  0  0  0  0  0
    1.2913    5.3819    8.9204 C   0  0  0  0  0  0  0  0  0  0  0  0
    2.5062    4.9119    8.3504 C   0  0  0  0  0  0  0  0  0  0  0  0
    2.3868    3.8864    7.4581 C   0  0  0  0  0  0  0  0  0  0  0  0
    3.9455    3.2250    6.6286 Br  0  0  0  0  0  0  0  0  0  0  0  0
    1.1467    3.3348    7.1455 C   0  0  0  0  0  0  0  0  0  0  0  0
    1.0028    2.0325    5.9999 Cl  0  0  0  0  0  0  0  0  0  0  0  0
   -1.4723    5.3052    9.2765 C   0  0  0  0  0  0  0  0  0  0  0  0
   -0.8859    6.2787    9.9873 C   0  0  0  0  0  0  0  0  0  0  0  0
   -0.3417    7.2290    8.9829 C   0  0  0  0  0  0  0  0  0  0  0  0
    0.1116    8.0200    8.1714 N   0  0  0  0  0  0  0  0  0  0  0  0
   -0.8321    6.2825   11.3179 C   0  0  0  0  0  0  0  0  0  0  0  0
   -0.7657    6.2988   12.5718 N   0  0  0  0  0  0  0  0  0  0  0  0
   -4.0431    3.6901    7.3663 C   0  0  0  0  0  0  0  0  0  0  0  0
   -3.6296    4.0142    6.0273 C   0  0  0  0  0  0  0  0  0  0  0  0
   -4.0248    3.2036    5.0804 C   0  0  0  0  0  0  0  0  0  0  0  0
   -3.5780    3.4239    3.3198 S   0  0  0  0  0  0  0  0  0  0  0  0
   -2.3769    4.7749    3.1912 C   0  0  0  0  0  0  0  0  0  0  0  0
   -2.1050    5.0610    1.7355 C   0  0  0  0  0  0  0  0  0  0  0  0
   -4.8090    2.0935    5.4307 C   0  0  0  0  0  0  0  0  0  0  0  0
   -4.9340    2.2958    7.1058 S   0  0  0  0  0  0  0  0  0  0  0  0
   -5.0916    1.0264    4.5088 C   0  0  0  0  0  0  0  0  0  0  0  0
   -6.1119    0.3454    3.9806 C   0  0  0  0  0  0  0  0  0  0  0  0
   -7.5122    0.6079    4.5017 C   0  0  0  0  0  0  0  0  0  0  0  0
   -7.8963    1.9433    3.8287 C   0  0  0  0  0  0  0  0  0  0  0  0
   -5.8673   -0.5367    2.9496 C   0  0  0  0  0  0  0  0  0  0  0  0
   -6.7051   -1.5886    1.8325 S   0  0  0  0  0  0  0  0  0  0  0  0
   -5.4034   -2.1283    0.8861 C   0  0  0  0  0  0  0  0  0  0  0  0
   -4.9179   -2.8855   -0.2032 C   0  0  0  0  0  0  0  0  0  0  0  0
   -5.6415   -3.5173   -1.2344 C   0  0  0  0  0  0  0  0  0  0  0  0
   -5.0266   -3.9552   -2.3279 C   0  0  0  0  0  0  0  0  0  0  0  0
   -5.5694   -4.5778   -3.3582 N   0  0  0  0  0  0  0  0  0  0  0  0
   -7.6936   -4.4720   -2.3205 Se  0  0  0  0  0  2  0  0  0  0  0  0
   -6.9599   -3.7389   -1.1613 N   0  0  0  0  0  0  0  0  0  0  0  0
   -3.6158   -3.7774   -2.3859 C   0  0  0  0  0  0  0  0  0  0  0  0
   -2.7002   -4.0831   -3.3752 C   0  0  0  0  0  0  0  0  0  0  0  0
   -2.3660   -4.6309   -4.9952 S   0  0  0  0  0  0  0  0  0  0  0  0
   -0.6732   -4.3413   -5.0683 C   0  0  0  0  0  0  0  0  0  0  0  0
    0.3940   -4.3710   -5.9488 C   0  0  0  0  0  0  0  0  0  0  0  0
    0.3539   -4.9560   -7.3634 C   0  0  0  0  0  0  0  0  0  0  0  0
   -0.9777   -5.3448   -7.8393 C   0  0  0  0  0  0  0  0  0  0  0  0
    1.5636   -3.9191   -5.5635 C   0  0  0  0  0  0  0  0  0  0  0  0
    1.1637   -3.4364   -3.8938 S   0  0  0  0  0  0  0  0  0  0  0  0
   -0.4812   -3.8538   -3.8578 C   0  0  0  0  0  0  0  0  0  0  0  0
   -1.4758   -3.7101   -2.9709 C   0  0  0  0  0  0  0  0  0  0  0  0
   -1.6543   -3.1652   -1.6930 N   0  0  0  0  0  0  0  0  0  0  0  0
   -2.9142   -3.1845   -1.3521 C   0  0  0  0  0  0  0  0  0  0  0  0
   -3.5578   -2.6874   -0.2320 C   0  0  0  0  0  0  0  0  0  0  0  0
   -3.1850   -1.8596    0.7411 N   0  0  0  0  0  0  0  0  0  0  0  0
   -4.3455   -1.5050    1.4437 C   0  0  0  0  0  0  0  0  0  0  0  0
   -4.6298   -0.6804    2.5182 C   0  0  0  0  0  0  0  0  0  0  0  0
   -3.7641    0.4343    3.5613 S   0  0  0  0  0  0  0  0  0  0  0  0
   -1.9275   -1.2583    1.0967 C   0  0  0  0  0  0  0  0  0  0  0  0
   -1.2374   -1.9227    2.2173 C   0  0  0  0  0  0  0  0  0  0  0  0
   -0.4759   -2.9661   -0.8720 C   0  0  0  0  0  0  0  0  0  0  0  0
   -0.0883   -4.4946   -0.4144 C   0  0  0  0  0  0  0  0  0  0  0  0
    2.9683   -3.5651   -5.9276 C   0  0  0  0  0  0  0  0  0  0  0  0
    3.9943   -4.3039   -5.4305 C   0  0  0  0  0  0  0  0  0  0  0  0
    3.8040   -5.6185   -5.2112 F   0  0  0  0  0  0  0  0  0  0  0  0
    5.2340   -3.6772   -5.1699 C   0  0  0  0  0  0  0  0  0  0  0  0
    6.2735   -4.3895   -4.6817 F   0  0  0  0  0  0  0  0  0  0  0  0
    5.4210   -2.3060   -5.4166 C   0  0  0  0  0  0  0  0  0  0  0  0
    4.4013   -1.5671   -5.9308 C   0  0  0  0  0  0  0  0  0  0  0  0
    4.5002   -0.2261   -6.1037 N   0  0  0  0  0  0  0  0  0  0  0  0
    3.4166    0.4418   -6.5190 C   0  0  0  0  0  0  0  0  0  0  0  0
    3.4877    1.9559   -6.5377 C   0  0  0  0  0  0  0  0  0  0  0  0
    2.9386    2.4567   -5.1952 C   0  0  0  0  0  0  0  0  0  0  0  0
    2.2027   -0.1518   -6.7914 C   0  0  0  0  0  0  0  0  0  0  0  0
    2.1500   -1.4853   -6.6067 N   0  0  0  0  0  0  0  0  0  0  0  0
    3.1795   -2.2026   -6.1874 C   0  0  0  0  0  0  0  0  0  0  0  0
    0.9965    0.5318   -7.2833 C   0  0  0  0  0  0  0  0  0  0  0  0
    1.0065    0.7948   -8.7771 C   0  0  0  0  0  0  0  0  0  0  0  0
    6.6190   -1.7112   -4.7363 C   0  0  0  0  0  0  0  0  0  0  0  0
    6.3777   -1.2797   -3.4650 C   0  0  0  0  0  0  0  0  0  0  0  0
    5.1281   -1.3402   -2.8022 C   0  0  0  0  0  0  0  0  0  0  0  0
    3.9862   -1.5635   -3.3323 O   0  0  0  0  0  0  0  0  0  0  0  0
    5.3537   -1.1153   -1.3984 C   0  0  0  0  0  0  0  0  0  0  0  0
    6.6825   -0.9234   -1.1552 C   0  0  0  0  0  0  0  0  0  0  0  0
    7.0031   -0.6272    0.1201 C   0  0  0  0  0  0  0  0  0  0  0  0
    6.0155   -0.5201    1.1433 C   0  0  0  0  0  0  0  0  0  0  0  0
    4.7052   -0.7156    0.8530 C   0  0  0  0  0  0  0  0  0  0  0  0
    3.3529   -0.5486    2.1692 Br  0  0  0  0  0  0  0  0  0  0  0  0
    4.3501   -1.0183   -0.4262 C   0  0  0  0  0  0  0  0  0  0  0  0
    2.6816   -1.2794   -0.7583 Cl  0  0  0  0  0  0  0  0  0  0  0  0
    7.4624   -1.0179   -2.5140 C   0  0  0  0  0  0  0  0  0  0  0  0
    8.6284   -0.5361   -2.5038 C   0  0  0  0  0  0  0  0  0  0  0  0
    9.3297   -0.6571   -1.0856 C   0  0  0  0  0  0  0  0  0  0  0  0
    9.8771   -0.7504   -0.0152 N   0  0  0  0  0  0  0  0  0  0  0  0
    9.5063    0.2633   -3.2626 C   0  0  0  0  0  0  0  0  0  0  0  0
   10.2161    0.9067   -3.8546 N   0  0  0  0  0  0  0  0  0  0  0  0
   -3.9940    5.0810    9.1453 H   0  0  0  0  0  0  0  0  0  0  0  0
    1.5021    6.1636    9.6548 H   0  0  0  0  0  0  0  0  0  0  0  0
    3.4323    5.3584    8.6357 H   0  0  0  0  0  0  0  0  0  0  0  0
   -3.0281    4.9360    5.9099 H   0  0  0  0  0  0  0  0  0  0  0  0
   -2.7661    5.6322    3.7503 H   0  0  0  0  0  0  0  0  0  0  0  0
   -1.3712    4.4852    3.6713 H   0  0  0  0  0  0  0  0  0  0  0  0
   -2.9792    4.9945    1.0854 H   0  0  0  0  0  0  0  0  0  0  0  0
   -1.3245    4.3672    1.3251 H   0  0  0  0  0  0  0  0  0  0  0  0
   -1.7320    6.1300    1.6428 H   0  0  0  0  0  0  0  0  0  0  0  0
   -7.5110    0.8046    5.5723 H   0  0  0  0  0  0  0  0  0  0  0  0
   -8.2242   -0.1273    4.1606 H   0  0  0  0  0  0  0  0  0  0  0  0
   -9.0042    2.0785    3.8212 H   0  0  0  0  0  0  0  0  0  0  0  0
   -7.5376    1.9547    2.7890 H   0  0  0  0  0  0  0  0  0  0  0  0
   -7.4452    2.7997    4.3466 H   0  0  0  0  0  0  0  0  0  0  0  0
    0.8252   -4.2084   -8.0556 H   0  0  0  0  0  0  0  0  0  0  0  0
    1.0411   -5.8436   -7.4094 H   0  0  0  0  0  0  0  0  0  0  0  0
   -1.6816   -4.4996   -7.7353 H   0  0  0  0  0  0  0  0  0  0  0  0
   -1.4066   -6.1746   -7.2716 H   0  0  0  0  0  0  0  0  0  0  0  0
   -0.8636   -5.6122   -8.9289 H   0  0  0  0  0  0  0  0  0  0  0  0
   -1.3570   -0.8147    0.2597 H   0  0  0  0  0  0  0  0  0  0  0  0
   -2.1741   -0.1842    1.5715 H   0  0  0  0  0  0  0  0  0  0  0  0
   -0.1308   -1.9009    2.1645 H   0  0  0  0  0  0  0  0  0  0  0  0
   -1.6460   -2.9664    2.3956 H   0  0  0  0  0  0  0  0  0  0  0  0
   -1.4789   -1.4206    3.2224 H   0  0  0  0  0  0  0  0  0  0  0  0
    0.3941   -2.7643   -1.5623 H   0  0  0  0  0  0  0  0  0  0  0  0
   -0.4029   -2.5218    0.0157 H   0  0  0  0  0  0  0  0  0  0  0  0
    0.7516   -4.4243    0.2518 H   0  0  0  0  0  0  0  0  0  0  0  0
    0.1117   -4.9839   -1.3705 H   0  0  0  0  0  0  0  0  0  0  0  0
   -1.0170   -4.9108    0.0009 H   0  0  0  0  0  0  0  0  0  0  0  0
    4.5058    2.3185   -6.6734 H   0  0  0  0  0  0  0  0  0  0  0  0
    2.8586    2.3309   -7.3360 H   0  0  0  0  0  0  0  0  0  0  0  0
    2.1631    1.7527   -4.8856 H   0  0  0  0  0  0  0  0  0  0  0  0
    2.5120    3.4538   -5.3076 H   0  0  0  0  0  0  0  0  0  0  0  0
    3.7316    2.4536   -4.4018 H   0  0  0  0  0  0  0  0  0  0  0  0
    0.7592    1.4895   -6.7373 H   0  0  0  0  0  0  0  0  0  0  0  0
    0.0993   -0.0970   -7.1151 H   0  0  0  0  0  0  0  0  0  0  0  0
    0.5436   -0.0648   -9.3333 H   0  0  0  0  0  0  0  0  0  0  0  0
    1.9979    0.9297   -9.2140 H   0  0  0  0  0  0  0  0  0  0  0  0
    0.3207    1.6526   -8.9404 H   0  0  0  0  0  0  0  0  0  0  0  0
    7.5209   -1.6332   -5.2126 H   0  0  0  0  0  0  0  0  0  0  0  0
    7.9609   -0.4056    0.4852 H   0  0  0  0  0  0  0  0  0  0  0  0
    6.3398   -0.2787    2.1453 H   0  0  0  0  0  0  0  0  0  0  0  0
  1  2  2  3
  2  3  1  0
  3  4  2  0
  3  5  1  0
  5  6  2  0
  6  7  1  0
  7  8  2  0
  8  9  1  0
  9 10  1  0
  9 11  2  0
 11 12  1  0
  6 13  1  0
 13 14  2  3
 14 15  1  0
 15 16  3  0
 14 17  1  0
 17 18  3  0
  1 19  1  0
 19 20  2  0
 20 21  1  0
 21 22  1  0
 22 23  1  0
 23 24  1  0
 21 25  2  0
 25 26  1  0
 25 27  1  0
 27 28  2  0
 28 29  1  0
 29 30  1  0
 28 31  1  0
 31 32  1  0
 32 33  1  0
 33 34  1  0
 34 35  1  0
 35 36  1  0
 36 37  2  0
 37 38  1  0
 38 39  1  0
 36 40  1  0
 40 41  1  0
 41 42  1  0
 42 43  1  0
 43 44  1  0
 44 45  1  0
 45 46  1  0
 44 47  2  0
 47 48  1  0
 48 49  1  0
 49 50  1  0
 50 51  1  0
 51 52  1  0
 52 53  1  0
 53 54  1  0
 54 55  1  0
 55 56  1  0
 56 57  1  0
 54 58  1  0
 58 59  1  0
 51 60  1  0
 60 61  1  0
 47 62  1  0
 62 63  2  0
 63 64  1  0
 63 65  1  0
 65 66  1  0
 65 67  2  0
 67 68  1  0
 68 69  2  0
 69 70  1  0
 70 71  1  0
 71 72  1  0
 70 73  2  0
 73 74  1  0
 74 75  2  0
 73 76  1  0
 76 77  1  0
 67 78  1  0
 78 79  2  3
 79 80  1  0
 80 81  2  0
 80 82  1  0
 82 83  2  0
 83 84  1  0
 84 85  2  0
 85 86  1  0
 86 87  1  0
 86 88  2  0
 88 89  1  0
 83 90  1  0
 90 91  2  3
 91 92  1  0
 92 93  3  0
 91 94  1  0
 94 95  3  0
 13  2  1  0
 26 19  1  0
 57 27  1  0
 75 62  1  0
 90 79  1  0
 11  5  1  0
 56 31  2  0
 75 68  1  0
 88 82  1  0
 55 33  2  0
 53 34  2  0
 39 35  2  0
 52 40  2  0
 50 41  2  0
 49 43  2  0
  1 96  1  0
  7 97  1  0
  8 98  1  0
 20 99  1  0
 23100  1  0
 23101  1  0
 24102  1  0
 24103  1  0
 24104  1  0
 29105  1  0
 29106  1  0
 30107  1  0
 30108  1  0
 30109  1  0
 45110  1  0
 45111  1  0
 46112  1  0
 46113  1  0
 46114  1  0
 58115  1  0
 58116  1  0
 59117  1  0
 59118  1  0
 59119  1  0
 60120  1  0
 60121  1  0
 61122  1  0
 61123  1  0
 61124  1  0
 71125  1  0
 71126  1  0
 72127  1  0
 72128  1  0
 72129  1  0
 76130  1  0
 76131  1  0
 77132  1  0
 77133  1  0
 77134  1  0
 78135  1  0
 84136  1  0
 85137  1  0
M  END

