
     RDKit          3D

175193  0  0  0  0  0  0  0  0999 V2000
    1.0715    7.2220   -7.6055 C   0  0  0  0  0  0  0  0  0  0  0  0
    2.0836    7.3243   -6.7230 C   0  0  0  0  0  0  0  0  0  0  0  0
    2.0023    7.9125   -5.3859 C   0  0  0  0  0  0  0  0  0  0  0  0
    1.0044    8.5256   -4.9179 O   0  0  0  0  0  0  0  0  0  0  0  0
    3.3326    7.9225   -4.8004 C   0  0  0  0  0  0  0  0  0  0  0  0
    4.2431    7.4164   -5.7178 C   0  0  0  0  0  0  0  0  0  0  0  0
    5.6148    7.3756   -5.3924 C   0  0  0  0  0  0  0  0  0  0  0  0
    6.0259    7.8152   -4.1295 C   0  0  0  0  0  0  0  0  0  0  0  0
    5.0960    8.2855   -3.1884 C   0  0  0  0  0  0  0  0  0  0  0  0
    5.7426    8.8411   -1.4713 Br  0  0  0  0  0  0  0  0  0  0  0  0
    3.7297    8.3635   -3.5287 C   0  0  0  0  0  0  0  0  0  0  0  0
    2.5452    8.9686   -2.3714 Cl  0  0  0  0  0  0  0  0  0  0  0  0
    3.5240    6.9630   -6.9470 C   0  0  0  0  0  0  0  0  0  0  0  0
    4.0196    6.1417   -7.9173 C   0  0  0  0  0  0  0  0  0  0  0  0
    5.3815    5.6583   -7.9250 C   0  0  0  0  0  0  0  0  0  0  0  0
    6.4677    5.2355   -7.9452 N   0  0  0  0  0  0  0  0  0  0  0  0
    3.1842    5.5614   -8.9413 C   0  0  0  0  0  0  0  0  0  0  0  0
    2.5292    5.0862   -9.7705 N   0  0  0  0  0  0  0  0  0  0  0  0
   -0.3221    6.8665   -7.2631 C   0  0  0  0  0  0  0  0  0  0  0  0
   -1.1785    6.2870   -8.1971 C   0  0  0  0  0  0  0  0  0  0  0  0
   -2.2566    5.5927   -7.6312 C   0  0  0  0  0  0  0  0  0  0  0  0
   -3.2994    4.4998   -8.6133 S   0  0  0  0  0  0  0  0  0  0  0  0
   -2.0766    3.1433   -8.7699 C   0  0  0  0  0  0  0  0  0  0  0  0
   -2.5130    1.9305   -7.9583 C   0  0  0  0  0  0  0  0  0  0  0  0
   -2.3440    5.7090   -6.2418 C   0  0  0  0  0  0  0  0  0  0  0  0
   -0.9572    6.5230   -5.7382 S   0  0  0  0  0  0  0  0  0  0  0  0
   -3.0881    4.7965   -5.3589 C   0  0  0  0  0  0  0  0  0  0  0  0
   -4.4945    4.5827   -5.2553 C   0  0  0  0  0  0  0  0  0  0  0  0
   -5.5837    5.5470   -5.6216 C   0  0  0  0  0  0  0  0  0  0  0  0
   -6.7724    5.5871   -4.8550 C   0  0  0  0  0  0  0  0  0  0  0  0
   -7.8176    6.4541   -5.1851 C   0  0  0  0  0  0  0  0  0  0  0  0
   -7.6922    7.3212   -6.2682 C   0  0  0  0  0  0  0  0  0  0  0  0
   -6.5205    7.3263   -7.0298 C   0  0  0  0  0  0  0  0  0  0  0  0
   -6.3595    8.2973   -8.1638 C   0  0  0  0  0  0  0  0  0  0  0  0
   -5.6729    9.5745   -7.6851 C   0  0  0  0  0  0  0  0  0  0  0  0
   -5.4668    6.4617   -6.6881 C   0  0  0  0  0  0  0  0  0  0  0  0
   -4.7256    3.3621   -4.5879 C   0  0  0  0  0  0  0  0  0  0  0  0
   -6.1032    2.3940   -4.2534 S   0  0  0  0  0  0  0  0  0  0  0  0
   -5.1452    1.1613   -3.5820 C   0  0  0  0  0  0  0  0  0  0  0  0
   -5.2559   -0.0128   -2.8851 C   0  0  0  0  0  0  0  0  0  0  0  0
   -6.3506   -0.6770   -2.3098 C   0  0  0  0  0  0  0  0  0  0  0  0
   -6.0984   -1.7756   -1.4223 C   0  0  0  0  0  0  0  0  0  0  0  0
   -7.1804   -2.3541   -0.8479 N   0  0  0  0  0  0  0  0  0  0  0  0
   -8.3863   -1.4301   -1.5109 S   0  0  0  0  0  0  0  0  0  0  0  0
   -7.6465   -0.3202   -2.4969 N   0  0  0  0  0  0  0  0  0  0  0  0
   -4.7735   -2.1899   -1.2135 C   0  0  0  0  0  0  0  0  0  0  0  0
   -4.1921   -3.2053   -0.4854 C   0  0  0  0  0  0  0  0  0  0  0  0
   -4.5625   -4.3496    0.7227 S   0  0  0  0  0  0  0  0  0  0  0  0
   -2.8988   -4.7540    0.8794 C   0  0  0  0  0  0  0  0  0  0  0  0
   -2.1623   -5.4418    1.8535 C   0  0  0  0  0  0  0  0  0  0  0  0
   -2.7619   -6.4215    2.7854 C   0  0  0  0  0  0  0  0  0  0  0  0
   -3.5164   -7.4821    2.2606 C   0  0  0  0  0  0  0  0  0  0  0  0
   -4.0268   -8.4794    3.1008 C   0  0  0  0  0  0  0  0  0  0  0  0
   -3.7830   -8.4221    4.4751 C   0  0  0  0  0  0  0  0  0  0  0  0
   -3.0570   -7.3496    5.0216 C   0  0  0  0  0  0  0  0  0  0  0  0
   -2.7919   -7.2944    6.5060 C   0  0  0  0  0  0  0  0  0  0  0  0
   -1.3886   -7.8026    6.8235 C   0  0  0  0  0  0  0  0  0  0  0  0
   -2.5617   -6.3454    4.1728 C   0  0  0  0  0  0  0  0  0  0  0  0
   -0.7753   -5.2076    1.6833 C   0  0  0  0  0  0  0  0  0  0  0  0
   -0.5073   -4.1843    0.3543 S   0  0  0  0  0  0  0  0  0  0  0  0
   -2.1319   -4.0472   -0.0099 C   0  0  0  0  0  0  0  0  0  0  0  0
   -2.8686   -3.1681   -0.7661 C   0  0  0  0  0  0  0  0  0  0  0  0
   -2.5182   -2.1925   -1.6327 N   0  0  0  0  0  0  0  0  0  0  0  0
   -3.6989   -1.5438   -1.8449 C   0  0  0  0  0  0  0  0  0  0  0  0
   -3.9357   -0.3765   -2.5878 C   0  0  0  0  0  0  0  0  0  0  0  0
   -3.0502    0.6010   -2.9352 N   0  0  0  0  0  0  0  0  0  0  0  0
   -3.8350    1.4820   -3.5968 C   0  0  0  0  0  0  0  0  0  0  0  0
   -3.5996    2.7252   -4.1400 C   0  0  0  0  0  0  0  0  0  0  0  0
   -2.2262    3.5757   -4.5334 S   0  0  0  0  0  0  0  0  0  0  0  0
   -1.8487    0.9962   -2.1745 C   0  0  0  0  0  0  0  0  0  0  0  0
   -2.1976    2.0029   -1.0782 C   0  0  0  0  0  0  0  0  0  0  0  0
   -1.4398   -2.3541   -2.6176 C   0  0  0  0  0  0  0  0  0  0  0  0
   -1.7988   -3.4258   -3.6425 C   0  0  0  0  0  0  0  0  0  0  0  0
    0.2933   -5.3922    2.6698 C   0  0  0  0  0  0  0  0  0  0  0  0
    1.6004   -5.7833    2.3885 C   0  0  0  0  0  0  0  0  0  0  0  0
    2.3156   -5.4998    3.5376 C   0  0  0  0  0  0  0  0  0  0  0  0
    3.7049   -5.5068    3.7962 C   0  0  0  0  0  0  0  0  0  0  0  0
    4.7020   -6.0674    2.8549 C   0  0  0  0  0  0  0  0  0  0  0  0
    4.5180   -7.1649    2.0134 C   0  0  0  0  0  0  0  0  0  0  0  0
    5.6615   -7.4916    1.2781 C   0  0  0  0  0  0  0  0  0  0  0  0
    5.6979   -8.5105    0.3912 F   0  0  0  0  0  0  0  0  0  0  0  0
    6.7569   -6.6739    1.5451 C   0  0  0  0  0  0  0  0  0  0  0  0
    8.0998   -6.7515    0.8843 C   0  0  0  0  0  0  0  0  0  0  0  0
    8.0749   -6.1202   -0.5003 C   0  0  0  0  0  0  0  0  0  0  0  0
    6.2945   -5.5289    2.6841 S   0  0  0  0  0  0  0  0  0  0  0  0
    4.0880   -4.8989    5.0083 C   0  0  0  0  0  0  0  0  0  0  0  0
    3.1656   -4.3736    5.9006 C   0  0  0  0  0  0  0  0  0  0  0  0
    1.7832   -4.3845    5.6541 C   0  0  0  0  0  0  0  0  0  0  0  0
    0.7992   -3.6920    6.5147 C   0  0  0  0  0  0  0  0  0  0  0  0
   -0.7794   -4.2082    6.7868 S   0  0  0  0  0  0  0  0  0  0  0  0
   -1.2777   -2.8655    7.6610 C   0  0  0  0  0  0  0  0  0  0  0  0
   -2.6422   -2.6642    8.2356 C   0  0  0  0  0  0  0  0  0  0  0  0
   -2.6815   -3.1021    9.6937 C   0  0  0  0  0  0  0  0  0  0  0  0
   -0.1945   -1.9957    7.7695 C   0  0  0  0  0  0  0  0  0  0  0  0
    0.9665   -2.4489    7.1257 C   0  0  0  0  0  0  0  0  0  0  0  0
   -0.2475   -0.8043    8.4253 F   0  0  0  0  0  0  0  0  0  0  0  0
    1.4027   -4.9581    4.4299 C   0  0  0  0  0  0  0  0  0  0  0  0
    0.2092   -4.9277    3.8966 O   0  0  0  0  0  0  0  0  0  0  0  0
    3.8859   -3.8504    6.9498 C   0  0  0  0  0  0  0  0  0  0  0  0
    5.2142   -4.0597    6.6049 C   0  0  0  0  0  0  0  0  0  0  0  0
    5.3075   -4.7076    5.4586 O   0  0  0  0  0  0  0  0  0  0  0  0
    6.3690   -3.5718    7.3713 C   0  0  0  0  0  0  0  0  0  0  0  0
    6.6013   -2.2561    7.6117 C   0  0  0  0  0  0  0  0  0  0  0  0
    5.8279   -1.1796    6.9286 C   0  0  0  0  0  0  0  0  0  0  0  0
    5.2316   -1.4050    5.8386 O   0  0  0  0  0  0  0  0  0  0  0  0
    5.7941    0.1405    7.4927 N   0  0  0  0  0  0  0  0  0  0  0  0
    4.9948    1.1921    6.8536 C   0  0  0  0  0  0  0  0  0  0  0  0
    5.7734    1.8388    5.7087 C   0  0  0  0  0  0  0  0  0  0  0  0
    6.6481    0.4384    8.6115 C   0  0  0  0  0  0  0  0  0  0  0  0
    6.6187    1.5829    9.1418 O   0  0  0  0  0  0  0  0  0  0  0  0
    7.5916   -0.5733    9.1332 C   0  0  0  0  0  0  0  0  0  0  0  0
    7.6243   -1.8313    8.6261 C   0  0  0  0  0  0  0  0  0  0  0  0
    8.6456   -2.8384    9.1199 C   0  0  0  0  0  0  0  0  0  0  0  0
    8.4469   -0.1792   10.2329 C   0  0  0  0  0  0  0  0  0  0  0  0
    9.1259    0.1414   11.1146 N   0  0  0  0  0  0  0  0  0  0  0  0
    1.3029    7.1384   -8.6554 H   0  0  0  0  0  0  0  0  0  0  0  0
    6.3712    7.0450   -6.0869 H   0  0  0  0  0  0  0  0  0  0  0  0
    7.0795    7.7845   -3.8783 H   0  0  0  0  0  0  0  0  0  0  0  0
   -0.9412    6.2265   -9.2519 H   0  0  0  0  0  0  0  0  0  0  0  0
   -1.0560    3.4537   -8.4520 H   0  0  0  0  0  0  0  0  0  0  0  0
   -2.0291    2.8541   -9.8434 H   0  0  0  0  0  0  0  0  0  0  0  0
   -1.8454    1.0776   -8.1930 H   0  0  0  0  0  0  0  0  0  0  0  0
   -2.4331    2.1452   -6.8742 H   0  0  0  0  0  0  0  0  0  0  0  0
   -3.5621    1.6476   -8.1972 H   0  0  0  0  0  0  0  0  0  0  0  0
   -6.8843    4.9829   -3.9718 H   0  0  0  0  0  0  0  0  0  0  0  0
   -8.7238    6.4646   -4.5907 H   0  0  0  0  0  0  0  0  0  0  0  0
   -8.5091    7.9941   -6.5109 H   0  0  0  0  0  0  0  0  0  0  0  0
   -7.3528    8.5553   -8.5975 H   0  0  0  0  0  0  0  0  0  0  0  0
   -5.7601    7.8280   -8.9731 H   0  0  0  0  0  0  0  0  0  0  0  0
   -4.6688    9.3487   -7.2656 H   0  0  0  0  0  0  0  0  0  0  0  0
   -6.2934   10.0630   -6.9087 H   0  0  0  0  0  0  0  0  0  0  0  0
   -5.5631   10.2769   -8.5437 H   0  0  0  0  0  0  0  0  0  0  0  0
   -4.5771    6.5245   -7.2770 H   0  0  0  0  0  0  0  0  0  0  0  0
   -3.6941   -7.5568    1.1954 H   0  0  0  0  0  0  0  0  0  0  0  0
   -4.5919   -9.3034    2.6853 H   0  0  0  0  0  0  0  0  0  0  0  0
   -4.1625   -9.2086    5.1137 H   0  0  0  0  0  0  0  0  0  0  0  0
   -3.5318   -7.9182    7.0542 H   0  0  0  0  0  0  0  0  0  0  0  0
   -2.9107   -6.2522    6.8762 H   0  0  0  0  0  0  0  0  0  0  0  0
   -0.6250   -7.1914    6.2917 H   0  0  0  0  0  0  0  0  0  0  0  0
   -1.2830   -8.8689    6.5182 H   0  0  0  0  0  0  0  0  0  0  0  0
   -1.2090   -7.7139    7.9177 H   0  0  0  0  0  0  0  0  0  0  0  0
   -2.0460   -5.5028    4.5980 H   0  0  0  0  0  0  0  0  0  0  0  0
   -1.0916    1.4324   -2.8567 H   0  0  0  0  0  0  0  0  0  0  0  0
   -1.3807    0.1365   -1.6644 H   0  0  0  0  0  0  0  0  0  0  0  0
   -3.0320    1.6078   -0.4567 H   0  0  0  0  0  0  0  0  0  0  0  0
   -1.3149    2.1804   -0.4312 H   0  0  0  0  0  0  0  0  0  0  0  0
   -2.5033    2.9743   -1.5315 H   0  0  0  0  0  0  0  0  0  0  0  0
   -0.4899   -2.6446   -2.1043 H   0  0  0  0  0  0  0  0  0  0  0  0
   -1.2490   -1.4165   -3.1755 H   0  0  0  0  0  0  0  0  0  0  0  0
   -2.7030   -3.1085   -4.2244 H   0  0  0  0  0  0  0  0  0  0  0  0
   -0.9469   -3.5727   -4.3386 H   0  0  0  0  0  0  0  0  0  0  0  0
   -2.0075   -4.3960   -3.1374 H   0  0  0  0  0  0  0  0  0  0  0  0
    1.9871   -6.0860    1.4247 H   0  0  0  0  0  0  0  0  0  0  0  0
    3.6006   -7.7355    1.9582 H   0  0  0  0  0  0  0  0  0  0  0  0
    8.8556   -6.2295    1.5165 H   0  0  0  0  0  0  0  0  0  0  0  0
    8.4006   -7.8252    0.7970 H   0  0  0  0  0  0  0  0  0  0  0  0
    7.8569   -5.0349   -0.4260 H   0  0  0  0  0  0  0  0  0  0  0  0
    9.0687   -6.2554   -0.9875 H   0  0  0  0  0  0  0  0  0  0  0  0
    7.2994   -6.6015   -1.1314 H   0  0  0  0  0  0  0  0  0  0  0  0
   -3.3746   -3.2538    7.6510 H   0  0  0  0  0  0  0  0  0  0  0  0
   -2.9296   -1.5976    8.1569 H   0  0  0  0  0  0  0  0  0  0  0  0
   -1.9736   -2.4873   10.2999 H   0  0  0  0  0  0  0  0  0  0  0  0
   -3.7056   -2.9629   10.0878 H   0  0  0  0  0  0  0  0  0  0  0  0
   -2.4118   -4.1761    9.7873 H   0  0  0  0  0  0  0  0  0  0  0  0
    1.8724   -1.8540    7.0575 H   0  0  0  0  0  0  0  0  0  0  0  0
    3.5219   -3.3586    7.8366 H   0  0  0  0  0  0  0  0  0  0  0  0
    6.9749   -4.3406    7.8251 H   0  0  0  0  0  0  0  0  0  0  0  0
    4.7019    1.9694    7.5911 H   0  0  0  0  0  0  0  0  0  0  0  0
    4.0446    0.7675    6.4599 H   0  0  0  0  0  0  0  0  0  0  0  0
    5.1516    2.6308    5.2419 H   0  0  0  0  0  0  0  0  0  0  0  0
    6.7086    2.3058    6.0989 H   0  0  0  0  0  0  0  0  0  0  0  0
    6.0260    1.0750    4.9342 H   0  0  0  0  0  0  0  0  0  0  0  0
    9.0327   -3.4348    8.2671 H   0  0  0  0  0  0  0  0  0  0  0  0
    8.1757   -3.5238    9.8573 H   0  0  0  0  0  0  0  0  0  0  0  0
    9.5392   -2.3717    9.5810 H   0  0  0  0  0  0  0  0  0  0  0  0
  1  2  2  3
  2  3  1  0
  3  4  2  0
  3  5  1  0
  5  6  2  0
  6  7  1  0
  7  8  2  0
  8  9  1  0
  9 10  1  0
  9 11  2  0
 11 12  1  0
  6 13  1  0
 13 14  2  3
 14 15  1  0
 15 16  3  0
 14 17  1  0
 17 18  3  0
  1 19  1  0
 19 20  2  0
 20 21  1  0
 21 22  1  0
 22 23  1  0
 23 24  1  0
 21 25  2  0
 25 26  1  0
 25 27  1  0
 27 28  2  0
 28 29  1  0
 29 30  2  0
 30 31  1  0
 31 32  2  0
 32 33  1  0
 33 34  1  0
 34 35  1  0
 33 36  2  0
 28 37  1  0
 37 38  1  0
 38 39  1  0
 39 40  1  0
 40 41  1  0
 41 42  1  0
 42 43  2  0
 43 44  1  0
 44 45  1  0
 42 46  1  0
 46 47  1  0
 47 48  1  0
 48 49  1  0
 49 50  1  0
 50 51  1  0
 51 52  2  0
 52 53  1  0
 53 54  2  0
 54 55  1  0
 55 56  1  0
 56 57  1  0
 55 58  2  0
 50 59  2  0
 59 60  1  0
 60 61  1  0
 61 62  1  0
 62 63  1  0
 63 64  1  0
 64 65  1  0
 65 66  1  0
 66 67  1  0
 67 68  1  0
 68 69  1  0
 66 70  1  0
 70 71  1  0
 63 72  1  0
 72 73  1  0
 59 74  1  0
 74 75  2  0
 75 76  1  0
 76 77  2  0
 77 78  1  0
 78 79  2  0
 79 80  1  0
 80 81  1  0
 80 82  2  0
 82 83  1  0
 83 84  1  0
 82 85  1  0
 77 86  1  0
 86 87  2  0
 87 88  1  0
 88 89  1  0
 89 90  1  0
 90 91  1  0
 91 92  1  0
 92 93  1  0
 91 94  2  0
 94 95  1  0
 94 96  1  0
 88 97  2  0
 97 98  1  0
 87 99  1  0
 99100  2  0
100101  1  0
100102  1  0
102103  2  3
103104  1  0
104105  2  0
104106  1  0
106107  1  0
107108  1  0
106109  1  0
109110  2  0
109111  1  0
111112  2  0
112113  1  0
111114  1  0
114115  3  0
 13  2  1  0
 26 19  1  0
 69 27  1  0
 98 74  1  0
112103  1  0
 11  5  1  0
 36 29  1  0
 68 37  2  0
 97 76  1  0
 67 39  2  0
 85 78  1  0
101 86  1  0
 65 40  2  0
 95 89  2  0
 45 41  2  0
 64 46  2  0
 62 47  2  0
 61 49  2  0
 58 51  1  0
  1116  1  0
  7117  1  0
  8118  1  0
 20119  1  0
 23120  1  0
 23121  1  0
 24122  1  0
 24123  1  0
 24124  1  0
 30125  1  0
 31126  1  0
 32127  1  0
 34128  1  0
 34129  1  0
 35130  1  0
 35131  1  0
 35132  1  0
 36133  1  0
 52134  1  0
 53135  1  0
 54136  1  0
 56137  1  0
 56138  1  0
 57139  1  0
 57140  1  0
 57141  1  0
 58142  1  0
 70143  1  0
 70144  1  0
 71145  1  0
 71146  1  0
 71147  1  0
 72148  1  0
 72149  1  0
 73150  1  0
 73151  1  0
 73152  1  0
 75153  1  0
 79154  1  0
 83155  1  0
 83156  1  0
 84157  1  0
 84158  1  0
 84159  1  0
 92160  1  0
 92161  1  0
 93162  1  0
 93163  1  0
 93164  1  0
 95165  1  0
 99166  1  0
102167  1  0
107168  1  0
107169  1  0
108170  1  0
108171  1  0
108172  1  0
113173  1  0
113174  1  0
113175  1  0
M  END

