
     RDKit          3D

157173  0  0  0  0  0  0  0  0999 V2000
   -5.5069   -0.9641   -7.1794 C   0  0  0  0  0  0  0  0  0  0  0  0
   -5.9442    0.1605   -6.5748 C   0  0  0  0  0  0  0  0  0  0  0  0
   -5.1614    1.0229   -5.6699 C   0  0  0  0  0  0  0  0  0  0  0  0
   -4.1660    0.6627   -4.9837 O   0  0  0  0  0  0  0  0  0  0  0  0
   -5.8075    2.3187   -5.5910 C   0  0  0  0  0  0  0  0  0  0  0  0
   -7.0025    2.2676   -6.2969 C   0  0  0  0  0  0  0  0  0  0  0  0
   -7.7324    3.4479   -6.5059 C   0  0  0  0  0  0  0  0  0  0  0  0
   -7.2704    4.6450   -5.9393 C   0  0  0  0  0  0  0  0  0  0  0  0
   -6.0810    4.6764   -5.1979 C   0  0  0  0  0  0  0  0  0  0  0  0
   -5.5001    6.3592   -4.4816 Br  0  0  0  0  0  0  0  0  0  0  0  0
   -5.3227    3.5060   -5.0229 C   0  0  0  0  0  0  0  0  0  0  0  0
   -3.7778    3.5369   -4.1708 Cl  0  0  0  0  0  0  0  0  0  0  0  0
   -7.2212    0.8944   -6.8352 C   0  0  0  0  0  0  0  0  0  0  0  0
   -8.4031    0.3807   -7.2721 C   0  0  0  0  0  0  0  0  0  0  0  0
   -8.5658   -0.9998   -7.6261 C   0  0  0  0  0  0  0  0  0  0  0  0
   -8.7152   -2.1100   -7.9171 N   0  0  0  0  0  0  0  0  0  0  0  0
   -9.6081    1.1638   -7.3378 C   0  0  0  0  0  0  0  0  0  0  0  0
  -10.5983    1.7739   -7.4062 N   0  0  0  0  0  0  0  0  0  0  0  0
   -4.1384   -1.4939   -7.0403 C   0  0  0  0  0  0  0  0  0  0  0  0
   -3.8116   -2.8269   -6.8565 C   0  0  0  0  0  0  0  0  0  0  0  0
   -2.4327   -3.0504   -6.6931 C   0  0  0  0  0  0  0  0  0  0  0  0
   -1.7830   -4.6971   -6.3676 S   0  0  0  0  0  0  0  0  0  0  0  0
   -2.5385   -4.8777   -4.7031 C   0  0  0  0  0  0  0  0  0  0  0  0
   -1.7433   -4.1499   -3.6292 C   0  0  0  0  0  0  0  0  0  0  0  0
   -1.6518   -1.8914   -6.8608 C   0  0  0  0  0  0  0  0  0  0  0  0
   -2.7130   -0.6126   -7.1526 S   0  0  0  0  0  0  0  0  0  0  0  0
   -0.2006   -1.7163   -6.6244 C   0  0  0  0  0  0  0  0  0  0  0  0
    0.5636   -0.5846   -6.9958 C   0  0  0  0  0  0  0  0  0  0  0  0
    0.1603    0.4221   -8.0062 C   0  0  0  0  0  0  0  0  0  0  0  0
    0.1492    1.7925   -7.7055 C   0  0  0  0  0  0  0  0  0  0  0  0
   -0.1947    2.7251   -8.6897 C   0  0  0  0  0  0  0  0  0  0  0  0
   -0.5501    2.2962   -9.9708 C   0  0  0  0  0  0  0  0  0  0  0  0
   -0.5676    0.9282  -10.2807 C   0  0  0  0  0  0  0  0  0  0  0  0
   -0.9502    0.4573  -11.6597 C   0  0  0  0  0  0  0  0  0  0  0  0
    0.2718    0.0250  -12.4635 C   0  0  0  0  0  0  0  0  0  0  0  0
   -0.2142   -0.0045   -9.2915 C   0  0  0  0  0  0  0  0  0  0  0  0
    1.7624   -0.5190   -6.2736 C   0  0  0  0  0  0  0  0  0  0  0  0
    2.7902    0.7960   -5.9049 S   0  0  0  0  0  0  0  0  0  0  0  0
    3.4718   -0.0574   -4.6067 C   0  0  0  0  0  0  0  0  0  0  0  0
    4.0315    0.2773   -3.4091 C   0  0  0  0  0  0  0  0  0  0  0  0
    4.6345    1.4609   -2.9811 C   0  0  0  0  0  0  0  0  0  0  0  0
    5.0673    1.5583   -1.6277 C   0  0  0  0  0  0  0  0  0  0  0  0
    5.6213    2.7345   -1.2445 N   0  0  0  0  0  0  0  0  0  0  0  0
    5.5361    3.5633   -2.6756 S   0  0  0  0  0  0  0  0  0  0  0  0
    4.8266    2.5448   -3.7704 N   0  0  0  0  0  0  0  0  0  0  0  0
    4.8231    0.4860   -0.7633 C   0  0  0  0  0  0  0  0  0  0  0  0
    4.8590    0.4464    0.6036 C   0  0  0  0  0  0  0  0  0  0  0  0
    5.0298    1.5849    1.8518 S   0  0  0  0  0  0  0  0  0  0  0  0
    4.1996    0.5742    2.9453 C   0  0  0  0  0  0  0  0  0  0  0  0
    3.7896    0.7085    4.2754 C   0  0  0  0  0  0  0  0  0  0  0  0
    4.0781    1.8783    5.1289 C   0  0  0  0  0  0  0  0  0  0  0  0
    3.8374    3.1787    4.6596 C   0  0  0  0  0  0  0  0  0  0  0  0
    4.1338    4.2854    5.4617 C   0  0  0  0  0  0  0  0  0  0  0  0
    4.6844    4.1001    6.7340 C   0  0  0  0  0  0  0  0  0  0  0  0
    4.9251    2.8055    7.2198 C   0  0  0  0  0  0  0  0  0  0  0  0
    5.5710    2.6050    8.5657 C   0  0  0  0  0  0  0  0  0  0  0  0
    7.0783    2.4130    8.4131 C   0  0  0  0  0  0  0  0  0  0  0  0
    4.6170    1.6994    6.4134 C   0  0  0  0  0  0  0  0  0  0  0  0
    3.0676   -0.4273    4.6859 C   0  0  0  0  0  0  0  0  0  0  0  0
    2.8908   -1.5135    3.3879 S   0  0  0  0  0  0  0  0  0  0  0  0
    3.7838   -0.5773    2.3260 C   0  0  0  0  0  0  0  0  0  0  0  0
    4.1482   -0.6449    0.9859 C   0  0  0  0  0  0  0  0  0  0  0  0
    3.6378   -1.3369   -0.0648 N   0  0  0  0  0  0  0  0  0  0  0  0
    4.1165   -0.6665   -1.1682 C   0  0  0  0  0  0  0  0  0  0  0  0
    3.7875   -0.8070   -2.5511 C   0  0  0  0  0  0  0  0  0  0  0  0
    3.1469   -1.8209   -3.2289 N   0  0  0  0  0  0  0  0  0  0  0  0
    2.9456   -1.2938   -4.4574 C   0  0  0  0  0  0  0  0  0  0  0  0
    1.9684   -1.5617   -5.4040 C   0  0  0  0  0  0  0  0  0  0  0  0
    0.6520   -2.5845   -5.4296 S   0  0  0  0  0  0  0  0  0  0  0  0
    3.2662   -3.2762   -3.0364 C   0  0  0  0  0  0  0  0  0  0  0  0
    4.7281   -3.7008   -2.9437 C   0  0  0  0  0  0  0  0  0  0  0  0
    2.4433   -2.1798    0.0314 C   0  0  0  0  0  0  0  0  0  0  0  0
    2.8145   -3.6024    0.4453 C   0  0  0  0  0  0  0  0  0  0  0  0
    2.3954   -0.6479    5.9783 C   0  0  0  0  0  0  0  0  0  0  0  0
    2.8798   -1.6389    6.8354 C   0  0  0  0  0  0  0  0  0  0  0  0
    4.0735   -2.2353    6.5880 F   0  0  0  0  0  0  0  0  0  0  0  0
    2.0868   -2.1121    7.8868 C   0  0  0  0  0  0  0  0  0  0  0  0
    2.5447   -3.1459    8.6447 F   0  0  0  0  0  0  0  0  0  0  0  0
    0.7963   -1.6016    8.1078 C   0  0  0  0  0  0  0  0  0  0  0  0
    0.3468   -0.5292    7.2968 C   0  0  0  0  0  0  0  0  0  0  0  0
   -0.8947   -0.0023    7.4540 N   0  0  0  0  0  0  0  0  0  0  0  0
   -1.3680    1.0051    6.6726 C   0  0  0  0  0  0  0  0  0  0  0  0
   -2.7340    1.5502    6.9962 C   0  0  0  0  0  0  0  0  0  0  0  0
   -2.6288    2.8341    7.8221 C   0  0  0  0  0  0  0  0  0  0  0  0
   -0.5516    1.4996    5.6258 C   0  0  0  0  0  0  0  0  0  0  0  0
    0.6734    0.9342    5.4357 N   0  0  0  0  0  0  0  0  0  0  0  0
    1.1526   -0.0507    6.2421 C   0  0  0  0  0  0  0  0  0  0  0  0
   -1.0016    2.5560    4.6440 C   0  0  0  0  0  0  0  0  0  0  0  0
    0.0730    3.6181    4.4319 C   0  0  0  0  0  0  0  0  0  0  0  0
   -0.1206   -2.4071    8.9591 C   0  0  0  0  0  0  0  0  0  0  0  0
   -1.1323   -1.9622    9.7299 C   0  0  0  0  0  0  0  0  0  0  0  0
   -2.3341   -2.7673    9.9418 C   0  0  0  0  0  0  0  0  0  0  0  0
   -2.4144   -4.0158    9.7947 O   0  0  0  0  0  0  0  0  0  0  0  0
   -3.4378   -1.8722   10.2588 C   0  0  0  0  0  0  0  0  0  0  0  0
   -2.9411   -0.5788   10.3776 C   0  0  0  0  0  0  0  0  0  0  0  0
   -3.8226    0.5010   10.4878 C   0  0  0  0  0  0  0  0  0  0  0  0
   -5.2049    0.2576   10.5159 C   0  0  0  0  0  0  0  0  0  0  0  0
   -5.7006   -1.0565   10.3890 C   0  0  0  0  0  0  0  0  0  0  0  0
   -7.6003   -1.3131   10.3719 Br  0  0  0  0  0  0  0  0  0  0  0  0
   -4.8166   -2.1427   10.2801 C   0  0  0  0  0  0  0  0  0  0  0  0
   -5.4163   -3.7841   10.0324 Cl  0  0  0  0  0  0  0  0  0  0  0  0
   -1.4671   -0.5841   10.1849 C   0  0  0  0  0  0  0  0  0  0  0  0
   -0.5847    0.3425   10.6360 C   0  0  0  0  0  0  0  0  0  0  0  0
   -1.0107    1.5711   11.2561 C   0  0  0  0  0  0  0  0  0  0  0  0
   -1.3405    2.5556   11.7682 N   0  0  0  0  0  0  0  0  0  0  0  0
    0.8311    0.0790   10.6730 C   0  0  0  0  0  0  0  0  0  0  0  0
    1.9711   -0.1367   10.7172 N   0  0  0  0  0  0  0  0  0  0  0  0
   -6.1479   -1.5177   -7.8429 H   0  0  0  0  0  0  0  0  0  0  0  0
   -8.6041    3.4778   -7.1373 H   0  0  0  0  0  0  0  0  0  0  0  0
   -7.8391    5.5527   -6.0958 H   0  0  0  0  0  0  0  0  0  0  0  0
   -4.5547   -3.6121   -6.7921 H   0  0  0  0  0  0  0  0  0  0  0  0
   -3.5874   -4.5202   -4.6973 H   0  0  0  0  0  0  0  0  0  0  0  0
   -2.5606   -5.9565   -4.4549 H   0  0  0  0  0  0  0  0  0  0  0  0
   -0.6942   -4.5159   -3.6134 H   0  0  0  0  0  0  0  0  0  0  0  0
   -1.7605   -3.0575   -3.8176 H   0  0  0  0  0  0  0  0  0  0  0  0
   -2.2018   -4.3384   -2.6367 H   0  0  0  0  0  0  0  0  0  0  0  0
    0.3989    2.1420   -6.7125 H   0  0  0  0  0  0  0  0  0  0  0  0
   -0.1848    3.7831   -8.4562 H   0  0  0  0  0  0  0  0  0  0  0  0
   -0.8075    3.0333  -10.7213 H   0  0  0  0  0  0  0  0  0  0  0  0
   -1.6505   -0.4032  -11.5743 H   0  0  0  0  0  0  0  0  0  0  0  0
   -1.4830    1.2623  -12.2209 H   0  0  0  0  0  0  0  0  0  0  0  0
    0.9704    0.8796  -12.6022 H   0  0  0  0  0  0  0  0  0  0  0  0
   -0.0452   -0.3392  -13.4630 H   0  0  0  0  0  0  0  0  0  0  0  0
    0.8102   -0.8009  -11.9412 H   0  0  0  0  0  0  0  0  0  0  0  0
   -0.2206   -1.0628   -9.5282 H   0  0  0  0  0  0  0  0  0  0  0  0
    3.4180    3.3391    3.6764 H   0  0  0  0  0  0  0  0  0  0  0  0
    3.9389    5.2882    5.0989 H   0  0  0  0  0  0  0  0  0  0  0  0
    4.9211    4.9675    7.3377 H   0  0  0  0  0  0  0  0  0  0  0  0
    5.3775    3.4850    9.2206 H   0  0  0  0  0  0  0  0  0  0  0  0
    5.1320    1.7106    9.0606 H   0  0  0  0  0  0  0  0  0  0  0  0
    7.5330    2.2940    9.4194 H   0  0  0  0  0  0  0  0  0  0  0  0
    7.2948    1.5040    7.8123 H   0  0  0  0  0  0  0  0  0  0  0  0
    7.5318    3.2980    7.9176 H   0  0  0  0  0  0  0  0  0  0  0  0
    4.8374    0.7019    6.7717 H   0  0  0  0  0  0  0  0  0  0  0  0
    2.7043   -3.6392   -2.1694 H   0  0  0  0  0  0  0  0  0  0  0  0
    2.8191   -3.8103   -3.9020 H   0  0  0  0  0  0  0  0  0  0  0  0
    5.2853   -3.3447   -3.8421 H   0  0  0  0  0  0  0  0  0  0  0  0
    5.1971   -3.2817   -2.0307 H   0  0  0  0  0  0  0  0  0  0  0  0
    4.7905   -4.8099   -2.8989 H   0  0  0  0  0  0  0  0  0  0  0  0
    1.7426   -1.7603    0.7829 H   0  0  0  0  0  0  0  0  0  0  0  0
    1.8647   -2.1523   -0.9127 H   0  0  0  0  0  0  0  0  0  0  0  0
    3.7163   -3.9542   -0.0976 H   0  0  0  0  0  0  0  0  0  0  0  0
    1.9696   -4.2880    0.2193 H   0  0  0  0  0  0  0  0  0  0  0  0
    3.0282   -3.6514    1.5347 H   0  0  0  0  0  0  0  0  0  0  0  0
   -3.3269    1.7255    6.0759 H   0  0  0  0  0  0  0  0  0  0  0  0
   -3.2922    0.7963    7.5940 H   0  0  0  0  0  0  0  0  0  0  0  0
   -2.2682    3.6693    7.1920 H   0  0  0  0  0  0  0  0  0  0  0  0
   -1.9364    2.6958    8.6772 H   0  0  0  0  0  0  0  0  0  0  0  0
   -3.6323    3.0995    8.2182 H   0  0  0  0  0  0  0  0  0  0  0  0
   -1.2287    2.0686    3.6700 H   0  0  0  0  0  0  0  0  0  0  0  0
   -1.9219    3.0790    4.9743 H   0  0  0  0  0  0  0  0  0  0  0  0
    0.9554    3.1768    3.9223 H   0  0  0  0  0  0  0  0  0  0  0  0
   -0.3262    4.4342    3.7881 H   0  0  0  0  0  0  0  0  0  0  0  0
    0.3910    4.0554    5.4042 H   0  0  0  0  0  0  0  0  0  0  0  0
   -0.0811   -3.4744    8.7663 H   0  0  0  0  0  0  0  0  0  0  0  0
   -3.4767    1.5245   10.5099 H   0  0  0  0  0  0  0  0  0  0  0  0
   -5.8891    1.0911   10.5508 H   0  0  0  0  0  0  0  0  0  0  0  0
  1  2  2  3
  2  3  1  0
  3  4  2  0
  3  5  1  0
  5  6  2  0
  6  7  1  0
  7  8  2  0
  8  9  1  0
  9 10  1  0
  9 11  2  0
 11 12  1  0
  6 13  1  0
 13 14  2  3
 14 15  1  0
 15 16  3  0
 14 17  1  0
 17 18  3  0
  1 19  1  0
 19 20  2  0
 20 21  1  0
 21 22  1  0
 22 23  1  0
 23 24  1  0
 21 25  2  0
 25 26  1  0
 25 27  1  0
 27 28  2  0
 28 29  1  0
 29 30  2  0
 30 31  1  0
 31 32  2  0
 32 33  1  0
 33 34  1  0
 34 35  1  0
 33 36  2  0
 28 37  1  0
 37 38  1  0
 38 39  1  0
 39 40  1  0
 40 41  1  0
 41 42  1  0
 42 43  2  0
 43 44  1  0
 44 45  1  0
 42 46  1  0
 46 47  1  0
 47 48  1  0
 48 49  1  0
 49 50  1  0
 50 51  1  0
 51 52  2  0
 52 53  1  0
 53 54  2  0
 54 55  1  0
 55 56  1  0
 56 57  1  0
 55 58  2  0
 50 59  2  0
 59 60  1  0
 60 61  1  0
 61 62  1  0
 62 63  1  0
 63 64  1  0
 64 65  1  0
 65 66  1  0
 66 67  1  0
 67 68  1  0
 68 69  1  0
 66 70  1  0
 70 71  1  0
 63 72  1  0
 72 73  1  0
 59 74  1  0
 74 75  2  0
 75 76  1  0
 75 77  1  0
 77 78  1  0
 77 79  2  0
 79 80  1  0
 80 81  2  0
 81 82  1  0
 82 83  1  0
 83 84  1  0
 82 85  2  0
 85 86  1  0
 86 87  2  0
 85 88  1  0
 88 89  1  0
 79 90  1  0
 90 91  2  3
 91 92  1  0
 92 93  2  0
 92 94  1  0
 94 95  2  0
 95 96  1  0
 96 97  2  0
 97 98  1  0
 98 99  1  0
 98100  2  0
100101  1  0
 95102  1  0
102103  2  3
103104  1  0
104105  3  0
103106  1  0
106107  3  0
 13  2  1  0
 26 19  1  0
 69 27  1  0
 87 74  1  0
102 91  1  0
 11  5  1  0
 36 29  1  0
 68 37  2  0
 87 80  1  0
100 94  1  0
 67 39  2  0
 65 40  2  0
 45 41  2  0
 64 46  2  0
 62 47  2  0
 61 49  2  0
 58 51  1  0
  1108  1  0
  7109  1  0
  8110  1  0
 20111  1  0
 23112  1  0
 23113  1  0
 24114  1  0
 24115  1  0
 24116  1  0
 30117  1  0
 31118  1  0
 32119  1  0
 34120  1  0
 34121  1  0
 35122  1  0
 35123  1  0
 35124  1  0
 36125  1  0
 52126  1  0
 53127  1  0
 54128  1  0
 56129  1  0
 56130  1  0
 57131  1  0
 57132  1  0
 57133  1  0
 58134  1  0
 70135  1  0
 70136  1  0
 71137  1  0
 71138  1  0
 71139  1  0
 72140  1  0
 72141  1  0
 73142  1  0
 73143  1  0
 73144  1  0
 83145  1  0
 83146  1  0
 84147  1  0
 84148  1  0
 84149  1  0
 88150  1  0
 88151  1  0
 89152  1  0
 89153  1  0
 89154  1  0
 90155  1  0
 96156  1  0
 97157  1  0
M  END

