
     RDKit          3D

172189  0  0  0  0  0  0  0  0999 V2000
    5.4256   -7.4480    3.3143 C   0  0  0  0  0  0  0  0  0  0  0  0
    5.5754   -8.5231    2.5140 C   0  0  0  0  0  0  0  0  0  0  0  0
    6.2087   -8.5346    1.1947 C   0  0  0  0  0  0  0  0  0  0  0  0
    7.1609   -7.7973    0.8331 O   0  0  0  0  0  0  0  0  0  0  0  0
    5.6467   -9.6273    0.4221 C   0  0  0  0  0  0  0  0  0  0  0  0
    4.7959  -10.3553    1.2372 C   0  0  0  0  0  0  0  0  0  0  0  0
    4.0259  -11.3939    0.6877 C   0  0  0  0  0  0  0  0  0  0  0  0
    4.1788  -11.7144   -0.6671 C   0  0  0  0  0  0  0  0  0  0  0  0
    5.0591  -10.9870   -1.4856 C   0  0  0  0  0  0  0  0  0  0  0  0
    5.1770  -11.4453   -3.3412 Br  0  0  0  0  0  0  0  0  0  0  0  0
    5.8039   -9.9219   -0.9412 C   0  0  0  0  0  0  0  0  0  0  0  0
    6.8480   -8.9323   -1.9648 Cl  0  0  0  0  0  0  0  0  0  0  0  0
    4.8180   -9.8022    2.6188 C   0  0  0  0  0  0  0  0  0  0  0  0
    4.4293  -10.4214    3.7603 C   0  0  0  0  0  0  0  0  0  0  0  0
    4.7833   -9.9167    5.0620 C   0  0  0  0  0  0  0  0  0  0  0  0
    5.0644   -9.5320    6.1165 N   0  0  0  0  0  0  0  0  0  0  0  0
    3.7191  -11.6760    3.7605 C   0  0  0  0  0  0  0  0  0  0  0  0
    3.1377  -12.6784    3.7781 N   0  0  0  0  0  0  0  0  0  0  0  0
    5.7451   -6.0719    2.8977 C   0  0  0  0  0  0  0  0  0  0  0  0
    6.0262   -5.0086    3.7488 C   0  0  0  0  0  0  0  0  0  0  0  0
    5.9876   -3.7469    3.1213 C   0  0  0  0  0  0  0  0  0  0  0  0
    6.2501   -2.2448    4.0636 S   0  0  0  0  0  0  0  0  0  0  0  0
    8.0012   -2.0385    3.5891 C   0  0  0  0  0  0  0  0  0  0  0  0
    8.9053   -2.4887    4.7261 C   0  0  0  0  0  0  0  0  0  0  0  0
    5.6457   -3.8058    1.7608 C   0  0  0  0  0  0  0  0  0  0  0  0
    5.3915   -5.4295    1.3882 S   0  0  0  0  0  0  0  0  0  0  0  0
    5.3990   -2.7299    0.7799 C   0  0  0  0  0  0  0  0  0  0  0  0
    5.2044   -1.3595    1.0263 C   0  0  0  0  0  0  0  0  0  0  0  0
    4.7254   -0.7061   -0.1086 C   0  0  0  0  0  0  0  0  0  0  0  0
    3.8434    0.7278   -0.2704 S   0  0  0  0  0  0  0  0  0  0  0  0
    3.2709    0.3000   -1.8127 C   0  0  0  0  0  0  0  0  0  0  0  0
    2.0074    0.5817   -2.4536 C   0  0  0  0  0  0  0  0  0  0  0  0
    1.1222    1.6440   -2.2355 C   0  0  0  0  0  0  0  0  0  0  0  0
   -0.1405    1.5792   -2.8538 C   0  0  0  0  0  0  0  0  0  0  0  0
   -1.3382    2.5053   -2.6219 C   0  0  0  0  0  0  0  0  0  0  0  0
   -1.2128    3.8018   -3.4462 C   0  0  0  0  0  0  0  0  0  0  0  0
    0.0074    4.5098   -3.4962 C   0  0  0  0  0  0  0  0  0  0  0  0
    0.1291    5.6852   -4.2436 C   0  0  0  0  0  0  0  0  0  0  0  0
   -0.9637    6.1887   -4.9525 C   0  0  0  0  0  0  0  0  0  0  0  0
   -0.8323    7.4486   -5.7639 C   0  0  0  0  0  0  0  0  0  0  0  0
   -1.4472    8.6414   -5.0363 C   0  0  0  0  0  0  0  0  0  0  0  0
   -2.1985    5.5286   -4.8696 C   0  0  0  0  0  0  0  0  0  0  0  0
   -2.3265    4.3609   -4.1142 C   0  0  0  0  0  0  0  0  0  0  0  0
   -1.5472    2.7315   -1.1129 C   0  0  0  0  0  0  0  0  0  0  0  0
   -1.5050    4.0128   -0.5214 C   0  0  0  0  0  0  0  0  0  0  0  0
   -1.6741    4.1669    0.8604 C   0  0  0  0  0  0  0  0  0  0  0  0
   -1.9064    3.0531    1.6783 C   0  0  0  0  0  0  0  0  0  0  0  0
   -2.0900    3.2173    3.1629 C   0  0  0  0  0  0  0  0  0  0  0  0
   -3.5019    3.6925    3.4964 C   0  0  0  0  0  0  0  0  0  0  0  0
   -1.9624    1.7781    1.0953 C   0  0  0  0  0  0  0  0  0  0  0  0
   -1.7719    1.6189   -0.2765 C   0  0  0  0  0  0  0  0  0  0  0  0
   -2.4286    1.6081   -3.1943 C   0  0  0  0  0  0  0  0  0  0  0  0
   -1.9318    0.4624   -3.7717 C   0  0  0  0  0  0  0  0  0  0  0  0
   -0.5059    0.4338   -3.5726 C   0  0  0  0  0  0  0  0  0  0  0  0
    0.3691   -0.6360   -3.7723 C   0  0  0  0  0  0  0  0  0  0  0  0
    1.6515   -0.5373   -3.2110 C   0  0  0  0  0  0  0  0  0  0  0  0
    2.6494   -1.6695   -3.0323 C   0  0  0  0  0  0  0  0  0  0  0  0
    1.9010   -2.8010   -2.3039 C   0  0  0  0  0  0  0  0  0  0  0  0
    1.2985   -3.8542   -3.0225 C   0  0  0  0  0  0  0  0  0  0  0  0
    0.5082   -4.8084   -2.3720 C   0  0  0  0  0  0  0  0  0  0  0  0
    0.2776   -4.7120   -0.9940 C   0  0  0  0  0  0  0  0  0  0  0  0
   -0.6510   -5.6723   -0.2976 C   0  0  0  0  0  0  0  0  0  0  0  0
   -2.0501   -5.0774   -0.1929 C   0  0  0  0  0  0  0  0  0  0  0  0
    0.8294   -3.6449   -0.2764 C   0  0  0  0  0  0  0  0  0  0  0  0
    1.6062   -2.6923   -0.9276 C   0  0  0  0  0  0  0  0  0  0  0  0
    3.3606   -2.0781   -4.3232 C   0  0  0  0  0  0  0  0  0  0  0  0
    3.4931   -1.1783   -5.3987 C   0  0  0  0  0  0  0  0  0  0  0  0
    4.2763   -1.4978   -6.5123 C   0  0  0  0  0  0  0  0  0  0  0  0
    4.9464   -2.7266   -6.5778 C   0  0  0  0  0  0  0  0  0  0  0  0
    5.8564   -3.0336   -7.7355 C   0  0  0  0  0  0  0  0  0  0  0  0
    7.2883   -2.6284   -7.4039 C   0  0  0  0  0  0  0  0  0  0  0  0
    4.8373   -3.6237   -5.5045 C   0  0  0  0  0  0  0  0  0  0  0  0
    4.0714   -3.2939   -4.3838 C   0  0  0  0  0  0  0  0  0  0  0  0
    3.6660   -0.9725   -2.1500 C   0  0  0  0  0  0  0  0  0  0  0  0
    4.5364   -1.5017   -1.2036 C   0  0  0  0  0  0  0  0  0  0  0  0
    4.9522   -3.0722   -0.8274 S   0  0  0  0  0  0  0  0  0  0  0  0
   -3.0752   -0.8003   -3.7582 S   0  0  0  0  0  0  0  0  0  0  0  0
   -4.2629    0.2298   -3.1398 C   0  0  0  0  0  0  0  0  0  0  0  0
   -5.7395   -0.0212   -2.3772 S   0  0  0  0  0  0  0  0  0  0  0  0
   -5.7895    1.5672   -1.7520 C   0  0  0  0  0  0  0  0  0  0  0  0
   -4.6151    2.2531   -2.0862 C   0  0  0  0  0  0  0  0  0  0  0  0
   -3.7708    1.4685   -2.8541 C   0  0  0  0  0  0  0  0  0  0  0  0
   -6.7841    2.1044   -0.8218 C   0  0  0  0  0  0  0  0  0  0  0  0
   -7.1939    1.4902    0.3596 C   0  0  0  0  0  0  0  0  0  0  0  0
   -7.7222    2.3982    1.2916 C   0  0  0  0  0  0  0  0  0  0  0  0
   -8.1578    1.9228    2.9704 S   0  0  0  0  0  0  0  0  0  0  0  0
   -9.9449    1.8425    2.6323 C   0  0  0  0  0  0  0  0  0  0  0  0
  -10.7117    1.6937    3.9386 C   0  0  0  0  0  0  0  0  0  0  0  0
   -7.7168    3.7188    0.8476 C   0  0  0  0  0  0  0  0  0  0  0  0
   -7.1214    3.7413   -0.7205 S   0  0  0  0  0  0  0  0  0  0  0  0
   -7.9697    4.9138    1.6648 C   0  0  0  0  0  0  0  0  0  0  0  0
   -7.0400    5.8746    1.8657 C   0  0  0  0  0  0  0  0  0  0  0  0
   -5.6601    5.8458    1.3564 C   0  0  0  0  0  0  0  0  0  0  0  0
   -5.0264    4.8370    0.9551 O   0  0  0  0  0  0  0  0  0  0  0  0
   -5.0894    7.1578    1.4930 C   0  0  0  0  0  0  0  0  0  0  0  0
   -3.8598    7.5983    1.0083 C   0  0  0  0  0  0  0  0  0  0  0  0
   -3.5121    8.9443    1.1920 C   0  0  0  0  0  0  0  0  0  0  0  0
   -2.2827    9.4299    0.7254 C   0  0  0  0  0  0  0  0  0  0  0  0
   -1.9452   10.7746    0.9005 C   0  0  0  0  0  0  0  0  0  0  0  0
   -2.8332   11.6453    1.5450 C   0  0  0  0  0  0  0  0  0  0  0  0
   -2.5034   12.9507    1.7037 F   0  0  0  0  0  0  0  0  0  0  0  0
   -4.0660   11.1778    2.0162 C   0  0  0  0  0  0  0  0  0  0  0  0
   -4.4159    9.8272    1.8505 C   0  0  0  0  0  0  0  0  0  0  0  0
   -5.6612    9.3500    2.3115 C   0  0  0  0  0  0  0  0  0  0  0  0
   -5.9817    7.9925    2.1456 C   0  0  0  0  0  0  0  0  0  0  0  0
   -7.2121    7.2210    2.5123 C   0  0  0  0  0  0  0  0  0  0  0  0
   -8.1783    7.6043    3.3888 C   0  0  0  0  0  0  0  0  0  0  0  0
   -9.2573    6.7439    3.7958 C   0  0  0  0  0  0  0  0  0  0  0  0
  -10.1474    6.0747    4.1256 N   0  0  0  0  0  0  0  0  0  0  0  0
   -8.1592    8.8770    4.0579 C   0  0  0  0  0  0  0  0  0  0  0  0
   -8.1617    9.8966    4.6042 N   0  0  0  0  0  0  0  0  0  0  0  0
    4.8594   -7.5262    4.2270 H   0  0  0  0  0  0  0  0  0  0  0  0
    3.2989  -11.9430    1.2713 H   0  0  0  0  0  0  0  0  0  0  0  0
    3.5874  -12.5147   -1.0938 H   0  0  0  0  0  0  0  0  0  0  0  0
    6.2152   -5.1452    4.8114 H   0  0  0  0  0  0  0  0  0  0  0  0
    8.1785   -0.9629    3.3904 H   0  0  0  0  0  0  0  0  0  0  0  0
    8.2479   -2.6055    2.6641 H   0  0  0  0  0  0  0  0  0  0  0  0
    8.7475   -3.5684    4.9352 H   0  0  0  0  0  0  0  0  0  0  0  0
    9.9702   -2.3275    4.4481 H   0  0  0  0  0  0  0  0  0  0  0  0
    8.6818   -1.8995    5.6418 H   0  0  0  0  0  0  0  0  0  0  0  0
    5.2279   -0.8886    1.9963 H   0  0  0  0  0  0  0  0  0  0  0  0
    1.3754    2.4388   -1.5487 H   0  0  0  0  0  0  0  0  0  0  0  0
    0.8699    4.1702   -2.9521 H   0  0  0  0  0  0  0  0  0  0  0  0
    1.0815    6.2009   -4.2615 H   0  0  0  0  0  0  0  0  0  0  0  0
   -1.3422    7.3142   -6.7431 H   0  0  0  0  0  0  0  0  0  0  0  0
    0.2375    7.6645   -5.9744 H   0  0  0  0  0  0  0  0  0  0  0  0
   -1.2810    9.5604   -5.6359 H   0  0  0  0  0  0  0  0  0  0  0  0
   -2.5398    8.4976   -4.9019 H   0  0  0  0  0  0  0  0  0  0  0  0
   -0.9681    8.7782   -4.0416 H   0  0  0  0  0  0  0  0  0  0  0  0
   -3.0645    5.9226   -5.3887 H   0  0  0  0  0  0  0  0  0  0  0  0
   -3.3045    3.9088   -4.0661 H   0  0  0  0  0  0  0  0  0  0  0  0
   -1.3265    4.9017   -1.1107 H   0  0  0  0  0  0  0  0  0  0  0  0
   -1.6208    5.1544    1.2935 H   0  0  0  0  0  0  0  0  0  0  0  0
   -1.9028    2.2530    3.6822 H   0  0  0  0  0  0  0  0  0  0  0  0
   -1.3511    3.9546    3.5500 H   0  0  0  0  0  0  0  0  0  0  0  0
   -4.2611    3.0570    2.9973 H   0  0  0  0  0  0  0  0  0  0  0  0
   -3.6268    4.7461    3.1762 H   0  0  0  0  0  0  0  0  0  0  0  0
   -3.6607    3.6414    4.5916 H   0  0  0  0  0  0  0  0  0  0  0  0
   -2.1434    0.9044    1.7071 H   0  0  0  0  0  0  0  0  0  0  0  0
   -1.8015    0.6186   -0.6914 H   0  0  0  0  0  0  0  0  0  0  0  0
    0.0360   -1.5478   -4.2524 H   0  0  0  0  0  0  0  0  0  0  0  0
    1.4051   -3.9255   -4.0928 H   0  0  0  0  0  0  0  0  0  0  0  0
    0.0470   -5.6003   -2.9528 H   0  0  0  0  0  0  0  0  0  0  0  0
   -0.6957   -6.6369   -0.8527 H   0  0  0  0  0  0  0  0  0  0  0  0
   -0.2662   -5.8894    0.7255 H   0  0  0  0  0  0  0  0  0  0  0  0
   -2.4615   -4.8735   -1.2019 H   0  0  0  0  0  0  0  0  0  0  0  0
   -2.7119   -5.7911    0.3354 H   0  0  0  0  0  0  0  0  0  0  0  0
   -2.0205   -4.1274    0.3836 H   0  0  0  0  0  0  0  0  0  0  0  0
    0.6151   -3.5236    0.7824 H   0  0  0  0  0  0  0  0  0  0  0  0
    1.9518   -1.8498   -0.3439 H   0  0  0  0  0  0  0  0  0  0  0  0
    3.0193   -0.2042   -5.3709 H   0  0  0  0  0  0  0  0  0  0  0  0
    4.3775   -0.7766   -7.3081 H   0  0  0  0  0  0  0  0  0  0  0  0
    5.8241   -4.1193   -7.9673 H   0  0  0  0  0  0  0  0  0  0  0  0
    5.5207   -2.4803   -8.6414 H   0  0  0  0  0  0  0  0  0  0  0  0
    7.9386   -2.8151   -8.2804 H   0  0  0  0  0  0  0  0  0  0  0  0
    7.6669   -3.2252   -6.5442 H   0  0  0  0  0  0  0  0  0  0  0  0
    7.3369   -1.5500   -7.1382 H   0  0  0  0  0  0  0  0  0  0  0  0
    5.3722   -4.5640   -5.5231 H   0  0  0  0  0  0  0  0  0  0  0  0
    4.0460   -3.9916   -3.5548 H   0  0  0  0  0  0  0  0  0  0  0  0
   -4.3550    3.2341   -1.7127 H   0  0  0  0  0  0  0  0  0  0  0  0
   -7.0060    0.4509    0.5958 H   0  0  0  0  0  0  0  0  0  0  0  0
  -10.1589    0.9754    1.9744 H   0  0  0  0  0  0  0  0  0  0  0  0
  -10.2757    2.7745    2.1309 H   0  0  0  0  0  0  0  0  0  0  0  0
  -11.7941    1.5831    3.7179 H   0  0  0  0  0  0  0  0  0  0  0  0
  -10.3693    0.7928    4.4937 H   0  0  0  0  0  0  0  0  0  0  0  0
  -10.5634    2.5917    4.5712 H   0  0  0  0  0  0  0  0  0  0  0  0
   -8.9629    4.9985    2.0585 H   0  0  0  0  0  0  0  0  0  0  0  0
   -3.1995    6.9152    0.4920 H   0  0  0  0  0  0  0  0  0  0  0  0
   -1.5858    8.7715    0.2209 H   0  0  0  0  0  0  0  0  0  0  0  0
   -0.9952   11.1437    0.5410 H   0  0  0  0  0  0  0  0  0  0  0  0
   -4.7403   11.8674    2.5051 H   0  0  0  0  0  0  0  0  0  0  0  0
   -6.3562   10.0445    2.7516 H   0  0  0  0  0  0  0  0  0  0  0  0
  1  2  2  3
  2  3  1  0
  3  4  2  0
  3  5  1  0
  5  6  2  0
  6  7  1  0
  7  8  2  0
  8  9  1  0
  9 10  1  0
  9 11  2  0
 11 12  1  0
  6 13  1  0
 13 14  2  3
 14 15  1  0
 15 16  3  0
 14 17  1  0
 17 18  3  0
  1 19  1  0
 19 20  2  0
 20 21  1  0
 21 22  1  0
 22 23  1  0
 23 24  1  0
 21 25  2  0
 25 26  1  0
 25 27  1  0
 27 28  2  0
 28 29  1  0
 29 30  1  0
 30 31  1  0
 31 32  1  0
 32 33  2  0
 33 34  1  0
 34 35  1  0
 35 36  1  0
 36 37  2  0
 37 38  1  0
 38 39  2  0
 39 40  1  0
 40 41  1  0
 39 42  1  0
 42 43  2  0
 35 44  1  0
 44 45  2  0
 45 46  1  0
 46 47  2  0
 47 48  1  0
 48 49  1  0
 47 50  1  0
 50 51  2  0
 35 52  1  0
 52 53  2  0
 53 54  1  0
 54 55  1  0
 55 56  2  0
 56 57  1  0
 57 58  1  0
 58 59  2  0
 59 60  1  0
 60 61  2  0
 61 62  1  0
 62 63  1  0
 61 64  1  0
 64 65  2  0
 57 66  1  0
 66 67  2  0
 67 68  1  0
 68 69  2  0
 69 70  1  0
 70 71  1  0
 69 72  1  0
 72 73  2  0
 57 74  1  0
 74 75  1  0
 75 76  1  0
 53 77  1  0
 77 78  1  0
 78 79  1  0
 79 80  1  0
 80 81  2  0
 81 82  1  0
 80 83  1  0
 83 84  2  0
 84 85  1  0
 85 86  1  0
 86 87  1  0
 87 88  1  0
 85 89  2  0
 89 90  1  0
 89 91  1  0
 91 92  2  3
 92 93  1  0
 93 94  2  0
 93 95  1  0
 95 96  2  0
 96 97  1  0
 97 98  2  0
 98 99  1  0
 99100  2  0
100101  1  0
100102  1  0
102103  2  0
103104  1  0
104105  2  0
105106  1  0
106107  2  3
107108  1  0
108109  3  0
107110  1  0
110111  3  0
 13  2  1  0
 26 19  1  0
 76 27  1  0
 82 78  2  0
 90 83  1  0
106 92  1  0
 11  5  1  0
 75 29  2  0
105 95  1  0
 74 31  2  0
103 97  1  0
 56 32  1  0
 65 58  1  0
 73 66  1  0
 54 34  2  0
 43 36  1  0
 51 44  1  0
 82 52  1  0
  1112  1  0
  7113  1  0
  8114  1  0
 20115  1  0
 23116  1  0
 23117  1  0
 24118  1  0
 24119  1  0
 24120  1  0
 28121  1  0
 33122  1  0
 37123  1  0
 38124  1  0
 40125  1  0
 40126  1  0
 41127  1  0
 41128  1  0
 41129  1  0
 42130  1  0
 43131  1  0
 45132  1  0
 46133  1  0
 48134  1  0
 48135  1  0
 49136  1  0
 49137  1  0
 49138  1  0
 50139  1  0
 51140  1  0
 55141  1  0
 59142  1  0
 60143  1  0
 62144  1  0
 62145  1  0
 63146  1  0
 63147  1  0
 63148  1  0
 64149  1  0
 65150  1  0
 67151  1  0
 68152  1  0
 70153  1  0
 70154  1  0
 71155  1  0
 71156  1  0
 71157  1  0
 72158  1  0
 73159  1  0
 81160  1  0
 84161  1  0
 87162  1  0
 87163  1  0
 88164  1  0
 88165  1  0
 88166  1  0
 91167  1  0
 96168  1  0
 98169  1  0
 99170  1  0
102171  1  0
104172  1  0
M  END

