
     RDKit          3D

155171  0  0  0  0  0  0  0  0999 V2000
    8.3950   -2.0287   -6.2693 C   0  0  0  0  0  0  0  0  0  0  0  0
    8.9580   -3.2198   -5.9640 C   0  0  0  0  0  0  0  0  0  0  0  0
    8.3249   -4.5403   -6.0948 C   0  0  0  0  0  0  0  0  0  0  0  0
    7.3653   -4.8277   -6.8579 O   0  0  0  0  0  0  0  0  0  0  0  0
    9.0873   -5.4984   -5.3155 C   0  0  0  0  0  0  0  0  0  0  0  0
   10.2192   -4.8732   -4.8147 C   0  0  0  0  0  0  0  0  0  0  0  0
   11.0676   -5.5715   -3.9430 C   0  0  0  0  0  0  0  0  0  0  0  0
   10.7855   -6.9098   -3.6381 C   0  0  0  0  0  0  0  0  0  0  0  0
    9.6551   -7.5449   -4.1752 C   0  0  0  0  0  0  0  0  0  0  0  0
    9.3198   -9.3682   -3.6921 Br  0  0  0  0  0  0  0  0  0  0  0  0
    8.7806   -6.8328   -5.0145 C   0  0  0  0  0  0  0  0  0  0  0  0
    7.3089   -7.5755   -5.6179 Cl  0  0  0  0  0  0  0  0  0  0  0  0
   10.2715   -3.4573   -5.2820 C   0  0  0  0  0  0  0  0  0  0  0  0
   11.3586   -2.6377   -5.2653 C   0  0  0  0  0  0  0  0  0  0  0  0
   12.6282   -3.0440   -4.7238 C   0  0  0  0  0  0  0  0  0  0  0  0
   13.6560   -3.3616   -4.3013 N   0  0  0  0  0  0  0  0  0  0  0  0
   11.3742   -1.3460   -5.8989 C   0  0  0  0  0  0  0  0  0  0  0  0
   11.3907   -0.3032   -6.3999 N   0  0  0  0  0  0  0  0  0  0  0  0
    6.9988   -1.8425   -6.7094 C   0  0  0  0  0  0  0  0  0  0  0  0
    6.5621   -0.8090   -7.5301 C   0  0  0  0  0  0  0  0  0  0  0  0
    5.1662   -0.7280   -7.6293 C   0  0  0  0  0  0  0  0  0  0  0  0
    4.3331    0.4670   -8.6829 S   0  0  0  0  0  0  0  0  0  0  0  0
    4.2194    1.7735   -7.4090 C   0  0  0  0  0  0  0  0  0  0  0  0
    5.4324    2.6914   -7.4693 C   0  0  0  0  0  0  0  0  0  0  0  0
    4.5040   -1.6958   -6.8838 C   0  0  0  0  0  0  0  0  0  0  0  0
    5.6463   -2.6067   -6.0613 S   0  0  0  0  0  0  0  0  0  0  0  0
    3.0562   -1.8718   -6.7176 C   0  0  0  0  0  0  0  0  0  0  0  0
    2.4003   -3.1222   -6.7090 C   0  0  0  0  0  0  0  0  0  0  0  0
    2.9936   -4.3698   -7.2458 C   0  0  0  0  0  0  0  0  0  0  0  0
    3.6643   -4.3412   -8.4815 C   0  0  0  0  0  0  0  0  0  0  0  0
    4.2737   -5.4935   -8.9831 C   0  0  0  0  0  0  0  0  0  0  0  0
    4.2131   -6.6884   -8.2649 C   0  0  0  0  0  0  0  0  0  0  0  0
    3.5477   -6.7362   -7.0302 C   0  0  0  0  0  0  0  0  0  0  0  0
    3.4344   -8.0390   -6.2859 C   0  0  0  0  0  0  0  0  0  0  0  0
    2.2459   -8.8456   -6.8012 C   0  0  0  0  0  0  0  0  0  0  0  0
    2.9384   -5.5757   -6.5269 C   0  0  0  0  0  0  0  0  0  0  0  0
    1.1391   -3.0131   -6.1083 C   0  0  0  0  0  0  0  0  0  0  0  0
    0.0455   -4.1618   -5.4721 S   0  0  0  0  0  0  0  0  0  0  0  0
   -0.8225   -2.9429   -4.6718 C   0  0  0  0  0  0  0  0  0  0  0  0
   -1.7130   -2.8304   -3.6486 C   0  0  0  0  0  0  0  0  0  0  0  0
   -2.4552   -3.8123   -2.9936 C   0  0  0  0  0  0  0  0  0  0  0  0
   -3.2417   -3.4332   -1.8753 C   0  0  0  0  0  0  0  0  0  0  0  0
   -3.9383   -4.4148   -1.2522 N   0  0  0  0  0  0  0  0  0  0  0  0
   -3.5046   -5.7062   -2.1942 S   0  0  0  0  0  0  0  0  0  0  0  0
   -2.4747   -5.1221   -3.3515 N   0  0  0  0  0  0  0  0  0  0  0  0
   -3.2148   -2.1008   -1.4559 C   0  0  0  0  0  0  0  0  0  0  0  0
   -3.6970   -1.5439   -0.3126 C   0  0  0  0  0  0  0  0  0  0  0  0
   -4.4452   -2.0633    1.1212 S   0  0  0  0  0  0  0  0  0  0  0  0
   -4.1851   -0.5344    1.8272 C   0  0  0  0  0  0  0  0  0  0  0  0
   -4.4979    0.0045    3.0720 C   0  0  0  0  0  0  0  0  0  0  0  0
   -5.0565   -0.7914    4.1723 C   0  0  0  0  0  0  0  0  0  0  0  0
   -6.3626   -1.2915    4.0973 C   0  0  0  0  0  0  0  0  0  0  0  0
   -6.8513   -2.1231    5.1073 C   0  0  0  0  0  0  0  0  0  0  0  0
   -6.0252   -2.5025    6.1671 C   0  0  0  0  0  0  0  0  0  0  0  0
   -4.6990   -2.0458    6.2305 C   0  0  0  0  0  0  0  0  0  0  0  0
   -3.7876   -2.5039    7.3392 C   0  0  0  0  0  0  0  0  0  0  0  0
   -3.6926   -1.4536    8.4433 C   0  0  0  0  0  0  0  0  0  0  0  0
   -4.2263   -1.1671    5.2419 C   0  0  0  0  0  0  0  0  0  0  0  0
   -4.0893    1.3474    3.1716 C   0  0  0  0  0  0  0  0  0  0  0  0
   -3.3111    1.8053    1.7219 S   0  0  0  0  0  0  0  0  0  0  0  0
   -3.5151    0.3103    0.9820 C   0  0  0  0  0  0  0  0  0  0  0  0
   -3.2281   -0.2801   -0.2454 C   0  0  0  0  0  0  0  0  0  0  0  0
   -2.4289    0.0422   -1.2936 N   0  0  0  0  0  0  0  0  0  0  0  0
   -2.4407   -1.0973   -2.0829 C   0  0  0  0  0  0  0  0  0  0  0  0
   -1.6952   -1.4721   -3.2540 C   0  0  0  0  0  0  0  0  0  0  0  0
   -0.8517   -0.7612   -4.0848 N   0  0  0  0  0  0  0  0  0  0  0  0
   -0.3167   -1.7123   -4.8857 C   0  0  0  0  0  0  0  0  0  0  0  0
    0.8038   -1.7409   -5.6998 C   0  0  0  0  0  0  0  0  0  0  0  0
    2.0707   -0.6884   -5.9895 S   0  0  0  0  0  0  0  0  0  0  0  0
   -0.8309    0.6632   -4.4408 C   0  0  0  0  0  0  0  0  0  0  0  0
   -2.2352    1.1782   -4.7584 C   0  0  0  0  0  0  0  0  0  0  0  0
   -1.5480    1.2149   -1.3011 C   0  0  0  0  0  0  0  0  0  0  0  0
   -0.1018    0.8169   -1.0086 C   0  0  0  0  0  0  0  0  0  0  0  0
   -4.6231    2.3356    4.1315 C   0  0  0  0  0  0  0  0  0  0  0  0
   -6.0172    2.4920    4.2368 C   0  0  0  0  0  0  0  0  0  0  0  0
   -6.8556    1.6865    3.5365 F   0  0  0  0  0  0  0  0  0  0  0  0
   -6.5643    3.5413    4.9770 C   0  0  0  0  0  0  0  0  0  0  0  0
   -7.9110    3.6971    5.0078 F   0  0  0  0  0  0  0  0  0  0  0  0
   -5.7362    4.4594    5.6323 C   0  0  0  0  0  0  0  0  0  0  0  0
   -4.3396    4.3052    5.5502 C   0  0  0  0  0  0  0  0  0  0  0  0
   -3.5085    5.2005    6.1411 N   0  0  0  0  0  0  0  0  0  0  0  0
   -2.1547    5.0963    6.0581 C   0  0  0  0  0  0  0  0  0  0  0  0
   -1.3335    6.0566    6.6626 O   0  0  0  0  0  0  0  0  0  0  0  0
   -1.8382    7.1160    7.4783 C   0  0  0  0  0  0  0  0  0  0  0  0
   -2.1261    6.6120    8.8879 C   0  0  0  0  0  0  0  0  0  0  0  0
   -1.5957    4.0266    5.3407 C   0  0  0  0  0  0  0  0  0  0  0  0
   -2.4220    3.1402    4.7227 N   0  0  0  0  0  0  0  0  0  0  0  0
   -3.7787    3.2450    4.8025 C   0  0  0  0  0  0  0  0  0  0  0  0
   -0.1130    3.8803    5.1957 C   0  0  0  0  0  0  0  0  0  0  0  0
   -6.3449    5.6723    6.2099 C   0  0  0  0  0  0  0  0  0  0  0  0
   -6.3483    5.9688    7.5212 C   0  0  0  0  0  0  0  0  0  0  0  0
   -5.6610    5.2127    8.5740 C   0  0  0  0  0  0  0  0  0  0  0  0
   -5.2097    4.0407    8.4686 O   0  0  0  0  0  0  0  0  0  0  0  0
   -5.6029    6.0373    9.7704 C   0  0  0  0  0  0  0  0  0  0  0  0
   -6.2722    7.2281    9.5288 C   0  0  0  0  0  0  0  0  0  0  0  0
   -6.2144    8.2656   10.4719 C   0  0  0  0  0  0  0  0  0  0  0  0
   -5.5300    8.0543   11.6758 C   0  0  0  0  0  0  0  0  0  0  0  0
   -4.8765    6.8380   11.9278 C   0  0  0  0  0  0  0  0  0  0  0  0
   -3.9251    6.6358   13.5744 Br  0  0  0  0  0  0  0  0  0  0  0  0
   -4.9061    5.8082   10.9663 C   0  0  0  0  0  0  0  0  0  0  0  0
   -4.0529    4.2909   11.2349 Cl  0  0  0  0  0  0  0  0  0  0  0  0
   -6.8782    7.2072    8.1663 C   0  0  0  0  0  0  0  0  0  0  0  0
   -7.8668    8.0227    7.7042 C   0  0  0  0  0  0  0  0  0  0  0  0
   -8.5113    7.8301    6.4292 C   0  0  0  0  0  0  0  0  0  0  0  0
   -9.0181    7.6903    5.4004 N   0  0  0  0  0  0  0  0  0  0  0  0
   -8.4276    9.0864    8.4967 C   0  0  0  0  0  0  0  0  0  0  0  0
   -8.8892    9.9455    9.1204 N   0  0  0  0  0  0  0  0  0  0  0  0
    8.9318   -1.1146   -6.1093 H   0  0  0  0  0  0  0  0  0  0  0  0
   11.9089   -5.1068   -3.4657 H   0  0  0  0  0  0  0  0  0  0  0  0
   11.4422   -7.4507   -2.9672 H   0  0  0  0  0  0  0  0  0  0  0  0
    7.2317   -0.1219   -8.0326 H   0  0  0  0  0  0  0  0  0  0  0  0
    4.1264    1.3424   -6.3917 H   0  0  0  0  0  0  0  0  0  0  0  0
    3.3070    2.3725   -7.6143 H   0  0  0  0  0  0  0  0  0  0  0  0
    6.3524    2.1332   -7.1899 H   0  0  0  0  0  0  0  0  0  0  0  0
    5.2935    3.5305   -6.7594 H   0  0  0  0  0  0  0  0  0  0  0  0
    5.5523    3.1038   -8.4941 H   0  0  0  0  0  0  0  0  0  0  0  0
    3.7140   -3.4264   -9.0596 H   0  0  0  0  0  0  0  0  0  0  0  0
    4.7914   -5.4568   -9.9329 H   0  0  0  0  0  0  0  0  0  0  0  0
    4.6814   -7.5722   -8.6724 H   0  0  0  0  0  0  0  0  0  0  0  0
    4.3650   -8.6341   -6.4117 H   0  0  0  0  0  0  0  0  0  0  0  0
    3.3057   -7.8547   -5.1974 H   0  0  0  0  0  0  0  0  0  0  0  0
    1.3028   -8.2718   -6.6819 H   0  0  0  0  0  0  0  0  0  0  0  0
    2.3859   -9.0929   -7.8751 H   0  0  0  0  0  0  0  0  0  0  0  0
    2.1611   -9.7942   -6.2288 H   0  0  0  0  0  0  0  0  0  0  0  0
    2.4511   -5.6081   -5.5600 H   0  0  0  0  0  0  0  0  0  0  0  0
   -6.9995   -1.0373    3.2594 H   0  0  0  0  0  0  0  0  0  0  0  0
   -7.8673   -2.4910    5.0553 H   0  0  0  0  0  0  0  0  0  0  0  0
   -6.4126   -3.1616    6.9315 H   0  0  0  0  0  0  0  0  0  0  0  0
   -2.7734   -2.7082    6.9388 H   0  0  0  0  0  0  0  0  0  0  0  0
   -4.1616   -3.4534    7.7766 H   0  0  0  0  0  0  0  0  0  0  0  0
   -3.0175   -1.8209    9.2448 H   0  0  0  0  0  0  0  0  0  0  0  0
   -4.6970   -1.2681    8.8788 H   0  0  0  0  0  0  0  0  0  0  0  0
   -3.2820   -0.5054    8.0401 H   0  0  0  0  0  0  0  0  0  0  0  0
   -3.2039   -0.8096    5.2767 H   0  0  0  0  0  0  0  0  0  0  0  0
   -0.2247    0.8158   -5.3587 H   0  0  0  0  0  0  0  0  0  0  0  0
   -0.2906    1.2501   -3.6842 H   0  0  0  0  0  0  0  0  0  0  0  0
   -2.6429    0.6355   -5.6366 H   0  0  0  0  0  0  0  0  0  0  0  0
   -2.1816    2.2616   -4.9955 H   0  0  0  0  0  0  0  0  0  0  0  0
   -2.9180    1.0368   -3.9006 H   0  0  0  0  0  0  0  0  0  0  0  0
   -1.6670    1.8024   -2.2171 H   0  0  0  0  0  0  0  0  0  0  0  0
   -1.8508    1.9336   -0.5232 H   0  0  0  0  0  0  0  0  0  0  0  0
    0.2339   -0.0103   -1.6621 H   0  0  0  0  0  0  0  0  0  0  0  0
    0.5607    1.6948   -1.1703 H   0  0  0  0  0  0  0  0  0  0  0  0
   -0.0095    0.4953    0.0504 H   0  0  0  0  0  0  0  0  0  0  0  0
   -1.0728    7.9232    7.5355 H   0  0  0  0  0  0  0  0  0  0  0  0
   -2.7554    7.5526    7.0304 H   0  0  0  0  0  0  0  0  0  0  0  0
   -2.6744    5.6512    8.8455 H   0  0  0  0  0  0  0  0  0  0  0  0
   -1.1730    6.4532    9.4351 H   0  0  0  0  0  0  0  0  0  0  0  0
   -2.7401    7.3557    9.4362 H   0  0  0  0  0  0  0  0  0  0  0  0
    0.1404    2.8384    4.9109 H   0  0  0  0  0  0  0  0  0  0  0  0
    0.3954    4.1160    6.1541 H   0  0  0  0  0  0  0  0  0  0  0  0
    0.2509    4.5741    4.4063 H   0  0  0  0  0  0  0  0  0  0  0  0
   -6.7823    6.3378    5.4896 H   0  0  0  0  0  0  0  0  0  0  0  0
   -6.6411    9.2366   10.2853 H   0  0  0  0  0  0  0  0  0  0  0  0
   -5.4781    8.8572   12.3996 H   0  0  0  0  0  0  0  0  0  0  0  0
  1  2  2  3
  2  3  1  0
  3  4  2  0
  3  5  1  0
  5  6  2  0
  6  7  1  0
  7  8  2  0
  8  9  1  0
  9 10  1  0
  9 11  2  0
 11 12  1  0
  6 13  1  0
 13 14  2  3
 14 15  1  0
 15 16  3  0
 14 17  1  0
 17 18  3  0
  1 19  1  0
 19 20  2  0
 20 21  1  0
 21 22  1  0
 22 23  1  0
 23 24  1  0
 21 25  2  0
 25 26  1  0
 25 27  1  0
 27 28  2  0
 28 29  1  0
 29 30  2  0
 30 31  1  0
 31 32  2  0
 32 33  1  0
 33 34  1  0
 34 35  1  0
 33 36  2  0
 28 37  1  0
 37 38  1  0
 38 39  1  0
 39 40  1  0
 40 41  1  0
 41 42  1  0
 42 43  2  0
 43 44  1  0
 44 45  1  0
 42 46  1  0
 46 47  1  0
 47 48  1  0
 48 49  1  0
 49 50  1  0
 50 51  1  0
 51 52  2  0
 52 53  1  0
 53 54  2  0
 54 55  1  0
 55 56  1  0
 56 57  1  0
 55 58  2  0
 50 59  2  0
 59 60  1  0
 60 61  1  0
 61 62  1  0
 62 63  1  0
 63 64  1  0
 64 65  1  0
 65 66  1  0
 66 67  1  0
 67 68  1  0
 68 69  1  0
 66 70  1  0
 70 71  1  0
 63 72  1  0
 72 73  1  0
 59 74  1  0
 74 75  2  0
 75 76  1  0
 75 77  1  0
 77 78  1  0
 77 79  2  0
 79 80  1  0
 80 81  2  0
 81 82  1  0
 82 83  1  0
 83 84  1  0
 84 85  1  0
 82 86  2  0
 86 87  1  0
 87 88  2  0
 86 89  1  0
 79 90  1  0
 90 91  2  3
 91 92  1  0
 92 93  2  0
 92 94  1  0
 94 95  2  0
 95 96  1  0
 96 97  2  0
 97 98  1  0
 98 99  1  0
 98100  2  0
100101  1  0
 95102  1  0
102103  2  3
103104  1  0
104105  3  0
103106  1  0
106107  3  0
 13  2  1  0
 26 19  1  0
 69 27  1  0
 88 74  1  0
102 91  1  0
 11  5  1  0
 36 29  1  0
 68 37  2  0
 88 80  1  0
100 94  1  0
 67 39  2  0
 65 40  2  0
 45 41  2  0
 64 46  2  0
 62 47  2  0
 61 49  2  0
 58 51  1  0
  1108  1  0
  7109  1  0
  8110  1  0
 20111  1  0
 23112  1  0
 23113  1  0
 24114  1  0
 24115  1  0
 24116  1  0
 30117  1  0
 31118  1  0
 32119  1  0
 34120  1  0
 34121  1  0
 35122  1  0
 35123  1  0
 35124  1  0
 36125  1  0
 52126  1  0
 53127  1  0
 54128  1  0
 56129  1  0
 56130  1  0
 57131  1  0
 57132  1  0
 57133  1  0
 58134  1  0
 70135  1  0
 70136  1  0
 71137  1  0
 71138  1  0
 71139  1  0
 72140  1  0
 72141  1  0
 73142  1  0
 73143  1  0
 73144  1  0
 84145  1  0
 84146  1  0
 85147  1  0
 85148  1  0
 85149  1  0
 89150  1  0
 89151  1  0
 89152  1  0
 90153  1  0
 96154  1  0
 97155  1  0
M  END

