
     RDKit          3D

145160  0  0  0  0  0  0  0  0999 V2000
   -4.4943    9.4809    2.1323 C   0  0  0  0  0  0  0  0  0  0  0  0
   -5.5650    9.5274    2.9468 C   0  0  0  0  0  0  0  0  0  0  0  0
   -6.7498    8.6565    2.8603 C   0  0  0  0  0  0  0  0  0  0  0  0
   -7.0472    7.8994    1.8939 O   0  0  0  0  0  0  0  0  0  0  0  0
   -7.6452    8.9744    3.9576 C   0  0  0  0  0  0  0  0  0  0  0  0
   -7.1445   10.0754    4.6306 C   0  0  0  0  0  0  0  0  0  0  0  0
   -7.6961   10.4530    5.8676 C   0  0  0  0  0  0  0  0  0  0  0  0
   -8.8001    9.7456    6.3618 C   0  0  0  0  0  0  0  0  0  0  0  0
   -9.3202    8.6469    5.6555 C   0  0  0  0  0  0  0  0  0  0  0  0
  -10.7934    7.6910    6.4190 Br  0  0  0  0  0  0  0  0  0  0  0  0
   -8.7437    8.2490    4.4369 C   0  0  0  0  0  0  0  0  0  0  0  0
   -9.3176    6.8134    3.5839 Cl  0  0  0  0  0  0  0  0  0  0  0  0
   -5.8622   10.5130    4.0261 C   0  0  0  0  0  0  0  0  0  0  0  0
   -5.1590   11.6099    4.3879 C   0  0  0  0  0  0  0  0  0  0  0  0
   -3.7710   11.7963    4.0629 C   0  0  0  0  0  0  0  0  0  0  0  0
   -2.6507   11.9628    3.8310 N   0  0  0  0  0  0  0  0  0  0  0  0
   -5.8319   12.7650    4.9063 C   0  0  0  0  0  0  0  0  0  0  0  0
   -6.3920   13.7152    5.2521 N   0  0  0  0  0  0  0  0  0  0  0  0
   -4.1650    8.2970    1.3295 C   0  0  0  0  0  0  0  0  0  0  0  0
   -3.4885    8.2977    0.1092 C   0  0  0  0  0  0  0  0  0  0  0  0
   -3.2518    7.0070   -0.3835 C   0  0  0  0  0  0  0  0  0  0  0  0
   -2.5167    6.6896   -1.9892 S   0  0  0  0  0  0  0  0  0  0  0  0
   -0.7888    6.5778   -1.3806 C   0  0  0  0  0  0  0  0  0  0  0  0
   -0.1649    7.9559   -1.2281 C   0  0  0  0  0  0  0  0  0  0  0  0
   -3.7237    6.0108    0.4654 C   0  0  0  0  0  0  0  0  0  0  0  0
   -4.3851    6.7092    1.8304 S   0  0  0  0  0  0  0  0  0  0  0  0
   -3.6606    4.5626    0.3005 C   0  0  0  0  0  0  0  0  0  0  0  0
   -4.7637    3.7125    0.5268 C   0  0  0  0  0  0  0  0  0  0  0  0
   -6.1635    4.0909    0.2488 C   0  0  0  0  0  0  0  0  0  0  0  0
   -7.2039    3.7572    1.1300 C   0  0  0  0  0  0  0  0  0  0  0  0
   -8.5239    4.0968    0.8127 C   0  0  0  0  0  0  0  0  0  0  0  0
   -8.8144    4.7628   -0.3854 C   0  0  0  0  0  0  0  0  0  0  0  0
   -7.7828    5.1104   -1.2694 C   0  0  0  0  0  0  0  0  0  0  0  0
   -8.0795    5.7684   -2.5886 C   0  0  0  0  0  0  0  0  0  0  0  0
   -8.1654    4.7294   -3.7004 C   0  0  0  0  0  0  0  0  0  0  0  0
   -6.4614    4.7796   -0.9422 C   0  0  0  0  0  0  0  0  0  0  0  0
   -4.3472    2.4361    0.8853 C   0  0  0  0  0  0  0  0  0  0  0  0
   -5.1352    0.9729    1.2881 S   0  0  0  0  0  0  0  0  0  0  0  0
   -3.6365    0.2003    1.5147 C   0  0  0  0  0  0  0  0  0  0  0  0
   -3.1363   -1.0742    1.5796 C   0  0  0  0  0  0  0  0  0  0  0  0
   -3.7607   -2.3281    1.6397 C   0  0  0  0  0  0  0  0  0  0  0  0
   -2.9572   -3.5019    1.4835 C   0  0  0  0  0  0  0  0  0  0  0  0
   -3.5963   -4.6975    1.5219 N   0  0  0  0  0  0  0  0  0  0  0  0
   -5.1510   -4.1709    1.7405 S   0  0  0  0  0  0  0  0  0  0  0  0
   -5.0967   -2.5141    1.7902 N   0  0  0  0  0  0  0  0  0  0  0  0
   -1.5755   -3.3528    1.3369 C   0  0  0  0  0  0  0  0  0  0  0  0
   -0.5587   -4.2477    1.1873 C   0  0  0  0  0  0  0  0  0  0  0  0
   -0.3356   -5.8936    0.8472 S   0  0  0  0  0  0  0  0  0  0  0  0
    1.3388   -5.6341    0.6235 C   0  0  0  0  0  0  0  0  0  0  0  0
    2.3253   -6.4000    0.0178 C   0  0  0  0  0  0  0  0  0  0  0  0
    2.1330   -7.7920   -0.4176 C   0  0  0  0  0  0  0  0  0  0  0  0
    1.8399   -8.7890    0.5290 C   0  0  0  0  0  0  0  0  0  0  0  0
    1.5570  -10.0932    0.1023 C   0  0  0  0  0  0  0  0  0  0  0  0
    1.5438  -10.4009   -1.2662 C   0  0  0  0  0  0  0  0  0  0  0  0
    1.8297   -9.4068   -2.2176 C   0  0  0  0  0  0  0  0  0  0  0  0
    1.7300   -9.7079   -3.6847 C   0  0  0  0  0  0  0  0  0  0  0  0
    0.4081   -9.2008   -4.2556 C   0  0  0  0  0  0  0  0  0  0  0  0
    2.1420   -8.1053   -1.7884 C   0  0  0  0  0  0  0  0  0  0  0  0
    3.4414   -5.6094   -0.2870 C   0  0  0  0  0  0  0  0  0  0  0  0
    3.1989   -4.0057    0.2077 S   0  0  0  0  0  0  0  0  0  0  0  0
    1.6816   -4.3159    0.8175 C   0  0  0  0  0  0  0  0  0  0  0  0
    0.5918   -3.5338    1.1248 C   0  0  0  0  0  0  0  0  0  0  0  0
    0.4051   -2.1938    1.2116 N   0  0  0  0  0  0  0  0  0  0  0  0
   -0.9593   -2.0961    1.2936 C   0  0  0  0  0  0  0  0  0  0  0  0
   -1.7635   -0.9369    1.3317 C   0  0  0  0  0  0  0  0  0  0  0  0
   -1.4385    0.3448    0.9839 N   0  0  0  0  0  0  0  0  0  0  0  0
   -2.5943    1.0122    1.2155 C   0  0  0  0  0  0  0  0  0  0  0  0
   -2.9914    2.2852    0.8818 C   0  0  0  0  0  0  0  0  0  0  0  0
   -2.2088    3.7066    0.4991 S   0  0  0  0  0  0  0  0  0  0  0  0
   -0.5313    0.7212   -0.1138 C   0  0  0  0  0  0  0  0  0  0  0  0
   -1.2471    0.6559   -1.4705 C   0  0  0  0  0  0  0  0  0  0  0  0
    1.3855   -1.2502    1.7805 C   0  0  0  0  0  0  0  0  0  0  0  0
    2.4936   -0.8843    0.7844 C   0  0  0  0  0  0  0  0  0  0  0  0
    4.6884   -6.0384   -0.9086 C   0  0  0  0  0  0  0  0  0  0  0  0
    5.2258   -5.4147   -2.0290 C   0  0  0  0  0  0  0  0  0  0  0  0
    6.6250   -5.4903   -2.1195 C   0  0  0  0  0  0  0  0  0  0  0  0
    7.5390   -4.4893   -3.2913 S   0  0  0  0  0  0  0  0  0  0  0  0
    7.2496   -2.9424   -2.3603 C   0  0  0  0  0  0  0  0  0  0  0  0
    7.7795   -1.7444   -3.1461 C   0  0  0  0  0  0  0  0  0  0  0  0
    7.2581   -6.2927   -1.1064 C   0  0  0  0  0  0  0  0  0  0  0  0
    5.9480   -6.6605   -0.0015 S   0  0  0  0  0  0  0  0  0  0  0  0
    8.7288   -6.1291   -0.6937 C   0  0  0  0  0  0  0  0  0  0  0  0
    9.9131   -6.6793   -1.0197 C   0  0  0  0  0  0  0  0  0  0  0  0
   11.1416   -6.1256   -0.4566 C   0  0  0  0  0  0  0  0  0  0  0  0
   11.2125   -5.0781    0.2382 O   0  0  0  0  0  0  0  0  0  0  0  0
   12.2431   -7.0032   -0.7814 C   0  0  0  0  0  0  0  0  0  0  0  0
   11.7683   -8.0501   -1.5687 C   0  0  0  0  0  0  0  0  0  0  0  0
   12.6296   -9.1249   -1.8850 C   0  0  0  0  0  0  0  0  0  0  0  0
   13.9589   -9.0958   -1.4427 C   0  0  0  0  0  0  0  0  0  0  0  0
   14.4234   -8.0312   -0.6460 C   0  0  0  0  0  0  0  0  0  0  0  0
   16.2224   -8.1014    0.0055 Br  0  0  0  0  0  0  0  0  0  0  0  0
   13.5613   -6.9679   -0.3156 C   0  0  0  0  0  0  0  0  0  0  0  0
   14.1268   -5.6570    0.7025 Cl  0  0  0  0  0  0  0  0  0  0  0  0
   10.2980   -7.9023   -1.8079 C   0  0  0  0  0  0  0  0  0  0  0  0
    9.5442   -8.6691   -2.6533 C   0  0  0  0  0  0  0  0  0  0  0  0
   10.1413   -9.5660   -3.6097 C   0  0  0  0  0  0  0  0  0  0  0  0
   10.6108  -10.2785   -4.3889 N   0  0  0  0  0  0  0  0  0  0  0  0
    8.1065   -8.6869   -2.6885 C   0  0  0  0  0  0  0  0  0  0  0  0
    6.9519   -8.7516   -2.7249 N   0  0  0  0  0  0  0  0  0  0  0  0
   -3.7937   10.2983    2.0826 H   0  0  0  0  0  0  0  0  0  0  0  0
   -7.2548   11.2399    6.4647 H   0  0  0  0  0  0  0  0  0  0  0  0
   -9.2429   10.0245    7.3191 H   0  0  0  0  0  0  0  0  0  0  0  0
   -3.2024    9.2012   -0.4146 H   0  0  0  0  0  0  0  0  0  0  0  0
   -0.7399    6.0340   -0.4087 H   0  0  0  0  0  0  0  0  0  0  0  0
   -0.2026    6.0055   -2.1257 H   0  0  0  0  0  0  0  0  0  0  0  0
   -0.6589    8.5181   -0.4077 H   0  0  0  0  0  0  0  0  0  0  0  0
    0.9131    7.8540   -0.9838 H   0  0  0  0  0  0  0  0  0  0  0  0
   -0.2665    8.5313   -2.1777 H   0  0  0  0  0  0  0  0  0  0  0  0
   -6.9887    3.2396    2.0553 H   0  0  0  0  0  0  0  0  0  0  0  0
   -9.3237    3.8311    1.4933 H   0  0  0  0  0  0  0  0  0  0  0  0
   -9.8447    4.9946   -0.6228 H   0  0  0  0  0  0  0  0  0  0  0  0
   -9.0377    6.3313   -2.5424 H   0  0  0  0  0  0  0  0  0  0  0  0
   -7.2826    6.4925   -2.8293 H   0  0  0  0  0  0  0  0  0  0  0  0
   -9.0928    4.1212   -3.5948 H   0  0  0  0  0  0  0  0  0  0  0  0
   -7.2822    4.0438   -3.6645 H   0  0  0  0  0  0  0  0  0  0  0  0
   -8.1634    5.2367   -4.6972 H   0  0  0  0  0  0  0  0  0  0  0  0
   -5.6689    5.0278   -1.6399 H   0  0  0  0  0  0  0  0  0  0  0  0
    1.8211   -8.5592    1.5840 H   0  0  0  0  0  0  0  0  0  0  0  0
    1.3242  -10.8595    0.8280 H   0  0  0  0  0  0  0  0  0  0  0  0
    1.2919  -11.4027   -1.5730 H   0  0  0  0  0  0  0  0  0  0  0  0
    1.8050  -10.8050   -3.8666 H   0  0  0  0  0  0  0  0  0  0  0  0
    2.5738   -9.2239   -4.2221 H   0  0  0  0  0  0  0  0  0  0  0  0
    0.3594   -9.4238   -5.3361 H   0  0  0  0  0  0  0  0  0  0  0  0
   -0.4459   -9.6963   -3.7410 H   0  0  0  0  0  0  0  0  0  0  0  0
    0.3237   -8.1000   -4.1186 H   0  0  0  0  0  0  0  0  0  0  0  0
    2.3321   -7.3329   -2.5151 H   0  0  0  0  0  0  0  0  0  0  0  0
    0.3111    0.0296   -0.1851 H   0  0  0  0  0  0  0  0  0  0  0  0
   -0.1385    1.7392    0.0540 H   0  0  0  0  0  0  0  0  0  0  0  0
   -1.7239   -0.3393   -1.5964 H   0  0  0  0  0  0  0  0  0  0  0  0
   -0.5062    0.7999   -2.2891 H   0  0  0  0  0  0  0  0  0  0  0  0
   -2.0223    1.4474   -1.5559 H   0  0  0  0  0  0  0  0  0  0  0  0
    0.8748   -0.3283    2.1181 H   0  0  0  0  0  0  0  0  0  0  0  0
    1.8447   -1.7089    2.6857 H   0  0  0  0  0  0  0  0  0  0  0  0
    2.6181    0.2190    0.7379 H   0  0  0  0  0  0  0  0  0  0  0  0
    2.2553   -1.2530   -0.2400 H   0  0  0  0  0  0  0  0  0  0  0  0
    3.4614   -1.3125    1.1094 H   0  0  0  0  0  0  0  0  0  0  0  0
    4.6444   -4.7864   -2.6886 H   0  0  0  0  0  0  0  0  0  0  0  0
    6.1607   -2.8004   -2.1967 H   0  0  0  0  0  0  0  0  0  0  0  0
    7.7634   -2.9944   -1.3771 H   0  0  0  0  0  0  0  0  0  0  0  0
    7.2527   -1.6685   -4.1207 H   0  0  0  0  0  0  0  0  0  0  0  0
    8.8686   -1.8473   -3.3031 H   0  0  0  0  0  0  0  0  0  0  0  0
    7.5832   -0.8177   -2.5690 H   0  0  0  0  0  0  0  0  0  0  0  0
    8.0290   -6.8224   -0.9995 H   0  0  0  0  0  0  0  0  0  0  0  0
   12.2921   -9.9997   -2.4239 H   0  0  0  0  0  0  0  0  0  0  0  0
   14.6048   -9.9282   -1.6786 H   0  0  0  0  0  0  0  0  0  0  0  0
  1  2  2  3
  2  3  1  0
  3  4  2  0
  3  5  1  0
  5  6  2  0
  6  7  1  0
  7  8  2  0
  8  9  1  0
  9 10  1  0
  9 11  2  0
 11 12  1  0
  6 13  1  0
 13 14  2  3
 14 15  1  0
 15 16  3  0
 14 17  1  0
 17 18  3  0
  1 19  1  0
 19 20  2  0
 20 21  1  0
 21 22  1  0
 22 23  1  0
 23 24  1  0
 21 25  2  0
 25 26  1  0
 25 27  1  0
 27 28  2  0
 28 29  1  0
 29 30  2  0
 30 31  1  0
 31 32  2  0
 32 33  1  0
 33 34  1  0
 34 35  1  0
 33 36  2  0
 28 37  1  0
 37 38  1  0
 38 39  1  0
 39 40  1  0
 40 41  1  0
 41 42  1  0
 42 43  2  0
 43 44  1  0
 44 45  1  0
 42 46  1  0
 46 47  1  0
 47 48  1  0
 48 49  1  0
 49 50  1  0
 50 51  1  0
 51 52  2  0
 52 53  1  0
 53 54  2  0
 54 55  1  0
 55 56  1  0
 56 57  1  0
 55 58  2  0
 50 59  2  0
 59 60  1  0
 60 61  1  0
 61 62  1  0
 62 63  1  0
 63 64  1  0
 64 65  1  0
 65 66  1  0
 66 67  1  0
 67 68  1  0
 68 69  1  0
 66 70  1  0
 70 71  1  0
 63 72  1  0
 72 73  1  0
 59 74  1  0
 74 75  2  0
 75 76  1  0
 76 77  1  0
 77 78  1  0
 78 79  1  0
 76 80  2  0
 80 81  1  0
 80 82  1  0
 82 83  2  3
 83 84  1  0
 84 85  2  0
 84 86  1  0
 86 87  2  0
 87 88  1  0
 88 89  2  0
 89 90  1  0
 90 91  1  0
 90 92  2  0
 92 93  1  0
 87 94  1  0
 94 95  2  3
 95 96  1  0
 96 97  3  0
 95 98  1  0
 98 99  3  0
 13  2  1  0
 26 19  1  0
 69 27  1  0
 81 74  1  0
 94 83  1  0
 11  5  1  0
 36 29  1  0
 68 37  2  0
 92 86  1  0
 67 39  2  0
 65 40  2  0
 45 41  2  0
 64 46  2  0
 62 47  2  0
 61 49  2  0
 58 51  1  0
  1100  1  0
  7101  1  0
  8102  1  0
 20103  1  0
 23104  1  0
 23105  1  0
 24106  1  0
 24107  1  0
 24108  1  0
 30109  1  0
 31110  1  0
 32111  1  0
 34112  1  0
 34113  1  0
 35114  1  0
 35115  1  0
 35116  1  0
 36117  1  0
 52118  1  0
 53119  1  0
 54120  1  0
 56121  1  0
 56122  1  0
 57123  1  0
 57124  1  0
 57125  1  0
 58126  1  0
 70127  1  0
 70128  1  0
 71129  1  0
 71130  1  0
 71131  1  0
 72132  1  0
 72133  1  0
 73134  1  0
 73135  1  0
 73136  1  0
 75137  1  0
 78138  1  0
 78139  1  0
 79140  1  0
 79141  1  0
 79142  1  0
 82143  1  0
 88144  1  0
 89145  1  0
M  END

