
     RDKit          3D

207231  0  0  0  0  0  0  0  0999 V2000
   -7.0332   -2.7386  -10.0717 C   0  0  0  0  0  0  0  0  0  0  0  0
   -8.1795   -2.0348   -9.9633 C   0  0  0  0  0  0  0  0  0  0  0  0
   -8.3408   -0.5763  -10.0487 C   0  0  0  0  0  0  0  0  0  0  0  0
   -7.8738    0.1613  -10.9575 O   0  0  0  0  0  0  0  0  0  0  0  0
   -9.3307   -0.1637   -9.0678 C   0  0  0  0  0  0  0  0  0  0  0  0
   -9.8898   -1.2940   -8.4979 C   0  0  0  0  0  0  0  0  0  0  0  0
  -10.7528   -1.1776   -7.4035 C   0  0  0  0  0  0  0  0  0  0  0  0
  -11.0916    0.1058   -6.9414 C   0  0  0  0  0  0  0  0  0  0  0  0
  -10.5642    1.2536   -7.5623 C   0  0  0  0  0  0  0  0  0  0  0  0
  -11.0773    2.9716   -6.8869 Br  0  0  0  0  0  0  0  0  0  0  0  0
   -9.6626    1.1274   -8.6361 C   0  0  0  0  0  0  0  0  0  0  0  0
   -8.9263    2.5446   -9.3796 Cl  0  0  0  0  0  0  0  0  0  0  0  0
   -9.3362   -2.5085   -9.1548 C   0  0  0  0  0  0  0  0  0  0  0  0
   -9.9022   -3.7386   -9.2063 C   0  0  0  0  0  0  0  0  0  0  0  0
   -9.4170   -4.7548  -10.1044 C   0  0  0  0  0  0  0  0  0  0  0  0
   -9.0340   -5.5730  -10.8309 N   0  0  0  0  0  0  0  0  0  0  0  0
  -11.0988   -4.0672   -8.4774 C   0  0  0  0  0  0  0  0  0  0  0  0
  -12.0647   -4.3399   -7.8997 N   0  0  0  0  0  0  0  0  0  0  0  0
   -5.6611   -2.1818  -10.0990 C   0  0  0  0  0  0  0  0  0  0  0  0
   -4.5544   -2.9119   -9.6622 C   0  0  0  0  0  0  0  0  0  0  0  0
   -3.4074   -2.1260   -9.4529 C   0  0  0  0  0  0  0  0  0  0  0  0
   -2.2022   -2.5438   -8.8599 C   0  0  0  0  0  0  0  0  0  0  0  0
   -1.9098   -3.9648   -8.6134 C   0  0  0  0  0  0  0  0  0  0  0  0
   -2.6615   -4.9427   -7.4690 S   0  0  0  0  0  0  0  0  0  0  0  0
   -1.9072   -6.3745   -7.9375 C   0  0  0  0  0  0  0  0  0  0  0  0
   -2.2300   -7.7288   -7.3832 C   0  0  0  0  0  0  0  0  0  0  0  0
   -3.3734   -8.3663   -8.1695 C   0  0  0  0  0  0  0  0  0  0  0  0
   -1.0733   -6.1029   -9.0227 C   0  0  0  0  0  0  0  0  0  0  0  0
   -0.1975   -7.3447   -9.9065 Cl  0  0  0  0  0  0  0  0  0  0  0  0
   -1.0664   -4.7498   -9.3925 C   0  0  0  0  0  0  0  0  0  0  0  0
   -0.1399   -4.1155  -10.7499 Cl  0  0  0  0  0  0  0  0  0  0  0  0
   -1.2570   -1.5428   -8.5723 C   0  0  0  0  0  0  0  0  0  0  0  0
   -1.4445   -0.2016   -8.9311 C   0  0  0  0  0  0  0  0  0  0  0  0
   -2.6183    0.2000   -9.5996 C   0  0  0  0  0  0  0  0  0  0  0  0
   -2.8651    1.6005   -9.9978 C   0  0  0  0  0  0  0  0  0  0  0  0
   -2.9181    2.9066   -8.9402 S   0  0  0  0  0  0  0  0  0  0  0  0
   -3.2659    4.0757  -10.0981 C   0  0  0  0  0  0  0  0  0  0  0  0
   -3.5240    5.5207   -9.7973 C   0  0  0  0  0  0  0  0  0  0  0  0
   -5.0155    5.7760   -9.6077 C   0  0  0  0  0  0  0  0  0  0  0  0
   -3.3806    3.4473  -11.3407 C   0  0  0  0  0  0  0  0  0  0  0  0
   -3.1443    2.0631  -11.2833 C   0  0  0  0  0  0  0  0  0  0  0  0
   -3.1797    1.0272  -12.7075 Cl  0  0  0  0  0  0  0  0  0  0  0  0
   -3.7982    4.3035  -12.8180 Cl  0  0  0  0  0  0  0  0  0  0  0  0
   -3.5990   -0.7876   -9.7994 C   0  0  0  0  0  0  0  0  0  0  0  0
   -5.1886   -0.5699  -10.2899 S   0  0  0  0  0  0  0  0  0  0  0  0
   -0.3980    0.6319   -8.5079 C   0  0  0  0  0  0  0  0  0  0  0  0
    0.5586   -0.0310   -7.7412 C   0  0  0  0  0  0  0  0  0  0  0  0
    0.1688   -1.6799   -7.6834 S   0  0  0  0  0  0  0  0  0  0  0  0
    1.6859    0.6049   -7.0170 C   0  0  0  0  0  0  0  0  0  0  0  0
    1.8023    1.9717   -6.6570 C   0  0  0  0  0  0  0  0  0  0  0  0
    0.6827    2.9406   -6.5995 C   0  0  0  0  0  0  0  0  0  0  0  0
    0.8546    4.2566   -7.0586 C   0  0  0  0  0  0  0  0  0  0  0  0
   -0.1773    5.1886   -6.9183 C   0  0  0  0  0  0  0  0  0  0  0  0
   -1.3855    4.8211   -6.3244 C   0  0  0  0  0  0  0  0  0  0  0  0
   -1.5814    3.5037   -5.8853 C   0  0  0  0  0  0  0  0  0  0  0  0
   -2.8954    3.0924   -5.2635 C   0  0  0  0  0  0  0  0  0  0  0  0
   -2.8808    3.3333   -3.7577 C   0  0  0  0  0  0  0  0  0  0  0  0
   -0.5370    2.5744   -6.0007 C   0  0  0  0  0  0  0  0  0  0  0  0
    3.0274    2.2169   -6.0298 C   0  0  0  0  0  0  0  0  0  0  0  0
    3.6468    3.5753   -5.1953 S   0  0  0  0  0  0  0  0  0  0  0  0
    4.9227    2.6456   -4.5801 C   0  0  0  0  0  0  0  0  0  0  0  0
    5.8331    2.7274   -3.5655 C   0  0  0  0  0  0  0  0  0  0  0  0
    6.3590    3.8117   -2.8592 C   0  0  0  0  0  0  0  0  0  0  0  0
    7.2926    3.5510   -1.8129 C   0  0  0  0  0  0  0  0  0  0  0  0
    7.7731    4.6277   -1.1481 N   0  0  0  0  0  0  0  0  0  0  0  0
    6.9967    5.8413   -1.9610 S   0  0  0  0  0  0  0  0  0  0  0  0
    6.0565    5.1090   -3.1108 N   0  0  0  0  0  0  0  0  0  0  0  0
    7.5769    2.2194   -1.4628 C   0  0  0  0  0  0  0  0  0  0  0  0
    7.9934    1.7417   -0.2488 C   0  0  0  0  0  0  0  0  0  0  0  0
    8.2039    2.5137    1.2465 S   0  0  0  0  0  0  0  0  0  0  0  0
    7.6682    1.1515    2.1068 C   0  0  0  0  0  0  0  0  0  0  0  0
    7.1839    1.0362    3.4101 C   0  0  0  0  0  0  0  0  0  0  0  0
    7.2307    2.1431    4.3725 C   0  0  0  0  0  0  0  0  0  0  0  0
    8.2319    2.1829    5.3508 C   0  0  0  0  0  0  0  0  0  0  0  0
    8.2544    3.2200    6.2858 C   0  0  0  0  0  0  0  0  0  0  0  0
    7.2875    4.2315    6.2360 C   0  0  0  0  0  0  0  0  0  0  0  0
    6.2879    4.2064    5.2484 C   0  0  0  0  0  0  0  0  0  0  0  0
    5.2876    5.3244    5.1539 C   0  0  0  0  0  0  0  0  0  0  0  0
    5.8081    6.4490    4.2622 C   0  0  0  0  0  0  0  0  0  0  0  0
    6.2686    3.1612    4.3140 C   0  0  0  0  0  0  0  0  0  0  0  0
    6.3699   -0.1019    3.5453 C   0  0  0  0  0  0  0  0  0  0  0  0
    6.2933   -0.9182    2.0568 S   0  0  0  0  0  0  0  0  0  0  0  0
    7.2828    0.1541    1.2398 C   0  0  0  0  0  0  0  0  0  0  0  0
    7.4621    0.4859   -0.1091 C   0  0  0  0  0  0  0  0  0  0  0  0
    6.7599    0.1041   -1.2144 N   0  0  0  0  0  0  0  0  0  0  0  0
    6.9272    1.1466   -2.0944 C   0  0  0  0  0  0  0  0  0  0  0  0
    6.1836    1.4008   -3.2781 C   0  0  0  0  0  0  0  0  0  0  0  0
    5.6266    0.5338   -4.1921 N   0  0  0  0  0  0  0  0  0  0  0  0
    4.8412    1.3434   -4.9401 C   0  0  0  0  0  0  0  0  0  0  0  0
    3.7898    1.0978   -5.8035 C   0  0  0  0  0  0  0  0  0  0  0  0
    3.0307   -0.2605   -6.4136 S   0  0  0  0  0  0  0  0  0  0  0  0
    6.0498   -0.8136   -4.6256 C   0  0  0  0  0  0  0  0  0  0  0  0
    7.4747   -1.1694   -4.2039 C   0  0  0  0  0  0  0  0  0  0  0  0
    5.5931   -0.7907   -1.1721 C   0  0  0  0  0  0  0  0  0  0  0  0
    4.3457   -0.0431   -0.6977 C   0  0  0  0  0  0  0  0  0  0  0  0
    5.4476   -0.3848    4.6589 C   0  0  0  0  0  0  0  0  0  0  0  0
    5.6447   -0.0908    6.0089 C   0  0  0  0  0  0  0  0  0  0  0  0
    4.5533   -0.4641    6.8115 C   0  0  0  0  0  0  0  0  0  0  0  0
    4.4547   -0.3094    8.2088 C   0  0  0  0  0  0  0  0  0  0  0  0
    5.4760    0.4090    8.9846 C   0  0  0  0  0  0  0  0  0  0  0  0
    5.8258    2.0472    8.7972 S   0  0  0  0  0  0  0  0  0  0  0  0
    6.9966    2.1115   10.0023 C   0  0  0  0  0  0  0  0  0  0  0  0
    7.7539    3.3487   10.3837 C   0  0  0  0  0  0  0  0  0  0  0  0
    7.1781    3.9739   11.6535 C   0  0  0  0  0  0  0  0  0  0  0  0
    7.1199    0.8483   10.5765 C   0  0  0  0  0  0  0  0  0  0  0  0
    8.2402    0.4873   11.8827 Cl  0  0  0  0  0  0  0  0  0  0  0  0
    6.2710   -0.1074   10.0017 C   0  0  0  0  0  0  0  0  0  0  0  0
    6.2652   -1.8040   10.4831 Cl  0  0  0  0  0  0  0  0  0  0  0  0
    3.3073   -0.8353    8.8282 C   0  0  0  0  0  0  0  0  0  0  0  0
    2.2766   -1.4415    8.1047 C   0  0  0  0  0  0  0  0  0  0  0  0
    2.3335   -1.5175    6.6979 C   0  0  0  0  0  0  0  0  0  0  0  0
    1.1677   -1.9438    5.8982 C   0  0  0  0  0  0  0  0  0  0  0  0
    1.1515   -3.2154    4.7959 S   0  0  0  0  0  0  0  0  0  0  0  0
   -0.4417   -2.9920    4.2919 C   0  0  0  0  0  0  0  0  0  0  0  0
   -1.1517   -3.8551    3.2931 C   0  0  0  0  0  0  0  0  0  0  0  0
   -1.7392   -5.0816    3.9818 C   0  0  0  0  0  0  0  0  0  0  0  0
   -0.9882   -1.9228    4.9979 C   0  0  0  0  0  0  0  0  0  0  0  0
   -0.0817   -1.3223    5.8815 C   0  0  0  0  0  0  0  0  0  0  0  0
   -0.4573    0.1164    6.8179 Cl  0  0  0  0  0  0  0  0  0  0  0  0
   -2.6399   -1.3588    4.7906 Cl  0  0  0  0  0  0  0  0  0  0  0  0
    3.5142   -1.0588    6.0905 C   0  0  0  0  0  0  0  0  0  0  0  0
    3.9314   -1.1031    4.4641 S   0  0  0  0  0  0  0  0  0  0  0  0
    1.2708   -1.9776    8.9225 C   0  0  0  0  0  0  0  0  0  0  0  0
    1.4835   -1.7455   10.2812 C   0  0  0  0  0  0  0  0  0  0  0  0
    2.9394   -0.9158   10.4721 S   0  0  0  0  0  0  0  0  0  0  0  0
    0.7628   -2.3858   11.3915 C   0  0  0  0  0  0  0  0  0  0  0  0
   -0.5243   -2.7882   11.3367 C   0  0  0  0  0  0  0  0  0  0  0  0
   -1.5567   -2.2308   10.4527 C   0  0  0  0  0  0  0  0  0  0  0  0
   -1.4122   -1.2771    9.6399 O   0  0  0  0  0  0  0  0  0  0  0  0
   -2.8274   -2.8096   10.8193 C   0  0  0  0  0  0  0  0  0  0  0  0
   -4.0476   -2.6296   10.1758 C   0  0  0  0  0  0  0  0  0  0  0  0
   -5.1594   -3.3580   10.6303 C   0  0  0  0  0  0  0  0  0  0  0  0
   -6.3913   -3.2504    9.9746 C   0  0  0  0  0  0  0  0  0  0  0  0
   -7.4828   -4.0071   10.4103 C   0  0  0  0  0  0  0  0  0  0  0  0
   -7.3604   -4.8535   11.5168 C   0  0  0  0  0  0  0  0  0  0  0  0
   -8.4216   -5.5875   11.9280 F   0  0  0  0  0  0  0  0  0  0  0  0
   -6.1406   -4.9587   12.1892 C   0  0  0  0  0  0  0  0  0  0  0  0
   -5.0285   -4.2239   11.7507 C   0  0  0  0  0  0  0  0  0  0  0  0
   -3.7834   -4.3643   12.3929 C   0  0  0  0  0  0  0  0  0  0  0  0
   -2.6722   -3.6526   11.9082 C   0  0  0  0  0  0  0  0  0  0  0  0
   -1.2246   -3.7188   12.2813 C   0  0  0  0  0  0  0  0  0  0  0  0
   -0.6445   -4.5893   13.1499 C   0  0  0  0  0  0  0  0  0  0  0  0
   -1.3978   -5.4012   14.0720 C   0  0  0  0  0  0  0  0  0  0  0  0
   -1.9894   -6.0530   14.8239 N   0  0  0  0  0  0  0  0  0  0  0  0
    0.7728   -4.8509   13.1540 C   0  0  0  0  0  0  0  0  0  0  0  0
    1.9052   -5.0818   13.1496 N   0  0  0  0  0  0  0  0  0  0  0  0
   -7.0674   -3.7949   -9.8355 H   0  0  0  0  0  0  0  0  0  0  0  0
  -11.1232   -2.0395   -6.8754 H   0  0  0  0  0  0  0  0  0  0  0  0
  -11.7506    0.2062   -6.0884 H   0  0  0  0  0  0  0  0  0  0  0  0
   -4.6128   -3.9618   -9.4082 H   0  0  0  0  0  0  0  0  0  0  0  0
   -2.5244   -7.6376   -6.3167 H   0  0  0  0  0  0  0  0  0  0  0  0
   -1.3343   -8.3808   -7.4413 H   0  0  0  0  0  0  0  0  0  0  0  0
   -4.3175   -7.8136   -7.9878 H   0  0  0  0  0  0  0  0  0  0  0  0
   -3.5138   -9.4210   -7.8423 H   0  0  0  0  0  0  0  0  0  0  0  0
   -3.1568   -8.3640   -9.2594 H   0  0  0  0  0  0  0  0  0  0  0  0
   -2.9825    5.8096   -8.8691 H   0  0  0  0  0  0  0  0  0  0  0  0
   -3.1386    6.1527  -10.6267 H   0  0  0  0  0  0  0  0  0  0  0  0
   -5.1859    6.8507   -9.3918 H   0  0  0  0  0  0  0  0  0  0  0  0
   -5.5667    5.5114  -10.5367 H   0  0  0  0  0  0  0  0  0  0  0  0
   -5.4045    5.1764   -8.7561 H   0  0  0  0  0  0  0  0  0  0  0  0
   -0.3609    1.6906   -8.7154 H   0  0  0  0  0  0  0  0  0  0  0  0
    1.7856    4.5634   -7.5175 H   0  0  0  0  0  0  0  0  0  0  0  0
   -0.0347    6.2053   -7.2643 H   0  0  0  0  0  0  0  0  0  0  0  0
   -2.1744    5.5566   -6.2103 H   0  0  0  0  0  0  0  0  0  0  0  0
   -3.7301    3.6658   -5.7217 H   0  0  0  0  0  0  0  0  0  0  0  0
   -3.0935    2.0175   -5.4610 H   0  0  0  0  0  0  0  0  0  0  0  0
   -2.0580    2.7628   -3.2774 H   0  0  0  0  0  0  0  0  0  0  0  0
   -2.7534    4.4150   -3.5456 H   0  0  0  0  0  0  0  0  0  0  0  0
   -3.8467    3.0024   -3.3170 H   0  0  0  0  0  0  0  0  0  0  0  0
   -0.6688    1.5681   -5.6212 H   0  0  0  0  0  0  0  0  0  0  0  0
    8.9807    1.4045    5.4055 H   0  0  0  0  0  0  0  0  0  0  0  0
    9.0205    3.2493    7.0488 H   0  0  0  0  0  0  0  0  0  0  0  0
    7.3230    5.0382    6.9601 H   0  0  0  0  0  0  0  0  0  0  0  0
    4.3213    4.9467    4.7457 H   0  0  0  0  0  0  0  0  0  0  0  0
    5.0787    5.7342    6.1682 H   0  0  0  0  0  0  0  0  0  0  0  0
    5.9576    6.0818    3.2252 H   0  0  0  0  0  0  0  0  0  0  0  0
    6.7690    6.8437    4.6545 H   0  0  0  0  0  0  0  0  0  0  0  0
    5.0655    7.2763    4.2446 H   0  0  0  0  0  0  0  0  0  0  0  0
    5.5078    3.1327    3.5458 H   0  0  0  0  0  0  0  0  0  0  0  0
    5.3221   -1.5794   -4.2897 H   0  0  0  0  0  0  0  0  0  0  0  0
    6.0383   -0.8470   -5.7359 H   0  0  0  0  0  0  0  0  0  0  0  0
    7.8145   -2.0628   -4.7695 H   0  0  0  0  0  0  0  0  0  0  0  0
    8.1645   -0.3281   -4.4223 H   0  0  0  0  0  0  0  0  0  0  0  0
    7.5307   -1.4359   -3.1305 H   0  0  0  0  0  0  0  0  0  0  0  0
    5.3855   -1.2239   -2.1543 H   0  0  0  0  0  0  0  0  0  0  0  0
    5.7942   -1.6568   -0.5153 H   0  0  0  0  0  0  0  0  0  0  0  0
    4.5356    0.4982    0.2539 H   0  0  0  0  0  0  0  0  0  0  0  0
    3.5171   -0.7636   -0.5438 H   0  0  0  0  0  0  0  0  0  0  0  0
    4.0212    0.6951   -1.4644 H   0  0  0  0  0  0  0  0  0  0  0  0
    6.5531    0.3439    6.4000 H   0  0  0  0  0  0  0  0  0  0  0  0
    8.8211    3.0914   10.5463 H   0  0  0  0  0  0  0  0  0  0  0  0
    7.7029    4.0853    9.5523 H   0  0  0  0  0  0  0  0  0  0  0  0
    7.7075    4.9321   11.8640 H   0  0  0  0  0  0  0  0  0  0  0  0
    7.3330    3.2977   12.5183 H   0  0  0  0  0  0  0  0  0  0  0  0
    6.0948    4.1828   11.5355 H   0  0  0  0  0  0  0  0  0  0  0  0
   -0.4357   -4.1711    2.5092 H   0  0  0  0  0  0  0  0  0  0  0  0
   -1.9663   -3.2877    2.8021 H   0  0  0  0  0  0  0  0  0  0  0  0
   -2.2214   -5.7365    3.2221 H   0  0  0  0  0  0  0  0  0  0  0  0
   -2.5006   -4.7779    4.7304 H   0  0  0  0  0  0  0  0  0  0  0  0
   -0.9307   -5.6579    4.4764 H   0  0  0  0  0  0  0  0  0  0  0  0
    0.4581   -2.5796    8.5376 H   0  0  0  0  0  0  0  0  0  0  0  0
    1.3580   -2.5860   12.2674 H   0  0  0  0  0  0  0  0  0  0  0  0
   -4.1240   -1.9660    9.3206 H   0  0  0  0  0  0  0  0  0  0  0  0
   -6.4967   -2.6018    9.1143 H   0  0  0  0  0  0  0  0  0  0  0  0
   -8.4240   -3.9338    9.8822 H   0  0  0  0  0  0  0  0  0  0  0  0
   -6.0631   -5.6216   13.0447 H   0  0  0  0  0  0  0  0  0  0  0  0
   -3.7094   -5.0349   13.2293 H   0  0  0  0  0  0  0  0  0  0  0  0
  1  2  2  3
  2  3  1  0
  3  4  2  0
  3  5  1  0
  5  6  2  0
  6  7  1  0
  7  8  2  0
  8  9  1  0
  9 10  1  0
  9 11  2  0
 11 12  1  0
  6 13  1  0
 13 14  2  3
 14 15  1  0
 15 16  3  0
 14 17  1  0
 17 18  3  0
  1 19  1  0
 19 20  2  0
 20 21  1  0
 21 22  2  0
 22 23  1  0
 23 24  1  0
 24 25  1  0
 25 26  1  0
 26 27  1  0
 25 28  2  0
 28 29  1  0
 28 30  1  0
 30 31  1  0
 22 32  1  0
 32 33  2  0
 33 34  1  0
 34 35  1  0
 35 36  1  0
 36 37  1  0
 37 38  1  0
 38 39  1  0
 37 40  2  0
 40 41  1  0
 41 42  1  0
 40 43  1  0
 34 44  2  0
 44 45  1  0
 33 46  1  0
 46 47  2  0
 47 48  1  0
 47 49  1  0
 49 50  2  0
 50 51  1  0
 51 52  2  0
 52 53  1  0
 53 54  2  0
 54 55  1  0
 55 56  1  0
 56 57  1  0
 55 58  2  0
 50 59  1  0
 59 60  1  0
 60 61  1  0
 61 62  1  0
 62 63  1  0
 63 64  1  0
 64 65  2  0
 65 66  1  0
 66 67  1  0
 64 68  1  0
 68 69  1  0
 69 70  1  0
 70 71  1  0
 71 72  1  0
 72 73  1  0
 73 74  2  0
 74 75  1  0
 75 76  2  0
 76 77  1  0
 77 78  1  0
 78 79  1  0
 77 80  2  0
 72 81  2  0
 81 82  1  0
 82 83  1  0
 83 84  1  0
 84 85  1  0
 85 86  1  0
 86 87  1  0
 87 88  1  0
 88 89  1  0
 89 90  1  0
 90 91  1  0
 88 92  1  0
 92 93  1  0
 85 94  1  0
 94 95  1  0
 81 96  1  0
 96 97  2  0
 97 98  1  0
 98 99  2  0
 99100  1  0
100101  1  0
101102  1  0
102103  1  0
103104  1  0
102105  2  0
105106  1  0
105107  1  0
107108  1  0
 99109  1  0
109110  2  0
110111  1  0
111112  1  0
112113  1  0
113114  1  0
114115  1  0
115116  1  0
114117  2  0
117118  1  0
118119  1  0
117120  1  0
111121  2  0
121122  1  0
110123  1  0
123124  2  0
124125  1  0
124126  1  0
126127  2  3
127128  1  0
128129  2  0
128130  1  0
130131  2  0
131132  1  0
132133  2  0
133134  1  0
134135  2  0
135136  1  0
135137  1  0
137138  2  0
138139  1  0
139140  2  0
140141  1  0
141142  2  3
142143  1  0
143144  3  0
142145  1  0
145146  3  0
 13  2  1  0
 45 19  1  0
 91 49  1  0
122 96  1  0
141127  1  0
 11  5  1  0
 44 21  1  0
 58 51  1  0
 90 59  2  0
121 98  1  0
140130  1  0
 30 23  2  0
 48 32  1  0
 89 61  2  0
107100  2  0
125109  1  0
138132  1  0
 41 35  2  0
 87 62  2  0
118112  2  0
 67 63  2  0
 86 68  2  0
 84 69  2  0
 83 71  2  0
 80 73  1  0
  1147  1  0
  7148  1  0
  8149  1  0
 20150  1  0
 26151  1  0
 26152  1  0
 27153  1  0
 27154  1  0
 27155  1  0
 38156  1  0
 38157  1  0
 39158  1  0
 39159  1  0
 39160  1  0
 46161  1  0
 52162  1  0
 53163  1  0
 54164  1  0
 56165  1  0
 56166  1  0
 57167  1  0
 57168  1  0
 57169  1  0
 58170  1  0
 74171  1  0
 75172  1  0
 76173  1  0
 78174  1  0
 78175  1  0
 79176  1  0
 79177  1  0
 79178  1  0
 80179  1  0
 92180  1  0
 92181  1  0
 93182  1  0
 93183  1  0
 93184  1  0
 94185  1  0
 94186  1  0
 95187  1  0
 95188  1  0
 95189  1  0
 97190  1  0
103191  1  0
103192  1  0
104193  1  0
104194  1  0
104195  1  0
115196  1  0
115197  1  0
116198  1  0
116199  1  0
116200  1  0
123201  1  0
126202  1  0
131203  1  0
133204  1  0
134205  1  0
137206  1  0
139207  1  0
M  END

