
     RDKit          3D

211232  0  0  0  0  0  0  0  0999 V2000
   -9.5300   -4.8309   -5.9379 C   0  0  0  0  0  0  0  0  0  0  0  0
  -10.3889   -3.8222   -5.7114 C   0  0  0  0  0  0  0  0  0  0  0  0
  -11.7233   -3.7740   -6.3088 C   0  0  0  0  0  0  0  0  0  0  0  0
  -12.0983   -4.4117   -7.3290 O   0  0  0  0  0  0  0  0  0  0  0  0
  -12.5643   -2.9406   -5.4609 C   0  0  0  0  0  0  0  0  0  0  0  0
  -13.9440   -2.7115   -5.5320 C   0  0  0  0  0  0  0  0  0  0  0  0
  -14.9267   -3.3553   -6.8374 Cl  0  0  0  0  0  0  0  0  0  0  0  0
  -14.5477   -1.9581   -4.5126 C   0  0  0  0  0  0  0  0  0  0  0  0
  -13.7810   -1.4754   -3.4381 C   0  0  0  0  0  0  0  0  0  0  0  0
  -14.6274   -0.5082   -2.0255 Br  0  0  0  0  0  0  0  0  0  0  0  0
  -12.3976   -1.7087   -3.3906 C   0  0  0  0  0  0  0  0  0  0  0  0
  -11.7915   -2.4240   -4.4319 C   0  0  0  0  0  0  0  0  0  0  0  0
  -10.3727   -2.8039   -4.6225 C   0  0  0  0  0  0  0  0  0  0  0  0
   -9.2981   -2.0635   -4.2446 C   0  0  0  0  0  0  0  0  0  0  0  0
   -9.4015   -0.9680   -3.3156 C   0  0  0  0  0  0  0  0  0  0  0  0
   -9.4703   -0.0838   -2.5732 N   0  0  0  0  0  0  0  0  0  0  0  0
   -8.0081   -2.2249   -4.8641 C   0  0  0  0  0  0  0  0  0  0  0  0
   -6.9677   -2.3416   -5.3589 N   0  0  0  0  0  0  0  0  0  0  0  0
   -8.4573   -5.2225   -5.0073 C   0  0  0  0  0  0  0  0  0  0  0  0
   -8.4895   -5.1560   -3.3095 S   0  0  0  0  0  0  0  0  0  0  0  0
   -6.8887   -5.6341   -3.0428 C   0  0  0  0  0  0  0  0  0  0  0  0
   -6.3193   -5.8436   -4.2951 C   0  0  0  0  0  0  0  0  0  0  0  0
   -4.9924   -6.0462   -4.6813 C   0  0  0  0  0  0  0  0  0  0  0  0
   -4.8556   -6.0360   -6.0780 C   0  0  0  0  0  0  0  0  0  0  0  0
   -3.5531   -6.0406   -6.8211 C   0  0  0  0  0  0  0  0  0  0  0  0
   -2.6354   -7.1730   -6.3678 C   0  0  0  0  0  0  0  0  0  0  0  0
   -6.3623   -5.7175   -6.8046 S   0  0  0  0  0  0  0  0  0  0  0  0
   -7.1849   -5.6461   -5.3459 C   0  0  0  0  0  0  0  0  0  0  0  0
   -6.1803   -5.5496   -1.7651 C   0  0  0  0  0  0  0  0  0  0  0  0
   -5.2568   -6.4938   -1.3059 C   0  0  0  0  0  0  0  0  0  0  0  0
   -4.6222   -6.0302   -0.1628 C   0  0  0  0  0  0  0  0  0  0  0  0
   -3.2532   -6.5649    0.6695 S   0  0  0  0  0  0  0  0  0  0  0  0
   -3.1996   -5.1473    1.6105 C   0  0  0  0  0  0  0  0  0  0  0  0
   -2.1221   -4.4572    2.2819 C   0  0  0  0  0  0  0  0  0  0  0  0
   -2.4622   -3.1072    2.3188 C   0  0  0  0  0  0  0  0  0  0  0  0
   -3.8272   -2.8283    1.6705 C   0  0  0  0  0  0  0  0  0  0  0  0
   -3.7069   -1.8496    0.4536 C   0  0  0  0  0  0  0  0  0  0  0  0
   -2.5048   -2.0733   -0.4518 C   0  0  0  0  0  0  0  0  0  0  0  0
   -2.4853   -3.1191   -1.3907 C   0  0  0  0  0  0  0  0  0  0  0  0
   -1.3693   -3.3264   -2.2025 C   0  0  0  0  0  0  0  0  0  0  0  0
   -0.2720   -2.4616   -2.1358 C   0  0  0  0  0  0  0  0  0  0  0  0
    0.9112   -2.6569   -3.0480 C   0  0  0  0  0  0  0  0  0  0  0  0
    2.0218   -3.4243   -2.3481 C   0  0  0  0  0  0  0  0  0  0  0  0
   -0.2855   -1.4072   -1.2101 C   0  0  0  0  0  0  0  0  0  0  0  0
   -1.3948   -1.2147   -0.3830 C   0  0  0  0  0  0  0  0  0  0  0  0
   -4.8321   -2.3168    2.7233 C   0  0  0  0  0  0  0  0  0  0  0  0
   -4.6179   -1.0783    3.3660 C   0  0  0  0  0  0  0  0  0  0  0  0
   -5.4715   -0.6382    4.3838 C   0  0  0  0  0  0  0  0  0  0  0  0
   -6.5803   -1.4047    4.7652 C   0  0  0  0  0  0  0  0  0  0  0  0
   -7.4491   -0.9648    5.9137 C   0  0  0  0  0  0  0  0  0  0  0  0
   -6.8528   -1.4296    7.2379 C   0  0  0  0  0  0  0  0  0  0  0  0
   -6.8232   -2.6207    4.1214 C   0  0  0  0  0  0  0  0  0  0  0  0
   -5.9678   -3.0697    3.1129 C   0  0  0  0  0  0  0  0  0  0  0  0
   -4.1495   -4.2421    1.2196 C   0  0  0  0  0  0  0  0  0  0  0  0
   -4.9881   -4.7787    0.2447 C   0  0  0  0  0  0  0  0  0  0  0  0
   -6.1642   -4.1568   -0.7803 S   0  0  0  0  0  0  0  0  0  0  0  0
   -1.4925   -2.1592    2.6515 C   0  0  0  0  0  0  0  0  0  0  0  0
   -0.1578   -2.5656    2.8320 C   0  0  0  0  0  0  0  0  0  0  0  0
    0.9224   -1.5750    2.7949 C   0  0  0  0  0  0  0  0  0  0  0  0
    2.2456   -1.9760    2.6197 C   0  0  0  0  0  0  0  0  0  0  0  0
    2.6963   -3.3499    3.1229 C   0  0  0  0  0  0  0  0  0  0  0  0
    1.5418   -4.3635    2.9311 C   0  0  0  0  0  0  0  0  0  0  0  0
    0.1858   -3.9417    2.8037 C   0  0  0  0  0  0  0  0  0  0  0  0
   -0.8291   -4.9091    2.5806 C   0  0  0  0  0  0  0  0  0  0  0  0
   -0.5172   -6.2748    2.6279 C   0  0  0  0  0  0  0  0  0  0  0  0
    0.7906   -6.6911    2.8507 C   0  0  0  0  0  0  0  0  0  0  0  0
    1.8113   -5.7494    2.9979 C   0  0  0  0  0  0  0  0  0  0  0  0
    3.9107   -3.8440    2.3105 C   0  0  0  0  0  0  0  0  0  0  0  0
    5.1052   -4.3095    2.9070 C   0  0  0  0  0  0  0  0  0  0  0  0
    6.1862   -4.7093    2.1138 C   0  0  0  0  0  0  0  0  0  0  0  0
    6.0873   -4.6945    0.7159 C   0  0  0  0  0  0  0  0  0  0  0  0
    7.2679   -5.0682   -0.1316 C   0  0  0  0  0  0  0  0  0  0  0  0
    7.4321   -6.5827   -0.2066 C   0  0  0  0  0  0  0  0  0  0  0  0
    4.8660   -4.3488    0.1204 C   0  0  0  0  0  0  0  0  0  0  0  0
    3.7908   -3.9433    0.9131 C   0  0  0  0  0  0  0  0  0  0  0  0
    2.9842   -3.1386    4.6302 C   0  0  0  0  0  0  0  0  0  0  0  0
    4.0205   -2.2636    5.0281 C   0  0  0  0  0  0  0  0  0  0  0  0
    4.1517   -1.8530    6.3590 C   0  0  0  0  0  0  0  0  0  0  0  0
    3.2473   -2.2984    7.3275 C   0  0  0  0  0  0  0  0  0  0  0  0
    3.2811   -1.7299    8.7214 C   0  0  0  0  0  0  0  0  0  0  0  0
    2.3741   -0.5056    8.8137 C   0  0  0  0  0  0  0  0  0  0  0  0
    2.2273   -3.1820    6.9600 C   0  0  0  0  0  0  0  0  0  0  0  0
    2.0960   -3.5951    5.6333 C   0  0  0  0  0  0  0  0  0  0  0  0
    3.0348   -0.8852    2.1926 C   0  0  0  0  0  0  0  0  0  0  0  0
    2.3600    0.3008    2.1002 C   0  0  0  0  0  0  0  0  0  0  0  0
    0.7465    0.0804    2.4706 S   0  0  0  0  0  0  0  0  0  0  0  0
    2.9299    1.2725    1.2964 C   0  0  0  0  0  0  0  0  0  0  0  0
    4.0773    0.8050    0.6448 C   0  0  0  0  0  0  0  0  0  0  0  0
    4.3653   -0.7943    1.1586 S   0  0  0  0  0  0  0  0  0  0  0  0
    4.3787    1.3331   -0.7060 C   0  0  0  0  0  0  0  0  0  0  0  0
    4.5005    2.7271   -0.8662 C   0  0  0  0  0  0  0  0  0  0  0  0
    5.0359    3.4928    0.1202 N   0  0  0  0  0  0  0  0  0  0  0  0
    4.9918    4.8496    0.0670 C   0  0  0  0  0  0  0  0  0  0  0  0
    5.7478    5.6355    1.0549 C   0  0  0  0  0  0  0  0  0  0  0  0
    7.0859    5.9689    0.7832 C   0  0  0  0  0  0  0  0  0  0  0  0
    7.8019    6.7830    1.6634 C   0  0  0  0  0  0  0  0  0  0  0  0
    7.1917    7.2648    2.8335 C   0  0  0  0  0  0  0  0  0  0  0  0
    7.8796    8.0885    3.7289 O   0  0  0  0  0  0  0  0  0  0  0  0
    8.4874    9.3207    3.3410 C   0  0  0  0  0  0  0  0  0  0  0  0
    9.2177    9.9184    4.5288 C   0  0  0  0  0  0  0  0  0  0  0  0
    5.8713    6.8970    3.1248 C   0  0  0  0  0  0  0  0  0  0  0  0
    5.1454    6.0946    2.2372 C   0  0  0  0  0  0  0  0  0  0  0  0
    3.8526    5.7742    2.5148 F   0  0  0  0  0  0  0  0  0  0  0  0
    5.2801    7.3424    4.2628 F   0  0  0  0  0  0  0  0  0  0  0  0
    9.0998    7.0641    1.3871 F   0  0  0  0  0  0  0  0  0  0  0  0
    7.6838    5.5259   -0.3541 F   0  0  0  0  0  0  0  0  0  0  0  0
    4.2815    5.4728   -0.9748 C   0  0  0  0  0  0  0  0  0  0  0  0
    3.8727    6.8833   -0.8643 C   0  0  0  0  0  0  0  0  0  0  0  0
    2.5921    7.1675   -0.3720 C   0  0  0  0  0  0  0  0  0  0  0  0
    1.6898    6.1685   -0.1855 F   0  0  0  0  0  0  0  0  0  0  0  0
    2.2606    8.4679    0.0198 C   0  0  0  0  0  0  0  0  0  0  0  0
    1.0143    8.7145    0.4919 F   0  0  0  0  0  0  0  0  0  0  0  0
    3.2113    9.4987   -0.0811 C   0  0  0  0  0  0  0  0  0  0  0  0
    2.9661   10.7753    0.4476 O   0  0  0  0  0  0  0  0  0  0  0  0
    2.5186   10.9686    1.7917 C   0  0  0  0  0  0  0  0  0  0  0  0
    2.4908   12.4541    2.1160 C   0  0  0  0  0  0  0  0  0  0  0  0
    4.4484    9.2362   -0.6833 C   0  0  0  0  0  0  0  0  0  0  0  0
    5.3537   10.2392   -0.8248 F   0  0  0  0  0  0  0  0  0  0  0  0
    4.7883    7.9313   -1.0667 C   0  0  0  0  0  0  0  0  0  0  0  0
    6.0210    7.6847   -1.5769 F   0  0  0  0  0  0  0  0  0  0  0  0
    3.7823    4.7069   -1.9773 N   0  0  0  0  0  0  0  0  0  0  0  0
    3.9403    3.3558   -1.9980 C   0  0  0  0  0  0  0  0  0  0  0  0
    3.4294    2.5789   -3.0563 C   0  0  0  0  0  0  0  0  0  0  0  0
    3.4948    1.1823   -2.9693 C   0  0  0  0  0  0  0  0  0  0  0  0
    3.9565    0.5668   -1.8045 C   0  0  0  0  0  0  0  0  0  0  0  0
    2.6226    3.1787   -4.1417 C   0  0  0  0  0  0  0  0  0  0  0  0
    3.0221    4.2071   -4.9165 C   0  0  0  0  0  0  0  0  0  0  0  0
    4.3449    4.8402   -4.8921 C   0  0  0  0  0  0  0  0  0  0  0  0
    5.4086    4.3300   -4.4473 O   0  0  0  0  0  0  0  0  0  0  0  0
    4.2290    6.1572   -5.4718 C   0  0  0  0  0  0  0  0  0  0  0  0
    5.1645    7.1865   -5.4738 C   0  0  0  0  0  0  0  0  0  0  0  0
    4.7724    8.4480   -5.9417 C   0  0  0  0  0  0  0  0  0  0  0  0
    5.9328    9.7648   -5.9392 Cl  0  0  0  0  0  0  0  0  0  0  0  0
    3.4520    8.6581   -6.3876 C   0  0  0  0  0  0  0  0  0  0  0  0
    3.0591    9.8890   -6.7981 F   0  0  0  0  0  0  0  0  0  0  0  0
    2.5252    7.6002   -6.3909 C   0  0  0  0  0  0  0  0  0  0  0  0
    2.9388    6.3319   -5.9518 C   0  0  0  0  0  0  0  0  0  0  0  0
    2.1566    5.0765   -5.7702 C   0  0  0  0  0  0  0  0  0  0  0  0
    1.0102    4.7361   -6.4133 C   0  0  0  0  0  0  0  0  0  0  0  0
    0.4056    3.4297   -6.2924 C   0  0  0  0  0  0  0  0  0  0  0  0
   -0.0955    2.3912   -6.1964 N   0  0  0  0  0  0  0  0  0  0  0  0
    0.3834    5.6025   -7.3798 C   0  0  0  0  0  0  0  0  0  0  0  0
   -0.1306    6.2836   -8.1607 N   0  0  0  0  0  0  0  0  0  0  0  0
   -9.6837   -5.4702   -6.7960 H   0  0  0  0  0  0  0  0  0  0  0  0
  -15.6132   -1.7654   -4.5433 H   0  0  0  0  0  0  0  0  0  0  0  0
  -11.8332   -1.3712   -2.5353 H   0  0  0  0  0  0  0  0  0  0  0  0
   -4.1649   -6.1348   -3.9848 H   0  0  0  0  0  0  0  0  0  0  0  0
   -3.0449   -5.0651   -6.6638 H   0  0  0  0  0  0  0  0  0  0  0  0
   -3.7533   -6.1541   -7.9064 H   0  0  0  0  0  0  0  0  0  0  0  0
   -3.1519   -8.1543   -6.4582 H   0  0  0  0  0  0  0  0  0  0  0  0
   -1.7242   -7.1879   -7.0045 H   0  0  0  0  0  0  0  0  0  0  0  0
   -2.3204   -7.0174   -5.3143 H   0  0  0  0  0  0  0  0  0  0  0  0
   -5.0136   -7.4202   -1.8065 H   0  0  0  0  0  0  0  0  0  0  0  0
   -4.6305   -1.8913   -0.1563 H   0  0  0  0  0  0  0  0  0  0  0  0
   -3.6602   -0.8004    0.8184 H   0  0  0  0  0  0  0  0  0  0  0  0
   -3.3349   -3.7657   -1.5103 H   0  0  0  0  0  0  0  0  0  0  0  0
   -1.3729   -4.1595   -2.8945 H   0  0  0  0  0  0  0  0  0  0  0  0
    1.2998   -1.6691   -3.3776 H   0  0  0  0  0  0  0  0  0  0  0  0
    0.6042   -3.2129   -3.9588 H   0  0  0  0  0  0  0  0  0  0  0  0
    2.4886   -2.7630   -1.5893 H   0  0  0  0  0  0  0  0  0  0  0  0
    1.6209   -4.3415   -1.8611 H   0  0  0  0  0  0  0  0  0  0  0  0
    2.8026   -3.7194   -3.0836 H   0  0  0  0  0  0  0  0  0  0  0  0
    0.5595   -0.7346   -1.1347 H   0  0  0  0  0  0  0  0  0  0  0  0
   -1.3875   -0.3856    0.3117 H   0  0  0  0  0  0  0  0  0  0  0  0
   -3.7897   -0.4393    3.0941 H   0  0  0  0  0  0  0  0  0  0  0  0
   -5.2573    0.2921    4.8917 H   0  0  0  0  0  0  0  0  0  0  0  0
   -7.5543    0.1406    5.9171 H   0  0  0  0  0  0  0  0  0  0  0  0
   -8.4694   -1.3955    5.8081 H   0  0  0  0  0  0  0  0  0  0  0  0
   -6.8102   -2.5393    7.2700 H   0  0  0  0  0  0  0  0  0  0  0  0
   -5.8215   -1.0312    7.3641 H   0  0  0  0  0  0  0  0  0  0  0  0
   -7.4809   -1.0742    8.0804 H   0  0  0  0  0  0  0  0  0  0  0  0
   -7.6733   -3.2275    4.4086 H   0  0  0  0  0  0  0  0  0  0  0  0
   -6.1979   -4.0243    2.6651 H   0  0  0  0  0  0  0  0  0  0  0  0
   -1.7380   -1.1096    2.6024 H   0  0  0  0  0  0  0  0  0  0  0  0
   -1.2867   -7.0280    2.5333 H   0  0  0  0  0  0  0  0  0  0  0  0
    1.0180   -7.7477    2.9064 H   0  0  0  0  0  0  0  0  0  0  0  0
    2.8164   -6.1147    3.1646 H   0  0  0  0  0  0  0  0  0  0  0  0
    5.2188   -4.3655    3.9788 H   0  0  0  0  0  0  0  0  0  0  0  0
    7.1068   -5.0223    2.5902 H   0  0  0  0  0  0  0  0  0  0  0  0
    8.1930   -4.6217    0.2983 H   0  0  0  0  0  0  0  0  0  0  0  0
    7.1598   -4.6608   -1.1606 H   0  0  0  0  0  0  0  0  0  0  0  0
    7.6159   -6.9969    0.8061 H   0  0  0  0  0  0  0  0  0  0  0  0
    8.3012   -6.8325   -0.8509 H   0  0  0  0  0  0  0  0  0  0  0  0
    6.5184   -7.0465   -0.6378 H   0  0  0  0  0  0  0  0  0  0  0  0
    4.7509   -4.3750   -0.9534 H   0  0  0  0  0  0  0  0  0  0  0  0
    2.8590   -3.6756    0.4403 H   0  0  0  0  0  0  0  0  0  0  0  0
    4.7077   -1.8637    4.2963 H   0  0  0  0  0  0  0  0  0  0  0  0
    4.9358   -1.1564    6.6203 H   0  0  0  0  0  0  0  0  0  0  0  0
    2.9389   -2.4931    9.4551 H   0  0  0  0  0  0  0  0  0  0  0  0
    4.3193   -1.4436    8.9975 H   0  0  0  0  0  0  0  0  0  0  0  0
    2.7123    0.2816    8.1055 H   0  0  0  0  0  0  0  0  0  0  0  0
    2.4045   -0.0946    9.8444 H   0  0  0  0  0  0  0  0  0  0  0  0
    1.3231   -0.7783    8.5723 H   0  0  0  0  0  0  0  0  0  0  0  0
    1.4953   -3.5069    7.6881 H   0  0  0  0  0  0  0  0  0  0  0  0
    1.2632   -4.2484    5.4103 H   0  0  0  0  0  0  0  0  0  0  0  0
    2.3928    2.1597    0.9858 H   0  0  0  0  0  0  0  0  0  0  0  0
    7.6985   10.0233    2.9949 H   0  0  0  0  0  0  0  0  0  0  0  0
    9.2210    9.1651    2.5241 H   0  0  0  0  0  0  0  0  0  0  0  0
    8.5216   10.0244    5.3877 H   0  0  0  0  0  0  0  0  0  0  0  0
    9.6122   10.9203    4.2616 H   0  0  0  0  0  0  0  0  0  0  0  0
   10.0645    9.2597    4.8199 H   0  0  0  0  0  0  0  0  0  0  0  0
    3.2144   10.4546    2.4898 H   0  0  0  0  0  0  0  0  0  0  0  0
    1.4982   10.5568    1.9320 H   0  0  0  0  0  0  0  0  0  0  0  0
    3.4932   12.8972    1.9542 H   0  0  0  0  0  0  0  0  0  0  0  0
    2.2051   12.5955    3.1797 H   0  0  0  0  0  0  0  0  0  0  0  0
    1.7541   12.9751    1.4709 H   0  0  0  0  0  0  0  0  0  0  0  0
    3.0789    0.5675   -3.7658 H   0  0  0  0  0  0  0  0  0  0  0  0
    3.8267   -0.5046   -1.7061 H   0  0  0  0  0  0  0  0  0  0  0  0
    1.6066    2.8215   -4.1897 H   0  0  0  0  0  0  0  0  0  0  0  0
    6.1557    7.0232   -5.0779 H   0  0  0  0  0  0  0  0  0  0  0  0
    1.5049    7.8025   -6.6793 H   0  0  0  0  0  0  0  0  0  0  0  0
  1  2  2  3
  2  3  1  0
  3  4  2  0
  3  5  1  0
  5  6  2  0
  6  7  1  0
  6  8  1  0
  8  9  2  0
  9 10  1  0
  9 11  1  0
 11 12  2  0
 12 13  1  0
 13 14  2  3
 14 15  1  0
 15 16  3  0
 14 17  1  0
 17 18  3  0
  1 19  1  0
 19 20  1  0
 20 21  1  0
 21 22  2  0
 22 23  1  0
 23 24  2  0
 24 25  1  0
 25 26  1  0
 24 27  1  0
 27 28  1  0
 21 29  1  0
 29 30  2  0
 30 31  1  0
 31 32  1  0
 32 33  1  0
 33 34  1  0
 34 35  2  0
 35 36  1  0
 36 37  1  0
 37 38  1  0
 38 39  2  0
 39 40  1  0
 40 41  2  0
 41 42  1  0
 42 43  1  0
 41 44  1  0
 44 45  2  0
 36 46  1  0
 46 47  2  0
 47 48  1  0
 48 49  2  0
 49 50  1  0
 50 51  1  0
 49 52  1  0
 52 53  2  0
 36 54  1  0
 54 55  1  0
 55 56  1  0
 35 57  1  0
 57 58  2  0
 58 59  1  0
 59 60  2  0
 60 61  1  0
 61 62  1  0
 62 63  1  0
 63 64  2  0
 64 65  1  0
 65 66  2  0
 66 67  1  0
 61 68  1  0
 68 69  2  0
 69 70  1  0
 70 71  2  0
 71 72  1  0
 72 73  1  0
 71 74  1  0
 74 75  2  0
 61 76  1  0
 76 77  2  0
 77 78  1  0
 78 79  2  0
 79 80  1  0
 80 81  1  0
 79 82  1  0
 82 83  2  0
 60 84  1  0
 84 85  2  0
 85 86  1  0
 85 87  1  0
 87 88  2  0
 88 89  1  0
 88 90  1  0
 90 91  1  0
 91 92  2  0
 92 93  1  0
 93 94  1  0
 94 95  2  0
 95 96  1  0
 96 97  2  0
 97 98  1  0
 98 99  1  0
 99100  1  0
 97101  1  0
101102  2  0
102103  1  0
101104  1  0
 96105  1  0
 95106  1  0
 93107  2  0
107108  1  0
108109  2  0
109110  1  0
109111  1  0
111112  1  0
111113  2  0
113114  1  0
114115  1  0
115116  1  0
113117  1  0
117118  1  0
117119  2  0
119120  1  0
107121  1  0
121122  2  0
122123  1  0
123124  2  0
124125  1  0
123126  1  0
126127  2  3
127128  1  0
128129  2  0
128130  1  0
130131  2  0
131132  1  0
132133  1  0
132134  2  0
134135  1  0
134136  1  0
136137  2  0
137138  1  0
138139  2  3
139140  1  0
140141  3  0
139142  1  0
142143  3  0
 13  2  1  0
 28 19  2  0
 56 29  1  0
 63 58  1  0
 75 68  1  0
 83 76  1  0
 89 84  1  0
125 90  2  0
138127  1  0
 12  5  1  0
 28 22  1  0
 55 31  2  0
 86 59  1  0
122 91  1  0
137130  1  0
 54 33  2  0
 67 62  2  0
102 94  1  0
119108  1  0
 64 34  1  0
 45 38  1  0
 53 46  1  0
  1144  1  0
  8145  1  0
 11146  1  0
 23147  1  0
 25148  1  0
 25149  1  0
 26150  1  0
 26151  1  0
 26152  1  0
 30153  1  0
 37154  1  0
 37155  1  0
 39156  1  0
 40157  1  0
 42158  1  0
 42159  1  0
 43160  1  0
 43161  1  0
 43162  1  0
 44163  1  0
 45164  1  0
 47165  1  0
 48166  1  0
 50167  1  0
 50168  1  0
 51169  1  0
 51170  1  0
 51171  1  0
 52172  1  0
 53173  1  0
 57174  1  0
 65175  1  0
 66176  1  0
 67177  1  0
 69178  1  0
 70179  1  0
 72180  1  0
 72181  1  0
 73182  1  0
 73183  1  0
 73184  1  0
 74185  1  0
 75186  1  0
 77187  1  0
 78188  1  0
 80189  1  0
 80190  1  0
 81191  1  0
 81192  1  0
 81193  1  0
 82194  1  0
 83195  1  0
 87196  1  0
 99197  1  0
 99198  1  0
100199  1  0
100200  1  0
100201  1  0
115202  1  0
115203  1  0
116204  1  0
116205  1  0
116206  1  0
124207  1  0
125208  1  0
126209  1  0
131210  1  0
136211  1  0
M  END

