
     RDKit          3D

234256  0  0  0  0  0  0  0  0999 V2000
   -7.9395   -5.2010   -0.2122 C   0  0  0  0  0  0  0  0  0  0  0  0
   -7.6505   -4.8285    1.0512 C   0  0  0  0  0  0  0  0  0  0  0  0
   -6.3549   -4.3341    1.5282 C   0  0  0  0  0  0  0  0  0  0  0  0
   -5.4479   -3.8188    0.8223 O   0  0  0  0  0  0  0  0  0  0  0  0
   -6.3425   -4.4067    2.9793 C   0  0  0  0  0  0  0  0  0  0  0  0
   -5.3085   -4.0956    3.8725 C   0  0  0  0  0  0  0  0  0  0  0  0
   -3.7545   -3.4961    3.3290 Cl  0  0  0  0  0  0  0  0  0  0  0  0
   -5.5428   -4.2612    5.2463 C   0  0  0  0  0  0  0  0  0  0  0  0
   -6.7798   -4.7497    5.7038 C   0  0  0  0  0  0  0  0  0  0  0  0
   -7.0725   -4.9827    7.5794 Br  0  0  0  0  0  0  0  0  0  0  0  0
   -7.8058   -5.0559    4.7956 C   0  0  0  0  0  0  0  0  0  0  0  0
   -7.5858   -4.8486    3.4203 C   0  0  0  0  0  0  0  0  0  0  0  0
   -8.5066   -5.0207    2.2620 C   0  0  0  0  0  0  0  0  0  0  0  0
   -9.8674   -5.0924    2.3032 C   0  0  0  0  0  0  0  0  0  0  0  0
  -10.6875   -4.9300    1.1335 C   0  0  0  0  0  0  0  0  0  0  0  0
  -11.3652   -4.7946    0.2027 N   0  0  0  0  0  0  0  0  0  0  0  0
  -10.6061   -5.2026    3.5306 C   0  0  0  0  0  0  0  0  0  0  0  0
  -11.2195   -5.2865    4.5124 N   0  0  0  0  0  0  0  0  0  0  0  0
   -6.9923   -5.1662   -1.3444 C   0  0  0  0  0  0  0  0  0  0  0  0
   -7.3089   -4.7781   -2.6527 C   0  0  0  0  0  0  0  0  0  0  0  0
   -8.5920   -4.1125   -3.0498 C   0  0  0  0  0  0  0  0  0  0  0  0
   -8.5839   -2.6390   -2.6408 C   0  0  0  0  0  0  0  0  0  0  0  0
   -6.3317   -5.0178   -3.5664 N   0  0  0  0  0  0  0  0  0  0  0  0
   -5.2505   -5.6125   -3.0230 C   0  0  0  0  0  0  0  0  0  0  0  0
   -5.4626   -5.8801   -1.3710 S   0  0  0  0  0  0  0  0  0  0  0  0
   -4.0646   -5.9811   -3.8073 C   0  0  0  0  0  0  0  0  0  0  0  0
   -3.9877   -5.8720   -5.1924 C   0  0  0  0  0  0  0  0  0  0  0  0
   -2.6926   -6.1158   -5.6820 C   0  0  0  0  0  0  0  0  0  0  0  0
   -2.0131   -5.5867   -6.9394 C   0  0  0  0  0  0  0  0  0  0  0  0
   -1.8180   -6.8068   -7.8909 C   0  0  0  0  0  0  0  0  0  0  0  0
   -0.9665   -6.5320   -9.1297 C   0  0  0  0  0  0  0  0  0  0  0  0
   -2.8322   -4.4272   -7.5865 C   0  0  0  0  0  0  0  0  0  0  0  0
   -4.0205   -4.8618   -8.4607 C   0  0  0  0  0  0  0  0  0  0  0  0
   -0.6495   -5.2190   -6.3040 C   0  0  0  0  0  0  0  0  0  0  0  0
    0.4109   -4.2693   -6.4517 C   0  0  0  0  0  0  0  0  0  0  0  0
    0.4482   -2.8094   -6.9474 C   0  0  0  0  0  0  0  0  0  0  0  0
   -0.8977   -2.0843   -6.8354 C   0  0  0  0  0  0  0  0  0  0  0  0
   -1.4179   -1.2936   -7.8776 C   0  0  0  0  0  0  0  0  0  0  0  0
   -2.6527   -0.6528   -7.7429 C   0  0  0  0  0  0  0  0  0  0  0  0
   -3.3675   -0.7360   -6.5397 C   0  0  0  0  0  0  0  0  0  0  0  0
   -4.7165   -0.0787   -6.4092 C   0  0  0  0  0  0  0  0  0  0  0  0
   -4.5791    1.3673   -5.9457 C   0  0  0  0  0  0  0  0  0  0  0  0
   -2.8100   -1.4327   -5.4609 C   0  0  0  0  0  0  0  0  0  0  0  0
   -1.5921   -2.1001   -5.6047 C   0  0  0  0  0  0  0  0  0  0  0  0
    1.1343   -2.7705   -8.3425 C   0  0  0  0  0  0  0  0  0  0  0  0
    0.5340   -3.3940   -9.4473 C   0  0  0  0  0  0  0  0  0  0  0  0
    1.1987   -3.5181  -10.6739 C   0  0  0  0  0  0  0  0  0  0  0  0
    2.4881   -3.0007  -10.8349 C   0  0  0  0  0  0  0  0  0  0  0  0
    3.2342   -3.2220  -12.1256 C   0  0  0  0  0  0  0  0  0  0  0  0
    3.8418   -4.6246  -12.1627 C   0  0  0  0  0  0  0  0  0  0  0  0
    3.0936   -2.3451   -9.7581 C   0  0  0  0  0  0  0  0  0  0  0  0
    2.4277   -2.2155   -8.5335 C   0  0  0  0  0  0  0  0  0  0  0  0
    1.3764   -2.2137   -5.8897 C   0  0  0  0  0  0  0  0  0  0  0  0
    2.0834   -3.2032   -5.2262 C   0  0  0  0  0  0  0  0  0  0  0  0
    1.4053   -4.4528   -5.4866 C   0  0  0  0  0  0  0  0  0  0  0  0
    0.8910   -5.5342   -4.2933 S   0  0  0  0  0  0  0  0  0  0  0  0
   -0.4990   -5.9410   -5.1389 C   0  0  0  0  0  0  0  0  0  0  0  0
   -1.7826   -6.4296   -4.7016 C   0  0  0  0  0  0  0  0  0  0  0  0
   -2.5181   -6.3087   -3.1965 S   0  0  0  0  0  0  0  0  0  0  0  0
    3.0727   -2.9109   -4.2718 C   0  0  0  0  0  0  0  0  0  0  0  0
    3.2251   -1.5581   -3.9078 C   0  0  0  0  0  0  0  0  0  0  0  0
    4.1999   -0.9209   -2.9021 C   0  0  0  0  0  0  0  0  0  0  0  0
    4.5162   -1.8253   -1.7006 C   0  0  0  0  0  0  0  0  0  0  0  0
    5.8245   -1.9033   -1.1682 C   0  0  0  0  0  0  0  0  0  0  0  0
    6.0983   -2.6963   -0.0531 C   0  0  0  0  0  0  0  0  0  0  0  0
    5.0780   -3.4205    0.5705 C   0  0  0  0  0  0  0  0  0  0  0  0
    5.3735   -4.2470    1.7940 C   0  0  0  0  0  0  0  0  0  0  0  0
    5.9965   -5.5848    1.4074 C   0  0  0  0  0  0  0  0  0  0  0  0
    3.7793   -3.3665    0.0424 C   0  0  0  0  0  0  0  0  0  0  0  0
    3.4995   -2.5769   -1.0791 C   0  0  0  0  0  0  0  0  0  0  0  0
    5.4499   -0.5120   -3.7070 C   0  0  0  0  0  0  0  0  0  0  0  0
    5.7916    0.8394   -3.9411 C   0  0  0  0  0  0  0  0  0  0  0  0
    6.8911    1.1770   -4.7347 C   0  0  0  0  0  0  0  0  0  0  0  0
    7.6457    0.1761   -5.3617 C   0  0  0  0  0  0  0  0  0  0  0  0
    8.7446    0.5477   -6.3169 C   0  0  0  0  0  0  0  0  0  0  0  0
    8.1652    0.7822   -7.7110 C   0  0  0  0  0  0  0  0  0  0  0  0
    7.3148   -1.1684   -5.1427 C   0  0  0  0  0  0  0  0  0  0  0  0
    6.2325   -1.5053   -4.3274 C   0  0  0  0  0  0  0  0  0  0  0  0
    3.3505    0.2844   -2.5254 C   0  0  0  0  0  0  0  0  0  0  0  0
    2.3693    0.4970   -3.4648 C   0  0  0  0  0  0  0  0  0  0  0  0
    2.3100   -0.6152   -4.3749 C   0  0  0  0  0  0  0  0  0  0  0  0
    1.4250   -0.8857   -5.4202 C   0  0  0  0  0  0  0  0  0  0  0  0
    1.2834    1.7324   -3.0440 S   0  0  0  0  0  0  0  0  0  0  0  0
    2.1935    2.0531   -1.6497 C   0  0  0  0  0  0  0  0  0  0  0  0
    2.1672    3.0040   -0.5763 C   0  0  0  0  0  0  0  0  0  0  0  0
    3.2290    2.7668    0.2400 C   0  0  0  0  0  0  0  0  0  0  0  0
    4.0559    1.5695   -0.2183 C   0  0  0  0  0  0  0  0  0  0  0  0
    3.2643    1.2133   -1.4743 C   0  0  0  0  0  0  0  0  0  0  0  0
    4.0292    0.4512    0.8622 C   0  0  0  0  0  0  0  0  0  0  0  0
    2.6344   -0.1088    1.1670 C   0  0  0  0  0  0  0  0  0  0  0  0
    5.4950    1.9799   -0.6215 C   0  0  0  0  0  0  0  0  0  0  0  0
    6.3981    2.4176    0.5354 C   0  0  0  0  0  0  0  0  0  0  0  0
    3.1082    3.3717    1.4901 C   0  0  0  0  0  0  0  0  0  0  0  0
    1.8983    4.0678    1.6188 C   0  0  0  0  0  0  0  0  0  0  0  0
    0.9591    3.8645    0.2137 S   0  0  0  0  0  0  0  0  0  0  0  0
    1.4438    4.7030    2.8674 C   0  0  0  0  0  0  0  0  0  0  0  0
    2.2985    5.1229    3.8824 C   0  0  0  0  0  0  0  0  0  0  0  0
    1.6252    5.5631    5.0343 C   0  0  0  0  0  0  0  0  0  0  0  0
    2.2372    5.9934    6.2335 C   0  0  0  0  0  0  0  0  0  0  0  0
    3.7142    6.1076    6.3469 C   0  0  0  0  0  0  0  0  0  0  0  0
    4.4243    5.3699    7.3095 C   0  0  0  0  0  0  0  0  0  0  0  0
    5.8206    5.4154    7.3491 C   0  0  0  0  0  0  0  0  0  0  0  0
    6.5219    6.1829    6.4143 C   0  0  0  0  0  0  0  0  0  0  0  0
    5.8289    6.9032    5.4369 C   0  0  0  0  0  0  0  0  0  0  0  0
    6.7304    7.7566    4.1398 S   0  0  0  0  0  0  0  0  0  0  0  0
    6.8700    9.3488    5.0229 C   0  0  0  0  0  0  0  0  0  0  0  0
    5.6518   10.2261    4.7555 C   0  0  0  0  0  0  0  0  0  0  0  0
    4.4289    6.8883    5.4237 C   0  0  0  0  0  0  0  0  0  0  0  0
    1.3798    6.2219    7.3222 C   0  0  0  0  0  0  0  0  0  0  0  0
   -0.0127    6.0713    7.2418 C   0  0  0  0  0  0  0  0  0  0  0  0
   -0.6276    5.7039    6.0237 C   0  0  0  0  0  0  0  0  0  0  0  0
   -2.0896    5.4950    5.9416 C   0  0  0  0  0  0  0  0  0  0  0  0
   -2.9763    6.5424    6.2377 C   0  0  0  0  0  0  0  0  0  0  0  0
   -4.3491    6.3092    6.2790 C   0  0  0  0  0  0  0  0  0  0  0  0
   -4.8527    5.0287    6.0265 C   0  0  0  0  0  0  0  0  0  0  0  0
   -3.9785    3.9824    5.7121 C   0  0  0  0  0  0  0  0  0  0  0  0
   -4.6165    2.3348    5.3919 S   0  0  0  0  0  0  0  0  0  0  0  0
   -4.9501    2.6228    3.6172 C   0  0  0  0  0  0  0  0  0  0  0  0
   -3.6872    2.4452    2.7820 C   0  0  0  0  0  0  0  0  0  0  0  0
   -2.5993    4.2136    5.6720 C   0  0  0  0  0  0  0  0  0  0  0  0
    0.2312    5.4415    4.9350 C   0  0  0  0  0  0  0  0  0  0  0  0
   -0.1571    4.8457    3.3969 S   0  0  0  0  0  0  0  0  0  0  0  0
   -0.6582    6.2167    8.4846 C   0  0  0  0  0  0  0  0  0  0  0  0
    0.2357    6.4798    9.5248 C   0  0  0  0  0  0  0  0  0  0  0  0
    1.7976    6.5747    8.9108 S   0  0  0  0  0  0  0  0  0  0  0  0
   -0.0655    6.4922   10.9674 C   0  0  0  0  0  0  0  0  0  0  0  0
   -0.4501    5.3904   11.6382 C   0  0  0  0  0  0  0  0  0  0  0  0
   -0.5886    4.0475   11.0627 C   0  0  0  0  0  0  0  0  0  0  0  0
   -1.0956    3.7834    9.9344 O   0  0  0  0  0  0  0  0  0  0  0  0
   -0.2191    3.0717   12.0663 C   0  0  0  0  0  0  0  0  0  0  0  0
   -0.0755    1.6861   11.9267 C   0  0  0  0  0  0  0  0  0  0  0  0
   -0.3763    0.8675   10.4049 Cl  0  0  0  0  0  0  0  0  0  0  0  0
    0.4068    0.9536   13.0295 C   0  0  0  0  0  0  0  0  0  0  0  0
    0.7191    1.6097   14.2364 C   0  0  0  0  0  0  0  0  0  0  0  0
    1.4006    0.6140   15.7178 Br  0  0  0  0  0  0  0  0  0  0  0  0
    0.5580    2.9954   14.3523 C   0  0  0  0  0  0  0  0  0  0  0  0
    0.0512    3.7192   13.2587 C   0  0  0  0  0  0  0  0  0  0  0  0
   -0.1949    5.1748   13.0935 C   0  0  0  0  0  0  0  0  0  0  0  0
   -0.4538    6.0750   14.0674 C   0  0  0  0  0  0  0  0  0  0  0  0
   -0.1365    5.8227   15.4516 C   0  0  0  0  0  0  0  0  0  0  0  0
    0.1259    5.6388   16.5678 N   0  0  0  0  0  0  0  0  0  0  0  0
   -1.0076    7.3731   13.7827 C   0  0  0  0  0  0  0  0  0  0  0  0
   -1.4471    8.4268   13.5769 N   0  0  0  0  0  0  0  0  0  0  0  0
   -8.9113   -5.6048   -0.4483 H   0  0  0  0  0  0  0  0  0  0  0  0
   -4.7633   -4.0294    5.9615 H   0  0  0  0  0  0  0  0  0  0  0  0
   -8.7229   -5.4562    5.1789 H   0  0  0  0  0  0  0  0  0  0  0  0
   -9.4601   -4.6239   -2.5821 H   0  0  0  0  0  0  0  0  0  0  0  0
   -8.7177   -4.1765   -4.1549 H   0  0  0  0  0  0  0  0  0  0  0  0
   -7.7490   -2.1082   -3.1428 H   0  0  0  0  0  0  0  0  0  0  0  0
   -8.4849   -2.5457   -1.5400 H   0  0  0  0  0  0  0  0  0  0  0  0
   -9.5436   -2.1678   -2.9462 H   0  0  0  0  0  0  0  0  0  0  0  0
   -4.7966   -5.4783   -5.7857 H   0  0  0  0  0  0  0  0  0  0  0  0
   -2.8027   -7.2118   -8.2113 H   0  0  0  0  0  0  0  0  0  0  0  0
   -1.3194   -7.6356   -7.3345 H   0  0  0  0  0  0  0  0  0  0  0  0
   -0.8461   -7.4738   -9.7093 H   0  0  0  0  0  0  0  0  0  0  0  0
   -1.4624   -5.7976   -9.7987 H   0  0  0  0  0  0  0  0  0  0  0  0
    0.0395   -6.1754   -8.8359 H   0  0  0  0  0  0  0  0  0  0  0  0
   -2.1942   -3.8183   -8.2327 H   0  0  0  0  0  0  0  0  0  0  0  0
   -3.2363   -3.7713   -6.7928 H   0  0  0  0  0  0  0  0  0  0  0  0
   -4.6931   -3.9983   -8.6299 H   0  0  0  0  0  0  0  0  0  0  0  0
   -3.6758   -5.2033   -9.4580 H   0  0  0  0  0  0  0  0  0  0  0  0
   -4.6112   -5.6752   -7.9938 H   0  0  0  0  0  0  0  0  0  0  0  0
   -0.8896   -1.1812   -8.8165 H   0  0  0  0  0  0  0  0  0  0  0  0
   -3.0570   -0.0898   -8.5763 H   0  0  0  0  0  0  0  0  0  0  0  0
   -5.2413   -0.1075   -7.3867 H   0  0  0  0  0  0  0  0  0  0  0  0
   -5.3458   -0.6363   -5.6807 H   0  0  0  0  0  0  0  0  0  0  0  0
   -4.1723    1.4034   -4.9134 H   0  0  0  0  0  0  0  0  0  0  0  0
   -5.5773    1.8541   -5.9538 H   0  0  0  0  0  0  0  0  0  0  0  0
   -3.9027    1.9300   -6.6287 H   0  0  0  0  0  0  0  0  0  0  0  0
   -3.3263   -1.4802   -4.5074 H   0  0  0  0  0  0  0  0  0  0  0  0
   -1.1953   -2.6489   -4.7630 H   0  0  0  0  0  0  0  0  0  0  0  0
   -0.4408   -3.8207   -9.3684 H   0  0  0  0  0  0  0  0  0  0  0  0
    0.7110   -4.0397  -11.4874 H   0  0  0  0  0  0  0  0  0  0  0  0
    2.5429   -3.1024  -12.9931 H   0  0  0  0  0  0  0  0  0  0  0  0
    4.0422   -2.4683  -12.2431 H   0  0  0  0  0  0  0  0  0  0  0  0
    3.0437   -5.3913  -12.1006 H   0  0  0  0  0  0  0  0  0  0  0  0
    4.3886   -4.7693  -13.1180 H   0  0  0  0  0  0  0  0  0  0  0  0
    4.5479   -4.7645  -11.3174 H   0  0  0  0  0  0  0  0  0  0  0  0
    4.1036   -1.9608   -9.8573 H   0  0  0  0  0  0  0  0  0  0  0  0
    2.9645   -1.7070   -7.7416 H   0  0  0  0  0  0  0  0  0  0  0  0
    3.6445   -3.6978   -3.7847 H   0  0  0  0  0  0  0  0  0  0  0  0
    6.6365   -1.3206   -1.5817 H   0  0  0  0  0  0  0  0  0  0  0  0
    7.1062   -2.7318    0.3333 H   0  0  0  0  0  0  0  0  0  0  0  0
    4.4434   -4.4312    2.3763 H   0  0  0  0  0  0  0  0  0  0  0  0
    6.0761   -3.6965    2.4558 H   0  0  0  0  0  0  0  0  0  0  0  0
    6.9553   -5.4208    0.8649 H   0  0  0  0  0  0  0  0  0  0  0  0
    6.2023   -6.1794    2.3208 H   0  0  0  0  0  0  0  0  0  0  0  0
    5.3000   -6.1551    0.7536 H   0  0  0  0  0  0  0  0  0  0  0  0
    2.9765   -3.9286    0.5018 H   0  0  0  0  0  0  0  0  0  0  0  0
    2.4811   -2.5390   -1.4453 H   0  0  0  0  0  0  0  0  0  0  0  0
    5.2082    1.6523   -3.5407 H   0  0  0  0  0  0  0  0  0  0  0  0
    7.1156    2.2196   -4.9102 H   0  0  0  0  0  0  0  0  0  0  0  0
    9.5137   -0.2584   -6.3674 H   0  0  0  0  0  0  0  0  0  0  0  0
    9.2526    1.4758   -5.9738 H   0  0  0  0  0  0  0  0  0  0  0  0
    8.9798    1.0468   -8.4183 H   0  0  0  0  0  0  0  0  0  0  0  0
    7.6582   -0.1395   -8.0723 H   0  0  0  0  0  0  0  0  0  0  0  0
    7.4347    1.6199   -7.6811 H   0  0  0  0  0  0  0  0  0  0  0  0
    7.8719   -1.9587   -5.6369 H   0  0  0  0  0  0  0  0  0  0  0  0
    5.9943   -2.5515   -4.1774 H   0  0  0  0  0  0  0  0  0  0  0  0
    0.7694   -0.1208   -5.8122 H   0  0  0  0  0  0  0  0  0  0  0  0
    4.4419    0.8513    1.8136 H   0  0  0  0  0  0  0  0  0  0  0  0
    4.6923   -0.3748    0.5735 H   0  0  0  0  0  0  0  0  0  0  0  0
    1.9678    0.6786    1.5761 H   0  0  0  0  0  0  0  0  0  0  0  0
    2.7163   -0.9210    1.9194 H   0  0  0  0  0  0  0  0  0  0  0  0
    2.1683   -0.5335    0.2551 H   0  0  0  0  0  0  0  0  0  0  0  0
    5.9847    1.1231   -1.1307 H   0  0  0  0  0  0  0  0  0  0  0  0
    5.4410    2.8159   -1.3550 H   0  0  0  0  0  0  0  0  0  0  0  0
    5.9594    3.2733    1.0885 H   0  0  0  0  0  0  0  0  0  0  0  0
    7.3813    2.7403    0.1273 H   0  0  0  0  0  0  0  0  0  0  0  0
    6.5848    1.5713    1.2311 H   0  0  0  0  0  0  0  0  0  0  0  0
    3.8041    3.2245    2.3001 H   0  0  0  0  0  0  0  0  0  0  0  0
    3.3775    5.0848    3.7969 H   0  0  0  0  0  0  0  0  0  0  0  0
    3.8959    4.7370    8.0110 H   0  0  0  0  0  0  0  0  0  0  0  0
    6.3589    4.8413    8.0892 H   0  0  0  0  0  0  0  0  0  0  0  0
    7.6047    6.1925    6.4322 H   0  0  0  0  0  0  0  0  0  0  0  0
    7.0012    9.1910    6.1151 H   0  0  0  0  0  0  0  0  0  0  0  0
    7.7690    9.8701    4.6409 H   0  0  0  0  0  0  0  0  0  0  0  0
    5.4686   10.3001    3.6613 H   0  0  0  0  0  0  0  0  0  0  0  0
    4.7530    9.8096    5.2547 H   0  0  0  0  0  0  0  0  0  0  0  0
    5.8403   11.2469    5.1557 H   0  0  0  0  0  0  0  0  0  0  0  0
    3.9046    7.4513    4.6640 H   0  0  0  0  0  0  0  0  0  0  0  0
   -2.5956    7.5254    6.4760 H   0  0  0  0  0  0  0  0  0  0  0  0
   -5.0298    7.1192    6.5121 H   0  0  0  0  0  0  0  0  0  0  0  0
   -5.9240    4.8534    6.0768 H   0  0  0  0  0  0  0  0  0  0  0  0
   -5.3687    3.6408    3.4634 H   0  0  0  0  0  0  0  0  0  0  0  0
   -5.7105    1.8835    3.2841 H   0  0  0  0  0  0  0  0  0  0  0  0
   -2.9370    3.2155    3.0496 H   0  0  0  0  0  0  0  0  0  0  0  0
   -3.2576    1.4334    2.9432 H   0  0  0  0  0  0  0  0  0  0  0  0
   -3.9381    2.5591    1.7059 H   0  0  0  0  0  0  0  0  0  0  0  0
   -1.9248    3.3917    5.4709 H   0  0  0  0  0  0  0  0  0  0  0  0
   -1.7145    6.0696    8.6451 H   0  0  0  0  0  0  0  0  0  0  0  0
    0.3119    7.3461   11.5192 H   0  0  0  0  0  0  0  0  0  0  0  0
    0.5467   -0.1205   12.9400 H   0  0  0  0  0  0  0  0  0  0  0  0
    0.8225    3.4767   15.2769 H   0  0  0  0  0  0  0  0  0  0  0  0
  1  2  2  3
  2  3  1  0
  3  4  2  0
  3  5  1  0
  5  6  2  0
  6  7  1  0
  6  8  1  0
  8  9  2  0
  9 10  1  0
  9 11  1  0
 11 12  2  0
 12 13  1  0
 13 14  2  3
 14 15  1  0
 15 16  3  0
 14 17  1  0
 17 18  3  0
  1 19  1  0
 19 20  2  0
 20 21  1  0
 21 22  1  0
 20 23  1  0
 23 24  2  0
 24 25  1  0
 24 26  1  0
 26 27  2  0
 27 28  1  0
 28 29  1  0
 29 30  1  0
 30 31  1  0
 29 32  1  0
 32 33  1  0
 29 34  1  0
 34 35  1  0
 35 36  1  0
 36 37  1  0
 37 38  2  0
 38 39  1  0
 39 40  2  0
 40 41  1  0
 41 42  1  0
 40 43  1  0
 43 44  2  0
 36 45  1  0
 45 46  2  0
 46 47  1  0
 47 48  2  0
 48 49  1  0
 49 50  1  0
 48 51  1  0
 51 52  2  0
 36 53  1  0
 53 54  2  0
 54 55  1  0
 55 56  1  0
 56 57  1  0
 57 58  1  0
 58 59  1  0
 54 60  1  0
 60 61  2  0
 61 62  1  0
 62 63  1  0
 63 64  2  0
 64 65  1  0
 65 66  2  0
 66 67  1  0
 67 68  1  0
 66 69  1  0
 69 70  2  0
 62 71  1  0
 71 72  2  0
 72 73  1  0
 73 74  2  0
 74 75  1  0
 75 76  1  0
 74 77  1  0
 77 78  2  0
 62 79  1  0
 79 80  2  0
 80 81  1  0
 81 82  2  0
 80 83  1  0
 83 84  1  0
 84 85  1  0
 85 86  2  0
 86 87  1  0
 87 88  1  0
 87 89  1  0
 89 90  1  0
 87 91  1  0
 91 92  1  0
 86 93  1  0
 93 94  2  0
 94 95  1  0
 94 96  1  0
 96 97  2  0
 97 98  1  0
 98 99  2  0
 99100  1  0
100101  2  0
101102  1  0
102103  2  0
103104  1  0
104105  1  0
105106  1  0
106107  1  0
104108  2  0
 99109  1  0
109110  2  0
110111  1  0
111112  1  0
112113  2  0
113114  1  0
114115  2  0
115116  1  0
116117  1  0
117118  1  0
118119  1  0
116120  2  0
111121  2  0
121122  1  0
110123  1  0
123124  2  0
124125  1  0
124126  1  0
126127  2  3
127128  1  0
128129  2  0
128130  1  0
130131  2  0
131132  1  0
131133  1  0
133134  2  0
134135  1  0
134136  1  0
136137  2  0
137138  1  0
138139  2  3
139140  1  0
140141  3  0
139142  1  0
142143  3  0
 13  2  1  0
 25 19  1  0
 59 26  1  0
 81 61  1  0
 88 84  2  0
122 96  1  0
138127  1  0
 12  5  1  0
 58 28  2  0
 70 63  1  0
 78 71  1  0
 88 79  1  0
121 98  1  0
137130  1  0
 57 34  2  0
 95 85  1  0
108100  1  0
125109  1  0
 55 35  2  0
120112  1  0
 44 37  1  0
 52 45  1  0
 82 53  1  0
  1144  1  0
  8145  1  0
 11146  1  0
 21147  1  0
 21148  1  0
 22149  1  0
 22150  1  0
 22151  1  0
 27152  1  0
 30153  1  0
 30154  1  0
 31155  1  0
 31156  1  0
 31157  1  0
 32158  1  0
 32159  1  0
 33160  1  0
 33161  1  0
 33162  1  0
 38163  1  0
 39164  1  0
 41165  1  0
 41166  1  0
 42167  1  0
 42168  1  0
 42169  1  0
 43170  1  0
 44171  1  0
 46172  1  0
 47173  1  0
 49174  1  0
 49175  1  0
 50176  1  0
 50177  1  0
 50178  1  0
 51179  1  0
 52180  1  0
 60181  1  0
 64182  1  0
 65183  1  0
 67184  1  0
 67185  1  0
 68186  1  0
 68187  1  0
 68188  1  0
 69189  1  0
 70190  1  0
 72191  1  0
 73192  1  0
 75193  1  0
 75194  1  0
 76195  1  0
 76196  1  0
 76197  1  0
 77198  1  0
 78199  1  0
 82200  1  0
 89201  1  0
 89202  1  0
 90203  1  0
 90204  1  0
 90205  1  0
 91206  1  0
 91207  1  0
 92208  1  0
 92209  1  0
 92210  1  0
 93211  1  0
 97212  1  0
101213  1  0
102214  1  0
103215  1  0
106216  1  0
106217  1  0
107218  1  0
107219  1  0
107220  1  0
108221  1  0
113222  1  0
114223  1  0
115224  1  0
118225  1  0
118226  1  0
119227  1  0
119228  1  0
119229  1  0
120230  1  0
123231  1  0
126232  1  0
133233  1  0
136234  1  0
M  END

