
     RDKit          3D

220240  0  0  0  0  0  0  0  0999 V2000
    1.2137    5.9803   -6.9049 C   0  0  0  0  0  0  0  0  0  0  0  0
    2.2541    5.2655   -6.4302 C   0  0  0  0  0  0  0  0  0  0  0  0
    2.2586    4.4880   -5.1818 C   0  0  0  0  0  0  0  0  0  0  0  0
    1.2492    4.0669   -4.5533 O   0  0  0  0  0  0  0  0  0  0  0  0
    3.6322    4.2928   -4.7707 C   0  0  0  0  0  0  0  0  0  0  0  0
    4.1045    3.7166   -3.5929 C   0  0  0  0  0  0  0  0  0  0  0  0
    5.4847    3.7314   -3.3479 C   0  0  0  0  0  0  0  0  0  0  0  0
    6.1081    3.0251   -1.8658 Cl  0  0  0  0  0  0  0  0  0  0  0  0
    6.3599    4.3402   -4.2695 C   0  0  0  0  0  0  0  0  0  0  0  0
    7.6910    4.4058   -4.0041 F   0  0  0  0  0  0  0  0  0  0  0  0
    5.8629    4.9129   -5.4512 C   0  0  0  0  0  0  0  0  0  0  0  0
    4.4809    4.8583   -5.7075 C   0  0  0  0  0  0  0  0  0  0  0  0
    3.6814    5.3857   -6.8508 C   0  0  0  0  0  0  0  0  0  0  0  0
    4.1360    5.6883   -8.0922 C   0  0  0  0  0  0  0  0  0  0  0  0
    5.5353    5.6964   -8.4250 C   0  0  0  0  0  0  0  0  0  0  0  0
    6.6609    5.7176   -8.7016 N   0  0  0  0  0  0  0  0  0  0  0  0
    3.2452    5.8925   -9.2051 C   0  0  0  0  0  0  0  0  0  0  0  0
    2.5474    6.0475  -10.1187 N   0  0  0  0  0  0  0  0  0  0  0  0
   -0.1056    5.9779   -6.2435 C   0  0  0  0  0  0  0  0  0  0  0  0
   -0.4533    7.0448   -5.4120 C   0  0  0  0  0  0  0  0  0  0  0  0
    0.3518    8.1355   -5.3263 F   0  0  0  0  0  0  0  0  0  0  0  0
   -1.5798    6.9597   -4.5918 C   0  0  0  0  0  0  0  0  0  0  0  0
   -1.8633    8.0097   -3.7784 F   0  0  0  0  0  0  0  0  0  0  0  0
   -2.3729    5.7907   -4.5654 C   0  0  0  0  0  0  0  0  0  0  0  0
   -2.1239    4.7880   -5.5409 C   0  0  0  0  0  0  0  0  0  0  0  0
   -2.9523    3.7175   -5.7093 N   0  0  0  0  0  0  0  0  0  0  0  0
   -2.7230    2.7757   -6.6737 C   0  0  0  0  0  0  0  0  0  0  0  0
   -3.6341    1.7396   -6.9187 O   0  0  0  0  0  0  0  0  0  0  0  0
   -4.6101    1.3018   -5.9816 C   0  0  0  0  0  0  0  0  0  0  0  0
   -3.9627    0.3463   -4.9911 C   0  0  0  0  0  0  0  0  0  0  0  0
   -1.5715    2.8684   -7.4653 C   0  0  0  0  0  0  0  0  0  0  0  0
   -0.7330    3.9203   -7.2906 N   0  0  0  0  0  0  0  0  0  0  0  0
   -0.9837    4.8916   -6.3749 C   0  0  0  0  0  0  0  0  0  0  0  0
   -1.2633    1.8442   -8.5151 C   0  0  0  0  0  0  0  0  0  0  0  0
   -3.2688    5.5893   -3.3898 C   0  0  0  0  0  0  0  0  0  0  0  0
   -4.3786    4.7334   -3.2695 C   0  0  0  0  0  0  0  0  0  0  0  0
   -4.7818    4.5650   -1.9276 C   0  0  0  0  0  0  0  0  0  0  0  0
   -5.4506    3.3741   -1.2356 C   0  0  0  0  0  0  0  0  0  0  0  0
   -6.9833    3.5880   -1.3230 C   0  0  0  0  0  0  0  0  0  0  0  0
   -7.8251    2.4724   -0.7062 C   0  0  0  0  0  0  0  0  0  0  0  0
   -4.9839    2.0659   -1.9239 C   0  0  0  0  0  0  0  0  0  0  0  0
   -3.4568    1.8698   -1.9269 C   0  0  0  0  0  0  0  0  0  0  0  0
   -4.9066    3.5679    0.1977 C   0  0  0  0  0  0  0  0  0  0  0  0
   -4.6721    2.7685    1.3483 C   0  0  0  0  0  0  0  0  0  0  0  0
   -5.1016    1.4229    1.9517 C   0  0  0  0  0  0  0  0  0  0  0  0
   -6.2961    1.6146    2.9152 C   0  0  0  0  0  0  0  0  0  0  0  0
   -7.0485    2.8136    2.9588 C   0  0  0  0  0  0  0  0  0  0  0  0
   -8.0172    3.0181    3.9405 C   0  0  0  0  0  0  0  0  0  0  0  0
   -8.2627    2.0398    4.9107 C   0  0  0  0  0  0  0  0  0  0  0  0
   -9.2136    2.3292    6.0427 C   0  0  0  0  0  0  0  0  0  0  0  0
   -8.5770    3.2836    7.0522 C   0  0  0  0  0  0  0  0  0  0  0  0
   -7.5582    0.8300    4.8575 C   0  0  0  0  0  0  0  0  0  0  0  0
   -6.5976    0.6140    3.8630 C   0  0  0  0  0  0  0  0  0  0  0  0
   -5.2972    0.2776    0.9417 C   0  0  0  0  0  0  0  0  0  0  0  0
   -4.1891   -0.2689    0.2590 C   0  0  0  0  0  0  0  0  0  0  0  0
   -4.3350   -1.3615   -0.6005 C   0  0  0  0  0  0  0  0  0  0  0  0
   -5.5939   -1.9401   -0.8002 C   0  0  0  0  0  0  0  0  0  0  0  0
   -5.7550   -3.1192   -1.7219 C   0  0  0  0  0  0  0  0  0  0  0  0
   -6.3077   -2.6826   -3.0734 C   0  0  0  0  0  0  0  0  0  0  0  0
   -6.7069   -1.4007   -0.1440 C   0  0  0  0  0  0  0  0  0  0  0  0
   -6.5633   -0.3062    0.7153 C   0  0  0  0  0  0  0  0  0  0  0  0
   -3.8722    1.1834    2.8410 C   0  0  0  0  0  0  0  0  0  0  0  0
   -3.1949    2.3751    3.0913 C   0  0  0  0  0  0  0  0  0  0  0  0
   -3.7335    3.3462    2.1784 C   0  0  0  0  0  0  0  0  0  0  0  0
   -3.0610    4.7542    1.5452 S   0  0  0  0  0  0  0  0  0  0  0  0
   -4.1343    4.7122    0.2454 C   0  0  0  0  0  0  0  0  0  0  0  0
   -4.0715    5.3206   -1.0450 C   0  0  0  0  0  0  0  0  0  0  0  0
   -2.8233    6.0984   -1.8276 S   0  0  0  0  0  0  0  0  0  0  0  0
   -1.9344    2.4115    3.6956 C   0  0  0  0  0  0  0  0  0  0  0  0
   -1.2819    1.1819    3.9024 C   0  0  0  0  0  0  0  0  0  0  0  0
    0.2066    0.9620    4.1916 C   0  0  0  0  0  0  0  0  0  0  0  0
    1.0221    2.0942    3.5362 C   0  0  0  0  0  0  0  0  0  0  0  0
    1.9555    2.8765    4.2549 C   0  0  0  0  0  0  0  0  0  0  0  0
    2.5953    3.9644    3.6550 C   0  0  0  0  0  0  0  0  0  0  0  0
    2.3213    4.3064    2.3257 C   0  0  0  0  0  0  0  0  0  0  0  0
    3.0404    5.4599    1.6795 C   0  0  0  0  0  0  0  0  0  0  0  0
    4.4047    5.0206    1.1575 C   0  0  0  0  0  0  0  0  0  0  0  0
    1.4090    3.5364    1.5942 C   0  0  0  0  0  0  0  0  0  0  0  0
    0.7652    2.4483    2.1905 C   0  0  0  0  0  0  0  0  0  0  0  0
    0.3024    0.8786    5.7307 C   0  0  0  0  0  0  0  0  0  0  0  0
    0.0035    2.0144    6.5156 C   0  0  0  0  0  0  0  0  0  0  0  0
   -0.0334    1.9388    7.9110 C   0  0  0  0  0  0  0  0  0  0  0  0
    0.1864    0.7179    8.5595 C   0  0  0  0  0  0  0  0  0  0  0  0
    0.1684    0.6386   10.0612 C   0  0  0  0  0  0  0  0  0  0  0  0
    1.5587    0.8983   10.6297 C   0  0  0  0  0  0  0  0  0  0  0  0
    0.4628   -0.4222    7.7980 C   0  0  0  0  0  0  0  0  0  0  0  0
    0.4992   -0.3495    6.4041 C   0  0  0  0  0  0  0  0  0  0  0  0
    0.3875   -0.4110    3.5082 C   0  0  0  0  0  0  0  0  0  0  0  0
   -0.8659   -0.9458    3.2754 C   0  0  0  0  0  0  0  0  0  0  0  0
   -1.9114    0.0006    3.5390 C   0  0  0  0  0  0  0  0  0  0  0  0
   -3.2373   -0.0475    3.1061 C   0  0  0  0  0  0  0  0  0  0  0  0
   -0.8579   -2.4783    2.5796 S   0  0  0  0  0  0  0  0  0  0  0  0
    0.8258   -2.4784    2.6144 C   0  0  0  0  0  0  0  0  0  0  0  0
    1.7978   -3.5052    2.4346 C   0  0  0  0  0  0  0  0  0  0  0  0
    3.0105   -3.0031    2.7760 C   0  0  0  0  0  0  0  0  0  0  0  0
    2.9442   -1.5503    3.2505 C   0  0  0  0  0  0  0  0  0  0  0  0
    1.4081   -1.3335    3.1288 C   0  0  0  0  0  0  0  0  0  0  0  0
    3.8465   -0.7565    2.2448 C   0  0  0  0  0  0  0  0  0  0  0  0
    3.5431    0.7125    2.0566 C   0  0  0  0  0  0  0  0  0  0  0  0
    3.4699   -1.5585    4.7097 C   0  0  0  0  0  0  0  0  0  0  0  0
    3.7360   -0.1874    5.3129 C   0  0  0  0  0  0  0  0  0  0  0  0
    4.0804   -3.7267    2.2367 C   0  0  0  0  0  0  0  0  0  0  0  0
    3.6462   -4.7796    1.4252 C   0  0  0  0  0  0  0  0  0  0  0  0
    1.9459   -4.7905    1.3671 S   0  0  0  0  0  0  0  0  0  0  0  0
    4.5144   -5.5046    0.4765 C   0  0  0  0  0  0  0  0  0  0  0  0
    5.3229   -4.7778   -0.4196 C   0  0  0  0  0  0  0  0  0  0  0  0
    5.2809   -3.4212   -0.4410 F   0  0  0  0  0  0  0  0  0  0  0  0
    6.1681   -5.4407   -1.3136 C   0  0  0  0  0  0  0  0  0  0  0  0
    6.9354   -4.7174   -2.1701 F   0  0  0  0  0  0  0  0  0  0  0  0
    6.2115   -6.8396   -1.3397 C   0  0  0  0  0  0  0  0  0  0  0  0
    5.4244   -7.5744   -0.4361 C   0  0  0  0  0  0  0  0  0  0  0  0
    5.5118   -8.9278   -0.3877 N   0  0  0  0  0  0  0  0  0  0  0  0
    4.7956   -9.6624    0.5029 C   0  0  0  0  0  0  0  0  0  0  0  0
    4.9413  -11.0547    0.5522 O   0  0  0  0  0  0  0  0  0  0  0  0
    5.8913  -11.7721   -0.2358 C   0  0  0  0  0  0  0  0  0  0  0  0
    7.3106  -11.5267    0.2683 C   0  0  0  0  0  0  0  0  0  0  0  0
    3.9243   -9.0048    1.3858 C   0  0  0  0  0  0  0  0  0  0  0  0
    3.8361   -7.6479    1.3456 N   0  0  0  0  0  0  0  0  0  0  0  0
    4.5663   -6.9097    0.4638 C   0  0  0  0  0  0  0  0  0  0  0  0
    3.1025   -9.7722    2.3742 C   0  0  0  0  0  0  0  0  0  0  0  0
    7.1319   -7.5239   -2.2684 C   0  0  0  0  0  0  0  0  0  0  0  0
    6.7115   -8.2809   -3.2969 C   0  0  0  0  0  0  0  0  0  0  0  0
    5.3444   -8.3134   -3.8346 C   0  0  0  0  0  0  0  0  0  0  0  0
    4.3153   -7.8304   -3.2971 O   0  0  0  0  0  0  0  0  0  0  0  0
    5.4037   -8.8732   -5.1700 C   0  0  0  0  0  0  0  0  0  0  0  0
    4.3634   -9.0182   -6.0883 C   0  0  0  0  0  0  0  0  0  0  0  0
    4.6639   -9.5108   -7.3661 C   0  0  0  0  0  0  0  0  0  0  0  0
    3.3775   -9.7100   -8.5427 Cl  0  0  0  0  0  0  0  0  0  0  0  0
    5.9953   -9.8186   -7.7093 C   0  0  0  0  0  0  0  0  0  0  0  0
    6.2938  -10.2531   -8.9605 F   0  0  0  0  0  0  0  0  0  0  0  0
    7.0266   -9.6647   -6.7683 C   0  0  0  0  0  0  0  0  0  0  0  0
    6.7105   -9.2122   -5.4767 C   0  0  0  0  0  0  0  0  0  0  0  0
    7.5801   -8.9723   -4.2927 C   0  0  0  0  0  0  0  0  0  0  0  0
    8.7849   -9.5370   -4.0398 C   0  0  0  0  0  0  0  0  0  0  0  0
    9.3374   -9.5740   -2.7074 C   0  0  0  0  0  0  0  0  0  0  0  0
    9.7655   -9.6249   -1.6366 N   0  0  0  0  0  0  0  0  0  0  0  0
    9.5276  -10.2668   -5.0366 C   0  0  0  0  0  0  0  0  0  0  0  0
   10.1344  -10.8558   -5.8272 N   0  0  0  0  0  0  0  0  0  0  0  0
    1.3652    6.7182   -7.6778 H   0  0  0  0  0  0  0  0  0  0  0  0
    3.4189    3.2882   -2.8730 H   0  0  0  0  0  0  0  0  0  0  0  0
    6.5508    5.4103   -6.1113 H   0  0  0  0  0  0  0  0  0  0  0  0
   -5.0721    2.1643   -5.4567 H   0  0  0  0  0  0  0  0  0  0  0  0
   -5.4151    0.7614   -6.5252 H   0  0  0  0  0  0  0  0  0  0  0  0
   -3.6152   -0.5667   -5.5182 H   0  0  0  0  0  0  0  0  0  0  0  0
   -4.6948    0.0639   -4.2078 H   0  0  0  0  0  0  0  0  0  0  0  0
   -3.0859    0.8372   -4.5230 H   0  0  0  0  0  0  0  0  0  0  0  0
   -1.2916    0.8257   -8.0712 H   0  0  0  0  0  0  0  0  0  0  0  0
   -0.2517    2.0164   -8.9406 H   0  0  0  0  0  0  0  0  0  0  0  0
   -2.0123    1.9104   -9.3313 H   0  0  0  0  0  0  0  0  0  0  0  0
   -4.7892    4.1564   -4.0824 H   0  0  0  0  0  0  0  0  0  0  0  0
   -7.2506    4.5442   -0.8175 H   0  0  0  0  0  0  0  0  0  0  0  0
   -7.2829    3.6918   -2.3905 H   0  0  0  0  0  0  0  0  0  0  0  0
   -8.8948    2.7671   -0.7239 H   0  0  0  0  0  0  0  0  0  0  0  0
   -7.5338    2.3088    0.3434 H   0  0  0  0  0  0  0  0  0  0  0  0
   -7.7199    1.5325   -1.2818 H   0  0  0  0  0  0  0  0  0  0  0  0
   -5.3419    2.0594   -2.9767 H   0  0  0  0  0  0  0  0  0  0  0  0
   -5.4695    1.1956   -1.4591 H   0  0  0  0  0  0  0  0  0  0  0  0
   -3.2149    0.8166   -2.1759 H   0  0  0  0  0  0  0  0  0  0  0  0
   -3.0111    2.0973   -0.9389 H   0  0  0  0  0  0  0  0  0  0  0  0
   -2.9735    2.5170   -2.6861 H   0  0  0  0  0  0  0  0  0  0  0  0
   -6.8719    3.6190    2.2604 H   0  0  0  0  0  0  0  0  0  0  0  0
   -8.5535    3.9589    3.9658 H   0  0  0  0  0  0  0  0  0  0  0  0
  -10.1442    2.7906    5.6428 H   0  0  0  0  0  0  0  0  0  0  0  0
   -9.5069    1.3911    6.5629 H   0  0  0  0  0  0  0  0  0  0  0  0
   -9.2666    3.4384    7.9088 H   0  0  0  0  0  0  0  0  0  0  0  0
   -8.3875    4.2711    6.5803 H   0  0  0  0  0  0  0  0  0  0  0  0
   -7.6193    2.8671    7.4309 H   0  0  0  0  0  0  0  0  0  0  0  0
   -7.7344    0.0601    5.5971 H   0  0  0  0  0  0  0  0  0  0  0  0
   -6.0540   -0.3217    3.8569 H   0  0  0  0  0  0  0  0  0  0  0  0
   -3.1995    0.1477    0.3927 H   0  0  0  0  0  0  0  0  0  0  0  0
   -3.4631   -1.7530   -1.1094 H   0  0  0  0  0  0  0  0  0  0  0  0
   -6.4468   -3.8592   -1.2639 H   0  0  0  0  0  0  0  0  0  0  0  0
   -4.7794   -3.6299   -1.8764 H   0  0  0  0  0  0  0  0  0  0  0  0
   -5.6194   -1.9581   -3.5515 H   0  0  0  0  0  0  0  0  0  0  0  0
   -6.4065   -3.5651   -3.7390 H   0  0  0  0  0  0  0  0  0  0  0  0
   -7.3072   -2.2151   -2.9504 H   0  0  0  0  0  0  0  0  0  0  0  0
   -7.6908   -1.8288   -0.2924 H   0  0  0  0  0  0  0  0  0  0  0  0
   -7.4501    0.0679    1.2049 H   0  0  0  0  0  0  0  0  0  0  0  0
   -1.4080    3.3493    3.8060 H   0  0  0  0  0  0  0  0  0  0  0  0
    2.2120    2.6568    5.2797 H   0  0  0  0  0  0  0  0  0  0  0  0
    3.3132    4.5381    4.2272 H   0  0  0  0  0  0  0  0  0  0  0  0
    2.4409    5.8697    0.8372 H   0  0  0  0  0  0  0  0  0  0  0  0
    3.1766    6.2814    2.4184 H   0  0  0  0  0  0  0  0  0  0  0  0
    5.0414    4.6640    1.9944 H   0  0  0  0  0  0  0  0  0  0  0  0
    4.2874    4.2047    0.4132 H   0  0  0  0  0  0  0  0  0  0  0  0
    4.9116    5.8793    0.6690 H   0  0  0  0  0  0  0  0  0  0  0  0
    1.1931    3.7784    0.5608 H   0  0  0  0  0  0  0  0  0  0  0  0
    0.0603    1.8761    1.6001 H   0  0  0  0  0  0  0  0  0  0  0  0
   -0.2114    2.9637    6.0444 H   0  0  0  0  0  0  0  0  0  0  0  0
   -0.2479    2.8318    8.4846 H   0  0  0  0  0  0  0  0  0  0  0  0
   -0.1774   -0.3667   10.3891 H   0  0  0  0  0  0  0  0  0  0  0  0
   -0.5448    1.3843   10.4761 H   0  0  0  0  0  0  0  0  0  0  0  0
    1.9192    1.9010   10.3192 H   0  0  0  0  0  0  0  0  0  0  0  0
    1.5216    0.8655   11.7394 H   0  0  0  0  0  0  0  0  0  0  0  0
    2.2709    0.1235   10.2734 H   0  0  0  0  0  0  0  0  0  0  0  0
    0.6313   -1.3767    8.2806 H   0  0  0  0  0  0  0  0  0  0  0  0
    0.6563   -1.2713    5.8659 H   0  0  0  0  0  0  0  0  0  0  0  0
   -3.6761   -0.9864    2.7968 H   0  0  0  0  0  0  0  0  0  0  0  0
    4.9120   -0.8567    2.5478 H   0  0  0  0  0  0  0  0  0  0  0  0
    3.7740   -1.2013    1.2256 H   0  0  0  0  0  0  0  0  0  0  0  0
    4.3155    1.1706    1.4021 H   0  0  0  0  0  0  0  0  0  0  0  0
    3.5594    1.2448    3.0161 H   0  0  0  0  0  0  0  0  0  0  0  0
    2.5746    0.8049    1.5359 H   0  0  0  0  0  0  0  0  0  0  0  0
    2.7624   -2.1136    5.3610 H   0  0  0  0  0  0  0  0  0  0  0  0
    4.4355   -2.1147    4.7516 H   0  0  0  0  0  0  0  0  0  0  0  0
    3.8874   -0.2847    6.4106 H   0  0  0  0  0  0  0  0  0  0  0  0
    4.6549    0.2573    4.8758 H   0  0  0  0  0  0  0  0  0  0  0  0
    2.8787    0.4736    5.1378 H   0  0  0  0  0  0  0  0  0  0  0  0
    5.1132   -3.4103    2.3082 H   0  0  0  0  0  0  0  0  0  0  0  0
    5.8072  -11.4764   -1.3047 H   0  0  0  0  0  0  0  0  0  0  0  0
    5.6703  -12.8567   -0.1557 H   0  0  0  0  0  0  0  0  0  0  0  0
    7.3798  -11.7662    1.3513 H   0  0  0  0  0  0  0  0  0  0  0  0
    7.6048  -10.4672    0.1117 H   0  0  0  0  0  0  0  0  0  0  0  0
    8.0248  -12.1717   -0.2887 H   0  0  0  0  0  0  0  0  0  0  0  0
    2.5389   -9.0805    3.0344 H   0  0  0  0  0  0  0  0  0  0  0  0
    2.3822  -10.4248    1.8373 H   0  0  0  0  0  0  0  0  0  0  0  0
    3.7644  -10.3995    3.0083 H   0  0  0  0  0  0  0  0  0  0  0  0
    8.1896   -7.3387   -2.1339 H   0  0  0  0  0  0  0  0  0  0  0  0
    3.3502   -8.7476   -5.8221 H   0  0  0  0  0  0  0  0  0  0  0  0
    8.0401   -9.8670   -7.0733 H   0  0  0  0  0  0  0  0  0  0  0  0
  1  2  2  3
  2  3  1  0
  3  4  2  0
  3  5  1  0
  5  6  2  0
  6  7  1  0
  7  8  1  0
  7  9  2  0
  9 10  1  0
  9 11  1  0
 11 12  2  0
 12 13  1  0
 13 14  2  3
 14 15  1  0
 15 16  3  0
 14 17  1  0
 17 18  3  0
  1 19  1  0
 19 20  2  0
 20 21  1  0
 20 22  1  0
 22 23  1  0
 22 24  2  0
 24 25  1  0
 25 26  2  0
 26 27  1  0
 27 28  1  0
 28 29  1  0
 29 30  1  0
 27 31  2  0
 31 32  1  0
 32 33  2  0
 31 34  1  0
 24 35  1  0
 35 36  2  0
 36 37  1  0
 37 38  1  0
 38 39  1  0
 39 40  1  0
 38 41  1  0
 41 42  1  0
 38 43  1  0
 43 44  1  0
 44 45  1  0
 45 46  1  0
 46 47  2  0
 47 48  1  0
 48 49  2  0
 49 50  1  0
 50 51  1  0
 49 52  1  0
 52 53  2  0
 45 54  1  0
 54 55  2  0
 55 56  1  0
 56 57  2  0
 57 58  1  0
 58 59  1  0
 57 60  1  0
 60 61  2  0
 45 62  1  0
 62 63  2  0
 63 64  1  0
 64 65  1  0
 65 66  1  0
 66 67  1  0
 67 68  1  0
 63 69  1  0
 69 70  2  0
 70 71  1  0
 71 72  1  0
 72 73  2  0
 73 74  1  0
 74 75  2  0
 75 76  1  0
 76 77  1  0
 75 78  1  0
 78 79  2  0
 71 80  1  0
 80 81  2  0
 81 82  1  0
 82 83  2  0
 83 84  1  0
 84 85  1  0
 83 86  1  0
 86 87  2  0
 71 88  1  0
 88 89  2  0
 89 90  1  0
 90 91  2  0
 89 92  1  0
 92 93  1  0
 93 94  1  0
 94 95  2  0
 95 96  1  0
 96 97  1  0
 96 98  1  0
 98 99  1  0
 96100  1  0
100101  1  0
 95102  1  0
102103  2  0
103104  1  0
103105  1  0
105106  2  0
106107  1  0
106108  1  0
108109  1  0
108110  2  0
110111  1  0
111112  2  0
112113  1  0
113114  1  0
114115  1  0
115116  1  0
113117  2  0
117118  1  0
118119  2  0
117120  1  0
110121  1  0
121122  2  3
122123  1  0
123124  2  0
123125  1  0
125126  2  0
126127  1  0
127128  1  0
127129  2  0
129130  1  0
129131  1  0
131132  2  0
132133  1  0
133134  2  3
134135  1  0
135136  3  0
134137  1  0
137138  3  0
 13  2  1  0
 33 19  1  0
 68 35  1  0
 90 70  1  0
 97 93  2  0
119105  1  0
133122  1  0
 12  5  1  0
 33 25  1  0
 67 37  2  0
 79 72  1  0
 87 80  1  0
 97 88  1  0
119111  1  0
132125  1  0
 66 43  2  0
104 94  1  0
 64 44  2  0
 53 46  1  0
 61 54  1  0
 91 62  1  0
  1139  1  0
  6140  1  0
 11141  1  0
 29142  1  0
 29143  1  0
 30144  1  0
 30145  1  0
 30146  1  0
 34147  1  0
 34148  1  0
 34149  1  0
 36150  1  0
 39151  1  0
 39152  1  0
 40153  1  0
 40154  1  0
 40155  1  0
 41156  1  0
 41157  1  0
 42158  1  0
 42159  1  0
 42160  1  0
 47161  1  0
 48162  1  0
 50163  1  0
 50164  1  0
 51165  1  0
 51166  1  0
 51167  1  0
 52168  1  0
 53169  1  0
 55170  1  0
 56171  1  0
 58172  1  0
 58173  1  0
 59174  1  0
 59175  1  0
 59176  1  0
 60177  1  0
 61178  1  0
 69179  1  0
 73180  1  0
 74181  1  0
 76182  1  0
 76183  1  0
 77184  1  0
 77185  1  0
 77186  1  0
 78187  1  0
 79188  1  0
 81189  1  0
 82190  1  0
 84191  1  0
 84192  1  0
 85193  1  0
 85194  1  0
 85195  1  0
 86196  1  0
 87197  1  0
 91198  1  0
 98199  1  0
 98200  1  0
 99201  1  0
 99202  1  0
 99203  1  0
100204  1  0
100205  1  0
101206  1  0
101207  1  0
101208  1  0
102209  1  0
115210  1  0
115211  1  0
116212  1  0
116213  1  0
116214  1  0
120215  1  0
120216  1  0
120217  1  0
121218  1  0
126219  1  0
131220  1  0
M  END

