
     RDKit          3D

203225  0  0  0  0  0  0  0  0999 V2000
    8.5243    4.6505    6.3886 C   0  0  0  0  0  0  0  0  0  0  0  0
    7.3875    3.9159    6.3350 C   0  0  0  0  0  0  0  0  0  0  0  0
    6.2108    4.2820    7.1229 C   0  0  0  0  0  0  0  0  0  0  0  0
    6.2173    4.8468    8.2485 O   0  0  0  0  0  0  0  0  0  0  0  0
    5.0293    4.0000    6.3244 C   0  0  0  0  0  0  0  0  0  0  0  0
    3.6939    4.2980    6.5985 C   0  0  0  0  0  0  0  0  0  0  0  0
    2.7271    4.0133    5.6209 C   0  0  0  0  0  0  0  0  0  0  0  0
    1.0418    4.3961    5.9276 Cl  0  0  0  0  0  0  0  0  0  0  0  0
    3.1146    3.4469    4.3897 C   0  0  0  0  0  0  0  0  0  0  0  0
    2.1813    3.1997    3.4356 F   0  0  0  0  0  0  0  0  0  0  0  0
    4.4652    3.1543    4.1320 C   0  0  0  0  0  0  0  0  0  0  0  0
    5.4142    3.4121    5.1302 C   0  0  0  0  0  0  0  0  0  0  0  0
    6.8752    3.1655    5.1522 C   0  0  0  0  0  0  0  0  0  0  0  0
    7.4744    2.0751    4.6107 C   0  0  0  0  0  0  0  0  0  0  0  0
    8.6179    1.4698    5.2477 C   0  0  0  0  0  0  0  0  0  0  0  0
    9.5250    0.9713    5.7741 N   0  0  0  0  0  0  0  0  0  0  0  0
    6.8711    1.3051    3.5529 C   0  0  0  0  0  0  0  0  0  0  0  0
    6.3944    0.6830    2.7036 N   0  0  0  0  0  0  0  0  0  0  0  0
    9.2632    5.0011    5.1658 C   0  0  0  0  0  0  0  0  0  0  0  0
   10.2199    4.1273    4.6150 C   0  0  0  0  0  0  0  0  0  0  0  0
   10.6152    4.3256    3.2915 C   0  0  0  0  0  0  0  0  0  0  0  0
   11.0754    3.3077    2.3555 C   0  0  0  0  0  0  0  0  0  0  0  0
   11.4995    2.1590    2.6525 O   0  0  0  0  0  0  0  0  0  0  0  0
   10.7774    3.7941    1.0105 C   0  0  0  0  0  0  0  0  0  0  0  0
   10.2750    5.0842    1.1299 C   0  0  0  0  0  0  0  0  0  0  0  0
   10.1592    5.4101    2.5553 C   0  0  0  0  0  0  0  0  0  0  0  0
    9.3265    6.3684    3.1384 C   0  0  0  0  0  0  0  0  0  0  0  0
    8.8756    6.1567    4.4527 C   0  0  0  0  0  0  0  0  0  0  0  0
    9.5820    5.6833    0.0744 C   0  0  0  0  0  0  0  0  0  0  0  0
    9.2764    4.9075   -1.0519 C   0  0  0  0  0  0  0  0  0  0  0  0
    9.6374    3.5446   -1.1009 C   0  0  0  0  0  0  0  0  0  0  0  0
   10.4662    3.0048   -0.0973 C   0  0  0  0  0  0  0  0  0  0  0  0
    8.7905    2.6208   -1.8712 C   0  0  0  0  0  0  0  0  0  0  0  0
    9.2217    1.4610   -2.5422 C   0  0  0  0  0  0  0  0  0  0  0  0
   10.6200    1.2152   -2.9510 C   0  0  0  0  0  0  0  0  0  0  0  0
   11.2568   -0.0051   -2.6717 C   0  0  0  0  0  0  0  0  0  0  0  0
   12.5761   -0.2203   -3.0785 C   0  0  0  0  0  0  0  0  0  0  0  0
   13.2664    0.7713   -3.7824 C   0  0  0  0  0  0  0  0  0  0  0  0
   12.6440    2.0008   -4.0592 C   0  0  0  0  0  0  0  0  0  0  0  0
   13.3594    3.0479   -4.8685 C   0  0  0  0  0  0  0  0  0  0  0  0
   12.9606    2.9460   -6.3378 C   0  0  0  0  0  0  0  0  0  0  0  0
   11.3241    2.2161   -3.6390 C   0  0  0  0  0  0  0  0  0  0  0  0
    8.1573    0.5753   -2.7524 C   0  0  0  0  0  0  0  0  0  0  0  0
    8.0539   -1.0412   -3.3075 S   0  0  0  0  0  0  0  0  0  0  0  0
    6.4291   -1.1275   -2.8212 C   0  0  0  0  0  0  0  0  0  0  0  0
    5.4379   -2.0525   -2.6556 C   0  0  0  0  0  0  0  0  0  0  0  0
    5.3161   -3.3596   -3.1233 C   0  0  0  0  0  0  0  0  0  0  0  0
    4.1221   -4.0784   -2.8338 C   0  0  0  0  0  0  0  0  0  0  0  0
    4.0292   -5.3377   -3.3272 N   0  0  0  0  0  0  0  0  0  0  0  0
    5.4789   -5.4366   -4.1184 S   0  0  0  0  0  0  0  0  0  0  0  0
    6.2471   -3.9889   -3.8824 N   0  0  0  0  0  0  0  0  0  0  0  0
    3.1634   -3.4770   -2.0168 C   0  0  0  0  0  0  0  0  0  0  0  0
    1.9927   -3.9591   -1.5090 C   0  0  0  0  0  0  0  0  0  0  0  0
    0.8705   -5.1837   -1.8508 S   0  0  0  0  0  0  0  0  0  0  0  0
   -0.2829   -4.4481   -0.8176 C   0  0  0  0  0  0  0  0  0  0  0  0
   -1.6769   -4.5774   -0.7463 C   0  0  0  0  0  0  0  0  0  0  0  0
   -2.4087   -5.5280   -1.6063 C   0  0  0  0  0  0  0  0  0  0  0  0
   -2.1423   -6.9016   -1.5254 C   0  0  0  0  0  0  0  0  0  0  0  0
   -2.7519   -7.7913   -2.4106 C   0  0  0  0  0  0  0  0  0  0  0  0
   -3.5941   -7.3138   -3.4149 C   0  0  0  0  0  0  0  0  0  0  0  0
   -3.8334   -5.9348   -3.5401 C   0  0  0  0  0  0  0  0  0  0  0  0
   -4.7096   -5.4097   -4.6456 C   0  0  0  0  0  0  0  0  0  0  0  0
   -6.1102   -5.0816   -4.1398 C   0  0  0  0  0  0  0  0  0  0  0  0
   -3.2602   -5.0498   -2.6152 C   0  0  0  0  0  0  0  0  0  0  0  0
   -2.2477   -3.4890   -0.0511 C   0  0  0  0  0  0  0  0  0  0  0  0
   -1.0250   -2.3844    0.3835 S   0  0  0  0  0  0  0  0  0  0  0  0
    0.2190   -3.3035   -0.2476 C   0  0  0  0  0  0  0  0  0  0  0  0
    1.5115   -3.0226   -0.6640 C   0  0  0  0  0  0  0  0  0  0  0  0
    2.2947   -1.9201   -0.5887 N   0  0  0  0  0  0  0  0  0  0  0  0
    3.3056   -2.1800   -1.4888 C   0  0  0  0  0  0  0  0  0  0  0  0
    4.4256   -1.4057   -1.9168 C   0  0  0  0  0  0  0  0  0  0  0  0
    4.7403   -0.0740   -1.7516 N   0  0  0  0  0  0  0  0  0  0  0  0
    5.9843    0.0255   -2.2761 C   0  0  0  0  0  0  0  0  0  0  0  0
    6.9549    1.0077   -2.2570 C   0  0  0  0  0  0  0  0  0  0  0  0
    7.1276    2.4933   -1.5167 S   0  0  0  0  0  0  0  0  0  0  0  0
    3.8758    1.0861   -1.4881 C   0  0  0  0  0  0  0  0  0  0  0  0
    2.6424    1.0872   -2.3947 C   0  0  0  0  0  0  0  0  0  0  0  0
    2.1904   -0.9177    0.4850 C   0  0  0  0  0  0  0  0  0  0  0  0
    3.4450   -0.8849    1.3590 C   0  0  0  0  0  0  0  0  0  0  0  0
   -3.6767   -3.1437    0.0352 C   0  0  0  0  0  0  0  0  0  0  0  0
   -4.7740   -3.9907    0.3146 C   0  0  0  0  0  0  0  0  0  0  0  0
   -4.6643   -5.3114    0.8947 N   0  0  0  0  0  0  0  0  0  0  0  0
   -3.6256   -5.5900    1.8597 C   0  0  0  0  0  0  0  0  0  0  0  0
   -3.2843   -4.6441    2.8369 C   0  0  0  0  0  0  0  0  0  0  0  0
   -2.2634   -4.9077    3.7559 C   0  0  0  0  0  0  0  0  0  0  0  0
   -1.5663   -6.1199    3.7059 C   0  0  0  0  0  0  0  0  0  0  0  0
   -0.4793   -6.3904    4.7052 C   0  0  0  0  0  0  0  0  0  0  0  0
   -1.9273   -7.0840    2.7502 C   0  0  0  0  0  0  0  0  0  0  0  0
   -2.9488   -6.8189    1.8351 C   0  0  0  0  0  0  0  0  0  0  0  0
   -5.6766   -6.3085    0.6448 C   0  0  0  0  0  0  0  0  0  0  0  0
   -6.1006   -6.5758   -0.6628 C   0  0  0  0  0  0  0  0  0  0  0  0
   -7.0453   -7.5753   -0.9149 C   0  0  0  0  0  0  0  0  0  0  0  0
   -7.5999   -8.3096    0.1448 C   0  0  0  0  0  0  0  0  0  0  0  0
   -8.5782   -9.4160   -0.1249 C   0  0  0  0  0  0  0  0  0  0  0  0
   -7.1853   -8.0383    1.4565 C   0  0  0  0  0  0  0  0  0  0  0  0
   -6.2375   -7.0407    1.7052 C   0  0  0  0  0  0  0  0  0  0  0  0
   -5.9754   -3.2710    0.2379 C   0  0  0  0  0  0  0  0  0  0  0  0
   -7.6093   -3.6091    0.4928 S   0  0  0  0  0  0  0  0  0  0  0  0
   -8.1150   -1.9889    0.2867 C   0  0  0  0  0  0  0  0  0  0  0  0
   -6.9900   -1.1885    0.0284 C   0  0  0  0  0  0  0  0  0  0  0  0
   -6.9825    0.2489   -0.0469 N   0  0  0  0  0  0  0  0  0  0  0  0
   -6.8994    0.8336   -1.3610 C   0  0  0  0  0  0  0  0  0  0  0  0
   -5.8003    1.6309   -1.7230 C   0  0  0  0  0  0  0  0  0  0  0  0
   -5.6983    2.1558   -3.0138 C   0  0  0  0  0  0  0  0  0  0  0  0
   -6.6854    1.8773   -3.9708 C   0  0  0  0  0  0  0  0  0  0  0  0
   -6.5775    2.4455   -5.3567 C   0  0  0  0  0  0  0  0  0  0  0  0
   -7.7981    1.1015   -3.6080 C   0  0  0  0  0  0  0  0  0  0  0  0
   -7.8994    0.5799   -2.3145 C   0  0  0  0  0  0  0  0  0  0  0  0
   -6.6894    1.0365    1.1433 C   0  0  0  0  0  0  0  0  0  0  0  0
   -6.1614    0.4384    2.3079 C   0  0  0  0  0  0  0  0  0  0  0  0
   -5.8944    1.2007    3.4483 C   0  0  0  0  0  0  0  0  0  0  0  0
   -6.1261    2.5792    3.4481 C   0  0  0  0  0  0  0  0  0  0  0  0
   -5.8667    3.3789    4.6925 C   0  0  0  0  0  0  0  0  0  0  0  0
   -6.6727    3.1826    2.3084 C   0  0  0  0  0  0  0  0  0  0  0  0
   -6.9556    2.4212    1.1694 C   0  0  0  0  0  0  0  0  0  0  0  0
   -5.8315   -1.9463   -0.0193 C   0  0  0  0  0  0  0  0  0  0  0  0
   -4.2257   -1.5528   -0.2179 S   0  0  0  0  0  0  0  0  0  0  0  0
   -9.5082   -1.5653    0.0988 C   0  0  0  0  0  0  0  0  0  0  0  0
  -10.1128   -0.6898    0.9172 C   0  0  0  0  0  0  0  0  0  0  0  0
   -9.5618   -0.2124    2.1835 C   0  0  0  0  0  0  0  0  0  0  0  0
   -8.7874   -0.8525    2.9436 O   0  0  0  0  0  0  0  0  0  0  0  0
  -10.0999    1.1068    2.4435 C   0  0  0  0  0  0  0  0  0  0  0  0
   -9.6999    2.0224    3.4154 C   0  0  0  0  0  0  0  0  0  0  0  0
  -10.2192    3.3236    3.3668 C   0  0  0  0  0  0  0  0  0  0  0  0
   -9.7082    4.5115    4.5555 Cl  0  0  0  0  0  0  0  0  0  0  0  0
  -11.1153    3.6848    2.3407 C   0  0  0  0  0  0  0  0  0  0  0  0
  -11.5936    4.9551    2.2717 F   0  0  0  0  0  0  0  0  0  0  0  0
  -11.5027    2.7475    1.3668 C   0  0  0  0  0  0  0  0  0  0  0  0
  -11.0102    1.4358    1.4554 C   0  0  0  0  0  0  0  0  0  0  0  0
  -11.1820    0.2775    0.5357 C   0  0  0  0  0  0  0  0  0  0  0  0
  -12.2183    0.0539   -0.3090 C   0  0  0  0  0  0  0  0  0  0  0  0
  -12.3877   -1.2025   -0.9962 C   0  0  0  0  0  0  0  0  0  0  0  0
  -12.5249   -2.2110   -1.5521 N   0  0  0  0  0  0  0  0  0  0  0  0
  -13.3073    0.9874   -0.4404 C   0  0  0  0  0  0  0  0  0  0  0  0
  -14.1900    1.7318   -0.5276 N   0  0  0  0  0  0  0  0  0  0  0  0
    8.6644    5.3166    7.2325 H   0  0  0  0  0  0  0  0  0  0  0  0
    3.4096    4.7471    7.5390 H   0  0  0  0  0  0  0  0  0  0  0  0
    4.7443    2.7563    3.1698 H   0  0  0  0  0  0  0  0  0  0  0  0
   10.5509    3.2536    5.1542 H   0  0  0  0  0  0  0  0  0  0  0  0
    8.9283    7.1865    2.5536 H   0  0  0  0  0  0  0  0  0  0  0  0
    8.1506    6.8413    4.8754 H   0  0  0  0  0  0  0  0  0  0  0  0
    9.1604    6.6753    0.1737 H   0  0  0  0  0  0  0  0  0  0  0  0
    8.6228    5.3241   -1.8080 H   0  0  0  0  0  0  0  0  0  0  0  0
   10.6717    1.9415   -0.0618 H   0  0  0  0  0  0  0  0  0  0  0  0
   10.7445   -0.7758   -2.1145 H   0  0  0  0  0  0  0  0  0  0  0  0
   13.0674   -1.1557   -2.8473 H   0  0  0  0  0  0  0  0  0  0  0  0
   14.2781    0.5811   -4.1084 H   0  0  0  0  0  0  0  0  0  0  0  0
   13.1053    4.0623   -4.4885 H   0  0  0  0  0  0  0  0  0  0  0  0
   14.4618    2.9263   -4.7805 H   0  0  0  0  0  0  0  0  0  0  0  0
   11.8645    3.1019   -6.4518 H   0  0  0  0  0  0  0  0  0  0  0  0
   13.2294    1.9457   -6.7480 H   0  0  0  0  0  0  0  0  0  0  0  0
   13.4861    3.7247   -6.9285 H   0  0  0  0  0  0  0  0  0  0  0  0
   10.8360    3.1543   -3.8727 H   0  0  0  0  0  0  0  0  0  0  0  0
   -1.4542   -7.2866   -0.7811 H   0  0  0  0  0  0  0  0  0  0  0  0
   -2.5526   -8.8529   -2.3305 H   0  0  0  0  0  0  0  0  0  0  0  0
   -4.0482   -8.0190   -4.1041 H   0  0  0  0  0  0  0  0  0  0  0  0
   -4.2531   -4.4937   -5.0834 H   0  0  0  0  0  0  0  0  0  0  0  0
   -4.7895   -6.1580   -5.4673 H   0  0  0  0  0  0  0  0  0  0  0  0
   -6.0649   -4.2993   -3.3508 H   0  0  0  0  0  0  0  0  0  0  0  0
   -6.5991   -5.9912   -3.7292 H   0  0  0  0  0  0  0  0  0  0  0  0
   -6.7281   -4.6970   -4.9757 H   0  0  0  0  0  0  0  0  0  0  0  0
   -3.4340   -3.9836   -2.7151 H   0  0  0  0  0  0  0  0  0  0  0  0
    3.6440    1.1747   -0.4157 H   0  0  0  0  0  0  0  0  0  0  0  0
    4.4155    2.0245   -1.7169 H   0  0  0  0  0  0  0  0  0  0  0  0
    2.9553    1.1468   -3.4578 H   0  0  0  0  0  0  0  0  0  0  0  0
    2.0089    1.9729   -2.1568 H   0  0  0  0  0  0  0  0  0  0  0  0
    2.0353    0.1725   -2.2542 H   0  0  0  0  0  0  0  0  0  0  0  0
    1.9138    0.0683    0.0780 H   0  0  0  0  0  0  0  0  0  0  0  0
    1.3524   -1.1720    1.1627 H   0  0  0  0  0  0  0  0  0  0  0  0
    4.3634   -0.7340    0.7650 H   0  0  0  0  0  0  0  0  0  0  0  0
    3.3689   -0.0489    2.0938 H   0  0  0  0  0  0  0  0  0  0  0  0
    3.5310   -1.8370    1.9221 H   0  0  0  0  0  0  0  0  0  0  0  0
   -3.8119   -3.7000    2.8882 H   0  0  0  0  0  0  0  0  0  0  0  0
   -2.0143   -4.1611    4.5028 H   0  0  0  0  0  0  0  0  0  0  0  0
   -0.9216   -6.4659    5.7217 H   0  0  0  0  0  0  0  0  0  0  0  0
    0.0511   -7.3403    4.4754 H   0  0  0  0  0  0  0  0  0  0  0  0
    0.2594   -5.5625    4.6827 H   0  0  0  0  0  0  0  0  0  0  0  0
   -1.4163   -8.0407    2.7134 H   0  0  0  0  0  0  0  0  0  0  0  0
   -3.2092   -7.5726    1.1030 H   0  0  0  0  0  0  0  0  0  0  0  0
   -5.6820   -6.0187   -1.4810 H   0  0  0  0  0  0  0  0  0  0  0  0
   -7.3377   -7.7812   -1.9381 H   0  0  0  0  0  0  0  0  0  0  0  0
   -8.0244  -10.3656   -0.2628 H   0  0  0  0  0  0  0  0  0  0  0  0
   -9.2869   -9.5311    0.7231 H   0  0  0  0  0  0  0  0  0  0  0  0
   -9.1654   -9.2029   -1.0423 H   0  0  0  0  0  0  0  0  0  0  0  0
   -7.5971   -8.6002    2.2879 H   0  0  0  0  0  0  0  0  0  0  0  0
   -5.9385   -6.8402    2.7273 H   0  0  0  0  0  0  0  0  0  0  0  0
   -5.0169    1.8322   -1.0030 H   0  0  0  0  0  0  0  0  0  0  0  0
   -4.8506    2.7765   -3.2736 H   0  0  0  0  0  0  0  0  0  0  0  0
   -7.0754    3.4374   -5.3922 H   0  0  0  0  0  0  0  0  0  0  0  0
   -5.5093    2.5608   -5.6413 H   0  0  0  0  0  0  0  0  0  0  0  0
   -7.0606    1.7709   -6.0965 H   0  0  0  0  0  0  0  0  0  0  0  0
   -8.5879    0.9023   -4.3231 H   0  0  0  0  0  0  0  0  0  0  0  0
   -8.7597   -0.0145   -2.0562 H   0  0  0  0  0  0  0  0  0  0  0  0
   -5.9560   -0.6213    2.3476 H   0  0  0  0  0  0  0  0  0  0  0  0
   -5.5103    0.7136    4.3366 H   0  0  0  0  0  0  0  0  0  0  0  0
   -4.9746    2.9887    5.2270 H   0  0  0  0  0  0  0  0  0  0  0  0
   -6.7458    3.3141    5.3673 H   0  0  0  0  0  0  0  0  0  0  0  0
   -5.6766    4.4450    4.4405 H   0  0  0  0  0  0  0  0  0  0  0  0
   -6.8942    4.2413    2.3077 H   0  0  0  0  0  0  0  0  0  0  0  0
   -7.3871    2.9175    0.3085 H   0  0  0  0  0  0  0  0  0  0  0  0
   -9.9188   -1.7680   -0.8751 H   0  0  0  0  0  0  0  0  0  0  0  0
   -8.9599    1.7491    4.1535 H   0  0  0  0  0  0  0  0  0  0  0  0
  -12.1295    3.0698    0.5467 H   0  0  0  0  0  0  0  0  0  0  0  0
  1  2  2  3
  2  3  1  0
  3  4  2  0
  3  5  1  0
  5  6  2  0
  6  7  1  0
  7  8  1  0
  7  9  2  0
  9 10  1  0
  9 11  1  0
 11 12  2  0
 12 13  1  0
 13 14  2  3
 14 15  1  0
 15 16  3  0
 14 17  1  0
 17 18  3  0
  1 19  1  0
 19 20  2  0
 20 21  1  0
 21 22  1  0
 22 23  2  0
 22 24  1  0
 24 25  2  0
 25 26  1  0
 26 27  1  0
 27 28  2  0
 25 29  1  0
 29 30  2  0
 30 31  1  0
 31 32  2  0
 31 33  1  0
 33 34  2  0
 34 35  1  0
 35 36  2  0
 36 37  1  0
 37 38  2  0
 38 39  1  0
 39 40  1  0
 40 41  1  0
 39 42  2  0
 34 43  1  0
 43 44  1  0
 44 45  1  0
 45 46  1  0
 46 47  1  0
 47 48  1  0
 48 49  2  0
 49 50  1  0
 50 51  1  0
 48 52  1  0
 52 53  1  0
 53 54  1  0
 54 55  1  0
 55 56  1  0
 56 57  1  0
 57 58  2  0
 58 59  1  0
 59 60  2  0
 60 61  1  0
 61 62  1  0
 62 63  1  0
 61 64  2  0
 56 65  2  0
 65 66  1  0
 66 67  1  0
 67 68  1  0
 68 69  1  0
 69 70  1  0
 70 71  1  0
 71 72  1  0
 72 73  1  0
 73 74  1  0
 74 75  1  0
 72 76  1  0
 76 77  1  0
 69 78  1  0
 78 79  1  0
 65 80  1  0
 80 81  2  0
 81 82  1  0
 82 83  1  0
 83 84  2  0
 84 85  1  0
 85 86  2  0
 86 87  1  0
 86 88  1  0
 88 89  2  0
 82 90  1  0
 90 91  2  0
 91 92  1  0
 92 93  2  0
 93 94  1  0
 93 95  1  0
 95 96  2  0
 81 97  1  0
 97 98  1  0
 98 99  1  0
 99100  2  0
100101  1  0
101102  1  0
102103  2  0
103104  1  0
104105  2  0
105106  1  0
105107  1  0
107108  2  0
101109  1  0
109110  2  0
110111  1  0
111112  2  0
112113  1  0
112114  1  0
114115  2  0
100116  1  0
116117  1  0
 99118  1  0
118119  2  3
119120  1  0
120121  2  0
120122  1  0
122123  2  0
123124  1  0
124125  1  0
124126  2  0
126127  1  0
126128  1  0
128129  2  0
129130  1  0
130131  2  3
131132  1  0
132133  3  0
131134  1  0
134135  3  0
 13  2  1  0
 28 19  1  0
 75 33  1  0
117 80  1  0
130119  1  0
 12  5  1  0
 26 21  2  0
 42 35  1  0
 74 43  2  0
 89 83  1  0
 96 90  1  0
116 97  2  0
129122  1  0
 32 24  1  0
 73 45  2  0
108102  1  0
115109  1  0
 71 46  2  0
 51 47  2  0
 70 52  2  0
 68 53  2  0
 67 55  2  0
 64 57  1  0
  1136  1  0
  6137  1  0
 11138  1  0
 20139  1  0
 27140  1  0
 28141  1  0
 29142  1  0
 30143  1  0
 32144  1  0
 36145  1  0
 37146  1  0
 38147  1  0
 40148  1  0
 40149  1  0
 41150  1  0
 41151  1  0
 41152  1  0
 42153  1  0
 58154  1  0
 59155  1  0
 60156  1  0
 62157  1  0
 62158  1  0
 63159  1  0
 63160  1  0
 63161  1  0
 64162  1  0
 76163  1  0
 76164  1  0
 77165  1  0
 77166  1  0
 77167  1  0
 78168  1  0
 78169  1  0
 79170  1  0
 79171  1  0
 79172  1  0
 84173  1  0
 85174  1  0
 87175  1  0
 87176  1  0
 87177  1  0
 88178  1  0
 89179  1  0
 91180  1  0
 92181  1  0
 94182  1  0
 94183  1  0
 94184  1  0
 95185  1  0
 96186  1  0
103187  1  0
104188  1  0
106189  1  0
106190  1  0
106191  1  0
107192  1  0
108193  1  0
110194  1  0
111195  1  0
113196  1  0
113197  1  0
113198  1  0
114199  1  0
115200  1  0
118201  1  0
123202  1  0
128203  1  0
M  END

