
     RDKit          3D

249274  0  0  0  0  0  0  0  0999 V2000
   -7.9079    7.5171    0.3156 C   0  0  0  0  0  0  0  0  0  0  0  0
   -7.7782    8.3050   -0.7715 C   0  0  0  0  0  0  0  0  0  0  0  0
   -6.4652    8.7373   -1.2623 C   0  0  0  0  0  0  0  0  0  0  0  0
   -5.5600    9.2653   -0.5583 O   0  0  0  0  0  0  0  0  0  0  0  0
   -6.3498    8.4450   -2.6720 C   0  0  0  0  0  0  0  0  0  0  0  0
   -5.1956    8.4362   -3.4573 C   0  0  0  0  0  0  0  0  0  0  0  0
   -5.2802    7.9348   -4.7649 C   0  0  0  0  0  0  0  0  0  0  0  0
   -3.8340    7.8662   -5.7599 Cl  0  0  0  0  0  0  0  0  0  0  0  0
   -6.5107    7.4452   -5.2532 C   0  0  0  0  0  0  0  0  0  0  0  0
   -6.5860    6.9233   -6.5013 F   0  0  0  0  0  0  0  0  0  0  0  0
   -7.6564    7.4530   -4.4341 C   0  0  0  0  0  0  0  0  0  0  0  0
   -7.5605    7.9746   -3.1361 C   0  0  0  0  0  0  0  0  0  0  0  0
   -8.5449    7.9933   -2.0171 C   0  0  0  0  0  0  0  0  0  0  0  0
   -9.8912    7.8814   -2.1141 C   0  0  0  0  0  0  0  0  0  0  0  0
  -10.7486    8.1001   -0.9770 C   0  0  0  0  0  0  0  0  0  0  0  0
  -11.4363    8.2829   -0.0620 N   0  0  0  0  0  0  0  0  0  0  0  0
  -10.5702    7.6521   -3.3658 C   0  0  0  0  0  0  0  0  0  0  0  0
  -11.1410    7.4730   -4.3602 N   0  0  0  0  0  0  0  0  0  0  0  0
   -7.0587    6.3086    0.4357 C   0  0  0  0  0  0  0  0  0  0  0  0
   -7.5352    5.0010    0.1711 C   0  0  0  0  0  0  0  0  0  0  0  0
   -8.8675    4.5334    0.5159 N   0  0  0  0  0  0  0  0  0  0  0  0
   -9.5739    5.1072    1.6368 C   0  0  0  0  0  0  0  0  0  0  0  0
   -8.9141    5.3432    2.8566 C   0  0  0  0  0  0  0  0  0  0  0  0
   -9.6118    5.8699    3.9499 C   0  0  0  0  0  0  0  0  0  0  0  0
  -10.9868    6.1399    3.8477 C   0  0  0  0  0  0  0  0  0  0  0  0
  -11.7338    6.7015    5.0227 C   0  0  0  0  0  0  0  0  0  0  0  0
  -11.6470    5.9078    2.6300 C   0  0  0  0  0  0  0  0  0  0  0  0
  -10.9480    5.3830    1.5357 C   0  0  0  0  0  0  0  0  0  0  0  0
   -9.3134    3.2325    0.1044 C   0  0  0  0  0  0  0  0  0  0  0  0
   -9.9789    3.0630   -1.1142 C   0  0  0  0  0  0  0  0  0  0  0  0
  -10.4803    1.8054   -1.4699 C   0  0  0  0  0  0  0  0  0  0  0  0
  -10.2934    0.7029   -0.6193 C   0  0  0  0  0  0  0  0  0  0  0  0
  -10.9088   -0.6222   -0.9589 C   0  0  0  0  0  0  0  0  0  0  0  0
   -9.6055    0.8714    0.5915 C   0  0  0  0  0  0  0  0  0  0  0  0
   -9.1217    2.1311    0.9542 C   0  0  0  0  0  0  0  0  0  0  0  0
   -6.4918    4.1825   -0.2897 C   0  0  0  0  0  0  0  0  0  0  0  0
   -6.3619    2.6496   -0.9721 S   0  0  0  0  0  0  0  0  0  0  0  0
   -4.6683    2.7159   -1.1829 C   0  0  0  0  0  0  0  0  0  0  0  0
   -4.2043    3.9432   -0.6733 C   0  0  0  0  0  0  0  0  0  0  0  0
   -2.8707    4.1251   -0.1722 N   0  0  0  0  0  0  0  0  0  0  0  0
   -2.5244    3.3549    0.9946 C   0  0  0  0  0  0  0  0  0  0  0  0
   -1.4661    2.4372    0.9564 C   0  0  0  0  0  0  0  0  0  0  0  0
   -1.1852    1.6330    2.0668 C   0  0  0  0  0  0  0  0  0  0  0  0
   -1.9517    1.7586    3.2370 C   0  0  0  0  0  0  0  0  0  0  0  0
   -1.7040    0.8611    4.4065 C   0  0  0  0  0  0  0  0  0  0  0  0
   -3.0103    2.6776    3.2788 C   0  0  0  0  0  0  0  0  0  0  0  0
   -3.2914    3.4732    2.1689 C   0  0  0  0  0  0  0  0  0  0  0  0
   -2.0230    5.2047   -0.6366 C   0  0  0  0  0  0  0  0  0  0  0  0
   -1.0138    5.7258    0.1978 C   0  0  0  0  0  0  0  0  0  0  0  0
   -0.1602    6.7315   -0.2594 C   0  0  0  0  0  0  0  0  0  0  0  0
   -0.3180    7.2587   -1.5476 C   0  0  0  0  0  0  0  0  0  0  0  0
    0.6356    8.3057   -2.0407 C   0  0  0  0  0  0  0  0  0  0  0  0
   -1.3305    6.7596   -2.3838 C   0  0  0  0  0  0  0  0  0  0  0  0
   -2.1827    5.7452   -1.9271 C   0  0  0  0  0  0  0  0  0  0  0  0
   -5.2589    4.7404   -0.2438 C   0  0  0  0  0  0  0  0  0  0  0  0
   -5.3577    6.3152    0.2996 S   0  0  0  0  0  0  0  0  0  0  0  0
   -3.8353    1.7500   -1.9414 C   0  0  0  0  0  0  0  0  0  0  0  0
   -4.1829    0.4578   -2.3938 C   0  0  0  0  0  0  0  0  0  0  0  0
   -5.4336   -0.2533   -2.1142 C   0  0  0  0  0  0  0  0  0  0  0  0
   -6.5776   -0.0020   -2.8842 C   0  0  0  0  0  0  0  0  0  0  0  0
   -7.7252   -0.7779   -2.7101 C   0  0  0  0  0  0  0  0  0  0  0  0
   -7.7310   -1.8147   -1.7699 C   0  0  0  0  0  0  0  0  0  0  0  0
   -6.5999   -2.0576   -0.9753 C   0  0  0  0  0  0  0  0  0  0  0  0
   -6.5880   -3.2057    0.0027 C   0  0  0  0  0  0  0  0  0  0  0  0
   -6.1598   -4.4952   -0.6920 C   0  0  0  0  0  0  0  0  0  0  0  0
   -5.4464   -1.2813   -1.1622 C   0  0  0  0  0  0  0  0  0  0  0  0
   -3.1394   -0.1310   -3.1138 C   0  0  0  0  0  0  0  0  0  0  0  0
   -2.8878   -1.6970   -3.7514 S   0  0  0  0  0  0  0  0  0  0  0  0
   -1.3092   -1.2768   -4.2314 C   0  0  0  0  0  0  0  0  0  0  0  0
   -0.1461   -1.9044   -4.5946 C   0  0  0  0  0  0  0  0  0  0  0  0
    0.0929   -3.2569   -4.8416 C   0  0  0  0  0  0  0  0  0  0  0  0
    1.4345   -3.7063   -4.9588 C   0  0  0  0  0  0  0  0  0  0  0  0
    1.6210   -5.0319   -5.1686 N   0  0  0  0  0  0  0  0  0  0  0  0
    0.0452   -5.5424   -5.1939 S   0  0  0  0  0  0  0  0  0  0  0  0
   -0.8826   -4.1959   -4.9443 N   0  0  0  0  0  0  0  0  0  0  0  0
    2.4682   -2.7774   -4.8334 C   0  0  0  0  0  0  0  0  0  0  0  0
    3.8187   -2.9830   -4.7116 C   0  0  0  0  0  0  0  0  0  0  0  0
    4.7993   -4.2709   -4.2134 S   0  0  0  0  0  0  0  0  0  0  0  0
    5.9806   -3.2317   -3.5456 C   0  0  0  0  0  0  0  0  0  0  0  0
    6.8579   -3.4644   -2.4655 C   0  0  0  0  0  0  0  0  0  0  0  0
    7.8162   -4.6047   -2.4123 C   0  0  0  0  0  0  0  0  0  0  0  0
    7.4548   -5.8932   -2.8484 C   0  0  0  0  0  0  0  0  0  0  0  0
    8.3915   -6.9290   -2.8722 C   0  0  0  0  0  0  0  0  0  0  0  0
    9.7157   -6.6850   -2.5086 C   0  0  0  0  0  0  0  0  0  0  0  0
   10.1149   -5.3992   -2.1139 C   0  0  0  0  0  0  0  0  0  0  0  0
   11.5686   -5.1242   -1.8131 C   0  0  0  0  0  0  0  0  0  0  0  0
   11.9419   -5.5741   -0.4051 C   0  0  0  0  0  0  0  0  0  0  0  0
    9.1564   -4.3707   -2.0424 C   0  0  0  0  0  0  0  0  0  0  0  0
    6.9463   -2.3224   -1.6344 C   0  0  0  0  0  0  0  0  0  0  0  0
    6.0737   -1.0545   -2.3516 S   0  0  0  0  0  0  0  0  0  0  0  0
    5.5440   -1.9291   -3.6652 C   0  0  0  0  0  0  0  0  0  0  0  0
    4.3576   -1.7931   -4.3716 C   0  0  0  0  0  0  0  0  0  0  0  0
    3.4556   -0.7848   -4.3414 N   0  0  0  0  0  0  0  0  0  0  0  0
    2.2476   -1.4009   -4.5932 C   0  0  0  0  0  0  0  0  0  0  0  0
    0.8863   -0.9452   -4.4573 C   0  0  0  0  0  0  0  0  0  0  0  0
    0.3405    0.2470   -4.0221 N   0  0  0  0  0  0  0  0  0  0  0  0
   -0.9819   -0.0136   -3.8915 C   0  0  0  0  0  0  0  0  0  0  0  0
   -2.0261    0.6482   -3.2587 C   0  0  0  0  0  0  0  0  0  0  0  0
   -2.2571    2.1088   -2.4843 S   0  0  0  0  0  0  0  0  0  0  0  0
    0.9408    1.5197   -3.6270 C   0  0  0  0  0  0  0  0  0  0  0  0
    1.5043    1.4354   -2.2114 C   0  0  0  0  0  0  0  0  0  0  0  0
    3.8993    0.5884   -4.6097 C   0  0  0  0  0  0  0  0  0  0  0  0
    3.5389    1.0187   -6.0316 C   0  0  0  0  0  0  0  0  0  0  0  0
    7.1539   -2.3241   -0.1646 C   0  0  0  0  0  0  0  0  0  0  0  0
    6.6988   -3.3373    0.7139 C   0  0  0  0  0  0  0  0  0  0  0  0
    6.4210   -4.7049    0.3700 N   0  0  0  0  0  0  0  0  0  0  0  0
    7.2223   -5.6784    1.0831 C   0  0  0  0  0  0  0  0  0  0  0  0
    6.6202   -6.7085    1.8321 C   0  0  0  0  0  0  0  0  0  0  0  0
    7.3935   -7.5287    2.6646 C   0  0  0  0  0  0  0  0  0  0  0  0
    8.7781   -7.3259    2.7718 C   0  0  0  0  0  0  0  0  0  0  0  0
    9.5854   -8.1281    3.7472 C   0  0  0  0  0  0  0  0  0  0  0  0
    9.3792   -6.2940    2.0413 C   0  0  0  0  0  0  0  0  0  0  0  0
    8.6121   -5.4838    1.2013 C   0  0  0  0  0  0  0  0  0  0  0  0
    5.1654   -5.0668   -0.2651 C   0  0  0  0  0  0  0  0  0  0  0  0
    4.9865   -6.3530   -0.8118 C   0  0  0  0  0  0  0  0  0  0  0  0
    3.7622   -6.7305   -1.3692 C   0  0  0  0  0  0  0  0  0  0  0  0
    2.6899   -5.8300   -1.3972 C   0  0  0  0  0  0  0  0  0  0  0  0
    1.3529   -6.2755   -1.9046 C   0  0  0  0  0  0  0  0  0  0  0  0
    2.8611   -4.5369   -0.8810 C   0  0  0  0  0  0  0  0  0  0  0  0
    4.0885   -4.1551   -0.3301 C   0  0  0  0  0  0  0  0  0  0  0  0
    6.3945   -2.8415    1.9795 C   0  0  0  0  0  0  0  0  0  0  0  0
    5.3318   -3.4316    3.1329 S   0  0  0  0  0  0  0  0  0  0  0  0
    5.0783   -1.9227    3.8653 C   0  0  0  0  0  0  0  0  0  0  0  0
    5.8455   -0.9517    3.2056 C   0  0  0  0  0  0  0  0  0  0  0  0
    5.7602    0.4549    3.4777 N   0  0  0  0  0  0  0  0  0  0  0  0
    6.7481    1.0582    4.3383 C   0  0  0  0  0  0  0  0  0  0  0  0
    7.1289    0.4369    5.5407 C   0  0  0  0  0  0  0  0  0  0  0  0
    8.0328    1.0678    6.4031 C   0  0  0  0  0  0  0  0  0  0  0  0
    8.5698    2.3244    6.0754 C   0  0  0  0  0  0  0  0  0  0  0  0
    9.5548    2.9844    6.9921 C   0  0  0  0  0  0  0  0  0  0  0  0
    8.2232    2.9241    4.8533 C   0  0  0  0  0  0  0  0  0  0  0  0
    7.3182    2.2955    3.9919 C   0  0  0  0  0  0  0  0  0  0  0  0
    4.6903    1.2559    2.9370 C   0  0  0  0  0  0  0  0  0  0  0  0
    4.3225    1.1406    1.5857 C   0  0  0  0  0  0  0  0  0  0  0  0
    3.4117    2.0321    1.0217 C   0  0  0  0  0  0  0  0  0  0  0  0
    2.8231    3.0339    1.8038 C   0  0  0  0  0  0  0  0  0  0  0  0
    1.9284    4.0474    1.1614 C   0  0  0  0  0  0  0  0  0  0  0  0
    3.1373    3.1178    3.1692 C   0  0  0  0  0  0  0  0  0  0  0  0
    4.0624    2.2343    3.7302 C   0  0  0  0  0  0  0  0  0  0  0  0
    6.5804   -1.5083    2.1551 C   0  0  0  0  0  0  0  0  0  0  0  0
    7.1820   -0.8632    0.7295 S   0  0  0  0  0  0  0  0  0  0  0  0
    3.9328   -1.6500    4.7440 C   0  0  0  0  0  0  0  0  0  0  0  0
    2.6695   -1.5999    4.2733 C   0  0  0  0  0  0  0  0  0  0  0  0
    2.2670   -1.7988    2.8717 C   0  0  0  0  0  0  0  0  0  0  0  0
    2.9980   -1.6716    1.8541 O   0  0  0  0  0  0  0  0  0  0  0  0
    0.8685   -2.1440    2.8406 C   0  0  0  0  0  0  0  0  0  0  0  0
    0.1048   -2.5403    1.7397 C   0  0  0  0  0  0  0  0  0  0  0  0
   -1.2271   -2.9199    1.9556 C   0  0  0  0  0  0  0  0  0  0  0  0
   -2.2224   -3.4133    0.5925 Cl  0  0  0  0  0  0  0  0  0  0  0  0
   -1.7573   -2.9340    3.2631 C   0  0  0  0  0  0  0  0  0  0  0  0
   -3.0334   -3.3349    3.4751 F   0  0  0  0  0  0  0  0  0  0  0  0
   -0.9629   -2.5444    4.3570 C   0  0  0  0  0  0  0  0  0  0  0  0
    0.3534   -2.1140    4.1262 C   0  0  0  0  0  0  0  0  0  0  0  0
    1.4076   -1.6434    5.0730 C   0  0  0  0  0  0  0  0  0  0  0  0
    1.2172   -1.1217    6.3105 C   0  0  0  0  0  0  0  0  0  0  0  0
   -0.0756   -1.0848    6.9428 C   0  0  0  0  0  0  0  0  0  0  0  0
   -1.1091   -1.0484    7.4597 N   0  0  0  0  0  0  0  0  0  0  0  0
    2.2692   -0.4352    7.0199 C   0  0  0  0  0  0  0  0  0  0  0  0
    3.1044    0.1256    7.5914 N   0  0  0  0  0  0  0  0  0  0  0  0
   -8.9086    7.3776    0.6757 H   0  0  0  0  0  0  0  0  0  0  0  0
   -4.2430    8.7575   -3.0461 H   0  0  0  0  0  0  0  0  0  0  0  0
   -8.5693    7.0096   -4.8058 H   0  0  0  0  0  0  0  0  0  0  0  0
   -7.8603    5.1118    2.9681 H   0  0  0  0  0  0  0  0  0  0  0  0
   -9.0809    6.0585    4.8787 H   0  0  0  0  0  0  0  0  0  0  0  0
  -12.8027    6.3970    4.9965 H   0  0  0  0  0  0  0  0  0  0  0  0
  -11.3023    6.3303    5.9763 H   0  0  0  0  0  0  0  0  0  0  0  0
  -11.6743    7.8092    5.0060 H   0  0  0  0  0  0  0  0  0  0  0  0
  -12.7036    6.1272    2.5253 H   0  0  0  0  0  0  0  0  0  0  0  0
  -11.4720    5.1910    0.6069 H   0  0  0  0  0  0  0  0  0  0  0  0
  -10.1306    3.9113   -1.7730 H   0  0  0  0  0  0  0  0  0  0  0  0
  -11.0183    1.6959   -2.4032 H   0  0  0  0  0  0  0  0  0  0  0  0
  -10.4070   -1.4435   -0.4027 H   0  0  0  0  0  0  0  0  0  0  0  0
  -11.9825   -0.6117   -0.6761 H   0  0  0  0  0  0  0  0  0  0  0  0
  -10.8190   -0.8305   -2.0473 H   0  0  0  0  0  0  0  0  0  0  0  0
   -9.4460    0.0318    1.2614 H   0  0  0  0  0  0  0  0  0  0  0  0
   -8.5933    2.2492    1.8938 H   0  0  0  0  0  0  0  0  0  0  0  0
   -0.8739    2.3385    0.0581 H   0  0  0  0  0  0  0  0  0  0  0  0
   -0.3767    0.9139    2.0114 H   0  0  0  0  0  0  0  0  0  0  0  0
   -1.9814    1.3663    5.3567 H   0  0  0  0  0  0  0  0  0  0  0  0
   -2.3196   -0.0581    4.2991 H   0  0  0  0  0  0  0  0  0  0  0  0
   -0.6291    0.5877    4.4672 H   0  0  0  0  0  0  0  0  0  0  0  0
   -3.6210    2.7801    4.1697 H   0  0  0  0  0  0  0  0  0  0  0  0
   -4.1092    4.1826    2.2279 H   0  0  0  0  0  0  0  0  0  0  0  0
   -0.8747    5.3550    1.2058 H   0  0  0  0  0  0  0  0  0  0  0  0
    0.6244    7.0939    0.3928 H   0  0  0  0  0  0  0  0  0  0  0  0
    0.2031    8.8725   -2.8952 H   0  0  0  0  0  0  0  0  0  0  0  0
    0.8631    9.0280   -1.2241 H   0  0  0  0  0  0  0  0  0  0  0  0
    1.5818    7.8181   -2.3645 H   0  0  0  0  0  0  0  0  0  0  0  0
   -1.4564    7.1465   -3.3868 H   0  0  0  0  0  0  0  0  0  0  0  0
   -2.9468    5.3655   -2.5916 H   0  0  0  0  0  0  0  0  0  0  0  0
   -6.5736    0.7810   -3.6333 H   0  0  0  0  0  0  0  0  0  0  0  0
   -8.6046   -0.5926   -3.3178 H   0  0  0  0  0  0  0  0  0  0  0  0
   -8.6128   -2.4345   -1.6713 H   0  0  0  0  0  0  0  0  0  0  0  0
   -5.8875   -2.9892    0.8402 H   0  0  0  0  0  0  0  0  0  0  0  0
   -7.6023   -3.3439    0.4436 H   0  0  0  0  0  0  0  0  0  0  0  0
   -6.0648   -5.3087    0.0583 H   0  0  0  0  0  0  0  0  0  0  0  0
   -5.1762   -4.3588   -1.1967 H   0  0  0  0  0  0  0  0  0  0  0  0
   -6.9209   -4.7916   -1.4478 H   0  0  0  0  0  0  0  0  0  0  0  0
   -4.5491   -1.4975   -0.5934 H   0  0  0  0  0  0  0  0  0  0  0  0
    6.4483   -6.1178   -3.1626 H   0  0  0  0  0  0  0  0  0  0  0  0
    8.0968   -7.9192   -3.1998 H   0  0  0  0  0  0  0  0  0  0  0  0
   10.4370   -7.4908   -2.5562 H   0  0  0  0  0  0  0  0  0  0  0  0
   12.2081   -5.6630   -2.5497 H   0  0  0  0  0  0  0  0  0  0  0  0
   11.7911   -4.0375   -1.9193 H   0  0  0  0  0  0  0  0  0  0  0  0
   11.6089   -6.6180   -0.2232 H   0  0  0  0  0  0  0  0  0  0  0  0
   11.4844   -4.8957    0.3420 H   0  0  0  0  0  0  0  0  0  0  0  0
   13.0447   -5.5294   -0.2821 H   0  0  0  0  0  0  0  0  0  0  0  0
    9.4729   -3.3767   -1.7511 H   0  0  0  0  0  0  0  0  0  0  0  0
    1.6476    1.8773   -4.3830 H   0  0  0  0  0  0  0  0  0  0  0  0
    0.1804    2.3270   -3.6450 H   0  0  0  0  0  0  0  0  0  0  0  0
    2.2481    0.6159   -2.1278 H   0  0  0  0  0  0  0  0  0  0  0  0
    0.6851    1.2380   -1.4890 H   0  0  0  0  0  0  0  0  0  0  0  0
    1.9801    2.4083   -1.9543 H   0  0  0  0  0  0  0  0  0  0  0  0
    5.0064    0.6549   -4.5337 H   0  0  0  0  0  0  0  0  0  0  0  0
    3.5700    1.2889   -3.8331 H   0  0  0  0  0  0  0  0  0  0  0  0
    3.7755    2.0943   -6.1652 H   0  0  0  0  0  0  0  0  0  0  0  0
    4.1398    0.4327   -6.7620 H   0  0  0  0  0  0  0  0  0  0  0  0
    2.4648    0.8545   -6.2523 H   0  0  0  0  0  0  0  0  0  0  0  0
    5.5445   -6.8460    1.8212 H   0  0  0  0  0  0  0  0  0  0  0  0
    6.9083   -8.2975    3.2520 H   0  0  0  0  0  0  0  0  0  0  0  0
    9.2836   -9.1966    3.7080 H   0  0  0  0  0  0  0  0  0  0  0  0
   10.6725   -8.0652    3.5176 H   0  0  0  0  0  0  0  0  0  0  0  0
    9.4114   -7.7360    4.7724 H   0  0  0  0  0  0  0  0  0  0  0  0
   10.4379   -6.0933    2.1480 H   0  0  0  0  0  0  0  0  0  0  0  0
    9.0893   -4.6631    0.6865 H   0  0  0  0  0  0  0  0  0  0  0  0
    5.7972   -7.0712   -0.8062 H   0  0  0  0  0  0  0  0  0  0  0  0
    3.6466   -7.7313   -1.7680 H   0  0  0  0  0  0  0  0  0  0  0  0
    0.8653   -6.9250   -1.1460 H   0  0  0  0  0  0  0  0  0  0  0  0
    0.6888   -5.4103   -2.1186 H   0  0  0  0  0  0  0  0  0  0  0  0
    1.4787   -6.8580   -2.8429 H   0  0  0  0  0  0  0  0  0  0  0  0
    2.0424   -3.8282   -0.8918 H   0  0  0  0  0  0  0  0  0  0  0  0
    4.1846   -3.1535    0.0634 H   0  0  0  0  0  0  0  0  0  0  0  0
    6.7040   -0.5168    5.8267 H   0  0  0  0  0  0  0  0  0  0  0  0
    8.3048    0.5835    7.3339 H   0  0  0  0  0  0  0  0  0  0  0  0
    9.6348    4.0723    6.7771 H   0  0  0  0  0  0  0  0  0  0  0  0
    9.2295    2.8654    8.0470 H   0  0  0  0  0  0  0  0  0  0  0  0
   10.5551    2.5193    6.8643 H   0  0  0  0  0  0  0  0  0  0  0  0
    8.6464    3.8812    4.5691 H   0  0  0  0  0  0  0  0  0  0  0  0
    7.0504    2.7813    3.0576 H   0  0  0  0  0  0  0  0  0  0  0  0
    4.7707    0.3975    0.9473 H   0  0  0  0  0  0  0  0  0  0  0  0
    3.1947    1.9598   -0.0357 H   0  0  0  0  0  0  0  0  0  0  0  0
    1.1739    3.5412    0.5251 H   0  0  0  0  0  0  0  0  0  0  0  0
    2.5347    4.7217    0.5170 H   0  0  0  0  0  0  0  0  0  0  0  0
    1.4010    4.6624    1.9226 H   0  0  0  0  0  0  0  0  0  0  0  0
    2.6905    3.8847    3.7914 H   0  0  0  0  0  0  0  0  0  0  0  0
    4.3173    2.3320    4.7791 H   0  0  0  0  0  0  0  0  0  0  0  0
    4.1295   -1.6689    5.8027 H   0  0  0  0  0  0  0  0  0  0  0  0
    0.5395   -2.5612    0.7462 H   0  0  0  0  0  0  0  0  0  0  0  0
   -1.3825   -2.6050    5.3496 H   0  0  0  0  0  0  0  0  0  0  0  0
  1  2  2  3
  2  3  1  0
  3  4  2  0
  3  5  1  0
  5  6  2  0
  6  7  1  0
  7  8  1  0
  7  9  2  0
  9 10  1  0
  9 11  1  0
 11 12  2  0
 12 13  1  0
 13 14  2  3
 14 15  1  0
 15 16  3  0
 14 17  1  0
 17 18  3  0
  1 19  1  0
 19 20  2  0
 20 21  1  0
 21 22  1  0
 22 23  2  0
 23 24  1  0
 24 25  2  0
 25 26  1  0
 25 27  1  0
 27 28  2  0
 21 29  1  0
 29 30  2  0
 30 31  1  0
 31 32  2  0
 32 33  1  0
 32 34  1  0
 34 35  2  0
 20 36  1  0
 36 37  1  0
 37 38  1  0
 38 39  2  0
 39 40  1  0
 40 41  1  0
 41 42  2  0
 42 43  1  0
 43 44  2  0
 44 45  1  0
 44 46  1  0
 46 47  2  0
 40 48  1  0
 48 49  2  0
 49 50  1  0
 50 51  2  0
 51 52  1  0
 51 53  1  0
 53 54  2  0
 39 55  1  0
 55 56  1  0
 38 57  1  0
 57 58  2  0
 58 59  1  0
 59 60  2  0
 60 61  1  0
 61 62  2  0
 62 63  1  0
 63 64  1  0
 64 65  1  0
 63 66  2  0
 58 67  1  0
 67 68  1  0
 68 69  1  0
 69 70  1  0
 70 71  1  0
 71 72  1  0
 72 73  2  0
 73 74  1  0
 74 75  1  0
 72 76  1  0
 76 77  1  0
 77 78  1  0
 78 79  1  0
 79 80  1  0
 80 81  1  0
 81 82  2  0
 82 83  1  0
 83 84  2  0
 84 85  1  0
 85 86  1  0
 86 87  1  0
 85 88  2  0
 80 89  2  0
 89 90  1  0
 90 91  1  0
 91 92  1  0
 92 93  1  0
 93 94  1  0
 94 95  1  0
 95 96  1  0
 96 97  1  0
 97 98  1  0
 98 99  1  0
 96100  1  0
100101  1  0
 93102  1  0
102103  1  0
 89104  1  0
104105  2  0
105106  1  0
106107  1  0
107108  2  0
108109  1  0
109110  2  0
110111  1  0
110112  1  0
112113  2  0
106114  1  0
114115  2  0
115116  1  0
116117  2  0
117118  1  0
117119  1  0
119120  2  0
105121  1  0
121122  1  0
122123  1  0
123124  2  0
124125  1  0
125126  1  0
126127  2  0
127128  1  0
128129  2  0
129130  1  0
129131  1  0
131132  2  0
125133  1  0
133134  2  0
134135  1  0
135136  2  0
136137  1  0
136138  1  0
138139  2  0
124140  1  0
140141  1  0
123142  1  0
142143  2  3
143144  1  0
144145  2  0
144146  1  0
146147  2  0
147148  1  0
148149  1  0
148150  2  0
150151  1  0
150152  1  0
152153  2  0
153154  1  0
154155  2  3
155156  1  0
156157  3  0
155158  1  0
158159  3  0
 13  2  1  0
 56 19  1  0
 99 57  1  0
141104  1  0
154143  1  0
 12  5  1  0
 28 22  1  0
 35 29  1  0
 55 36  2  0
 66 59  1  0
 98 67  2  0
113107  1  0
120114  1  0
140121  2  0
153146  1  0
 47 41  1  0
 54 48  1  0
 97 69  2  0
132126  1  0
139133  1  0
 95 70  2  0
 75 71  2  0
 94 76  2  0
 92 77  2  0
 91 79  2  0
 88 81  1  0
  1160  1  0
  6161  1  0
 11162  1  0
 23163  1  0
 24164  1  0
 26165  1  0
 26166  1  0
 26167  1  0
 27168  1  0
 28169  1  0
 30170  1  0
 31171  1  0
 33172  1  0
 33173  1  0
 33174  1  0
 34175  1  0
 35176  1  0
 42177  1  0
 43178  1  0
 45179  1  0
 45180  1  0
 45181  1  0
 46182  1  0
 47183  1  0
 49184  1  0
 50185  1  0
 52186  1  0
 52187  1  0
 52188  1  0
 53189  1  0
 54190  1  0
 60191  1  0
 61192  1  0
 62193  1  0
 64194  1  0
 64195  1  0
 65196  1  0
 65197  1  0
 65198  1  0
 66199  1  0
 82200  1  0
 83201  1  0
 84202  1  0
 86203  1  0
 86204  1  0
 87205  1  0
 87206  1  0
 87207  1  0
 88208  1  0
100209  1  0
100210  1  0
101211  1  0
101212  1  0
101213  1  0
102214  1  0
102215  1  0
103216  1  0
103217  1  0
103218  1  0
108219  1  0
109220  1  0
111221  1  0
111222  1  0
111223  1  0
112224  1  0
113225  1  0
115226  1  0
116227  1  0
118228  1  0
118229  1  0
118230  1  0
119231  1  0
120232  1  0
127233  1  0
128234  1  0
130235  1  0
130236  1  0
130237  1  0
131238  1  0
132239  1  0
134240  1  0
135241  1  0
137242  1  0
137243  1  0
137244  1  0
138245  1  0
139246  1  0
142247  1  0
147248  1  0
152249  1  0
M  END

