
     RDKit          3D

166182  0  0  0  0  0  0  0  0999 V2000
   -9.9082    3.5809    0.5548 C   0  0  0  0  0  0  0  0  0  0  0  0
   -9.3589    3.5455   -0.6760 C   0  0  0  0  0  0  0  0  0  0  0  0
   -9.7397    4.4952   -1.7270 C   0  0  0  0  0  0  0  0  0  0  0  0
  -10.8538    5.0763   -1.8329 O   0  0  0  0  0  0  0  0  0  0  0  0
   -8.5603    4.7671   -2.5369 C   0  0  0  0  0  0  0  0  0  0  0  0
   -8.3905    5.7334   -3.5337 C   0  0  0  0  0  0  0  0  0  0  0  0
   -7.1169    5.8942   -4.1002 C   0  0  0  0  0  0  0  0  0  0  0  0
   -6.8599    7.1227   -5.3290 Cl  0  0  0  0  0  0  0  0  0  0  0  0
   -6.0343    5.1038   -3.6490 C   0  0  0  0  0  0  0  0  0  0  0  0
   -4.7960    5.2857   -4.1703 F   0  0  0  0  0  0  0  0  0  0  0  0
   -6.2258    4.1416   -2.6440 C   0  0  0  0  0  0  0  0  0  0  0  0
   -7.5061    3.9813   -2.0960 C   0  0  0  0  0  0  0  0  0  0  0  0
   -7.9821    3.0866   -1.0126 C   0  0  0  0  0  0  0  0  0  0  0  0
   -7.4585    1.8896   -0.6645 C   0  0  0  0  0  0  0  0  0  0  0  0
   -8.2731    0.8749   -0.0448 C   0  0  0  0  0  0  0  0  0  0  0  0
   -8.9297    0.0468    0.4358 N   0  0  0  0  0  0  0  0  0  0  0  0
   -6.1262    1.4738   -1.0233 C   0  0  0  0  0  0  0  0  0  0  0  0
   -5.0556    1.1030   -1.2858 N   0  0  0  0  0  0  0  0  0  0  0  0
   -9.0639    3.4920    1.7592 C   0  0  0  0  0  0  0  0  0  0  0  0
   -7.9532    4.2948    1.9612 C   0  0  0  0  0  0  0  0  0  0  0  0
   -7.0765    3.7950    2.9237 C   0  0  0  0  0  0  0  0  0  0  0  0
   -5.4462    4.5101    3.1779 S   0  0  0  0  0  0  0  0  0  0  0  0
   -4.6705    3.7311    1.7200 C   0  0  0  0  0  0  0  0  0  0  0  0
   -4.6078    4.7093    0.5544 C   0  0  0  0  0  0  0  0  0  0  0  0
   -7.5242    2.6250    3.5444 C   0  0  0  0  0  0  0  0  0  0  0  0
   -8.9834    2.1909    2.8229 S   0  0  0  0  0  0  0  0  0  0  0  0
   -6.6161    1.6579    4.1651 C   0  0  0  0  0  0  0  0  0  0  0  0
   -6.0048    1.7235    5.4402 C   0  0  0  0  0  0  0  0  0  0  0  0
   -6.4960    2.4856    6.6219 C   0  0  0  0  0  0  0  0  0  0  0  0
   -6.4233    1.8992    7.8999 C   0  0  0  0  0  0  0  0  0  0  0  0
   -6.9163    2.5654    9.0213 C   0  0  0  0  0  0  0  0  0  0  0  0
   -7.5105    3.8201    8.8838 C   0  0  0  0  0  0  0  0  0  0  0  0
   -7.5917    4.4266    7.6235 C   0  0  0  0  0  0  0  0  0  0  0  0
   -8.3222    5.7326    7.4546 C   0  0  0  0  0  0  0  0  0  0  0  0
   -9.7827    5.4775    7.0853 C   0  0  0  0  0  0  0  0  0  0  0  0
   -7.0785    3.7599    6.5012 C   0  0  0  0  0  0  0  0  0  0  0  0
   -4.8845    0.8726    5.4828 C   0  0  0  0  0  0  0  0  0  0  0  0
   -3.5391    0.8076    6.5293 S   0  0  0  0  0  0  0  0  0  0  0  0
   -2.7095   -0.2400    5.4790 C   0  0  0  0  0  0  0  0  0  0  0  0
   -1.3922   -0.4790    5.2070 C   0  0  0  0  0  0  0  0  0  0  0  0
   -0.2528    0.0214    5.8534 C   0  0  0  0  0  0  0  0  0  0  0  0
    1.0003   -0.0197    5.1762 C   0  0  0  0  0  0  0  0  0  0  0  0
    2.0668    0.5411    5.8032 N   0  0  0  0  0  0  0  0  0  0  0  0
    1.3232    1.0626    7.1898 S   0  0  0  0  0  0  0  0  0  0  0  0
   -0.2730    0.6368    7.0620 N   0  0  0  0  0  0  0  0  0  0  0  0
    1.0577   -0.6194    3.9183 C   0  0  0  0  0  0  0  0  0  0  0  0
    2.0900   -0.7626    3.0301 C   0  0  0  0  0  0  0  0  0  0  0  0
    3.6673   -0.1822    2.7530 S   0  0  0  0  0  0  0  0  0  0  0  0
    3.6623   -0.8390    1.1695 C   0  0  0  0  0  0  0  0  0  0  0  0
    4.4827   -0.6553    0.0469 C   0  0  0  0  0  0  0  0  0  0  0  0
    5.7574    0.0861    0.0704 C   0  0  0  0  0  0  0  0  0  0  0  0
    5.9726    1.1688   -0.7963 C   0  0  0  0  0  0  0  0  0  0  0  0
    7.1781    1.8772   -0.7516 C   0  0  0  0  0  0  0  0  0  0  0  0
    8.1794    1.5042    0.1504 C   0  0  0  0  0  0  0  0  0  0  0  0
    7.9838    0.4132    1.0105 C   0  0  0  0  0  0  0  0  0  0  0  0
    9.0519    0.0145    1.9942 C   0  0  0  0  0  0  0  0  0  0  0  0
    8.8017    0.6611    3.3536 C   0  0  0  0  0  0  0  0  0  0  0  0
    6.7665   -0.2853    0.9739 C   0  0  0  0  0  0  0  0  0  0  0  0
    3.8491   -1.1584   -1.1118 C   0  0  0  0  0  0  0  0  0  0  0  0
    2.3124   -1.7803   -0.7249 S   0  0  0  0  0  0  0  0  0  0  0  0
    2.4727   -1.4637    0.9063 C   0  0  0  0  0  0  0  0  0  0  0  0
    1.5908   -1.4176    1.9633 C   0  0  0  0  0  0  0  0  0  0  0  0
    0.2869   -1.7472    2.0838 N   0  0  0  0  0  0  0  0  0  0  0  0
   -0.0740   -1.1742    3.2835 C   0  0  0  0  0  0  0  0  0  0  0  0
   -1.3510   -0.9921    3.8950 C   0  0  0  0  0  0  0  0  0  0  0  0
   -2.6076   -0.9383    3.3278 N   0  0  0  0  0  0  0  0  0  0  0  0
   -3.4014   -0.4879    4.3361 C   0  0  0  0  0  0  0  0  0  0  0  0
   -4.6395    0.1555    4.3396 C   0  0  0  0  0  0  0  0  0  0  0  0
   -5.7727    0.5608    3.1824 S   0  0  0  0  0  0  0  0  0  0  0  0
   -2.9793   -0.8952    1.9099 C   0  0  0  0  0  0  0  0  0  0  0  0
   -2.3773    0.3241    1.2169 C   0  0  0  0  0  0  0  0  0  0  0  0
   -0.3393   -2.8069    1.2789 C   0  0  0  0  0  0  0  0  0  0  0  0
   -1.0386   -3.8653    2.1367 C   0  0  0  0  0  0  0  0  0  0  0  0
    4.3128   -1.0525   -2.4977 C   0  0  0  0  0  0  0  0  0  0  0  0
    5.2011   -1.9191   -3.1415 C   0  0  0  0  0  0  0  0  0  0  0  0
    5.9787   -2.9677   -2.4474 C   0  0  0  0  0  0  0  0  0  0  0  0
    7.3275   -2.7285   -2.0797 C   0  0  0  0  0  0  0  0  0  0  0  0
    8.0557   -3.7407   -1.4374 C   0  0  0  0  0  0  0  0  0  0  0  0
    7.4735   -4.9836   -1.1637 C   0  0  0  0  0  0  0  0  0  0  0  0
    8.2705   -6.0635   -0.4768 C   0  0  0  0  0  0  0  0  0  0  0  0
    8.0645   -6.0201    1.0340 C   0  0  0  0  0  0  0  0  0  0  0  0
    6.1409   -5.2145   -1.5159 C   0  0  0  0  0  0  0  0  0  0  0  0
    5.3844   -4.2240   -2.1597 C   0  0  0  0  0  0  0  0  0  0  0  0
    3.9800   -4.5762   -2.6081 C   0  0  0  0  0  0  0  0  0  0  0  0
    4.0080   -5.3249   -3.9385 C   0  0  0  0  0  0  0  0  0  0  0  0
    8.0377   -1.4382   -2.4193 C   0  0  0  0  0  0  0  0  0  0  0  0
    8.7660   -1.5488   -3.7561 C   0  0  0  0  0  0  0  0  0  0  0  0
    5.1726   -1.8062   -4.5423 C   0  0  0  0  0  0  0  0  0  0  0  0
    4.2247   -0.8977   -4.9926 C   0  0  0  0  0  0  0  0  0  0  0  0
    3.4628   -0.1965   -3.6676 S   0  0  0  0  0  0  0  0  0  0  0  0
    3.8817   -0.6478   -6.3999 C   0  0  0  0  0  0  0  0  0  0  0  0
    2.6358   -0.7981   -6.8928 C   0  0  0  0  0  0  0  0  0  0  0  0
    1.5363   -1.5351   -6.2479 C   0  0  0  0  0  0  0  0  0  0  0  0
    1.5104   -1.9812   -5.0698 O   0  0  0  0  0  0  0  0  0  0  0  0
    0.5191   -1.7953   -7.2431 C   0  0  0  0  0  0  0  0  0  0  0  0
   -0.6554   -2.5346   -7.0944 C   0  0  0  0  0  0  0  0  0  0  0  0
   -1.4539   -2.7547   -8.2254 C   0  0  0  0  0  0  0  0  0  0  0  0
   -2.9406   -3.6729   -8.0708 Cl  0  0  0  0  0  0  0  0  0  0  0  0
   -1.0533   -2.2566   -9.4812 C   0  0  0  0  0  0  0  0  0  0  0  0
   -1.8092   -2.4949  -10.5822 F   0  0  0  0  0  0  0  0  0  0  0  0
    0.1372   -1.5190   -9.6079 C   0  0  0  0  0  0  0  0  0  0  0  0
    0.9096   -1.2655   -8.4606 C   0  0  0  0  0  0  0  0  0  0  0  0
    2.1941   -0.5278   -8.2966 C   0  0  0  0  0  0  0  0  0  0  0  0
    2.7042    0.4097   -9.1392 C   0  0  0  0  0  0  0  0  0  0  0  0
    3.8022    1.2656   -8.7639 C   0  0  0  0  0  0  0  0  0  0  0  0
    4.6791    1.9602   -8.4685 N   0  0  0  0  0  0  0  0  0  0  0  0
    2.1019    0.7237  -10.4082 C   0  0  0  0  0  0  0  0  0  0  0  0
    1.6281    0.9888  -11.4301 N   0  0  0  0  0  0  0  0  0  0  0  0
  -10.8892    4.0253    0.6837 H   0  0  0  0  0  0  0  0  0  0  0  0
   -9.2200    6.3499   -3.8507 H   0  0  0  0  0  0  0  0  0  0  0  0
   -5.3766    3.5814   -2.2894 H   0  0  0  0  0  0  0  0  0  0  0  0
   -7.7237    5.1444    1.3425 H   0  0  0  0  0  0  0  0  0  0  0  0
   -5.2177    2.8238    1.4061 H   0  0  0  0  0  0  0  0  0  0  0  0
   -3.6405    3.4302    1.9935 H   0  0  0  0  0  0  0  0  0  0  0  0
   -4.1297    5.6656    0.8659 H   0  0  0  0  0  0  0  0  0  0  0  0
   -5.6332    4.9194    0.1781 H   0  0  0  0  0  0  0  0  0  0  0  0
   -4.0113    4.2665   -0.2754 H   0  0  0  0  0  0  0  0  0  0  0  0
   -6.0084    0.9102    8.0273 H   0  0  0  0  0  0  0  0  0  0  0  0
   -6.8630    2.0966    9.9981 H   0  0  0  0  0  0  0  0  0  0  0  0
   -7.9203    4.3114    9.7545 H   0  0  0  0  0  0  0  0  0  0  0  0
   -7.8419    6.3346    6.6522 H   0  0  0  0  0  0  0  0  0  0  0  0
   -8.2830    6.3281    8.3937 H   0  0  0  0  0  0  0  0  0  0  0  0
  -10.2996    6.4435    6.9063 H   0  0  0  0  0  0  0  0  0  0  0  0
   -9.8456    4.8617    6.1634 H   0  0  0  0  0  0  0  0  0  0  0  0
  -10.3010    4.9474    7.9100 H   0  0  0  0  0  0  0  0  0  0  0  0
   -7.1420    4.2476    5.5427 H   0  0  0  0  0  0  0  0  0  0  0  0
    5.2034    1.4802   -1.4935 H   0  0  0  0  0  0  0  0  0  0  0  0
    7.3346    2.7188   -1.4147 H   0  0  0  0  0  0  0  0  0  0  0  0
    9.1053    2.0652    0.1755 H   0  0  0  0  0  0  0  0  0  0  0  0
   10.0532    0.3190    1.6241 H   0  0  0  0  0  0  0  0  0  0  0  0
    9.0635   -1.0909    2.1134 H   0  0  0  0  0  0  0  0  0  0  0  0
    8.8528    1.7675    3.2689 H   0  0  0  0  0  0  0  0  0  0  0  0
    9.5765    0.3259    4.0736 H   0  0  0  0  0  0  0  0  0  0  0  0
    7.8043    0.3699    3.7472 H   0  0  0  0  0  0  0  0  0  0  0  0
    6.6049   -1.1206    1.6481 H   0  0  0  0  0  0  0  0  0  0  0  0
   -4.0723   -0.8654    1.7882 H   0  0  0  0  0  0  0  0  0  0  0  0
   -2.7324   -1.8306    1.4074 H   0  0  0  0  0  0  0  0  0  0  0  0
   -2.6509    1.2455    1.7685 H   0  0  0  0  0  0  0  0  0  0  0  0
   -1.2677    0.2501    1.1717 H   0  0  0  0  0  0  0  0  0  0  0  0
   -2.7644    0.3895    0.1803 H   0  0  0  0  0  0  0  0  0  0  0  0
    0.4475   -3.3627    0.7256 H   0  0  0  0  0  0  0  0  0  0  0  0
   -0.9697   -2.3729    0.4806 H   0  0  0  0  0  0  0  0  0  0  0  0
   -1.8327   -3.4376    2.7797 H   0  0  0  0  0  0  0  0  0  0  0  0
   -0.2988   -4.3732    2.7885 H   0  0  0  0  0  0  0  0  0  0  0  0
   -1.5069   -4.6217    1.4719 H   0  0  0  0  0  0  0  0  0  0  0  0
    9.0878   -3.5628   -1.1617 H   0  0  0  0  0  0  0  0  0  0  0  0
    9.3519   -5.9385   -0.7009 H   0  0  0  0  0  0  0  0  0  0  0  0
    7.9676   -7.0617   -0.8612 H   0  0  0  0  0  0  0  0  0  0  0  0
    6.9913   -6.1531    1.2827 H   0  0  0  0  0  0  0  0  0  0  0  0
    8.6405   -6.8414    1.5090 H   0  0  0  0  0  0  0  0  0  0  0  0
    8.4183   -5.0480    1.4429 H   0  0  0  0  0  0  0  0  0  0  0  0
    5.6975   -6.1791   -1.3048 H   0  0  0  0  0  0  0  0  0  0  0  0
    3.4899   -5.2177   -1.8454 H   0  0  0  0  0  0  0  0  0  0  0  0
    3.3430   -3.6760   -2.7199 H   0  0  0  0  0  0  0  0  0  0  0  0
    4.4742   -4.6951   -4.7242 H   0  0  0  0  0  0  0  0  0  0  0  0
    2.9713   -5.5675   -4.2565 H   0  0  0  0  0  0  0  0  0  0  0  0
    4.5845   -6.2709   -3.8413 H   0  0  0  0  0  0  0  0  0  0  0  0
    7.3307   -0.5879   -2.4697 H   0  0  0  0  0  0  0  0  0  0  0  0
    8.7758   -1.1885   -1.6265 H   0  0  0  0  0  0  0  0  0  0  0  0
    9.2815   -0.5868   -3.9744 H   0  0  0  0  0  0  0  0  0  0  0  0
    9.5284   -2.3581   -3.7208 H   0  0  0  0  0  0  0  0  0  0  0  0
    8.0537   -1.7603   -4.5823 H   0  0  0  0  0  0  0  0  0  0  0  0
    5.7539   -2.4317   -5.2081 H   0  0  0  0  0  0  0  0  0  0  0  0
    4.6985   -0.3905   -7.0592 H   0  0  0  0  0  0  0  0  0  0  0  0
   -0.9347   -2.9324   -6.1281 H   0  0  0  0  0  0  0  0  0  0  0  0
    0.4433   -1.1969  -10.5901 H   0  0  0  0  0  0  0  0  0  0  0  0
  1  2  2  3
  2  3  1  0
  3  4  2  0
  3  5  1  0
  5  6  2  0
  6  7  1  0
  7  8  1  0
  7  9  2  0
  9 10  1  0
  9 11  1  0
 11 12  2  0
 12 13  1  0
 13 14  2  3
 14 15  1  0
 15 16  3  0
 14 17  1  0
 17 18  3  0
  1 19  1  0
 19 20  2  0
 20 21  1  0
 21 22  1  0
 22 23  1  0
 23 24  1  0
 21 25  2  0
 25 26  1  0
 25 27  1  0
 27 28  2  0
 28 29  1  0
 29 30  2  0
 30 31  1  0
 31 32  2  0
 32 33  1  0
 33 34  1  0
 34 35  1  0
 33 36  2  0
 28 37  1  0
 37 38  1  0
 38 39  1  0
 39 40  1  0
 40 41  1  0
 41 42  1  0
 42 43  2  0
 43 44  1  0
 44 45  1  0
 42 46  1  0
 46 47  1  0
 47 48  1  0
 48 49  1  0
 49 50  1  0
 50 51  1  0
 51 52  2  0
 52 53  1  0
 53 54  2  0
 54 55  1  0
 55 56  1  0
 56 57  1  0
 55 58  2  0
 50 59  2  0
 59 60  1  0
 60 61  1  0
 61 62  1  0
 62 63  1  0
 63 64  1  0
 64 65  1  0
 65 66  1  0
 66 67  1  0
 67 68  1  0
 68 69  1  0
 66 70  1  0
 70 71  1  0
 63 72  1  0
 72 73  1  0
 59 74  1  0
 74 75  2  0
 75 76  1  0
 76 77  2  0
 77 78  1  0
 78 79  2  0
 79 80  1  0
 80 81  1  0
 79 82  1  0
 82 83  2  0
 83 84  1  0
 84 85  1  0
 77 86  1  0
 86 87  1  0
 75 88  1  0
 88 89  2  0
 89 90  1  0
 89 91  1  0
 91 92  2  3
 92 93  1  0
 93 94  2  0
 93 95  1  0
 95 96  2  0
 96 97  1  0
 97 98  1  0
 97 99  2  0
 99100  1  0
 99101  1  0
101102  2  0
102103  1  0
103104  2  3
104105  1  0
105106  3  0
104107  1  0
107108  3  0
 13  2  1  0
 26 19  1  0
 69 27  1  0
 90 74  1  0
103 92  1  0
 12  5  1  0
 36 29  1  0
 68 37  2  0
 83 76  1  0
102 95  1  0
 67 39  2  0
 65 40  2  0
 45 41  2  0
 64 46  2  0
 62 47  2  0
 61 49  2  0
 58 51  1  0
  1109  1  0
  6110  1  0
 11111  1  0
 20112  1  0
 23113  1  0
 23114  1  0
 24115  1  0
 24116  1  0
 24117  1  0
 30118  1  0
 31119  1  0
 32120  1  0
 34121  1  0
 34122  1  0
 35123  1  0
 35124  1  0
 35125  1  0
 36126  1  0
 52127  1  0
 53128  1  0
 54129  1  0
 56130  1  0
 56131  1  0
 57132  1  0
 57133  1  0
 57134  1  0
 58135  1  0
 70136  1  0
 70137  1  0
 71138  1  0
 71139  1  0
 71140  1  0
 72141  1  0
 72142  1  0
 73143  1  0
 73144  1  0
 73145  1  0
 78146  1  0
 80147  1  0
 80148  1  0
 81149  1  0
 81150  1  0
 81151  1  0
 82152  1  0
 84153  1  0
 84154  1  0
 85155  1  0
 85156  1  0
 85157  1  0
 86158  1  0
 86159  1  0
 87160  1  0
 87161  1  0
 87162  1  0
 88163  1  0
 91164  1  0
 96165  1  0
101166  1  0
M  END

