
     RDKit          3D

159175  0  0  0  0  0  0  0  0999 V2000
    0.6819   -9.3614   -0.0649 C   0  0  0  0  0  0  0  0  0  0  0  0
    0.6353  -10.5090   -0.7660 C   0  0  0  0  0  0  0  0  0  0  0  0
    1.2453  -10.7726   -2.0793 C   0  0  0  0  0  0  0  0  0  0  0  0
    2.2766  -10.2259   -2.5421 O   0  0  0  0  0  0  0  0  0  0  0  0
    0.5688  -11.9051   -2.6717 C   0  0  0  0  0  0  0  0  0  0  0  0
    0.7003  -12.4140   -3.9686 C   0  0  0  0  0  0  0  0  0  0  0  0
   -0.1518  -13.4555   -4.3581 C   0  0  0  0  0  0  0  0  0  0  0  0
   -0.0043  -14.1329   -5.9777 Cl  0  0  0  0  0  0  0  0  0  0  0  0
   -1.1392  -13.9393   -3.4662 C   0  0  0  0  0  0  0  0  0  0  0  0
   -2.0088  -14.9000   -3.8654 F   0  0  0  0  0  0  0  0  0  0  0  0
   -1.2383  -13.4161   -2.1670 C   0  0  0  0  0  0  0  0  0  0  0  0
   -0.3452  -12.4174   -1.7731 C   0  0  0  0  0  0  0  0  0  0  0  0
   -0.2439  -11.6899   -0.4877 C   0  0  0  0  0  0  0  0  0  0  0  0
   -0.5185  -12.2113    0.7362 C   0  0  0  0  0  0  0  0  0  0  0  0
   -0.1115  -11.5569    1.9599 C   0  0  0  0  0  0  0  0  0  0  0  0
    0.2147  -11.0386    2.9470 N   0  0  0  0  0  0  0  0  0  0  0  0
   -0.8820  -13.5975    0.8918 C   0  0  0  0  0  0  0  0  0  0  0  0
   -1.1155  -14.7206    1.0152 N   0  0  0  0  0  0  0  0  0  0  0  0
    1.3187   -8.1069   -0.5269 C   0  0  0  0  0  0  0  0  0  0  0  0
    1.7354   -7.0902    0.3180 C   0  0  0  0  0  0  0  0  0  0  0  0
    2.0919   -5.9043   -0.3446 C   0  0  0  0  0  0  0  0  0  0  0  0
    2.7155   -4.4856    0.5686 S   0  0  0  0  0  0  0  0  0  0  0  0
    4.4451   -5.0828    0.6005 C   0  0  0  0  0  0  0  0  0  0  0  0
    4.9983   -5.0134    2.0151 C   0  0  0  0  0  0  0  0  0  0  0  0
    1.9071   -5.9566   -1.7293 C   0  0  0  0  0  0  0  0  0  0  0  0
    1.3305   -7.5011   -2.0887 S   0  0  0  0  0  0  0  0  0  0  0  0
    1.9122   -4.8197   -2.6893 C   0  0  0  0  0  0  0  0  0  0  0  0
    0.9648   -4.6277   -3.7159 C   0  0  0  0  0  0  0  0  0  0  0  0
   -0.1997   -5.4859   -3.9705 C   0  0  0  0  0  0  0  0  0  0  0  0
   -1.2461   -5.5428   -3.0375 C   0  0  0  0  0  0  0  0  0  0  0  0
   -2.3211   -6.4061   -3.2549 C   0  0  0  0  0  0  0  0  0  0  0  0
   -2.3581   -7.2173   -4.3928 C   0  0  0  0  0  0  0  0  0  0  0  0
   -1.3149   -7.1638   -5.3323 C   0  0  0  0  0  0  0  0  0  0  0  0
   -1.3240   -8.0723   -6.5335 C   0  0  0  0  0  0  0  0  0  0  0  0
   -0.7915   -9.4562   -6.1764 C   0  0  0  0  0  0  0  0  0  0  0  0
   -0.2377   -6.2940   -5.1148 C   0  0  0  0  0  0  0  0  0  0  0  0
    1.1141   -3.3875   -4.3288 C   0  0  0  0  0  0  0  0  0  0  0  0
    0.0158   -2.4600   -5.2551 S   0  0  0  0  0  0  0  0  0  0  0  0
    0.9554   -1.0708   -5.0144 C   0  0  0  0  0  0  0  0  0  0  0  0
    0.7780    0.2848   -5.0740 C   0  0  0  0  0  0  0  0  0  0  0  0
   -0.2395    1.0541   -5.6353 C   0  0  0  0  0  0  0  0  0  0  0  0
   -0.2414    2.4591   -5.3957 C   0  0  0  0  0  0  0  0  0  0  0  0
   -1.2706    3.1645   -5.9255 N   0  0  0  0  0  0  0  0  0  0  0  0
   -2.1023    1.9431   -6.6763 S   0  0  0  0  0  0  0  0  0  0  0  0
   -1.2610    0.5469   -6.3715 N   0  0  0  0  0  0  0  0  0  0  0  0
    0.7511    3.0120   -4.5740 C   0  0  0  0  0  0  0  0  0  0  0  0
    0.7402    4.2096   -3.9134 C   0  0  0  0  0  0  0  0  0  0  0  0
   -0.5447    5.2537   -3.5111 S   0  0  0  0  0  0  0  0  0  0  0  0
    0.1652    5.6823   -2.0299 C   0  0  0  0  0  0  0  0  0  0  0  0
   -0.3844    6.2440   -0.8626 C   0  0  0  0  0  0  0  0  0  0  0  0
   -1.7249    6.8791   -0.8197 C   0  0  0  0  0  0  0  0  0  0  0  0
   -2.6509    6.5955    0.1995 C   0  0  0  0  0  0  0  0  0  0  0  0
   -3.8785    7.2596    0.2482 C   0  0  0  0  0  0  0  0  0  0  0  0
   -4.2057    8.1995   -0.7294 C   0  0  0  0  0  0  0  0  0  0  0  0
   -3.3116    8.4748   -1.7751 C   0  0  0  0  0  0  0  0  0  0  0  0
   -3.6632    9.4930   -2.8280 C   0  0  0  0  0  0  0  0  0  0  0  0
   -2.9892   10.8290   -2.5271 C   0  0  0  0  0  0  0  0  0  0  0  0
   -2.0714    7.8208   -1.8068 C   0  0  0  0  0  0  0  0  0  0  0  0
    0.4759    6.0331    0.2451 C   0  0  0  0  0  0  0  0  0  0  0  0
    1.8206    5.1248   -0.2646 S   0  0  0  0  0  0  0  0  0  0  0  0
    1.3505    5.0025   -1.8612 C   0  0  0  0  0  0  0  0  0  0  0  0
    1.6517    4.1172   -2.9012 C   0  0  0  0  0  0  0  0  0  0  0  0
    2.2578    2.8952   -2.8656 N   0  0  0  0  0  0  0  0  0  0  0  0
    1.7325    2.2239   -3.9462 C   0  0  0  0  0  0  0  0  0  0  0  0
    1.7990    0.8342   -4.2786 C   0  0  0  0  0  0  0  0  0  0  0  0
    2.6329   -0.1503   -3.8169 N   0  0  0  0  0  0  0  0  0  0  0  0
    2.0401   -1.2962   -4.2422 C   0  0  0  0  0  0  0  0  0  0  0  0
    2.1414   -2.6206   -3.8408 C   0  0  0  0  0  0  0  0  0  0  0  0
    2.9079   -3.4306   -2.5850 S   0  0  0  0  0  0  0  0  0  0  0  0
    4.0769   -0.0312   -3.5782 C   0  0  0  0  0  0  0  0  0  0  0  0
    4.8670   -0.5326   -4.7820 C   0  0  0  0  0  0  0  0  0  0  0  0
    2.8707    2.3193   -1.6571 C   0  0  0  0  0  0  0  0  0  0  0  0
    4.2591    2.9170   -1.4179 C   0  0  0  0  0  0  0  0  0  0  0  0
    0.0967    5.9367    1.6638 C   0  0  0  0  0  0  0  0  0  0  0  0
    0.4914    6.9128    2.6045 C   0  0  0  0  0  0  0  0  0  0  0  0
    0.8843    8.2023    2.2224 O   0  0  0  0  0  0  0  0  0  0  0  0
    0.0769    9.0857    1.4443 C   0  0  0  0  0  0  0  0  0  0  0  0
   -1.2217    9.4252    2.1759 C   0  0  0  0  0  0  0  0  0  0  0  0
    0.5439    6.5899    3.9725 C   0  0  0  0  0  0  0  0  0  0  0  0
    0.9573    7.5630    4.8919 O   0  0  0  0  0  0  0  0  0  0  0  0
    2.2915    7.6309    5.3930 C   0  0  0  0  0  0  0  0  0  0  0  0
    3.2167    8.2745    4.3736 C   0  0  0  0  0  0  0  0  0  0  0  0
    0.1742    5.3038    4.4177 C   0  0  0  0  0  0  0  0  0  0  0  0
   -0.2916    4.3607    3.4936 C   0  0  0  0  0  0  0  0  0  0  0  0
   -0.3358    4.6752    2.1259 C   0  0  0  0  0  0  0  0  0  0  0  0
   -0.7226    3.7139    1.2408 N   0  0  0  0  0  0  0  0  0  0  0  0
   -1.0930    2.4756    1.6514 C   0  0  0  0  0  0  0  0  0  0  0  0
   -1.0588    2.1680    3.0087 C   0  0  0  0  0  0  0  0  0  0  0  0
   -0.6567    3.1130    3.8986 N   0  0  0  0  0  0  0  0  0  0  0  0
    0.4174    4.8737    5.8032 C   0  0  0  0  0  0  0  0  0  0  0  0
   -0.3916    5.1591    6.8369 C   0  0  0  0  0  0  0  0  0  0  0  0
   -1.4436    6.1816    6.8545 C   0  0  0  0  0  0  0  0  0  0  0  0
   -1.8923    6.8162    5.8629 O   0  0  0  0  0  0  0  0  0  0  0  0
   -1.8446    6.3868    8.2320 C   0  0  0  0  0  0  0  0  0  0  0  0
   -2.7281    7.3394    8.7430 C   0  0  0  0  0  0  0  0  0  0  0  0
   -2.8982    7.4163   10.1337 C   0  0  0  0  0  0  0  0  0  0  0  0
   -4.0020    8.6057   10.8035 Cl  0  0  0  0  0  0  0  0  0  0  0  0
   -2.1657    6.5655   10.9835 C   0  0  0  0  0  0  0  0  0  0  0  0
   -2.2999    6.6619   12.3328 F   0  0  0  0  0  0  0  0  0  0  0  0
   -1.2758    5.6223   10.4493 C   0  0  0  0  0  0  0  0  0  0  0  0
   -1.1428    5.5152    9.0566 C   0  0  0  0  0  0  0  0  0  0  0  0
   -0.2873    4.6232    8.2313 C   0  0  0  0  0  0  0  0  0  0  0  0
    0.2109    3.4159    8.6089 C   0  0  0  0  0  0  0  0  0  0  0  0
    0.8011    2.4878    7.6782 C   0  0  0  0  0  0  0  0  0  0  0  0
    1.2759    1.7332    6.9398 N   0  0  0  0  0  0  0  0  0  0  0  0
    0.0382    2.8946    9.9427 C   0  0  0  0  0  0  0  0  0  0  0  0
   -0.1079    2.4576   11.0033 N   0  0  0  0  0  0  0  0  0  0  0  0
    0.1441   -9.2842    0.8646 H   0  0  0  0  0  0  0  0  0  0  0  0
    1.4196  -11.9916   -4.6634 H   0  0  0  0  0  0  0  0  0  0  0  0
   -2.0208  -13.7546   -1.5070 H   0  0  0  0  0  0  0  0  0  0  0  0
    1.7619   -7.1991    1.3960 H   0  0  0  0  0  0  0  0  0  0  0  0
    5.0619   -4.4439   -0.0687 H   0  0  0  0  0  0  0  0  0  0  0  0
    4.5352   -6.1349    0.2501 H   0  0  0  0  0  0  0  0  0  0  0  0
    5.0045   -3.9573    2.3580 H   0  0  0  0  0  0  0  0  0  0  0  0
    4.3661   -5.6282    2.6947 H   0  0  0  0  0  0  0  0  0  0  0  0
    6.0369   -5.3954    2.0236 H   0  0  0  0  0  0  0  0  0  0  0  0
   -1.2200   -4.9366   -2.1426 H   0  0  0  0  0  0  0  0  0  0  0  0
   -3.1286   -6.4571   -2.5306 H   0  0  0  0  0  0  0  0  0  0  0  0
   -3.1911   -7.8934   -4.5393 H   0  0  0  0  0  0  0  0  0  0  0  0
   -2.3632   -8.1708   -6.9240 H   0  0  0  0  0  0  0  0  0  0  0  0
   -0.7077   -7.6415   -7.3477 H   0  0  0  0  0  0  0  0  0  0  0  0
   -0.7088  -10.0709   -7.1014 H   0  0  0  0  0  0  0  0  0  0  0  0
    0.2241   -9.3876   -5.7127 H   0  0  0  0  0  0  0  0  0  0  0  0
   -1.4770   -9.9672   -5.4667 H   0  0  0  0  0  0  0  0  0  0  0  0
    0.5845   -6.2594   -5.8176 H   0  0  0  0  0  0  0  0  0  0  0  0
   -2.4467    5.8515    0.9543 H   0  0  0  0  0  0  0  0  0  0  0  0
   -4.5806    7.0408    1.0410 H   0  0  0  0  0  0  0  0  0  0  0  0
   -5.1632    8.7108   -0.6739 H   0  0  0  0  0  0  0  0  0  0  0  0
   -4.7639    9.6435   -2.8664 H   0  0  0  0  0  0  0  0  0  0  0  0
   -3.3412    9.1319   -3.8253 H   0  0  0  0  0  0  0  0  0  0  0  0
   -3.3093   11.5830   -3.2816 H   0  0  0  0  0  0  0  0  0  0  0  0
   -3.2762   11.1945   -1.5194 H   0  0  0  0  0  0  0  0  0  0  0  0
   -1.8848   10.7214   -2.5765 H   0  0  0  0  0  0  0  0  0  0  0  0
   -1.3696    8.0594   -2.5970 H   0  0  0  0  0  0  0  0  0  0  0  0
    4.3542    1.0268   -3.4460 H   0  0  0  0  0  0  0  0  0  0  0  0
    4.3586   -0.6063   -2.6729 H   0  0  0  0  0  0  0  0  0  0  0  0
    5.9460   -0.3079   -4.6412 H   0  0  0  0  0  0  0  0  0  0  0  0
    4.5137   -0.0299   -5.7086 H   0  0  0  0  0  0  0  0  0  0  0  0
    4.7499   -1.6354   -4.8955 H   0  0  0  0  0  0  0  0  0  0  0  0
    2.9276    1.2237   -1.7038 H   0  0  0  0  0  0  0  0  0  0  0  0
    2.2208    2.4978   -0.7791 H   0  0  0  0  0  0  0  0  0  0  0  0
    4.8943    2.8584   -2.3218 H   0  0  0  0  0  0  0  0  0  0  0  0
    4.1924    3.9894   -1.1327 H   0  0  0  0  0  0  0  0  0  0  0  0
    4.7717    2.3724   -0.5944 H   0  0  0  0  0  0  0  0  0  0  0  0
    0.6394   10.0283    1.2709 H   0  0  0  0  0  0  0  0  0  0  0  0
   -0.1439    8.6520    0.4570 H   0  0  0  0  0  0  0  0  0  0  0  0
   -0.9941    9.9900    3.1055 H   0  0  0  0  0  0  0  0  0  0  0  0
   -1.7700    8.4967    2.4405 H   0  0  0  0  0  0  0  0  0  0  0  0
   -1.8655   10.0465    1.5219 H   0  0  0  0  0  0  0  0  0  0  0  0
    2.2914    8.2400    6.3167 H   0  0  0  0  0  0  0  0  0  0  0  0
    2.6655    6.6170    5.6569 H   0  0  0  0  0  0  0  0  0  0  0  0
    3.3112    7.6250    3.4748 H   0  0  0  0  0  0  0  0  0  0  0  0
    4.2243    8.4206    4.8160 H   0  0  0  0  0  0  0  0  0  0  0  0
    2.8126    9.2629    4.0631 H   0  0  0  0  0  0  0  0  0  0  0  0
   -1.3978    1.7333    0.9242 H   0  0  0  0  0  0  0  0  0  0  0  0
   -1.3516    1.1887    3.3607 H   0  0  0  0  0  0  0  0  0  0  0  0
    1.2590    4.2161    5.9398 H   0  0  0  0  0  0  0  0  0  0  0  0
   -3.2565    8.0144    8.0800 H   0  0  0  0  0  0  0  0  0  0  0  0
   -0.6818    5.0266   11.1233 H   0  0  0  0  0  0  0  0  0  0  0  0
  1  2  2  3
  2  3  1  0
  3  4  2  0
  3  5  1  0
  5  6  2  0
  6  7  1  0
  7  8  1  0
  7  9  2  0
  9 10  1  0
  9 11  1  0
 11 12  2  0
 12 13  1  0
 13 14  2  3
 14 15  1  0
 15 16  3  0
 14 17  1  0
 17 18  3  0
  1 19  1  0
 19 20  2  0
 20 21  1  0
 21 22  1  0
 22 23  1  0
 23 24  1  0
 21 25  2  0
 25 26  1  0
 25 27  1  0
 27 28  2  0
 28 29  1  0
 29 30  2  0
 30 31  1  0
 31 32  2  0
 32 33  1  0
 33 34  1  0
 34 35  1  0
 33 36  2  0
 28 37  1  0
 37 38  1  0
 38 39  1  0
 39 40  1  0
 40 41  1  0
 41 42  1  0
 42 43  2  0
 43 44  1  0
 44 45  1  0
 42 46  1  0
 46 47  1  0
 47 48  1  0
 48 49  1  0
 49 50  1  0
 50 51  1  0
 51 52  2  0
 52 53  1  0
 53 54  2  0
 54 55  1  0
 55 56  1  0
 56 57  1  0
 55 58  2  0
 50 59  2  0
 59 60  1  0
 60 61  1  0
 61 62  1  0
 62 63  1  0
 63 64  1  0
 64 65  1  0
 65 66  1  0
 66 67  1  0
 67 68  1  0
 68 69  1  0
 66 70  1  0
 70 71  1  0
 63 72  1  0
 72 73  1  0
 59 74  1  0
 74 75  2  0
 75 76  1  0
 76 77  1  0
 77 78  1  0
 75 79  1  0
 79 80  1  0
 80 81  1  0
 81 82  1  0
 79 83  2  0
 83 84  1  0
 84 85  2  0
 85 86  1  0
 86 87  2  0
 87 88  1  0
 88 89  2  0
 83 90  1  0
 90 91  2  3
 91 92  1  0
 92 93  2  0
 92 94  1  0
 94 95  2  0
 95 96  1  0
 96 97  1  0
 96 98  2  0
 98 99  1  0
 98100  1  0
100101  2  0
101102  1  0
102103  2  3
103104  1  0
104105  3  0
103106  1  0
106107  3  0
 13  2  1  0
 26 19  1  0
 69 27  1  0
 85 74  1  0
102 91  1  0
 12  5  1  0
 36 29  1  0
 68 37  2  0
 89 84  1  0
101 94  1  0
 67 39  2  0
 65 40  2  0
 45 41  2  0
 64 46  2  0
 62 47  2  0
 61 49  2  0
 58 51  1  0
  1108  1  0
  6109  1  0
 11110  1  0
 20111  1  0
 23112  1  0
 23113  1  0
 24114  1  0
 24115  1  0
 24116  1  0
 30117  1  0
 31118  1  0
 32119  1  0
 34120  1  0
 34121  1  0
 35122  1  0
 35123  1  0
 35124  1  0
 36125  1  0
 52126  1  0
 53127  1  0
 54128  1  0
 56129  1  0
 56130  1  0
 57131  1  0
 57132  1  0
 57133  1  0
 58134  1  0
 70135  1  0
 70136  1  0
 71137  1  0
 71138  1  0
 71139  1  0
 72140  1  0
 72141  1  0
 73142  1  0
 73143  1  0
 73144  1  0
 77145  1  0
 77146  1  0
 78147  1  0
 78148  1  0
 78149  1  0
 81150  1  0
 81151  1  0
 82152  1  0
 82153  1  0
 82154  1  0
 87155  1  0
 88156  1  0
 90157  1  0
 95158  1  0
100159  1  0
M  END

