
     RDKit          3D

203225  0  0  0  0  0  0  0  0999 V2000
    7.2649    6.7636   -6.6377 C   0  0  0  0  0  0  0  0  0  0  0  0
    7.3853    6.5076   -5.3199 C   0  0  0  0  0  0  0  0  0  0  0  0
    6.4045    5.8164   -4.4781 C   0  0  0  0  0  0  0  0  0  0  0  0
    5.1801    5.6642   -4.7327 O   0  0  0  0  0  0  0  0  0  0  0  0
    7.0725    5.3593   -3.2728 C   0  0  0  0  0  0  0  0  0  0  0  0
    6.5880    4.5188   -2.2587 C   0  0  0  0  0  0  0  0  0  0  0  0
    4.9088    4.0005   -2.2458 Cl  0  0  0  0  0  0  0  0  0  0  0  0
    7.4866    4.0880   -1.2686 C   0  0  0  0  0  0  0  0  0  0  0  0
    6.9074    3.0617    0.0487 Cl  0  0  0  0  0  0  0  0  0  0  0  0
    8.8594    4.3939   -1.3754 C   0  0  0  0  0  0  0  0  0  0  0  0
   10.0011    3.7403   -0.1966 Cl  0  0  0  0  0  0  0  0  0  0  0  0
    9.3319    5.2002   -2.4333 C   0  0  0  0  0  0  0  0  0  0  0  0
   11.0619    5.2900   -2.7504 Cl  0  0  0  0  0  0  0  0  0  0  0  0
    8.3918    5.7814   -3.3078 C   0  0  0  0  0  0  0  0  0  0  0  0
    8.5953    6.6868   -4.4738 C   0  0  0  0  0  0  0  0  0  0  0  0
    9.4166    7.7703   -4.4944 C   0  0  0  0  0  0  0  0  0  0  0  0
   10.1909    8.1528   -3.3391 C   0  0  0  0  0  0  0  0  0  0  0  0
   10.8022    8.4715   -2.4079 N   0  0  0  0  0  0  0  0  0  0  0  0
    9.4009    8.7294   -5.5649 C   0  0  0  0  0  0  0  0  0  0  0  0
    9.3981    9.5182   -6.4153 N   0  0  0  0  0  0  0  0  0  0  0  0
    6.0943    6.3295   -7.4237 C   0  0  0  0  0  0  0  0  0  0  0  0
    5.7529    4.9644   -7.4837 C   0  0  0  0  0  0  0  0  0  0  0  0
    4.5446    4.6122   -8.0676 C   0  0  0  0  0  0  0  0  0  0  0  0
    3.8463    3.3346   -8.0275 C   0  0  0  0  0  0  0  0  0  0  0  0
    4.2794    2.2536   -7.5446 O   0  0  0  0  0  0  0  0  0  0  0  0
    2.5037    3.5820   -8.5367 C   0  0  0  0  0  0  0  0  0  0  0  0
    2.4136    4.9158   -8.9059 C   0  0  0  0  0  0  0  0  0  0  0  0
    3.6960    5.5616   -8.6120 C   0  0  0  0  0  0  0  0  0  0  0  0
    4.0377    6.9133   -8.6196 C   0  0  0  0  0  0  0  0  0  0  0  0
    5.2548    7.2949   -8.0306 C   0  0  0  0  0  0  0  0  0  0  0  0
    1.1861    5.4778   -9.2623 C   0  0  0  0  0  0  0  0  0  0  0  0
    0.0388    4.6670   -9.2040 C   0  0  0  0  0  0  0  0  0  0  0  0
    0.1256    3.3192   -8.7820 C   0  0  0  0  0  0  0  0  0  0  0  0
    1.3790    2.7669   -8.4557 C   0  0  0  0  0  0  0  0  0  0  0  0
   -1.0843    2.6226   -8.3567 C   0  0  0  0  0  0  0  0  0  0  0  0
   -1.6966    1.5098   -8.9740 C   0  0  0  0  0  0  0  0  0  0  0  0
   -1.2935    0.9494  -10.2717 C   0  0  0  0  0  0  0  0  0  0  0  0
   -2.1348    1.0966  -11.3843 C   0  0  0  0  0  0  0  0  0  0  0  0
   -1.7238    0.6441  -12.6414 C   0  0  0  0  0  0  0  0  0  0  0  0
   -0.4698    0.0428  -12.7968 C   0  0  0  0  0  0  0  0  0  0  0  0
    0.3769   -0.1237  -11.6903 C   0  0  0  0  0  0  0  0  0  0  0  0
    1.7184   -0.7902  -11.8498 C   0  0  0  0  0  0  0  0  0  0  0  0
    1.6356   -2.2765  -11.5119 C   0  0  0  0  0  0  0  0  0  0  0  0
   -0.0509    0.3144  -10.4251 C   0  0  0  0  0  0  0  0  0  0  0  0
   -2.7241    1.0034   -8.1730 C   0  0  0  0  0  0  0  0  0  0  0  0
   -3.6703   -0.4173   -8.2075 S   0  0  0  0  0  0  0  0  0  0  0  0
   -4.3183   -0.0804   -6.6661 C   0  0  0  0  0  0  0  0  0  0  0  0
   -4.8423   -0.8168   -5.6283 C   0  0  0  0  0  0  0  0  0  0  0  0
   -5.1893   -2.1697   -5.5339 C   0  0  0  0  0  0  0  0  0  0  0  0
   -5.4215   -2.7366   -4.2393 C   0  0  0  0  0  0  0  0  0  0  0  0
   -5.6952   -4.0617   -4.1889 N   0  0  0  0  0  0  0  0  0  0  0  0
   -5.6256   -4.4207   -5.8045 S   0  0  0  0  0  0  0  0  0  0  0  0
   -5.2622   -3.0126   -6.5945 N   0  0  0  0  0  0  0  0  0  0  0  0
   -5.3521   -1.9031   -3.1158 C   0  0  0  0  0  0  0  0  0  0  0  0
   -5.4889   -2.1296   -1.7662 C   0  0  0  0  0  0  0  0  0  0  0  0
   -5.4123   -3.4363   -0.6883 S   0  0  0  0  0  0  0  0  0  0  0  0
   -5.0537   -2.3868    0.6244 C   0  0  0  0  0  0  0  0  0  0  0  0
   -4.4058   -2.6302    1.8402 C   0  0  0  0  0  0  0  0  0  0  0  0
   -4.5027   -3.9123    2.5597 C   0  0  0  0  0  0  0  0  0  0  0  0
   -3.8468   -5.0607    2.0892 C   0  0  0  0  0  0  0  0  0  0  0  0
   -3.8980   -6.2477    2.8264 C   0  0  0  0  0  0  0  0  0  0  0  0
   -4.6323   -6.3078    4.0165 C   0  0  0  0  0  0  0  0  0  0  0  0
   -5.3357   -5.1813    4.4726 C   0  0  0  0  0  0  0  0  0  0  0  0
   -6.1458   -5.2585    5.7378 C   0  0  0  0  0  0  0  0  0  0  0  0
   -5.3230   -4.8383    6.9527 C   0  0  0  0  0  0  0  0  0  0  0  0
   -5.2441   -3.9759    3.7549 C   0  0  0  0  0  0  0  0  0  0  0  0
   -3.7130   -1.4848    2.3044 C   0  0  0  0  0  0  0  0  0  0  0  0
   -4.0320   -0.2021    1.2320 S   0  0  0  0  0  0  0  0  0  0  0  0
   -4.9882   -1.0858    0.1986 C   0  0  0  0  0  0  0  0  0  0  0  0
   -5.2524   -0.9450   -1.1465 C   0  0  0  0  0  0  0  0  0  0  0  0
   -4.9890    0.0656   -2.0083 N   0  0  0  0  0  0  0  0  0  0  0  0
   -4.9989   -0.5503   -3.2270 C   0  0  0  0  0  0  0  0  0  0  0  0
   -4.6387   -0.0312   -4.4876 C   0  0  0  0  0  0  0  0  0  0  0  0
   -3.8523    1.0547   -4.7607 N   0  0  0  0  0  0  0  0  0  0  0  0
   -3.7732    1.0419   -6.1168 C   0  0  0  0  0  0  0  0  0  0  0  0
   -2.8893    1.6612   -6.9823 C   0  0  0  0  0  0  0  0  0  0  0  0
   -1.7948    2.9212   -6.8499 S   0  0  0  0  0  0  0  0  0  0  0  0
   -2.7302    1.5075   -3.9148 C   0  0  0  0  0  0  0  0  0  0  0  0
   -1.5070    0.5963   -4.0976 C   0  0  0  0  0  0  0  0  0  0  0  0
   -5.2082    1.4861   -1.7089 C   0  0  0  0  0  0  0  0  0  0  0  0
   -6.6247    1.7271   -1.1862 C   0  0  0  0  0  0  0  0  0  0  0  0
   -2.5255   -1.5078    3.1952 C   0  0  0  0  0  0  0  0  0  0  0  0
   -1.5556   -0.4858    3.3428 C   0  0  0  0  0  0  0  0  0  0  0  0
   -1.7983    0.9260    3.1789 N   0  0  0  0  0  0  0  0  0  0  0  0
   -1.8231    1.6969    4.4077 C   0  0  0  0  0  0  0  0  0  0  0  0
   -2.4792    1.1793    5.5440 C   0  0  0  0  0  0  0  0  0  0  0  0
   -2.2347    1.7100    6.8121 C   0  0  0  0  0  0  0  0  0  0  0  0
   -1.3331    2.7721    6.9683 C   0  0  0  0  0  0  0  0  0  0  0  0
   -1.0019    3.2727    8.3425 C   0  0  0  0  0  0  0  0  0  0  0  0
   -0.7565    3.3587    5.8346 C   0  0  0  0  0  0  0  0  0  0  0  0
   -0.9897    2.8208    4.5649 C   0  0  0  0  0  0  0  0  0  0  0  0
   -1.5061    1.5554    1.9108 C   0  0  0  0  0  0  0  0  0  0  0  0
   -0.5703    0.9953    1.0151 C   0  0  0  0  0  0  0  0  0  0  0  0
   -0.2799    1.6276   -0.1957 C   0  0  0  0  0  0  0  0  0  0  0  0
   -0.9268    2.8242   -0.5416 C   0  0  0  0  0  0  0  0  0  0  0  0
   -0.5503    3.5511   -1.7982 C   0  0  0  0  0  0  0  0  0  0  0  0
   -1.8645    3.3799    0.3413 C   0  0  0  0  0  0  0  0  0  0  0  0
   -2.1587    2.7474    1.5520 C   0  0  0  0  0  0  0  0  0  0  0  0
   -0.4309   -0.9430    4.0250 C   0  0  0  0  0  0  0  0  0  0  0  0
    0.9186   -0.1755    4.6610 S   0  0  0  0  0  0  0  0  0  0  0  0
    1.4586   -1.5506    5.5008 C   0  0  0  0  0  0  0  0  0  0  0  0
    0.5407   -2.6073    5.3199 C   0  0  0  0  0  0  0  0  0  0  0  0
    0.4503   -3.7679    6.1680 N   0  0  0  0  0  0  0  0  0  0  0  0
    0.4698   -3.5543    7.5929 C   0  0  0  0  0  0  0  0  0  0  0  0
   -0.2826   -2.5127    8.1628 C   0  0  0  0  0  0  0  0  0  0  0  0
   -0.2880   -2.3177    9.5467 C   0  0  0  0  0  0  0  0  0  0  0  0
    0.4376   -3.1760   10.3848 C   0  0  0  0  0  0  0  0  0  0  0  0
    0.4298   -2.9610   11.8677 C   0  0  0  0  0  0  0  0  0  0  0  0
    1.2229   -4.1942    9.8160 C   0  0  0  0  0  0  0  0  0  0  0  0
    1.2300   -4.3878    8.4287 C   0  0  0  0  0  0  0  0  0  0  0  0
    0.0853   -5.0624    5.6183 C   0  0  0  0  0  0  0  0  0  0  0  0
    0.4708   -5.4259    4.3126 C   0  0  0  0  0  0  0  0  0  0  0  0
    0.1561   -6.6888    3.7991 C   0  0  0  0  0  0  0  0  0  0  0  0
   -0.5623   -7.6072    4.5714 C   0  0  0  0  0  0  0  0  0  0  0  0
   -0.9069   -8.9509    4.0045 C   0  0  0  0  0  0  0  0  0  0  0  0
   -1.0161   -7.2297    5.8428 C   0  0  0  0  0  0  0  0  0  0  0  0
   -0.6879   -5.9717    6.3643 C   0  0  0  0  0  0  0  0  0  0  0  0
   -0.4858   -2.2239    4.4622 C   0  0  0  0  0  0  0  0  0  0  0  0
   -1.9408   -2.9011    3.9952 S   0  0  0  0  0  0  0  0  0  0  0  0
    2.6321   -1.5351    6.3852 C   0  0  0  0  0  0  0  0  0  0  0  0
    3.6156   -2.4609    6.3338 C   0  0  0  0  0  0  0  0  0  0  0  0
    3.6965   -3.5528    5.3654 C   0  0  0  0  0  0  0  0  0  0  0  0
    3.0754   -3.6028    4.2748 O   0  0  0  0  0  0  0  0  0  0  0  0
    4.8076   -4.4096    5.7182 C   0  0  0  0  0  0  0  0  0  0  0  0
    5.2597   -5.5604    5.0647 C   0  0  0  0  0  0  0  0  0  0  0  0
    4.2560   -6.3472    3.8506 Cl  0  0  0  0  0  0  0  0  0  0  0  0
    6.5174   -6.0830    5.4200 C   0  0  0  0  0  0  0  0  0  0  0  0
    7.1201   -7.5387    4.6260 Cl  0  0  0  0  0  0  0  0  0  0  0  0
    7.3355   -5.3835    6.3328 C   0  0  0  0  0  0  0  0  0  0  0  0
    8.9867   -5.9402    6.6504 Cl  0  0  0  0  0  0  0  0  0  0  0  0
    6.8605   -4.2117    6.9676 C   0  0  0  0  0  0  0  0  0  0  0  0
    8.0046   -3.1530    7.7834 Cl  0  0  0  0  0  0  0  0  0  0  0  0
    5.5232   -3.8192    6.7429 C   0  0  0  0  0  0  0  0  0  0  0  0
    4.7721   -2.6421    7.2656 C   0  0  0  0  0  0  0  0  0  0  0  0
    4.9028   -2.1332    8.5171 C   0  0  0  0  0  0  0  0  0  0  0  0
    4.3758   -0.8521    8.8984 C   0  0  0  0  0  0  0  0  0  0  0  0
    3.9866    0.2029    9.2088 N   0  0  0  0  0  0  0  0  0  0  0  0
    5.5540   -2.8761    9.5592 C   0  0  0  0  0  0  0  0  0  0  0  0
    6.0681   -3.4740   10.4058 N   0  0  0  0  0  0  0  0  0  0  0  0
    8.0585    7.2545   -7.1807 H   0  0  0  0  0  0  0  0  0  0  0  0
    6.3703    4.2145   -7.0007 H   0  0  0  0  0  0  0  0  0  0  0  0
    3.3584    7.6563   -9.0157 H   0  0  0  0  0  0  0  0  0  0  0  0
    5.5116    8.3459   -7.9771 H   0  0  0  0  0  0  0  0  0  0  0  0
    1.1009    6.5275   -9.5072 H   0  0  0  0  0  0  0  0  0  0  0  0
   -0.9355    5.1099   -9.3909 H   0  0  0  0  0  0  0  0  0  0  0  0
    1.4545    1.7663   -8.0422 H   0  0  0  0  0  0  0  0  0  0  0  0
   -3.0977    1.5819  -11.2848 H   0  0  0  0  0  0  0  0  0  0  0  0
   -2.3654    0.7816  -13.5017 H   0  0  0  0  0  0  0  0  0  0  0  0
   -0.1623   -0.2926  -13.7772 H   0  0  0  0  0  0  0  0  0  0  0  0
    2.4638   -0.3052  -11.1809 H   0  0  0  0  0  0  0  0  0  0  0  0
    2.0835   -0.6730  -12.8904 H   0  0  0  0  0  0  0  0  0  0  0  0
    2.6129   -2.7600  -11.7278 H   0  0  0  0  0  0  0  0  0  0  0  0
    0.8495   -2.7723  -12.1259 H   0  0  0  0  0  0  0  0  0  0  0  0
    1.3984   -2.4147  -10.4326 H   0  0  0  0  0  0  0  0  0  0  0  0
    0.5795    0.1596   -9.5580 H   0  0  0  0  0  0  0  0  0  0  0  0
   -3.2725   -5.0209    1.1758 H   0  0  0  0  0  0  0  0  0  0  0  0
   -3.3672   -7.1183    2.4758 H   0  0  0  0  0  0  0  0  0  0  0  0
   -4.6697   -7.2384    4.5694 H   0  0  0  0  0  0  0  0  0  0  0  0
   -7.0439   -4.6052    5.6572 H   0  0  0  0  0  0  0  0  0  0  0  0
   -6.5121   -6.2985    5.8899 H   0  0  0  0  0  0  0  0  0  0  0  0
   -5.8814   -5.0727    7.8814 H   0  0  0  0  0  0  0  0  0  0  0  0
   -4.3537   -5.3818    6.9695 H   0  0  0  0  0  0  0  0  0  0  0  0
   -5.1210   -3.7466    6.9167 H   0  0  0  0  0  0  0  0  0  0  0  0
   -5.7533   -3.0913    4.1179 H   0  0  0  0  0  0  0  0  0  0  0  0
   -2.4650    2.5599   -4.1504 H   0  0  0  0  0  0  0  0  0  0  0  0
   -2.9828    1.4795   -2.8469 H   0  0  0  0  0  0  0  0  0  0  0  0
   -0.9597    0.8471   -5.0217 H   0  0  0  0  0  0  0  0  0  0  0  0
   -1.8142   -0.4715   -4.1195 H   0  0  0  0  0  0  0  0  0  0  0  0
   -0.8158    0.7272   -3.2386 H   0  0  0  0  0  0  0  0  0  0  0  0
   -4.4708    1.8345   -0.9553 H   0  0  0  0  0  0  0  0  0  0  0  0
   -5.1011    2.1031   -2.6279 H   0  0  0  0  0  0  0  0  0  0  0  0
   -7.3679    1.2776   -1.8745 H   0  0  0  0  0  0  0  0  0  0  0  0
   -6.7429    1.2807   -0.1771 H   0  0  0  0  0  0  0  0  0  0  0  0
   -6.8181    2.8195   -1.1129 H   0  0  0  0  0  0  0  0  0  0  0  0
   -3.1240    0.3127    5.4578 H   0  0  0  0  0  0  0  0  0  0  0  0
   -2.7067    1.2589    7.6776 H   0  0  0  0  0  0  0  0  0  0  0  0
   -0.0379    3.8309    8.3421 H   0  0  0  0  0  0  0  0  0  0  0  0
   -1.8095    3.9486    8.6985 H   0  0  0  0  0  0  0  0  0  0  0  0
   -0.9022    2.4201    9.0492 H   0  0  0  0  0  0  0  0  0  0  0  0
   -0.0821    4.1971    5.9372 H   0  0  0  0  0  0  0  0  0  0  0  0
   -0.4494    3.2299    3.7238 H   0  0  0  0  0  0  0  0  0  0  0  0
   -0.0469    0.0799    1.2617 H   0  0  0  0  0  0  0  0  0  0  0  0
    0.4562    1.1888   -0.8592 H   0  0  0  0  0  0  0  0  0  0  0  0
   -1.4431    4.0335   -2.2480 H   0  0  0  0  0  0  0  0  0  0  0  0
   -0.1138    2.8585   -2.5480 H   0  0  0  0  0  0  0  0  0  0  0  0
    0.2067    4.3256   -1.5581 H   0  0  0  0  0  0  0  0  0  0  0  0
   -2.3598    4.3044    0.0891 H   0  0  0  0  0  0  0  0  0  0  0  0
   -2.8906    3.1882    2.2124 H   0  0  0  0  0  0  0  0  0  0  0  0
   -0.8713   -1.8560    7.5398 H   0  0  0  0  0  0  0  0  0  0  0  0
   -0.8731   -1.5087    9.9645 H   0  0  0  0  0  0  0  0  0  0  0  0
    0.6411   -3.9097   12.4030 H   0  0  0  0  0  0  0  0  0  0  0  0
    1.2008   -2.2086   12.1393 H   0  0  0  0  0  0  0  0  0  0  0  0
   -0.5649   -2.5932   12.2002 H   0  0  0  0  0  0  0  0  0  0  0  0
    1.8132   -4.8463   10.4498 H   0  0  0  0  0  0  0  0  0  0  0  0
    1.8309   -5.1850    8.0094 H   0  0  0  0  0  0  0  0  0  0  0  0
    1.0094   -4.7355    3.6822 H   0  0  0  0  0  0  0  0  0  0  0  0
    0.4799   -6.9453    2.7985 H   0  0  0  0  0  0  0  0  0  0  0  0
   -0.0630   -9.3378    3.3948 H   0  0  0  0  0  0  0  0  0  0  0  0
   -1.1094   -9.6837    4.8138 H   0  0  0  0  0  0  0  0  0  0  0  0
   -1.8086   -8.8698    3.3617 H   0  0  0  0  0  0  0  0  0  0  0  0
   -1.6130   -7.9110    6.4344 H   0  0  0  0  0  0  0  0  0  0  0  0
   -1.0554   -5.7130    7.3471 H   0  0  0  0  0  0  0  0  0  0  0  0
    2.6957   -0.6988    7.0690 H   0  0  0  0  0  0  0  0  0  0  0  0
  1  2  2  3
  2  3  1  0
  3  4  2  0
  3  5  1  0
  5  6  2  0
  6  7  1  0
  6  8  1  0
  8  9  1  0
  8 10  2  0
 10 11  1  0
 10 12  1  0
 12 13  1  0
 12 14  2  0
 14 15  1  0
 15 16  2  3
 16 17  1  0
 17 18  3  0
 16 19  1  0
 19 20  3  0
  1 21  1  0
 21 22  2  0
 22 23  1  0
 23 24  1  0
 24 25  2  0
 24 26  1  0
 26 27  2  0
 27 28  1  0
 28 29  1  0
 29 30  2  0
 27 31  1  0
 31 32  2  0
 32 33  1  0
 33 34  2  0
 33 35  1  0
 35 36  2  0
 36 37  1  0
 37 38  2  0
 38 39  1  0
 39 40  2  0
 40 41  1  0
 41 42  1  0
 42 43  1  0
 41 44  2  0
 36 45  1  0
 45 46  1  0
 46 47  1  0
 47 48  1  0
 48 49  1  0
 49 50  1  0
 50 51  2  0
 51 52  1  0
 52 53  1  0
 50 54  1  0
 54 55  1  0
 55 56  1  0
 56 57  1  0
 57 58  1  0
 58 59  1  0
 59 60  2  0
 60 61  1  0
 61 62  2  0
 62 63  1  0
 63 64  1  0
 64 65  1  0
 63 66  2  0
 58 67  2  0
 67 68  1  0
 68 69  1  0
 69 70  1  0
 70 71  1  0
 71 72  1  0
 72 73  1  0
 73 74  1  0
 74 75  1  0
 75 76  1  0
 76 77  1  0
 74 78  1  0
 78 79  1  0
 71 80  1  0
 80 81  1  0
 67 82  1  0
 82 83  2  0
 83 84  1  0
 84 85  1  0
 85 86  2  0
 86 87  1  0
 87 88  2  0
 88 89  1  0
 88 90  1  0
 90 91  2  0
 84 92  1  0
 92 93  2  0
 93 94  1  0
 94 95  2  0
 95 96  1  0
 95 97  1  0
 97 98  2  0
 83 99  1  0
 99100  1  0
100101  1  0
101102  2  0
102103  1  0
103104  1  0
104105  2  0
105106  1  0
106107  2  0
107108  1  0
107109  1  0
109110  2  0
103111  1  0
111112  2  0
112113  1  0
113114  2  0
114115  1  0
114116  1  0
116117  2  0
102118  1  0
118119  1  0
101120  1  0
120121  2  3
121122  1  0
122123  2  0
122124  1  0
124125  2  0
125126  1  0
125127  1  0
127128  1  0
127129  2  0
129130  1  0
129131  1  0
131132  1  0
131133  2  0
133134  1  0
134135  2  3
135136  1  0
136137  3  0
135138  1  0
138139  3  0
 15  2  1  0
 30 21  1  0
 77 35  1  0
119 82  1  0
134121  1  0
 14  5  1  0
 28 23  2  0
 44 37  1  0
 76 45  2  0
 91 85  1  0
 98 92  1  0
118 99  2  0
133124  1  0
 34 26  1  0
 75 47  2  0
110104  1  0
117111  1  0
 73 48  2  0
 53 49  2  0
 72 54  2  0
 70 55  2  0
 69 57  2  0
 66 59  1  0
  1140  1  0
 22141  1  0
 29142  1  0
 30143  1  0
 31144  1  0
 32145  1  0
 34146  1  0
 38147  1  0
 39148  1  0
 40149  1  0
 42150  1  0
 42151  1  0
 43152  1  0
 43153  1  0
 43154  1  0
 44155  1  0
 60156  1  0
 61157  1  0
 62158  1  0
 64159  1  0
 64160  1  0
 65161  1  0
 65162  1  0
 65163  1  0
 66164  1  0
 78165  1  0
 78166  1  0
 79167  1  0
 79168  1  0
 79169  1  0
 80170  1  0
 80171  1  0
 81172  1  0
 81173  1  0
 81174  1  0
 86175  1  0
 87176  1  0
 89177  1  0
 89178  1  0
 89179  1  0
 90180  1  0
 91181  1  0
 93182  1  0
 94183  1  0
 96184  1  0
 96185  1  0
 96186  1  0
 97187  1  0
 98188  1  0
105189  1  0
106190  1  0
108191  1  0
108192  1  0
108193  1  0
109194  1  0
110195  1  0
112196  1  0
113197  1  0
115198  1  0
115199  1  0
115200  1  0
116201  1  0
117202  1  0
120203  1  0
M  END

