
     RDKit          3D

249274  0  0  0  0  0  0  0  0999 V2000
   -6.6087    0.7986   -3.4142 C   0  0  0  0  0  0  0  0  0  0  0  0
   -6.9642    1.8192   -2.6133 C   0  0  0  0  0  0  0  0  0  0  0  0
   -6.0909    2.8718   -2.0785 C   0  0  0  0  0  0  0  0  0  0  0  0
   -4.8889    3.0758   -2.3952 O   0  0  0  0  0  0  0  0  0  0  0  0
   -6.7813    3.5140   -0.9687 C   0  0  0  0  0  0  0  0  0  0  0  0
   -6.3018    4.4811   -0.0738 C   0  0  0  0  0  0  0  0  0  0  0  0
   -4.7555    5.2823   -0.3624 Cl  0  0  0  0  0  0  0  0  0  0  0  0
   -7.0738    4.7855    1.0655 C   0  0  0  0  0  0  0  0  0  0  0  0
   -6.5118    6.0088    2.2089 Cl  0  0  0  0  0  0  0  0  0  0  0  0
   -8.2576    4.0586    1.3298 C   0  0  0  0  0  0  0  0  0  0  0  0
   -9.1539    4.3480    2.8204 Cl  0  0  0  0  0  0  0  0  0  0  0  0
   -8.7146    3.0825    0.4189 C   0  0  0  0  0  0  0  0  0  0  0  0
   -9.9973    1.9744    0.8970 Cl  0  0  0  0  0  0  0  0  0  0  0  0
   -8.0133    2.9085   -0.7893 C   0  0  0  0  0  0  0  0  0  0  0  0
   -8.2659    1.9577   -1.9034 C   0  0  0  0  0  0  0  0  0  0  0  0
   -9.4783    1.7012   -2.4560 C   0  0  0  0  0  0  0  0  0  0  0  0
   -9.6322    0.8687   -3.6221 C   0  0  0  0  0  0  0  0  0  0  0  0
   -9.7636    0.1800   -4.5455 N   0  0  0  0  0  0  0  0  0  0  0  0
  -10.6652    2.4025   -2.0435 C   0  0  0  0  0  0  0  0  0  0  0  0
  -11.6265    2.9649   -1.7295 N   0  0  0  0  0  0  0  0  0  0  0  0
   -5.3474    0.7363   -4.1692 C   0  0  0  0  0  0  0  0  0  0  0  0
   -4.5858   -0.4246   -4.3649 C   0  0  0  0  0  0  0  0  0  0  0  0
   -4.8834   -1.7166   -3.8015 N   0  0  0  0  0  0  0  0  0  0  0  0
   -5.0027   -1.8739   -2.3682 C   0  0  0  0  0  0  0  0  0  0  0  0
   -5.8484   -2.8541   -1.8168 C   0  0  0  0  0  0  0  0  0  0  0  0
   -5.9353   -3.0234   -0.4295 C   0  0  0  0  0  0  0  0  0  0  0  0
   -5.2164   -2.1839    0.4324 C   0  0  0  0  0  0  0  0  0  0  0  0
   -5.2882   -2.3832    1.9167 C   0  0  0  0  0  0  0  0  0  0  0  0
   -4.3815   -1.1959   -0.1089 C   0  0  0  0  0  0  0  0  0  0  0  0
   -4.2748   -1.0401   -1.4921 C   0  0  0  0  0  0  0  0  0  0  0  0
   -4.9422   -2.8444   -4.7039 C   0  0  0  0  0  0  0  0  0  0  0  0
   -4.3628   -4.0795   -4.3577 C   0  0  0  0  0  0  0  0  0  0  0  0
   -4.3245   -5.1273   -5.2865 C   0  0  0  0  0  0  0  0  0  0  0  0
   -4.8414   -4.9538   -6.5787 C   0  0  0  0  0  0  0  0  0  0  0  0
   -4.7078   -6.0390   -7.6051 C   0  0  0  0  0  0  0  0  0  0  0  0
   -5.4076   -3.7199   -6.9301 C   0  0  0  0  0  0  0  0  0  0  0  0
   -5.4739   -2.6856   -5.9995 C   0  0  0  0  0  0  0  0  0  0  0  0
   -3.5228   -0.1953   -5.2337 C   0  0  0  0  0  0  0  0  0  0  0  0
   -2.1870   -1.0842   -5.6934 S   0  0  0  0  0  0  0  0  0  0  0  0
   -1.4753    0.1698   -6.5992 C   0  0  0  0  0  0  0  0  0  0  0  0
   -2.3004    1.3050   -6.5191 C   0  0  0  0  0  0  0  0  0  0  0  0
   -1.9700    2.5847   -7.0885 N   0  0  0  0  0  0  0  0  0  0  0  0
   -2.1447    3.7602   -6.2749 C   0  0  0  0  0  0  0  0  0  0  0  0
   -1.6663    3.7843   -4.9549 C   0  0  0  0  0  0  0  0  0  0  0  0
   -1.9264    4.8792   -4.1274 C   0  0  0  0  0  0  0  0  0  0  0  0
   -2.6537    5.9754   -4.6130 C   0  0  0  0  0  0  0  0  0  0  0  0
   -2.9849    7.1232   -3.7051 C   0  0  0  0  0  0  0  0  0  0  0  0
   -3.1319    5.9561   -5.9339 C   0  0  0  0  0  0  0  0  0  0  0  0
   -2.8790    4.8578   -6.7593 C   0  0  0  0  0  0  0  0  0  0  0  0
   -1.5955    2.6882   -8.4838 C   0  0  0  0  0  0  0  0  0  0  0  0
   -2.1259    1.7981   -9.4409 C   0  0  0  0  0  0  0  0  0  0  0  0
   -1.8304    1.9554  -10.7975 C   0  0  0  0  0  0  0  0  0  0  0  0
   -0.9929    2.9932  -11.2237 C   0  0  0  0  0  0  0  0  0  0  0  0
   -0.7650    3.2244  -12.6919 C   0  0  0  0  0  0  0  0  0  0  0  0
   -0.4426    3.8690  -10.2770 C   0  0  0  0  0  0  0  0  0  0  0  0
   -0.7297    3.7085   -8.9191 C   0  0  0  0  0  0  0  0  0  0  0  0
   -3.4356    1.0594   -5.7364 C   0  0  0  0  0  0  0  0  0  0  0  0
   -4.7040    1.9866   -5.1409 S   0  0  0  0  0  0  0  0  0  0  0  0
   -0.0288    0.2034   -6.7928 C   0  0  0  0  0  0  0  0  0  0  0  0
    0.6924   -0.7373   -7.5490 C   0  0  0  0  0  0  0  0  0  0  0  0
    0.2962   -1.2288   -8.8902 C   0  0  0  0  0  0  0  0  0  0  0  0
   -0.9964   -1.7036   -9.1725 C   0  0  0  0  0  0  0  0  0  0  0  0
   -1.3578   -2.0255  -10.4836 C   0  0  0  0  0  0  0  0  0  0  0  0
   -0.4344   -1.8864  -11.5233 C   0  0  0  0  0  0  0  0  0  0  0  0
    0.8656   -1.4373  -11.2557 C   0  0  0  0  0  0  0  0  0  0  0  0
    1.8506   -1.2253  -12.3753 C   0  0  0  0  0  0  0  0  0  0  0  0
    1.7962    0.2181  -12.8706 C   0  0  0  0  0  0  0  0  0  0  0  0
    1.2211   -1.1125   -9.9393 C   0  0  0  0  0  0  0  0  0  0  0  0
    1.9630   -0.9554   -7.0028 C   0  0  0  0  0  0  0  0  0  0  0  0
    2.9415   -2.3398   -7.0600 S   0  0  0  0  0  0  0  0  0  0  0  0
    3.8321   -1.8534   -5.7000 C   0  0  0  0  0  0  0  0  0  0  0  0
    4.4047   -2.5440   -4.6607 C   0  0  0  0  0  0  0  0  0  0  0  0
    4.4618   -3.9340   -4.4412 C   0  0  0  0  0  0  0  0  0  0  0  0
    4.6312   -4.4245   -3.1072 C   0  0  0  0  0  0  0  0  0  0  0  0
    4.6031   -5.7670   -2.9340 N   0  0  0  0  0  0  0  0  0  0  0  0
    4.3410   -6.2468   -4.4984 S   0  0  0  0  0  0  0  0  0  0  0  0
    4.2584   -4.8627   -5.4068 N   0  0  0  0  0  0  0  0  0  0  0  0
    4.8273   -3.5019   -2.0744 C   0  0  0  0  0  0  0  0  0  0  0  0
    4.9626   -3.6462   -0.7123 C   0  0  0  0  0  0  0  0  0  0  0  0
    4.2014   -4.6594    0.4232 S   0  0  0  0  0  0  0  0  0  0  0  0
    4.2038   -3.4462    1.6296 C   0  0  0  0  0  0  0  0  0  0  0  0
    3.4378   -3.2825    2.7987 C   0  0  0  0  0  0  0  0  0  0  0  0
    2.5153   -4.3403    3.2343 C   0  0  0  0  0  0  0  0  0  0  0  0
    3.0038   -5.4376    3.9597 C   0  0  0  0  0  0  0  0  0  0  0  0
    2.2150   -6.5746    4.1328 C   0  0  0  0  0  0  0  0  0  0  0  0
    0.9478   -6.6432    3.5491 C   0  0  0  0  0  0  0  0  0  0  0  0
    0.4568   -5.5681    2.7923 C   0  0  0  0  0  0  0  0  0  0  0  0
   -0.8576   -5.6990    2.0659 C   0  0  0  0  0  0  0  0  0  0  0  0
   -2.0288   -5.3665    2.9787 C   0  0  0  0  0  0  0  0  0  0  0  0
    1.2327   -4.4039    2.6662 C   0  0  0  0  0  0  0  0  0  0  0  0
    3.4177   -1.9227    3.2076 C   0  0  0  0  0  0  0  0  0  0  0  0
    4.2988   -1.0051    2.0727 S   0  0  0  0  0  0  0  0  0  0  0  0
    4.7483   -2.2906    1.1244 C   0  0  0  0  0  0  0  0  0  0  0  0
    5.1319   -2.3863   -0.2038 C   0  0  0  0  0  0  0  0  0  0  0  0
    5.0896   -1.4364   -1.1665 N   0  0  0  0  0  0  0  0  0  0  0  0
    4.8260   -2.1274   -2.3113 C   0  0  0  0  0  0  0  0  0  0  0  0
    4.4322   -1.6453   -3.5822 C   0  0  0  0  0  0  0  0  0  0  0  0
    3.7035   -0.5223   -3.8695 N   0  0  0  0  0  0  0  0  0  0  0  0
    3.3709   -0.6757   -5.1801 C   0  0  0  0  0  0  0  0  0  0  0  0
    2.2809   -0.1856   -5.9115 C   0  0  0  0  0  0  0  0  0  0  0  0
    0.9550    0.7580   -5.5237 S   0  0  0  0  0  0  0  0  0  0  0  0
    2.9156    0.2764   -2.9140 C   0  0  0  0  0  0  0  0  0  0  0  0
    3.1774    1.7751   -3.0833 C   0  0  0  0  0  0  0  0  0  0  0  0
    5.5366   -0.0442   -1.0263 C   0  0  0  0  0  0  0  0  0  0  0  0
    6.9354    0.0294   -0.4150 C   0  0  0  0  0  0  0  0  0  0  0  0
    2.7634   -1.2514    4.3557 C   0  0  0  0  0  0  0  0  0  0  0  0
    2.6630   -1.6936    5.6953 C   0  0  0  0  0  0  0  0  0  0  0  0
    2.4478   -3.0501    6.1166 N   0  0  0  0  0  0  0  0  0  0  0  0
    3.4479   -3.5888    7.0065 C   0  0  0  0  0  0  0  0  0  0  0  0
    3.1287   -3.8966    8.3412 C   0  0  0  0  0  0  0  0  0  0  0  0
    4.1238   -4.2941    9.2352 C   0  0  0  0  0  0  0  0  0  0  0  0
    5.4624   -4.3524    8.8203 C   0  0  0  0  0  0  0  0  0  0  0  0
    6.5344   -4.7593    9.7827 C   0  0  0  0  0  0  0  0  0  0  0  0
    5.7844   -4.0586    7.4849 C   0  0  0  0  0  0  0  0  0  0  0  0
    4.7856   -3.6715    6.5865 C   0  0  0  0  0  0  0  0  0  0  0  0
    1.0822   -3.5623    6.1228 C   0  0  0  0  0  0  0  0  0  0  0  0
    0.8039   -4.8844    6.5246 C   0  0  0  0  0  0  0  0  0  0  0  0
   -0.5143   -5.3400    6.6224 C   0  0  0  0  0  0  0  0  0  0  0  0
   -1.5837   -4.4972    6.2969 C   0  0  0  0  0  0  0  0  0  0  0  0
   -2.9983   -4.9560    6.4782 C   0  0  0  0  0  0  0  0  0  0  0  0
   -1.3213   -3.1913    5.8623 C   0  0  0  0  0  0  0  0  0  0  0  0
   -0.0077   -2.7355    5.7590 C   0  0  0  0  0  0  0  0  0  0  0  0
    2.4725   -0.6245    6.5757 C   0  0  0  0  0  0  0  0  0  0  0  0
    2.3952   -0.4840    8.2496 S   0  0  0  0  0  0  0  0  0  0  0  0
    2.2498    1.2155    8.2118 C   0  0  0  0  0  0  0  0  0  0  0  0
    2.2128    1.6611    6.8800 C   0  0  0  0  0  0  0  0  0  0  0  0
    2.0527    3.0333    6.4685 N   0  0  0  0  0  0  0  0  0  0  0  0
    1.1354    3.3824    5.4115 C   0  0  0  0  0  0  0  0  0  0  0  0
   -0.1154    2.7451    5.3193 C   0  0  0  0  0  0  0  0  0  0  0  0
   -1.0139    3.0952    4.3074 C   0  0  0  0  0  0  0  0  0  0  0  0
   -0.6832    4.0898    3.3759 C   0  0  0  0  0  0  0  0  0  0  0  0
   -1.6543    4.4539    2.2906 C   0  0  0  0  0  0  0  0  0  0  0  0
    0.5728    4.7121    3.4490 C   0  0  0  0  0  0  0  0  0  0  0  0
    1.4728    4.3639    4.4605 C   0  0  0  0  0  0  0  0  0  0  0  0
    2.7875    4.0720    7.1366 C   0  0  0  0  0  0  0  0  0  0  0  0
    2.1081    5.1469    7.7319 C   0  0  0  0  0  0  0  0  0  0  0  0
    2.8228    6.1470    8.3963 C   0  0  0  0  0  0  0  0  0  0  0  0
    4.2227    6.0781    8.4755 C   0  0  0  0  0  0  0  0  0  0  0  0
    4.9825    7.1570    9.1823 C   0  0  0  0  0  0  0  0  0  0  0  0
    4.9011    5.0117    7.8648 C   0  0  0  0  0  0  0  0  0  0  0  0
    4.1855    4.0096    7.2047 C   0  0  0  0  0  0  0  0  0  0  0  0
    2.3609    0.5951    6.0016 C   0  0  0  0  0  0  0  0  0  0  0  0
    2.5480    0.4486    4.3531 S   0  0  0  0  0  0  0  0  0  0  0  0
    2.1945    2.0801    9.3929 C   0  0  0  0  0  0  0  0  0  0  0  0
    3.2880    2.3698   10.1257 C   0  0  0  0  0  0  0  0  0  0  0  0
    4.6607    1.9501    9.8048 C   0  0  0  0  0  0  0  0  0  0  0  0
    4.9992    1.0023    9.0514 O   0  0  0  0  0  0  0  0  0  0  0  0
    5.5764    2.8694   10.4422 C   0  0  0  0  0  0  0  0  0  0  0  0
    6.9585    2.9550   10.2763 C   0  0  0  0  0  0  0  0  0  0  0  0
    7.6419    4.0131   10.8917 C   0  0  0  0  0  0  0  0  0  0  0  0
    6.9319    4.9660   11.6417 C   0  0  0  0  0  0  0  0  0  0  0  0
    7.7863    6.3152   12.3712 Cl  0  0  0  0  0  0  0  0  0  0  0  0
    5.5404    4.8663   11.7878 C   0  0  0  0  0  0  0  0  0  0  0  0
    4.8648    3.7923   11.1875 C   0  0  0  0  0  0  0  0  0  0  0  0
    3.4084    3.4763   11.1195 C   0  0  0  0  0  0  0  0  0  0  0  0
    2.4172    3.9788   11.8993 C   0  0  0  0  0  0  0  0  0  0  0  0
    1.0881    3.4236   11.8950 C   0  0  0  0  0  0  0  0  0  0  0  0
    0.0207    2.9786   11.8894 N   0  0  0  0  0  0  0  0  0  0  0  0
    2.6354    5.0288   12.8565 C   0  0  0  0  0  0  0  0  0  0  0  0
    2.7887    5.8725   13.6345 N   0  0  0  0  0  0  0  0  0  0  0  0
   -7.2454   -0.0693   -3.4738 H   0  0  0  0  0  0  0  0  0  0  0  0
   -6.4391   -3.4961   -2.4611 H   0  0  0  0  0  0  0  0  0  0  0  0
   -6.5709   -3.8027   -0.0302 H   0  0  0  0  0  0  0  0  0  0  0  0
   -6.2647   -2.8278    2.2093 H   0  0  0  0  0  0  0  0  0  0  0  0
   -4.4692   -3.0569    2.2467 H   0  0  0  0  0  0  0  0  0  0  0  0
   -5.1851   -1.4126    2.4451 H   0  0  0  0  0  0  0  0  0  0  0  0
   -3.8079   -0.5480    0.5423 H   0  0  0  0  0  0  0  0  0  0  0  0
   -3.6105   -0.2797   -1.8797 H   0  0  0  0  0  0  0  0  0  0  0  0
   -3.9189   -4.2283   -3.3839 H   0  0  0  0  0  0  0  0  0  0  0  0
   -3.8701   -6.0693   -5.0060 H   0  0  0  0  0  0  0  0  0  0  0  0
   -3.7101   -5.9623   -8.0901 H   0  0  0  0  0  0  0  0  0  0  0  0
   -5.4928   -5.9406   -8.3860 H   0  0  0  0  0  0  0  0  0  0  0  0
   -4.8125   -7.0398   -7.1323 H   0  0  0  0  0  0  0  0  0  0  0  0
   -5.7789   -3.5531   -7.9327 H   0  0  0  0  0  0  0  0  0  0  0  0
   -5.9028   -1.7397   -6.3029 H   0  0  0  0  0  0  0  0  0  0  0  0
   -1.1108    2.9416   -4.5613 H   0  0  0  0  0  0  0  0  0  0  0  0
   -1.5671    4.8674   -3.1062 H   0  0  0  0  0  0  0  0  0  0  0  0
   -3.9902    6.9664   -3.2600 H   0  0  0  0  0  0  0  0  0  0  0  0
   -2.2392    7.2143   -2.8853 H   0  0  0  0  0  0  0  0  0  0  0  0
   -2.9870    8.0793   -4.2695 H   0  0  0  0  0  0  0  0  0  0  0  0
   -3.7150    6.7829   -6.3161 H   0  0  0  0  0  0  0  0  0  0  0  0
   -3.2840    4.8440   -7.7629 H   0  0  0  0  0  0  0  0  0  0  0  0
   -2.8034    1.0094   -9.1420 H   0  0  0  0  0  0  0  0  0  0  0  0
   -2.2792    1.2774  -11.5168 H   0  0  0  0  0  0  0  0  0  0  0  0
    0.2489    3.6414  -12.8711 H   0  0  0  0  0  0  0  0  0  0  0  0
   -1.5197    3.9434  -13.0736 H   0  0  0  0  0  0  0  0  0  0  0  0
   -0.8562    2.2751  -13.2631 H   0  0  0  0  0  0  0  0  0  0  0  0
    0.1917    4.6864  -10.5950 H   0  0  0  0  0  0  0  0  0  0  0  0
   -0.2924    4.3978   -8.2060 H   0  0  0  0  0  0  0  0  0  0  0  0
   -1.7253   -1.8345   -8.3935 H   0  0  0  0  0  0  0  0  0  0  0  0
   -2.3621   -2.3732  -10.7016 H   0  0  0  0  0  0  0  0  0  0  0  0
   -0.7316   -2.1296  -12.5358 H   0  0  0  0  0  0  0  0  0  0  0  0
    2.8793   -1.4534  -12.0230 H   0  0  0  0  0  0  0  0  0  0  0  0
    1.6293   -1.9130  -13.2205 H   0  0  0  0  0  0  0  0  0  0  0  0
    0.7985    0.4373  -13.3070 H   0  0  0  0  0  0  0  0  0  0  0  0
    1.9930    0.9270  -12.0363 H   0  0  0  0  0  0  0  0  0  0  0  0
    2.5691    0.3699  -13.6529 H   0  0  0  0  0  0  0  0  0  0  0  0
    2.2124   -0.7266   -9.7418 H   0  0  0  0  0  0  0  0  0  0  0  0
    4.0048   -5.4258    4.3633 H   0  0  0  0  0  0  0  0  0  0  0  0
    2.6014   -7.4198    4.6892 H   0  0  0  0  0  0  0  0  0  0  0  0
    0.3660   -7.5483    3.6555 H   0  0  0  0  0  0  0  0  0  0  0  0
   -0.9723   -6.7401    1.6916 H   0  0  0  0  0  0  0  0  0  0  0  0
   -0.8799   -5.0245    1.1812 H   0  0  0  0  0  0  0  0  0  0  0  0
   -1.9671   -4.3127    3.3214 H   0  0  0  0  0  0  0  0  0  0  0  0
   -2.9808   -5.5045    2.4254 H   0  0  0  0  0  0  0  0  0  0  0  0
   -2.0374   -6.0488    3.8555 H   0  0  0  0  0  0  0  0  0  0  0  0
    0.8786   -3.5817    2.0593 H   0  0  0  0  0  0  0  0  0  0  0  0
    3.0960   -0.0194   -1.8661 H   0  0  0  0  0  0  0  0  0  0  0  0
    1.8356    0.0621   -3.0573 H   0  0  0  0  0  0  0  0  0  0  0  0
    3.2554    2.0539   -4.1535 H   0  0  0  0  0  0  0  0  0  0  0  0
    2.3424    2.3467   -2.6313 H   0  0  0  0  0  0  0  0  0  0  0  0
    4.1174    2.0667   -2.5785 H   0  0  0  0  0  0  0  0  0  0  0  0
    4.8248    0.5236   -0.3895 H   0  0  0  0  0  0  0  0  0  0  0  0
    5.5941    0.4332   -2.0276 H   0  0  0  0  0  0  0  0  0  0  0  0
    7.6663   -0.4774   -1.0781 H   0  0  0  0  0  0  0  0  0  0  0  0
    6.9617   -0.4573    0.5831 H   0  0  0  0  0  0  0  0  0  0  0  0
    7.2353    1.0897   -0.2899 H   0  0  0  0  0  0  0  0  0  0  0  0
    2.1112   -3.7927    8.6992 H   0  0  0  0  0  0  0  0  0  0  0  0
    3.8517   -4.5249   10.2578 H   0  0  0  0  0  0  0  0  0  0  0  0
    6.2488   -4.4946   10.8257 H   0  0  0  0  0  0  0  0  0  0  0  0
    7.4888   -4.2417    9.5461 H   0  0  0  0  0  0  0  0  0  0  0  0
    6.6880   -5.8566    9.7153 H   0  0  0  0  0  0  0  0  0  0  0  0
    6.8104   -4.1036    7.1456 H   0  0  0  0  0  0  0  0  0  0  0  0
    5.0494   -3.4171    5.5686 H   0  0  0  0  0  0  0  0  0  0  0  0
    1.6037   -5.5651    6.7814 H   0  0  0  0  0  0  0  0  0  0  0  0
   -0.7037   -6.3471    6.9717 H   0  0  0  0  0  0  0  0  0  0  0  0
   -3.3553   -4.6684    7.4897 H   0  0  0  0  0  0  0  0  0  0  0  0
   -3.6589   -4.4876    5.7217 H   0  0  0  0  0  0  0  0  0  0  0  0
   -3.0726   -6.0580    6.3621 H   0  0  0  0  0  0  0  0  0  0  0  0
   -2.1350   -2.5217    5.6119 H   0  0  0  0  0  0  0  0  0  0  0  0
    0.1380   -1.7217    5.4182 H   0  0  0  0  0  0  0  0  0  0  0  0
   -0.4020    1.9957    6.0465 H   0  0  0  0  0  0  0  0  0  0  0  0
   -1.9703    2.5896    4.2522 H   0  0  0  0  0  0  0  0  0  0  0  0
   -2.6845    4.5058    2.7019 H   0  0  0  0  0  0  0  0  0  0  0  0
   -1.6226    3.6847    1.4933 H   0  0  0  0  0  0  0  0  0  0  0  0
   -1.4132    5.4461    1.8513 H   0  0  0  0  0  0  0  0  0  0  0  0
    0.8555    5.4651    2.7254 H   0  0  0  0  0  0  0  0  0  0  0  0
    2.4344    4.8609    4.5068 H   0  0  0  0  0  0  0  0  0  0  0  0
    1.0273    5.1976    7.7003 H   0  0  0  0  0  0  0  0  0  0  0  0
    2.2887    6.9704    8.8507 H   0  0  0  0  0  0  0  0  0  0  0  0
    4.9477    8.0888    8.5773 H   0  0  0  0  0  0  0  0  0  0  0  0
    4.5256    7.3522   10.1770 H   0  0  0  0  0  0  0  0  0  0  0  0
    6.0460    6.8710    9.3389 H   0  0  0  0  0  0  0  0  0  0  0  0
    5.9806    4.9486    7.9072 H   0  0  0  0  0  0  0  0  0  0  0  0
    4.7159    3.1883    6.7433 H   0  0  0  0  0  0  0  0  0  0  0  0
    1.2957    2.6620    9.5073 H   0  0  0  0  0  0  0  0  0  0  0  0
    7.4891    2.2342    9.6648 H   0  0  0  0  0  0  0  0  0  0  0  0
    8.7121    4.1017   10.7665 H   0  0  0  0  0  0  0  0  0  0  0  0
    5.0249    5.6424   12.3248 H   0  0  0  0  0  0  0  0  0  0  0  0
  1  2  2  3
  2  3  1  0
  3  4  2  0
  3  5  1  0
  5  6  2  0
  6  7  1  0
  6  8  1  0
  8  9  1  0
  8 10  2  0
 10 11  1  0
 10 12  1  0
 12 13  1  0
 12 14  2  0
 14 15  1  0
 15 16  2  3
 16 17  1  0
 17 18  3  0
 16 19  1  0
 19 20  3  0
  1 21  1  0
 21 22  2  0
 22 23  1  0
 23 24  1  0
 24 25  2  0
 25 26  1  0
 26 27  2  0
 27 28  1  0
 27 29  1  0
 29 30  2  0
 23 31  1  0
 31 32  2  0
 32 33  1  0
 33 34  2  0
 34 35  1  0
 34 36  1  0
 36 37  2  0
 22 38  1  0
 38 39  1  0
 39 40  1  0
 40 41  2  0
 41 42  1  0
 42 43  1  0
 43 44  2  0
 44 45  1  0
 45 46  2  0
 46 47  1  0
 46 48  1  0
 48 49  2  0
 42 50  1  0
 50 51  2  0
 51 52  1  0
 52 53  2  0
 53 54  1  0
 53 55  1  0
 55 56  2  0
 41 57  1  0
 57 58  1  0
 40 59  1  0
 59 60  2  0
 60 61  1  0
 61 62  2  0
 62 63  1  0
 63 64  2  0
 64 65  1  0
 65 66  1  0
 66 67  1  0
 65 68  2  0
 60 69  1  0
 69 70  1  0
 70 71  1  0
 71 72  1  0
 72 73  1  0
 73 74  1  0
 74 75  2  0
 75 76  1  0
 76 77  1  0
 74 78  1  0
 78 79  1  0
 79 80  1  0
 80 81  1  0
 81 82  1  0
 82 83  1  0
 83 84  2  0
 84 85  1  0
 85 86  2  0
 86 87  1  0
 87 88  1  0
 88 89  1  0
 87 90  2  0
 82 91  2  0
 91 92  1  0
 92 93  1  0
 93 94  1  0
 94 95  1  0
 95 96  1  0
 96 97  1  0
 97 98  1  0
 98 99  1  0
 99100  1  0
100101  1  0
 98102  1  0
102103  1  0
 95104  1  0
104105  1  0
 91106  1  0
106107  2  0
107108  1  0
108109  1  0
109110  2  0
110111  1  0
111112  2  0
112113  1  0
112114  1  0
114115  2  0
108116  1  0
116117  2  0
117118  1  0
118119  2  0
119120  1  0
119121  1  0
121122  2  0
107123  1  0
123124  1  0
124125  1  0
125126  2  0
126127  1  0
127128  1  0
128129  2  0
129130  1  0
130131  2  0
131132  1  0
131133  1  0
133134  2  0
127135  1  0
135136  2  0
136137  1  0
137138  2  0
138139  1  0
138140  1  0
140141  2  0
126142  1  0
142143  1  0
125144  1  0
144145  2  3
145146  1  0
146147  2  0
146148  1  0
148149  2  0
149150  1  0
150151  2  0
151152  1  0
151153  1  0
153154  2  0
154155  1  0
155156  2  3
156157  1  0
157158  3  0
156159  1  0
159160  3  0
 15  2  1  0
 58 21  1  0
101 59  1  0
143106  1  0
155145  1  0
 14  5  1  0
 30 24  1  0
 37 31  1  0
 57 38  2  0
 68 61  1  0
100 69  2  0
115109  1  0
122116  1  0
142123  2  0
154148  1  0
 49 43  1  0
 56 50  1  0
 99 71  2  0
134128  1  0
141135  1  0
 97 72  2  0
 77 73  2  0
 96 78  2  0
 94 79  2  0
 93 81  2  0
 90 83  1  0
  1161  1  0
 25162  1  0
 26163  1  0
 28164  1  0
 28165  1  0
 28166  1  0
 29167  1  0
 30168  1  0
 32169  1  0
 33170  1  0
 35171  1  0
 35172  1  0
 35173  1  0
 36174  1  0
 37175  1  0
 44176  1  0
 45177  1  0
 47178  1  0
 47179  1  0
 47180  1  0
 48181  1  0
 49182  1  0
 51183  1  0
 52184  1  0
 54185  1  0
 54186  1  0
 54187  1  0
 55188  1  0
 56189  1  0
 62190  1  0
 63191  1  0
 64192  1  0
 66193  1  0
 66194  1  0
 67195  1  0
 67196  1  0
 67197  1  0
 68198  1  0
 84199  1  0
 85200  1  0
 86201  1  0
 88202  1  0
 88203  1  0
 89204  1  0
 89205  1  0
 89206  1  0
 90207  1  0
102208  1  0
102209  1  0
103210  1  0
103211  1  0
103212  1  0
104213  1  0
104214  1  0
105215  1  0
105216  1  0
105217  1  0
110218  1  0
111219  1  0
113220  1  0
113221  1  0
113222  1  0
114223  1  0
115224  1  0
117225  1  0
118226  1  0
120227  1  0
120228  1  0
120229  1  0
121230  1  0
122231  1  0
129232  1  0
130233  1  0
132234  1  0
132235  1  0
132236  1  0
133237  1  0
134238  1  0
136239  1  0
137240  1  0
139241  1  0
139242  1  0
139243  1  0
140244  1  0
141245  1  0
144246  1  0
149247  1  0
150248  1  0
153249  1  0
M  END

