
     RDKit          3D

249274  0  0  0  0  0  0  0  0999 V2000
   -5.9084   -8.5333    0.7697 C   0  0  0  0  0  0  0  0  0  0  0  0
   -5.9392   -9.7870    1.3190 C   0  0  0  0  0  0  0  0  0  0  0  0
   -4.8414  -10.3829    2.0546 C   0  0  0  0  0  0  0  0  0  0  0  0
   -3.7712   -9.7742    2.3703 O   0  0  0  0  0  0  0  0  0  0  0  0
   -5.1692  -11.7684    2.4028 C   0  0  0  0  0  0  0  0  0  0  0  0
   -4.4179  -12.6475    3.2108 C   0  0  0  0  0  0  0  0  0  0  0  0
   -2.7968  -12.1995    3.8375 Cl  0  0  0  0  0  0  0  0  0  0  0  0
   -4.9463  -13.9135    3.4901 C   0  0  0  0  0  0  0  0  0  0  0  0
   -4.0691  -15.0546    4.4956 Cl  0  0  0  0  0  0  0  0  0  0  0  0
   -6.2177  -14.2696    3.0547 C   0  0  0  0  0  0  0  0  0  0  0  0
   -6.8279  -15.9296    3.5313 Cl  0  0  0  0  0  0  0  0  0  0  0  0
   -7.0276  -13.3767    2.3602 C   0  0  0  0  0  0  0  0  0  0  0  0
   -8.7523  -13.8563    2.5036 Cl  0  0  0  0  0  0  0  0  0  0  0  0
   -6.4322  -12.0924    1.9431 C   0  0  0  0  0  0  0  0  0  0  0  0
   -7.0173  -10.8621    1.2433 C   0  0  0  0  0  0  0  0  0  0  0  0
   -8.2337  -10.7437    0.6058 C   0  0  0  0  0  0  0  0  0  0  0  0
   -8.8383   -9.5086    0.2530 C   0  0  0  0  0  0  0  0  0  0  0  0
   -9.3246   -8.5175   -0.0579 N   0  0  0  0  0  0  0  0  0  0  0  0
   -8.9718  -11.8554    0.0303 C   0  0  0  0  0  0  0  0  0  0  0  0
   -9.6151  -12.6461   -0.5297 N   0  0  0  0  0  0  0  0  0  0  0  0
   -4.7182   -7.6529    0.7153 C   0  0  0  0  0  0  0  0  0  0  0  0
   -3.7307   -7.7375   -0.2388 C   0  0  0  0  0  0  0  0  0  0  0  0
   -3.8004   -8.6034   -1.3941 N   0  0  0  0  0  0  0  0  0  0  0  0
   -2.7300   -9.4324   -1.7611 C   0  0  0  0  0  0  0  0  0  0  0  0
   -2.3679   -9.4979   -3.1087 C   0  0  0  0  0  0  0  0  0  0  0  0
   -1.3840  -10.3757   -3.5259 C   0  0  0  0  0  0  0  0  0  0  0  0
   -0.7125  -11.1979   -2.6179 C   0  0  0  0  0  0  0  0  0  0  0  0
    0.3546  -12.1139   -3.0975 C   0  0  0  0  0  0  0  0  0  0  0  0
   -1.0605  -11.1172   -1.2449 C   0  0  0  0  0  0  0  0  0  0  0  0
   -2.0489  -10.2303   -0.8272 C   0  0  0  0  0  0  0  0  0  0  0  0
   -4.9991   -8.5586   -2.1799 C   0  0  0  0  0  0  0  0  0  0  0  0
   -5.5814   -9.7885   -2.6311 C   0  0  0  0  0  0  0  0  0  0  0  0
   -6.7149   -9.7573   -3.4285 C   0  0  0  0  0  0  0  0  0  0  0  0
   -7.2958   -8.5183   -3.7742 C   0  0  0  0  0  0  0  0  0  0  0  0
   -8.5072   -8.5207   -4.6510 C   0  0  0  0  0  0  0  0  0  0  0  0
   -6.7148   -7.3110   -3.3624 C   0  0  0  0  0  0  0  0  0  0  0  0
   -5.5807   -7.3429   -2.5703 C   0  0  0  0  0  0  0  0  0  0  0  0
   -2.7727   -6.7129   -0.1160 C   0  0  0  0  0  0  0  0  0  0  0  0
   -1.3603   -6.2042   -0.9023 S   0  0  0  0  0  0  0  0  0  0  0  0
   -1.0186   -4.8546    0.1253 C   0  0  0  0  0  0  0  0  0  0  0  0
   -2.1113   -4.8042    1.0884 C   0  0  0  0  0  0  0  0  0  0  0  0
   -2.3696   -3.6515    1.9587 N   0  0  0  0  0  0  0  0  0  0  0  0
   -3.4728   -2.8199    1.5369 C   0  0  0  0  0  0  0  0  0  0  0  0
   -3.6007   -2.4562    0.2019 C   0  0  0  0  0  0  0  0  0  0  0  0
   -4.7126   -1.7101   -0.2286 C   0  0  0  0  0  0  0  0  0  0  0  0
   -5.7001   -1.3478    0.6912 C   0  0  0  0  0  0  0  0  0  0  0  0
   -6.8963   -0.5856    0.2217 C   0  0  0  0  0  0  0  0  0  0  0  0
   -5.6023   -1.7330    2.0415 C   0  0  0  0  0  0  0  0  0  0  0  0
   -4.4907   -2.4824    2.4843 C   0  0  0  0  0  0  0  0  0  0  0  0
   -1.7630   -3.5259    3.1978 C   0  0  0  0  0  0  0  0  0  0  0  0
   -1.3678   -4.6706    3.9164 C   0  0  0  0  0  0  0  0  0  0  0  0
   -0.7095   -4.5679    5.1363 C   0  0  0  0  0  0  0  0  0  0  0  0
   -0.3824   -3.3110    5.6710 C   0  0  0  0  0  0  0  0  0  0  0  0
    0.3444   -3.2125    6.9679 C   0  0  0  0  0  0  0  0  0  0  0  0
   -0.7226   -2.1389    4.9295 C   0  0  0  0  0  0  0  0  0  0  0  0
   -1.3984   -2.2504    3.7189 C   0  0  0  0  0  0  0  0  0  0  0  0
   -3.0454   -5.8605    0.9210 C   0  0  0  0  0  0  0  0  0  0  0  0
   -4.4973   -6.2934    1.7272 S   0  0  0  0  0  0  0  0  0  0  0  0
    0.2727   -4.0798    0.2195 C   0  0  0  0  0  0  0  0  0  0  0  0
    1.3018   -3.8434   -0.8144 C   0  0  0  0  0  0  0  0  0  0  0  0
    1.0136   -3.6247   -2.2272 C   0  0  0  0  0  0  0  0  0  0  0  0
    1.1519   -2.3249   -2.7249 C   0  0  0  0  0  0  0  0  0  0  0  0
    0.9012   -2.0374   -4.0959 C   0  0  0  0  0  0  0  0  0  0  0  0
    0.5080   -3.0428   -4.9123 C   0  0  0  0  0  0  0  0  0  0  0  0
    0.3489   -4.3776   -4.4810 C   0  0  0  0  0  0  0  0  0  0  0  0
   -0.2373   -5.4116   -5.4020 C   0  0  0  0  0  0  0  0  0  0  0  0
   -1.7640   -5.3666   -5.3270 C   0  0  0  0  0  0  0  0  0  0  0  0
    0.5967   -4.6933   -3.1242 C   0  0  0  0  0  0  0  0  0  0  0  0
    2.4955   -3.2393   -0.2093 C   0  0  0  0  0  0  0  0  0  0  0  0
    3.9911   -2.6147   -0.8559 S   0  0  0  0  0  0  0  0  0  0  0  0
    4.3923   -1.9481    0.7165 C   0  0  0  0  0  0  0  0  0  0  0  0
    5.3182   -1.0577    1.3720 C   0  0  0  0  0  0  0  0  0  0  0  0
    6.5347   -0.4628    0.9762 C   0  0  0  0  0  0  0  0  0  0  0  0
    7.0344    0.6668    1.7800 C   0  0  0  0  0  0  0  0  0  0  0  0
    8.1932    1.2725    1.3700 N   0  0  0  0  0  0  0  0  0  0  0  0
    8.4831    0.3149    0.0237 S   0  0  0  0  0  0  0  0  0  0  0  0
    7.2513   -0.8078   -0.1337 N   0  0  0  0  0  0  0  0  0  0  0  0
    6.2286    1.1540    2.8259 C   0  0  0  0  0  0  0  0  0  0  0  0
    6.0715    2.4543    3.3359 C   0  0  0  0  0  0  0  0  0  0  0  0
    6.6656    4.0132    2.8526 S   0  0  0  0  0  0  0  0  0  0  0  0
    5.2076    4.8059    3.3246 C   0  0  0  0  0  0  0  0  0  0  0  0
    4.6317    5.9992    2.8055 C   0  0  0  0  0  0  0  0  0  0  0  0
    5.3341    7.3219    2.8838 C   0  0  0  0  0  0  0  0  0  0  0  0
    4.8734    8.4842    2.1784 C   0  0  0  0  0  0  0  0  0  0  0  0
    5.4748    9.7271    2.3571 C   0  0  0  0  0  0  0  0  0  0  0  0
    6.4893    9.8686    3.2771 C   0  0  0  0  0  0  0  0  0  0  0  0
    6.9453    8.7648    4.0320 C   0  0  0  0  0  0  0  0  0  0  0  0
    7.9717    8.9902    5.1139 C   0  0  0  0  0  0  0  0  0  0  0  0
    7.2952    9.2427    6.4605 C   0  0  0  0  0  0  0  0  0  0  0  0
    6.3688    7.5157    3.8255 C   0  0  0  0  0  0  0  0  0  0  0  0
    3.2650    5.8972    2.4976 C   0  0  0  0  0  0  0  0  0  0  0  0
    2.7653    4.3954    3.1714 S   0  0  0  0  0  0  0  0  0  0  0  0
    4.2670    3.8620    3.7266 C   0  0  0  0  0  0  0  0  0  0  0  0
    4.8285    2.5561    3.7956 C   0  0  0  0  0  0  0  0  0  0  0  0
    4.2101    1.3995    3.8346 N   0  0  0  0  0  0  0  0  0  0  0  0
    5.0204    0.5007    3.2040 C   0  0  0  0  0  0  0  0  0  0  0  0
    4.6680   -0.7242    2.5691 C   0  0  0  0  0  0  0  0  0  0  0  0
    3.5625   -1.4193    2.7428 N   0  0  0  0  0  0  0  0  0  0  0  0
    3.3687   -2.1251    1.5642 C   0  0  0  0  0  0  0  0  0  0  0  0
    2.3492   -2.8882    1.0848 C   0  0  0  0  0  0  0  0  0  0  0  0
    0.8505   -3.3807    1.6680 S   0  0  0  0  0  0  0  0  0  0  0  0
    2.9889   -1.8705    4.0161 C   0  0  0  0  0  0  0  0  0  0  0  0
    3.4421   -3.3336    4.2861 C   0  0  0  0  0  0  0  0  0  0  0  0
    2.8249    1.1878    4.4310 C   0  0  0  0  0  0  0  0  0  0  0  0
    2.9346    0.9234    5.9317 C   0  0  0  0  0  0  0  0  0  0  0  0
    2.5962    6.3756    1.3157 C   0  0  0  0  0  0  0  0  0  0  0  0
    3.0526    6.2590    0.0302 C   0  0  0  0  0  0  0  0  0  0  0  0
    4.3606    5.7522   -0.3229 N   0  0  0  0  0  0  0  0  0  0  0  0
    4.5467    4.4532   -0.9422 C   0  0  0  0  0  0  0  0  0  0  0  0
    4.0415    3.2813   -0.3136 C   0  0  0  0  0  0  0  0  0  0  0  0
    4.4429    2.0316   -0.8108 C   0  0  0  0  0  0  0  0  0  0  0  0
    5.3489    1.9272   -1.8926 C   0  0  0  0  0  0  0  0  0  0  0  0
    5.7748    0.6463   -2.5050 C   0  0  0  0  0  0  0  0  0  0  0  0
    5.8556    3.1025   -2.4627 C   0  0  0  0  0  0  0  0  0  0  0  0
    5.4302    4.3320   -2.0098 C   0  0  0  0  0  0  0  0  0  0  0  0
    5.4867    6.6222   -0.2723 C   0  0  0  0  0  0  0  0  0  0  0  0
    6.7125    6.1203    0.1795 C   0  0  0  0  0  0  0  0  0  0  0  0
    7.8589    6.8757    0.1410 C   0  0  0  0  0  0  0  0  0  0  0  0
    7.8175    8.1673   -0.3803 C   0  0  0  0  0  0  0  0  0  0  0  0
    9.0840    8.9676   -0.2968 C   0  0  0  0  0  0  0  0  0  0  0  0
    6.6211    8.7028   -0.9025 C   0  0  0  0  0  0  0  0  0  0  0  0
    5.4485    7.9168   -0.8568 C   0  0  0  0  0  0  0  0  0  0  0  0
    2.1012    6.5547   -0.9506 C   0  0  0  0  0  0  0  0  0  0  0  0
    2.2700    6.8336   -2.5656 S   0  0  0  0  0  0  0  0  0  0  0  0
    0.5626    6.7119   -2.8147 C   0  0  0  0  0  0  0  0  0  0  0  0
   -0.1100    7.0437   -1.5977 C   0  0  0  0  0  0  0  0  0  0  0  0
   -1.4197    7.6614   -1.5646 N   0  0  0  0  0  0  0  0  0  0  0  0
   -1.7197    8.6998   -2.5203 C   0  0  0  0  0  0  0  0  0  0  0  0
   -0.7030    9.5826   -2.9643 C   0  0  0  0  0  0  0  0  0  0  0  0
   -1.0035   10.6628   -3.8184 C   0  0  0  0  0  0  0  0  0  0  0  0
   -2.3009   10.8331   -4.2742 C   0  0  0  0  0  0  0  0  0  0  0  0
   -2.5915   12.0244   -5.1288 C   0  0  0  0  0  0  0  0  0  0  0  0
   -3.3438    9.9793   -3.8637 C   0  0  0  0  0  0  0  0  0  0  0  0
   -3.0421    8.8819   -3.0187 C   0  0  0  0  0  0  0  0  0  0  0  0
   -2.1194    7.7346   -0.3359 C   0  0  0  0  0  0  0  0  0  0  0  0
   -1.6030    8.5102    0.6958 C   0  0  0  0  0  0  0  0  0  0  0  0
   -2.2609    8.5776    1.9171 C   0  0  0  0  0  0  0  0  0  0  0  0
   -3.5470    8.0490    2.0501 C   0  0  0  0  0  0  0  0  0  0  0  0
   -4.2995    8.2385    3.3167 C   0  0  0  0  0  0  0  0  0  0  0  0
   -4.1236    7.3566    0.9498 C   0  0  0  0  0  0  0  0  0  0  0  0
   -3.3994    7.1738   -0.2303 C   0  0  0  0  0  0  0  0  0  0  0  0
    0.8335    6.9001   -0.5101 C   0  0  0  0  0  0  0  0  0  0  0  0
    0.9312    6.8882    1.1708 S   0  0  0  0  0  0  0  0  0  0  0  0
   -0.1120    6.4768   -4.1467 C   0  0  0  0  0  0  0  0  0  0  0  0
    0.2225    5.5361   -5.1280 C   0  0  0  0  0  0  0  0  0  0  0  0
    1.1942    4.4018   -5.0610 C   0  0  0  0  0  0  0  0  0  0  0  0
    2.0835    4.1493   -4.1408 O   0  0  0  0  0  0  0  0  0  0  0  0
    0.9645    3.4576   -6.0609 C   0  0  0  0  0  0  0  0  0  0  0  0
    1.7791    2.3024   -6.2397 C   0  0  0  0  0  0  0  0  0  0  0  0
    2.9368    1.7064   -4.9115 Cl  0  0  0  0  0  0  0  0  0  0  0  0
    1.7738    1.7013   -7.4500 C   0  0  0  0  0  0  0  0  0  0  0  0
    2.9087    0.3936   -7.8082 Cl  0  0  0  0  0  0  0  0  0  0  0  0
    0.9281    2.1738   -8.4474 C   0  0  0  0  0  0  0  0  0  0  0  0
    0.9409    1.3632  -10.0308 Cl  0  0  0  0  0  0  0  0  0  0  0  0
    0.0744    3.3072   -8.2585 C   0  0  0  0  0  0  0  0  0  0  0  0
   -0.6626    3.9235   -9.7361 Cl  0  0  0  0  0  0  0  0  0  0  0  0
    0.0299    3.9623   -6.9807 C   0  0  0  0  0  0  0  0  0  0  0  0
   -0.5158    5.2580   -6.4579 C   0  0  0  0  0  0  0  0  0  0  0  0
   -1.4732    6.0916   -7.0490 C   0  0  0  0  0  0  0  0  0  0  0  0
   -2.3568    5.7489   -8.0934 C   0  0  0  0  0  0  0  0  0  0  0  0
   -3.0875    5.5416   -8.9969 N   0  0  0  0  0  0  0  0  0  0  0  0
   -1.5585    7.4605   -6.7301 C   0  0  0  0  0  0  0  0  0  0  0  0
   -1.6239    8.5832   -6.4099 N   0  0  0  0  0  0  0  0  0  0  0  0
   -6.7115   -8.2492    0.0838 H   0  0  0  0  0  0  0  0  0  0  0  0
   -2.9021   -8.8831   -3.8514 H   0  0  0  0  0  0  0  0  0  0  0  0
   -1.1527  -10.3962   -4.6038 H   0  0  0  0  0  0  0  0  0  0  0  0
   -0.0165  -12.6457   -4.0192 H   0  0  0  0  0  0  0  0  0  0  0  0
    0.6214  -12.8522   -2.3279 H   0  0  0  0  0  0  0  0  0  0  0  0
    1.2461  -11.4978   -3.3731 H   0  0  0  0  0  0  0  0  0  0  0  0
   -0.5411  -11.7528   -0.5196 H   0  0  0  0  0  0  0  0  0  0  0  0
   -2.3385  -10.2225    0.2554 H   0  0  0  0  0  0  0  0  0  0  0  0
   -5.1323  -10.7394   -2.3420 H   0  0  0  0  0  0  0  0  0  0  0  0
   -7.1449  -10.7044   -3.7463 H   0  0  0  0  0  0  0  0  0  0  0  0
   -8.1778   -8.3781   -5.7248 H   0  0  0  0  0  0  0  0  0  0  0  0
   -9.1802   -7.7119   -4.3776 H   0  0  0  0  0  0  0  0  0  0  0  0
   -9.0689   -9.4702   -4.5786 H   0  0  0  0  0  0  0  0  0  0  0  0
   -7.1521   -6.3572   -3.6463 H   0  0  0  0  0  0  0  0  0  0  0  0
   -5.1190   -6.3921   -2.2433 H   0  0  0  0  0  0  0  0  0  0  0  0
   -2.8323   -2.7265   -0.5249 H   0  0  0  0  0  0  0  0  0  0  0  0
   -4.7506   -1.4469   -1.2682 H   0  0  0  0  0  0  0  0  0  0  0  0
   -7.7585   -1.2764    0.1048 H   0  0  0  0  0  0  0  0  0  0  0  0
   -7.1349    0.2162    0.9118 H   0  0  0  0  0  0  0  0  0  0  0  0
   -6.6713   -0.1224   -0.7980 H   0  0  0  0  0  0  0  0  0  0  0  0
   -6.3715   -1.4776    2.7720 H   0  0  0  0  0  0  0  0  0  0  0  0
   -4.4080   -2.8080    3.5473 H   0  0  0  0  0  0  0  0  0  0  0  0
   -1.5872   -5.6884    3.5683 H   0  0  0  0  0  0  0  0  0  0  0  0
   -0.4395   -5.4737    5.7018 H   0  0  0  0  0  0  0  0  0  0  0  0
   -0.1840   -3.8515    7.6945 H   0  0  0  0  0  0  0  0  0  0  0  0
    0.3956   -2.1867    7.3400 H   0  0  0  0  0  0  0  0  0  0  0  0
    1.3554   -3.6160    6.8236 H   0  0  0  0  0  0  0  0  0  0  0  0
   -0.4591   -1.1378    5.2996 H   0  0  0  0  0  0  0  0  0  0  0  0
   -1.6304   -1.3532    3.1149 H   0  0  0  0  0  0  0  0  0  0  0  0
    1.4714   -1.4873   -2.0821 H   0  0  0  0  0  0  0  0  0  0  0  0
    1.0221   -1.0325   -4.4339 H   0  0  0  0  0  0  0  0  0  0  0  0
    0.2713   -2.8149   -5.9695 H   0  0  0  0  0  0  0  0  0  0  0  0
    0.1065   -5.1599   -6.4327 H   0  0  0  0  0  0  0  0  0  0  0  0
    0.1650   -6.4067   -5.1530 H   0  0  0  0  0  0  0  0  0  0  0  0
   -2.1204   -4.3166   -5.1448 H   0  0  0  0  0  0  0  0  0  0  0  0
   -2.1650   -5.7161   -6.3033 H   0  0  0  0  0  0  0  0  0  0  0  0
   -2.1003   -6.0293   -4.4996 H   0  0  0  0  0  0  0  0  0  0  0  0
    0.5178   -5.6936   -2.7545 H   0  0  0  0  0  0  0  0  0  0  0  0
    4.0575    8.4033    1.4363 H   0  0  0  0  0  0  0  0  0  0  0  0
    5.0958   10.5877    1.7429 H   0  0  0  0  0  0  0  0  0  0  0  0
    6.8944   10.8606    3.4115 H   0  0  0  0  0  0  0  0  0  0  0  0
    8.6120    9.8526    4.8141 H   0  0  0  0  0  0  0  0  0  0  0  0
    8.6231    8.0931    5.1437 H   0  0  0  0  0  0  0  0  0  0  0  0
    6.2514    9.6075    6.3390 H   0  0  0  0  0  0  0  0  0  0  0  0
    7.3017    8.2954    7.0480 H   0  0  0  0  0  0  0  0  0  0  0  0
    7.8840   10.0173    6.9958 H   0  0  0  0  0  0  0  0  0  0  0  0
    6.7052    6.6725    4.4624 H   0  0  0  0  0  0  0  0  0  0  0  0
    3.4372   -1.2848    4.8093 H   0  0  0  0  0  0  0  0  0  0  0  0
    1.9131   -1.7772    3.9850 H   0  0  0  0  0  0  0  0  0  0  0  0
    3.0212   -3.9750    3.5094 H   0  0  0  0  0  0  0  0  0  0  0  0
    3.0284   -3.6099    5.2673 H   0  0  0  0  0  0  0  0  0  0  0  0
    4.5450   -3.3401    4.2562 H   0  0  0  0  0  0  0  0  0  0  0  0
    2.2443    0.5115    3.8281 H   0  0  0  0  0  0  0  0  0  0  0  0
    2.2977    2.1770    4.3202 H   0  0  0  0  0  0  0  0  0  0  0  0
    2.8178    1.8678    6.4991 H   0  0  0  0  0  0  0  0  0  0  0  0
    3.9297    0.4712    6.2164 H   0  0  0  0  0  0  0  0  0  0  0  0
    2.1091    0.2361    6.2187 H   0  0  0  0  0  0  0  0  0  0  0  0
    3.3675    3.3385    0.5815 H   0  0  0  0  0  0  0  0  0  0  0  0
    4.0369    1.1256   -0.3627 H   0  0  0  0  0  0  0  0  0  0  0  0
    6.8976    0.6030   -2.4289 H   0  0  0  0  0  0  0  0  0  0  0  0
    5.5000    0.6602   -3.5830 H   0  0  0  0  0  0  0  0  0  0  0  0
    5.3241   -0.2111   -1.9947 H   0  0  0  0  0  0  0  0  0  0  0  0
    6.5704    3.0918   -3.2980 H   0  0  0  0  0  0  0  0  0  0  0  0
    5.8952    5.2296   -2.4583 H   0  0  0  0  0  0  0  0  0  0  0  0
    6.7580    5.0767    0.4852 H   0  0  0  0  0  0  0  0  0  0  0  0
    8.7557    6.4107    0.5439 H   0  0  0  0  0  0  0  0  0  0  0  0
    9.0991    9.4817    0.7049 H   0  0  0  0  0  0  0  0  0  0  0  0
    9.1347    9.6939   -1.1179 H   0  0  0  0  0  0  0  0  0  0  0  0
    9.9634    8.2875   -0.3602 H   0  0  0  0  0  0  0  0  0  0  0  0
    6.5975    9.7123   -1.2954 H   0  0  0  0  0  0  0  0  0  0  0  0
    4.5346    8.3378   -1.3109 H   0  0  0  0  0  0  0  0  0  0  0  0
    0.3611    9.4809   -2.6165 H   0  0  0  0  0  0  0  0  0  0  0  0
   -0.1933   11.3285   -4.0967 H   0  0  0  0  0  0  0  0  0  0  0  0
   -1.8188   12.1140   -5.8816 H   0  0  0  0  0  0  0  0  0  0  0  0
   -3.5744   11.9539   -5.6046 H   0  0  0  0  0  0  0  0  0  0  0  0
   -2.5633   12.9368   -4.4664 H   0  0  0  0  0  0  0  0  0  0  0  0
   -4.3776   10.0855   -4.1985 H   0  0  0  0  0  0  0  0  0  0  0  0
   -3.8246    8.2018   -2.7395 H   0  0  0  0  0  0  0  0  0  0  0  0
   -0.6165    9.0376    0.5902 H   0  0  0  0  0  0  0  0  0  0  0  0
   -1.7845    9.1143    2.7339 H   0  0  0  0  0  0  0  0  0  0  0  0
   -4.0563    9.2803    3.7107 H   0  0  0  0  0  0  0  0  0  0  0  0
   -5.3968    8.1938    3.1260 H   0  0  0  0  0  0  0  0  0  0  0  0
   -3.9863    7.4972    4.0336 H   0  0  0  0  0  0  0  0  0  0  0  0
   -5.1318    6.9417    1.0177 H   0  0  0  0  0  0  0  0  0  0  0  0
   -3.8611    6.6844   -1.0834 H   0  0  0  0  0  0  0  0  0  0  0  0
   -1.0612    6.9673   -4.2898 H   0  0  0  0  0  0  0  0  0  0  0  0
  1  2  2  3
  2  3  1  0
  3  4  2  0
  3  5  1  0
  5  6  2  0
  6  7  1  0
  6  8  1  0
  8  9  1  0
  8 10  2  0
 10 11  1  0
 10 12  1  0
 12 13  1  0
 12 14  2  0
 14 15  1  0
 15 16  2  3
 16 17  1  0
 17 18  3  0
 16 19  1  0
 19 20  3  0
  1 21  1  0
 21 22  2  0
 22 23  1  0
 23 24  1  0
 24 25  2  0
 25 26  1  0
 26 27  2  0
 27 28  1  0
 27 29  1  0
 29 30  2  0
 23 31  1  0
 31 32  2  0
 32 33  1  0
 33 34  2  0
 34 35  1  0
 34 36  1  0
 36 37  2  0
 22 38  1  0
 38 39  1  0
 39 40  1  0
 40 41  2  0
 41 42  1  0
 42 43  1  0
 43 44  2  0
 44 45  1  0
 45 46  2  0
 46 47  1  0
 46 48  1  0
 48 49  2  0
 42 50  1  0
 50 51  2  0
 51 52  1  0
 52 53  2  0
 53 54  1  0
 53 55  1  0
 55 56  2  0
 41 57  1  0
 57 58  1  0
 40 59  1  0
 59 60  2  0
 60 61  1  0
 61 62  2  0
 62 63  1  0
 63 64  2  0
 64 65  1  0
 65 66  1  0
 66 67  1  0
 65 68  2  0
 60 69  1  0
 69 70  1  0
 70 71  1  0
 71 72  1  0
 72 73  1  0
 73 74  1  0
 74 75  2  0
 75 76  1  0
 76 77  1  0
 74 78  1  0
 78 79  1  0
 79 80  1  0
 80 81  1  0
 81 82  1  0
 82 83  1  0
 83 84  2  0
 84 85  1  0
 85 86  2  0
 86 87  1  0
 87 88  1  0
 88 89  1  0
 87 90  2  0
 82 91  2  0
 91 92  1  0
 92 93  1  0
 93 94  1  0
 94 95  1  0
 95 96  1  0
 96 97  1  0
 97 98  1  0
 98 99  1  0
 99100  1  0
100101  1  0
 98102  1  0
102103  1  0
 95104  1  0
104105  1  0
 91106  1  0
106107  2  0
107108  1  0
108109  1  0
109110  2  0
110111  1  0
111112  2  0
112113  1  0
112114  1  0
114115  2  0
108116  1  0
116117  2  0
117118  1  0
118119  2  0
119120  1  0
119121  1  0
121122  2  0
107123  1  0
123124  1  0
124125  1  0
125126  2  0
126127  1  0
127128  1  0
128129  2  0
129130  1  0
130131  2  0
131132  1  0
131133  1  0
133134  2  0
127135  1  0
135136  2  0
136137  1  0
137138  2  0
138139  1  0
138140  1  0
140141  2  0
126142  1  0
142143  1  0
125144  1  0
144145  2  3
145146  1  0
146147  2  0
146148  1  0
148149  2  0
149150  1  0
149151  1  0
151152  1  0
151153  2  0
153154  1  0
153155  1  0
155156  1  0
155157  2  0
157158  1  0
158159  2  3
159160  1  0
160161  3  0
159162  1  0
162163  3  0
 15  2  1  0
 58 21  1  0
101 59  1  0
143106  1  0
158145  1  0
 14  5  1  0
 30 24  1  0
 37 31  1  0
 57 38  2  0
 68 61  1  0
100 69  2  0
115109  1  0
122116  1  0
142123  2  0
157148  1  0
 49 43  1  0
 56 50  1  0
 99 71  2  0
134128  1  0
141135  1  0
 97 72  2  0
 77 73  2  0
 96 78  2  0
 94 79  2  0
 93 81  2  0
 90 83  1  0
  1164  1  0
 25165  1  0
 26166  1  0
 28167  1  0
 28168  1  0
 28169  1  0
 29170  1  0
 30171  1  0
 32172  1  0
 33173  1  0
 35174  1  0
 35175  1  0
 35176  1  0
 36177  1  0
 37178  1  0
 44179  1  0
 45180  1  0
 47181  1  0
 47182  1  0
 47183  1  0
 48184  1  0
 49185  1  0
 51186  1  0
 52187  1  0
 54188  1  0
 54189  1  0
 54190  1  0
 55191  1  0
 56192  1  0
 62193  1  0
 63194  1  0
 64195  1  0
 66196  1  0
 66197  1  0
 67198  1  0
 67199  1  0
 67200  1  0
 68201  1  0
 84202  1  0
 85203  1  0
 86204  1  0
 88205  1  0
 88206  1  0
 89207  1  0
 89208  1  0
 89209  1  0
 90210  1  0
102211  1  0
102212  1  0
103213  1  0
103214  1  0
103215  1  0
104216  1  0
104217  1  0
105218  1  0
105219  1  0
105220  1  0
110221  1  0
111222  1  0
113223  1  0
113224  1  0
113225  1  0
114226  1  0
115227  1  0
117228  1  0
118229  1  0
120230  1  0
120231  1  0
120232  1  0
121233  1  0
122234  1  0
129235  1  0
130236  1  0
132237  1  0
132238  1  0
132239  1  0
133240  1  0
134241  1  0
136242  1  0
137243  1  0
139244  1  0
139245  1  0
139246  1  0
140247  1  0
141248  1  0
144249  1  0
M  END

