
     RDKit          3D

255281  0  0  0  0  0  0  0  0999 V2000
   -7.9549   -2.2705    5.9974 C   0  0  0  0  0  0  0  0  0  0  0  0
   -8.6864   -1.3095    5.4270 C   0  0  0  0  0  0  0  0  0  0  0  0
   -9.2853   -1.3402    4.0916 C   0  0  0  0  0  0  0  0  0  0  0  0
   -9.2537   -2.3212    3.3036 O   0  0  0  0  0  0  0  0  0  0  0  0
  -10.1636   -0.1841    3.9576 C   0  0  0  0  0  0  0  0  0  0  0  0
  -11.0316    0.1500    2.9088 C   0  0  0  0  0  0  0  0  0  0  0  0
  -11.0660   -0.7947    1.4108 Cl  0  0  0  0  0  0  0  0  0  0  0  0
  -11.9277    1.2198    3.0934 C   0  0  0  0  0  0  0  0  0  0  0  0
  -12.9939    1.7054    1.7737 Cl  0  0  0  0  0  0  0  0  0  0  0  0
  -12.0414    1.8471    4.3542 C   0  0  0  0  0  0  0  0  0  0  0  0
  -13.2712    3.0771    4.6291 Cl  0  0  0  0  0  0  0  0  0  0  0  0
  -11.2061    1.4454    5.4194 C   0  0  0  0  0  0  0  0  0  0  0  0
  -11.5921    1.9449    7.0701 Cl  0  0  0  0  0  0  0  0  0  0  0  0
  -10.1920    0.4971    5.1640 C   0  0  0  0  0  0  0  0  0  0  0  0
   -9.1994   -0.0840    6.1005 C   0  0  0  0  0  0  0  0  0  0  0  0
   -8.5331    0.6169    7.0571 C   0  0  0  0  0  0  0  0  0  0  0  0
   -7.5542    0.0208    7.9230 C   0  0  0  0  0  0  0  0  0  0  0  0
   -6.7658   -0.4515    8.6276 N   0  0  0  0  0  0  0  0  0  0  0  0
   -8.5635    2.0593    7.0924 C   0  0  0  0  0  0  0  0  0  0  0  0
   -8.5523    3.2188    7.1214 N   0  0  0  0  0  0  0  0  0  0  0  0
   -6.9677   -3.1528    5.3209 C   0  0  0  0  0  0  0  0  0  0  0  0
   -6.1119   -2.8350    4.2325 C   0  0  0  0  0  0  0  0  0  0  0  0
   -6.2293   -1.7104    3.3390 N   0  0  0  0  0  0  0  0  0  0  0  0
   -5.4577   -0.5160    3.6228 C   0  0  0  0  0  0  0  0  0  0  0  0
   -4.6782    0.0968    2.6191 C   0  0  0  0  0  0  0  0  0  0  0  0
   -3.9808    1.2799    2.8771 C   0  0  0  0  0  0  0  0  0  0  0  0
   -4.0342    1.8675    4.1495 C   0  0  0  0  0  0  0  0  0  0  0  0
   -3.3688    3.1837    4.4169 C   0  0  0  0  0  0  0  0  0  0  0  0
   -4.7351    1.2180    5.1725 C   0  0  0  0  0  0  0  0  0  0  0  0
   -5.4342    0.0353    4.9133 C   0  0  0  0  0  0  0  0  0  0  0  0
   -6.7517   -1.9363    2.0012 C   0  0  0  0  0  0  0  0  0  0  0  0
   -6.6975   -3.2072    1.3929 C   0  0  0  0  0  0  0  0  0  0  0  0
   -7.2036   -3.4045    0.1040 C   0  0  0  0  0  0  0  0  0  0  0  0
   -7.7798   -2.3425   -0.5971 C   0  0  0  0  0  0  0  0  0  0  0  0
   -8.3916   -2.5743   -1.9448 C   0  0  0  0  0  0  0  0  0  0  0  0
   -7.8584   -1.0813    0.0030 C   0  0  0  0  0  0  0  0  0  0  0  0
   -7.3503   -0.8782    1.2897 C   0  0  0  0  0  0  0  0  0  0  0  0
   -4.9960   -3.6664    4.2071 C   0  0  0  0  0  0  0  0  0  0  0  0
   -3.5060   -3.4928    3.4840 S   0  0  0  0  0  0  0  0  0  0  0  0
   -2.6945   -4.6136    4.4798 C   0  0  0  0  0  0  0  0  0  0  0  0
   -3.6433   -5.1654    5.3618 C   0  0  0  0  0  0  0  0  0  0  0  0
   -3.3054   -6.0732    6.4284 N   0  0  0  0  0  0  0  0  0  0  0  0
   -2.8081   -7.3894    6.0993 C   0  0  0  0  0  0  0  0  0  0  0  0
   -3.2568   -8.0570    4.9438 C   0  0  0  0  0  0  0  0  0  0  0  0
   -2.8204   -9.3534    4.6568 C   0  0  0  0  0  0  0  0  0  0  0  0
   -1.9129   -9.9954    5.5067 C   0  0  0  0  0  0  0  0  0  0  0  0
   -1.4658  -11.3919    5.2022 C   0  0  0  0  0  0  0  0  0  0  0  0
   -1.4521   -9.3323    6.6572 C   0  0  0  0  0  0  0  0  0  0  0  0
   -1.8857   -8.0359    6.9406 C   0  0  0  0  0  0  0  0  0  0  0  0
   -3.5954   -5.7005    7.7916 C   0  0  0  0  0  0  0  0  0  0  0  0
   -3.3267   -4.3982    8.2469 C   0  0  0  0  0  0  0  0  0  0  0  0
   -3.6542   -4.0192    9.5492 C   0  0  0  0  0  0  0  0  0  0  0  0
   -4.2641   -4.9299   10.4223 C   0  0  0  0  0  0  0  0  0  0  0  0
   -4.5844   -4.5202   11.8295 C   0  0  0  0  0  0  0  0  0  0  0  0
   -4.5176   -6.2385    9.9772 C   0  0  0  0  0  0  0  0  0  0  0  0
   -4.1986   -6.6165    8.6710 C   0  0  0  0  0  0  0  0  0  0  0  0
   -4.9082   -4.5897    5.1909 C   0  0  0  0  0  0  0  0  0  0  0  0
   -6.2443   -4.4391    6.1865 S   0  0  0  0  0  0  0  0  0  0  0  0
   -1.3395   -4.2751    4.9293 C   0  0  0  0  0  0  0  0  0  0  0  0
   -0.1382   -4.9898    4.7551 C   0  0  0  0  0  0  0  0  0  0  0  0
   -0.0150   -6.3175    4.1304 C   0  0  0  0  0  0  0  0  0  0  0  0
   -0.6892   -6.6135    2.9334 C   0  0  0  0  0  0  0  0  0  0  0  0
   -0.5634   -7.8771    2.3530 C   0  0  0  0  0  0  0  0  0  0  0  0
    0.2223   -8.8598    2.9629 C   0  0  0  0  0  0  0  0  0  0  0  0
    0.8906   -8.5839    4.1651 C   0  0  0  0  0  0  0  0  0  0  0  0
    1.7076   -9.6530    4.8480 C   0  0  0  0  0  0  0  0  0  0  0  0
    3.2014   -9.4428    4.6230 C   0  0  0  0  0  0  0  0  0  0  0  0
    0.7867   -7.3017    4.7325 C   0  0  0  0  0  0  0  0  0  0  0  0
    0.9615   -4.1958    5.1255 C   0  0  0  0  0  0  0  0  0  0  0  0
    2.6083   -4.2372    4.6617 S   0  0  0  0  0  0  0  0  0  0  0  0
    2.8466   -2.6187    5.1212 C   0  0  0  0  0  0  0  0  0  0  0  0
    3.6250   -1.5922    4.6414 C   0  0  0  0  0  0  0  0  0  0  0  0
    4.9267   -1.5437    4.1277 C   0  0  0  0  0  0  0  0  0  0  0  0
    5.4527   -0.2768    3.7047 C   0  0  0  0  0  0  0  0  0  0  0  0
    6.7193   -0.2680    3.2260 N   0  0  0  0  0  0  0  0  0  0  0  0
    7.0903   -1.8765    3.3937 S   0  0  0  0  0  0  0  0  0  0  0  0
    5.7495   -2.6109    4.0307 N   0  0  0  0  0  0  0  0  0  0  0  0
    4.6142    0.8548    3.7298 C   0  0  0  0  0  0  0  0  0  0  0  0
    4.6987    2.0269    3.0150 C   0  0  0  0  0  0  0  0  0  0  0  0
    5.7553    2.6014    1.8132 S   0  0  0  0  0  0  0  0  0  0  0  0
    4.5071    3.4804    1.0603 C   0  0  0  0  0  0  0  0  0  0  0  0
    4.4115    3.9683   -0.2443 C   0  0  0  0  0  0  0  0  0  0  0  0
    5.5694    4.2295   -1.1236 C   0  0  0  0  0  0  0  0  0  0  0  0
    6.1066    3.2290   -1.9460 C   0  0  0  0  0  0  0  0  0  0  0  0
    7.1120    3.5353   -2.8699 C   0  0  0  0  0  0  0  0  0  0  0  0
    7.5786    4.8466   -2.9844 C   0  0  0  0  0  0  0  0  0  0  0  0
    7.0529    5.8559   -2.1675 C   0  0  0  0  0  0  0  0  0  0  0  0
    7.4980    7.2808   -2.3488 C   0  0  0  0  0  0  0  0  0  0  0  0
    6.6759    7.9715   -3.4339 C   0  0  0  0  0  0  0  0  0  0  0  0
    6.0475    5.5439   -1.2355 C   0  0  0  0  0  0  0  0  0  0  0  0
    3.0712    4.0356   -0.6723 C   0  0  0  0  0  0  0  0  0  0  0  0
    2.0622    3.5353    0.5968 S   0  0  0  0  0  0  0  0  0  0  0  0
    3.3062    3.2622    1.6926 C   0  0  0  0  0  0  0  0  0  0  0  0
    3.4189    2.4680    2.8326 C   0  0  0  0  0  0  0  0  0  0  0  0
    2.5044    1.6944    3.4735 N   0  0  0  0  0  0  0  0  0  0  0  0
    3.2657    0.7445    4.1053 C   0  0  0  0  0  0  0  0  0  0  0  0
    2.8319   -0.4463    4.7236 C   0  0  0  0  0  0  0  0  0  0  0  0
    1.6436   -0.7141    5.3315 N   0  0  0  0  0  0  0  0  0  0  0  0
    1.6765   -2.0484    5.5401 C   0  0  0  0  0  0  0  0  0  0  0  0
    0.6262   -2.9407    5.5740 C   0  0  0  0  0  0  0  0  0  0  0  0
   -1.0174   -2.7125    5.5092 S   0  0  0  0  0  0  0  0  0  0  0  0
    0.7517    0.2363    6.0106 C   0  0  0  0  0  0  0  0  0  0  0  0
    0.8528    0.0977    7.5278 C   0  0  0  0  0  0  0  0  0  0  0  0
    1.0952    1.5661    3.0627 C   0  0  0  0  0  0  0  0  0  0  0  0
    0.2822    2.8051    3.4457 C   0  0  0  0  0  0  0  0  0  0  0  0
    2.6999    3.9062   -2.0850 C   0  0  0  0  0  0  0  0  0  0  0  0
    2.6392    2.6376   -2.6922 C   0  0  0  0  0  0  0  0  0  0  0  0
    2.0252    1.4802   -2.0865 N   0  0  0  0  0  0  0  0  0  0  0  0
    2.8008    0.2857   -1.8750 C   0  0  0  0  0  0  0  0  0  0  0  0
    3.9470    0.3204   -1.0723 C   0  0  0  0  0  0  0  0  0  0  0  0
    4.7281   -0.8201   -0.8984 C   0  0  0  0  0  0  0  0  0  0  0  0
    4.3473   -2.0342   -1.4955 C   0  0  0  0  0  0  0  0  0  0  0  0
    5.1891   -3.2629   -1.3271 C   0  0  0  0  0  0  0  0  0  0  0  0
    3.1599   -2.0928   -2.2345 C   0  0  0  0  0  0  0  0  0  0  0  0
    2.3988   -0.9349   -2.4385 C   0  0  0  0  0  0  0  0  0  0  0  0
    0.5990    1.4867   -1.8278 C   0  0  0  0  0  0  0  0  0  0  0  0
    0.0585    0.6974   -0.7947 C   0  0  0  0  0  0  0  0  0  0  0  0
   -1.3157    0.6977   -0.5457 C   0  0  0  0  0  0  0  0  0  0  0  0
   -2.1782    1.4812   -1.3294 C   0  0  0  0  0  0  0  0  0  0  0  0
   -3.6594    1.4657   -1.1036 C   0  0  0  0  0  0  0  0  0  0  0  0
   -1.6428    2.2797   -2.3506 C   0  0  0  0  0  0  0  0  0  0  0  0
   -0.2702    2.2810   -2.5988 C   0  0  0  0  0  0  0  0  0  0  0  0
    3.0270    2.7022   -4.0291 C   0  0  0  0  0  0  0  0  0  0  0  0
    3.4167    1.5662   -5.1928 S   0  0  0  0  0  0  0  0  0  0  0  0
    3.9276    2.7301   -6.3376 C   0  0  0  0  0  0  0  0  0  0  0  0
    3.7702    4.0192   -5.7921 C   0  0  0  0  0  0  0  0  0  0  0  0
    3.7899    5.2539   -6.5413 N   0  0  0  0  0  0  0  0  0  0  0  0
    2.6266    6.1124   -6.5083 C   0  0  0  0  0  0  0  0  0  0  0  0
    1.3290    5.5697   -6.4550 C   0  0  0  0  0  0  0  0  0  0  0  0
    0.2095    6.4043   -6.3942 C   0  0  0  0  0  0  0  0  0  0  0  0
    0.3644    7.7979   -6.4137 C   0  0  0  0  0  0  0  0  0  0  0  0
   -0.8326    8.6928   -6.3127 C   0  0  0  0  0  0  0  0  0  0  0  0
    1.6570    8.3452   -6.4638 C   0  0  0  0  0  0  0  0  0  0  0  0
    2.7772    7.5098   -6.5191 C   0  0  0  0  0  0  0  0  0  0  0  0
    4.8107    5.5033   -7.5149 C   0  0  0  0  0  0  0  0  0  0  0  0
    6.1312    5.7417   -7.1124 C   0  0  0  0  0  0  0  0  0  0  0  0
    7.1411    5.9157   -8.0653 C   0  0  0  0  0  0  0  0  0  0  0  0
    6.8334    5.8541   -9.4338 C   0  0  0  0  0  0  0  0  0  0  0  0
    7.9325    5.9663  -10.4496 C   0  0  0  0  0  0  0  0  0  0  0  0
    5.5071    5.6427   -9.8374 C   0  0  0  0  0  0  0  0  0  0  0  0
    4.5004    5.4705   -8.8837 C   0  0  0  0  0  0  0  0  0  0  0  0
    3.3010    3.9460   -4.4862 C   0  0  0  0  0  0  0  0  0  0  0  0
    3.1649    5.0619   -3.2466 S   0  0  0  0  0  0  0  0  0  0  0  0
    4.7575    2.3943   -7.5091 C   0  0  0  0  0  0  0  0  0  0  0  0
    6.1366    2.5911   -7.3925 C   0  0  0  0  0  0  0  0  0  0  0  0
    6.9896    2.3185   -8.4564 C   0  0  0  0  0  0  0  0  0  0  0  0
    6.4907    1.7793   -9.6463 C   0  0  0  0  0  0  0  0  0  0  0  0
    7.4037    1.4937  -10.7735 C   0  0  0  0  0  0  0  0  0  0  0  0
    8.6267    1.8013  -10.6854 O   0  0  0  0  0  0  0  0  0  0  0  0
    6.9017    0.8780  -11.9746 N   0  0  0  0  0  0  0  0  0  0  0  0
    7.8204    0.5440  -13.0735 C   0  0  0  0  0  0  0  0  0  0  0  0
    8.4629   -0.8161  -12.8335 C   0  0  0  0  0  0  0  0  0  0  0  0
    5.5132    0.4986  -12.0346 C   0  0  0  0  0  0  0  0  0  0  0  0
    5.0761   -0.1624  -13.0176 O   0  0  0  0  0  0  0  0  0  0  0  0
    4.5987    0.8672  -10.9230 C   0  0  0  0  0  0  0  0  0  0  0  0
    3.2234    0.5966  -11.0169 C   0  0  0  0  0  0  0  0  0  0  0  0
    2.3612    0.9379   -9.9745 C   0  0  0  0  0  0  0  0  0  0  0  0
    2.8576    1.5517   -8.8202 C   0  0  0  0  0  0  0  0  0  0  0  0
    4.2307    1.8119   -8.6873 C   0  0  0  0  0  0  0  0  0  0  0  0
    5.1102    1.4894   -9.7597 C   0  0  0  0  0  0  0  0  0  0  0  0
   -7.9338   -2.3168    7.0786 H   0  0  0  0  0  0  0  0  0  0  0  0
   -4.6170   -0.3444    1.6341 H   0  0  0  0  0  0  0  0  0  0  0  0
   -3.4158    1.7461    2.0807 H   0  0  0  0  0  0  0  0  0  0  0  0
   -2.5505    3.0555    5.1579 H   0  0  0  0  0  0  0  0  0  0  0  0
   -2.9433    3.6233    3.4879 H   0  0  0  0  0  0  0  0  0  0  0  0
   -4.1186    3.8994    4.8187 H   0  0  0  0  0  0  0  0  0  0  0  0
   -4.7509    1.6410    6.1683 H   0  0  0  0  0  0  0  0  0  0  0  0
   -5.9741   -0.4362    5.7163 H   0  0  0  0  0  0  0  0  0  0  0  0
   -6.2712   -4.0535    1.9076 H   0  0  0  0  0  0  0  0  0  0  0  0
   -7.1571   -4.3946   -0.3343 H   0  0  0  0  0  0  0  0  0  0  0  0
   -8.2269   -1.6905   -2.6011 H   0  0  0  0  0  0  0  0  0  0  0  0
   -7.9369   -3.4625   -2.4327 H   0  0  0  0  0  0  0  0  0  0  0  0
   -9.4846   -2.7392   -1.8295 H   0  0  0  0  0  0  0  0  0  0  0  0
   -8.3268   -0.2589   -0.5196 H   0  0  0  0  0  0  0  0  0  0  0  0
   -7.4497    0.1017    1.7407 H   0  0  0  0  0  0  0  0  0  0  0  0
   -3.9635   -7.5881    4.2747 H   0  0  0  0  0  0  0  0  0  0  0  0
   -3.1879   -9.8605    3.7717 H   0  0  0  0  0  0  0  0  0  0  0  0
   -2.2855  -12.1047    5.4349 H   0  0  0  0  0  0  0  0  0  0  0  0
   -0.5683  -11.6635    5.7985 H   0  0  0  0  0  0  0  0  0  0  0  0
   -1.2038  -11.4713    4.1262 H   0  0  0  0  0  0  0  0  0  0  0  0
   -0.7565   -9.8151    7.3291 H   0  0  0  0  0  0  0  0  0  0  0  0
   -1.5094   -7.5360    7.8211 H   0  0  0  0  0  0  0  0  0  0  0  0
   -2.8639   -3.6802    7.5873 H   0  0  0  0  0  0  0  0  0  0  0  0
   -3.4327   -3.0111    9.8751 H   0  0  0  0  0  0  0  0  0  0  0  0
   -5.3625   -5.1759   12.2740 H   0  0  0  0  0  0  0  0  0  0  0  0
   -3.6668   -4.5771   12.4509 H   0  0  0  0  0  0  0  0  0  0  0  0
   -4.9637   -3.4767   11.8530 H   0  0  0  0  0  0  0  0  0  0  0  0
   -4.9632   -6.9635   10.6452 H   0  0  0  0  0  0  0  0  0  0  0  0
   -4.4267   -7.6208    8.3402 H   0  0  0  0  0  0  0  0  0  0  0  0
   -1.3092   -5.8707    2.4509 H   0  0  0  0  0  0  0  0  0  0  0  0
   -1.0922   -8.0961    1.4343 H   0  0  0  0  0  0  0  0  0  0  0  0
    0.2864   -9.8436    2.5091 H   0  0  0  0  0  0  0  0  0  0  0  0
    1.4309  -10.6601    4.4645 H   0  0  0  0  0  0  0  0  0  0  0  0
    1.4902   -9.6519    5.9385 H   0  0  0  0  0  0  0  0  0  0  0  0
    3.4302   -9.4863    3.5347 H   0  0  0  0  0  0  0  0  0  0  0  0
    3.7764  -10.2462    5.1406 H   0  0  0  0  0  0  0  0  0  0  0  0
    3.5246   -8.4573    5.0266 H   0  0  0  0  0  0  0  0  0  0  0  0
    1.2963   -7.0820    5.6646 H   0  0  0  0  0  0  0  0  0  0  0  0
    5.7337    2.2161   -1.9096 H   0  0  0  0  0  0  0  0  0  0  0  0
    7.5099    2.7619   -3.5101 H   0  0  0  0  0  0  0  0  0  0  0  0
    8.3374    5.0751   -3.7227 H   0  0  0  0  0  0  0  0  0  0  0  0
    8.5739    7.3136   -2.6257 H   0  0  0  0  0  0  0  0  0  0  0  0
    7.3857    7.8397   -1.3930 H   0  0  0  0  0  0  0  0  0  0  0  0
    7.0523    9.0044   -3.5772 H   0  0  0  0  0  0  0  0  0  0  0  0
    6.7746    7.4258   -4.3936 H   0  0  0  0  0  0  0  0  0  0  0  0
    5.6031    8.0087   -3.1448 H   0  0  0  0  0  0  0  0  0  0  0  0
    5.6183    6.3307   -0.6280 H   0  0  0  0  0  0  0  0  0  0  0  0
   -0.2982    0.0828    5.6809 H   0  0  0  0  0  0  0  0  0  0  0  0
    1.0471    1.2727    5.7735 H   0  0  0  0  0  0  0  0  0  0  0  0
    0.5140   -0.9109    7.8498 H   0  0  0  0  0  0  0  0  0  0  0  0
    0.2106    0.8623    8.0190 H   0  0  0  0  0  0  0  0  0  0  0  0
    1.9063    0.2543    7.8425 H   0  0  0  0  0  0  0  0  0  0  0  0
    1.0427    1.4107    1.9671 H   0  0  0  0  0  0  0  0  0  0  0  0
    0.6179    0.6659    3.4803 H   0  0  0  0  0  0  0  0  0  0  0  0
   -0.7399    2.7108    3.0194 H   0  0  0  0  0  0  0  0  0  0  0  0
    0.7407    3.7275    3.0384 H   0  0  0  0  0  0  0  0  0  0  0  0
    0.1959    2.9109    4.5430 H   0  0  0  0  0  0  0  0  0  0  0  0
    4.2190    1.2306   -0.5607 H   0  0  0  0  0  0  0  0  0  0  0  0
    5.6264   -0.7568   -0.2954 H   0  0  0  0  0  0  0  0  0  0  0  0
    5.4353   -3.6815   -2.3253 H   0  0  0  0  0  0  0  0  0  0  0  0
    6.1395   -3.0387   -0.8001 H   0  0  0  0  0  0  0  0  0  0  0  0
    4.6287   -4.0226   -0.7444 H   0  0  0  0  0  0  0  0  0  0  0  0
    2.8345   -3.0271   -2.6694 H   0  0  0  0  0  0  0  0  0  0  0  0
    1.4957   -0.9936   -3.0319 H   0  0  0  0  0  0  0  0  0  0  0  0
    0.7017    0.0862   -0.1778 H   0  0  0  0  0  0  0  0  0  0  0  0
   -1.7093    0.0796    0.2493 H   0  0  0  0  0  0  0  0  0  0  0  0
   -4.0273    2.4989   -0.9077 H   0  0  0  0  0  0  0  0  0  0  0  0
   -3.9357    0.8228   -0.2433 H   0  0  0  0  0  0  0  0  0  0  0  0
   -4.1688    1.0671   -2.0087 H   0  0  0  0  0  0  0  0  0  0  0  0
   -2.2937    2.8943   -2.9628 H   0  0  0  0  0  0  0  0  0  0  0  0
    0.1138    2.8928   -3.4048 H   0  0  0  0  0  0  0  0  0  0  0  0
    1.1797    4.4988   -6.4646 H   0  0  0  0  0  0  0  0  0  0  0  0
   -0.7784    5.9642   -6.3383 H   0  0  0  0  0  0  0  0  0  0  0  0
   -1.7163    8.2203   -6.7896 H   0  0  0  0  0  0  0  0  0  0  0  0
   -0.6416    9.6606   -6.8251 H   0  0  0  0  0  0  0  0  0  0  0  0
   -1.0605    8.8854   -5.2438 H   0  0  0  0  0  0  0  0  0  0  0  0
    1.7957    9.4210   -6.4616 H   0  0  0  0  0  0  0  0  0  0  0  0
    3.7652    7.9482   -6.5542 H   0  0  0  0  0  0  0  0  0  0  0  0
    6.3713    5.7611   -6.0592 H   0  0  0  0  0  0  0  0  0  0  0  0
    8.1614    6.0636   -7.7330 H   0  0  0  0  0  0  0  0  0  0  0  0
    8.5956    6.8283  -10.2130 H   0  0  0  0  0  0  0  0  0  0  0  0
    7.5159    6.1187  -11.4727 H   0  0  0  0  0  0  0  0  0  0  0  0
    8.5351    5.0319  -10.4502 H   0  0  0  0  0  0  0  0  0  0  0  0
    5.2557    5.5822  -10.8872 H   0  0  0  0  0  0  0  0  0  0  0  0
    3.4841    5.2792   -9.2064 H   0  0  0  0  0  0  0  0  0  0  0  0
    6.5546    2.9862   -6.4745 H   0  0  0  0  0  0  0  0  0  0  0  0
    8.0451    2.5251   -8.3414 H   0  0  0  0  0  0  0  0  0  0  0  0
    8.6120    1.3185  -13.1642 H   0  0  0  0  0  0  0  0  0  0  0  0
    7.2774    0.5321  -14.0441 H   0  0  0  0  0  0  0  0  0  0  0  0
    9.0032   -0.8213  -11.8662 H   0  0  0  0  0  0  0  0  0  0  0  0
    7.6820   -1.6046  -12.8232 H   0  0  0  0  0  0  0  0  0  0  0  0
    9.1872   -1.0339  -13.6415 H   0  0  0  0  0  0  0  0  0  0  0  0
    2.8119    0.1154  -11.8934 H   0  0  0  0  0  0  0  0  0  0  0  0
    1.3024    0.7269  -10.0608 H   0  0  0  0  0  0  0  0  0  0  0  0
    2.1589    1.8056   -8.0394 H   0  0  0  0  0  0  0  0  0  0  0  0
  1  2  2  3
  2  3  1  0
  3  4  2  0
  3  5  1  0
  5  6  2  0
  6  7  1  0
  6  8  1  0
  8  9  1  0
  8 10  2  0
 10 11  1  0
 10 12  1  0
 12 13  1  0
 12 14  2  0
 14 15  1  0
 15 16  2  3
 16 17  1  0
 17 18  3  0
 16 19  1  0
 19 20  3  0
  1 21  1  0
 21 22  2  0
 22 23  1  0
 23 24  1  0
 24 25  2  0
 25 26  1  0
 26 27  2  0
 27 28  1  0
 27 29  1  0
 29 30  2  0
 23 31  1  0
 31 32  2  0
 32 33  1  0
 33 34  2  0
 34 35  1  0
 34 36  1  0
 36 37  2  0
 22 38  1  0
 38 39  1  0
 39 40  1  0
 40 41  2  0
 41 42  1  0
 42 43  1  0
 43 44  2  0
 44 45  1  0
 45 46  2  0
 46 47  1  0
 46 48  1  0
 48 49  2  0
 42 50  1  0
 50 51  2  0
 51 52  1  0
 52 53  2  0
 53 54  1  0
 53 55  1  0
 55 56  2  0
 41 57  1  0
 57 58  1  0
 40 59  1  0
 59 60  2  0
 60 61  1  0
 61 62  2  0
 62 63  1  0
 63 64  2  0
 64 65  1  0
 65 66  1  0
 66 67  1  0
 65 68  2  0
 60 69  1  0
 69 70  1  0
 70 71  1  0
 71 72  1  0
 72 73  1  0
 73 74  1  0
 74 75  2  0
 75 76  1  0
 76 77  1  0
 74 78  1  0
 78 79  1  0
 79 80  1  0
 80 81  1  0
 81 82  1  0
 82 83  1  0
 83 84  2  0
 84 85  1  0
 85 86  2  0
 86 87  1  0
 87 88  1  0
 88 89  1  0
 87 90  2  0
 82 91  2  0
 91 92  1  0
 92 93  1  0
 93 94  1  0
 94 95  1  0
 95 96  1  0
 96 97  1  0
 97 98  1  0
 98 99  1  0
 99100  1  0
100101  1  0
 98102  1  0
102103  1  0
 95104  1  0
104105  1  0
 91106  1  0
106107  2  0
107108  1  0
108109  1  0
109110  2  0
110111  1  0
111112  2  0
112113  1  0
112114  1  0
114115  2  0
108116  1  0
116117  2  0
117118  1  0
118119  2  0
119120  1  0
119121  1  0
121122  2  0
107123  1  0
123124  1  0
124125  1  0
125126  2  0
126127  1  0
127128  1  0
128129  2  0
129130  1  0
130131  2  0
131132  1  0
131133  1  0
133134  2  0
127135  1  0
135136  2  0
136137  1  0
137138  2  0
138139  1  0
138140  1  0
140141  2  0
126142  1  0
142143  1  0
125144  1  0
144145  2  0
145146  1  0
146147  2  0
147148  1  0
148149  2  0
148150  1  0
150151  1  0
151152  1  0
150153  1  0
153154  2  0
153155  1  0
155156  1  0
156157  2  0
157158  1  0
158159  2  0
159160  1  0
 15  2  1  0
 58 21  1  0
101 59  1  0
143106  1  0
159144  1  0
 14  5  1  0
 30 24  1  0
 37 31  1  0
 57 38  2  0
 68 61  1  0
100 69  2  0
115109  1  0
122116  1  0
142123  2  0
160147  1  0
 49 43  1  0
 56 50  1  0
 99 71  2  0
134128  1  0
141135  1  0
160155  2  0
 97 72  2  0
 77 73  2  0
 96 78  2  0
 94 79  2  0
 93 81  2  0
 90 83  1  0
  1161  1  0
 25162  1  0
 26163  1  0
 28164  1  0
 28165  1  0
 28166  1  0
 29167  1  0
 30168  1  0
 32169  1  0
 33170  1  0
 35171  1  0
 35172  1  0
 35173  1  0
 36174  1  0
 37175  1  0
 44176  1  0
 45177  1  0
 47178  1  0
 47179  1  0
 47180  1  0
 48181  1  0
 49182  1  0
 51183  1  0
 52184  1  0
 54185  1  0
 54186  1  0
 54187  1  0
 55188  1  0
 56189  1  0
 62190  1  0
 63191  1  0
 64192  1  0
 66193  1  0
 66194  1  0
 67195  1  0
 67196  1  0
 67197  1  0
 68198  1  0
 84199  1  0
 85200  1  0
 86201  1  0
 88202  1  0
 88203  1  0
 89204  1  0
 89205  1  0
 89206  1  0
 90207  1  0
102208  1  0
102209  1  0
103210  1  0
103211  1  0
103212  1  0
104213  1  0
104214  1  0
105215  1  0
105216  1  0
105217  1  0
110218  1  0
111219  1  0
113220  1  0
113221  1  0
113222  1  0
114223  1  0
115224  1  0
117225  1  0
118226  1  0
120227  1  0
120228  1  0
120229  1  0
121230  1  0
122231  1  0
129232  1  0
130233  1  0
132234  1  0
132235  1  0
132236  1  0
133237  1  0
134238  1  0
136239  1  0
137240  1  0
139241  1  0
139242  1  0
139243  1  0
140244  1  0
141245  1  0
145246  1  0
146247  1  0
151248  1  0
151249  1  0
152250  1  0
152251  1  0
152252  1  0
156253  1  0
157254  1  0
158255  1  0
M  END

