
     RDKit          3D

225249  0  0  0  0  0  0  0  0999 V2000
   -7.3908   -5.5049    6.6465 C   0  0  0  0  0  0  0  0  0  0  0  0
   -7.7526   -5.9875    7.8566 C   0  0  0  0  0  0  0  0  0  0  0  0
   -7.1035   -5.6792    9.1426 C   0  0  0  0  0  0  0  0  0  0  0  0
   -6.0309   -5.0368    9.3026 O   0  0  0  0  0  0  0  0  0  0  0  0
   -7.8820   -6.2587   10.2199 C   0  0  0  0  0  0  0  0  0  0  0  0
   -7.5969   -6.2932   11.5901 C   0  0  0  0  0  0  0  0  0  0  0  0
   -6.1863   -5.4494   12.2393 Cl  0  0  0  0  0  0  0  0  0  0  0  0
   -8.4517   -7.0286   12.4392 C   0  0  0  0  0  0  0  0  0  0  0  0
   -8.1373   -7.0696   14.1746 Cl  0  0  0  0  0  0  0  0  0  0  0  0
   -9.5294   -7.7619   11.8915 C   0  0  0  0  0  0  0  0  0  0  0  0
  -10.5480   -8.7433   12.9541 Cl  0  0  0  0  0  0  0  0  0  0  0  0
   -9.7693   -7.7435   10.5007 C   0  0  0  0  0  0  0  0  0  0  0  0
  -10.9154   -8.8978    9.8099 Cl  0  0  0  0  0  0  0  0  0  0  0  0
   -8.9842   -6.8997    9.6874 C   0  0  0  0  0  0  0  0  0  0  0  0
   -9.0162   -6.7128    8.2082 C   0  0  0  0  0  0  0  0  0  0  0  0
  -10.1469   -6.7125    7.4608 C   0  0  0  0  0  0  0  0  0  0  0  0
  -10.1321   -6.8769    6.0306 C   0  0  0  0  0  0  0  0  0  0  0  0
  -10.1257   -7.0138    4.8799 N   0  0  0  0  0  0  0  0  0  0  0  0
  -11.4313   -6.4503    8.0657 C   0  0  0  0  0  0  0  0  0  0  0  0
  -12.4610   -6.2230    8.5496 N   0  0  0  0  0  0  0  0  0  0  0  0
   -6.2635   -4.5888    6.4228 C   0  0  0  0  0  0  0  0  0  0  0  0
   -6.3755   -3.3375    5.8037 C   0  0  0  0  0  0  0  0  0  0  0  0
   -7.5681   -2.8623    5.1587 N   0  0  0  0  0  0  0  0  0  0  0  0
   -7.8176   -3.2971    3.8089 C   0  0  0  0  0  0  0  0  0  0  0  0
   -6.9098   -2.9910    2.7825 C   0  0  0  0  0  0  0  0  0  0  0  0
   -7.1625   -3.4029    1.4734 C   0  0  0  0  0  0  0  0  0  0  0  0
   -8.3130   -4.1477    1.1745 C   0  0  0  0  0  0  0  0  0  0  0  0
   -8.5982   -4.5482   -0.2439 C   0  0  0  0  0  0  0  0  0  0  0  0
   -9.2264   -4.4495    2.1982 C   0  0  0  0  0  0  0  0  0  0  0  0
   -8.9833   -4.0215    3.5037 C   0  0  0  0  0  0  0  0  0  0  0  0
   -8.5628   -2.1126    5.8927 C   0  0  0  0  0  0  0  0  0  0  0  0
   -9.4752   -1.2912    5.2039 C   0  0  0  0  0  0  0  0  0  0  0  0
  -10.4649   -0.5860    5.8927 C   0  0  0  0  0  0  0  0  0  0  0  0
  -10.5694   -0.6967    7.2844 C   0  0  0  0  0  0  0  0  0  0  0  0
  -11.6259    0.0614    8.0338 C   0  0  0  0  0  0  0  0  0  0  0  0
   -9.6548   -1.4967    7.9847 C   0  0  0  0  0  0  0  0  0  0  0  0
   -8.6569   -2.1954    7.2975 C   0  0  0  0  0  0  0  0  0  0  0  0
   -5.1490   -2.6867    5.7549 C   0  0  0  0  0  0  0  0  0  0  0  0
   -4.6266   -1.2330    5.1192 S   0  0  0  0  0  0  0  0  0  0  0  0
   -2.9923   -1.5019    5.5191 C   0  0  0  0  0  0  0  0  0  0  0  0
   -2.8565   -2.7553    6.1560 C   0  0  0  0  0  0  0  0  0  0  0  0
   -1.6205   -3.3536    6.6018 N   0  0  0  0  0  0  0  0  0  0  0  0
   -1.5847   -4.0440    7.8725 C   0  0  0  0  0  0  0  0  0  0  0  0
   -2.3563   -3.5850    8.9575 C   0  0  0  0  0  0  0  0  0  0  0  0
   -2.3797   -4.2827   10.1658 C   0  0  0  0  0  0  0  0  0  0  0  0
   -1.6247   -5.4532   10.3204 C   0  0  0  0  0  0  0  0  0  0  0  0
   -1.7063   -6.2397   11.5960 C   0  0  0  0  0  0  0  0  0  0  0  0
   -0.8567   -5.9222    9.2430 C   0  0  0  0  0  0  0  0  0  0  0  0
   -0.8285   -5.2164    8.0347 C   0  0  0  0  0  0  0  0  0  0  0  0
   -0.4376   -3.2632    5.7830 C   0  0  0  0  0  0  0  0  0  0  0  0
   -0.5166   -3.4058    4.3850 C   0  0  0  0  0  0  0  0  0  0  0  0
    0.6160   -3.2124    3.5873 C   0  0  0  0  0  0  0  0  0  0  0  0
    1.8437   -2.8649    4.1745 C   0  0  0  0  0  0  0  0  0  0  0  0
    3.0563   -2.6444    3.3183 C   0  0  0  0  0  0  0  0  0  0  0  0
    1.9404   -2.7831    5.5703 C   0  0  0  0  0  0  0  0  0  0  0  0
    0.8112   -2.9885    6.3668 C   0  0  0  0  0  0  0  0  0  0  0  0
   -4.0991   -3.3824    6.2591 C   0  0  0  0  0  0  0  0  0  0  0  0
   -4.6228   -4.8915    6.7904 S   0  0  0  0  0  0  0  0  0  0  0  0
   -1.9251   -0.5955    5.0738 C   0  0  0  0  0  0  0  0  0  0  0  0
   -0.8967   -0.0025    5.8456 C   0  0  0  0  0  0  0  0  0  0  0  0
   -0.7818   -0.0718    7.3262 C   0  0  0  0  0  0  0  0  0  0  0  0
    0.4792   -0.1282    7.9468 C   0  0  0  0  0  0  0  0  0  0  0  0
    0.5840   -0.1882    9.3390 C   0  0  0  0  0  0  0  0  0  0  0  0
   -0.5656   -0.2000   10.1279 C   0  0  0  0  0  0  0  0  0  0  0  0
   -1.8327   -0.1358    9.5314 C   0  0  0  0  0  0  0  0  0  0  0  0
   -3.0819   -0.1487   10.3762 C   0  0  0  0  0  0  0  0  0  0  0  0
   -3.6805    1.2470   10.5012 C   0  0  0  0  0  0  0  0  0  0  0  0
   -1.9322   -0.0529    8.1304 C   0  0  0  0  0  0  0  0  0  0  0  0
   -0.0592    0.7618    5.0125 C   0  0  0  0  0  0  0  0  0  0  0  0
    1.3405    1.7244    5.2398 S   0  0  0  0  0  0  0  0  0  0  0  0
    1.3715    2.1492    3.5881 C   0  0  0  0  0  0  0  0  0  0  0  0
    2.1887    2.7426    2.6621 C   0  0  0  0  0  0  0  0  0  0  0  0
    3.4887    3.2636    2.7366 C   0  0  0  0  0  0  0  0  0  0  0  0
    4.1507    3.6359    1.5237 C   0  0  0  0  0  0  0  0  0  0  0  0
    5.4092    4.1239    1.6362 N   0  0  0  0  0  0  0  0  0  0  0  0
    5.5984    4.0289    3.2790 S   0  0  0  0  0  0  0  0  0  0  0  0
    4.1856    3.4114    3.8862 N   0  0  0  0  0  0  0  0  0  0  0  0
    3.4559    3.5137    0.3142 C   0  0  0  0  0  0  0  0  0  0  0  0
    3.7397    3.9078   -0.9661 C   0  0  0  0  0  0  0  0  0  0  0  0
    5.0114    4.5359   -1.8965 S   0  0  0  0  0  0  0  0  0  0  0  0
    4.0103    4.5951   -3.2851 C   0  0  0  0  0  0  0  0  0  0  0  0
    4.2705    4.7645   -4.6466 C   0  0  0  0  0  0  0  0  0  0  0  0
    5.6412    4.9478   -5.1708 C   0  0  0  0  0  0  0  0  0  0  0  0
    6.4465    5.9978   -4.7000 C   0  0  0  0  0  0  0  0  0  0  0  0
    7.7588    6.1339   -5.1619 C   0  0  0  0  0  0  0  0  0  0  0  0
    8.2802    5.2274   -6.0924 C   0  0  0  0  0  0  0  0  0  0  0  0
    7.4830    4.1772   -6.5773 C   0  0  0  0  0  0  0  0  0  0  0  0
    8.0189    3.2061   -7.5943 C   0  0  0  0  0  0  0  0  0  0  0  0
    8.5016    1.9221   -6.9261 C   0  0  0  0  0  0  0  0  0  0  0  0
    6.1794    4.0249   -6.0856 C   0  0  0  0  0  0  0  0  0  0  0  0
    3.1223    4.4602   -5.4214 C   0  0  0  0  0  0  0  0  0  0  0  0
    1.8571    3.9482   -4.3993 S   0  0  0  0  0  0  0  0  0  0  0  0
    2.7444    4.1563   -3.0013 C   0  0  0  0  0  0  0  0  0  0  0  0
    2.6058    3.7441   -1.6895 C   0  0  0  0  0  0  0  0  0  0  0  0
    1.5698    3.2616   -0.9652 N   0  0  0  0  0  0  0  0  0  0  0  0
    2.1361    3.0468    0.2609 C   0  0  0  0  0  0  0  0  0  0  0  0
    1.5413    2.5491    1.4356 C   0  0  0  0  0  0  0  0  0  0  0  0
    0.4539    1.7325    1.5589 N   0  0  0  0  0  0  0  0  0  0  0  0
    0.3608    1.5687    2.8992 C   0  0  0  0  0  0  0  0  0  0  0  0
   -0.4356    0.7740    3.6935 C   0  0  0  0  0  0  0  0  0  0  0  0
   -1.7920   -0.1505    3.4397 S   0  0  0  0  0  0  0  0  0  0  0  0
   -0.0350    0.7476    0.5783 C   0  0  0  0  0  0  0  0  0  0  0  0
    0.6784   -0.5996    0.7407 C   0  0  0  0  0  0  0  0  0  0  0  0
    0.1595    3.5669   -1.2527 C   0  0  0  0  0  0  0  0  0  0  0  0
   -0.0867    5.0716   -1.2133 C   0  0  0  0  0  0  0  0  0  0  0  0
    3.1002    4.2493   -6.8735 C   0  0  0  0  0  0  0  0  0  0  0  0
    3.8175    4.9944   -7.8108 C   0  0  0  0  0  0  0  0  0  0  0  0
    4.0187    4.2995   -9.0170 C   0  0  0  0  0  0  0  0  0  0  0  0
    4.8280    4.7171  -10.0937 C   0  0  0  0  0  0  0  0  0  0  0  0
    5.5420    6.0100  -10.0886 C   0  0  0  0  0  0  0  0  0  0  0  0
    6.6876    6.4710   -8.9477 S   0  0  0  0  0  0  0  0  0  0  0  0
    7.0489    7.9518   -9.6540 C   0  0  0  0  0  0  0  0  0  0  0  0
    7.9358    8.9863   -9.0272 C   0  0  0  0  0  0  0  0  0  0  0  0
    7.1818    9.7555   -7.9460 C   0  0  0  0  0  0  0  0  0  0  0  0
    6.2582    8.1138  -10.7907 C   0  0  0  0  0  0  0  0  0  0  0  0
    6.2740    9.5648  -11.7837 Cl  0  0  0  0  0  0  0  0  0  0  0  0
    5.4188    7.0209  -11.0403 C   0  0  0  0  0  0  0  0  0  0  0  0
    4.2669    6.9724  -12.3684 Cl  0  0  0  0  0  0  0  0  0  0  0  0
    5.0549    3.7793  -11.1151 C   0  0  0  0  0  0  0  0  0  0  0  0
    4.4984    2.4971  -11.0988 C   0  0  0  0  0  0  0  0  0  0  0  0
    3.6072    2.1168  -10.0759 C   0  0  0  0  0  0  0  0  0  0  0  0
    2.9614    0.7939  -10.0690 C   0  0  0  0  0  0  0  0  0  0  0  0
    3.0339   -0.1492   -9.0481 C   0  0  0  0  0  0  0  0  0  0  0  0
    2.2668   -1.2943   -9.3036 C   0  0  0  0  0  0  0  0  0  0  0  0
    1.5897   -1.2471  -10.5198 C   0  0  0  0  0  0  0  0  0  0  0  0
    0.6903   -2.3178  -11.0645 C   0  0  0  0  0  0  0  0  0  0  0  0
    1.3106   -2.9888  -12.2851 C   0  0  0  0  0  0  0  0  0  0  0  0
    1.9444    0.2088  -11.2794 S   0  0  0  0  0  0  0  0  0  0  0  0
    3.4174    3.0372   -9.0307 C   0  0  0  0  0  0  0  0  0  0  0  0
    2.6398    2.7865   -7.5674 S   0  0  0  0  0  0  0  0  0  0  0  0
    5.0329    1.6504  -12.0893 C   0  0  0  0  0  0  0  0  0  0  0  0
    6.0235    2.2599  -12.8510 C   0  0  0  0  0  0  0  0  0  0  0  0
    6.1663    3.8797  -12.3739 S   0  0  0  0  0  0  0  0  0  0  0  0
    6.8253    1.5462  -13.8608 C   0  0  0  0  0  0  0  0  0  0  0  0
    8.1603    1.6385  -14.0139 C   0  0  0  0  0  0  0  0  0  0  0  0
    9.1218    2.2961  -13.1071 C   0  0  0  0  0  0  0  0  0  0  0  0
    8.8434    3.0151  -12.1156 O   0  0  0  0  0  0  0  0  0  0  0  0
   10.4557    1.8106  -13.4134 C   0  0  0  0  0  0  0  0  0  0  0  0
   11.6287    2.0055  -12.6778 C   0  0  0  0  0  0  0  0  0  0  0  0
   11.7041    3.2267  -11.4041 Cl  0  0  0  0  0  0  0  0  0  0  0  0
   12.7395    1.1862  -12.9568 C   0  0  0  0  0  0  0  0  0  0  0  0
   14.2367    1.4098  -12.0580 Cl  0  0  0  0  0  0  0  0  0  0  0  0
   12.6252    0.1339  -13.8947 C   0  0  0  0  0  0  0  0  0  0  0  0
   13.9668   -0.9917  -14.1117 Cl  0  0  0  0  0  0  0  0  0  0  0  0
   11.4252   -0.0490  -14.6178 C   0  0  0  0  0  0  0  0  0  0  0  0
   11.1923   -1.5345  -15.5447 Cl  0  0  0  0  0  0  0  0  0  0  0  0
   10.3750    0.8773  -14.4325 C   0  0  0  0  0  0  0  0  0  0  0  0
    8.9929    0.8582  -14.9769 C   0  0  0  0  0  0  0  0  0  0  0  0
    8.6552    0.5918  -16.2653 C   0  0  0  0  0  0  0  0  0  0  0  0
    9.6460    0.4248  -17.2983 C   0  0  0  0  0  0  0  0  0  0  0  0
   10.4350    0.3069  -18.1351 N   0  0  0  0  0  0  0  0  0  0  0  0
    7.2864    0.4974  -16.7019 C   0  0  0  0  0  0  0  0  0  0  0  0
    6.1769    0.3720  -17.0235 N   0  0  0  0  0  0  0  0  0  0  0  0
   -8.0108   -5.6601    5.7882 H   0  0  0  0  0  0  0  0  0  0  0  0
   -6.0230   -2.4098    2.9849 H   0  0  0  0  0  0  0  0  0  0  0  0
   -6.4616   -3.1346    0.6920 H   0  0  0  0  0  0  0  0  0  0  0  0
   -9.1227   -3.7233   -0.7648 H   0  0  0  0  0  0  0  0  0  0  0  0
   -9.2337   -5.4590   -0.2816 H   0  0  0  0  0  0  0  0  0  0  0  0
   -7.6516   -4.7667   -0.7835 H   0  0  0  0  0  0  0  0  0  0  0  0
  -10.1296   -5.0054    1.9828 H   0  0  0  0  0  0  0  0  0  0  0  0
   -9.7040   -4.2439    4.2802 H   0  0  0  0  0  0  0  0  0  0  0  0
   -9.4172   -1.1849    4.1305 H   0  0  0  0  0  0  0  0  0  0  0  0
  -11.1470    0.0426    5.3380 H   0  0  0  0  0  0  0  0  0  0  0  0
  -12.3580    0.5295    7.3390 H   0  0  0  0  0  0  0  0  0  0  0  0
  -11.1487    0.8592    8.6391 H   0  0  0  0  0  0  0  0  0  0  0  0
  -12.1772   -0.6279    8.7068 H   0  0  0  0  0  0  0  0  0  0  0  0
   -9.7153   -1.5825    9.0626 H   0  0  0  0  0  0  0  0  0  0  0  0
   -7.9745   -2.8081    7.8676 H   0  0  0  0  0  0  0  0  0  0  0  0
   -2.9682   -2.7045    8.8523 H   0  0  0  0  0  0  0  0  0  0  0  0
   -2.9990   -3.9173   10.9783 H   0  0  0  0  0  0  0  0  0  0  0  0
   -2.5818   -6.9202   11.5529 H   0  0  0  0  0  0  0  0  0  0  0  0
   -1.8217   -5.5549   12.4627 H   0  0  0  0  0  0  0  0  0  0  0  0
   -0.7849   -6.8364   11.7461 H   0  0  0  0  0  0  0  0  0  0  0  0
   -0.2869   -6.8418    9.3351 H   0  0  0  0  0  0  0  0  0  0  0  0
   -0.2451   -5.6107    7.2124 H   0  0  0  0  0  0  0  0  0  0  0  0
   -1.4637   -3.6472    3.9114 H   0  0  0  0  0  0  0  0  0  0  0  0
    0.5312   -3.3236    2.5128 H   0  0  0  0  0  0  0  0  0  0  0  0
    2.7763   -2.1847    2.3481 H   0  0  0  0  0  0  0  0  0  0  0  0
    3.5533   -3.6161    3.1301 H   0  0  0  0  0  0  0  0  0  0  0  0
    3.7730   -1.9612    3.8233 H   0  0  0  0  0  0  0  0  0  0  0  0
    2.8868   -2.5470    6.0412 H   0  0  0  0  0  0  0  0  0  0  0  0
    0.9068   -2.8930    7.4382 H   0  0  0  0  0  0  0  0  0  0  0  0
    1.3864   -0.1585    7.3533 H   0  0  0  0  0  0  0  0  0  0  0  0
    1.5604   -0.2345    9.8039 H   0  0  0  0  0  0  0  0  0  0  0  0
   -0.4668   -0.2498   11.2076 H   0  0  0  0  0  0  0  0  0  0  0  0
   -2.8637   -0.5494   11.3893 H   0  0  0  0  0  0  0  0  0  0  0  0
   -3.8351   -0.8188    9.9128 H   0  0  0  0  0  0  0  0  0  0  0  0
   -4.6304    1.1857   11.0714 H   0  0  0  0  0  0  0  0  0  0  0  0
   -3.8961    1.6683    9.4929 H   0  0  0  0  0  0  0  0  0  0  0  0
   -2.9809    1.9171   11.0393 H   0  0  0  0  0  0  0  0  0  0  0  0
   -2.9115    0.0371    7.6835 H   0  0  0  0  0  0  0  0  0  0  0  0
    6.0572    6.7084   -3.9827 H   0  0  0  0  0  0  0  0  0  0  0  0
    8.3743    6.9484   -4.8022 H   0  0  0  0  0  0  0  0  0  0  0  0
    9.2962    5.3624   -6.4528 H   0  0  0  0  0  0  0  0  0  0  0  0
    8.8643    3.6643   -8.1555 H   0  0  0  0  0  0  0  0  0  0  0  0
    7.2235    2.9584   -8.3308 H   0  0  0  0  0  0  0  0  0  0  0  0
    9.3498    2.1386   -6.2412 H   0  0  0  0  0  0  0  0  0  0  0  0
    8.8403    1.2091   -7.7047 H   0  0  0  0  0  0  0  0  0  0  0  0
    7.6840    1.4534   -6.3442 H   0  0  0  0  0  0  0  0  0  0  0  0
    5.5814    3.1814   -6.4235 H   0  0  0  0  0  0  0  0  0  0  0  0
   -1.1335    0.6142    0.7059 H   0  0  0  0  0  0  0  0  0  0  0  0
    0.1525    1.0707   -0.4582 H   0  0  0  0  0  0  0  0  0  0  0  0
    0.1296   -1.3683    0.1593 H   0  0  0  0  0  0  0  0  0  0  0  0
    0.6735   -0.9223    1.8030 H   0  0  0  0  0  0  0  0  0  0  0  0
    1.7214   -0.5255    0.3725 H   0  0  0  0  0  0  0  0  0  0  0  0
   -0.1175    3.1644   -2.2536 H   0  0  0  0  0  0  0  0  0  0  0  0
   -0.5109    3.1210   -0.4973 H   0  0  0  0  0  0  0  0  0  0  0  0
    0.4444    5.5820   -2.0419 H   0  0  0  0  0  0  0  0  0  0  0  0
   -1.1735    5.2742   -1.3096 H   0  0  0  0  0  0  0  0  0  0  0  0
    0.2642    5.4830   -0.2470 H   0  0  0  0  0  0  0  0  0  0  0  0
    4.2682    5.9485   -7.5751 H   0  0  0  0  0  0  0  0  0  0  0  0
    8.3264    9.6889   -9.7967 H   0  0  0  0  0  0  0  0  0  0  0  0
    8.8133    8.4850   -8.5568 H   0  0  0  0  0  0  0  0  0  0  0  0
    7.7607   10.6603   -7.6661 H   0  0  0  0  0  0  0  0  0  0  0  0
    6.1775   10.0628   -8.3017 H   0  0  0  0  0  0  0  0  0  0  0  0
    7.0790    9.1243   -7.0415 H   0  0  0  0  0  0  0  0  0  0  0  0
    3.6120   -0.0180   -8.1401 H   0  0  0  0  0  0  0  0  0  0  0  0
    2.2007   -2.1259   -8.6175 H   0  0  0  0  0  0  0  0  0  0  0  0
    0.5015   -3.0837  -10.2807 H   0  0  0  0  0  0  0  0  0  0  0  0
   -0.2884   -1.8683  -11.3376 H   0  0  0  0  0  0  0  0  0  0  0  0
    0.6091   -3.7591  -12.6712 H   0  0  0  0  0  0  0  0  0  0  0  0
    2.2575   -3.4948  -11.9941 H   0  0  0  0  0  0  0  0  0  0  0  0
    1.4881   -2.2452  -13.0868 H   0  0  0  0  0  0  0  0  0  0  0  0
    4.7830    0.6031  -12.1856 H   0  0  0  0  0  0  0  0  0  0  0  0
    6.2902    0.7901  -14.4111 H   0  0  0  0  0  0  0  0  0  0  0  0
  1  2  2  3
  2  3  1  0
  3  4  2  0
  3  5  1  0
  5  6  2  0
  6  7  1  0
  6  8  1  0
  8  9  1  0
  8 10  2  0
 10 11  1  0
 10 12  1  0
 12 13  1  0
 12 14  2  0
 14 15  1  0
 15 16  2  3
 16 17  1  0
 17 18  3  0
 16 19  1  0
 19 20  3  0
  1 21  1  0
 21 22  2  0
 22 23  1  0
 23 24  1  0
 24 25  2  0
 25 26  1  0
 26 27  2  0
 27 28  1  0
 27 29  1  0
 29 30  2  0
 23 31  1  0
 31 32  2  0
 32 33  1  0
 33 34  2  0
 34 35  1  0
 34 36  1  0
 36 37  2  0
 22 38  1  0
 38 39  1  0
 39 40  1  0
 40 41  2  0
 41 42  1  0
 42 43  1  0
 43 44  2  0
 44 45  1  0
 45 46  2  0
 46 47  1  0
 46 48  1  0
 48 49  2  0
 42 50  1  0
 50 51  2  0
 51 52  1  0
 52 53  2  0
 53 54  1  0
 53 55  1  0
 55 56  2  0
 41 57  1  0
 57 58  1  0
 40 59  1  0
 59 60  2  0
 60 61  1  0
 61 62  2  0
 62 63  1  0
 63 64  2  0
 64 65  1  0
 65 66  1  0
 66 67  1  0
 65 68  2  0
 60 69  1  0
 69 70  1  0
 70 71  1  0
 71 72  1  0
 72 73  1  0
 73 74  1  0
 74 75  2  0
 75 76  1  0
 76 77  1  0
 74 78  1  0
 78 79  1  0
 79 80  1  0
 80 81  1  0
 81 82  1  0
 82 83  1  0
 83 84  2  0
 84 85  1  0
 85 86  2  0
 86 87  1  0
 87 88  1  0
 88 89  1  0
 87 90  2  0
 82 91  2  0
 91 92  1  0
 92 93  1  0
 93 94  1  0
 94 95  1  0
 95 96  1  0
 96 97  1  0
 97 98  1  0
 98 99  1  0
 99100  1  0
100101  1  0
 98102  1  0
102103  1  0
 95104  1  0
104105  1  0
 91106  1  0
106107  2  0
107108  1  0
108109  2  0
109110  1  0
110111  1  0
111112  1  0
112113  1  0
113114  1  0
112115  2  0
115116  1  0
115117  1  0
117118  1  0
109119  1  0
119120  2  0
120121  1  0
121122  1  0
122123  2  0
123124  1  0
124125  2  0
125126  1  0
126127  1  0
125128  1  0
121129  2  0
129130  1  0
120131  1  0
131132  2  0
132133  1  0
132134  1  0
134135  2  3
135136  1  0
136137  2  0
136138  1  0
138139  2  0
139140  1  0
139141  1  0
141142  1  0
141143  2  0
143144  1  0
143145  1  0
145146  1  0
145147  2  0
147148  1  0
148149  2  3
149150  1  0
150151  3  0
149152  1  0
152153  3  0
 15  2  1  0
 58 21  1  0
101 59  1  0
130106  1  0
148135  1  0
 14  5  1  0
 30 24  1  0
 37 31  1  0
 57 38  2  0
 68 61  1  0
100 69  2  0
129108  1  0
147138  1  0
 49 43  1  0
 56 50  1  0
 99 71  2  0
117110  2  0
133119  1  0
 97 72  2  0
128122  1  0
 77 73  2  0
 96 78  2  0
 94 79  2  0
 93 81  2  0
 90 83  1  0
  1154  1  0
 25155  1  0
 26156  1  0
 28157  1  0
 28158  1  0
 28159  1  0
 29160  1  0
 30161  1  0
 32162  1  0
 33163  1  0
 35164  1  0
 35165  1  0
 35166  1  0
 36167  1  0
 37168  1  0
 44169  1  0
 45170  1  0
 47171  1  0
 47172  1  0
 47173  1  0
 48174  1  0
 49175  1  0
 51176  1  0
 52177  1  0
 54178  1  0
 54179  1  0
 54180  1  0
 55181  1  0
 56182  1  0
 62183  1  0
 63184  1  0
 64185  1  0
 66186  1  0
 66187  1  0
 67188  1  0
 67189  1  0
 67190  1  0
 68191  1  0
 84192  1  0
 85193  1  0
 86194  1  0
 88195  1  0
 88196  1  0
 89197  1  0
 89198  1  0
 89199  1  0
 90200  1  0
102201  1  0
102202  1  0
103203  1  0
103204  1  0
103205  1  0
104206  1  0
104207  1  0
105208  1  0
105209  1  0
105210  1  0
107211  1  0
113212  1  0
113213  1  0
114214  1  0
114215  1  0
114216  1  0
123217  1  0
124218  1  0
126219  1  0
126220  1  0
127221  1  0
127222  1  0
127223  1  0
131224  1  0
134225  1  0
M  END

