
     RDKit          3D

197217  0  0  0  0  0  0  0  0999 V2000
   -5.9586   -4.4479   -0.9366 C   0  0  0  0  0  0  0  0  0  0  0  0
   -6.6824   -3.9667   -1.9630 C   0  0  0  0  0  0  0  0  0  0  0  0
   -6.2346   -3.0089   -2.9828 C   0  0  0  0  0  0  0  0  0  0  0  0
   -5.0727   -2.5376   -3.1004 O   0  0  0  0  0  0  0  0  0  0  0  0
   -7.4046   -2.5354   -3.7081 C   0  0  0  0  0  0  0  0  0  0  0  0
   -7.4817   -1.5521   -4.7009 C   0  0  0  0  0  0  0  0  0  0  0  0
   -6.0177   -0.8707   -5.4082 Cl  0  0  0  0  0  0  0  0  0  0  0  0
   -8.7580   -1.1287   -5.1273 C   0  0  0  0  0  0  0  0  0  0  0  0
   -8.9006    0.0787   -6.4064 Cl  0  0  0  0  0  0  0  0  0  0  0  0
   -9.9184   -1.6276   -4.4897 C   0  0  0  0  0  0  0  0  0  0  0  0
  -11.5043   -1.0038   -4.9449 Cl  0  0  0  0  0  0  0  0  0  0  0  0
   -9.8115   -2.6018   -3.4752 C   0  0  0  0  0  0  0  0  0  0  0  0
  -11.2092   -2.9682   -2.4679 Cl  0  0  0  0  0  0  0  0  0  0  0  0
   -8.5380   -3.1206   -3.1678 C   0  0  0  0  0  0  0  0  0  0  0  0
   -8.1436   -4.1625   -2.1807 C   0  0  0  0  0  0  0  0  0  0  0  0
   -8.7915   -5.3400   -1.9914 C   0  0  0  0  0  0  0  0  0  0  0  0
   -9.9345   -5.7121   -2.7871 C   0  0  0  0  0  0  0  0  0  0  0  0
  -10.8396   -6.0272   -3.4346 N   0  0  0  0  0  0  0  0  0  0  0  0
   -8.2592   -6.3937   -1.1631 C   0  0  0  0  0  0  0  0  0  0  0  0
   -7.8403   -7.2456   -0.4987 N   0  0  0  0  0  0  0  0  0  0  0  0
   -4.4851   -4.4860   -0.9159 C   0  0  0  0  0  0  0  0  0  0  0  0
   -3.6407   -4.2959    0.2020 C   0  0  0  0  0  0  0  0  0  0  0  0
   -4.0636   -3.8549    1.5126 N   0  0  0  0  0  0  0  0  0  0  0  0
   -5.2119   -4.4490    2.1415 C   0  0  0  0  0  0  0  0  0  0  0  0
   -5.3530   -5.8449    2.1862 C   0  0  0  0  0  0  0  0  0  0  0  0
   -6.5078   -6.4187    2.7241 C   0  0  0  0  0  0  0  0  0  0  0  0
   -7.5275   -5.6037    3.2405 C   0  0  0  0  0  0  0  0  0  0  0  0
   -8.7985   -6.2176    3.7427 C   0  0  0  0  0  0  0  0  0  0  0  0
   -7.3781   -4.2095    3.2123 C   0  0  0  0  0  0  0  0  0  0  0  0
   -6.2215   -3.6362    2.6763 C   0  0  0  0  0  0  0  0  0  0  0  0
   -3.2699   -2.8906    2.2381 C   0  0  0  0  0  0  0  0  0  0  0  0
   -2.7830   -1.7409    1.5923 C   0  0  0  0  0  0  0  0  0  0  0  0
   -1.9342   -0.8570    2.2638 C   0  0  0  0  0  0  0  0  0  0  0  0
   -1.5514   -1.1140    3.5898 C   0  0  0  0  0  0  0  0  0  0  0  0
   -0.6362   -0.1732    4.3149 C   0  0  0  0  0  0  0  0  0  0  0  0
   -2.0690   -2.2385    4.2506 C   0  0  0  0  0  0  0  0  0  0  0  0
   -2.9191   -3.1230    3.5804 C   0  0  0  0  0  0  0  0  0  0  0  0
   -2.3060   -4.5068   -0.1487 C   0  0  0  0  0  0  0  0  0  0  0  0
   -0.8424   -4.4002    0.6623 S   0  0  0  0  0  0  0  0  0  0  0  0
    0.1008   -4.7631   -0.7070 C   0  0  0  0  0  0  0  0  0  0  0  0
   -0.7451   -4.9702   -1.8092 C   0  0  0  0  0  0  0  0  0  0  0  0
   -0.2939   -5.2388   -3.1476 N   0  0  0  0  0  0  0  0  0  0  0  0
    0.6857   -6.2775   -3.3661 C   0  0  0  0  0  0  0  0  0  0  0  0
    0.6051   -7.4909   -2.6615 C   0  0  0  0  0  0  0  0  0  0  0  0
    1.5688   -8.4842   -2.8523 C   0  0  0  0  0  0  0  0  0  0  0  0
    2.6221   -8.2841   -3.7576 C   0  0  0  0  0  0  0  0  0  0  0  0
    3.6822   -9.3297   -3.9363 C   0  0  0  0  0  0  0  0  0  0  0  0
    2.7133   -7.0669   -4.4481 C   0  0  0  0  0  0  0  0  0  0  0  0
    1.7496   -6.0741   -4.2598 C   0  0  0  0  0  0  0  0  0  0  0  0
   -0.8152   -4.4674   -4.2524 C   0  0  0  0  0  0  0  0  0  0  0  0
   -1.0311   -3.0842   -4.1175 C   0  0  0  0  0  0  0  0  0  0  0  0
   -1.5302   -2.3380   -5.1893 C   0  0  0  0  0  0  0  0  0  0  0  0
   -1.8346   -2.9632   -6.4070 C   0  0  0  0  0  0  0  0  0  0  0  0
   -2.3132   -2.1481   -7.5730 C   0  0  0  0  0  0  0  0  0  0  0  0
   -1.6137   -4.3411   -6.5471 C   0  0  0  0  0  0  0  0  0  0  0  0
   -1.1176   -5.0883   -5.4760 C   0  0  0  0  0  0  0  0  0  0  0  0
   -2.0823   -4.8316   -1.4458 C   0  0  0  0  0  0  0  0  0  0  0  0
   -3.5348   -4.9320   -2.2653 S   0  0  0  0  0  0  0  0  0  0  0  0
    1.5443   -4.5065   -0.7721 C   0  0  0  0  0  0  0  0  0  0  0  0
    2.4582   -4.7399    0.2765 C   0  0  0  0  0  0  0  0  0  0  0  0
    2.1617   -5.5702    1.4634 C   0  0  0  0  0  0  0  0  0  0  0  0
    1.6607   -6.8712    1.2897 C   0  0  0  0  0  0  0  0  0  0  0  0
    1.3238   -7.6500    2.3979 C   0  0  0  0  0  0  0  0  0  0  0  0
    1.4795   -7.1398    3.6890 C   0  0  0  0  0  0  0  0  0  0  0  0
    1.9816   -5.8424    3.8807 C   0  0  0  0  0  0  0  0  0  0  0  0
    2.1059   -5.2791    5.2699 C   0  0  0  0  0  0  0  0  0  0  0  0
    0.7875   -4.6578    5.7235 C   0  0  0  0  0  0  0  0  0  0  0  0
    2.3110   -5.0560    2.7632 C   0  0  0  0  0  0  0  0  0  0  0  0
    3.6395   -4.0180    0.0753 C   0  0  0  0  0  0  0  0  0  0  0  0
    4.9173   -3.5682    1.1190 S   0  0  0  0  0  0  0  0  0  0  0  0
    5.4652   -2.4079    0.0074 C   0  0  0  0  0  0  0  0  0  0  0  0
    6.1418   -1.2204    0.0775 C   0  0  0  0  0  0  0  0  0  0  0  0
    7.0228   -0.7106    1.0327 C   0  0  0  0  0  0  0  0  0  0  0  0
    7.4913    0.6269    0.8821 C   0  0  0  0  0  0  0  0  0  0  0  0
    8.3335    1.0887    1.8420 N   0  0  0  0  0  0  0  0  0  0  0  0
    8.4338   -0.2541    2.8047 S   0  0  0  0  0  0  0  0  0  0  0  0
    7.4696   -1.4058    2.1068 N   0  0  0  0  0  0  0  0  0  0  0  0
    6.9969    1.4088   -0.1726 C   0  0  0  0  0  0  0  0  0  0  0  0
    6.9750    2.7721   -0.2912 C   0  0  0  0  0  0  0  0  0  0  0  0
    7.3231    4.0267    0.8014 S   0  0  0  0  0  0  0  0  0  0  0  0
    6.1268    5.0237    0.1253 C   0  0  0  0  0  0  0  0  0  0  0  0
    5.5230    6.2059    0.5736 C   0  0  0  0  0  0  0  0  0  0  0  0
    6.0225    7.0100    1.7034 C   0  0  0  0  0  0  0  0  0  0  0  0
    6.2774    8.3786    1.5287 C   0  0  0  0  0  0  0  0  0  0  0  0
    6.6459    9.1688    2.6203 C   0  0  0  0  0  0  0  0  0  0  0  0
    6.7594    8.6002    3.8920 C   0  0  0  0  0  0  0  0  0  0  0  0
    6.5178    7.2304    4.0783 C   0  0  0  0  0  0  0  0  0  0  0  0
    6.5599    6.6343    5.4578 C   0  0  0  0  0  0  0  0  0  0  0  0
    5.1746    6.6756    6.0993 C   0  0  0  0  0  0  0  0  0  0  0  0
    6.1464    6.4389    2.9798 C   0  0  0  0  0  0  0  0  0  0  0  0
    4.3240    6.4595   -0.1296 C   0  0  0  0  0  0  0  0  0  0  0  0
    4.0732    5.2196   -1.2648 S   0  0  0  0  0  0  0  0  0  0  0  0
    5.4655    4.3734   -0.8877 C   0  0  0  0  0  0  0  0  0  0  0  0
    5.9394    3.0815   -1.1260 C   0  0  0  0  0  0  0  0  0  0  0  0
    5.3124    1.9748   -1.6098 N   0  0  0  0  0  0  0  0  0  0  0  0
    6.0173    0.9267   -1.0618 C   0  0  0  0  0  0  0  0  0  0  0  0
    5.6828   -0.4559   -1.0069 C   0  0  0  0  0  0  0  0  0  0  0  0
    4.8292   -1.1910   -1.7844 N   0  0  0  0  0  0  0  0  0  0  0  0
    4.6904   -2.3508   -1.1044 C   0  0  0  0  0  0  0  0  0  0  0  0
    3.6593   -3.2709   -1.0769 C   0  0  0  0  0  0  0  0  0  0  0  0
    2.2093   -3.4077   -1.8902 S   0  0  0  0  0  0  0  0  0  0  0  0
    4.5196   -1.0138   -3.2093 C   0  0  0  0  0  0  0  0  0  0  0  0
    5.1557   -2.1112   -4.0630 C   0  0  0  0  0  0  0  0  0  0  0  0
    3.9193    1.9772   -2.0895 C   0  0  0  0  0  0  0  0  0  0  0  0
    3.8220    2.5509   -3.5050 C   0  0  0  0  0  0  0  0  0  0  0  0
    3.2466    7.3970    0.2397 C   0  0  0  0  0  0  0  0  0  0  0  0
    2.9697    7.8793    1.5206 C   0  0  0  0  0  0  0  0  0  0  0  0
    1.7114    8.4981    1.6252 C   0  0  0  0  0  0  0  0  0  0  0  0
    1.1727    9.0271    2.8046 O   0  0  0  0  0  0  0  0  0  0  0  0
    1.7185    8.8140    4.1070 C   0  0  0  0  0  0  0  0  0  0  0  0
    1.4591    7.3844    4.5691 C   0  0  0  0  0  0  0  0  0  0  0  0
    1.0056    8.5003    0.4310 C   0  0  0  0  0  0  0  0  0  0  0  0
    1.9232    7.7378   -0.7481 S   0  0  0  0  0  0  0  0  0  0  0  0
   -0.3525    9.0079    0.2354 C   0  0  0  0  0  0  0  0  0  0  0  0
   -1.4222    8.2164    0.0476 C   0  0  0  0  0  0  0  0  0  0  0  0
   -2.7278    8.7279   -0.3642 C   0  0  0  0  0  0  0  0  0  0  0  0
   -3.0186    9.9415   -0.5392 O   0  0  0  0  0  0  0  0  0  0  0  0
   -3.6216    7.6012   -0.5453 C   0  0  0  0  0  0  0  0  0  0  0  0
   -4.9497    7.5796   -0.9842 C   0  0  0  0  0  0  0  0  0  0  0  0
   -5.8027    9.0783   -1.3522 Cl  0  0  0  0  0  0  0  0  0  0  0  0
   -5.5839    6.3306   -1.1347 C   0  0  0  0  0  0  0  0  0  0  0  0
   -7.2584    6.2588   -1.6859 Cl  0  0  0  0  0  0  0  0  0  0  0  0
   -4.8747    5.1355   -0.8636 C   0  0  0  0  0  0  0  0  0  0  0  0
   -5.6671    3.5740   -1.0833 Cl  0  0  0  0  0  0  0  0  0  0  0  0
   -3.5344    5.1866   -0.4228 C   0  0  0  0  0  0  0  0  0  0  0  0
   -2.6152    3.6996   -0.1912 Cl  0  0  0  0  0  0  0  0  0  0  0  0
   -2.9318    6.4426   -0.2387 C   0  0  0  0  0  0  0  0  0  0  0  0
   -1.5417    6.7356    0.2103 C   0  0  0  0  0  0  0  0  0  0  0  0
   -1.0120    6.1261    1.2883 C   0  0  0  0  0  0  0  0  0  0  0  0
   -1.8529    5.6740    2.3686 C   0  0  0  0  0  0  0  0  0  0  0  0
   -2.5248    5.3135    3.2369 N   0  0  0  0  0  0  0  0  0  0  0  0
    0.2834    5.5114    1.1952 C   0  0  0  0  0  0  0  0  0  0  0  0
    1.3164    4.9932    1.1338 N   0  0  0  0  0  0  0  0  0  0  0  0
   -6.4742   -4.9139   -0.1170 H   0  0  0  0  0  0  0  0  0  0  0  0
   -4.5778   -6.4859    1.7828 H   0  0  0  0  0  0  0  0  0  0  0  0
   -6.6158   -7.4954    2.7199 H   0  0  0  0  0  0  0  0  0  0  0  0
   -9.2902   -5.5563    4.4883 H   0  0  0  0  0  0  0  0  0  0  0  0
   -8.5941   -7.1946    4.2308 H   0  0  0  0  0  0  0  0  0  0  0  0
   -9.4915   -6.3776    2.8897 H   0  0  0  0  0  0  0  0  0  0  0  0
   -8.1632   -3.5651    3.5886 H   0  0  0  0  0  0  0  0  0  0  0  0
   -6.1266   -2.5573    2.6424 H   0  0  0  0  0  0  0  0  0  0  0  0
   -3.0466   -1.5415    0.5612 H   0  0  0  0  0  0  0  0  0  0  0  0
   -1.5582    0.0134    1.7426 H   0  0  0  0  0  0  0  0  0  0  0  0
    0.1029   -0.7450    4.9169 H   0  0  0  0  0  0  0  0  0  0  0  0
   -0.0748    0.4701    3.6037 H   0  0  0  0  0  0  0  0  0  0  0  0
   -1.2309    0.4737    4.9929 H   0  0  0  0  0  0  0  0  0  0  0  0
   -1.8023   -2.4370    5.2800 H   0  0  0  0  0  0  0  0  0  0  0  0
   -3.2836   -4.0013    4.0979 H   0  0  0  0  0  0  0  0  0  0  0  0
   -0.2025   -7.6664   -1.9639 H   0  0  0  0  0  0  0  0  0  0  0  0
    1.4947   -9.4093   -2.2933 H   0  0  0  0  0  0  0  0  0  0  0  0
    3.9831   -9.3960   -5.0049 H   0  0  0  0  0  0  0  0  0  0  0  0
    4.5722   -9.0631   -3.3270 H   0  0  0  0  0  0  0  0  0  0  0  0
    3.3152  -10.3296   -3.6192 H   0  0  0  0  0  0  0  0  0  0  0  0
    3.5372   -6.8842   -5.1286 H   0  0  0  0  0  0  0  0  0  0  0  0
    1.8458   -5.1344   -4.7905 H   0  0  0  0  0  0  0  0  0  0  0  0
   -0.7963   -2.5806   -3.1879 H   0  0  0  0  0  0  0  0  0  0  0  0
   -1.6741   -1.2708   -5.0705 H   0  0  0  0  0  0  0  0  0  0  0  0
   -2.9537   -1.3108   -7.2254 H   0  0  0  0  0  0  0  0  0  0  0  0
   -2.9099   -2.7719   -8.2719 H   0  0  0  0  0  0  0  0  0  0  0  0
   -1.4394   -1.7323   -8.1166 H   0  0  0  0  0  0  0  0  0  0  0  0
   -1.8264   -4.8369   -7.4862 H   0  0  0  0  0  0  0  0  0  0  0  0
   -0.9702   -6.1543   -5.5980 H   0  0  0  0  0  0  0  0  0  0  0  0
    1.5302   -7.2798    0.2958 H   0  0  0  0  0  0  0  0  0  0  0  0
    0.9321   -8.6483    2.2565 H   0  0  0  0  0  0  0  0  0  0  0  0
    1.2011   -7.7503    4.5382 H   0  0  0  0  0  0  0  0  0  0  0  0
    2.3939   -6.0827    5.9813 H   0  0  0  0  0  0  0  0  0  0  0  0
    2.9049   -4.5067    5.3032 H   0  0  0  0  0  0  0  0  0  0  0  0
    0.4917   -3.8338    5.0391 H   0  0  0  0  0  0  0  0  0  0  0  0
    0.9039   -4.2470    6.7477 H   0  0  0  0  0  0  0  0  0  0  0  0
   -0.0155   -5.4271    5.7407 H   0  0  0  0  0  0  0  0  0  0  0  0
    2.6520   -4.0390    2.9060 H   0  0  0  0  0  0  0  0  0  0  0  0
    6.1670    8.8380    0.5534 H   0  0  0  0  0  0  0  0  0  0  0  0
    6.8223   10.2280    2.4859 H   0  0  0  0  0  0  0  0  0  0  0  0
    7.0249    9.2302    4.7318 H   0  0  0  0  0  0  0  0  0  0  0  0
    7.2774    7.1952    6.0974 H   0  0  0  0  0  0  0  0  0  0  0  0
    6.9124    5.5804    5.4075 H   0  0  0  0  0  0  0  0  0  0  0  0
    4.4556    6.0857    5.4953 H   0  0  0  0  0  0  0  0  0  0  0  0
    4.8142    7.7241    6.1743 H   0  0  0  0  0  0  0  0  0  0  0  0
    5.2219    6.2392    7.1192 H   0  0  0  0  0  0  0  0  0  0  0  0
    5.9117    5.3913    3.1263 H   0  0  0  0  0  0  0  0  0  0  0  0
    3.4172   -1.0206   -3.3584 H   0  0  0  0  0  0  0  0  0  0  0  0
    4.9403   -0.0616   -3.5695 H   0  0  0  0  0  0  0  0  0  0  0  0
    4.7983   -3.1145   -3.7594 H   0  0  0  0  0  0  0  0  0  0  0  0
    4.8877   -1.9481   -5.1281 H   0  0  0  0  0  0  0  0  0  0  0  0
    6.2603   -2.0726   -3.9662 H   0  0  0  0  0  0  0  0  0  0  0  0
    3.2862    2.5692   -1.4014 H   0  0  0  0  0  0  0  0  0  0  0  0
    3.4678    0.9728   -2.0545 H   0  0  0  0  0  0  0  0  0  0  0  0
    2.7666    2.5176   -3.8507 H   0  0  0  0  0  0  0  0  0  0  0  0
    4.1661    3.6056   -3.5318 H   0  0  0  0  0  0  0  0  0  0  0  0
    4.4464    1.9801   -4.2213 H   0  0  0  0  0  0  0  0  0  0  0  0
    3.6103    7.7187    2.3729 H   0  0  0  0  0  0  0  0  0  0  0  0
    1.2170    9.5084    4.8146 H   0  0  0  0  0  0  0  0  0  0  0  0
    2.8066    9.0388    4.1226 H   0  0  0  0  0  0  0  0  0  0  0  0
    0.3703    7.1637    4.5230 H   0  0  0  0  0  0  0  0  0  0  0  0
    2.0011    6.6596    3.9271 H   0  0  0  0  0  0  0  0  0  0  0  0
    1.8081    7.2625    5.6161 H   0  0  0  0  0  0  0  0  0  0  0  0
   -0.4661   10.0828    0.1544 H   0  0  0  0  0  0  0  0  0  0  0  0
  1  2  2  3
  2  3  1  0
  3  4  2  0
  3  5  1  0
  5  6  2  0
  6  7  1  0
  6  8  1  0
  8  9  1  0
  8 10  2  0
 10 11  1  0
 10 12  1  0
 12 13  1  0
 12 14  2  0
 14 15  1  0
 15 16  2  3
 16 17  1  0
 17 18  3  0
 16 19  1  0
 19 20  3  0
  1 21  1  0
 21 22  2  0
 22 23  1  0
 23 24  1  0
 24 25  2  0
 25 26  1  0
 26 27  2  0
 27 28  1  0
 27 29  1  0
 29 30  2  0
 23 31  1  0
 31 32  2  0
 32 33  1  0
 33 34  2  0
 34 35  1  0
 34 36  1  0
 36 37  2  0
 22 38  1  0
 38 39  1  0
 39 40  1  0
 40 41  2  0
 41 42  1  0
 42 43  1  0
 43 44  2  0
 44 45  1  0
 45 46  2  0
 46 47  1  0
 46 48  1  0
 48 49  2  0
 42 50  1  0
 50 51  2  0
 51 52  1  0
 52 53  2  0
 53 54  1  0
 53 55  1  0
 55 56  2  0
 41 57  1  0
 57 58  1  0
 40 59  1  0
 59 60  2  0
 60 61  1  0
 61 62  2  0
 62 63  1  0
 63 64  2  0
 64 65  1  0
 65 66  1  0
 66 67  1  0
 65 68  2  0
 60 69  1  0
 69 70  1  0
 70 71  1  0
 71 72  1  0
 72 73  1  0
 73 74  1  0
 74 75  2  0
 75 76  1  0
 76 77  1  0
 74 78  1  0
 78 79  1  0
 79 80  1  0
 80 81  1  0
 81 82  1  0
 82 83  1  0
 83 84  2  0
 84 85  1  0
 85 86  2  0
 86 87  1  0
 87 88  1  0
 88 89  1  0
 87 90  2  0
 82 91  2  0
 91 92  1  0
 92 93  1  0
 93 94  1  0
 94 95  1  0
 95 96  1  0
 96 97  1  0
 97 98  1  0
 98 99  1  0
 99100  1  0
100101  1  0
 98102  1  0
102103  1  0
 95104  1  0
104105  1  0
 91106  1  0
106107  2  0
107108  1  0
108109  1  0
109110  1  0
110111  1  0
108112  2  0
112113  1  0
112114  1  0
114115  2  3
115116  1  0
116117  2  0
116118  1  0
118119  2  0
119120  1  0
119121  1  0
121122  1  0
121123  2  0
123124  1  0
123125  1  0
125126  1  0
125127  2  0
127128  1  0
128129  2  3
129130  1  0
130131  3  0
129132  1  0
132133  3  0
 15  2  1  0
 58 21  1  0
101 59  1  0
113106  1  0
128115  1  0
 14  5  1  0
 30 24  1  0
 37 31  1  0
 57 38  2  0
 68 61  1  0
100 69  2  0
127118  1  0
 49 43  1  0
 56 50  1  0
 99 71  2  0
 97 72  2  0
 77 73  2  0
 96 78  2  0
 94 79  2  0
 93 81  2  0
 90 83  1  0
  1134  1  0
 25135  1  0
 26136  1  0
 28137  1  0
 28138  1  0
 28139  1  0
 29140  1  0
 30141  1  0
 32142  1  0
 33143  1  0
 35144  1  0
 35145  1  0
 35146  1  0
 36147  1  0
 37148  1  0
 44149  1  0
 45150  1  0
 47151  1  0
 47152  1  0
 47153  1  0
 48154  1  0
 49155  1  0
 51156  1  0
 52157  1  0
 54158  1  0
 54159  1  0
 54160  1  0
 55161  1  0
 56162  1  0
 62163  1  0
 63164  1  0
 64165  1  0
 66166  1  0
 66167  1  0
 67168  1  0
 67169  1  0
 67170  1  0
 68171  1  0
 84172  1  0
 85173  1  0
 86174  1  0
 88175  1  0
 88176  1  0
 89177  1  0
 89178  1  0
 89179  1  0
 90180  1  0
102181  1  0
102182  1  0
103183  1  0
103184  1  0
103185  1  0
104186  1  0
104187  1  0
105188  1  0
105189  1  0
105190  1  0
107191  1  0
110192  1  0
110193  1  0
111194  1  0
111195  1  0
111196  1  0
114197  1  0
M  END

