
     RDKit          3D

288315  0  0  0  0  0  0  0  0999 V2000
    7.1577    4.7621   -6.4259 C   0  0  0  0  0  0  0  0  0  0  0  0
    7.8073    3.8306   -5.6988 C   0  0  0  0  0  0  0  0  0  0  0  0
    7.2968    3.1713   -4.4868 C   0  0  0  0  0  0  0  0  0  0  0  0
    6.1492    3.3067   -3.9861 O   0  0  0  0  0  0  0  0  0  0  0  0
    8.3680    2.3773   -3.9075 C   0  0  0  0  0  0  0  0  0  0  0  0
    8.3735    1.6523   -2.7133 C   0  0  0  0  0  0  0  0  0  0  0  0
    6.8906    1.4152   -1.7907 Cl  0  0  0  0  0  0  0  0  0  0  0  0
    9.5959    1.1089   -2.2678 C   0  0  0  0  0  0  0  0  0  0  0  0
    9.6422    0.1409   -0.7912 Cl  0  0  0  0  0  0  0  0  0  0  0  0
   10.7935    1.3969   -2.9688 C   0  0  0  0  0  0  0  0  0  0  0  0
   12.3422    0.8233   -2.3367 Cl  0  0  0  0  0  0  0  0  0  0  0  0
   10.7606    2.1632   -4.1560 C   0  0  0  0  0  0  0  0  0  0  0  0
   12.2594    2.8387   -4.7884 Cl  0  0  0  0  0  0  0  0  0  0  0  0
    9.5092    2.5355   -4.6790 C   0  0  0  0  0  0  0  0  0  0  0  0
    9.1774    3.2862   -5.9233 C   0  0  0  0  0  0  0  0  0  0  0  0
    9.7479    3.0662   -7.1358 C   0  0  0  0  0  0  0  0  0  0  0  0
    9.2826    3.6971   -8.3451 C   0  0  0  0  0  0  0  0  0  0  0  0
    8.9154    4.2076   -9.3202 N   0  0  0  0  0  0  0  0  0  0  0  0
   10.7621    2.0633   -7.3267 C   0  0  0  0  0  0  0  0  0  0  0  0
   11.5722    1.2561   -7.4872 N   0  0  0  0  0  0  0  0  0  0  0  0
    5.7618    5.1306   -6.1679 C   0  0  0  0  0  0  0  0  0  0  0  0
    4.6496    4.6334   -6.8582 C   0  0  0  0  0  0  0  0  0  0  0  0
    4.6958    3.6656   -7.9233 N   0  0  0  0  0  0  0  0  0  0  0  0
    5.3900    2.4171   -7.7267 C   0  0  0  0  0  0  0  0  0  0  0  0
    6.2541    1.9232   -8.7137 C   0  0  0  0  0  0  0  0  0  0  0  0
    6.9949    0.7581   -8.4834 C   0  0  0  0  0  0  0  0  0  0  0  0
    6.9017    0.0946   -7.2541 C   0  0  0  0  0  0  0  0  0  0  0  0
    7.7192   -1.1352   -6.9915 C   0  0  0  0  0  0  0  0  0  0  0  0
    5.9881    0.5506   -6.2867 C   0  0  0  0  0  0  0  0  0  0  0  0
    5.2387    1.7050   -6.5228 C   0  0  0  0  0  0  0  0  0  0  0  0
    3.8936    3.8773   -9.1010 C   0  0  0  0  0  0  0  0  0  0  0  0
    3.0980    2.8403   -9.6203 C   0  0  0  0  0  0  0  0  0  0  0  0
    2.2328    3.0850  -10.6905 C   0  0  0  0  0  0  0  0  0  0  0  0
    2.1482    4.3691  -11.2518 C   0  0  0  0  0  0  0  0  0  0  0  0
    1.2205    4.6315  -12.4038 C   0  0  0  0  0  0  0  0  0  0  0  0
    2.9673    5.3950  -10.7597 C   0  0  0  0  0  0  0  0  0  0  0  0
    3.8273    5.1524   -9.6868 C   0  0  0  0  0  0  0  0  0  0  0  0
    3.4680    5.0843   -6.2863 C   0  0  0  0  0  0  0  0  0  0  0  0
    1.8662    4.6645   -6.4806 S   0  0  0  0  0  0  0  0  0  0  0  0
    1.3104    5.5380   -5.1211 C   0  0  0  0  0  0  0  0  0  0  0  0
    2.4209    6.1644   -4.5131 C   0  0  0  0  0  0  0  0  0  0  0  0
    2.3848    6.9145   -3.2844 N   0  0  0  0  0  0  0  0  0  0  0  0
    3.2745    6.5173   -2.2185 C   0  0  0  0  0  0  0  0  0  0  0  0
    4.1042    7.4569   -1.5861 C   0  0  0  0  0  0  0  0  0  0  0  0
    5.0565    7.0465   -0.6480 C   0  0  0  0  0  0  0  0  0  0  0  0
    5.2000    5.6855   -0.3366 C   0  0  0  0  0  0  0  0  0  0  0  0
    6.2474    5.2235    0.6338 C   0  0  0  0  0  0  0  0  0  0  0  0
    4.3604    4.7456   -0.9505 C   0  0  0  0  0  0  0  0  0  0  0  0
    3.4056    5.1571   -1.8842 C   0  0  0  0  0  0  0  0  0  0  0  0
    1.6618    8.1675   -3.2299 C   0  0  0  0  0  0  0  0  0  0  0  0
    1.1485    8.6416   -2.0081 C   0  0  0  0  0  0  0  0  0  0  0  0
    0.4550    9.8532   -1.9516 C   0  0  0  0  0  0  0  0  0  0  0  0
    0.2540   10.6108   -3.1152 C   0  0  0  0  0  0  0  0  0  0  0  0
   -0.4537   11.9302   -3.0378 C   0  0  0  0  0  0  0  0  0  0  0  0
    0.7685   10.1466   -4.3347 C   0  0  0  0  0  0  0  0  0  0  0  0
    1.4624    8.9333   -4.3920 C   0  0  0  0  0  0  0  0  0  0  0  0
    3.6061    5.8775   -5.1940 C   0  0  0  0  0  0  0  0  0  0  0  0
    5.2379    6.1197   -4.8779 S   0  0  0  0  0  0  0  0  0  0  0  0
   -0.0545    5.3563   -4.5876 C   0  0  0  0  0  0  0  0  0  0  0  0
   -0.6343    5.8181   -3.0501 S   0  0  0  0  0  0  0  0  0  0  0  0
   -2.0606    4.9410   -3.1898 C   0  0  0  0  0  0  0  0  0  0  0  0
   -2.9593    4.3251   -2.2567 C   0  0  0  0  0  0  0  0  0  0  0  0
   -3.4776    3.1703   -2.7888 C   0  0  0  0  0  0  0  0  0  0  0  0
   -2.8932    2.9286   -4.2016 C   0  0  0  0  0  0  0  0  0  0  0  0
   -2.0477    4.1929   -4.3249 C   0  0  0  0  0  0  0  0  0  0  0  0
   -0.9661    4.4627   -5.1576 C   0  0  0  0  0  0  0  0  0  0  0  0
   -4.0006    2.9605   -5.2749 C   0  0  0  0  0  0  0  0  0  0  0  0
   -4.7803    4.1266   -5.4327 C   0  0  0  0  0  0  0  0  0  0  0  0
   -5.8100    4.1889   -6.3773 C   0  0  0  0  0  0  0  0  0  0  0  0
   -6.0764    3.0899   -7.2040 C   0  0  0  0  0  0  0  0  0  0  0  0
   -7.2205    3.1284   -8.1817 C   0  0  0  0  0  0  0  0  0  0  0  0
   -8.4899    2.5621   -7.5493 C   0  0  0  0  0  0  0  0  0  0  0  0
   -5.3321    1.9165   -7.0460 C   0  0  0  0  0  0  0  0  0  0  0  0
   -4.3104    1.8489   -6.0973 C   0  0  0  0  0  0  0  0  0  0  0  0
   -1.8981    1.7391   -4.2532 C   0  0  0  0  0  0  0  0  0  0  0  0
   -1.3354    1.1896   -3.0745 C   0  0  0  0  0  0  0  0  0  0  0  0
   -0.3169    0.2341   -3.1335 C   0  0  0  0  0  0  0  0  0  0  0  0
    0.1929   -0.1785   -4.3688 C   0  0  0  0  0  0  0  0  0  0  0  0
    1.3586   -1.1312   -4.4362 C   0  0  0  0  0  0  0  0  0  0  0  0
    2.6806   -0.3752   -4.3201 C   0  0  0  0  0  0  0  0  0  0  0  0
   -0.3134    0.3872   -5.5433 C   0  0  0  0  0  0  0  0  0  0  0  0
   -1.3399    1.3321   -5.4857 C   0  0  0  0  0  0  0  0  0  0  0  0
   -4.1027    2.3596   -1.7993 C   0  0  0  0  0  0  0  0  0  0  0  0
   -4.6603    1.0656   -1.9387 C   0  0  0  0  0  0  0  0  0  0  0  0
   -4.9602    0.4737   -3.2989 C   0  0  0  0  0  0  0  0  0  0  0  0
   -5.9097   -0.7265   -3.3212 C   0  0  0  0  0  0  0  0  0  0  0  0
   -4.9381    0.3431   -0.7601 C   0  0  0  0  0  0  0  0  0  0  0  0
   -4.8040    0.9263    0.5125 C   0  0  0  0  0  0  0  0  0  0  0  0
   -5.0343    0.1886    1.6768 C   0  0  0  0  0  0  0  0  0  0  0  0
   -5.2879   -1.4833    1.7408 S   0  0  0  0  0  0  0  0  0  0  0  0
   -5.4205   -1.4815    3.3950 C   0  0  0  0  0  0  0  0  0  0  0  0
   -5.2863   -2.5324    4.3507 C   0  0  0  0  0  0  0  0  0  0  0  0
   -4.9550   -1.9297    5.5346 C   0  0  0  0  0  0  0  0  0  0  0  0
   -5.2165   -0.4159    5.4857 C   0  0  0  0  0  0  0  0  0  0  0  0
   -4.1238    0.3427    6.2548 C   0  0  0  0  0  0  0  0  0  0  0  0
   -4.4255    1.0976    7.4105 C   0  0  0  0  0  0  0  0  0  0  0  0
   -3.4138    1.6384    8.2038 C   0  0  0  0  0  0  0  0  0  0  0  0
   -2.0696    1.4498    7.8643 C   0  0  0  0  0  0  0  0  0  0  0  0
   -0.9871    1.9978    8.7574 C   0  0  0  0  0  0  0  0  0  0  0  0
   -0.8487    3.5102    8.5940 C   0  0  0  0  0  0  0  0  0  0  0  0
   -1.7509    0.7462    6.6932 C   0  0  0  0  0  0  0  0  0  0  0  0
   -2.7671    0.2046    5.8905 C   0  0  0  0  0  0  0  0  0  0  0  0
   -6.6456   -0.2196    6.0290 C   0  0  0  0  0  0  0  0  0  0  0  0
   -7.6446    0.4509    5.2876 C   0  0  0  0  0  0  0  0  0  0  0  0
   -8.9877    0.3564    5.6609 C   0  0  0  0  0  0  0  0  0  0  0  0
   -9.3569   -0.3596    6.8061 C   0  0  0  0  0  0  0  0  0  0  0  0
  -10.8088   -0.6186    7.1077 C   0  0  0  0  0  0  0  0  0  0  0  0
  -11.2101   -2.0222    6.6528 C   0  0  0  0  0  0  0  0  0  0  0  0
   -8.3589   -0.9179    7.6190 C   0  0  0  0  0  0  0  0  0  0  0  0
   -7.0178   -0.8403    7.2400 C   0  0  0  0  0  0  0  0  0  0  0  0
   -5.1977   -0.2499    3.9563 C   0  0  0  0  0  0  0  0  0  0  0  0
   -4.9917    0.7577    2.9672 C   0  0  0  0  0  0  0  0  0  0  0  0
   -4.7450    2.1522    3.0861 C   0  0  0  0  0  0  0  0  0  0  0  0
   -4.8325    2.9202    4.3844 C   0  0  0  0  0  0  0  0  0  0  0  0
   -3.4495    3.3993    4.8396 C   0  0  0  0  0  0  0  0  0  0  0  0
   -4.4107    2.8799    1.9172 C   0  0  0  0  0  0  0  0  0  0  0  0
   -4.4195    2.2747    0.6424 C   0  0  0  0  0  0  0  0  0  0  0  0
   -4.0154    2.9546   -0.5206 C   0  0  0  0  0  0  0  0  0  0  0  0
   -3.1683    4.4237   -0.5971 S   0  0  0  0  0  0  0  0  0  0  0  0
   -3.9995   -2.6492    6.2792 C   0  0  0  0  0  0  0  0  0  0  0  0
   -3.5561   -3.8105    5.6257 C   0  0  0  0  0  0  0  0  0  0  0  0
   -4.3697   -3.9077    4.1511 S   0  0  0  0  0  0  0  0  0  0  0  0
   -2.1732   -4.3028    5.7371 C   0  0  0  0  0  0  0  0  0  0  0  0
   -1.6847   -5.5535    5.3012 C   0  0  0  0  0  0  0  0  0  0  0  0
   -2.4873   -6.7125    5.0091 N   0  0  0  0  0  0  0  0  0  0  0  0
   -3.1813   -6.8087    3.7452 C   0  0  0  0  0  0  0  0  0  0  0  0
   -2.6163   -6.2730    2.5704 C   0  0  0  0  0  0  0  0  0  0  0  0
   -3.3206   -6.3089    1.3669 C   0  0  0  0  0  0  0  0  0  0  0  0
   -4.6050   -6.8708    1.3147 C   0  0  0  0  0  0  0  0  0  0  0  0
   -5.3553   -6.9171    0.0161 C   0  0  0  0  0  0  0  0  0  0  0  0
   -5.1538   -7.4437    2.4703 C   0  0  0  0  0  0  0  0  0  0  0  0
   -4.4520   -7.4053    3.6770 C   0  0  0  0  0  0  0  0  0  0  0  0
   -2.3462   -7.8664    5.8706 C   0  0  0  0  0  0  0  0  0  0  0  0
   -2.1653   -7.7017    7.2528 C   0  0  0  0  0  0  0  0  0  0  0  0
   -1.9309   -8.8053    8.0805 C   0  0  0  0  0  0  0  0  0  0  0  0
   -1.8605  -10.0977    7.5361 C   0  0  0  0  0  0  0  0  0  0  0  0
   -1.5831  -11.2799    8.4133 C   0  0  0  0  0  0  0  0  0  0  0  0
   -2.0630  -10.2711    6.1583 C   0  0  0  0  0  0  0  0  0  0  0  0
   -2.3055   -9.1695    5.3342 C   0  0  0  0  0  0  0  0  0  0  0  0
   -0.3080   -5.5118    5.0754 C   0  0  0  0  0  0  0  0  0  0  0  0
    0.7466   -6.5345    4.2689 S   0  0  0  0  0  0  0  0  0  0  0  0
    1.9824   -5.3605    4.1666 C   0  0  0  0  0  0  0  0  0  0  0  0
    1.5587   -4.1671    4.7683 C   0  0  0  0  0  0  0  0  0  0  0  0
    2.2806   -2.9254    4.7421 N   0  0  0  0  0  0  0  0  0  0  0  0
    3.2754   -2.6418    5.7484 C   0  0  0  0  0  0  0  0  0  0  0  0
    4.2762   -1.6814    5.5047 C   0  0  0  0  0  0  0  0  0  0  0  0
    5.2445   -1.4019    6.4724 C   0  0  0  0  0  0  0  0  0  0  0  0
    5.2263   -2.0686    7.7068 C   0  0  0  0  0  0  0  0  0  0  0  0
    6.2872   -1.8040    8.7342 C   0  0  0  0  0  0  0  0  0  0  0  0
    4.2456   -3.0397    7.9505 C   0  0  0  0  0  0  0  0  0  0  0  0
    3.2793   -3.3243    6.9829 C   0  0  0  0  0  0  0  0  0  0  0  0
    1.8107   -1.8836    3.8706 C   0  0  0  0  0  0  0  0  0  0  0  0
    1.1535   -0.7626    4.4005 C   0  0  0  0  0  0  0  0  0  0  0  0
    0.6453    0.2238    3.5482 C   0  0  0  0  0  0  0  0  0  0  0  0
    0.8122    0.1110    2.1590 C   0  0  0  0  0  0  0  0  0  0  0  0
    0.2263    1.1517    1.2435 C   0  0  0  0  0  0  0  0  0  0  0  0
    1.4808   -1.0060    1.6301 C   0  0  0  0  0  0  0  0  0  0  0  0
    1.9845   -1.9890    2.4863 C   0  0  0  0  0  0  0  0  0  0  0  0
    0.2688   -4.2995    5.2703 C   0  0  0  0  0  0  0  0  0  0  0  0
   -0.8758   -3.2000    5.7935 S   0  0  0  0  0  0  0  0  0  0  0  0
    3.2060   -5.5257    3.3723 C   0  0  0  0  0  0  0  0  0  0  0  0
    3.1966   -5.5625    2.0259 C   0  0  0  0  0  0  0  0  0  0  0  0
    2.0081   -5.4049    1.1739 C   0  0  0  0  0  0  0  0  0  0  0  0
    0.8794   -4.9947    1.5444 O   0  0  0  0  0  0  0  0  0  0  0  0
    2.3503   -5.7698   -0.1873 C   0  0  0  0  0  0  0  0  0  0  0  0
    3.6924   -6.1151   -0.2360 C   0  0  0  0  0  0  0  0  0  0  0  0
    4.2283   -6.6361   -1.4258 C   0  0  0  0  0  0  0  0  0  0  0  0
    3.4159   -6.7224   -2.5642 C   0  0  0  0  0  0  0  0  0  0  0  0
    2.0729   -6.3060   -2.5248 C   0  0  0  0  0  0  0  0  0  0  0  0
    1.0425   -6.4184   -4.1290 Br  0  0  0  0  0  0  0  0  0  0  0  0
    1.5189   -5.8295   -1.3220 C   0  0  0  0  0  0  0  0  0  0  0  0
   -0.1685   -5.3287   -1.2478 Cl  0  0  0  0  0  0  0  0  0  0  0  0
    4.3259   -5.9044    1.1034 C   0  0  0  0  0  0  0  0  0  0  0  0
    5.6603   -5.8366    1.3694 C   0  0  0  0  0  0  0  0  0  0  0  0
    6.1840   -5.3984    2.6374 C   0  0  0  0  0  0  0  0  0  0  0  0
    6.6178   -5.0481    3.6540 N   0  0  0  0  0  0  0  0  0  0  0  0
    6.6659   -6.0690    0.3666 C   0  0  0  0  0  0  0  0  0  0  0  0
    7.4935   -6.2526   -0.4229 N   0  0  0  0  0  0  0  0  0  0  0  0
    7.6443    5.2751   -7.2334 H   0  0  0  0  0  0  0  0  0  0  0  0
    6.3658    2.4476   -9.6509 H   0  0  0  0  0  0  0  0  0  0  0  0
    7.6614    0.3916   -9.2552 H   0  0  0  0  0  0  0  0  0  0  0  0
    8.6764   -1.0915   -7.5512 H   0  0  0  0  0  0  0  0  0  0  0  0
    7.1498   -2.0347   -7.3081 H   0  0  0  0  0  0  0  0  0  0  0  0
    7.9624   -1.2215   -5.9092 H   0  0  0  0  0  0  0  0  0  0  0  0
    5.8766    0.0279   -5.3437 H   0  0  0  0  0  0  0  0  0  0  0  0
    4.5478    2.0536   -5.7677 H   0  0  0  0  0  0  0  0  0  0  0  0
    3.1170    1.8548   -9.1763 H   0  0  0  0  0  0  0  0  0  0  0  0
    1.6116    2.2806  -11.0702 H   0  0  0  0  0  0  0  0  0  0  0  0
    0.2893    4.0348  -12.2975 H   0  0  0  0  0  0  0  0  0  0  0  0
    1.7264    4.3563  -13.3527 H   0  0  0  0  0  0  0  0  0  0  0  0
    0.9345    5.7078  -12.4463 H   0  0  0  0  0  0  0  0  0  0  0  0
    2.9314    6.3864  -11.1960 H   0  0  0  0  0  0  0  0  0  0  0  0
    4.4375    5.9558   -9.3014 H   0  0  0  0  0  0  0  0  0  0  0  0
    4.0463    8.5072   -1.8463 H   0  0  0  0  0  0  0  0  0  0  0  0
    5.6987    7.7862   -0.1829 H   0  0  0  0  0  0  0  0  0  0  0  0
    6.8866    6.0649    0.9732 H   0  0  0  0  0  0  0  0  0  0  0  0
    6.8980    4.4656    0.1474 H   0  0  0  0  0  0  0  0  0  0  0  0
    5.7582    4.7682    1.5204 H   0  0  0  0  0  0  0  0  0  0  0  0
    4.4552    3.6890   -0.7160 H   0  0  0  0  0  0  0  0  0  0  0  0
    2.7865    4.4147   -2.3695 H   0  0  0  0  0  0  0  0  0  0  0  0
    1.2755    8.0687   -1.1010 H   0  0  0  0  0  0  0  0  0  0  0  0
    0.0759   10.2056   -1.0003 H   0  0  0  0  0  0  0  0  0  0  0  0
   -0.7561   12.2869   -4.0458 H   0  0  0  0  0  0  0  0  0  0  0  0
   -1.3678   11.8348   -2.4156 H   0  0  0  0  0  0  0  0  0  0  0  0
    0.2195   12.6842   -2.5794 H   0  0  0  0  0  0  0  0  0  0  0  0
    0.6391   10.7265   -5.2447 H   0  0  0  0  0  0  0  0  0  0  0  0
    1.8576    8.6068   -5.3459 H   0  0  0  0  0  0  0  0  0  0  0  0
   -0.7739    3.9134   -6.0652 H   0  0  0  0  0  0  0  0  0  0  0  0
   -4.6089    4.9935   -4.8056 H   0  0  0  0  0  0  0  0  0  0  0  0
   -6.3966    5.0944   -6.4660 H   0  0  0  0  0  0  0  0  0  0  0  0
   -6.9662    2.5342   -9.0862 H   0  0  0  0  0  0  0  0  0  0  0  0
   -7.4091    4.1714   -8.5137 H   0  0  0  0  0  0  0  0  0  0  0  0
   -8.7756    3.1734   -6.6655 H   0  0  0  0  0  0  0  0  0  0  0  0
   -8.3213    1.5106   -7.2327 H   0  0  0  0  0  0  0  0  0  0  0  0
   -9.3167    2.5866   -8.2891 H   0  0  0  0  0  0  0  0  0  0  0  0
   -5.5519    1.0422   -7.6449 H   0  0  0  0  0  0  0  0  0  0  0  0
   -3.8075    0.9038   -5.9857 H   0  0  0  0  0  0  0  0  0  0  0  0
   -1.6292    1.5241   -2.0946 H   0  0  0  0  0  0  0  0  0  0  0  0
    0.1007   -0.1534   -2.2118 H   0  0  0  0  0  0  0  0  0  0  0  0
    1.2927   -1.8823   -3.6189 H   0  0  0  0  0  0  0  0  0  0  0  0
    1.3396   -1.6905   -5.3979 H   0  0  0  0  0  0  0  0  0  0  0  0
    2.8134    0.0142   -3.2903 H   0  0  0  0  0  0  0  0  0  0  0  0
    2.7063    0.4804   -5.0244 H   0  0  0  0  0  0  0  0  0  0  0  0
    3.5290   -1.0488   -4.5560 H   0  0  0  0  0  0  0  0  0  0  0  0
    0.1042    0.1153   -6.5081 H   0  0  0  0  0  0  0  0  0  0  0  0
   -1.6546    1.7863   -6.4131 H   0  0  0  0  0  0  0  0  0  0  0  0
   -5.4669    1.2637   -3.8841 H   0  0  0  0  0  0  0  0  0  0  0  0
   -4.0116    0.1680   -3.7816 H   0  0  0  0  0  0  0  0  0  0  0  0
   -6.1572   -0.9812   -4.3745 H   0  0  0  0  0  0  0  0  0  0  0  0
   -5.4237   -1.6187   -2.8629 H   0  0  0  0  0  0  0  0  0  0  0  0
   -6.8564   -0.4862   -2.7848 H   0  0  0  0  0  0  0  0  0  0  0  0
   -5.2824   -0.6745   -0.8265 H   0  0  0  0  0  0  0  0  0  0  0  0
   -5.4434    1.2665    7.7287 H   0  0  0  0  0  0  0  0  0  0  0  0
   -3.6849    2.1958    9.0938 H   0  0  0  0  0  0  0  0  0  0  0  0
   -1.2257    1.7657    9.8153 H   0  0  0  0  0  0  0  0  0  0  0  0
   -0.0071    1.5214    8.5316 H   0  0  0  0  0  0  0  0  0  0  0  0
   -1.8247    4.0141    8.7706 H   0  0  0  0  0  0  0  0  0  0  0  0
   -0.1115    3.8991    9.3289 H   0  0  0  0  0  0  0  0  0  0  0  0
   -0.4903    3.7536    7.5705 H   0  0  0  0  0  0  0  0  0  0  0  0
   -0.7166    0.6111    6.4111 H   0  0  0  0  0  0  0  0  0  0  0  0
   -2.4896   -0.3663    5.0129 H   0  0  0  0  0  0  0  0  0  0  0  0
   -7.4053    0.9752    4.3745 H   0  0  0  0  0  0  0  0  0  0  0  0
   -9.7401    0.8090    5.0254 H   0  0  0  0  0  0  0  0  0  0  0  0
  -10.9884   -0.5178    8.2002 H   0  0  0  0  0  0  0  0  0  0  0  0
  -11.4523    0.1238    6.5840 H   0  0  0  0  0  0  0  0  0  0  0  0
  -11.0977   -2.1236    5.5499 H   0  0  0  0  0  0  0  0  0  0  0  0
  -12.2679   -2.2101    6.9171 H   0  0  0  0  0  0  0  0  0  0  0  0
  -10.5778   -2.7910    7.1508 H   0  0  0  0  0  0  0  0  0  0  0  0
   -8.6264   -1.4754    8.5069 H   0  0  0  0  0  0  0  0  0  0  0  0
   -6.2727   -1.3233    7.8631 H   0  0  0  0  0  0  0  0  0  0  0  0
   -5.4798    3.8134    4.2398 H   0  0  0  0  0  0  0  0  0  0  0  0
   -5.3303    2.3300    5.1700 H   0  0  0  0  0  0  0  0  0  0  0  0
   -3.1547    4.3104    4.2745 H   0  0  0  0  0  0  0  0  0  0  0  0
   -2.6859    2.6119    4.6612 H   0  0  0  0  0  0  0  0  0  0  0  0
   -3.4699    3.6487    5.9217 H   0  0  0  0  0  0  0  0  0  0  0  0
   -4.1661    3.9321    2.0037 H   0  0  0  0  0  0  0  0  0  0  0  0
   -3.4807   -2.2310    7.1326 H   0  0  0  0  0  0  0  0  0  0  0  0
   -1.6378   -5.8143    2.5839 H   0  0  0  0  0  0  0  0  0  0  0  0
   -2.8676   -5.8864    0.4734 H   0  0  0  0  0  0  0  0  0  0  0  0
   -6.4452   -6.7847    0.1993 H   0  0  0  0  0  0  0  0  0  0  0  0
   -5.0217   -6.1061   -0.6659 H   0  0  0  0  0  0  0  0  0  0  0  0
   -5.1832   -7.8979   -0.4776 H   0  0  0  0  0  0  0  0  0  0  0  0
   -6.1346   -7.9035    2.4379 H   0  0  0  0  0  0  0  0  0  0  0  0
   -4.9059   -7.8237    4.5658 H   0  0  0  0  0  0  0  0  0  0  0  0
   -2.1952   -6.7144    7.6917 H   0  0  0  0  0  0  0  0  0  0  0  0
   -1.8014   -8.6498    9.1491 H   0  0  0  0  0  0  0  0  0  0  0  0
   -2.5379  -11.7539    8.7141 H   0  0  0  0  0  0  0  0  0  0  0  0
   -0.9655  -12.0249    7.8717 H   0  0  0  0  0  0  0  0  0  0  0  0
   -1.0251  -10.9768    9.3244 H   0  0  0  0  0  0  0  0  0  0  0  0
   -2.0309  -11.2636    5.7252 H   0  0  0  0  0  0  0  0  0  0  0  0
   -2.4223   -9.3344    4.2722 H   0  0  0  0  0  0  0  0  0  0  0  0
    4.3092   -1.1423    4.5651 H   0  0  0  0  0  0  0  0  0  0  0  0
    6.0073   -0.6579    6.2644 H   0  0  0  0  0  0  0  0  0  0  0  0
    6.7650   -0.8162    8.5650 H   0  0  0  0  0  0  0  0  0  0  0  0
    5.8444   -1.8047    9.7509 H   0  0  0  0  0  0  0  0  0  0  0  0
    7.0636   -2.5949    8.6740 H   0  0  0  0  0  0  0  0  0  0  0  0
    4.2306   -3.5764    8.8889 H   0  0  0  0  0  0  0  0  0  0  0  0
    2.5206   -4.0612    7.2097 H   0  0  0  0  0  0  0  0  0  0  0  0
    1.0263   -0.6683    5.4693 H   0  0  0  0  0  0  0  0  0  0  0  0
    0.1221    1.0756    3.9690 H   0  0  0  0  0  0  0  0  0  0  0  0
    0.4389    2.1691    1.6413 H   0  0  0  0  0  0  0  0  0  0  0  0
   -0.8755    1.0133    1.1746 H   0  0  0  0  0  0  0  0  0  0  0  0
    0.6640    1.0873    0.2239 H   0  0  0  0  0  0  0  0  0  0  0  0
    1.6177   -1.1108    0.5622 H   0  0  0  0  0  0  0  0  0  0  0  0
    2.5330   -2.8198    2.0750 H   0  0  0  0  0  0  0  0  0  0  0  0
    4.1020   -5.7182    3.9307 H   0  0  0  0  0  0  0  0  0  0  0  0
    5.2391   -7.0017   -1.4952 H   0  0  0  0  0  0  0  0  0  0  0  0
    3.8371   -7.1161   -3.4808 H   0  0  0  0  0  0  0  0  0  0  0  0
  1  2  2  3
  2  3  1  0
  3  4  2  0
  3  5  1  0
  5  6  2  0
  6  7  1  0
  6  8  1  0
  8  9  1  0
  8 10  2  0
 10 11  1  0
 10 12  1  0
 12 13  1  0
 12 14  2  0
 14 15  1  0
 15 16  2  3
 16 17  1  0
 17 18  3  0
 16 19  1  0
 19 20  3  0
  1 21  1  0
 21 22  2  0
 22 23  1  0
 23 24  1  0
 24 25  2  0
 25 26  1  0
 26 27  2  0
 27 28  1  0
 27 29  1  0
 29 30  2  0
 23 31  1  0
 31 32  2  0
 32 33  1  0
 33 34  2  0
 34 35  1  0
 34 36  1  0
 36 37  2  0
 22 38  1  0
 38 39  1  0
 39 40  1  0
 40 41  2  0
 41 42  1  0
 42 43  1  0
 43 44  2  0
 44 45  1  0
 45 46  2  0
 46 47  1  0
 46 48  1  0
 48 49  2  0
 42 50  1  0
 50 51  2  0
 51 52  1  0
 52 53  2  0
 53 54  1  0
 53 55  1  0
 55 56  2  0
 41 57  1  0
 57 58  1  0
 40 59  1  0
 59 60  1  0
 60 61  1  0
 61 62  1  0
 62 63  2  0
 63 64  1  0
 64 65  1  0
 65 66  1  0
 64 67  1  0
 67 68  2  0
 68 69  1  0
 69 70  2  0
 70 71  1  0
 71 72  1  0
 70 73  1  0
 73 74  2  0
 64 75  1  0
 75 76  2  0
 76 77  1  0
 77 78  2  0
 78 79  1  0
 79 80  1  0
 78 81  1  0
 81 82  2  0
 63 83  1  0
 83 84  2  0
 84 85  1  0
 85 86  1  0
 84 87  1  0
 87 88  2  0
 88 89  1  0
 89 90  1  0
 90 91  1  0
 91 92  1  0
 92 93  2  0
 93 94  1  0
 94 95  1  0
 95 96  2  0
 96 97  1  0
 97 98  2  0
 98 99  1  0
 99100  1  0
 98101  1  0
101102  2  0
 94103  1  0
103104  2  0
104105  1  0
105106  2  0
106107  1  0
107108  1  0
106109  1  0
109110  2  0
 94111  1  0
111112  1  0
112113  1  0
113114  1  0
114115  1  0
113116  2  0
116117  1  0
117118  2  0
118119  1  0
 93120  1  0
120121  2  0
121122  1  0
121123  1  0
123124  2  0
124125  1  0
125126  1  0
126127  2  0
127128  1  0
128129  2  0
129130  1  0
129131  1  0
131132  2  0
125133  1  0
133134  2  0
134135  1  0
135136  2  0
136137  1  0
136138  1  0
138139  2  0
124140  1  0
140141  1  0
141142  1  0
142143  2  0
143144  1  0
144145  1  0
145146  2  0
146147  1  0
147148  2  0
148149  1  0
148150  1  0
150151  2  0
144152  1  0
152153  2  0
153154  1  0
154155  2  0
155156  1  0
155157  1  0
157158  2  0
143159  1  0
159160  1  0
142161  1  0
161162  2  3
162163  1  0
163164  2  0
163165  1  0
165166  2  0
166167  1  0
167168  2  0
168169  1  0
169170  1  0
169171  2  0
171172  1  0
166173  1  0
173174  2  3
174175  1  0
175176  3  0
174177  1  0
177178  3  0
 15  2  1  0
 58 21  1  0
 66 59  2  0
 74 67  1  0
 82 75  1  0
118 83  1  0
160123  1  0
173162  1  0
 14  5  1  0
 30 24  1  0
 37 31  1  0
 57 38  2  0
 65 61  2  0
117 88  1  0
132126  1  0
139133  1  0
159140  2  0
171165  1  0
 49 43  1  0
 56 50  1  0
119 62  1  0
151145  1  0
158152  1  0
112 89  2  0
111 91  2  0
122 92  1  0
102 95  1  0
110103  1  0
  1179  1  0
 25180  1  0
 26181  1  0
 28182  1  0
 28183  1  0
 28184  1  0
 29185  1  0
 30186  1  0
 32187  1  0
 33188  1  0
 35189  1  0
 35190  1  0
 35191  1  0
 36192  1  0
 37193  1  0
 44194  1  0
 45195  1  0
 47196  1  0
 47197  1  0
 47198  1  0
 48199  1  0
 49200  1  0
 51201  1  0
 52202  1  0
 54203  1  0
 54204  1  0
 54205  1  0
 55206  1  0
 56207  1  0
 66208  1  0
 68209  1  0
 69210  1  0
 71211  1  0
 71212  1  0
 72213  1  0
 72214  1  0
 72215  1  0
 73216  1  0
 74217  1  0
 76218  1  0
 77219  1  0
 79220  1  0
 79221  1  0
 80222  1  0
 80223  1  0
 80224  1  0
 81225  1  0
 82226  1  0
 85227  1  0
 85228  1  0
 86229  1  0
 86230  1  0
 86231  1  0
 87232  1  0
 96233  1  0
 97234  1  0
 99235  1  0
 99236  1  0
100237  1  0
100238  1  0
100239  1  0
101240  1  0
102241  1  0
104242  1  0
105243  1  0
107244  1  0
107245  1  0
108246  1  0
108247  1  0
108248  1  0
109249  1  0
110250  1  0
114251  1  0
114252  1  0
115253  1  0
115254  1  0
115255  1  0
116256  1  0
120257  1  0
127258  1  0
128259  1  0
130260  1  0
130261  1  0
130262  1  0
131263  1  0
132264  1  0
134265  1  0
135266  1  0
137267  1  0
137268  1  0
137269  1  0
138270  1  0
139271  1  0
146272  1  0
147273  1  0
149274  1  0
149275  1  0
149276  1  0
150277  1  0
151278  1  0
153279  1  0
154280  1  0
156281  1  0
156282  1  0
156283  1  0
157284  1  0
158285  1  0
161286  1  0
167287  1  0
168288  1  0
M  END

