
     RDKit          3D

262290  0  0  0  0  0  0  0  0999 V2000
   -3.5348    9.2404    6.6560 C   0  0  0  0  0  0  0  0  0  0  0  0
   -2.9191    9.9157    5.6665 C   0  0  0  0  0  0  0  0  0  0  0  0
   -2.9040   11.3604    5.5790 C   0  0  0  0  0  0  0  0  0  0  0  0
   -3.1181   12.1518    6.5378 O   0  0  0  0  0  0  0  0  0  0  0  0
   -2.7315   11.7298    4.1820 C   0  0  0  0  0  0  0  0  0  0  0  0
   -2.8296   12.9994    3.6021 C   0  0  0  0  0  0  0  0  0  0  0  0
   -3.0125   14.4355    4.6136 Cl  0  0  0  0  0  0  0  0  0  0  0  0
   -2.7868   13.1035    2.2024 C   0  0  0  0  0  0  0  0  0  0  0  0
   -2.8543   14.6896    1.4370 Cl  0  0  0  0  0  0  0  0  0  0  0  0
   -2.7143   11.9359    1.4091 C   0  0  0  0  0  0  0  0  0  0  0  0
   -2.7288   12.0765   -0.3544 Cl  0  0  0  0  0  0  0  0  0  0  0  0
   -2.6499   10.6632    2.0109 C   0  0  0  0  0  0  0  0  0  0  0  0
   -2.8617    9.2508    0.9801 Cl  0  0  0  0  0  0  0  0  0  0  0  0
   -2.5814   10.5802    3.4185 C   0  0  0  0  0  0  0  0  0  0  0  0
   -2.4697    9.4054    4.3380 C   0  0  0  0  0  0  0  0  0  0  0  0
   -1.5879    8.3828    4.2054 C   0  0  0  0  0  0  0  0  0  0  0  0
   -1.0073    7.7269    5.3574 C   0  0  0  0  0  0  0  0  0  0  0  0
   -0.5142    7.2038    6.2705 N   0  0  0  0  0  0  0  0  0  0  0  0
   -0.9820    7.9940    2.9638 C   0  0  0  0  0  0  0  0  0  0  0  0
   -0.4945    7.6303    1.9705 N   0  0  0  0  0  0  0  0  0  0  0  0
   -4.0154    7.8612    6.4933 C   0  0  0  0  0  0  0  0  0  0  0  0
   -4.9016    7.4005    5.4976 C   0  0  0  0  0  0  0  0  0  0  0  0
   -5.7019    8.2524    4.6383 N   0  0  0  0  0  0  0  0  0  0  0  0
   -6.2237    9.5012    5.1369 C   0  0  0  0  0  0  0  0  0  0  0  0
   -6.8327    9.5681    6.4025 C   0  0  0  0  0  0  0  0  0  0  0  0
   -7.2977   10.7885    6.9005 C   0  0  0  0  0  0  0  0  0  0  0  0
   -7.1463   11.9599    6.1514 C   0  0  0  0  0  0  0  0  0  0  0  0
   -7.6443   13.2635    6.6911 C   0  0  0  0  0  0  0  0  0  0  0  0
   -6.5692   11.8932    4.8729 C   0  0  0  0  0  0  0  0  0  0  0  0
   -6.1181   10.6723    4.3684 C   0  0  0  0  0  0  0  0  0  0  0  0
   -6.0198    7.8433    3.2927 C   0  0  0  0  0  0  0  0  0  0  0  0
   -7.3444    7.8961    2.8266 C   0  0  0  0  0  0  0  0  0  0  0  0
   -7.6549    7.4598    1.5356 C   0  0  0  0  0  0  0  0  0  0  0  0
   -6.6445    6.9743    0.6894 C   0  0  0  0  0  0  0  0  0  0  0  0
   -6.9793    6.4590   -0.6806 C   0  0  0  0  0  0  0  0  0  0  0  0
   -5.3266    6.9021    1.1603 C   0  0  0  0  0  0  0  0  0  0  0  0
   -5.0145    7.3478    2.4455 C   0  0  0  0  0  0  0  0  0  0  0  0
   -4.8890    6.0035    5.4466 C   0  0  0  0  0  0  0  0  0  0  0  0
   -5.4304    4.8701    4.3474 S   0  0  0  0  0  0  0  0  0  0  0  0
   -4.5611    3.5607    5.0096 C   0  0  0  0  0  0  0  0  0  0  0  0
   -3.8446    4.0410    6.1190 C   0  0  0  0  0  0  0  0  0  0  0  0
   -2.9591    3.2512    6.9282 N   0  0  0  0  0  0  0  0  0  0  0  0
   -1.5246    3.4362    6.7981 C   0  0  0  0  0  0  0  0  0  0  0  0
   -0.6667    3.3018    7.9145 C   0  0  0  0  0  0  0  0  0  0  0  0
    0.7212    3.4275    7.7698 C   0  0  0  0  0  0  0  0  0  0  0  0
    1.2756    3.7111    6.5156 C   0  0  0  0  0  0  0  0  0  0  0  0
    2.7625    3.8468    6.3534 C   0  0  0  0  0  0  0  0  0  0  0  0
    0.4313    3.9124    5.4147 C   0  0  0  0  0  0  0  0  0  0  0  0
   -0.9556    3.7833    5.5586 C   0  0  0  0  0  0  0  0  0  0  0  0
   -3.5506    2.4449    7.9792 C   0  0  0  0  0  0  0  0  0  0  0  0
   -4.7497    2.8515    8.6033 C   0  0  0  0  0  0  0  0  0  0  0  0
   -5.3315    2.0702    9.6020 C   0  0  0  0  0  0  0  0  0  0  0  0
   -4.7196    0.8783   10.0139 C   0  0  0  0  0  0  0  0  0  0  0  0
   -5.3769    0.0265   11.0665 C   0  0  0  0  0  0  0  0  0  0  0  0
   -3.5371    0.4537    9.3901 C   0  0  0  0  0  0  0  0  0  0  0  0
   -2.9622    1.2250    8.3705 C   0  0  0  0  0  0  0  0  0  0  0  0
   -4.0728    5.3935    6.3398 C   0  0  0  0  0  0  0  0  0  0  0  0
   -3.3340    6.5364    7.3219 S   0  0  0  0  0  0  0  0  0  0  0  0
   -4.0988    2.4807    4.1284 C   0  0  0  0  0  0  0  0  0  0  0  0
   -4.4657    1.1198    4.1623 C   0  0  0  0  0  0  0  0  0  0  0  0
   -5.2971    0.4942    5.2016 C   0  0  0  0  0  0  0  0  0  0  0  0
   -4.6936   -0.4288    6.0692 C   0  0  0  0  0  0  0  0  0  0  0  0
   -5.4347   -1.0187    7.0938 C   0  0  0  0  0  0  0  0  0  0  0  0
   -6.7778   -0.6855    7.2687 C   0  0  0  0  0  0  0  0  0  0  0  0
   -7.3967    0.2130    6.4002 C   0  0  0  0  0  0  0  0  0  0  0  0
   -6.6720    0.8040    5.3535 C   0  0  0  0  0  0  0  0  0  0  0  0
   -7.4214    1.6571    4.3524 C   0  0  0  0  0  0  0  0  0  0  0  0
   -8.0870    0.7890    3.2926 C   0  0  0  0  0  0  0  0  0  0  0  0
   -3.9262    0.4332    3.0653 C   0  0  0  0  0  0  0  0  0  0  0  0
   -4.1077   -1.1462    2.4366 S   0  0  0  0  0  0  0  0  0  0  0  0
   -3.1219   -0.7599    1.1009 C   0  0  0  0  0  0  0  0  0  0  0  0
   -2.8153   -1.2599   -0.1383 C   0  0  0  0  0  0  0  0  0  0  0  0
   -3.1926   -2.4326   -0.8158 C   0  0  0  0  0  0  0  0  0  0  0  0
   -2.8490   -2.5589   -2.1988 C   0  0  0  0  0  0  0  0  0  0  0  0
   -3.2089   -3.7108   -2.8146 N   0  0  0  0  0  0  0  0  0  0  0  0
   -3.9674   -4.4717   -1.5568 S   0  0  0  0  0  0  0  0  0  0  0  0
   -3.8771   -3.4556   -0.2545 N   0  0  0  0  0  0  0  0  0  0  0  0
   -2.1166   -1.5346   -2.8180 C   0  0  0  0  0  0  0  0  0  0  0  0
   -1.3893   -1.5438   -3.9824 C   0  0  0  0  0  0  0  0  0  0  0  0
   -0.9244   -2.7802   -5.0477 S   0  0  0  0  0  0  0  0  0  0  0  0
    0.5771   -2.0347   -5.3456 C   0  0  0  0  0  0  0  0  0  0  0  0
    1.7836   -2.5714   -5.8111 C   0  0  0  0  0  0  0  0  0  0  0  0
    1.8851   -3.7169   -6.7446 C   0  0  0  0  0  0  0  0  0  0  0  0
    1.6528   -5.0640   -6.3628 C   0  0  0  0  0  0  0  0  0  0  0  0
    1.3366   -5.4688   -4.9420 C   0  0  0  0  0  0  0  0  0  0  0  0
    2.4767   -6.2698   -4.3291 C   0  0  0  0  0  0  0  0  0  0  0  0
    1.7434   -6.0711   -7.3424 C   0  0  0  0  0  0  0  0  0  0  0  0
    2.0869   -5.7611   -8.6615 C   0  0  0  0  0  0  0  0  0  0  0  0
    2.3474   -4.4399   -9.0205 C   0  0  0  0  0  0  0  0  0  0  0  0
    2.2370   -3.4248   -8.0740 C   0  0  0  0  0  0  0  0  0  0  0  0
    2.8950   -1.8448   -5.3346 C   0  0  0  0  0  0  0  0  0  0  0  0
    2.3393   -0.5444   -4.3988 S   0  0  0  0  0  0  0  0  0  0  0  0
    0.7079   -0.8866   -4.5939 C   0  0  0  0  0  0  0  0  0  0  0  0
   -0.4267   -0.5806   -3.8432 C   0  0  0  0  0  0  0  0  0  0  0  0
   -0.5579    0.1271   -2.6907 N   0  0  0  0  0  0  0  0  0  0  0  0
   -1.6615   -0.4256   -2.0973 C   0  0  0  0  0  0  0  0  0  0  0  0
   -2.1094   -0.2350   -0.7770 C   0  0  0  0  0  0  0  0  0  0  0  0
   -2.1019    0.9163   -0.0299 N   0  0  0  0  0  0  0  0  0  0  0  0
   -2.6968    0.5267    1.1227 C   0  0  0  0  0  0  0  0  0  0  0  0
   -3.1803    1.2116    2.2178 C   0  0  0  0  0  0  0  0  0  0  0  0
   -3.1721    2.7936    2.7376 S   0  0  0  0  0  0  0  0  0  0  0  0
   -2.0949    2.2913   -0.5494 C   0  0  0  0  0  0  0  0  0  0  0  0
   -1.0415    3.1688    0.1479 C   0  0  0  0  0  0  0  0  0  0  0  0
    0.5377    0.8181   -2.0055 C   0  0  0  0  0  0  0  0  0  0  0  0
    0.9075    2.1166   -2.7279 C   0  0  0  0  0  0  0  0  0  0  0  0
    4.2043   -2.4740   -5.1134 C   0  0  0  0  0  0  0  0  0  0  0  0
    4.5853   -3.0464   -3.8846 C   0  0  0  0  0  0  0  0  0  0  0  0
    4.1242   -2.5961   -2.5990 N   0  0  0  0  0  0  0  0  0  0  0  0
    4.5403   -1.2969   -2.0936 C   0  0  0  0  0  0  0  0  0  0  0  0
    3.9705   -0.7614   -0.9187 C   0  0  0  0  0  0  0  0  0  0  0  0
    4.3270    0.5192   -0.4741 C   0  0  0  0  0  0  0  0  0  0  0  0
    5.2490    1.2883   -1.1966 C   0  0  0  0  0  0  0  0  0  0  0  0
    5.6412    2.6538   -0.7259 C   0  0  0  0  0  0  0  0  0  0  0  0
    5.8570    0.7522   -2.3333 C   0  0  0  0  0  0  0  0  0  0  0  0
    5.5128   -0.5280   -2.7780 C   0  0  0  0  0  0  0  0  0  0  0  0
    3.3242   -3.4812   -1.8025 C   0  0  0  0  0  0  0  0  0  0  0  0
    1.9203   -3.4420   -1.8902 C   0  0  0  0  0  0  0  0  0  0  0  0
    1.1398   -4.3014   -1.1088 C   0  0  0  0  0  0  0  0  0  0  0  0
    1.7502   -5.1905   -0.2085 C   0  0  0  0  0  0  0  0  0  0  0  0
    0.9268   -6.1408    0.6061 C   0  0  0  0  0  0  0  0  0  0  0  0
    3.1543   -5.2142   -0.1056 C   0  0  0  0  0  0  0  0  0  0  0  0
    3.9284   -4.3394   -0.8724 C   0  0  0  0  0  0  0  0  0  0  0  0
    5.5791   -3.9947   -4.0596 C   0  0  0  0  0  0  0  0  0  0  0  0
    6.1726   -5.2604   -3.1279 S   0  0  0  0  0  0  0  0  0  0  0  0
    7.0244   -5.9904   -4.4158 C   0  0  0  0  0  0  0  0  0  0  0  0
    6.8590   -5.2036   -5.5644 C   0  0  0  0  0  0  0  0  0  0  0  0
    7.6285   -5.3718   -6.7585 N   0  0  0  0  0  0  0  0  0  0  0  0
    8.8399   -4.5939   -6.8761 C   0  0  0  0  0  0  0  0  0  0  0  0
    9.6979   -4.4354   -5.7724 C   0  0  0  0  0  0  0  0  0  0  0  0
   10.8308   -3.6201   -5.8586 C   0  0  0  0  0  0  0  0  0  0  0  0
   11.1121   -2.9351   -7.0492 C   0  0  0  0  0  0  0  0  0  0  0  0
   12.3355   -2.0732   -7.1507 C   0  0  0  0  0  0  0  0  0  0  0  0
   10.2822   -3.1111   -8.1610 C   0  0  0  0  0  0  0  0  0  0  0  0
    9.1448   -3.9248   -8.0760 C   0  0  0  0  0  0  0  0  0  0  0  0
    7.2114   -6.3155   -7.7638 C   0  0  0  0  0  0  0  0  0  0  0  0
    8.1581   -6.9632   -8.5798 C   0  0  0  0  0  0  0  0  0  0  0  0
    7.7527   -7.8546   -9.5775 C   0  0  0  0  0  0  0  0  0  0  0  0
    6.3889   -8.1243   -9.7717 C   0  0  0  0  0  0  0  0  0  0  0  0
    5.9489   -9.0006  -10.9073 C   0  0  0  0  0  0  0  0  0  0  0  0
    5.4407   -7.4929   -8.9573 C   0  0  0  0  0  0  0  0  0  0  0  0
    5.8474   -6.6043   -7.9565 C   0  0  0  0  0  0  0  0  0  0  0  0
    6.0238   -4.1278   -5.3337 C   0  0  0  0  0  0  0  0  0  0  0  0
    5.1603   -3.1244   -6.3626 S   0  0  0  0  0  0  0  0  0  0  0  0
    7.6203   -7.3370   -4.4598 C   0  0  0  0  0  0  0  0  0  0  0  0
    6.8520   -8.4358   -4.3154 C   0  0  0  0  0  0  0  0  0  0  0  0
    5.6841   -8.5131   -3.4310 C   0  0  0  0  0  0  0  0  0  0  0  0
    5.5887   -8.0146   -2.2794 O   0  0  0  0  0  0  0  0  0  0  0  0
    4.6941   -9.3739   -4.0256 C   0  0  0  0  0  0  0  0  0  0  0  0
    3.3785   -9.6052   -3.5616 C   0  0  0  0  0  0  0  0  0  0  0  0
    2.6024  -10.3552   -4.4263 C   0  0  0  0  0  0  0  0  0  0  0  0
    3.0842  -10.8481   -5.6772 C   0  0  0  0  0  0  0  0  0  0  0  0
    4.3762  -10.6381   -6.1286 C   0  0  0  0  0  0  0  0  0  0  0  0
    5.2010   -9.8933   -5.2373 C   0  0  0  0  0  0  0  0  0  0  0  0
    6.6168   -9.4390   -5.3987 C   0  0  0  0  0  0  0  0  0  0  0  0
    7.5299   -9.9290   -6.2758 C   0  0  0  0  0  0  0  0  0  0  0  0
    7.2137  -10.9594   -7.2337 C   0  0  0  0  0  0  0  0  0  0  0  0
    6.9717  -11.7853   -8.0042 N   0  0  0  0  0  0  0  0  0  0  0  0
    8.9020   -9.4984   -6.2907 C   0  0  0  0  0  0  0  0  0  0  0  0
    9.9949   -9.1314   -6.3261 N   0  0  0  0  0  0  0  0  0  0  0  0
    1.7479  -11.4644   -5.9685 C   0  0  0  0  0  0  0  0  0  0  0  0
    1.6430  -13.0137   -5.8183 C   0  0  0  0  0  0  0  0  0  0  0  0
    0.1705  -13.3292   -5.7747 C   0  0  0  0  0  0  0  0  0  0  0  0
   -0.2799  -12.8670   -4.5999 C   0  0  0  0  0  0  0  0  0  0  0  0
    0.9063  -12.2555   -3.8913 C   0  0  0  0  0  0  0  0  0  0  0  0
    1.9699  -13.2368   -4.3481 C   0  0  0  0  0  0  0  0  0  0  0  0
    1.2568  -10.9608   -4.6805 C   0  0  0  0  0  0  0  0  0  0  0  0
   -3.8348    9.7671    7.5463 H   0  0  0  0  0  0  0  0  0  0  0  0
   -6.9381    8.6722    7.0085 H   0  0  0  0  0  0  0  0  0  0  0  0
   -7.7681   10.8212    7.8774 H   0  0  0  0  0  0  0  0  0  0  0  0
   -7.4318   13.3331    7.7782 H   0  0  0  0  0  0  0  0  0  0  0  0
   -7.1428   14.1208    6.1877 H   0  0  0  0  0  0  0  0  0  0  0  0
   -8.7404   13.3385    6.5236 H   0  0  0  0  0  0  0  0  0  0  0  0
   -6.4673   12.7895    4.2718 H   0  0  0  0  0  0  0  0  0  0  0  0
   -5.6548   10.6459    3.3896 H   0  0  0  0  0  0  0  0  0  0  0  0
   -8.1359    8.2548    3.4710 H   0  0  0  0  0  0  0  0  0  0  0  0
   -8.6888    7.4851    1.1955 H   0  0  0  0  0  0  0  0  0  0  0  0
   -7.8944    6.9440   -1.0767 H   0  0  0  0  0  0  0  0  0  0  0  0
   -7.1384    5.3626   -0.6279 H   0  0  0  0  0  0  0  0  0  0  0  0
   -6.1459    6.6728   -1.3861 H   0  0  0  0  0  0  0  0  0  0  0  0
   -4.5418    6.4911    0.5334 H   0  0  0  0  0  0  0  0  0  0  0  0
   -3.9875    7.2797    2.7966 H   0  0  0  0  0  0  0  0  0  0  0  0
   -1.0689    3.1066    8.9005 H   0  0  0  0  0  0  0  0  0  0  0  0
    1.3559    3.3040    8.6370 H   0  0  0  0  0  0  0  0  0  0  0  0
    3.3046    3.3608    7.1855 H   0  0  0  0  0  0  0  0  0  0  0  0
    3.0883    3.3696    5.4051 H   0  0  0  0  0  0  0  0  0  0  0  0
    3.0288    4.9263    6.3247 H   0  0  0  0  0  0  0  0  0  0  0  0
    0.8473    4.1607    4.4451 H   0  0  0  0  0  0  0  0  0  0  0  0
   -1.5773    3.9478    4.6949 H   0  0  0  0  0  0  0  0  0  0  0  0
   -5.2333    3.7767    8.3304 H   0  0  0  0  0  0  0  0  0  0  0  0
   -6.2523    2.4018   10.0606 H   0  0  0  0  0  0  0  0  0  0  0  0
   -6.1346   -0.6334   10.5964 H   0  0  0  0  0  0  0  0  0  0  0  0
   -5.8816    0.6674   11.8252 H   0  0  0  0  0  0  0  0  0  0  0  0
   -4.6278   -0.5963   11.5926 H   0  0  0  0  0  0  0  0  0  0  0  0
   -3.0705   -0.4745    9.6745 H   0  0  0  0  0  0  0  0  0  0  0  0
   -2.0670    0.8704    7.8793 H   0  0  0  0  0  0  0  0  0  0  0  0
   -3.6461   -0.6698    5.9710 H   0  0  0  0  0  0  0  0  0  0  0  0
   -4.9619   -1.7255    7.7657 H   0  0  0  0  0  0  0  0  0  0  0  0
   -7.3477   -1.1350    8.0731 H   0  0  0  0  0  0  0  0  0  0  0  0
   -8.4445    0.4395    6.5308 H   0  0  0  0  0  0  0  0  0  0  0  0
   -8.1944    2.2608    4.8767 H   0  0  0  0  0  0  0  0  0  0  0  0
   -6.7549    2.3744    3.8369 H   0  0  0  0  0  0  0  0  0  0  0  0
   -8.7801    0.0598    3.7658 H   0  0  0  0  0  0  0  0  0  0  0  0
   -7.3137    0.2331    2.7157 H   0  0  0  0  0  0  0  0  0  0  0  0
   -8.6592    1.4305    2.5955 H   0  0  0  0  0  0  0  0  0  0  0  0
    1.1468   -4.5953   -4.3000 H   0  0  0  0  0  0  0  0  0  0  0  0
    0.4138   -6.0918   -4.9374 H   0  0  0  0  0  0  0  0  0  0  0  0
    2.6090   -7.2382   -4.8646 H   0  0  0  0  0  0  0  0  0  0  0  0
    3.4309   -5.7044   -4.3850 H   0  0  0  0  0  0  0  0  0  0  0  0
    2.2641   -6.4784   -3.2584 H   0  0  0  0  0  0  0  0  0  0  0  0
    1.5551   -7.1080   -7.0831 H   0  0  0  0  0  0  0  0  0  0  0  0
    2.1404   -6.5414   -9.4102 H   0  0  0  0  0  0  0  0  0  0  0  0
    2.6199   -4.2033  -10.0407 H   0  0  0  0  0  0  0  0  0  0  0  0
    2.4228   -2.4021   -8.3826 H   0  0  0  0  0  0  0  0  0  0  0  0
   -3.1020    2.7468   -0.4162 H   0  0  0  0  0  0  0  0  0  0  0  0
   -1.9152    2.2949   -1.6448 H   0  0  0  0  0  0  0  0  0  0  0  0
   -1.5364    3.9293    0.7871 H   0  0  0  0  0  0  0  0  0  0  0  0
   -0.4307    3.7110   -0.5957 H   0  0  0  0  0  0  0  0  0  0  0  0
   -0.3681    2.5532    0.7782 H   0  0  0  0  0  0  0  0  0  0  0  0
    0.2754    1.0502   -0.9610 H   0  0  0  0  0  0  0  0  0  0  0  0
    1.4186    0.1518   -1.9250 H   0  0  0  0  0  0  0  0  0  0  0  0
    1.1656    1.9147   -3.7911 H   0  0  0  0  0  0  0  0  0  0  0  0
    1.7824    2.5779   -2.2311 H   0  0  0  0  0  0  0  0  0  0  0  0
    0.0651    2.8267   -2.7073 H   0  0  0  0  0  0  0  0  0  0  0  0
    3.2441   -1.3246   -0.3513 H   0  0  0  0  0  0  0  0  0  0  0  0
    3.8774    0.9071    0.4333 H   0  0  0  0  0  0  0  0  0  0  0  0
    4.8303    3.1194   -0.1226 H   0  0  0  0  0  0  0  0  0  0  0  0
    6.5645    2.5790   -0.1102 H   0  0  0  0  0  0  0  0  0  0  0  0
    5.8458    3.3166   -1.5958 H   0  0  0  0  0  0  0  0  0  0  0  0
    6.5958    1.3205   -2.8765 H   0  0  0  0  0  0  0  0  0  0  0  0
    6.0067   -0.9030   -3.6635 H   0  0  0  0  0  0  0  0  0  0  0  0
    1.4403   -2.7489   -2.5612 H   0  0  0  0  0  0  0  0  0  0  0  0
    0.0565   -4.2674   -1.1973 H   0  0  0  0  0  0  0  0  0  0  0  0
   -0.1091   -5.7571    0.7387 H   0  0  0  0  0  0  0  0  0  0  0  0
    0.8837   -7.1261    0.0945 H   0  0  0  0  0  0  0  0  0  0  0  0
    1.3712   -6.2746    1.6129 H   0  0  0  0  0  0  0  0  0  0  0  0
    3.6421   -5.8917    0.5826 H   0  0  0  0  0  0  0  0  0  0  0  0
    5.0050   -4.3365   -0.7513 H   0  0  0  0  0  0  0  0  0  0  0  0
    9.4940   -4.9348   -4.8320 H   0  0  0  0  0  0  0  0  0  0  0  0
   11.4801   -3.5139   -4.9932 H   0  0  0  0  0  0  0  0  0  0  0  0
   13.2161   -2.7162   -7.3719 H   0  0  0  0  0  0  0  0  0  0  0  0
   12.5082   -1.5342   -6.1878 H   0  0  0  0  0  0  0  0  0  0  0  0
   12.2203   -1.3129   -7.9462 H   0  0  0  0  0  0  0  0  0  0  0  0
   10.5027   -2.6040   -9.0957 H   0  0  0  0  0  0  0  0  0  0  0  0
    8.4866   -4.0122   -8.9305 H   0  0  0  0  0  0  0  0  0  0  0  0
    9.2151   -6.7838   -8.4440 H   0  0  0  0  0  0  0  0  0  0  0  0
    8.4982   -8.3275  -10.2077 H   0  0  0  0  0  0  0  0  0  0  0  0
    6.6688   -9.8299  -11.0616 H   0  0  0  0  0  0  0  0  0  0  0  0
    4.9545   -9.4474  -10.6909 H   0  0  0  0  0  0  0  0  0  0  0  0
    5.8840   -8.3974  -11.8339 H   0  0  0  0  0  0  0  0  0  0  0  0
    4.3812   -7.6716   -9.1063 H   0  0  0  0  0  0  0  0  0  0  0  0
    5.0898   -6.1236   -7.3490 H   0  0  0  0  0  0  0  0  0  0  0  0
    8.4528   -7.3827   -5.1388 H   0  0  0  0  0  0  0  0  0  0  0  0
    2.9949   -9.2064   -2.6290 H   0  0  0  0  0  0  0  0  0  0  0  0
    4.6680  -10.9631   -7.1104 H   0  0  0  0  0  0  0  0  0  0  0  0
    1.2221  -11.0269   -6.8529 H   0  0  0  0  0  0  0  0  0  0  0  0
    2.2376  -13.6147   -6.5356 H   0  0  0  0  0  0  0  0  0  0  0  0
   -0.3963  -13.9181   -6.4837 H   0  0  0  0  0  0  0  0  0  0  0  0
   -1.2869  -13.0064   -4.2105 H   0  0  0  0  0  0  0  0  0  0  0  0
    0.8020  -12.1411   -2.7913 H   0  0  0  0  0  0  0  0  0  0  0  0
    2.9995  -12.9481   -4.0565 H   0  0  0  0  0  0  0  0  0  0  0  0
    1.7848  -14.2902   -4.0215 H   0  0  0  0  0  0  0  0  0  0  0  0
    0.4491  -10.2076   -4.7559 H   0  0  0  0  0  0  0  0  0  0  0  0
  1  2  2  3
  2  3  1  0
  3  4  2  0
  3  5  1  0
  5  6  2  0
  6  7  1  0
  6  8  1  0
  8  9  1  0
  8 10  2  0
 10 11  1  0
 10 12  1  0
 12 13  1  0
 12 14  2  0
 14 15  1  0
 15 16  2  3
 16 17  1  0
 17 18  3  0
 16 19  1  0
 19 20  3  0
  1 21  1  0
 21 22  2  0
 22 23  1  0
 23 24  1  0
 24 25  2  0
 25 26  1  0
 26 27  2  0
 27 28  1  0
 27 29  1  0
 29 30  2  0
 23 31  1  0
 31 32  2  0
 32 33  1  0
 33 34  2  0
 34 35  1  0
 34 36  1  0
 36 37  2  0
 22 38  1  0
 38 39  1  0
 39 40  1  0
 40 41  2  0
 41 42  1  0
 42 43  1  0
 43 44  2  0
 44 45  1  0
 45 46  2  0
 46 47  1  0
 46 48  1  0
 48 49  2  0
 42 50  1  0
 50 51  2  0
 51 52  1  0
 52 53  2  0
 53 54  1  0
 53 55  1  0
 55 56  2  0
 41 57  1  0
 57 58  1  0
 40 59  1  0
 59 60  2  0
 60 61  1  0
 61 62  2  0
 62 63  1  0
 63 64  2  0
 64 65  1  0
 65 66  2  0
 66 67  1  0
 67 68  1  0
 60 69  1  0
 69 70  1  0
 70 71  1  0
 71 72  1  0
 72 73  1  0
 73 74  1  0
 74 75  2  0
 75 76  1  0
 76 77  1  0
 74 78  1  0
 78 79  1  0
 79 80  1  0
 80 81  1  0
 81 82  1  0
 82 83  1  0
 83 84  2  0
 84 85  1  0
 85 86  1  0
 84 87  1  0
 87 88  2  0
 88 89  1  0
 89 90  2  0
 82 91  2  0
 91 92  1  0
 92 93  1  0
 93 94  1  0
 94 95  1  0
 95 96  1  0
 96 97  1  0
 97 98  1  0
 98 99  1  0
 99100  1  0
100101  1  0
 98102  1  0
102103  1  0
 95104  1  0
104105  1  0
 91106  1  0
106107  2  0
107108  1  0
108109  1  0
109110  2  0
110111  1  0
111112  2  0
112113  1  0
112114  1  0
114115  2  0
108116  1  0
116117  2  0
117118  1  0
118119  2  0
119120  1  0
119121  1  0
121122  2  0
107123  1  0
123124  1  0
124125  1  0
125126  2  0
126127  1  0
127128  1  0
128129  2  0
129130  1  0
130131  2  0
131132  1  0
131133  1  0
133134  2  0
127135  1  0
135136  2  0
136137  1  0
137138  2  0
138139  1  0
138140  1  0
140141  2  0
126142  1  0
142143  1  0
125144  1  0
144145  2  3
145146  1  0
146147  2  0
146148  1  0
148149  2  0
149150  1  0
150151  2  0
151152  1  0
152153  2  0
153154  1  0
154155  2  3
155156  1  0
156157  3  0
155158  1  0
158159  3  0
151160  1  0
160161  1  0
161162  1  0
162163  2  0
163164  1  0
164165  1  0
164166  1  0
 15  2  1  0
 58 21  1  0
101 59  1  0
143106  1  0
154145  1  0
166160  1  0
 14  5  1  0
 30 24  1  0
 37 31  1  0
 57 38  2  0
 66 61  1  0
100 69  2  0
115109  1  0
122116  1  0
142123  2  0
153148  1  0
165161  1  0
 49 43  1  0
 56 50  1  0
 99 71  2  0
134128  1  0
141135  1  0
166150  1  0
 97 72  2  0
 77 73  2  0
 96 78  2  0
 94 79  2  0
 93 81  2  0
 90 83  1  0
  1167  1  0
 25168  1  0
 26169  1  0
 28170  1  0
 28171  1  0
 28172  1  0
 29173  1  0
 30174  1  0
 32175  1  0
 33176  1  0
 35177  1  0
 35178  1  0
 35179  1  0
 36180  1  0
 37181  1  0
 44182  1  0
 45183  1  0
 47184  1  0
 47185  1  0
 47186  1  0
 48187  1  0
 49188  1  0
 51189  1  0
 52190  1  0
 54191  1  0
 54192  1  0
 54193  1  0
 55194  1  0
 56195  1  0
 62196  1  0
 63197  1  0
 64198  1  0
 65199  1  0
 67200  1  0
 67201  1  0
 68202  1  0
 68203  1  0
 68204  1  0
 85205  1  0
 85206  1  0
 86207  1  0
 86208  1  0
 86209  1  0
 87210  1  0
 88211  1  0
 89212  1  0
 90213  1  0
102214  1  0
102215  1  0
103216  1  0
103217  1  0
103218  1  0
104219  1  0
104220  1  0
105221  1  0
105222  1  0
105223  1  0
110224  1  0
111225  1  0
113226  1  0
113227  1  0
113228  1  0
114229  1  0
115230  1  0
117231  1  0
118232  1  0
120233  1  0
120234  1  0
120235  1  0
121236  1  0
122237  1  0
129238  1  0
130239  1  0
132240  1  0
132241  1  0
132242  1  0
133243  1  0
134244  1  0
136245  1  0
137246  1  0
139247  1  0
139248  1  0
139249  1  0
140250  1  0
141251  1  0
144252  1  0
149253  1  0
152254  1  0
160255  1  0
161256  1  0
162257  1  0
163258  1  0
164259  1  0
165260  1  0
165261  1  0
166262  1  0
M  END

