
     RDKit          3D

237261  0  0  0  0  0  0  0  0999 V2000
    0.6035    7.3309    5.0330 C   0  0  0  0  0  0  0  0  0  0  0  0
    1.5154    6.5115    5.5805 C   0  0  0  0  0  0  0  0  0  0  0  0
    2.6056    6.9924    6.4211 C   0  0  0  0  0  0  0  0  0  0  0  0
    2.6398    8.1087    7.0051 O   0  0  0  0  0  0  0  0  0  0  0  0
    3.6928    6.0281    6.3573 C   0  0  0  0  0  0  0  0  0  0  0  0
    5.0150    6.1740    6.7919 C   0  0  0  0  0  0  0  0  0  0  0  0
    5.4829    7.5525    7.7877 Cl  0  0  0  0  0  0  0  0  0  0  0  0
    5.9609    5.2185    6.3823 C   0  0  0  0  0  0  0  0  0  0  0  0
    7.6433    5.3825    6.8934 Cl  0  0  0  0  0  0  0  0  0  0  0  0
    5.5846    4.1709    5.5126 C   0  0  0  0  0  0  0  0  0  0  0  0
    6.8061    3.0393    4.9247 Cl  0  0  0  0  0  0  0  0  0  0  0  0
    4.2471    4.0543    5.0719 C   0  0  0  0  0  0  0  0  0  0  0  0
    3.8716    2.9454    3.7494 Cl  0  0  0  0  0  0  0  0  0  0  0  0
    3.2906    4.9544    5.5748 C   0  0  0  0  0  0  0  0  0  0  0  0
    1.8487    5.1052    5.2323 C   0  0  0  0  0  0  0  0  0  0  0  0
    0.9481    4.0903    5.2293 C   0  0  0  0  0  0  0  0  0  0  0  0
    1.3414    2.7187    5.4153 C   0  0  0  0  0  0  0  0  0  0  0  0
    1.6434    1.6092    5.5646 N   0  0  0  0  0  0  0  0  0  0  0  0
   -0.4698    4.3264    5.3329 C   0  0  0  0  0  0  0  0  0  0  0  0
   -1.6128    4.4939    5.4287 N   0  0  0  0  0  0  0  0  0  0  0  0
   -0.2118    7.0042    3.8524 C   0  0  0  0  0  0  0  0  0  0  0  0
    0.2048    6.3920    2.6407 C   0  0  0  0  0  0  0  0  0  0  0  0
    1.5708    6.3428    2.1360 N   0  0  0  0  0  0  0  0  0  0  0  0
    1.8277    5.7557    0.8523 C   0  0  0  0  0  0  0  0  0  0  0  0
    2.1523    4.3975    0.7483 C   0  0  0  0  0  0  0  0  0  0  0  0
    2.3593    3.8190   -0.5047 C   0  0  0  0  0  0  0  0  0  0  0  0
    2.2123    4.5896   -1.6727 C   0  0  0  0  0  0  0  0  0  0  0  0
    2.4294    3.9733   -3.0233 C   0  0  0  0  0  0  0  0  0  0  0  0
    1.8974    5.9540   -1.5659 C   0  0  0  0  0  0  0  0  0  0  0  0
    1.7163    6.5375   -0.3104 C   0  0  0  0  0  0  0  0  0  0  0  0
    2.6236    7.1784    2.6626 C   0  0  0  0  0  0  0  0  0  0  0  0
    3.9067    6.6446    2.8625 C   0  0  0  0  0  0  0  0  0  0  0  0
    4.9163    7.4204    3.4376 C   0  0  0  0  0  0  0  0  0  0  0  0
    4.6699    8.7582    3.7784 C   0  0  0  0  0  0  0  0  0  0  0  0
    5.7179    9.5679    4.4874 C   0  0  0  0  0  0  0  0  0  0  0  0
    3.4073    9.3177    3.5183 C   0  0  0  0  0  0  0  0  0  0  0  0
    2.4019    8.5421    2.9341 C   0  0  0  0  0  0  0  0  0  0  0  0
   -0.9268    6.0268    1.8909 C   0  0  0  0  0  0  0  0  0  0  0  0
   -1.2106    5.0980    0.5211 S   0  0  0  0  0  0  0  0  0  0  0  0
   -2.9083    5.2738    0.5425 C   0  0  0  0  0  0  0  0  0  0  0  0
   -3.2504    6.0783    1.6421 C   0  0  0  0  0  0  0  0  0  0  0  0
   -4.5572    6.6030    1.9107 N   0  0  0  0  0  0  0  0  0  0  0  0
   -4.9880    7.8343    1.2619 C   0  0  0  0  0  0  0  0  0  0  0  0
   -4.1398    8.5195    0.3623 C   0  0  0  0  0  0  0  0  0  0  0  0
   -4.5724    9.6747   -0.2978 C   0  0  0  0  0  0  0  0  0  0  0  0
   -5.8614   10.1771   -0.0666 C   0  0  0  0  0  0  0  0  0  0  0  0
   -6.3509   11.3757   -0.8299 C   0  0  0  0  0  0  0  0  0  0  0  0
   -6.7093    9.5117    0.8285 C   0  0  0  0  0  0  0  0  0  0  0  0
   -6.2737    8.3643    1.4964 C   0  0  0  0  0  0  0  0  0  0  0  0
   -5.2088    6.0911    3.0903 C   0  0  0  0  0  0  0  0  0  0  0  0
   -5.5348    4.7310    3.1695 C   0  0  0  0  0  0  0  0  0  0  0  0
   -6.0915    4.2042    4.3414 C   0  0  0  0  0  0  0  0  0  0  0  0
   -6.3117    5.0358    5.4518 C   0  0  0  0  0  0  0  0  0  0  0  0
   -6.9202    4.4758    6.7052 C   0  0  0  0  0  0  0  0  0  0  0  0
   -5.9935    6.4014    5.3684 C   0  0  0  0  0  0  0  0  0  0  0  0
   -5.4292    6.9210    4.2006 C   0  0  0  0  0  0  0  0  0  0  0  0
   -2.1213    6.4433    2.3818 C   0  0  0  0  0  0  0  0  0  0  0  0
   -1.8996    7.2434    3.8326 S   0  0  0  0  0  0  0  0  0  0  0  0
   -3.7888    4.4364   -0.2897 C   0  0  0  0  0  0  0  0  0  0  0  0
   -4.3654    4.8750   -1.5015 C   0  0  0  0  0  0  0  0  0  0  0  0
   -5.3777    5.9351   -1.5507 C   0  0  0  0  0  0  0  0  0  0  0  0
   -5.2609    7.0116   -2.4396 C   0  0  0  0  0  0  0  0  0  0  0  0
   -6.3470    7.8697   -2.6437 C   0  0  0  0  0  0  0  0  0  0  0  0
   -7.5677    7.6358   -1.9950 C   0  0  0  0  0  0  0  0  0  0  0  0
   -7.7058    6.5398   -1.1246 C   0  0  0  0  0  0  0  0  0  0  0  0
   -9.0526    6.1773   -0.5431 C   0  0  0  0  0  0  0  0  0  0  0  0
   -9.1763    6.6060    0.9154 C   0  0  0  0  0  0  0  0  0  0  0  0
   -6.5961    5.7178   -0.8795 C   0  0  0  0  0  0  0  0  0  0  0  0
   -4.4643    3.8241   -2.4174 C   0  0  0  0  0  0  0  0  0  0  0  0
   -4.6243    3.8098   -4.1134 S   0  0  0  0  0  0  0  0  0  0  0  0
   -4.3060    2.1427   -4.1726 C   0  0  0  0  0  0  0  0  0  0  0  0
   -3.7315    1.2885   -5.0785 C   0  0  0  0  0  0  0  0  0  0  0  0
   -3.1844    1.5594   -6.3465 C   0  0  0  0  0  0  0  0  0  0  0  0
   -2.2543    0.6325   -6.9110 C   0  0  0  0  0  0  0  0  0  0  0  0
   -1.7030    0.9592   -8.1048 N   0  0  0  0  0  0  0  0  0  0  0  0
   -2.4356    2.4250   -8.3574 S   0  0  0  0  0  0  0  0  0  0  0  0
   -3.4164    2.6951   -7.0496 N   0  0  0  0  0  0  0  0  0  0  0  0
   -1.9910   -0.5537   -6.2208 C   0  0  0  0  0  0  0  0  0  0  0  0
   -1.1782   -1.6258   -6.4883 C   0  0  0  0  0  0  0  0  0  0  0  0
    0.2476   -1.9411   -7.3529 S   0  0  0  0  0  0  0  0  0  0  0  0
    0.5669   -3.3305   -6.4004 C   0  0  0  0  0  0  0  0  0  0  0  0
    1.7145   -4.1080   -6.1753 C   0  0  0  0  0  0  0  0  0  0  0  0
    3.0008   -3.9465   -6.8903 C   0  0  0  0  0  0  0  0  0  0  0  0
    3.5307   -2.6739   -7.1542 C   0  0  0  0  0  0  0  0  0  0  0  0
    4.7590   -2.5413   -7.8069 C   0  0  0  0  0  0  0  0  0  0  0  0
    5.4744   -3.6729   -8.2008 C   0  0  0  0  0  0  0  0  0  0  0  0
    4.9570   -4.9558   -7.9506 C   0  0  0  0  0  0  0  0  0  0  0  0
    5.7474   -6.1817   -8.3336 C   0  0  0  0  0  0  0  0  0  0  0  0
    6.5124   -6.7247   -7.1318 C   0  0  0  0  0  0  0  0  0  0  0  0
    3.7235   -5.0842   -7.2872 C   0  0  0  0  0  0  0  0  0  0  0  0
    1.5391   -4.9580   -5.0573 C   0  0  0  0  0  0  0  0  0  0  0  0
    0.0228   -4.6557   -4.3403 S   0  0  0  0  0  0  0  0  0  0  0  0
   -0.4265   -3.5236   -5.4738 C   0  0  0  0  0  0  0  0  0  0  0  0
   -1.3824   -2.5288   -5.4983 C   0  0  0  0  0  0  0  0  0  0  0  0
   -2.2712   -2.1059   -4.5716 N   0  0  0  0  0  0  0  0  0  0  0  0
   -2.5940   -0.8469   -4.9882 C   0  0  0  0  0  0  0  0  0  0  0  0
   -3.3457    0.1583   -4.3381 C   0  0  0  0  0  0  0  0  0  0  0  0
   -3.4993    0.3863   -2.9913 N   0  0  0  0  0  0  0  0  0  0  0  0
   -4.0745    1.6126   -2.9417 C   0  0  0  0  0  0  0  0  0  0  0  0
   -4.0984    2.5931   -1.9509 C   0  0  0  0  0  0  0  0  0  0  0  0
   -3.4806    2.7638   -0.4081 S   0  0  0  0  0  0  0  0  0  0  0  0
   -2.7859   -0.2284   -1.8622 C   0  0  0  0  0  0  0  0  0  0  0  0
   -3.7715   -0.6956   -0.7915 C   0  0  0  0  0  0  0  0  0  0  0  0
   -3.0241   -2.9790   -3.6628 C   0  0  0  0  0  0  0  0  0  0  0  0
   -3.7510   -4.0807   -4.4294 C   0  0  0  0  0  0  0  0  0  0  0  0
    2.6213   -5.5024   -4.2386 C   0  0  0  0  0  0  0  0  0  0  0  0
    2.9333   -7.1633   -4.0529 S   0  0  0  0  0  0  0  0  0  0  0  0
    3.6873   -6.9884   -2.5612 C   0  0  0  0  0  0  0  0  0  0  0  0
    3.7986   -7.8626   -1.4167 C   0  0  0  0  0  0  0  0  0  0  0  0
    3.7367   -7.0708   -0.2789 C   0  0  0  0  0  0  0  0  0  0  0  0
    3.4464   -5.6195   -0.6205 C   0  0  0  0  0  0  0  0  0  0  0  0
    4.4861   -4.7094    0.0341 C   0  0  0  0  0  0  0  0  0  0  0  0
    5.6873   -4.3681   -0.6218 C   0  0  0  0  0  0  0  0  0  0  0  0
    6.6116   -3.5152   -0.0143 C   0  0  0  0  0  0  0  0  0  0  0  0
    6.3622   -2.9934    1.2646 C   0  0  0  0  0  0  0  0  0  0  0  0
    7.3506   -2.0673    1.9181 C   0  0  0  0  0  0  0  0  0  0  0  0
    8.3171   -2.8445    2.8048 C   0  0  0  0  0  0  0  0  0  0  0  0
    5.2060   -3.3835    1.9571 C   0  0  0  0  0  0  0  0  0  0  0  0
    4.2848   -4.2432    1.3509 C   0  0  0  0  0  0  0  0  0  0  0  0
    1.9911   -5.2181   -0.2869 C   0  0  0  0  0  0  0  0  0  0  0  0
    1.5934   -3.8673   -0.3871 C   0  0  0  0  0  0  0  0  0  0  0  0
    0.2481   -3.4999   -0.2690 C   0  0  0  0  0  0  0  0  0  0  0  0
   -0.7370   -4.4701   -0.0341 C   0  0  0  0  0  0  0  0  0  0  0  0
   -2.1836   -4.0423    0.0964 C   0  0  0  0  0  0  0  0  0  0  0  0
   -3.1766   -5.0319   -0.5185 C   0  0  0  0  0  0  0  0  0  0  0  0
   -0.3470   -5.8090    0.1278 C   0  0  0  0  0  0  0  0  0  0  0  0
    0.9900   -6.1842   -0.0339 C   0  0  0  0  0  0  0  0  0  0  0  0
    3.5645   -5.6974   -2.1317 C   0  0  0  0  0  0  0  0  0  0  0  0
    3.0273   -4.8316   -3.0874 C   0  0  0  0  0  0  0  0  0  0  0  0
    3.7031   -7.6582    0.9877 C   0  0  0  0  0  0  0  0  0  0  0  0
    3.6630   -9.0547    1.0849 C   0  0  0  0  0  0  0  0  0  0  0  0
    3.6679   -9.8585   -0.0822 C   0  0  0  0  0  0  0  0  0  0  0  0
    3.7984   -9.2545   -1.3497 C   0  0  0  0  0  0  0  0  0  0  0  0
    3.5059  -11.3193    0.0333 C   0  0  0  0  0  0  0  0  0  0  0  0
    2.4832  -11.8837    0.7012 C   0  0  0  0  0  0  0  0  0  0  0  0
    2.6370  -13.1157    1.4751 C   0  0  0  0  0  0  0  0  0  0  0  0
    3.5418  -13.9795    1.3201 O   0  0  0  0  0  0  0  0  0  0  0  0
    1.6456  -13.1067    2.5387 C   0  0  0  0  0  0  0  0  0  0  0  0
    1.5299  -13.9753    3.6239 C   0  0  0  0  0  0  0  0  0  0  0  0
    0.5594  -13.7120    4.6043 C   0  0  0  0  0  0  0  0  0  0  0  0
    0.4500  -14.5901    5.6942 O   0  0  0  0  0  0  0  0  0  0  0  0
   -0.4562  -14.4113    6.7832 C   0  0  0  0  0  0  0  0  0  0  0  0
   -0.2617  -12.5698    4.4746 C   0  0  0  0  0  0  0  0  0  0  0  0
   -0.1098  -11.6952    3.3878 C   0  0  0  0  0  0  0  0  0  0  0  0
    0.8430  -11.9899    2.4064 C   0  0  0  0  0  0  0  0  0  0  0  0
    1.2271  -11.2372    1.1805 C   0  0  0  0  0  0  0  0  0  0  0  0
    0.4167  -10.4178    0.4626 C   0  0  0  0  0  0  0  0  0  0  0  0
   -0.8824  -10.0012    0.9345 C   0  0  0  0  0  0  0  0  0  0  0  0
   -1.9314   -9.6736    1.2943 N   0  0  0  0  0  0  0  0  0  0  0  0
    0.7100  -10.0491   -0.9012 C   0  0  0  0  0  0  0  0  0  0  0  0
    0.9398   -9.7403   -1.9878 N   0  0  0  0  0  0  0  0  0  0  0  0
    0.4925    8.3297    5.4381 H   0  0  0  0  0  0  0  0  0  0  0  0
    2.2219    3.7869    1.6406 H   0  0  0  0  0  0  0  0  0  0  0  0
    2.6208    2.7682   -0.5680 H   0  0  0  0  0  0  0  0  0  0  0  0
    1.6549    4.3330   -3.7359 H   0  0  0  0  0  0  0  0  0  0  0  0
    2.3636    2.8659   -2.9724 H   0  0  0  0  0  0  0  0  0  0  0  0
    3.4318    4.2601   -3.4049 H   0  0  0  0  0  0  0  0  0  0  0  0
    1.7925    6.5623   -2.4570 H   0  0  0  0  0  0  0  0  0  0  0  0
    1.4606    7.5877   -0.2373 H   0  0  0  0  0  0  0  0  0  0  0  0
    4.1138    5.6125    2.6097 H   0  0  0  0  0  0  0  0  0  0  0  0
    5.8817    6.9718    3.6390 H   0  0  0  0  0  0  0  0  0  0  0  0
    5.5626    9.4872    5.5835 H   0  0  0  0  0  0  0  0  0  0  0  0
    5.6466   10.6377    4.1946 H   0  0  0  0  0  0  0  0  0  0  0  0
    6.7367    9.2061    4.2376 H   0  0  0  0  0  0  0  0  0  0  0  0
    3.2005   10.3484    3.7799 H   0  0  0  0  0  0  0  0  0  0  0  0
    1.4418    8.9924    2.7290 H   0  0  0  0  0  0  0  0  0  0  0  0
   -3.1402    8.1645    0.1480 H   0  0  0  0  0  0  0  0  0  0  0  0
   -3.9130   10.1687   -1.0010 H   0  0  0  0  0  0  0  0  0  0  0  0
   -7.2180   11.8467   -0.3176 H   0  0  0  0  0  0  0  0  0  0  0  0
   -5.5425   12.1334   -0.9123 H   0  0  0  0  0  0  0  0  0  0  0  0
   -6.6614   11.0665   -1.8499 H   0  0  0  0  0  0  0  0  0  0  0  0
   -7.7158    9.8787    1.0071 H   0  0  0  0  0  0  0  0  0  0  0  0
   -6.9486    7.8890    2.1897 H   0  0  0  0  0  0  0  0  0  0  0  0
   -5.3500    4.0795    2.3260 H   0  0  0  0  0  0  0  0  0  0  0  0
   -6.3409    3.1488    4.3869 H   0  0  0  0  0  0  0  0  0  0  0  0
   -8.0123    4.3563    6.5578 H   0  0  0  0  0  0  0  0  0  0  0  0
   -6.4713    3.4879    6.9392 H   0  0  0  0  0  0  0  0  0  0  0  0
   -6.7399    5.1482    7.5713 H   0  0  0  0  0  0  0  0  0  0  0  0
   -6.1666    7.0595    6.2130 H   0  0  0  0  0  0  0  0  0  0  0  0
   -5.1459    7.9643    4.1680 H   0  0  0  0  0  0  0  0  0  0  0  0
   -4.3432    7.1652   -2.9988 H   0  0  0  0  0  0  0  0  0  0  0  0
   -6.2576    8.6960   -3.3371 H   0  0  0  0  0  0  0  0  0  0  0  0
   -8.4055    8.2883   -2.1939 H   0  0  0  0  0  0  0  0  0  0  0  0
   -9.1996    5.0757   -0.6067 H   0  0  0  0  0  0  0  0  0  0  0  0
   -9.8692    6.6521   -1.1304 H   0  0  0  0  0  0  0  0  0  0  0  0
   -9.0992    7.7093    0.9938 H   0  0  0  0  0  0  0  0  0  0  0  0
  -10.1663    6.2939    1.3111 H   0  0  0  0  0  0  0  0  0  0  0  0
   -8.3911    6.1167    1.5298 H   0  0  0  0  0  0  0  0  0  0  0  0
   -6.7045    4.8525   -0.2324 H   0  0  0  0  0  0  0  0  0  0  0  0
    3.0186   -1.7809   -6.8226 H   0  0  0  0  0  0  0  0  0  0  0  0
    5.1664   -1.5553   -7.9964 H   0  0  0  0  0  0  0  0  0  0  0  0
    6.4332   -3.5526   -8.6951 H   0  0  0  0  0  0  0  0  0  0  0  0
    5.0643   -6.9746   -8.7188 H   0  0  0  0  0  0  0  0  0  0  0  0
    6.4666   -5.9392   -9.1456 H   0  0  0  0  0  0  0  0  0  0  0  0
    5.8067   -7.0640   -6.3466 H   0  0  0  0  0  0  0  0  0  0  0  0
    7.1298   -7.5882   -7.4531 H   0  0  0  0  0  0  0  0  0  0  0  0
    7.1864   -5.9461   -6.7135 H   0  0  0  0  0  0  0  0  0  0  0  0
    3.3302   -6.0730   -7.0814 H   0  0  0  0  0  0  0  0  0  0  0  0
   -2.1478   -1.0719   -2.1772 H   0  0  0  0  0  0  0  0  0  0  0  0
   -2.0869    0.5153   -1.4219 H   0  0  0  0  0  0  0  0  0  0  0  0
   -4.3753   -1.5500   -1.1521 H   0  0  0  0  0  0  0  0  0  0  0  0
   -4.4736    0.1180   -0.5061 H   0  0  0  0  0  0  0  0  0  0  0  0
   -3.2216   -1.0014    0.1231 H   0  0  0  0  0  0  0  0  0  0  0  0
   -3.7991   -2.4015   -3.1337 H   0  0  0  0  0  0  0  0  0  0  0  0
   -2.3328   -3.4313   -2.9240 H   0  0  0  0  0  0  0  0  0  0  0  0
   -4.3975   -3.6336   -5.2184 H   0  0  0  0  0  0  0  0  0  0  0  0
   -3.0249   -4.7730   -4.9071 H   0  0  0  0  0  0  0  0  0  0  0  0
   -4.3879   -4.6647   -3.7291 H   0  0  0  0  0  0  0  0  0  0  0  0
    5.9101   -4.7454   -1.6105 H   0  0  0  0  0  0  0  0  0  0  0  0
    7.5198   -3.2447   -0.5428 H   0  0  0  0  0  0  0  0  0  0  0  0
    6.8176   -1.3129    2.5372 H   0  0  0  0  0  0  0  0  0  0  0  0
    7.9264   -1.5089    1.1462 H   0  0  0  0  0  0  0  0  0  0  0  0
    7.7584   -3.4472    3.5556 H   0  0  0  0  0  0  0  0  0  0  0  0
    8.9446   -3.5238    2.1871 H   0  0  0  0  0  0  0  0  0  0  0  0
    8.9779   -2.1320    3.3432 H   0  0  0  0  0  0  0  0  0  0  0  0
    5.0076   -3.0074    2.9563 H   0  0  0  0  0  0  0  0  0  0  0  0
    3.3971   -4.5280    1.9065 H   0  0  0  0  0  0  0  0  0  0  0  0
    2.3217   -3.0973   -0.5991 H   0  0  0  0  0  0  0  0  0  0  0  0
   -0.0270   -2.4551   -0.3781 H   0  0  0  0  0  0  0  0  0  0  0  0
   -2.4301   -3.8741    1.1665 H   0  0  0  0  0  0  0  0  0  0  0  0
   -2.3153   -3.0829   -0.4364 H   0  0  0  0  0  0  0  0  0  0  0  0
   -2.8309   -5.3601   -1.5229 H   0  0  0  0  0  0  0  0  0  0  0  0
   -4.1714   -4.5462   -0.6300 H   0  0  0  0  0  0  0  0  0  0  0  0
   -3.3005   -5.9233    0.1325 H   0  0  0  0  0  0  0  0  0  0  0  0
   -1.0780   -6.5789    0.3395 H   0  0  0  0  0  0  0  0  0  0  0  0
    1.2181   -7.2395    0.0212 H   0  0  0  0  0  0  0  0  0  0  0  0
    2.7312   -3.8162   -2.8668 H   0  0  0  0  0  0  0  0  0  0  0  0
    3.6112   -7.0483    1.8726 H   0  0  0  0  0  0  0  0  0  0  0  0
    3.5869   -9.5159    2.0610 H   0  0  0  0  0  0  0  0  0  0  0  0
    3.7905   -9.8530   -2.2590 H   0  0  0  0  0  0  0  0  0  0  0  0
    4.3625  -11.9269   -0.2301 H   0  0  0  0  0  0  0  0  0  0  0  0
    2.1902  -14.8260    3.7239 H   0  0  0  0  0  0  0  0  0  0  0  0
   -1.5036  -14.4332    6.4198 H   0  0  0  0  0  0  0  0  0  0  0  0
   -0.3134  -15.2364    7.5092 H   0  0  0  0  0  0  0  0  0  0  0  0
   -0.2609  -13.4488    7.2960 H   0  0  0  0  0  0  0  0  0  0  0  0
   -1.0015  -12.3310    5.2246 H   0  0  0  0  0  0  0  0  0  0  0  0
   -0.6990  -10.7902    3.3615 H   0  0  0  0  0  0  0  0  0  0  0  0
  1  2  2  3
  2  3  1  0
  3  4  2  0
  3  5  1  0
  5  6  2  0
  6  7  1  0
  6  8  1  0
  8  9  1  0
  8 10  2  0
 10 11  1  0
 10 12  1  0
 12 13  1  0
 12 14  2  0
 14 15  1  0
 15 16  2  3
 16 17  1  0
 17 18  3  0
 16 19  1  0
 19 20  3  0
  1 21  1  0
 21 22  2  0
 22 23  1  0
 23 24  1  0
 24 25  2  0
 25 26  1  0
 26 27  2  0
 27 28  1  0
 27 29  1  0
 29 30  2  0
 23 31  1  0
 31 32  2  0
 32 33  1  0
 33 34  2  0
 34 35  1  0
 34 36  1  0
 36 37  2  0
 22 38  1  0
 38 39  1  0
 39 40  1  0
 40 41  2  0
 41 42  1  0
 42 43  1  0
 43 44  2  0
 44 45  1  0
 45 46  2  0
 46 47  1  0
 46 48  1  0
 48 49  2  0
 42 50  1  0
 50 51  2  0
 51 52  1  0
 52 53  2  0
 53 54  1  0
 53 55  1  0
 55 56  2  0
 41 57  1  0
 57 58  1  0
 40 59  1  0
 59 60  2  0
 60 61  1  0
 61 62  2  0
 62 63  1  0
 63 64  2  0
 64 65  1  0
 65 66  1  0
 66 67  1  0
 65 68  2  0
 60 69  1  0
 69 70  1  0
 70 71  1  0
 71 72  1  0
 72 73  1  0
 73 74  1  0
 74 75  2  0
 75 76  1  0
 76 77  1  0
 74 78  1  0
 78 79  1  0
 79 80  1  0
 80 81  1  0
 81 82  1  0
 82 83  1  0
 83 84  2  0
 84 85  1  0
 85 86  2  0
 86 87  1  0
 87 88  1  0
 88 89  1  0
 87 90  2  0
 82 91  2  0
 91 92  1  0
 92 93  1  0
 93 94  1  0
 94 95  1  0
 95 96  1  0
 96 97  1  0
 97 98  1  0
 98 99  1  0
 99100  1  0
100101  1  0
 98102  1  0
102103  1  0
 95104  1  0
104105  1  0
 91106  1  0
106107  1  0
107108  1  0
108109  1  0
109110  2  0
110111  1  0
111112  1  0
112113  2  0
113114  1  0
114115  2  0
115116  1  0
116117  1  0
115118  1  0
118119  2  0
111120  1  0
120121  2  0
121122  1  0
122123  2  0
123124  1  0
124125  1  0
123126  1  0
126127  2  0
111128  1  0
128129  1  0
110130  1  0
130131  2  0
131132  1  0
132133  2  0
132134  1  0
134135  2  3
135136  1  0
136137  2  0
136138  1  0
138139  2  0
139140  1  0
140141  1  0
141142  1  0
140143  2  0
143144  1  0
144145  2  0
145146  1  0
146147  2  3
147148  1  0
148149  3  0
147150  1  0
150151  3  0
 15  2  1  0
 58 21  1  0
101 59  1  0
129106  2  0
146135  1  0
 14  5  1  0
 30 24  1  0
 37 31  1  0
 57 38  2  0
 68 61  1  0
100 69  2  0
128108  2  0
145138  1  0
 49 43  1  0
 56 50  1  0
 99 71  2  0
133109  1  0
 97 72  2  0
119112  1  0
127120  1  0
 77 73  2  0
 96 78  2  0
 94 79  2  0
 93 81  2  0
 90 83  1  0
  1152  1  0
 25153  1  0
 26154  1  0
 28155  1  0
 28156  1  0
 28157  1  0
 29158  1  0
 30159  1  0
 32160  1  0
 33161  1  0
 35162  1  0
 35163  1  0
 35164  1  0
 36165  1  0
 37166  1  0
 44167  1  0
 45168  1  0
 47169  1  0
 47170  1  0
 47171  1  0
 48172  1  0
 49173  1  0
 51174  1  0
 52175  1  0
 54176  1  0
 54177  1  0
 54178  1  0
 55179  1  0
 56180  1  0
 62181  1  0
 63182  1  0
 64183  1  0
 66184  1  0
 66185  1  0
 67186  1  0
 67187  1  0
 67188  1  0
 68189  1  0
 84190  1  0
 85191  1  0
 86192  1  0
 88193  1  0
 88194  1  0
 89195  1  0
 89196  1  0
 89197  1  0
 90198  1  0
102199  1  0
102200  1  0
103201  1  0
103202  1  0
103203  1  0
104204  1  0
104205  1  0
105206  1  0
105207  1  0
105208  1  0
113209  1  0
114210  1  0
116211  1  0
116212  1  0
117213  1  0
117214  1  0
117215  1  0
118216  1  0
119217  1  0
121218  1  0
122219  1  0
124220  1  0
124221  1  0
125222  1  0
125223  1  0
125224  1  0
126225  1  0
127226  1  0
129227  1  0
130228  1  0
131229  1  0
133230  1  0
134231  1  0
139232  1  0
142233  1  0
142234  1  0
142235  1  0
143236  1  0
144237  1  0
M  END

