
     RDKit          3D

225249  0  0  0  0  0  0  0  0999 V2000
   -3.0893    3.0396    6.5720 C   0  0  0  0  0  0  0  0  0  0  0  0
   -3.8671    3.4992    7.5649 C   0  0  0  0  0  0  0  0  0  0  0  0
   -5.2121    3.0362    7.8954 C   0  0  0  0  0  0  0  0  0  0  0  0
   -5.6808    1.8979    7.6437 O   0  0  0  0  0  0  0  0  0  0  0  0
   -5.8967    4.1037    8.6086 C   0  0  0  0  0  0  0  0  0  0  0  0
   -7.2561    4.2099    8.9127 C   0  0  0  0  0  0  0  0  0  0  0  0
   -8.3516    2.8499    8.6460 Cl  0  0  0  0  0  0  0  0  0  0  0  0
   -7.7361    5.4404    9.4057 C   0  0  0  0  0  0  0  0  0  0  0  0
   -9.4341    5.6077    9.8299 Cl  0  0  0  0  0  0  0  0  0  0  0  0
   -6.8717    6.5570    9.4964 C   0  0  0  0  0  0  0  0  0  0  0  0
   -7.5103    8.1224   10.0157 Cl  0  0  0  0  0  0  0  0  0  0  0  0
   -5.5070    6.4292    9.1486 C   0  0  0  0  0  0  0  0  0  0  0  0
   -4.5531    7.8873    8.9161 Cl  0  0  0  0  0  0  0  0  0  0  0  0
   -5.0110    5.1601    8.7972 C   0  0  0  0  0  0  0  0  0  0  0  0
   -3.6529    4.7480    8.3435 C   0  0  0  0  0  0  0  0  0  0  0  0
   -2.4696    5.1383    8.8742 C   0  0  0  0  0  0  0  0  0  0  0  0
   -2.3777    6.0667    9.9673 C   0  0  0  0  0  0  0  0  0  0  0  0
   -2.2508    6.8046   10.8565 N   0  0  0  0  0  0  0  0  0  0  0  0
   -1.2280    4.4795    8.5498 C   0  0  0  0  0  0  0  0  0  0  0  0
   -0.2264    3.9577    8.3130 N   0  0  0  0  0  0  0  0  0  0  0  0
   -3.4901    1.9673    5.6489 C   0  0  0  0  0  0  0  0  0  0  0  0
   -4.5572    2.0005    4.7242 C   0  0  0  0  0  0  0  0  0  0  0  0
   -5.4652    3.1113    4.5346 N   0  0  0  0  0  0  0  0  0  0  0  0
   -6.8651    2.8762    4.2492 C   0  0  0  0  0  0  0  0  0  0  0  0
   -7.5848    3.7578    3.4193 C   0  0  0  0  0  0  0  0  0  0  0  0
   -8.9505    3.5683    3.1929 C   0  0  0  0  0  0  0  0  0  0  0  0
   -9.6204    2.4829    3.7774 C   0  0  0  0  0  0  0  0  0  0  0  0
  -11.0926    2.2884    3.5696 C   0  0  0  0  0  0  0  0  0  0  0  0
   -8.9063    1.5966    4.5952 C   0  0  0  0  0  0  0  0  0  0  0  0
   -7.5419    1.7865    4.8251 C   0  0  0  0  0  0  0  0  0  0  0  0
   -4.9849    4.4664    4.6409 C   0  0  0  0  0  0  0  0  0  0  0  0
   -5.6927    5.4136    5.4034 C   0  0  0  0  0  0  0  0  0  0  0  0
   -5.2074    6.7132    5.5543 C   0  0  0  0  0  0  0  0  0  0  0  0
   -3.9945    7.0854    4.9525 C   0  0  0  0  0  0  0  0  0  0  0  0
   -3.4646    8.4754    5.1290 C   0  0  0  0  0  0  0  0  0  0  0  0
   -3.3099    6.1616    4.1518 C   0  0  0  0  0  0  0  0  0  0  0  0
   -3.7985    4.8587    3.9999 C   0  0  0  0  0  0  0  0  0  0  0  0
   -4.5324    0.8657    3.9096 C   0  0  0  0  0  0  0  0  0  0  0  0
   -5.3202    0.4226    2.4965 S   0  0  0  0  0  0  0  0  0  0  0  0
   -4.3518   -0.9539    2.2164 C   0  0  0  0  0  0  0  0  0  0  0  0
   -3.3744   -1.0367    3.2227 C   0  0  0  0  0  0  0  0  0  0  0  0
   -2.2363   -1.9142    3.2127 N   0  0  0  0  0  0  0  0  0  0  0  0
   -2.0642   -2.8174    4.3364 C   0  0  0  0  0  0  0  0  0  0  0  0
   -0.7865   -3.1509    4.8271 C   0  0  0  0  0  0  0  0  0  0  0  0
   -0.6424   -4.0408    5.8996 C   0  0  0  0  0  0  0  0  0  0  0  0
   -1.7719   -4.6102    6.4993 C   0  0  0  0  0  0  0  0  0  0  0  0
   -1.6295   -5.5670    7.6477 C   0  0  0  0  0  0  0  0  0  0  0  0
   -3.0487   -4.2326    6.0626 C   0  0  0  0  0  0  0  0  0  0  0  0
   -3.1917   -3.3401    4.9998 C   0  0  0  0  0  0  0  0  0  0  0  0
   -1.2051   -1.7237    2.2070 C   0  0  0  0  0  0  0  0  0  0  0  0
   -0.4473   -2.8105    1.7325 C   0  0  0  0  0  0  0  0  0  0  0  0
    0.5542   -2.6202    0.7758 C   0  0  0  0  0  0  0  0  0  0  0  0
    0.8073   -1.3398    0.2582 C   0  0  0  0  0  0  0  0  0  0  0  0
    1.9253   -1.1169   -0.7206 C   0  0  0  0  0  0  0  0  0  0  0  0
    0.0573   -0.2519    0.7235 C   0  0  0  0  0  0  0  0  0  0  0  0
   -0.9418   -0.4416    1.6820 C   0  0  0  0  0  0  0  0  0  0  0  0
   -3.5199   -0.0072    4.1513 C   0  0  0  0  0  0  0  0  0  0  0  0
   -2.5424    0.5775    5.3804 S   0  0  0  0  0  0  0  0  0  0  0  0
   -4.4080   -1.7200    0.9632 C   0  0  0  0  0  0  0  0  0  0  0  0
   -4.5506   -3.1127    0.8012 C   0  0  0  0  0  0  0  0  0  0  0  0
   -4.5757   -4.1186    1.8694 C   0  0  0  0  0  0  0  0  0  0  0  0
   -3.4845   -4.9776    2.0365 C   0  0  0  0  0  0  0  0  0  0  0  0
   -3.5316   -6.0045    2.9829 C   0  0  0  0  0  0  0  0  0  0  0  0
   -4.6972   -6.2100    3.7334 C   0  0  0  0  0  0  0  0  0  0  0  0
   -5.8115   -5.3797    3.5482 C   0  0  0  0  0  0  0  0  0  0  0  0
   -7.1009   -5.6781    4.2721 C   0  0  0  0  0  0  0  0  0  0  0  0
   -7.9039   -6.7308    3.5174 C   0  0  0  0  0  0  0  0  0  0  0  0
   -5.7446   -4.3265    2.6173 C   0  0  0  0  0  0  0  0  0  0  0  0
   -4.6345   -3.4494   -0.5516 C   0  0  0  0  0  0  0  0  0  0  0  0
   -4.6724   -4.9315   -1.3879 S   0  0  0  0  0  0  0  0  0  0  0  0
   -4.6145   -4.1380   -2.8908 C   0  0  0  0  0  0  0  0  0  0  0  0
   -4.0639   -4.4687   -4.0976 C   0  0  0  0  0  0  0  0  0  0  0  0
   -3.5401   -5.6967   -4.5249 C   0  0  0  0  0  0  0  0  0  0  0  0
   -2.5912   -5.7106   -5.5872 C   0  0  0  0  0  0  0  0  0  0  0  0
   -2.0355   -6.9065   -5.8985 N   0  0  0  0  0  0  0  0  0  0  0  0
   -2.8071   -7.8708   -4.7985 S   0  0  0  0  0  0  0  0  0  0  0  0
   -3.8019   -6.8828   -3.9238 N   0  0  0  0  0  0  0  0  0  0  0  0
   -2.2537   -4.5022   -6.2082 C   0  0  0  0  0  0  0  0  0  0  0  0
   -1.1735   -4.1769   -6.9900 C   0  0  0  0  0  0  0  0  0  0  0  0
    0.3937   -4.8102   -6.8295 S   0  0  0  0  0  0  0  0  0  0  0  0
    1.1071   -3.2777   -6.8279 C   0  0  0  0  0  0  0  0  0  0  0  0
    2.2964   -2.8662   -6.2101 C   0  0  0  0  0  0  0  0  0  0  0  0
    3.2759   -3.8383   -5.7080 C   0  0  0  0  0  0  0  0  0  0  0  0
    4.4413   -4.1126   -6.4391 C   0  0  0  0  0  0  0  0  0  0  0  0
    5.3599   -5.0513   -5.9625 C   0  0  0  0  0  0  0  0  0  0  0  0
    5.1012   -5.7503   -4.7773 C   0  0  0  0  0  0  0  0  0  0  0  0
    3.9242   -5.4975   -4.0508 C   0  0  0  0  0  0  0  0  0  0  0  0
    3.5851   -6.3235   -2.8414 C   0  0  0  0  0  0  0  0  0  0  0  0
    2.6789   -7.4889   -3.2285 C   0  0  0  0  0  0  0  0  0  0  0  0
    3.0197   -4.5343   -4.5200 C   0  0  0  0  0  0  0  0  0  0  0  0
    2.2357   -1.5094   -5.8299 C   0  0  0  0  0  0  0  0  0  0  0  0
    0.7140   -0.8966   -6.2633 S   0  0  0  0  0  0  0  0  0  0  0  0
    0.1436   -2.3072   -6.9630 C   0  0  0  0  0  0  0  0  0  0  0  0
   -1.1613   -2.7950   -7.0663 C   0  0  0  0  0  0  0  0  0  0  0  0
   -2.2345   -2.2435   -6.4483 N   0  0  0  0  0  0  0  0  0  0  0  0
   -2.8255   -3.2920   -5.8200 C   0  0  0  0  0  0  0  0  0  0  0  0
   -3.6711   -3.2509   -4.6844 C   0  0  0  0  0  0  0  0  0  0  0  0
   -3.9032   -2.1988   -3.8280 N   0  0  0  0  0  0  0  0  0  0  0  0
   -4.5051   -2.7841   -2.7572 C   0  0  0  0  0  0  0  0  0  0  0  0
   -4.5352   -2.3986   -1.4188 C   0  0  0  0  0  0  0  0  0  0  0  0
   -4.3530   -0.9708   -0.5621 S   0  0  0  0  0  0  0  0  0  0  0  0
   -3.1768   -0.9233   -3.7423 C   0  0  0  0  0  0  0  0  0  0  0  0
   -4.1348    0.2636   -3.8509 C   0  0  0  0  0  0  0  0  0  0  0  0
   -3.0617   -1.2246   -7.1128 C   0  0  0  0  0  0  0  0  0  0  0  0
   -2.3222    0.0979   -7.2867 C   0  0  0  0  0  0  0  0  0  0  0  0
    3.1906   -0.7402   -4.9921 C   0  0  0  0  0  0  0  0  0  0  0  0
    4.4734   -1.1136   -4.5927 C   0  0  0  0  0  0  0  0  0  0  0  0
    5.1417   -0.1238   -3.8528 C   0  0  0  0  0  0  0  0  0  0  0  0
    6.4692   -0.1918   -3.3792 C   0  0  0  0  0  0  0  0  0  0  0  0
    7.3208   -1.3857   -3.5663 C   0  0  0  0  0  0  0  0  0  0  0  0
    7.9680   -2.0778   -2.5467 C   0  0  0  0  0  0  0  0  0  0  0  0
    8.6937   -3.1860   -3.0029 C   0  0  0  0  0  0  0  0  0  0  0  0
    9.4106   -4.1246   -2.0739 C   0  0  0  0  0  0  0  0  0  0  0  0
    8.4782   -5.2359   -1.6060 C   0  0  0  0  0  0  0  0  0  0  0  0
    8.6112   -3.3676   -4.3859 C   0  0  0  0  0  0  0  0  0  0  0  0
    9.3274   -4.6630   -5.3214 Cl  0  0  0  0  0  0  0  0  0  0  0  0
    7.6612   -2.1459   -5.0349 S   0  0  0  0  0  0  0  0  0  0  0  0
    6.9634    0.9504   -2.7220 C   0  0  0  0  0  0  0  0  0  0  0  0
    6.1876    2.0993   -2.5073 C   0  0  0  0  0  0  0  0  0  0  0  0
    4.8430    2.1485   -2.9425 C   0  0  0  0  0  0  0  0  0  0  0  0
    3.9862    3.3403   -2.7436 C   0  0  0  0  0  0  0  0  0  0  0  0
    2.7006    3.3350   -2.2071 C   0  0  0  0  0  0  0  0  0  0  0  0
    2.1133    4.6068   -2.1524 C   0  0  0  0  0  0  0  0  0  0  0  0
    0.7419    4.8446   -1.5886 C   0  0  0  0  0  0  0  0  0  0  0  0
    0.7772    4.8788   -0.0617 C   0  0  0  0  0  0  0  0  0  0  0  0
    2.9429    5.6140   -2.6484 C   0  0  0  0  0  0  0  0  0  0  0  0
    4.3838    4.9260   -3.1684 S   0  0  0  0  0  0  0  0  0  0  0  0
    2.5955    7.3314   -2.7124 Cl  0  0  0  0  0  0  0  0  0  0  0  0
    4.3615    1.0183   -3.6249 C   0  0  0  0  0  0  0  0  0  0  0  0
    2.8740    0.8093   -4.3813 S   0  0  0  0  0  0  0  0  0  0  0  0
    6.9147    3.1395   -1.9010 C   0  0  0  0  0  0  0  0  0  0  0  0
    8.2534    2.8230   -1.7082 C   0  0  0  0  0  0  0  0  0  0  0  0
    8.5459    1.2420   -2.2157 S   0  0  0  0  0  0  0  0  0  0  0  0
    9.2973    3.8007   -1.3903 C   0  0  0  0  0  0  0  0  0  0  0  0
   10.0151    4.4157   -2.3544 C   0  0  0  0  0  0  0  0  0  0  0  0
    9.8054    4.2993   -3.8003 C   0  0  0  0  0  0  0  0  0  0  0  0
    9.0884    3.4382   -4.3812 O   0  0  0  0  0  0  0  0  0  0  0  0
   10.5105    5.3838   -4.4599 C   0  0  0  0  0  0  0  0  0  0  0  0
   10.4801    5.7530   -5.8082 C   0  0  0  0  0  0  0  0  0  0  0  0
    9.6656    4.7441   -7.0035 Cl  0  0  0  0  0  0  0  0  0  0  0  0
   11.1006    6.9605   -6.1846 C   0  0  0  0  0  0  0  0  0  0  0  0
   11.1204    7.4361   -7.8852 Cl  0  0  0  0  0  0  0  0  0  0  0  0
   11.6508    7.8111   -5.2018 C   0  0  0  0  0  0  0  0  0  0  0  0
   12.3219    9.3799   -5.6716 Cl  0  0  0  0  0  0  0  0  0  0  0  0
   11.6354    7.4326   -3.8412 C   0  0  0  0  0  0  0  0  0  0  0  0
   11.9696    8.6487   -2.6083 Cl  0  0  0  0  0  0  0  0  0  0  0  0
   11.1568    6.1477   -3.5009 C   0  0  0  0  0  0  0  0  0  0  0  0
   11.0352    5.4806   -2.1714 C   0  0  0  0  0  0  0  0  0  0  0  0
   11.9742    5.4991   -1.1879 C   0  0  0  0  0  0  0  0  0  0  0  0
   11.8728    4.6753   -0.0122 C   0  0  0  0  0  0  0  0  0  0  0  0
   11.8086    4.0212    0.9405 N   0  0  0  0  0  0  0  0  0  0  0  0
   13.2366    6.1752   -1.3524 C   0  0  0  0  0  0  0  0  0  0  0  0
   14.2585    6.7035   -1.4745 N   0  0  0  0  0  0  0  0  0  0  0  0
   -2.1425    3.5109    6.3627 H   0  0  0  0  0  0  0  0  0  0  0  0
   -7.0916    4.6021    2.9537 H   0  0  0  0  0  0  0  0  0  0  0  0
   -9.4824    4.2708    2.5649 H   0  0  0  0  0  0  0  0  0  0  0  0
  -11.2856    1.2585    3.2050 H   0  0  0  0  0  0  0  0  0  0  0  0
  -11.6229    2.4436    4.5284 H   0  0  0  0  0  0  0  0  0  0  0  0
  -11.4952    3.0054    2.8229 H   0  0  0  0  0  0  0  0  0  0  0  0
   -9.4108    0.7571    5.0579 H   0  0  0  0  0  0  0  0  0  0  0  0
   -7.0225    1.0955    5.4741 H   0  0  0  0  0  0  0  0  0  0  0  0
   -6.6096    5.1337    5.9059 H   0  0  0  0  0  0  0  0  0  0  0  0
   -5.7621    7.4188    6.1558 H   0  0  0  0  0  0  0  0  0  0  0  0
   -2.3517    8.4712    5.1339 H   0  0  0  0  0  0  0  0  0  0  0  0
   -3.8206    9.1225    4.2987 H   0  0  0  0  0  0  0  0  0  0  0  0
   -3.8033    8.9096    6.0956 H   0  0  0  0  0  0  0  0  0  0  0  0
   -2.3890    6.4423    3.6533 H   0  0  0  0  0  0  0  0  0  0  0  0
   -3.2490    4.1533    3.3886 H   0  0  0  0  0  0  0  0  0  0  0  0
    0.1054   -2.7200    4.3959 H   0  0  0  0  0  0  0  0  0  0  0  0
    0.3496   -4.2937    6.2529 H   0  0  0  0  0  0  0  0  0  0  0  0
   -0.6352   -6.0587    7.6315 H   0  0  0  0  0  0  0  0  0  0  0  0
   -2.4071   -6.3600    7.5831 H   0  0  0  0  0  0  0  0  0  0  0  0
   -1.7502   -5.0179    8.6068 H   0  0  0  0  0  0  0  0  0  0  0  0
   -3.9356   -4.6378    6.5383 H   0  0  0  0  0  0  0  0  0  0  0  0
   -4.1898   -3.0827    4.6770 H   0  0  0  0  0  0  0  0  0  0  0  0
   -0.6188   -3.8055    2.1171 H   0  0  0  0  0  0  0  0  0  0  0  0
    1.1351   -3.4699    0.4431 H   0  0  0  0  0  0  0  0  0  0  0  0
    2.8085   -0.6994   -0.1894 H   0  0  0  0  0  0  0  0  0  0  0  0
    2.2183   -2.0640   -1.2200 H   0  0  0  0  0  0  0  0  0  0  0  0
    1.6071   -0.4001   -1.5067 H   0  0  0  0  0  0  0  0  0  0  0  0
    0.2600    0.7494    0.3579 H   0  0  0  0  0  0  0  0  0  0  0  0
   -1.4968    0.4211    2.0269 H   0  0  0  0  0  0  0  0  0  0  0  0
   -2.5972   -4.8627    1.4266 H   0  0  0  0  0  0  0  0  0  0  0  0
   -2.6794   -6.6559    3.1218 H   0  0  0  0  0  0  0  0  0  0  0  0
   -4.7300   -7.0232    4.4450 H   0  0  0  0  0  0  0  0  0  0  0  0
   -6.8849   -6.0459    5.2981 H   0  0  0  0  0  0  0  0  0  0  0  0
   -7.7094   -4.7516    4.3739 H   0  0  0  0  0  0  0  0  0  0  0  0
   -8.8638   -6.9182    4.0431 H   0  0  0  0  0  0  0  0  0  0  0  0
   -7.3330   -7.6857    3.4553 H   0  0  0  0  0  0  0  0  0  0  0  0
   -8.1310   -6.3800    2.4859 H   0  0  0  0  0  0  0  0  0  0  0  0
   -6.6147   -3.7010    2.4458 H   0  0  0  0  0  0  0  0  0  0  0  0
    4.6423   -3.5929   -7.3676 H   0  0  0  0  0  0  0  0  0  0  0  0
    6.2663   -5.2507   -6.5186 H   0  0  0  0  0  0  0  0  0  0  0  0
    5.8070   -6.5054   -4.4390 H   0  0  0  0  0  0  0  0  0  0  0  0
    3.0657   -5.6915   -2.0854 H   0  0  0  0  0  0  0  0  0  0  0  0
    4.5108   -6.7194   -2.3628 H   0  0  0  0  0  0  0  0  0  0  0  0
    2.4286   -8.0854   -2.3270 H   0  0  0  0  0  0  0  0  0  0  0  0
    1.7357   -7.1136   -3.6797 H   0  0  0  0  0  0  0  0  0  0  0  0
    3.1938   -8.1496   -3.9587 H   0  0  0  0  0  0  0  0  0  0  0  0
    2.1052   -4.3428   -3.9707 H   0  0  0  0  0  0  0  0  0  0  0  0
   -2.3868   -0.8366   -4.4997 H   0  0  0  0  0  0  0  0  0  0  0  0
   -2.6267   -0.8633   -2.7778 H   0  0  0  0  0  0  0  0  0  0  0  0
   -4.5278    0.3580   -4.8816 H   0  0  0  0  0  0  0  0  0  0  0  0
   -3.5943    1.1930   -3.5854 H   0  0  0  0  0  0  0  0  0  0  0  0
   -4.9944    0.1443   -3.1588 H   0  0  0  0  0  0  0  0  0  0  0  0
   -3.3752   -1.6001   -8.1118 H   0  0  0  0  0  0  0  0  0  0  0  0
   -3.9929   -1.0463   -6.5408 H   0  0  0  0  0  0  0  0  0  0  0  0
   -3.0262    0.8662   -7.6701 H   0  0  0  0  0  0  0  0  0  0  0  0
   -1.4993   -0.0176   -8.0212 H   0  0  0  0  0  0  0  0  0  0  0  0
   -1.9159    0.4564   -6.3171 H   0  0  0  0  0  0  0  0  0  0  0  0
    4.9226   -2.0528   -4.8475 H   0  0  0  0  0  0  0  0  0  0  0  0
    7.9017   -1.7979   -1.5027 H   0  0  0  0  0  0  0  0  0  0  0  0
    9.7758   -3.5582   -1.1874 H   0  0  0  0  0  0  0  0  0  0  0  0
   10.2985   -4.5670   -2.5750 H   0  0  0  0  0  0  0  0  0  0  0  0
    7.5770   -4.8046   -1.1196 H   0  0  0  0  0  0  0  0  0  0  0  0
    8.1640   -5.8624   -2.4687 H   0  0  0  0  0  0  0  0  0  0  0  0
    9.0058   -5.8800   -0.8718 H   0  0  0  0  0  0  0  0  0  0  0  0
    2.2062    2.4391   -1.8517 H   0  0  0  0  0  0  0  0  0  0  0  0
    0.0624    4.0264   -1.9167 H   0  0  0  0  0  0  0  0  0  0  0  0
    0.3187    5.8004   -1.9702 H   0  0  0  0  0  0  0  0  0  0  0  0
    1.1694    3.9185    0.3362 H   0  0  0  0  0  0  0  0  0  0  0  0
    1.4175    5.7177    0.2926 H   0  0  0  0  0  0  0  0  0  0  0  0
   -0.2537    5.0291    0.3275 H   0  0  0  0  0  0  0  0  0  0  0  0
    6.5143    4.1159   -1.6681 H   0  0  0  0  0  0  0  0  0  0  0  0
    9.3912    4.1035   -0.3557 H   0  0  0  0  0  0  0  0  0  0  0  0
  1  2  2  3
  2  3  1  0
  3  4  2  0
  3  5  1  0
  5  6  2  0
  6  7  1  0
  6  8  1  0
  8  9  1  0
  8 10  2  0
 10 11  1  0
 10 12  1  0
 12 13  1  0
 12 14  2  0
 14 15  1  0
 15 16  2  3
 16 17  1  0
 17 18  3  0
 16 19  1  0
 19 20  3  0
  1 21  1  0
 21 22  2  0
 22 23  1  0
 23 24  1  0
 24 25  2  0
 25 26  1  0
 26 27  2  0
 27 28  1  0
 27 29  1  0
 29 30  2  0
 23 31  1  0
 31 32  2  0
 32 33  1  0
 33 34  2  0
 34 35  1  0
 34 36  1  0
 36 37  2  0
 22 38  1  0
 38 39  1  0
 39 40  1  0
 40 41  2  0
 41 42  1  0
 42 43  1  0
 43 44  2  0
 44 45  1  0
 45 46  2  0
 46 47  1  0
 46 48  1  0
 48 49  2  0
 42 50  1  0
 50 51  2  0
 51 52  1  0
 52 53  2  0
 53 54  1  0
 53 55  1  0
 55 56  2  0
 41 57  1  0
 57 58  1  0
 40 59  1  0
 59 60  2  0
 60 61  1  0
 61 62  2  0
 62 63  1  0
 63 64  2  0
 64 65  1  0
 65 66  1  0
 66 67  1  0
 65 68  2  0
 60 69  1  0
 69 70  1  0
 70 71  1  0
 71 72  1  0
 72 73  1  0
 73 74  1  0
 74 75  2  0
 75 76  1  0
 76 77  1  0
 74 78  1  0
 78 79  1  0
 79 80  1  0
 80 81  1  0
 81 82  1  0
 82 83  1  0
 83 84  2  0
 84 85  1  0
 85 86  2  0
 86 87  1  0
 87 88  1  0
 88 89  1  0
 87 90  2  0
 82 91  2  0
 91 92  1  0
 92 93  1  0
 93 94  1  0
 94 95  1  0
 95 96  1  0
 96 97  1  0
 97 98  1  0
 98 99  1  0
 99100  1  0
100101  1  0
 98102  1  0
102103  1  0
 95104  1  0
104105  1  0
 91106  1  0
106107  2  0
107108  1  0
108109  2  0
109110  1  0
110111  2  0
111112  1  0
112113  1  0
113114  1  0
112115  2  0
115116  1  0
115117  1  0
109118  1  0
118119  2  0
119120  1  0
120121  1  0
121122  2  0
122123  1  0
123124  1  0
124125  1  0
123126  2  0
126127  1  0
126128  1  0
120129  2  0
129130  1  0
119131  1  0
131132  2  0
132133  1  0
132134  1  0
134135  2  3
135136  1  0
136137  2  0
136138  1  0
138139  2  0
139140  1  0
139141  1  0
141142  1  0
141143  2  0
143144  1  0
143145  1  0
145146  1  0
145147  2  0
147148  1  0
148149  2  3
149150  1  0
150151  3  0
149152  1  0
152153  3  0
 15  2  1  0
 58 21  1  0
101 59  1  0
130106  1  0
148135  1  0
 14  5  1  0
 30 24  1  0
 37 31  1  0
 57 38  2  0
 68 61  1  0
100 69  2  0
129108  1  0
147138  1  0
 49 43  1  0
 56 50  1  0
 99 71  2  0
117110  1  0
133118  1  0
 97 72  2  0
127121  1  0
 77 73  2  0
 96 78  2  0
 94 79  2  0
 93 81  2  0
 90 83  1  0
  1154  1  0
 25155  1  0
 26156  1  0
 28157  1  0
 28158  1  0
 28159  1  0
 29160  1  0
 30161  1  0
 32162  1  0
 33163  1  0
 35164  1  0
 35165  1  0
 35166  1  0
 36167  1  0
 37168  1  0
 44169  1  0
 45170  1  0
 47171  1  0
 47172  1  0
 47173  1  0
 48174  1  0
 49175  1  0
 51176  1  0
 52177  1  0
 54178  1  0
 54179  1  0
 54180  1  0
 55181  1  0
 56182  1  0
 62183  1  0
 63184  1  0
 64185  1  0
 66186  1  0
 66187  1  0
 67188  1  0
 67189  1  0
 67190  1  0
 68191  1  0
 84192  1  0
 85193  1  0
 86194  1  0
 88195  1  0
 88196  1  0
 89197  1  0
 89198  1  0
 89199  1  0
 90200  1  0
102201  1  0
102202  1  0
103203  1  0
103204  1  0
103205  1  0
104206  1  0
104207  1  0
105208  1  0
105209  1  0
105210  1  0
107211  1  0
111212  1  0
113213  1  0
113214  1  0
114215  1  0
114216  1  0
114217  1  0
122218  1  0
124219  1  0
124220  1  0
125221  1  0
125222  1  0
125223  1  0
131224  1  0
134225  1  0
M  END

