
     RDKit          3D

249274  0  0  0  0  0  0  0  0999 V2000
   -3.7440   -8.0203    5.7367 C   0  0  0  0  0  0  0  0  0  0  0  0
   -2.5473   -7.4175    5.9352 C   0  0  0  0  0  0  0  0  0  0  0  0
   -1.4955   -7.2786    4.9175 C   0  0  0  0  0  0  0  0  0  0  0  0
   -1.3539   -8.0185    3.9016 O   0  0  0  0  0  0  0  0  0  0  0  0
   -0.5335   -6.2856    5.3456 C   0  0  0  0  0  0  0  0  0  0  0  0
    0.6626   -5.9109    4.7221 C   0  0  0  0  0  0  0  0  0  0  0  0
    1.1080   -6.5468    3.1326 Cl  0  0  0  0  0  0  0  0  0  0  0  0
    1.5352   -5.0543    5.4116 C   0  0  0  0  0  0  0  0  0  0  0  0
    3.0339   -4.5362    4.6433 Cl  0  0  0  0  0  0  0  0  0  0  0  0
    1.2222   -4.6278    6.7193 C   0  0  0  0  0  0  0  0  0  0  0  0
    2.3467   -3.5735    7.5905 Cl  0  0  0  0  0  0  0  0  0  0  0  0
    0.0202   -5.0393    7.3408 C   0  0  0  0  0  0  0  0  0  0  0  0
   -0.1901   -4.7282    9.0606 Cl  0  0  0  0  0  0  0  0  0  0  0  0
   -0.8924   -5.8184    6.5928 C   0  0  0  0  0  0  0  0  0  0  0  0
   -2.1839   -6.4410    7.0152 C   0  0  0  0  0  0  0  0  0  0  0  0
   -3.0704   -5.8626    7.8589 C   0  0  0  0  0  0  0  0  0  0  0  0
   -3.0620   -4.4435    8.0934 C   0  0  0  0  0  0  0  0  0  0  0  0
   -3.0652   -3.2954    8.2579 N   0  0  0  0  0  0  0  0  0  0  0  0
   -4.0998   -6.6153    8.5308 C   0  0  0  0  0  0  0  0  0  0  0  0
   -4.9216   -7.2193    9.0794 N   0  0  0  0  0  0  0  0  0  0  0  0
   -4.2568   -8.2093    4.3708 C   0  0  0  0  0  0  0  0  0  0  0  0
   -4.6316   -7.1077    3.5902 C   0  0  0  0  0  0  0  0  0  0  0  0
   -5.1606   -5.8832    4.1412 N   0  0  0  0  0  0  0  0  0  0  0  0
   -6.1608   -5.9512    5.1811 C   0  0  0  0  0  0  0  0  0  0  0  0
   -7.1500   -6.9540    5.1722 C   0  0  0  0  0  0  0  0  0  0  0  0
   -8.1310   -6.9995    6.1725 C   0  0  0  0  0  0  0  0  0  0  0  0
   -8.1438   -6.0351    7.1920 C   0  0  0  0  0  0  0  0  0  0  0  0
   -9.1866   -6.0873    8.2719 C   0  0  0  0  0  0  0  0  0  0  0  0
   -7.1497   -5.0442    7.2173 C   0  0  0  0  0  0  0  0  0  0  0  0
   -6.1735   -5.0017    6.2180 C   0  0  0  0  0  0  0  0  0  0  0  0
   -4.8086   -4.6081    3.5794 C   0  0  0  0  0  0  0  0  0  0  0  0
   -3.4582   -4.2326    3.4616 C   0  0  0  0  0  0  0  0  0  0  0  0
   -3.1241   -2.9839    2.9342 C   0  0  0  0  0  0  0  0  0  0  0  0
   -4.1307   -2.0946    2.5190 C   0  0  0  0  0  0  0  0  0  0  0  0
   -3.7720   -0.7685    1.9203 C   0  0  0  0  0  0  0  0  0  0  0  0
   -5.4768   -2.4790    2.6307 C   0  0  0  0  0  0  0  0  0  0  0  0
   -5.8107   -3.7249    3.1625 C   0  0  0  0  0  0  0  0  0  0  0  0
   -4.4275   -7.3587    2.2306 C   0  0  0  0  0  0  0  0  0  0  0  0
   -4.2220   -6.3591    0.9224 S   0  0  0  0  0  0  0  0  0  0  0  0
   -3.6012   -7.5560   -0.1122 C   0  0  0  0  0  0  0  0  0  0  0  0
   -3.6218   -8.8152    0.5550 C   0  0  0  0  0  0  0  0  0  0  0  0
   -3.8957  -10.0458   -0.1622 N   0  0  0  0  0  0  0  0  0  0  0  0
   -5.0456  -10.0678   -1.0170 C   0  0  0  0  0  0  0  0  0  0  0  0
   -6.2794  -10.4899   -0.5065 C   0  0  0  0  0  0  0  0  0  0  0  0
   -7.4086  -10.5169   -1.3295 C   0  0  0  0  0  0  0  0  0  0  0  0
   -7.3106  -10.1300   -2.6764 C   0  0  0  0  0  0  0  0  0  0  0  0
   -8.5337  -10.1412   -3.5446 C   0  0  0  0  0  0  0  0  0  0  0  0
   -6.0708   -9.7154   -3.1869 C   0  0  0  0  0  0  0  0  0  0  0  0
   -4.9467   -9.6777   -2.3592 C   0  0  0  0  0  0  0  0  0  0  0  0
   -3.1929  -11.2921    0.0294 C   0  0  0  0  0  0  0  0  0  0  0  0
   -2.5919  -11.9194   -1.0723 C   0  0  0  0  0  0  0  0  0  0  0  0
   -1.9482  -13.1508   -0.9353 C   0  0  0  0  0  0  0  0  0  0  0  0
   -1.9257  -13.8035    0.3051 C   0  0  0  0  0  0  0  0  0  0  0  0
   -1.2563  -15.1359    0.4459 C   0  0  0  0  0  0  0  0  0  0  0  0
   -2.6350  -13.2463    1.3774 C   0  0  0  0  0  0  0  0  0  0  0  0
   -3.2838  -12.0112    1.2318 C   0  0  0  0  0  0  0  0  0  0  0  0
   -4.0361   -8.6216    1.8950 C   0  0  0  0  0  0  0  0  0  0  0  0
   -3.8050   -9.4784    3.3324 S   0  0  0  0  0  0  0  0  0  0  0  0
   -2.8842   -7.1569   -1.3540 C   0  0  0  0  0  0  0  0  0  0  0  0
   -1.6870   -7.7058   -1.8902 C   0  0  0  0  0  0  0  0  0  0  0  0
   -0.9335   -8.8769   -1.3782 C   0  0  0  0  0  0  0  0  0  0  0  0
   -0.5290   -8.8796   -0.0318 C   0  0  0  0  0  0  0  0  0  0  0  0
    0.2992   -9.8886    0.4562 C   0  0  0  0  0  0  0  0  0  0  0  0
    0.7667  -10.8860   -0.3997 C   0  0  0  0  0  0  0  0  0  0  0  0
    0.4091  -10.8811   -1.7476 C   0  0  0  0  0  0  0  0  0  0  0  0
   -0.4722   -9.9014   -2.2572 C   0  0  0  0  0  0  0  0  0  0  0  0
   -0.9233   -9.9385   -3.7159 C   0  0  0  0  0  0  0  0  0  0  0  0
   -0.8201  -11.3002   -4.4107 C   0  0  0  0  0  0  0  0  0  0  0  0
   -1.0966   -6.8323   -2.8110 C   0  0  0  0  0  0  0  0  0  0  0  0
    0.4835   -6.7695   -3.4356 S   0  0  0  0  0  0  0  0  0  0  0  0
    0.2465   -5.2138   -4.0483 C   0  0  0  0  0  0  0  0  0  0  0  0
    1.0874   -4.1705   -4.2850 C   0  0  0  0  0  0  0  0  0  0  0  0
    2.4873   -4.1651   -4.2984 C   0  0  0  0  0  0  0  0  0  0  0  0
    3.1692   -2.9248   -4.2111 C   0  0  0  0  0  0  0  0  0  0  0  0
    4.5271   -2.9597   -4.1910 N   0  0  0  0  0  0  0  0  0  0  0  0
    4.7606   -4.5951   -4.2709 S   0  0  0  0  0  0  0  0  0  0  0  0
    3.2544   -5.2839   -4.3326 N   0  0  0  0  0  0  0  0  0  0  0  0
    2.4154   -1.7547   -4.1504 C   0  0  0  0  0  0  0  0  0  0  0  0
    2.8103   -0.4558   -4.0537 C   0  0  0  0  0  0  0  0  0  0  0  0
    4.2133    0.4410   -3.7417 S   0  0  0  0  0  0  0  0  0  0  0  0
    3.2972    1.8769   -3.6879 C   0  0  0  0  0  0  0  0  0  0  0  0
    3.5939    3.1769   -3.2914 C   0  0  0  0  0  0  0  0  0  0  0  0
    4.9237    3.6370   -2.8271 C   0  0  0  0  0  0  0  0  0  0  0  0
    5.3172    3.5483   -1.4654 C   0  0  0  0  0  0  0  0  0  0  0  0
    4.5103    2.7758   -0.4443 C   0  0  0  0  0  0  0  0  0  0  0  0
    5.2033    1.4627   -0.0917 C   0  0  0  0  0  0  0  0  0  0  0  0
    6.5020    4.1804   -1.0512 C   0  0  0  0  0  0  0  0  0  0  0  0
    7.2922    4.8748   -1.9690 C   0  0  0  0  0  0  0  0  0  0  0  0
    6.9287    4.9279   -3.3084 C   0  0  0  0  0  0  0  0  0  0  0  0
    5.7549    4.3046   -3.7406 C   0  0  0  0  0  0  0  0  0  0  0  0
    2.4213    3.9619   -3.2492 C   0  0  0  0  0  0  0  0  0  0  0  0
    1.0575    3.0255   -3.6631 S   0  0  0  0  0  0  0  0  0  0  0  0
    1.9612    1.6394   -3.9212 C   0  0  0  0  0  0  0  0  0  0  0  0
    1.6922    0.2937   -4.1075 C   0  0  0  0  0  0  0  0  0  0  0  0
    0.5559   -0.4397   -4.2301 N   0  0  0  0  0  0  0  0  0  0  0  0
    1.0033   -1.7430   -4.1856 C   0  0  0  0  0  0  0  0  0  0  0  0
    0.3131   -2.9994   -4.1561 C   0  0  0  0  0  0  0  0  0  0  0  0
   -0.9651   -3.3301   -3.7443 N   0  0  0  0  0  0  0  0  0  0  0  0
   -0.9626   -4.6955   -3.7115 C   0  0  0  0  0  0  0  0  0  0  0  0
   -1.7440   -5.6352   -3.0157 C   0  0  0  0  0  0  0  0  0  0  0  0
   -3.1046   -5.6069   -2.0425 S   0  0  0  0  0  0  0  0  0  0  0  0
   -1.9541   -2.5041   -3.0441 C   0  0  0  0  0  0  0  0  0  0  0  0
   -1.4178   -2.0010   -1.7071 C   0  0  0  0  0  0  0  0  0  0  0  0
   -0.7136    0.1322   -4.7071 C   0  0  0  0  0  0  0  0  0  0  0  0
   -1.2082   -0.5473   -5.9857 C   0  0  0  0  0  0  0  0  0  0  0  0
    2.3279    5.2948   -2.6563 C   0  0  0  0  0  0  0  0  0  0  0  0
    1.9798    6.4844   -3.3104 C   0  0  0  0  0  0  0  0  0  0  0  0
    1.5807    6.5796   -4.6860 N   0  0  0  0  0  0  0  0  0  0  0  0
    2.6086    6.8532   -5.6449 C   0  0  0  0  0  0  0  0  0  0  0  0
    3.4734    5.8338   -6.0578 C   0  0  0  0  0  0  0  0  0  0  0  0
    4.5400    6.1169   -6.9168 C   0  0  0  0  0  0  0  0  0  0  0  0
    4.7420    7.4266   -7.3802 C   0  0  0  0  0  0  0  0  0  0  0  0
    5.9280    7.7258   -8.2488 C   0  0  0  0  0  0  0  0  0  0  0  0
    3.8553    8.4429   -6.9872 C   0  0  0  0  0  0  0  0  0  0  0  0
    2.7964    8.1592   -6.1250 C   0  0  0  0  0  0  0  0  0  0  0  0
    0.1793    6.5529   -5.0548 C   0  0  0  0  0  0  0  0  0  0  0  0
   -0.8302    6.5553   -4.0683 C   0  0  0  0  0  0  0  0  0  0  0  0
   -2.1806    6.5310   -4.4297 C   0  0  0  0  0  0  0  0  0  0  0  0
   -2.5495    6.4760   -5.7797 C   0  0  0  0  0  0  0  0  0  0  0  0
   -3.9976    6.4984   -6.1698 C   0  0  0  0  0  0  0  0  0  0  0  0
   -1.5591    6.4906   -6.7689 C   0  0  0  0  0  0  0  0  0  0  0  0
   -0.2080    6.5196   -6.4110 C   0  0  0  0  0  0  0  0  0  0  0  0
    2.1456    7.5832   -2.4669 C   0  0  0  0  0  0  0  0  0  0  0  0
    2.1509    9.2472   -2.6942 S   0  0  0  0  0  0  0  0  0  0  0  0
    2.6992    9.5851   -1.1122 C   0  0  0  0  0  0  0  0  0  0  0  0
    2.9195    8.3751   -0.4197 C   0  0  0  0  0  0  0  0  0  0  0  0
    3.6408    8.2403    0.8256 N   0  0  0  0  0  0  0  0  0  0  0  0
    4.8733    8.9660    1.0155 C   0  0  0  0  0  0  0  0  0  0  0  0
    5.7820    9.1134   -0.0479 C   0  0  0  0  0  0  0  0  0  0  0  0
    6.9603    9.8478    0.1308 C   0  0  0  0  0  0  0  0  0  0  0  0
    7.2458   10.4453    1.3665 C   0  0  0  0  0  0  0  0  0  0  0  0
    8.5188   11.2091    1.5682 C   0  0  0  0  0  0  0  0  0  0  0  0
    6.3554   10.2648    2.4411 C   0  0  0  0  0  0  0  0  0  0  0  0
    5.1744    9.5333    2.2624 C   0  0  0  0  0  0  0  0  0  0  0  0
    3.2302    7.2385    1.7857 C   0  0  0  0  0  0  0  0  0  0  0  0
    4.1871    6.4242    2.4240 C   0  0  0  0  0  0  0  0  0  0  0  0
    3.7862    5.4347    3.3255 C   0  0  0  0  0  0  0  0  0  0  0  0
    2.4247    5.2447    3.6121 C   0  0  0  0  0  0  0  0  0  0  0  0
    1.9902    4.1700    4.5629 C   0  0  0  0  0  0  0  0  0  0  0  0
    1.4665    6.0315    2.9595 C   0  0  0  0  0  0  0  0  0  0  0  0
    1.8670    7.0169    2.0546 C   0  0  0  0  0  0  0  0  0  0  0  0
    2.5742    7.2894   -1.2142 C   0  0  0  0  0  0  0  0  0  0  0  0
    2.8040    5.6363   -1.0650 S   0  0  0  0  0  0  0  0  0  0  0  0
    3.1191   10.9234   -0.6623 C   0  0  0  0  0  0  0  0  0  0  0  0
    2.7551   11.4457    0.5216 C   0  0  0  0  0  0  0  0  0  0  0  0
    1.7712   10.8488    1.4214 C   0  0  0  0  0  0  0  0  0  0  0  0
    0.8212   10.0938    1.0836 O   0  0  0  0  0  0  0  0  0  0  0  0
    1.9899   11.3674    2.7485 C   0  0  0  0  0  0  0  0  0  0  0  0
    1.3606   10.9843    3.9334 C   0  0  0  0  0  0  0  0  0  0  0  0
    1.7590   11.5914    5.1294 C   0  0  0  0  0  0  0  0  0  0  0  0
    2.7768   12.5656    5.1226 C   0  0  0  0  0  0  0  0  0  0  0  0
    3.3112   13.3809    6.7610 Br  0  0  0  0  0  0  0  0  0  0  0  0
    3.3994   12.9357    3.9166 C   0  0  0  0  0  0  0  0  0  0  0  0
    2.9882   12.3282    2.7143 C   0  0  0  0  0  0  0  0  0  0  0  0
    3.4657   12.5080    1.3082 C   0  0  0  0  0  0  0  0  0  0  0  0
    4.2825   13.4795    0.8254 C   0  0  0  0  0  0  0  0  0  0  0  0
    4.4794   13.6939   -0.5874 C   0  0  0  0  0  0  0  0  0  0  0  0
    4.6363   13.8811   -1.7223 N   0  0  0  0  0  0  0  0  0  0  0  0
    4.9475   14.4314    1.6748 C   0  0  0  0  0  0  0  0  0  0  0  0
    5.4926   15.1957    2.3556 N   0  0  0  0  0  0  0  0  0  0  0  0
   -4.4814   -8.0450    6.5143 H   0  0  0  0  0  0  0  0  0  0  0  0
   -7.1805   -7.6862    4.3765 H   0  0  0  0  0  0  0  0  0  0  0  0
   -8.8847   -7.7719    6.1413 H   0  0  0  0  0  0  0  0  0  0  0  0
   -9.6402   -5.0828    8.4045 H   0  0  0  0  0  0  0  0  0  0  0  0
  -10.0022   -6.7989    8.0237 H   0  0  0  0  0  0  0  0  0  0  0  0
   -8.7149   -6.4054    9.2267 H   0  0  0  0  0  0  0  0  0  0  0  0
   -7.1338   -4.3030    8.0125 H   0  0  0  0  0  0  0  0  0  0  0  0
   -5.4157   -4.2271    6.2490 H   0  0  0  0  0  0  0  0  0  0  0  0
   -2.6711   -4.9020    3.7851 H   0  0  0  0  0  0  0  0  0  0  0  0
   -2.0816   -2.7004    2.8550 H   0  0  0  0  0  0  0  0  0  0  0  0
   -4.6278   -0.0579    1.9725 H   0  0  0  0  0  0  0  0  0  0  0  0
   -3.4996   -0.9049    0.8550 H   0  0  0  0  0  0  0  0  0  0  0  0
   -2.9133   -0.3207    2.4635 H   0  0  0  0  0  0  0  0  0  0  0  0
   -6.2661   -1.8041    2.3254 H   0  0  0  0  0  0  0  0  0  0  0  0
   -6.8574   -3.9952    3.2488 H   0  0  0  0  0  0  0  0  0  0  0  0
   -6.3646  -10.7843    0.5335 H   0  0  0  0  0  0  0  0  0  0  0  0
   -8.3602  -10.8294   -0.9164 H   0  0  0  0  0  0  0  0  0  0  0  0
   -9.0515  -11.1205   -3.4557 H   0  0  0  0  0  0  0  0  0  0  0  0
   -9.2305   -9.3393   -3.2241 H   0  0  0  0  0  0  0  0  0  0  0  0
   -8.2754   -9.9741   -4.6143 H   0  0  0  0  0  0  0  0  0  0  0  0
   -5.9679   -9.4291   -4.2282 H   0  0  0  0  0  0  0  0  0  0  0  0
   -4.0028   -9.3516   -2.7644 H   0  0  0  0  0  0  0  0  0  0  0  0
   -2.6419  -11.4520   -2.0435 H   0  0  0  0  0  0  0  0  0  0  0  0
   -1.4574  -13.6000   -1.7924 H   0  0  0  0  0  0  0  0  0  0  0  0
   -0.3516  -15.1893   -0.1950 H   0  0  0  0  0  0  0  0  0  0  0  0
   -1.9636  -15.9373    0.1454 H   0  0  0  0  0  0  0  0  0  0  0  0
   -0.9347  -15.3093    1.4946 H   0  0  0  0  0  0  0  0  0  0  0  0
   -2.7089  -13.7777    2.3183 H   0  0  0  0  0  0  0  0  0  0  0  0
   -3.9257  -11.6835    2.0225 H   0  0  0  0  0  0  0  0  0  0  0  0
   -0.8315   -8.0825    0.6326 H   0  0  0  0  0  0  0  0  0  0  0  0
    0.6052   -9.8764    1.4948 H   0  0  0  0  0  0  0  0  0  0  0  0
    1.4174  -11.6631   -0.0223 H   0  0  0  0  0  0  0  0  0  0  0  0
    0.8164  -11.6586   -2.3845 H   0  0  0  0  0  0  0  0  0  0  0  0
   -0.3308   -9.2140   -4.3035 H   0  0  0  0  0  0  0  0  0  0  0  0
   -1.9841   -9.6213   -3.7739 H   0  0  0  0  0  0  0  0  0  0  0  0
   -1.1985  -12.1108   -3.7596 H   0  0  0  0  0  0  0  0  0  0  0  0
   -1.4244  -11.2872   -5.3377 H   0  0  0  0  0  0  0  0  0  0  0  0
    0.2345  -11.5059   -4.6926 H   0  0  0  0  0  0  0  0  0  0  0  0
    3.4883    2.5512   -0.8124 H   0  0  0  0  0  0  0  0  0  0  0  0
    4.3863    3.3804    0.4782 H   0  0  0  0  0  0  0  0  0  0  0  0
    6.0321    1.6493    0.6222 H   0  0  0  0  0  0  0  0  0  0  0  0
    4.4799    0.7765    0.3972 H   0  0  0  0  0  0  0  0  0  0  0  0
    5.6039    0.9666   -1.0017 H   0  0  0  0  0  0  0  0  0  0  0  0
    6.8096    4.1502   -0.0081 H   0  0  0  0  0  0  0  0  0  0  0  0
    8.2032    5.3678   -1.6333 H   0  0  0  0  0  0  0  0  0  0  0  0
    7.5547    5.4509   -4.0178 H   0  0  0  0  0  0  0  0  0  0  0  0
    5.4823    4.3586   -4.7834 H   0  0  0  0  0  0  0  0  0  0  0  0
   -2.3255   -1.6946   -3.6846 H   0  0  0  0  0  0  0  0  0  0  0  0
   -2.8775   -3.0866   -2.8531 H   0  0  0  0  0  0  0  0  0  0  0  0
   -0.6093   -1.2598   -1.8676 H   0  0  0  0  0  0  0  0  0  0  0  0
   -2.2308   -1.5243   -1.1224 H   0  0  0  0  0  0  0  0  0  0  0  0
   -1.0084   -2.8495   -1.1184 H   0  0  0  0  0  0  0  0  0  0  0  0
   -1.4624    0.1767   -3.9004 H   0  0  0  0  0  0  0  0  0  0  0  0
   -0.5719    1.1974   -4.9888 H   0  0  0  0  0  0  0  0  0  0  0  0
   -1.4904   -1.6026   -5.8136 H   0  0  0  0  0  0  0  0  0  0  0  0
   -0.4121   -0.5103   -6.7585 H   0  0  0  0  0  0  0  0  0  0  0  0
   -2.0959   -0.0019   -6.3638 H   0  0  0  0  0  0  0  0  0  0  0  0
    3.3240    4.8194   -5.7134 H   0  0  0  0  0  0  0  0  0  0  0  0
    5.2159    5.3234   -7.2045 H   0  0  0  0  0  0  0  0  0  0  0  0
    6.8594    7.6010   -7.6569 H   0  0  0  0  0  0  0  0  0  0  0  0
    5.9517    7.0247   -9.1107 H   0  0  0  0  0  0  0  0  0  0  0  0
    5.8938    8.7628   -8.6452 H   0  0  0  0  0  0  0  0  0  0  0  0
    3.9959    9.4619   -7.3287 H   0  0  0  0  0  0  0  0  0  0  0  0
    2.1257    8.9483   -5.8061 H   0  0  0  0  0  0  0  0  0  0  0  0
   -0.5840    6.5874   -3.0158 H   0  0  0  0  0  0  0  0  0  0  0  0
   -2.9372    6.5505   -3.6551 H   0  0  0  0  0  0  0  0  0  0  0  0
   -4.1517    5.9540   -7.1252 H   0  0  0  0  0  0  0  0  0  0  0  0
   -4.3285    7.5501   -6.3010 H   0  0  0  0  0  0  0  0  0  0  0  0
   -4.6257    6.0104   -5.3907 H   0  0  0  0  0  0  0  0  0  0  0  0
   -1.8347    6.4760   -7.8174 H   0  0  0  0  0  0  0  0  0  0  0  0
    0.5280    6.5148   -7.2074 H   0  0  0  0  0  0  0  0  0  0  0  0
    5.5820    8.6645   -1.0112 H   0  0  0  0  0  0  0  0  0  0  0  0
    7.6506    9.9496   -0.7019 H   0  0  0  0  0  0  0  0  0  0  0  0
    8.3337   12.0920    2.2135 H   0  0  0  0  0  0  0  0  0  0  0  0
    9.2705   10.5519    2.0520 H   0  0  0  0  0  0  0  0  0  0  0  0
    8.9176   11.5666    0.5964 H   0  0  0  0  0  0  0  0  0  0  0  0
    6.5747   10.6945    3.4135 H   0  0  0  0  0  0  0  0  0  0  0  0
    4.4889    9.4279    3.0914 H   0  0  0  0  0  0  0  0  0  0  0  0
    5.2392    6.5401    2.2049 H   0  0  0  0  0  0  0  0  0  0  0  0
    4.5420    4.8122    3.8003 H   0  0  0  0  0  0  0  0  0  0  0  0
    1.6551    3.2846    3.9856 H   0  0  0  0  0  0  0  0  0  0  0  0
    2.8223    3.8617    5.2322 H   0  0  0  0  0  0  0  0  0  0  0  0
    1.1536    4.5292    5.1945 H   0  0  0  0  0  0  0  0  0  0  0  0
    0.4107    5.8879    3.1543 H   0  0  0  0  0  0  0  0  0  0  0  0
    1.1081    7.6025    1.5471 H   0  0  0  0  0  0  0  0  0  0  0  0
    3.8815   11.3832   -1.2618 H   0  0  0  0  0  0  0  0  0  0  0  0
    0.5847   10.2251    3.9268 H   0  0  0  0  0  0  0  0  0  0  0  0
    1.2830   11.3049    6.0582 H   0  0  0  0  0  0  0  0  0  0  0  0
    4.1863   13.6702    3.9589 H   0  0  0  0  0  0  0  0  0  0  0  0
  1  2  2  3
  2  3  1  0
  3  4  2  0
  3  5  1  0
  5  6  2  0
  6  7  1  0
  6  8  1  0
  8  9  1  0
  8 10  2  0
 10 11  1  0
 10 12  1  0
 12 13  1  0
 12 14  2  0
 14 15  1  0
 15 16  2  3
 16 17  1  0
 17 18  3  0
 16 19  1  0
 19 20  3  0
  1 21  1  0
 21 22  2  0
 22 23  1  0
 23 24  1  0
 24 25  2  0
 25 26  1  0
 26 27  2  0
 27 28  1  0
 27 29  1  0
 29 30  2  0
 23 31  1  0
 31 32  2  0
 32 33  1  0
 33 34  2  0
 34 35  1  0
 34 36  1  0
 36 37  2  0
 22 38  1  0
 38 39  1  0
 39 40  1  0
 40 41  2  0
 41 42  1  0
 42 43  1  0
 43 44  2  0
 44 45  1  0
 45 46  2  0
 46 47  1  0
 46 48  1  0
 48 49  2  0
 42 50  1  0
 50 51  2  0
 51 52  1  0
 52 53  2  0
 53 54  1  0
 53 55  1  0
 55 56  2  0
 41 57  1  0
 57 58  1  0
 40 59  1  0
 59 60  2  0
 60 61  1  0
 61 62  2  0
 62 63  1  0
 63 64  2  0
 64 65  1  0
 65 66  2  0
 66 67  1  0
 67 68  1  0
 60 69  1  0
 69 70  1  0
 70 71  1  0
 71 72  1  0
 72 73  1  0
 73 74  1  0
 74 75  2  0
 75 76  1  0
 76 77  1  0
 74 78  1  0
 78 79  1  0
 79 80  1  0
 80 81  1  0
 81 82  1  0
 82 83  1  0
 83 84  2  0
 84 85  1  0
 85 86  1  0
 84 87  1  0
 87 88  2  0
 88 89  1  0
 89 90  2  0
 82 91  2  0
 91 92  1  0
 92 93  1  0
 93 94  1  0
 94 95  1  0
 95 96  1  0
 96 97  1  0
 97 98  1  0
 98 99  1  0
 99100  1  0
100101  1  0
 98102  1  0
102103  1  0
 95104  1  0
104105  1  0
 91106  1  0
106107  2  0
107108  1  0
108109  1  0
109110  2  0
110111  1  0
111112  2  0
112113  1  0
112114  1  0
114115  2  0
108116  1  0
116117  2  0
117118  1  0
118119  2  0
119120  1  0
119121  1  0
121122  2  0
107123  1  0
123124  1  0
124125  1  0
125126  2  0
126127  1  0
127128  1  0
128129  2  0
129130  1  0
130131  2  0
131132  1  0
131133  1  0
133134  2  0
127135  1  0
135136  2  0
136137  1  0
137138  2  0
138139  1  0
138140  1  0
140141  2  0
126142  1  0
142143  1  0
125144  1  0
144145  2  3
145146  1  0
146147  2  0
146148  1  0
148149  2  0
149150  1  0
150151  2  0
151152  1  0
151153  1  0
153154  2  0
154155  1  0
155156  2  3
156157  1  0
157158  3  0
156159  1  0
159160  3  0
 15  2  1  0
 58 21  1  0
101 59  1  0
143106  1  0
155145  1  0
 14  5  1  0
 30 24  1  0
 37 31  1  0
 57 38  2  0
 66 61  1  0
100 69  2  0
115109  1  0
122116  1  0
142123  2  0
154148  1  0
 49 43  1  0
 56 50  1  0
 99 71  2  0
134128  1  0
141135  1  0
 97 72  2  0
 77 73  2  0
 96 78  2  0
 94 79  2  0
 93 81  2  0
 90 83  1  0
  1161  1  0
 25162  1  0
 26163  1  0
 28164  1  0
 28165  1  0
 28166  1  0
 29167  1  0
 30168  1  0
 32169  1  0
 33170  1  0
 35171  1  0
 35172  1  0
 35173  1  0
 36174  1  0
 37175  1  0
 44176  1  0
 45177  1  0
 47178  1  0
 47179  1  0
 47180  1  0
 48181  1  0
 49182  1  0
 51183  1  0
 52184  1  0
 54185  1  0
 54186  1  0
 54187  1  0
 55188  1  0
 56189  1  0
 62190  1  0
 63191  1  0
 64192  1  0
 65193  1  0
 67194  1  0
 67195  1  0
 68196  1  0
 68197  1  0
 68198  1  0
 85199  1  0
 85200  1  0
 86201  1  0
 86202  1  0
 86203  1  0
 87204  1  0
 88205  1  0
 89206  1  0
 90207  1  0
102208  1  0
102209  1  0
103210  1  0
103211  1  0
103212  1  0
104213  1  0
104214  1  0
105215  1  0
105216  1  0
105217  1  0
110218  1  0
111219  1  0
113220  1  0
113221  1  0
113222  1  0
114223  1  0
115224  1  0
117225  1  0
118226  1  0
120227  1  0
120228  1  0
120229  1  0
121230  1  0
122231  1  0
129232  1  0
130233  1  0
132234  1  0
132235  1  0
132236  1  0
133237  1  0
134238  1  0
136239  1  0
137240  1  0
139241  1  0
139242  1  0
139243  1  0
140244  1  0
141245  1  0
144246  1  0
149247  1  0
150248  1  0
153249  1  0
M  END

