
     RDKit          3D

193213  0  0  0  0  0  0  0  0999 V2000
   -6.0791   -1.6542   -1.1130 C   0  0  0  0  0  0  0  0  0  0  0  0
   -7.1823   -1.9230   -1.8242 C   0  0  0  0  0  0  0  0  0  0  0  0
   -7.8738   -3.2091   -1.9216 C   0  0  0  0  0  0  0  0  0  0  0  0
   -7.7219   -4.1863   -1.1418 O   0  0  0  0  0  0  0  0  0  0  0  0
   -8.7525   -3.1719   -3.0804 C   0  0  0  0  0  0  0  0  0  0  0  0
   -9.4835   -4.2081   -3.6682 C   0  0  0  0  0  0  0  0  0  0  0  0
   -9.5716   -5.7914   -2.9029 Cl  0  0  0  0  0  0  0  0  0  0  0  0
  -10.1223   -3.9597   -4.9036 C   0  0  0  0  0  0  0  0  0  0  0  0
  -11.0930   -5.2278   -5.6625 Cl  0  0  0  0  0  0  0  0  0  0  0  0
   -9.9355   -2.7182   -5.5615 C   0  0  0  0  0  0  0  0  0  0  0  0
  -10.6396   -2.4575   -7.1618 Cl  0  0  0  0  0  0  0  0  0  0  0  0
   -9.1675   -1.7001   -4.9621 C   0  0  0  0  0  0  0  0  0  0  0  0
   -8.6556   -0.3177   -5.9253 Cl  0  0  0  0  0  0  0  0  0  0  0  0
   -8.6702   -1.9149   -3.6635 C   0  0  0  0  0  0  0  0  0  0  0  0
   -7.8496   -1.0215   -2.8030 C   0  0  0  0  0  0  0  0  0  0  0  0
   -8.0858    0.3031   -2.6069 C   0  0  0  0  0  0  0  0  0  0  0  0
   -7.3813    1.0807   -1.6201 C   0  0  0  0  0  0  0  0  0  0  0  0
   -6.8205    1.7131   -0.8300 N   0  0  0  0  0  0  0  0  0  0  0  0
   -9.2196    0.9664   -3.2029 C   0  0  0  0  0  0  0  0  0  0  0  0
  -10.1394    1.4879   -3.6734 N   0  0  0  0  0  0  0  0  0  0  0  0
   -5.3990   -2.5965   -0.2136 C   0  0  0  0  0  0  0  0  0  0  0  0
   -4.6986   -3.7715   -0.5754 C   0  0  0  0  0  0  0  0  0  0  0  0
   -4.7056   -4.3861   -1.8804 N   0  0  0  0  0  0  0  0  0  0  0  0
   -4.5854   -3.5822   -3.0712 C   0  0  0  0  0  0  0  0  0  0  0  0
   -5.4263   -3.8176   -4.1719 C   0  0  0  0  0  0  0  0  0  0  0  0
   -5.2643   -3.0955   -5.3561 C   0  0  0  0  0  0  0  0  0  0  0  0
   -4.2350   -2.1462   -5.4653 C   0  0  0  0  0  0  0  0  0  0  0  0
   -4.0351   -1.3943   -6.7477 C   0  0  0  0  0  0  0  0  0  0  0  0
   -3.4134   -1.8861   -4.3571 C   0  0  0  0  0  0  0  0  0  0  0  0
   -3.5867   -2.6025   -3.1682 C   0  0  0  0  0  0  0  0  0  0  0  0
   -4.7513   -5.8283   -1.9932 C   0  0  0  0  0  0  0  0  0  0  0  0
   -4.0296   -6.4904   -3.0022 C   0  0  0  0  0  0  0  0  0  0  0  0
   -4.1041   -7.8807   -3.1356 C   0  0  0  0  0  0  0  0  0  0  0  0
   -4.9083   -8.6327   -2.2684 C   0  0  0  0  0  0  0  0  0  0  0  0
   -4.9785  -10.1230   -2.4010 C   0  0  0  0  0  0  0  0  0  0  0  0
   -5.6032   -7.9828   -1.2372 C   0  0  0  0  0  0  0  0  0  0  0  0
   -5.5272   -6.5916   -1.0993 C   0  0  0  0  0  0  0  0  0  0  0  0
   -3.8448   -4.1770    0.4554 C   0  0  0  0  0  0  0  0  0  0  0  0
   -2.4992   -5.1764    0.5147 S   0  0  0  0  0  0  0  0  0  0  0  0
   -1.9049   -4.5776    2.0051 C   0  0  0  0  0  0  0  0  0  0  0  0
   -2.8267   -3.6080    2.4691 C   0  0  0  0  0  0  0  0  0  0  0  0
   -2.6856   -2.8285    3.6711 N   0  0  0  0  0  0  0  0  0  0  0  0
   -2.9530   -3.4531    4.9477 C   0  0  0  0  0  0  0  0  0  0  0  0
   -2.2344   -3.0695    6.0978 C   0  0  0  0  0  0  0  0  0  0  0  0
   -2.4605   -3.7003    7.3225 C   0  0  0  0  0  0  0  0  0  0  0  0
   -3.4096   -4.7276    7.4245 C   0  0  0  0  0  0  0  0  0  0  0  0
   -3.6281   -5.4086    8.7448 C   0  0  0  0  0  0  0  0  0  0  0  0
   -4.1181   -5.1254    6.2842 C   0  0  0  0  0  0  0  0  0  0  0  0
   -3.8938   -4.4931    5.0562 C   0  0  0  0  0  0  0  0  0  0  0  0
   -2.3583   -1.4222    3.5661 C   0  0  0  0  0  0  0  0  0  0  0  0
   -1.4393   -0.9745    2.5971 C   0  0  0  0  0  0  0  0  0  0  0  0
   -1.1052    0.3805    2.5049 C   0  0  0  0  0  0  0  0  0  0  0  0
   -1.7047    1.3158    3.3617 C   0  0  0  0  0  0  0  0  0  0  0  0
   -1.3323    2.7671    3.2670 C   0  0  0  0  0  0  0  0  0  0  0  0
   -2.6139    0.8742    4.3324 C   0  0  0  0  0  0  0  0  0  0  0  0
   -2.9472   -0.4813    4.4253 C   0  0  0  0  0  0  0  0  0  0  0  0
   -3.8617   -3.3979    1.5635 C   0  0  0  0  0  0  0  0  0  0  0  0
   -4.9228   -2.1262    1.3493 S   0  0  0  0  0  0  0  0  0  0  0  0
   -0.5062   -4.7474    2.4989 C   0  0  0  0  0  0  0  0  0  0  0  0
    0.6044   -5.2949    1.7990 C   0  0  0  0  0  0  0  0  0  0  0  0
    0.5684   -5.9415    0.4747 C   0  0  0  0  0  0  0  0  0  0  0  0
    0.6673   -7.3430    0.4263 C   0  0  0  0  0  0  0  0  0  0  0  0
    0.6711   -8.0110   -0.7969 C   0  0  0  0  0  0  0  0  0  0  0  0
    0.5724   -7.2892   -1.9862 C   0  0  0  0  0  0  0  0  0  0  0  0
    0.4798   -5.8968   -1.9579 C   0  0  0  0  0  0  0  0  0  0  0  0
    0.4843   -5.2029   -0.7352 C   0  0  0  0  0  0  0  0  0  0  0  0
    0.3898   -3.6915   -0.7678 C   0  0  0  0  0  0  0  0  0  0  0  0
    1.6996   -3.0663   -1.2348 C   0  0  0  0  0  0  0  0  0  0  0  0
    1.8198   -4.9769    2.4274 C   0  0  0  0  0  0  0  0  0  0  0  0
    3.4061   -4.8741    1.8054 S   0  0  0  0  0  0  0  0  0  0  0  0
    3.8871   -3.8197    3.0478 C   0  0  0  0  0  0  0  0  0  0  0  0
    4.7399   -2.7443    3.0844 C   0  0  0  0  0  0  0  0  0  0  0  0
    5.9614   -2.5063    2.4563 C   0  0  0  0  0  0  0  0  0  0  0  0
    6.6165   -1.2553    2.6844 C   0  0  0  0  0  0  0  0  0  0  0  0
    7.8000   -1.0617    2.0500 N   0  0  0  0  0  0  0  0  0  0  0  0
    7.9410   -2.5168    1.2629 S   0  0  0  0  0  0  0  0  0  0  0  0
    6.5930   -3.3988    1.6522 N   0  0  0  0  0  0  0  0  0  0  0  0
    5.9693   -0.2827    3.4621 C   0  0  0  0  0  0  0  0  0  0  0  0
    6.1823    1.0664    3.4998 C   0  0  0  0  0  0  0  0  0  0  0  0
    7.1713    2.0876    2.5831 S   0  0  0  0  0  0  0  0  0  0  0  0
    6.0519    3.3542    2.7054 C   0  0  0  0  0  0  0  0  0  0  0  0
    5.9347    4.5335    1.9755 C   0  0  0  0  0  0  0  0  0  0  0  0
    6.8511    4.8589    0.8632 C   0  0  0  0  0  0  0  0  0  0  0  0
    6.6053    4.4114   -0.4624 C   0  0  0  0  0  0  0  0  0  0  0  0
    5.3750    3.6077   -0.8460 C   0  0  0  0  0  0  0  0  0  0  0  0
    5.6701    2.1121   -0.9152 C   0  0  0  0  0  0  0  0  0  0  0  0
    7.5562    4.6855   -1.4590 C   0  0  0  0  0  0  0  0  0  0  0  0
    8.7169    5.3991   -1.1603 C   0  0  0  0  0  0  0  0  0  0  0  0
    8.9408    5.8591    0.1363 C   0  0  0  0  0  0  0  0  0  0  0  0
    8.0192    5.5860    1.1446 C   0  0  0  0  0  0  0  0  0  0  0  0
    4.6808    5.1364    2.1708 C   0  0  0  0  0  0  0  0  0  0  0  0
    3.7079    4.1169    3.1377 S   0  0  0  0  0  0  0  0  0  0  0  0
    4.9254    2.9739    3.3958 C   0  0  0  0  0  0  0  0  0  0  0  0
    5.0011    1.6524    3.8568 C   0  0  0  0  0  0  0  0  0  0  0  0
    4.0363    0.7304    4.1365 N   0  0  0  0  0  0  0  0  0  0  0  0
    4.6728   -0.4779    3.9610 C   0  0  0  0  0  0  0  0  0  0  0  0
    4.1220   -1.7845    3.8903 C   0  0  0  0  0  0  0  0  0  0  0  0
    2.9675   -2.2784    4.4270 N   0  0  0  0  0  0  0  0  0  0  0  0
    2.8484   -3.5081    3.8731 C   0  0  0  0  0  0  0  0  0  0  0  0
    1.6960   -4.2077    3.5533 C   0  0  0  0  0  0  0  0  0  0  0  0
    0.0973   -3.8759    3.8296 S   0  0  0  0  0  0  0  0  0  0  0  0
    2.3105   -1.8524    5.6688 C   0  0  0  0  0  0  0  0  0  0  0  0
    2.4947   -2.8926    6.7756 C   0  0  0  0  0  0  0  0  0  0  0  0
    2.5878    1.0026    4.0719 C   0  0  0  0  0  0  0  0  0  0  0  0
    2.1118    1.7624    5.3187 C   0  0  0  0  0  0  0  0  0  0  0  0
    4.2055    6.2976    1.3909 C   0  0  0  0  0  0  0  0  0  0  0  0
    4.9358    7.4965    1.4036 C   0  0  0  0  0  0  0  0  0  0  0  0
    5.9142    7.6984    2.3260 F   0  0  0  0  0  0  0  0  0  0  0  0
    4.6977    8.4733    0.4349 C   0  0  0  0  0  0  0  0  0  0  0  0
    3.7635    8.2435   -0.5847 C   0  0  0  0  0  0  0  0  0  0  0  0
    2.9465    7.0993   -0.5250 C   0  0  0  0  0  0  0  0  0  0  0  0
    2.0004    6.8711   -1.4694 F   0  0  0  0  0  0  0  0  0  0  0  0
    3.1621    6.1402    0.4693 C   0  0  0  0  0  0  0  0  0  0  0  0
    3.6499    9.1595   -1.7379 C   0  0  0  0  0  0  0  0  0  0  0  0
    4.6447    9.4018   -2.6148 C   0  0  0  0  0  0  0  0  0  0  0  0
    6.0230    8.9005   -2.5725 C   0  0  0  0  0  0  0  0  0  0  0  0
    6.5612    8.2410   -1.6391 O   0  0  0  0  0  0  0  0  0  0  0  0
    6.6832    9.3047   -3.7990 C   0  0  0  0  0  0  0  0  0  0  0  0
    8.0123    9.1107   -4.1895 C   0  0  0  0  0  0  0  0  0  0  0  0
    9.1655    8.3407   -3.0961 Cl  0  0  0  0  0  0  0  0  0  0  0  0
    8.4197    9.5833   -5.4510 C   0  0  0  0  0  0  0  0  0  0  0  0
   10.0863    9.3394   -5.9892 Cl  0  0  0  0  0  0  0  0  0  0  0  0
    7.4975   10.2531   -6.2874 C   0  0  0  0  0  0  0  0  0  0  0  0
    8.0033   10.8026   -7.8892 Cl  0  0  0  0  0  0  0  0  0  0  0  0
    6.1692   10.4738   -5.8599 C   0  0  0  0  0  0  0  0  0  0  0  0
    5.0274   11.2625   -6.9448 Cl  0  0  0  0  0  0  0  0  0  0  0  0
    5.7772    9.9976   -4.5895 C   0  0  0  0  0  0  0  0  0  0  0  0
    4.4603   10.1132   -3.9049 C   0  0  0  0  0  0  0  0  0  0  0  0
    3.7358   11.2368   -3.9646 C   0  0  0  0  0  0  0  0  0  0  0  0
    2.6259   11.3437   -4.8707 C   0  0  0  0  0  0  0  0  0  0  0  0
    1.7381   11.4450   -5.6086 N   0  0  0  0  0  0  0  0  0  0  0  0
    3.9947   12.3290   -3.0556 C   0  0  0  0  0  0  0  0  0  0  0  0
    4.2072   13.2116   -2.3359 N   0  0  0  0  0  0  0  0  0  0  0  0
   -5.6217   -0.6816   -1.1924 H   0  0  0  0  0  0  0  0  0  0  0  0
   -6.2091   -4.5659   -4.1100 H   0  0  0  0  0  0  0  0  0  0  0  0
   -5.9209   -3.2964   -6.1926 H   0  0  0  0  0  0  0  0  0  0  0  0
   -4.5671   -0.4229   -6.6932 H   0  0  0  0  0  0  0  0  0  0  0  0
   -4.4275   -1.9740   -7.6108 H   0  0  0  0  0  0  0  0  0  0  0  0
   -2.9533   -1.2115   -6.9247 H   0  0  0  0  0  0  0  0  0  0  0  0
   -2.6251   -1.1502   -4.4238 H   0  0  0  0  0  0  0  0  0  0  0  0
   -2.9257   -2.4147   -2.3320 H   0  0  0  0  0  0  0  0  0  0  0  0
   -3.4016   -5.9331   -3.6859 H   0  0  0  0  0  0  0  0  0  0  0  0
   -3.5365   -8.3696   -3.9175 H   0  0  0  0  0  0  0  0  0  0  0  0
   -5.9747  -10.4949   -2.0817 H   0  0  0  0  0  0  0  0  0  0  0  0
   -4.8219  -10.4299   -3.4569 H   0  0  0  0  0  0  0  0  0  0  0  0
   -4.1966  -10.5871   -1.7657 H   0  0  0  0  0  0  0  0  0  0  0  0
   -6.2056   -8.5524   -0.5432 H   0  0  0  0  0  0  0  0  0  0  0  0
   -6.0781   -6.1125   -0.3024 H   0  0  0  0  0  0  0  0  0  0  0  0
   -1.4802   -2.2927    6.0406 H   0  0  0  0  0  0  0  0  0  0  0  0
   -1.8920   -3.3963    8.1930 H   0  0  0  0  0  0  0  0  0  0  0  0
   -2.7309   -6.0076    9.0050 H   0  0  0  0  0  0  0  0  0  0  0  0
   -4.5120   -6.0810    8.7147 H   0  0  0  0  0  0  0  0  0  0  0  0
   -3.7957   -4.6500    9.5388 H   0  0  0  0  0  0  0  0  0  0  0  0
   -4.8470   -5.9240    6.3412 H   0  0  0  0  0  0  0  0  0  0  0  0
   -4.4622   -4.8111    4.1903 H   0  0  0  0  0  0  0  0  0  0  0  0
   -0.9665   -1.6743    1.9196 H   0  0  0  0  0  0  0  0  0  0  0  0
   -0.3866    0.6988    1.7592 H   0  0  0  0  0  0  0  0  0  0  0  0
   -1.1616    3.0517    2.2093 H   0  0  0  0  0  0  0  0  0  0  0  0
   -2.1446    3.4078    3.6713 H   0  0  0  0  0  0  0  0  0  0  0  0
   -0.4072    2.9529    3.8465 H   0  0  0  0  0  0  0  0  0  0  0  0
   -3.0760    1.5799    5.0160 H   0  0  0  0  0  0  0  0  0  0  0  0
   -3.6719   -0.7940    5.1658 H   0  0  0  0  0  0  0  0  0  0  0  0
    0.7508   -7.9167    1.3444 H   0  0  0  0  0  0  0  0  0  0  0  0
    0.7570   -9.0906   -0.8250 H   0  0  0  0  0  0  0  0  0  0  0  0
    0.5699   -7.8170   -2.9363 H   0  0  0  0  0  0  0  0  0  0  0  0
    0.4063   -5.3580   -2.8964 H   0  0  0  0  0  0  0  0  0  0  0  0
    0.1338   -3.2750    0.2268 H   0  0  0  0  0  0  0  0  0  0  0  0
   -0.4325   -3.3926   -1.4555 H   0  0  0  0  0  0  0  0  0  0  0  0
    2.5133   -3.3047   -0.5236 H   0  0  0  0  0  0  0  0  0  0  0  0
    1.5815   -1.9625   -1.2864 H   0  0  0  0  0  0  0  0  0  0  0  0
    1.9737   -3.4391   -2.2471 H   0  0  0  0  0  0  0  0  0  0  0  0
    5.0156    3.9453   -1.8393 H   0  0  0  0  0  0  0  0  0  0  0  0
    4.5411    3.7674   -0.1372 H   0  0  0  0  0  0  0  0  0  0  0  0
    5.9482    1.7217    0.0860 H   0  0  0  0  0  0  0  0  0  0  0  0
    6.4957    1.9087   -1.6275 H   0  0  0  0  0  0  0  0  0  0  0  0
    4.7630    1.5678   -1.2611 H   0  0  0  0  0  0  0  0  0  0  0  0
    7.4051    4.3268   -2.4731 H   0  0  0  0  0  0  0  0  0  0  0  0
    9.4458    5.5906   -1.9363 H   0  0  0  0  0  0  0  0  0  0  0  0
    9.8338    6.4293    0.3562 H   0  0  0  0  0  0  0  0  0  0  0  0
    8.2163    5.9347    2.1505 H   0  0  0  0  0  0  0  0  0  0  0  0
    2.7633   -0.9140    6.0358 H   0  0  0  0  0  0  0  0  0  0  0  0
    1.2282   -1.6869    5.4896 H   0  0  0  0  0  0  0  0  0  0  0  0
    3.5777   -3.1013    6.9248 H   0  0  0  0  0  0  0  0  0  0  0  0
    2.0657   -2.5110    7.7284 H   0  0  0  0  0  0  0  0  0  0  0  0
    1.9718   -3.8382    6.5102 H   0  0  0  0  0  0  0  0  0  0  0  0
    2.0065    0.0714    3.9668 H   0  0  0  0  0  0  0  0  0  0  0  0
    2.3496    1.5849    3.1564 H   0  0  0  0  0  0  0  0  0  0  0  0
    2.4863    1.2840    6.2445 H   0  0  0  0  0  0  0  0  0  0  0  0
    2.4699    2.8126    5.3031 H   0  0  0  0  0  0  0  0  0  0  0  0
    0.9997    1.7742    5.3576 H   0  0  0  0  0  0  0  0  0  0  0  0
    5.2909    9.3807    0.4308 H   0  0  0  0  0  0  0  0  0  0  0  0
    2.5853    5.2267    0.4452 H   0  0  0  0  0  0  0  0  0  0  0  0
    2.6599    9.5153   -1.9872 H   0  0  0  0  0  0  0  0  0  0  0  0
  1  2  2  3
  2  3  1  0
  3  4  2  0
  3  5  1  0
  5  6  2  0
  6  7  1  0
  6  8  1  0
  8  9  1  0
  8 10  2  0
 10 11  1  0
 10 12  1  0
 12 13  1  0
 12 14  2  0
 14 15  1  0
 15 16  2  3
 16 17  1  0
 17 18  3  0
 16 19  1  0
 19 20  3  0
  1 21  1  0
 21 22  2  0
 22 23  1  0
 23 24  1  0
 24 25  2  0
 25 26  1  0
 26 27  2  0
 27 28  1  0
 27 29  1  0
 29 30  2  0
 23 31  1  0
 31 32  2  0
 32 33  1  0
 33 34  2  0
 34 35  1  0
 34 36  1  0
 36 37  2  0
 22 38  1  0
 38 39  1  0
 39 40  1  0
 40 41  2  0
 41 42  1  0
 42 43  1  0
 43 44  2  0
 44 45  1  0
 45 46  2  0
 46 47  1  0
 46 48  1  0
 48 49  2  0
 42 50  1  0
 50 51  2  0
 51 52  1  0
 52 53  2  0
 53 54  1  0
 53 55  1  0
 55 56  2  0
 41 57  1  0
 57 58  1  0
 40 59  1  0
 59 60  2  0
 60 61  1  0
 61 62  2  0
 62 63  1  0
 63 64  2  0
 64 65  1  0
 65 66  2  0
 66 67  1  0
 67 68  1  0
 60 69  1  0
 69 70  1  0
 70 71  1  0
 71 72  1  0
 72 73  1  0
 73 74  1  0
 74 75  2  0
 75 76  1  0
 76 77  1  0
 74 78  1  0
 78 79  1  0
 79 80  1  0
 80 81  1  0
 81 82  1  0
 82 83  1  0
 83 84  2  0
 84 85  1  0
 85 86  1  0
 84 87  1  0
 87 88  2  0
 88 89  1  0
 89 90  2  0
 82 91  2  0
 91 92  1  0
 92 93  1  0
 93 94  1  0
 94 95  1  0
 95 96  1  0
 96 97  1  0
 97 98  1  0
 98 99  1  0
 99100  1  0
100101  1  0
 98102  1  0
102103  1  0
 95104  1  0
104105  1  0
 91106  1  0
106107  2  0
107108  1  0
107109  1  0
109110  2  0
110111  1  0
111112  1  0
111113  2  0
110114  1  0
114115  2  3
115116  1  0
116117  2  0
116118  1  0
118119  2  0
119120  1  0
119121  1  0
121122  1  0
121123  2  0
123124  1  0
123125  1  0
125126  1  0
125127  2  0
127128  1  0
128129  2  3
129130  1  0
130131  3  0
129132  1  0
132133  3  0
 15  2  1  0
 58 21  1  0
101 59  1  0
113106  1  0
128115  1  0
 14  5  1  0
 30 24  1  0
 37 31  1  0
 57 38  2  0
 66 61  1  0
100 69  2  0
127118  1  0
 49 43  1  0
 56 50  1  0
 99 71  2  0
 97 72  2  0
 77 73  2  0
 96 78  2  0
 94 79  2  0
 93 81  2  0
 90 83  1  0
  1134  1  0
 25135  1  0
 26136  1  0
 28137  1  0
 28138  1  0
 28139  1  0
 29140  1  0
 30141  1  0
 32142  1  0
 33143  1  0
 35144  1  0
 35145  1  0
 35146  1  0
 36147  1  0
 37148  1  0
 44149  1  0
 45150  1  0
 47151  1  0
 47152  1  0
 47153  1  0
 48154  1  0
 49155  1  0
 51156  1  0
 52157  1  0
 54158  1  0
 54159  1  0
 54160  1  0
 55161  1  0
 56162  1  0
 62163  1  0
 63164  1  0
 64165  1  0
 65166  1  0
 67167  1  0
 67168  1  0
 68169  1  0
 68170  1  0
 68171  1  0
 85172  1  0
 85173  1  0
 86174  1  0
 86175  1  0
 86176  1  0
 87177  1  0
 88178  1  0
 89179  1  0
 90180  1  0
102181  1  0
102182  1  0
103183  1  0
103184  1  0
103185  1  0
104186  1  0
104187  1  0
105188  1  0
105189  1  0
105190  1  0
109191  1  0
113192  1  0
114193  1  0
M  END

