
     RDKit          3D

135149  0  0  0  0  0  0  0  0999 V2000
    8.4644    4.2823    0.5861 C   0  0  0  0  0  0  0  0  0  0  0  0
    8.4469    3.8495    1.8650 C   0  0  0  0  0  0  0  0  0  0  0  0
    9.1248    4.5998    2.9213 C   0  0  0  0  0  0  0  0  0  0  0  0
   10.0337    5.4522    2.7427 O   0  0  0  0  0  0  0  0  0  0  0  0
    8.5538    4.2305    4.2084 C   0  0  0  0  0  0  0  0  0  0  0  0
    8.8606    4.7459    5.4740 C   0  0  0  0  0  0  0  0  0  0  0  0
    9.9646    6.1055    5.6559 Cl  0  0  0  0  0  0  0  0  0  0  0  0
    8.2696    4.1446    6.6020 C   0  0  0  0  0  0  0  0  0  0  0  0
    8.6115    4.7738    8.2162 Cl  0  0  0  0  0  0  0  0  0  0  0  0
    7.4538    3.0014    6.4451 C   0  0  0  0  0  0  0  0  0  0  0  0
    6.8232    2.1852    7.8810 Cl  0  0  0  0  0  0  0  0  0  0  0  0
    7.1863    2.4823    5.1628 C   0  0  0  0  0  0  0  0  0  0  0  0
    6.5047    0.8589    5.0498 Cl  0  0  0  0  0  0  0  0  0  0  0  0
    7.6454    3.1949    4.0310 C   0  0  0  0  0  0  0  0  0  0  0  0
    7.5153    2.9127    2.5681 C   0  0  0  0  0  0  0  0  0  0  0  0
    6.6958    2.0110    1.9880 C   0  0  0  0  0  0  0  0  0  0  0  0
    7.0425    1.3449    0.7616 C   0  0  0  0  0  0  0  0  0  0  0  0
    7.3163    0.8005   -0.2210 N   0  0  0  0  0  0  0  0  0  0  0  0
    5.3553    1.8113    2.4761 C   0  0  0  0  0  0  0  0  0  0  0  0
    4.2739    1.6701    2.8584 N   0  0  0  0  0  0  0  0  0  0  0  0
    7.4005    4.0488   -0.4120 C   0  0  0  0  0  0  0  0  0  0  0  0
    6.0547    4.3179   -0.1043 C   0  0  0  0  0  0  0  0  0  0  0  0
    5.7085    4.8213    1.1050 F   0  0  0  0  0  0  0  0  0  0  0  0
    5.0546    4.0265   -1.0343 C   0  0  0  0  0  0  0  0  0  0  0  0
    3.7576    4.1860   -0.6837 F   0  0  0  0  0  0  0  0  0  0  0  0
    5.3878    3.5200   -2.2999 C   0  0  0  0  0  0  0  0  0  0  0  0
    6.7369    3.3337   -2.6420 C   0  0  0  0  0  0  0  0  0  0  0  0
    7.0717    2.8301   -3.8558 F   0  0  0  0  0  0  0  0  0  0  0  0
    7.7401    3.6232   -1.7074 C   0  0  0  0  0  0  0  0  0  0  0  0
    9.0378    3.4011   -2.0401 F   0  0  0  0  0  0  0  0  0  0  0  0
    4.3098    3.0543   -3.1842 C   0  0  0  0  0  0  0  0  0  0  0  0
    3.5274    3.8914   -4.0032 C   0  0  0  0  0  0  0  0  0  0  0  0
    3.9367    5.2246   -4.4872 C   0  0  0  0  0  0  0  0  0  0  0  0
    3.1396    6.3522   -4.2536 C   0  0  0  0  0  0  0  0  0  0  0  0
    3.5090    7.5927   -4.7816 C   0  0  0  0  0  0  0  0  0  0  0  0
    4.6663    7.7110   -5.5572 C   0  0  0  0  0  0  0  0  0  0  0  0
    5.4649    6.5873   -5.8118 C   0  0  0  0  0  0  0  0  0  0  0  0
    6.7093    6.7061   -6.6473 C   0  0  0  0  0  0  0  0  0  0  0  0
    7.9493    6.7749   -5.7710 C   0  0  0  0  0  0  0  0  0  0  0  0
    5.1029    5.3490   -5.2608 C   0  0  0  0  0  0  0  0  0  0  0  0
    2.3094    3.2838   -4.3140 C   0  0  0  0  0  0  0  0  0  0  0  0
    0.8405    3.8719   -4.9724 S   0  0  0  0  0  0  0  0  0  0  0  0
    0.0505    2.4351   -4.5374 C   0  0  0  0  0  0  0  0  0  0  0  0
   -1.2143    1.9272   -4.4417 C   0  0  0  0  0  0  0  0  0  0  0  0
   -2.4599    2.4075   -4.8565 C   0  0  0  0  0  0  0  0  0  0  0  0
   -3.6271    1.6595   -4.5114 C   0  0  0  0  0  0  0  0  0  0  0  0
   -4.8193    2.1685   -4.9061 N   0  0  0  0  0  0  0  0  0  0  0  0
   -4.2903    3.5251   -5.7005 S   0  0  0  0  0  0  0  0  0  0  0  0
   -2.6427    3.5473   -5.5687 N   0  0  0  0  0  0  0  0  0  0  0  0
   -3.4852    0.5064   -3.7238 C   0  0  0  0  0  0  0  0  0  0  0  0
   -4.4100   -0.1737   -2.9827 C   0  0  0  0  0  0  0  0  0  0  0  0
   -6.0265    0.0905   -2.5285 S   0  0  0  0  0  0  0  0  0  0  0  0
   -5.8378   -0.8583   -1.1222 C   0  0  0  0  0  0  0  0  0  0  0  0
   -6.6520   -1.1215   -0.0124 C   0  0  0  0  0  0  0  0  0  0  0  0
   -8.0159   -0.5695    0.1198 C   0  0  0  0  0  0  0  0  0  0  0  0
   -8.9562   -0.7569   -0.9050 C   0  0  0  0  0  0  0  0  0  0  0  0
  -10.2184   -0.1656   -0.8179 C   0  0  0  0  0  0  0  0  0  0  0  0
  -10.5545    0.6173    0.2883 C   0  0  0  0  0  0  0  0  0  0  0  0
   -9.6199    0.8312    1.3109 C   0  0  0  0  0  0  0  0  0  0  0  0
   -9.9825    1.6644    2.5121 C   0  0  0  0  0  0  0  0  0  0  0  0
  -10.4795    0.7807    3.6541 C   0  0  0  0  0  0  0  0  0  0  0  0
   -8.3524    0.2329    1.2228 C   0  0  0  0  0  0  0  0  0  0  0  0
   -5.9489   -1.8438    0.9813 C   0  0  0  0  0  0  0  0  0  0  0  0
   -4.3250   -2.0120    0.4825 S   0  0  0  0  0  0  0  0  0  0  0  0
   -4.5418   -1.2854   -1.0025 C   0  0  0  0  0  0  0  0  0  0  0  0
   -3.7235   -0.8943   -2.0550 C   0  0  0  0  0  0  0  0  0  0  0  0
   -2.3797   -0.7254   -2.1383 N   0  0  0  0  0  0  0  0  0  0  0  0
   -2.2354    0.0817   -3.2417 C   0  0  0  0  0  0  0  0  0  0  0  0
   -1.0742    0.7407   -3.7028 C   0  0  0  0  0  0  0  0  0  0  0  0
    0.2403    0.4567   -3.4531 N   0  0  0  0  0  0  0  0  0  0  0  0
    0.8728    1.5543   -3.9229 C   0  0  0  0  0  0  0  0  0  0  0  0
    2.1587    2.0255   -3.7969 C   0  0  0  0  0  0  0  0  0  0  0  0
    3.4739    1.6038   -2.8641 S   0  0  0  0  0  0  0  0  0  0  0  0
    0.8542   -0.8782   -3.3700 C   0  0  0  0  0  0  0  0  0  0  0  0
    1.5746   -1.2430   -4.6695 C   0  0  0  0  0  0  0  0  0  0  0  0
   -1.4920   -0.7821   -0.9619 C   0  0  0  0  0  0  0  0  0  0  0  0
   -1.6128    0.4882   -0.1203 C   0  0  0  0  0  0  0  0  0  0  0  0
   -6.5190   -2.3453    2.2641 C   0  0  0  0  0  0  0  0  0  0  0  0
   -5.9373   -3.2304    3.0874 C   0  0  0  0  0  0  0  0  0  0  0  0
   -4.7553   -4.0436    2.7413 C   0  0  0  0  0  0  0  0  0  0  0  0
   -3.8566   -4.4014    3.6600 C   0  0  0  0  0  0  0  0  0  0  0  0
   -2.6248   -5.0920    3.2521 C   0  0  0  0  0  0  0  0  0  0  0  0
   -2.1625   -6.1857    3.8782 C   0  0  0  0  0  0  0  0  0  0  0  0
   -2.8982   -7.0077    4.8453 C   0  0  0  0  0  0  0  0  0  0  0  0
   -3.8678   -6.6315    5.5494 O   0  0  0  0  0  0  0  0  0  0  0  0
   -2.3491   -8.3603    4.7926 C   0  0  0  0  0  0  0  0  0  0  0  0
   -2.8811   -9.5322    5.3366 C   0  0  0  0  0  0  0  0  0  0  0  0
   -4.1745   -9.4660    6.5320 Cl  0  0  0  0  0  0  0  0  0  0  0  0
   -2.3670  -10.7646    4.8964 C   0  0  0  0  0  0  0  0  0  0  0  0
   -3.0278  -12.2665    5.5404 Cl  0  0  0  0  0  0  0  0  0  0  0  0
   -1.3786  -10.8025    3.8797 C   0  0  0  0  0  0  0  0  0  0  0  0
   -0.8585  -12.3531    3.2239 Cl  0  0  0  0  0  0  0  0  0  0  0  0
   -0.8586   -9.6031    3.3455 C   0  0  0  0  0  0  0  0  0  0  0  0
    0.0934   -9.6507    1.8605 Cl  0  0  0  0  0  0  0  0  0  0  0  0
   -1.2953   -8.3813    3.8892 C   0  0  0  0  0  0  0  0  0  0  0  0
   -0.9993   -6.9968    3.4435 C   0  0  0  0  0  0  0  0  0  0  0  0
    0.2297   -6.4907    3.1744 C   0  0  0  0  0  0  0  0  0  0  0  0
    0.4432   -5.0836    2.9728 C   0  0  0  0  0  0  0  0  0  0  0  0
    0.6125   -3.9498    2.8145 N   0  0  0  0  0  0  0  0  0  0  0  0
    1.4217   -7.2920    3.2996 C   0  0  0  0  0  0  0  0  0  0  0  0
    2.3811   -7.9299    3.4083 N   0  0  0  0  0  0  0  0  0  0  0  0
    9.2349    4.9910    0.2943 H   0  0  0  0  0  0  0  0  0  0  0  0
    2.2387    6.2734   -3.6596 H   0  0  0  0  0  0  0  0  0  0  0  0
    2.8932    8.4618   -4.5940 H   0  0  0  0  0  0  0  0  0  0  0  0
    4.9319    8.6816   -5.9638 H   0  0  0  0  0  0  0  0  0  0  0  0
    6.7873    5.8254   -7.3244 H   0  0  0  0  0  0  0  0  0  0  0  0
    6.6622    7.6124   -7.2892 H   0  0  0  0  0  0  0  0  0  0  0  0
    8.0428    5.8538   -5.1539 H   0  0  0  0  0  0  0  0  0  0  0  0
    8.8533    6.8715   -6.4058 H   0  0  0  0  0  0  0  0  0  0  0  0
    7.8930    7.6622   -5.0973 H   0  0  0  0  0  0  0  0  0  0  0  0
    5.7082    4.4712   -5.4657 H   0  0  0  0  0  0  0  0  0  0  0  0
   -8.7068   -1.3555   -1.7733 H   0  0  0  0  0  0  0  0  0  0  0  0
  -10.9363   -0.3159   -1.6113 H   0  0  0  0  0  0  0  0  0  0  0  0
  -11.5417    1.0626    0.3413 H   0  0  0  0  0  0  0  0  0  0  0  0
  -10.7733    2.4002    2.2481 H   0  0  0  0  0  0  0  0  0  0  0  0
   -9.0945    2.2398    2.8536 H   0  0  0  0  0  0  0  0  0  0  0  0
  -10.8053    1.4197    4.5002 H   0  0  0  0  0  0  0  0  0  0  0  0
   -9.6641    0.1100    4.0014 H   0  0  0  0  0  0  0  0  0  0  0  0
  -11.3444    0.1654    3.3182 H   0  0  0  0  0  0  0  0  0  0  0  0
   -7.6209    0.4160    2.0013 H   0  0  0  0  0  0  0  0  0  0  0  0
    0.0715   -1.6545   -3.2124 H   0  0  0  0  0  0  0  0  0  0  0  0
    1.5781   -0.9078   -2.5257 H   0  0  0  0  0  0  0  0  0  0  0  0
    2.4599   -0.5921   -4.8228 H   0  0  0  0  0  0  0  0  0  0  0  0
    0.8857   -1.1304   -5.5341 H   0  0  0  0  0  0  0  0  0  0  0  0
    1.9239   -2.2955   -4.6210 H   0  0  0  0  0  0  0  0  0  0  0  0
   -0.4346   -0.9041   -1.2336 H   0  0  0  0  0  0  0  0  0  0  0  0
   -1.7350   -1.6675   -0.3425 H   0  0  0  0  0  0  0  0  0  0  0  0
   -0.9665    0.4079    0.7755 H   0  0  0  0  0  0  0  0  0  0  0  0
   -2.6661    0.6490    0.2024 H   0  0  0  0  0  0  0  0  0  0  0  0
   -1.2752    1.3678   -0.7108 H   0  0  0  0  0  0  0  0  0  0  0  0
   -7.4611   -1.9254    2.5865 H   0  0  0  0  0  0  0  0  0  0  0  0
   -6.4231   -3.4348    4.0407 H   0  0  0  0  0  0  0  0  0  0  0  0
   -4.5974   -4.3368    1.7115 H   0  0  0  0  0  0  0  0  0  0  0  0
   -4.0263   -4.1844    4.7045 H   0  0  0  0  0  0  0  0  0  0  0  0
   -2.1256   -4.7381    2.3570 H   0  0  0  0  0  0  0  0  0  0  0  0
  1  2  2  3
  2  3  1  0
  3  4  2  0
  3  5  1  0
  5  6  2  0
  6  7  1  0
  6  8  1  0
  8  9  1  0
  8 10  2  0
 10 11  1  0
 10 12  1  0
 12 13  1  0
 12 14  2  0
 14 15  1  0
 15 16  2  3
 16 17  1  0
 17 18  3  0
 16 19  1  0
 19 20  3  0
  1 21  1  0
 21 22  2  0
 22 23  1  0
 22 24  1  0
 24 25  1  0
 24 26  2  0
 26 27  1  0
 27 28  1  0
 27 29  2  0
 29 30  1  0
 26 31  1  0
 31 32  2  0
 32 33  1  0
 33 34  2  0
 34 35  1  0
 35 36  2  0
 36 37  1  0
 37 38  1  0
 38 39  1  0
 37 40  2  0
 32 41  1  0
 41 42  1  0
 42 43  1  0
 43 44  1  0
 44 45  1  0
 45 46  1  0
 46 47  2  0
 47 48  1  0
 48 49  1  0
 46 50  1  0
 50 51  1  0
 51 52  1  0
 52 53  1  0
 53 54  1  0
 54 55  1  0
 55 56  2  0
 56 57  1  0
 57 58  2  0
 58 59  1  0
 59 60  1  0
 60 61  1  0
 59 62  2  0
 54 63  2  0
 63 64  1  0
 64 65  1  0
 65 66  1  0
 66 67  1  0
 67 68  1  0
 68 69  1  0
 69 70  1  0
 70 71  1  0
 71 72  1  0
 72 73  1  0
 70 74  1  0
 74 75  1  0
 67 76  1  0
 76 77  1  0
 63 78  1  0
 78 79  2  3
 79 80  1  0
 80 81  2  3
 81 82  1  0
 82 83  2  3
 83 84  1  0
 84 85  2  0
 84 86  1  0
 86 87  2  0
 87 88  1  0
 87 89  1  0
 89 90  1  0
 89 91  2  0
 91 92  1  0
 91 93  1  0
 93 94  1  0
 93 95  2  0
 95 96  1  0
 96 97  2  3
 97 98  1  0
 98 99  3  0
 97100  1  0
100101  3  0
 15  2  1  0
 29 21  1  0
 73 31  1  0
 96 83  1  0
 14  5  1  0
 40 33  1  0
 72 41  2  0
 95 86  1  0
 71 43  2  0
 69 44  2  0
 49 45  2  0
 68 50  2  0
 66 51  2  0
 65 53  2  0
 62 55  1  0
  1102  1  0
 34103  1  0
 35104  1  0
 36105  1  0
 38106  1  0
 38107  1  0
 39108  1  0
 39109  1  0
 39110  1  0
 40111  1  0
 56112  1  0
 57113  1  0
 58114  1  0
 60115  1  0
 60116  1  0
 61117  1  0
 61118  1  0
 61119  1  0
 62120  1  0
 74121  1  0
 74122  1  0
 75123  1  0
 75124  1  0
 75125  1  0
 76126  1  0
 76127  1  0
 77128  1  0
 77129  1  0
 77130  1  0
 78131  1  0
 79132  1  0
 80133  1  0
 81134  1  0
 82135  1  0
M  END

