
     RDKit          3D

131145  0  0  0  0  0  0  0  0999 V2000
   -8.9253   -6.3046    3.5202 C   0  0  0  0  0  0  0  0  0  0  0  0
   -9.0900   -6.0574    4.8291 C   0  0  0  0  0  0  0  0  0  0  0  0
   -9.9227   -6.9032    5.6850 C   0  0  0  0  0  0  0  0  0  0  0  0
  -10.5766   -7.9105    5.3027 O   0  0  0  0  0  0  0  0  0  0  0  0
   -9.8383   -6.4148    7.0491 C   0  0  0  0  0  0  0  0  0  0  0  0
  -10.3815   -6.9550    8.2207 C   0  0  0  0  0  0  0  0  0  0  0  0
  -11.4297   -8.3696    8.1604 Cl  0  0  0  0  0  0  0  0  0  0  0  0
  -10.0581   -6.3471    9.4505 C   0  0  0  0  0  0  0  0  0  0  0  0
  -10.7307   -6.9875   10.9506 Cl  0  0  0  0  0  0  0  0  0  0  0  0
   -9.1662   -5.2478    9.4876 C   0  0  0  0  0  0  0  0  0  0  0  0
   -8.7063   -4.5374   11.0379 Cl  0  0  0  0  0  0  0  0  0  0  0  0
   -8.6134   -4.7400    8.2912 C   0  0  0  0  0  0  0  0  0  0  0  0
   -7.3437   -3.5145    8.3521 Cl  0  0  0  0  0  0  0  0  0  0  0  0
   -9.0151   -5.3070    7.0665 C   0  0  0  0  0  0  0  0  0  0  0  0
   -8.5488   -4.9632    5.6925 C   0  0  0  0  0  0  0  0  0  0  0  0
   -8.4292   -3.6919    5.2615 C   0  0  0  0  0  0  0  0  0  0  0  0
   -9.1359   -2.6174    5.9129 C   0  0  0  0  0  0  0  0  0  0  0  0
   -9.7052   -1.7572    6.4367 N   0  0  0  0  0  0  0  0  0  0  0  0
   -7.3022   -3.3100    4.4567 C   0  0  0  0  0  0  0  0  0  0  0  0
   -6.3808   -2.9899    3.8315 N   0  0  0  0  0  0  0  0  0  0  0  0
   -7.9875   -5.6058    2.6360 C   0  0  0  0  0  0  0  0  0  0  0  0
   -6.6410   -6.0005    2.5972 C   0  0  0  0  0  0  0  0  0  0  0  0
   -6.1848   -6.9596    3.4418 F   0  0  0  0  0  0  0  0  0  0  0  0
   -5.7575   -5.4023    1.6935 C   0  0  0  0  0  0  0  0  0  0  0  0
   -4.4484   -5.7628    1.7124 F   0  0  0  0  0  0  0  0  0  0  0  0
   -6.2178   -4.4129    0.8060 C   0  0  0  0  0  0  0  0  0  0  0  0
   -7.5684   -4.0265    0.8410 C   0  0  0  0  0  0  0  0  0  0  0  0
   -8.0333   -3.0774   -0.0109 F   0  0  0  0  0  0  0  0  0  0  0  0
   -8.4534   -4.6322    1.7402 C   0  0  0  0  0  0  0  0  0  0  0  0
   -9.7592   -4.2598    1.7515 F   0  0  0  0  0  0  0  0  0  0  0  0
   -5.2818   -3.7505   -0.1224 C   0  0  0  0  0  0  0  0  0  0  0  0
   -4.3806   -4.3928   -1.0005 C   0  0  0  0  0  0  0  0  0  0  0  0
   -4.3413   -5.8468   -1.2647 C   0  0  0  0  0  0  0  0  0  0  0  0
   -5.5265   -6.5542   -1.5287 C   0  0  0  0  0  0  0  0  0  0  0  0
   -5.4890   -7.9310   -1.7617 C   0  0  0  0  0  0  0  0  0  0  0  0
   -4.2711   -8.6149   -1.7361 C   0  0  0  0  0  0  0  0  0  0  0  0
   -3.0766   -7.9213   -1.4836 C   0  0  0  0  0  0  0  0  0  0  0  0
   -1.7683   -8.6614   -1.4228 C   0  0  0  0  0  0  0  0  0  0  0  0
   -1.4423   -9.0702    0.0119 C   0  0  0  0  0  0  0  0  0  0  0  0
   -3.1195   -6.5392   -1.2402 C   0  0  0  0  0  0  0  0  0  0  0  0
   -3.5220   -3.4619   -1.5921 C   0  0  0  0  0  0  0  0  0  0  0  0
   -2.1961   -3.5949   -2.6625 S   0  0  0  0  0  0  0  0  0  0  0  0
   -1.9102   -1.9280   -2.5450 C   0  0  0  0  0  0  0  0  0  0  0  0
   -1.0670   -0.9819   -3.0417 C   0  0  0  0  0  0  0  0  0  0  0  0
   -0.0644   -1.0524   -4.0119 C   0  0  0  0  0  0  0  0  0  0  0  0
    0.5928    0.1521   -4.3992 C   0  0  0  0  0  0  0  0  0  0  0  0
    1.5808    0.0408   -5.3226 N   0  0  0  0  0  0  0  0  0  0  0  0
    1.5243   -1.5924   -5.5975 S   0  0  0  0  0  0  0  0  0  0  0  0
    0.3341   -2.1975   -4.6155 N   0  0  0  0  0  0  0  0  0  0  0  0
    0.2328    1.3525   -3.7700 C   0  0  0  0  0  0  0  0  0  0  0  0
    0.8904    2.5501   -3.7327 C   0  0  0  0  0  0  0  0  0  0  0  0
    2.4362    3.0566   -4.2113 S   0  0  0  0  0  0  0  0  0  0  0  0
    2.4630    4.2451   -2.9976 C   0  0  0  0  0  0  0  0  0  0  0  0
    3.4949    5.0270   -2.4872 C   0  0  0  0  0  0  0  0  0  0  0  0
    4.8788    5.0249   -2.9926 C   0  0  0  0  0  0  0  0  0  0  0  0
    5.4883    6.2297   -3.3738 C   0  0  0  0  0  0  0  0  0  0  0  0
    6.8584    6.2683   -3.6476 C   0  0  0  0  0  0  0  0  0  0  0  0
    7.6304    5.1109   -3.5240 C   0  0  0  0  0  0  0  0  0  0  0  0
    7.0308    3.8984   -3.1490 C   0  0  0  0  0  0  0  0  0  0  0  0
    7.8728    2.6788   -2.8884 C   0  0  0  0  0  0  0  0  0  0  0  0
    8.2128    2.5774   -1.4039 C   0  0  0  0  0  0  0  0  0  0  0  0
    5.6507    3.8588   -2.8964 C   0  0  0  0  0  0  0  0  0  0  0  0
    3.1386    5.5961   -1.2540 C   0  0  0  0  0  0  0  0  0  0  0  0
    1.5755    5.0899   -0.8125 S   0  0  0  0  0  0  0  0  0  0  0  0
    1.3314    4.1974   -2.2182 C   0  0  0  0  0  0  0  0  0  0  0  0
    0.4249    3.2262   -2.6430 C   0  0  0  0  0  0  0  0  0  0  0  0
   -0.5501    2.5416   -1.9862 N   0  0  0  0  0  0  0  0  0  0  0  0
   -0.7169    1.4008   -2.7345 C   0  0  0  0  0  0  0  0  0  0  0  0
   -1.4577    0.2253   -2.4383 C   0  0  0  0  0  0  0  0  0  0  0  0
   -2.6007    0.0502   -1.6889 N   0  0  0  0  0  0  0  0  0  0  0  0
   -2.7994   -1.2906   -1.7501 C   0  0  0  0  0  0  0  0  0  0  0  0
   -3.7340   -2.1604   -1.2120 C   0  0  0  0  0  0  0  0  0  0  0  0
   -4.9870   -2.0702   -0.1045 S   0  0  0  0  0  0  0  0  0  0  0  0
   -3.6757    1.0207   -1.4214 C   0  0  0  0  0  0  0  0  0  0  0  0
   -4.0955    1.7556   -2.6938 C   0  0  0  0  0  0  0  0  0  0  0  0
   -0.8780    2.7349   -0.5706 C   0  0  0  0  0  0  0  0  0  0  0  0
   -1.7939    3.9461   -0.3889 C   0  0  0  0  0  0  0  0  0  0  0  0
    4.1290    6.1497   -0.3209 C   0  0  0  0  0  0  0  0  0  0  0  0
    5.0278    5.2765    0.3093 C   0  0  0  0  0  0  0  0  0  0  0  0
    4.8155    3.9341    0.2777 F   0  0  0  0  0  0  0  0  0  0  0  0
    6.2021    5.7705    0.8799 C   0  0  0  0  0  0  0  0  0  0  0  0
    7.0931    4.8971    1.4154 F   0  0  0  0  0  0  0  0  0  0  0  0
    6.4828    7.1481    0.8444 C   0  0  0  0  0  0  0  0  0  0  0  0
    5.5271    8.0312    0.3047 C   0  0  0  0  0  0  0  0  0  0  0  0
    5.7764    9.3637    0.2348 F   0  0  0  0  0  0  0  0  0  0  0  0
    4.3619    7.5313   -0.2856 C   0  0  0  0  0  0  0  0  0  0  0  0
    3.5106    8.3841   -0.9116 F   0  0  0  0  0  0  0  0  0  0  0  0
    7.8229    7.6336    1.2224 C   0  0  0  0  0  0  0  0  0  0  0  0
    8.1243    8.8167    1.8902 C   0  0  0  0  0  0  0  0  0  0  0  0
    9.4988    9.0934    1.9391 C   0  0  0  0  0  0  0  0  0  0  0  0
   10.2890    8.1513    1.2797 C   0  0  0  0  0  0  0  0  0  0  0  0
   11.7691    8.2132    1.1427 C   0  0  0  0  0  0  0  0  0  0  0  0
   12.4382    7.7508    0.0552 C   0  0  0  0  0  0  0  0  0  0  0  0
   11.7675    7.1955   -1.0969 C   0  0  0  0  0  0  0  0  0  0  0  0
   11.2335    6.7469   -2.0222 N   0  0  0  0  0  0  0  0  0  0  0  0
   13.8737    7.8670   -0.0458 C   0  0  0  0  0  0  0  0  0  0  0  0
   15.0233    7.9645   -0.1289 N   0  0  0  0  0  0  0  0  0  0  0  0
   12.4994    8.8502    2.2219 C   0  0  0  0  0  0  0  0  0  0  0  0
   13.0814    9.3600    3.0833 N   0  0  0  0  0  0  0  0  0  0  0  0
    9.2649    6.9501    0.6870 S   0  0  0  0  0  0  0  0  0  0  0  0
   -9.4453   -7.1454    3.0805 H   0  0  0  0  0  0  0  0  0  0  0  0
   -6.4784   -6.0387   -1.5615 H   0  0  0  0  0  0  0  0  0  0  0  0
   -6.4040   -8.4705   -1.9646 H   0  0  0  0  0  0  0  0  0  0  0  0
   -4.2588   -9.6838   -1.9140 H   0  0  0  0  0  0  0  0  0  0  0  0
   -0.9519   -8.0172   -1.8171 H   0  0  0  0  0  0  0  0  0  0  0  0
   -1.8126   -9.5707   -2.0613 H   0  0  0  0  0  0  0  0  0  0  0  0
   -2.2501   -9.7119    0.4228 H   0  0  0  0  0  0  0  0  0  0  0  0
   -0.4911   -9.6412    0.0273 H   0  0  0  0  0  0  0  0  0  0  0  0
   -1.3316   -8.1672    0.6513 H   0  0  0  0  0  0  0  0  0  0  0  0
   -2.2021   -6.0110   -1.0061 H   0  0  0  0  0  0  0  0  0  0  0  0
    4.9093    7.1439   -3.4217 H   0  0  0  0  0  0  0  0  0  0  0  0
    7.3284    7.2040   -3.9204 H   0  0  0  0  0  0  0  0  0  0  0  0
    8.6982    5.1646   -3.6998 H   0  0  0  0  0  0  0  0  0  0  0  0
    7.3229    1.7654   -3.2028 H   0  0  0  0  0  0  0  0  0  0  0  0
    8.8142    2.7209   -3.4792 H   0  0  0  0  0  0  0  0  0  0  0  0
    8.8236    1.6670   -1.2216 H   0  0  0  0  0  0  0  0  0  0  0  0
    7.2826    2.5057   -0.7982 H   0  0  0  0  0  0  0  0  0  0  0  0
    8.7907    3.4689   -1.0769 H   0  0  0  0  0  0  0  0  0  0  0  0
    5.1922    2.9375   -2.5519 H   0  0  0  0  0  0  0  0  0  0  0  0
   -3.3948    1.7350   -0.6351 H   0  0  0  0  0  0  0  0  0  0  0  0
   -4.5726    0.5034   -1.0264 H   0  0  0  0  0  0  0  0  0  0  0  0
   -4.9613    2.4153   -2.4763 H   0  0  0  0  0  0  0  0  0  0  0  0
   -3.2679    2.3835   -3.0802 H   0  0  0  0  0  0  0  0  0  0  0  0
   -4.3915    1.0228   -3.4760 H   0  0  0  0  0  0  0  0  0  0  0  0
   -1.3244    1.8229   -0.1332 H   0  0  0  0  0  0  0  0  0  0  0  0
    0.0526    2.8863    0.0147 H   0  0  0  0  0  0  0  0  0  0  0  0
   -2.6996    3.8588   -1.0187 H   0  0  0  0  0  0  0  0  0  0  0  0
   -1.2693    4.8786   -0.6774 H   0  0  0  0  0  0  0  0  0  0  0  0
   -2.0962    4.0271    0.6772 H   0  0  0  0  0  0  0  0  0  0  0  0
    7.3766    9.4719    2.3186 H   0  0  0  0  0  0  0  0  0  0  0  0
    9.8991    9.9773    2.4178 H   0  0  0  0  0  0  0  0  0  0  0  0
  1  2  2  3
  2  3  1  0
  3  4  2  0
  3  5  1  0
  5  6  2  0
  6  7  1  0
  6  8  1  0
  8  9  1  0
  8 10  2  0
 10 11  1  0
 10 12  1  0
 12 13  1  0
 12 14  2  0
 14 15  1  0
 15 16  2  3
 16 17  1  0
 17 18  3  0
 16 19  1  0
 19 20  3  0
  1 21  1  0
 21 22  2  0
 22 23  1  0
 22 24  1  0
 24 25  1  0
 24 26  2  0
 26 27  1  0
 27 28  1  0
 27 29  2  0
 29 30  1  0
 26 31  1  0
 31 32  2  0
 32 33  1  0
 33 34  2  0
 34 35  1  0
 35 36  2  0
 36 37  1  0
 37 38  1  0
 38 39  1  0
 37 40  2  0
 32 41  1  0
 41 42  1  0
 42 43  1  0
 43 44  1  0
 44 45  1  0
 45 46  1  0
 46 47  2  0
 47 48  1  0
 48 49  1  0
 46 50  1  0
 50 51  1  0
 51 52  1  0
 52 53  1  0
 53 54  1  0
 54 55  1  0
 55 56  2  0
 56 57  1  0
 57 58  2  0
 58 59  1  0
 59 60  1  0
 60 61  1  0
 59 62  2  0
 54 63  2  0
 63 64  1  0
 64 65  1  0
 65 66  1  0
 66 67  1  0
 67 68  1  0
 68 69  1  0
 69 70  1  0
 70 71  1  0
 71 72  1  0
 72 73  1  0
 70 74  1  0
 74 75  1  0
 67 76  1  0
 76 77  1  0
 63 78  1  0
 78 79  2  0
 79 80  1  0
 79 81  1  0
 81 82  1  0
 81 83  2  0
 83 84  1  0
 84 85  1  0
 84 86  2  0
 86 87  1  0
 83 88  1  0
 88 89  2  0
 89 90  1  0
 90 91  2  0
 91 92  1  0
 92 93  2  3
 93 94  1  0
 94 95  3  0
 93 96  1  0
 96 97  3  0
 92 98  1  0
 98 99  3  0
 91100  1  0
 15  2  1  0
 29 21  1  0
 73 31  1  0
 86 78  1  0
100 88  1  0
 14  5  1  0
 40 33  1  0
 72 41  2  0
 71 43  2  0
 69 44  2  0
 49 45  2  0
 68 50  2  0
 66 51  2  0
 65 53  2  0
 62 55  1  0
  1101  1  0
 34102  1  0
 35103  1  0
 36104  1  0
 38105  1  0
 38106  1  0
 39107  1  0
 39108  1  0
 39109  1  0
 40110  1  0
 56111  1  0
 57112  1  0
 58113  1  0
 60114  1  0
 60115  1  0
 61116  1  0
 61117  1  0
 61118  1  0
 62119  1  0
 74120  1  0
 74121  1  0
 75122  1  0
 75123  1  0
 75124  1  0
 76125  1  0
 76126  1  0
 77127  1  0
 77128  1  0
 77129  1  0
 89130  1  0
 90131  1  0
M  END

