
     RDKit          3D

161178  0  0  0  0  0  0  0  0999 V2000
    8.8730    2.5895    0.9385 C   0  0  0  0  0  0  0  0  0  0  0  0
    9.0306    2.2097    2.2235 C   0  0  0  0  0  0  0  0  0  0  0  0
    8.5932    0.9196    2.7731 C   0  0  0  0  0  0  0  0  0  0  0  0
    8.3221   -0.1159    2.1017 O   0  0  0  0  0  0  0  0  0  0  0  0
    8.6886    0.9702    4.2186 C   0  0  0  0  0  0  0  0  0  0  0  0
    8.3761   -0.0218    5.1515 C   0  0  0  0  0  0  0  0  0  0  0  0
    7.6365   -1.5409    4.6425 Cl  0  0  0  0  0  0  0  0  0  0  0  0
    8.6585    0.2213    6.5092 C   0  0  0  0  0  0  0  0  0  0  0  0
    8.2732   -1.0080    7.7177 Cl  0  0  0  0  0  0  0  0  0  0  0  0
    9.2864    1.4297    6.8975 C   0  0  0  0  0  0  0  0  0  0  0  0
    9.7081    1.6918    8.5903 Cl  0  0  0  0  0  0  0  0  0  0  0  0
    9.6190    2.4021    5.9320 C   0  0  0  0  0  0  0  0  0  0  0  0
   10.7040    3.7278    6.3685 Cl  0  0  0  0  0  0  0  0  0  0  0  0
    9.2229    2.1909    4.5940 C   0  0  0  0  0  0  0  0  0  0  0  0
    9.4326    3.0519    3.3890 C   0  0  0  0  0  0  0  0  0  0  0  0
    9.4400    4.4017    3.3892 C   0  0  0  0  0  0  0  0  0  0  0  0
    8.8201    5.1480    4.4511 C   0  0  0  0  0  0  0  0  0  0  0  0
    8.2910    5.7384    5.2969 N   0  0  0  0  0  0  0  0  0  0  0  0
   10.0162    5.1656    2.3189 C   0  0  0  0  0  0  0  0  0  0  0  0
   10.5111    5.8014    1.4794 N   0  0  0  0  0  0  0  0  0  0  0  0
    7.9611    1.8733    0.0275 C   0  0  0  0  0  0  0  0  0  0  0  0
    6.6400    1.5710    0.3277 C   0  0  0  0  0  0  0  0  0  0  0  0
    6.0137    0.8250   -0.6684 C   0  0  0  0  0  0  0  0  0  0  0  0
    4.3439    0.1867   -0.4725 S   0  0  0  0  0  0  0  0  0  0  0  0
    4.8600   -1.3065    0.4496 C   0  0  0  0  0  0  0  0  0  0  0  0
    4.6113   -1.1120    1.9378 C   0  0  0  0  0  0  0  0  0  0  0  0
    6.8277    0.5646   -1.7706 C   0  0  0  0  0  0  0  0  0  0  0  0
    8.3373    1.2742   -1.5017 S   0  0  0  0  0  0  0  0  0  0  0  0
    6.4367   -0.2831   -2.9097 C   0  0  0  0  0  0  0  0  0  0  0  0
    6.6202   -1.6852   -2.9430 C   0  0  0  0  0  0  0  0  0  0  0  0
    7.5927   -2.4199   -2.0924 C   0  0  0  0  0  0  0  0  0  0  0  0
    7.1970   -3.5336   -1.3290 C   0  0  0  0  0  0  0  0  0  0  0  0
    8.1292   -4.2073   -0.5347 C   0  0  0  0  0  0  0  0  0  0  0  0
    9.4478   -3.7619   -0.4631 C   0  0  0  0  0  0  0  0  0  0  0  0
    9.8524   -2.6379   -1.1990 C   0  0  0  0  0  0  0  0  0  0  0  0
   11.2709   -2.1346   -1.0960 C   0  0  0  0  0  0  0  0  0  0  0  0
   12.1726   -2.7899   -2.1348 C   0  0  0  0  0  0  0  0  0  0  0  0
    8.9337   -2.0007   -2.0463 C   0  0  0  0  0  0  0  0  0  0  0  0
    5.6655   -2.2976   -3.7727 C   0  0  0  0  0  0  0  0  0  0  0  0
    5.0935   -3.9070   -3.8917 S   0  0  0  0  0  0  0  0  0  0  0  0
    3.7146   -3.3992   -4.7315 C   0  0  0  0  0  0  0  0  0  0  0  0
    2.4484   -3.8619   -4.9682 C   0  0  0  0  0  0  0  0  0  0  0  0
    1.8959   -5.1391   -4.8621 C   0  0  0  0  0  0  0  0  0  0  0  0
    0.4948   -5.2968   -5.0688 C   0  0  0  0  0  0  0  0  0  0  0  0
   -0.0051   -6.5473   -4.9323 N   0  0  0  0  0  0  0  0  0  0  0  0
    1.3830   -7.3712   -4.5606 S   0  0  0  0  0  0  0  0  0  0  0  0
    2.6023   -6.2537   -4.5493 N   0  0  0  0  0  0  0  0  0  0  0  0
   -0.2861   -4.1572   -5.3197 C   0  0  0  0  0  0  0  0  0  0  0  0
   -1.6376   -3.9979   -5.1807 C   0  0  0  0  0  0  0  0  0  0  0  0
   -2.8459   -4.9505   -4.4534 S   0  0  0  0  0  0  0  0  0  0  0  0
   -3.7308   -3.5793   -3.9745 C   0  0  0  0  0  0  0  0  0  0  0  0
   -4.8231   -3.3829   -3.1140 C   0  0  0  0  0  0  0  0  0  0  0  0
   -5.6164   -4.4569   -2.4685 C   0  0  0  0  0  0  0  0  0  0  0  0
   -7.0127   -4.3327   -2.3568 C   0  0  0  0  0  0  0  0  0  0  0  0
   -7.7685   -5.3214   -1.7229 C   0  0  0  0  0  0  0  0  0  0  0  0
   -7.1412   -6.4429   -1.1874 C   0  0  0  0  0  0  0  0  0  0  0  0
   -5.7487   -6.5876   -1.2805 C   0  0  0  0  0  0  0  0  0  0  0  0
   -5.0766   -7.7938   -0.6757 C   0  0  0  0  0  0  0  0  0  0  0  0
   -4.9718   -7.6534    0.8413 C   0  0  0  0  0  0  0  0  0  0  0  0
   -4.9885   -5.5859   -1.9086 C   0  0  0  0  0  0  0  0  0  0  0  0
   -5.0211   -2.0073   -2.8718 C   0  0  0  0  0  0  0  0  0  0  0  0
   -3.8237   -1.1029   -3.6628 S   0  0  0  0  0  0  0  0  0  0  0  0
   -3.0761   -2.4322   -4.3562 C   0  0  0  0  0  0  0  0  0  0  0  0
   -1.8704   -2.6653   -5.0228 C   0  0  0  0  0  0  0  0  0  0  0  0
   -0.7261   -1.9287   -5.0798 N   0  0  0  0  0  0  0  0  0  0  0  0
    0.2581   -2.8605   -5.3266 C   0  0  0  0  0  0  0  0  0  0  0  0
    1.6769   -2.7244   -5.2539 C   0  0  0  0  0  0  0  0  0  0  0  0
    2.4636   -1.6027   -5.2750 N   0  0  0  0  0  0  0  0  0  0  0  0
    3.6830   -2.0592   -4.9065 C   0  0  0  0  0  0  0  0  0  0  0  0
    4.7909   -1.4271   -4.3764 C   0  0  0  0  0  0  0  0  0  0  0  0
    5.1018    0.1399   -3.8854 S   0  0  0  0  0  0  0  0  0  0  0  0
    2.2407   -0.3631   -6.0321 C   0  0  0  0  0  0  0  0  0  0  0  0
    3.1735   -0.2749   -7.2404 C   0  0  0  0  0  0  0  0  0  0  0  0
   -0.5745   -0.6084   -4.4463 C   0  0  0  0  0  0  0  0  0  0  0  0
   -1.1575    0.4996   -5.3266 C   0  0  0  0  0  0  0  0  0  0  0  0
   -5.8072   -1.4336   -1.7797 C   0  0  0  0  0  0  0  0  0  0  0  0
   -5.5865   -1.7378   -0.4425 C   0  0  0  0  0  0  0  0  0  0  0  0
   -6.1554   -0.8033    0.4338 C   0  0  0  0  0  0  0  0  0  0  0  0
   -5.9145   -0.7288    1.8248 C   0  0  0  0  0  0  0  0  0  0  0  0
   -5.2823   -1.7506    2.5516 O   0  0  0  0  0  0  0  0  0  0  0  0
   -5.7036   -3.1125    2.5304 C   0  0  0  0  0  0  0  0  0  0  0  0
   -6.7193   -3.3598    3.6340 C   0  0  0  0  0  0  0  0  0  0  0  0
   -6.2641    0.4710    2.4564 C   0  0  0  0  0  0  0  0  0  0  0  0
   -6.9196    1.5096    1.7969 C   0  0  0  0  0  0  0  0  0  0  0  0
   -7.2523    1.4024    0.4403 C   0  0  0  0  0  0  0  0  0  0  0  0
   -7.9259    2.4590   -0.1947 O   0  0  0  0  0  0  0  0  0  0  0  0
   -9.0076    2.2942   -1.1155 C   0  0  0  0  0  0  0  0  0  0  0  0
  -10.1714    1.5491   -0.4596 C   0  0  0  0  0  0  0  0  0  0  0  0
   -6.8225    0.2394   -0.2280 C   0  0  0  0  0  0  0  0  0  0  0  0
   -6.6734    0.0045   -1.8870 S   0  0  0  0  0  0  0  0  0  0  0  0
   -7.1069    2.6454    2.5911 C   0  0  0  0  0  0  0  0  0  0  0  0
   -6.5094    2.5259    3.8495 C   0  0  0  0  0  0  0  0  0  0  0  0
   -5.8771    0.9669    4.0192 S   0  0  0  0  0  0  0  0  0  0  0  0
   -6.4515    3.5534    4.8982 C   0  0  0  0  0  0  0  0  0  0  0  0
   -6.2457    4.8710    4.6785 C   0  0  0  0  0  0  0  0  0  0  0  0
   -6.0703    5.5319    3.3784 C   0  0  0  0  0  0  0  0  0  0  0  0
   -5.5816    5.0132    2.3397 O   0  0  0  0  0  0  0  0  0  0  0  0
   -6.4208    6.9313    3.5291 C   0  0  0  0  0  0  0  0  0  0  0  0
   -6.5902    7.9165    2.5409 C   0  0  0  0  0  0  0  0  0  0  0  0
   -6.3007    7.5803    0.8417 Cl  0  0  0  0  0  0  0  0  0  0  0  0
   -7.0047    9.1941    2.9438 C   0  0  0  0  0  0  0  0  0  0  0  0
   -7.2676    9.4592    4.2982 C   0  0  0  0  0  0  0  0  0  0  0  0
   -7.1072    8.4612    5.2722 C   0  0  0  0  0  0  0  0  0  0  0  0
   -6.6562    7.1920    4.8719 C   0  0  0  0  0  0  0  0  0  0  0  0
   -6.4131    5.9654    5.6788 C   0  0  0  0  0  0  0  0  0  0  0  0
   -6.1144    5.9072    7.0022 C   0  0  0  0  0  0  0  0  0  0  0  0
   -5.5825    4.7141    7.6170 C   0  0  0  0  0  0  0  0  0  0  0  0
   -5.1476    3.7668    8.1200 N   0  0  0  0  0  0  0  0  0  0  0  0
   -6.1596    7.0689    7.8532 C   0  0  0  0  0  0  0  0  0  0  0  0
   -6.1953    7.9949    8.5453 N   0  0  0  0  0  0  0  0  0  0  0  0
    9.2858    3.5177    0.5667 H   0  0  0  0  0  0  0  0  0  0  0  0
    6.1563    1.8494    1.2542 H   0  0  0  0  0  0  0  0  0  0  0  0
    4.2642   -2.1650    0.0844 H   0  0  0  0  0  0  0  0  0  0  0  0
    5.9365   -1.5408    0.2840 H   0  0  0  0  0  0  0  0  0  0  0  0
    4.9670   -2.0072    2.4912 H   0  0  0  0  0  0  0  0  0  0  0  0
    3.5229   -0.9797    2.1212 H   0  0  0  0  0  0  0  0  0  0  0  0
    5.1533   -0.2178    2.3123 H   0  0  0  0  0  0  0  0  0  0  0  0
    6.1672   -3.8629   -1.3150 H   0  0  0  0  0  0  0  0  0  0  0  0
    7.8209   -5.0704    0.0432 H   0  0  0  0  0  0  0  0  0  0  0  0
   10.1530   -4.2869    0.1674 H   0  0  0  0  0  0  0  0  0  0  0  0
   11.6745   -2.3450   -0.0793 H   0  0  0  0  0  0  0  0  0  0  0  0
   11.2927   -1.0285   -1.2276 H   0  0  0  0  0  0  0  0  0  0  0  0
   11.8832   -2.4630   -3.1556 H   0  0  0  0  0  0  0  0  0  0  0  0
   12.1031   -3.8944   -2.0633 H   0  0  0  0  0  0  0  0  0  0  0  0
   13.2241   -2.4929   -1.9502 H   0  0  0  0  0  0  0  0  0  0  0  0
    9.2602   -1.1726   -2.6636 H   0  0  0  0  0  0  0  0  0  0  0  0
   -7.5223   -3.4718   -2.7708 H   0  0  0  0  0  0  0  0  0  0  0  0
   -8.8437   -5.2162   -1.6525 H   0  0  0  0  0  0  0  0  0  0  0  0
   -7.7405   -7.2012   -0.6947 H   0  0  0  0  0  0  0  0  0  0  0  0
   -4.0589   -7.9310   -1.1029 H   0  0  0  0  0  0  0  0  0  0  0  0
   -5.6651   -8.7069   -0.9221 H   0  0  0  0  0  0  0  0  0  0  0  0
   -5.9854   -7.5177    1.2850 H   0  0  0  0  0  0  0  0  0  0  0  0
   -4.3417   -6.7730    1.1077 H   0  0  0  0  0  0  0  0  0  0  0  0
   -4.5154   -8.5711    1.2711 H   0  0  0  0  0  0  0  0  0  0  0  0
   -3.9120   -5.6751   -1.9362 H   0  0  0  0  0  0  0  0  0  0  0  0
    2.3951    0.5187   -5.3715 H   0  0  0  0  0  0  0  0  0  0  0  0
    1.2131   -0.3481   -6.4346 H   0  0  0  0  0  0  0  0  0  0  0  0
    2.9298    0.6337   -7.8303 H   0  0  0  0  0  0  0  0  0  0  0  0
    4.2330   -0.2119   -6.9185 H   0  0  0  0  0  0  0  0  0  0  0  0
    3.0357   -1.1736   -7.8829 H   0  0  0  0  0  0  0  0  0  0  0  0
   -1.0857   -0.6050   -3.4593 H   0  0  0  0  0  0  0  0  0  0  0  0
    0.4781   -0.3954   -4.1964 H   0  0  0  0  0  0  0  0  0  0  0  0
   -0.8079    1.4866   -4.9607 H   0  0  0  0  0  0  0  0  0  0  0  0
   -2.2681    0.4891   -5.2942 H   0  0  0  0  0  0  0  0  0  0  0  0
   -0.8582    0.3785   -6.3893 H   0  0  0  0  0  0  0  0  0  0  0  0
   -4.9040   -2.5187   -0.1306 H   0  0  0  0  0  0  0  0  0  0  0  0
   -6.1535   -3.4047    1.5608 H   0  0  0  0  0  0  0  0  0  0  0  0
   -4.8196   -3.7640    2.7138 H   0  0  0  0  0  0  0  0  0  0  0  0
   -7.0513   -4.4183    3.6094 H   0  0  0  0  0  0  0  0  0  0  0  0
   -7.6046   -2.7047    3.4876 H   0  0  0  0  0  0  0  0  0  0  0  0
   -6.2656   -3.1454    4.6259 H   0  0  0  0  0  0  0  0  0  0  0  0
   -9.3630    3.3025   -1.4155 H   0  0  0  0  0  0  0  0  0  0  0  0
   -8.6861    1.7762   -2.0355 H   0  0  0  0  0  0  0  0  0  0  0  0
   -9.8561    0.5248   -0.1500 H   0  0  0  0  0  0  0  0  0  0  0  0
  -10.5228    2.1016    0.4375 H   0  0  0  0  0  0  0  0  0  0  0  0
  -11.0130    1.4569   -1.1812 H   0  0  0  0  0  0  0  0  0  0  0  0
   -7.6333    3.5290    2.2516 H   0  0  0  0  0  0  0  0  0  0  0  0
   -6.6378    3.1973    5.9009 H   0  0  0  0  0  0  0  0  0  0  0  0
   -7.1457    9.9788    2.2088 H   0  0  0  0  0  0  0  0  0  0  0  0
   -7.6216   10.4380    4.5887 H   0  0  0  0  0  0  0  0  0  0  0  0
   -7.3925    8.6795    6.2876 H   0  0  0  0  0  0  0  0  0  0  0  0
  1  2  2  3
  2  3  1  0
  3  4  2  0
  3  5  1  0
  5  6  2  0
  6  7  1  0
  6  8  1  0
  8  9  1  0
  8 10  2  0
 10 11  1  0
 10 12  1  0
 12 13  1  0
 12 14  2  0
 14 15  1  0
 15 16  2  3
 16 17  1  0
 17 18  3  0
 16 19  1  0
 19 20  3  0
  1 21  1  0
 21 22  2  0
 22 23  1  0
 23 24  1  0
 24 25  1  0
 25 26  1  0
 23 27  2  0
 27 28  1  0
 27 29  1  0
 29 30  2  0
 30 31  1  0
 31 32  2  0
 32 33  1  0
 33 34  2  0
 34 35  1  0
 35 36  1  0
 36 37  1  0
 35 38  2  0
 30 39  1  0
 39 40  1  0
 40 41  1  0
 41 42  1  0
 42 43  1  0
 43 44  1  0
 44 45  2  0
 45 46  1  0
 46 47  1  0
 44 48  1  0
 48 49  1  0
 49 50  1  0
 50 51  1  0
 51 52  1  0
 52 53  1  0
 53 54  2  0
 54 55  1  0
 55 56  2  0
 56 57  1  0
 57 58  1  0
 58 59  1  0
 57 60  2  0
 52 61  2  0
 61 62  1  0
 62 63  1  0
 63 64  1  0
 64 65  1  0
 65 66  1  0
 66 67  1  0
 67 68  1  0
 68 69  1  0
 69 70  1  0
 70 71  1  0
 68 72  1  0
 72 73  1  0
 65 74  1  0
 74 75  1  0
 61 76  1  0
 76 77  2  0
 77 78  1  0
 78 79  2  0
 79 80  1  0
 80 81  1  0
 81 82  1  0
 79 83  1  0
 83 84  2  0
 84 85  1  0
 85 86  1  0
 86 87  1  0
 87 88  1  0
 85 89  2  0
 89 90  1  0
 84 91  1  0
 91 92  2  0
 92 93  1  0
 92 94  1  0
 94 95  2  3
 95 96  1  0
 96 97  2  0
 96 98  1  0
 98 99  2  0
 99100  1  0
 99101  1  0
101102  2  0
102103  1  0
103104  2  0
104105  1  0
105106  2  3
106107  1  0
107108  3  0
106109  1  0
109110  3  0
 15  2  1  0
 28 21  1  0
 71 29  1  0
 90 76  1  0
105 95  1  0
 14  5  1  0
 38 31  1  0
 70 39  2  0
 89 78  1  0
104 98  1  0
 69 41  2  0
 93 83  1  0
 67 42  2  0
 47 43  2  0
 66 48  2  0
 64 49  2  0
 63 51  2  0
 60 53  1  0
  1111  1  0
 22112  1  0
 25113  1  0
 25114  1  0
 26115  1  0
 26116  1  0
 26117  1  0
 32118  1  0
 33119  1  0
 34120  1  0
 36121  1  0
 36122  1  0
 37123  1  0
 37124  1  0
 37125  1  0
 38126  1  0
 54127  1  0
 55128  1  0
 56129  1  0
 58130  1  0
 58131  1  0
 59132  1  0
 59133  1  0
 59134  1  0
 60135  1  0
 72136  1  0
 72137  1  0
 73138  1  0
 73139  1  0
 73140  1  0
 74141  1  0
 74142  1  0
 75143  1  0
 75144  1  0
 75145  1  0
 77146  1  0
 81147  1  0
 81148  1  0
 82149  1  0
 82150  1  0
 82151  1  0
 87152  1  0
 87153  1  0
 88154  1  0
 88155  1  0
 88156  1  0
 91157  1  0
 94158  1  0
101159  1  0
102160  1  0
103161  1  0
M  END

