
     RDKit          3D

157176  0  0  0  0  0  0  0  0999 V2000
    8.3219    6.3393   -7.5694 C   0  0  0  0  0  0  0  0  0  0  0  0
    7.5684    7.3725   -7.9872 C   0  0  0  0  0  0  0  0  0  0  0  0
    6.3529    7.8747   -7.3346 C   0  0  0  0  0  0  0  0  0  0  0  0
    5.9405    7.5631   -6.1857 O   0  0  0  0  0  0  0  0  0  0  0  0
    5.6216    8.6876   -8.2940 C   0  0  0  0  0  0  0  0  0  0  0  0
    4.3319    9.2232   -8.1774 C   0  0  0  0  0  0  0  0  0  0  0  0
    3.4740    9.1861   -6.6372 Cl  0  0  0  0  0  0  0  0  0  0  0  0
    3.7269    9.7717   -9.3260 C   0  0  0  0  0  0  0  0  0  0  0  0
    2.1043   10.4641   -9.2141 Cl  0  0  0  0  0  0  0  0  0  0  0  0
    4.3853    9.6997  -10.5766 C   0  0  0  0  0  0  0  0  0  0  0  0
    3.5669   10.2682  -12.0315 Cl  0  0  0  0  0  0  0  0  0  0  0  0
    5.6710    9.1203  -10.6728 C   0  0  0  0  0  0  0  0  0  0  0  0
    6.3087    8.6934  -12.2603 Cl  0  0  0  0  0  0  0  0  0  0  0  0
    6.3216    8.7154   -9.4904 C   0  0  0  0  0  0  0  0  0  0  0  0
    7.6461    8.0572   -9.3051 C   0  0  0  0  0  0  0  0  0  0  0  0
    8.8023    8.4123   -9.9238 C   0  0  0  0  0  0  0  0  0  0  0  0
   10.0812    7.8697   -9.5365 C   0  0  0  0  0  0  0  0  0  0  0  0
   11.1156    7.4440   -9.2282 N   0  0  0  0  0  0  0  0  0  0  0  0
    8.8697    9.5234  -10.8355 C   0  0  0  0  0  0  0  0  0  0  0  0
    8.9444   10.4230  -11.5633 N   0  0  0  0  0  0  0  0  0  0  0  0
    8.1785    5.7304   -6.2416 C   0  0  0  0  0  0  0  0  0  0  0  0
    7.5039    4.1781   -5.9712 S   0  0  0  0  0  0  0  0  0  0  0  0
    7.5829    4.3538   -4.3082 C   0  0  0  0  0  0  0  0  0  0  0  0
    6.9172    3.8655   -3.2129 C   0  0  0  0  0  0  0  0  0  0  0  0
    7.0026    4.8364   -2.2617 C   0  0  0  0  0  0  0  0  0  0  0  0
    7.7127    5.9147   -2.6859 N   0  0  0  0  0  0  0  0  0  0  0  0
    7.7355    7.2469   -2.0796 C   0  0  0  0  0  0  0  0  0  0  0  0
    6.4967    8.0455   -2.4817 C   0  0  0  0  0  0  0  0  0  0  0  0
    8.0445    5.5865   -3.9615 C   0  0  0  0  0  0  0  0  0  0  0  0
    8.3983    6.4016   -5.0303 C   0  0  0  0  0  0  0  0  0  0  0  0
    6.0529    4.7417   -1.2513 C   0  0  0  0  0  0  0  0  0  0  0  0
    5.2261    3.6320   -1.4538 C   0  0  0  0  0  0  0  0  0  0  0  0
    5.6237    2.8383   -2.9136 S   0  0  0  0  0  0  0  0  0  0  0  0
    4.0121    3.3899   -0.6748 C   0  0  0  0  0  0  0  0  0  0  0  0
    2.9090    4.2600   -0.6211 C   0  0  0  0  0  0  0  0  0  0  0  0
    2.6601    5.3563   -1.5837 C   0  0  0  0  0  0  0  0  0  0  0  0
    2.7398    5.1073   -2.9640 C   0  0  0  0  0  0  0  0  0  0  0  0
    2.5078    6.1293   -3.8832 C   0  0  0  0  0  0  0  0  0  0  0  0
    2.1910    7.4128   -3.4366 C   0  0  0  0  0  0  0  0  0  0  0  0
    2.1221    7.6901   -2.0607 C   0  0  0  0  0  0  0  0  0  0  0  0
    1.7816    9.0834   -1.5926 C   0  0  0  0  0  0  0  0  0  0  0  0
    2.8155   10.1065   -2.0735 C   0  0  0  0  0  0  0  0  0  0  0  0
    2.3446    6.6522   -1.1379 C   0  0  0  0  0  0  0  0  0  0  0  0
    2.0401    3.8845    0.4062 C   0  0  0  0  0  0  0  0  0  0  0  0
    0.5248    4.4653    0.9488 S   0  0  0  0  0  0  0  0  0  0  0  0
    0.4293    3.2097    2.0892 C   0  0  0  0  0  0  0  0  0  0  0  0
   -0.4129    2.7331    3.0511 C   0  0  0  0  0  0  0  0  0  0  0  0
   -1.6008    3.2479    3.5700 C   0  0  0  0  0  0  0  0  0  0  0  0
   -2.2706    2.5139    4.5871 C   0  0  0  0  0  0  0  0  0  0  0  0
   -3.4315    3.0377    5.0541 N   0  0  0  0  0  0  0  0  0  0  0  0
   -3.5067    4.4182    4.1438 S   0  0  0  0  0  0  0  0  0  0  0  0
   -2.1689    4.4100    3.1679 N   0  0  0  0  0  0  0  0  0  0  0  0
   -1.7535    1.2707    4.9772 C   0  0  0  0  0  0  0  0  0  0  0  0
   -2.3968    0.2439    5.6060 C   0  0  0  0  0  0  0  0  0  0  0  0
   -4.0219   -0.0732    5.9718 S   0  0  0  0  0  0  0  0  0  0  0  0
   -3.7755   -1.7494    5.8509 C   0  0  0  0  0  0  0  0  0  0  0  0
   -4.6559   -2.8349    5.8241 C   0  0  0  0  0  0  0  0  0  0  0  0
   -6.1204   -2.7283    5.9847 C   0  0  0  0  0  0  0  0  0  0  0  0
   -6.8032   -3.5920    6.8539 C   0  0  0  0  0  0  0  0  0  0  0  0
   -8.1871   -3.4808    7.0146 C   0  0  0  0  0  0  0  0  0  0  0  0
   -8.9014   -2.5134    6.3012 C   0  0  0  0  0  0  0  0  0  0  0  0
   -8.2350   -1.6594    5.4074 C   0  0  0  0  0  0  0  0  0  0  0  0
   -8.9933   -0.6001    4.6505 C   0  0  0  0  0  0  0  0  0  0  0  0
   -8.9268    0.7368    5.3842 C   0  0  0  0  0  0  0  0  0  0  0  0
   -6.8438   -1.7673    5.2605 C   0  0  0  0  0  0  0  0  0  0  0  0
   -3.9758   -4.0189    5.4956 C   0  0  0  0  0  0  0  0  0  0  0  0
   -2.3424   -3.6766    5.1653 S   0  0  0  0  0  0  0  0  0  0  0  0
   -2.4769   -2.0354    5.5050 C   0  0  0  0  0  0  0  0  0  0  0  0
   -1.6872   -0.8909    5.3436 C   0  0  0  0  0  0  0  0  0  0  0  0
   -0.5732   -0.6468    4.5990 N   0  0  0  0  0  0  0  0  0  0  0  0
   -0.5849    0.7220    4.4122 C   0  0  0  0  0  0  0  0  0  0  0  0
    0.1690    1.5338    3.5096 C   0  0  0  0  0  0  0  0  0  0  0  0
    1.4195    1.3689    2.9493 N   0  0  0  0  0  0  0  0  0  0  0  0
    1.4965    2.3838    2.0549 C   0  0  0  0  0  0  0  0  0  0  0  0
    2.4265    2.7672    1.1036 C   0  0  0  0  0  0  0  0  0  0  0  0
    3.8768    2.1781    0.5146 S   0  0  0  0  0  0  0  0  0  0  0  0
    2.5927    0.6106    3.4222 C   0  0  0  0  0  0  0  0  0  0  0  0
    2.7042    0.6103    4.9482 C   0  0  0  0  0  0  0  0  0  0  0  0
    0.1609   -1.6747    3.8524 C   0  0  0  0  0  0  0  0  0  0  0  0
   -0.2045   -1.6609    2.3734 C   0  0  0  0  0  0  0  0  0  0  0  0
   -4.6163   -5.2867    5.1443 C   0  0  0  0  0  0  0  0  0  0  0  0
   -5.5127   -5.5196    3.7013 S   0  0  0  0  0  0  0  0  0  0  0  0
   -5.7280   -7.1461    4.0191 C   0  0  0  0  0  0  0  0  0  0  0  0
   -6.0196   -8.2907    3.3350 C   0  0  0  0  0  0  0  0  0  0  0  0
   -5.5585   -9.3140    4.1008 C   0  0  0  0  0  0  0  0  0  0  0  0
   -4.9914   -8.8758    5.2557 N   0  0  0  0  0  0  0  0  0  0  0  0
   -4.1974   -9.6469    6.2110 C   0  0  0  0  0  0  0  0  0  0  0  0
   -2.7391   -9.7145    5.7677 C   0  0  0  0  0  0  0  0  0  0  0  0
   -5.0955   -7.5262    5.1579 C   0  0  0  0  0  0  0  0  0  0  0  0
   -4.4328   -6.4992    5.8280 C   0  0  0  0  0  0  0  0  0  0  0  0
   -5.4715  -10.5392    3.4455 C   0  0  0  0  0  0  0  0  0  0  0  0
   -5.8805  -10.3972    2.1106 C   0  0  0  0  0  0  0  0  0  0  0  0
   -6.3088   -8.7730    1.7592 S   0  0  0  0  0  0  0  0  0  0  0  0
   -5.8518  -11.4876    1.1285 C   0  0  0  0  0  0  0  0  0  0  0  0
   -5.0166  -11.5140    0.0759 C   0  0  0  0  0  0  0  0  0  0  0  0
   -3.9186  -10.5902   -0.2007 C   0  0  0  0  0  0  0  0  0  0  0  0
   -3.6628   -9.5306    0.4309 O   0  0  0  0  0  0  0  0  0  0  0  0
   -3.1246  -11.1342   -1.2883 C   0  0  0  0  0  0  0  0  0  0  0  0
   -2.0432  -10.5355   -1.9478 C   0  0  0  0  0  0  0  0  0  0  0  0
   -1.4363   -8.9557   -1.4474 Cl  0  0  0  0  0  0  0  0  0  0  0  0
   -1.4843  -11.2005   -3.0542 C   0  0  0  0  0  0  0  0  0  0  0  0
   -0.1417  -10.4592   -3.9336 Cl  0  0  0  0  0  0  0  0  0  0  0  0
   -2.0136  -12.4362   -3.4874 C   0  0  0  0  0  0  0  0  0  0  0  0
   -1.3005  -13.2468   -4.8845 Cl  0  0  0  0  0  0  0  0  0  0  0  0
   -3.1144  -13.0194   -2.8161 C   0  0  0  0  0  0  0  0  0  0  0  0
   -3.7859  -14.5172   -3.4491 Cl  0  0  0  0  0  0  0  0  0  0  0  0
   -3.6569  -12.3564   -1.6880 C   0  0  0  0  0  0  0  0  0  0  0  0
   -4.8686  -12.6523   -0.8577 C   0  0  0  0  0  0  0  0  0  0  0  0
   -5.8792  -13.4637   -1.2179 C   0  0  0  0  0  0  0  0  0  0  0  0
   -5.7098  -14.8901   -1.1790 C   0  0  0  0  0  0  0  0  0  0  0  0
   -5.5803  -16.0407   -1.1346 N   0  0  0  0  0  0  0  0  0  0  0  0
   -7.2259  -12.9608   -1.3175 C   0  0  0  0  0  0  0  0  0  0  0  0
   -8.2957  -12.5467   -1.4521 N   0  0  0  0  0  0  0  0  0  0  0  0
    9.0413    5.8885   -8.2406 H   0  0  0  0  0  0  0  0  0  0  0  0
    7.7746    7.1507   -0.9725 H   0  0  0  0  0  0  0  0  0  0  0  0
    8.6464    7.7903   -2.3980 H   0  0  0  0  0  0  0  0  0  0  0  0
    6.4859    9.0156   -1.9437 H   0  0  0  0  0  0  0  0  0  0  0  0
    5.5689    7.4872   -2.2254 H   0  0  0  0  0  0  0  0  0  0  0  0
    6.5069    8.2414   -3.5725 H   0  0  0  0  0  0  0  0  0  0  0  0
    8.6947    7.4386   -4.9439 H   0  0  0  0  0  0  0  0  0  0  0  0
    5.8899    5.4948   -0.4927 H   0  0  0  0  0  0  0  0  0  0  0  0
    2.9578    4.1135   -3.3297 H   0  0  0  0  0  0  0  0  0  0  0  0
    2.5657    5.9257   -4.9444 H   0  0  0  0  0  0  0  0  0  0  0  0
    1.9981    8.1870   -4.1652 H   0  0  0  0  0  0  0  0  0  0  0  0
    0.7744    9.3625   -1.9780 H   0  0  0  0  0  0  0  0  0  0  0  0
    1.7339    9.1266   -0.4793 H   0  0  0  0  0  0  0  0  0  0  0  0
    2.7366   10.2539   -3.1711 H   0  0  0  0  0  0  0  0  0  0  0  0
    3.8448    9.7704   -1.8179 H   0  0  0  0  0  0  0  0  0  0  0  0
    2.6272   11.0800   -1.5762 H   0  0  0  0  0  0  0  0  0  0  0  0
    2.2820    6.8515   -0.0759 H   0  0  0  0  0  0  0  0  0  0  0  0
   -6.2632   -4.3442    7.4152 H   0  0  0  0  0  0  0  0  0  0  0  0
   -8.7042   -4.1423    7.6989 H   0  0  0  0  0  0  0  0  0  0  0  0
   -9.9724   -2.4290    6.4479 H   0  0  0  0  0  0  0  0  0  0  0  0
  -10.0558   -0.8953    4.5269 H   0  0  0  0  0  0  0  0  0  0  0  0
   -8.5654   -0.4806    3.6323 H   0  0  0  0  0  0  0  0  0  0  0  0
   -7.8755    1.0757    5.4787 H   0  0  0  0  0  0  0  0  0  0  0  0
   -9.3740    0.6472    6.3950 H   0  0  0  0  0  0  0  0  0  0  0  0
   -9.4959    1.5002    4.8087 H   0  0  0  0  0  0  0  0  0  0  0  0
   -6.3311   -1.1115    4.5696 H   0  0  0  0  0  0  0  0  0  0  0  0
    3.5183    1.1014    3.0729 H   0  0  0  0  0  0  0  0  0  0  0  0
    2.6131   -0.4010    2.9754 H   0  0  0  0  0  0  0  0  0  0  0  0
    1.8282    0.1407    5.4324 H   0  0  0  0  0  0  0  0  0  0  0  0
    3.6004    0.0416    5.2633 H   0  0  0  0  0  0  0  0  0  0  0  0
    2.7947    1.6573    5.3211 H   0  0  0  0  0  0  0  0  0  0  0  0
   -0.0533   -2.6806    4.2577 H   0  0  0  0  0  0  0  0  0  0  0  0
    1.2417   -1.5774    4.0070 H   0  0  0  0  0  0  0  0  0  0  0  0
   -1.3035   -1.7467    2.2517 H   0  0  0  0  0  0  0  0  0  0  0  0
    0.2843   -2.5155    1.8618 H   0  0  0  0  0  0  0  0  0  0  0  0
    0.1464   -0.7317    1.8878 H   0  0  0  0  0  0  0  0  0  0  0  0
   -4.2558   -9.1726    7.2164 H   0  0  0  0  0  0  0  0  0  0  0  0
   -4.6050  -10.6787    6.3011 H   0  0  0  0  0  0  0  0  0  0  0  0
   -2.1469  -10.2769    6.5174 H   0  0  0  0  0  0  0  0  0  0  0  0
   -2.3158   -8.6918    5.6771 H   0  0  0  0  0  0  0  0  0  0  0  0
   -2.6657  -10.2310    4.7899 H   0  0  0  0  0  0  0  0  0  0  0  0
   -3.8044   -6.6316    6.6962 H   0  0  0  0  0  0  0  0  0  0  0  0
   -5.0594  -11.4435    3.8748 H   0  0  0  0  0  0  0  0  0  0  0  0
   -6.4668  -12.3527    1.3355 H   0  0  0  0  0  0  0  0  0  0  0  0
  1  2  2  3
  2  3  1  0
  3  4  2  0
  3  5  1  0
  5  6  2  0
  6  7  1  0
  6  8  1  0
  8  9  1  0
  8 10  2  0
 10 11  1  0
 10 12  1  0
 12 13  1  0
 12 14  2  0
 14 15  1  0
 15 16  2  3
 16 17  1  0
 17 18  3  0
 16 19  1  0
 19 20  3  0
  1 21  1  0
 21 22  1  0
 22 23  1  0
 23 24  1  0
 24 25  2  0
 25 26  1  0
 26 27  1  0
 27 28  1  0
 26 29  1  0
 29 30  1  0
 25 31  1  0
 31 32  2  0
 32 33  1  0
 32 34  1  0
 34 35  2  0
 35 36  1  0
 36 37  2  0
 37 38  1  0
 38 39  2  0
 39 40  1  0
 40 41  1  0
 41 42  1  0
 40 43  2  0
 35 44  1  0
 44 45  1  0
 45 46  1  0
 46 47  1  0
 47 48  1  0
 48 49  1  0
 49 50  2  0
 50 51  1  0
 51 52  1  0
 49 53  1  0
 53 54  1  0
 54 55  1  0
 55 56  1  0
 56 57  1  0
 57 58  1  0
 58 59  2  0
 59 60  1  0
 60 61  2  0
 61 62  1  0
 62 63  1  0
 63 64  1  0
 62 65  2  0
 57 66  2  0
 66 67  1  0
 67 68  1  0
 68 69  1  0
 69 70  1  0
 70 71  1  0
 71 72  1  0
 72 73  1  0
 73 74  1  0
 74 75  1  0
 75 76  1  0
 73 77  1  0
 77 78  1  0
 70 79  1  0
 79 80  1  0
 66 81  1  0
 81 82  1  0
 82 83  1  0
 83 84  1  0
 84 85  2  0
 85 86  1  0
 86 87  1  0
 87 88  1  0
 86 89  1  0
 89 90  1  0
 85 91  1  0
 91 92  2  0
 92 93  1  0
 92 94  1  0
 94 95  2  3
 95 96  1  0
 96 97  2  0
 96 98  1  0
 98 99  2  0
 99100  1  0
 99101  1  0
101102  1  0
101103  2  0
103104  1  0
103105  1  0
105106  1  0
105107  2  0
107108  1  0
108109  2  3
109110  1  0
110111  3  0
109112  1  0
112113  3  0
 15  2  1  0
 30 21  2  0
 76 34  1  0
 90 81  2  0
108 95  1  0
 14  5  1  0
 29 23  2  0
 43 36  1  0
 75 44  2  0
 89 83  2  0
107 98  1  0
 33 24  1  0
 74 46  2  0
 93 84  1  0
 72 47  2  0
 52 48  2  0
 71 53  2  0
 69 54  2  0
 68 56  2  0
 65 58  1  0
  1114  1  0
 27115  1  0
 27116  1  0
 28117  1  0
 28118  1  0
 28119  1  0
 30120  1  0
 31121  1  0
 37122  1  0
 38123  1  0
 39124  1  0
 41125  1  0
 41126  1  0
 42127  1  0
 42128  1  0
 42129  1  0
 43130  1  0
 59131  1  0
 60132  1  0
 61133  1  0
 63134  1  0
 63135  1  0
 64136  1  0
 64137  1  0
 64138  1  0
 65139  1  0
 77140  1  0
 77141  1  0
 78142  1  0
 78143  1  0
 78144  1  0
 79145  1  0
 79146  1  0
 80147  1  0
 80148  1  0
 80149  1  0
 87150  1  0
 87151  1  0
 88152  1  0
 88153  1  0
 88154  1  0
 90155  1  0
 91156  1  0
 94157  1  0
M  END

