
     RDKit          3D

163183  0  0  0  0  0  0  0  0999 V2000
   -5.8239   12.0050    1.2936 C   0  0  0  0  0  0  0  0  0  0  0  0
   -5.2802   11.5851    2.4542 C   0  0  0  0  0  0  0  0  0  0  0  0
   -3.8499   11.3314    2.6993 C   0  0  0  0  0  0  0  0  0  0  0  0
   -2.8959   11.7591    1.9946 O   0  0  0  0  0  0  0  0  0  0  0  0
   -3.7001   10.6261    3.9631 C   0  0  0  0  0  0  0  0  0  0  0  0
   -2.5275   10.2596    4.6322 C   0  0  0  0  0  0  0  0  0  0  0  0
   -0.9441   10.5277    3.8911 Cl  0  0  0  0  0  0  0  0  0  0  0  0
   -2.6341    9.7105    5.9231 C   0  0  0  0  0  0  0  0  0  0  0  0
   -1.1735    9.2099    6.7858 Cl  0  0  0  0  0  0  0  0  0  0  0  0
   -3.9012    9.5909    6.5427 C   0  0  0  0  0  0  0  0  0  0  0  0
   -4.0157    8.9664    8.1904 Cl  0  0  0  0  0  0  0  0  0  0  0  0
   -5.0666    9.9979    5.8606 C   0  0  0  0  0  0  0  0  0  0  0  0
   -6.5947   10.0893    6.7490 Cl  0  0  0  0  0  0  0  0  0  0  0  0
   -4.9512   10.4423    4.5272 C   0  0  0  0  0  0  0  0  0  0  0  0
   -6.0041   10.9858    3.6200 C   0  0  0  0  0  0  0  0  0  0  0  0
   -7.2928   10.5885    3.6050 C   0  0  0  0  0  0  0  0  0  0  0  0
   -8.3468   11.4217    3.0945 C   0  0  0  0  0  0  0  0  0  0  0  0
   -9.2200   12.0819    2.7152 N   0  0  0  0  0  0  0  0  0  0  0  0
   -7.6621    9.2535    4.0151 C   0  0  0  0  0  0  0  0  0  0  0  0
   -7.9590    8.1810    4.3361 N   0  0  0  0  0  0  0  0  0  0  0  0
   -5.0853   12.0345    0.0182 C   0  0  0  0  0  0  0  0  0  0  0  0
   -5.2603   10.8054   -1.1324 S   0  0  0  0  0  0  0  0  0  0  0  0
   -4.0500   11.3960   -2.1181 C   0  0  0  0  0  0  0  0  0  0  0  0
   -3.0801   10.7543   -2.8373 C   0  0  0  0  0  0  0  0  0  0  0  0
   -1.9403   11.4895   -2.6862 C   0  0  0  0  0  0  0  0  0  0  0  0
   -2.1608   12.6102   -1.9479 N   0  0  0  0  0  0  0  0  0  0  0  0
   -1.1385   13.4986   -1.3877 C   0  0  0  0  0  0  0  0  0  0  0  0
   -0.7064   13.0517    0.0052 C   0  0  0  0  0  0  0  0  0  0  0  0
   -3.4617   12.4991   -1.5600 C   0  0  0  0  0  0  0  0  0  0  0  0
   -4.0431   12.9012   -0.3528 C   0  0  0  0  0  0  0  0  0  0  0  0
   -0.7584   10.7460   -2.7851 C   0  0  0  0  0  0  0  0  0  0  0  0
   -1.0282    9.3776   -2.9758 C   0  0  0  0  0  0  0  0  0  0  0  0
   -2.7109    9.1331   -2.9992 S   0  0  0  0  0  0  0  0  0  0  0  0
   -0.0666    8.2602   -2.8904 C   0  0  0  0  0  0  0  0  0  0  0  0
    1.1602    8.2320   -2.1953 C   0  0  0  0  0  0  0  0  0  0  0  0
    1.6955    9.2951   -1.3316 C   0  0  0  0  0  0  0  0  0  0  0  0
    0.9693    9.7206   -0.2090 C   0  0  0  0  0  0  0  0  0  0  0  0
    1.5183   10.6662    0.6596 C   0  0  0  0  0  0  0  0  0  0  0  0
    2.7782   11.2087    0.4089 C   0  0  0  0  0  0  0  0  0  0  0  0
    3.5239   10.7718   -0.6979 C   0  0  0  0  0  0  0  0  0  0  0  0
    4.8828   11.3520   -0.9747 C   0  0  0  0  0  0  0  0  0  0  0  0
    4.7948   12.4904   -1.9848 C   0  0  0  0  0  0  0  0  0  0  0  0
    2.9785    9.8076   -1.5599 C   0  0  0  0  0  0  0  0  0  0  0  0
    1.7015    6.9470   -2.1765 C   0  0  0  0  0  0  0  0  0  0  0  0
    2.8798    6.2634   -1.1628 S   0  0  0  0  0  0  0  0  0  0  0  0
    2.4397    4.6991   -1.6348 C   0  0  0  0  0  0  0  0  0  0  0  0
    2.4741    3.4848   -1.0115 C   0  0  0  0  0  0  0  0  0  0  0  0
    3.0750    3.1393    0.2032 C   0  0  0  0  0  0  0  0  0  0  0  0
    2.6979    1.9258    0.8369 C   0  0  0  0  0  0  0  0  0  0  0  0
    3.2848    1.6418    2.0235 N   0  0  0  0  0  0  0  0  0  0  0  0
    4.2425    2.9805    2.1937 S   0  0  0  0  0  0  0  0  0  0  0  0
    3.9746    3.9167    0.8548 N   0  0  0  0  0  0  0  0  0  0  0  0
    1.7659    1.1044    0.1976 C   0  0  0  0  0  0  0  0  0  0  0  0
    1.3890   -0.1726    0.4780 C   0  0  0  0  0  0  0  0  0  0  0  0
    1.8458   -1.3943    1.5618 S   0  0  0  0  0  0  0  0  0  0  0  0
    1.0860   -2.5692    0.5883 C   0  0  0  0  0  0  0  0  0  0  0  0
    1.0201   -3.9620    0.6517 C   0  0  0  0  0  0  0  0  0  0  0  0
    1.5403   -4.7787    1.7700 C   0  0  0  0  0  0  0  0  0  0  0  0
    2.8202   -4.5528    2.2963 C   0  0  0  0  0  0  0  0  0  0  0  0
    3.2902   -5.3208    3.3649 C   0  0  0  0  0  0  0  0  0  0  0  0
    2.4810   -6.3158    3.9205 C   0  0  0  0  0  0  0  0  0  0  0  0
    1.2032   -6.5617    3.3973 C   0  0  0  0  0  0  0  0  0  0  0  0
    0.3117   -7.6043    4.0182 C   0  0  0  0  0  0  0  0  0  0  0  0
   -0.5560   -6.9870    5.1097 C   0  0  0  0  0  0  0  0  0  0  0  0
    0.7342   -5.7825    2.3300 C   0  0  0  0  0  0  0  0  0  0  0  0
    0.3710   -4.4824   -0.4832 C   0  0  0  0  0  0  0  0  0  0  0  0
   -0.0932   -3.2165   -1.5228 S   0  0  0  0  0  0  0  0  0  0  0  0
    0.5256   -2.0112   -0.5330 C   0  0  0  0  0  0  0  0  0  0  0  0
    0.7024   -0.6328   -0.5948 C   0  0  0  0  0  0  0  0  0  0  0  0
    0.5872    0.2954   -1.5808 N   0  0  0  0  0  0  0  0  0  0  0  0
    1.1947    1.4174   -1.0519 C   0  0  0  0  0  0  0  0  0  0  0  0
    1.4749    2.6992   -1.6184 C   0  0  0  0  0  0  0  0  0  0  0  0
    0.7521    3.4690   -2.5076 N   0  0  0  0  0  0  0  0  0  0  0  0
    1.3853    4.6763   -2.4936 C   0  0  0  0  0  0  0  0  0  0  0  0
    0.9585    5.9737   -2.8020 C   0  0  0  0  0  0  0  0  0  0  0  0
   -0.4357    6.6810   -3.4123 S   0  0  0  0  0  0  0  0  0  0  0  0
   -0.5884    3.2400   -3.0647 C   0  0  0  0  0  0  0  0  0  0  0  0
   -1.6295    3.0552   -1.9616 C   0  0  0  0  0  0  0  0  0  0  0  0
    0.2589   -0.0211   -2.9797 C   0  0  0  0  0  0  0  0  0  0  0  0
    1.4168    0.3061   -3.9230 C   0  0  0  0  0  0  0  0  0  0  0  0
    0.3604   -5.8921   -0.8860 C   0  0  0  0  0  0  0  0  0  0  0  0
   -1.0053   -6.7334   -1.4962 S   0  0  0  0  0  0  0  0  0  0  0  0
   -0.1140   -8.1344   -1.7234 C   0  0  0  0  0  0  0  0  0  0  0  0
   -0.2324   -9.4469   -2.0936 C   0  0  0  0  0  0  0  0  0  0  0  0
    1.0006   -9.9941   -1.9409 C   0  0  0  0  0  0  0  0  0  0  0  0
    1.9082   -9.1046   -1.4738 N   0  0  0  0  0  0  0  0  0  0  0  0
    3.3328   -9.3013   -1.2077 C   0  0  0  0  0  0  0  0  0  0  0  0
    4.1521   -8.8730   -2.4176 C   0  0  0  0  0  0  0  0  0  0  0  0
    1.1798   -7.9672   -1.3571 C   0  0  0  0  0  0  0  0  0  0  0  0
    1.4971   -6.7123   -0.8681 C   0  0  0  0  0  0  0  0  0  0  0  0
    1.0674  -11.3609   -2.1486 C   0  0  0  0  0  0  0  0  0  0  0  0
   -0.2098  -11.8635   -2.4533 C   0  0  0  0  0  0  0  0  0  0  0  0
   -1.3764  -10.6045   -2.4922 S   0  0  0  0  0  0  0  0  0  0  0  0
   -0.5105  -13.2937   -2.6311 C   0  0  0  0  0  0  0  0  0  0  0  0
   -0.2150  -14.2163   -1.6911 C   0  0  0  0  0  0  0  0  0  0  0  0
    0.3092  -13.9134   -0.3515 C   0  0  0  0  0  0  0  0  0  0  0  0
    0.2397  -12.8049    0.2488 O   0  0  0  0  0  0  0  0  0  0  0  0
    0.8516  -15.1222    0.2130 C   0  0  0  0  0  0  0  0  0  0  0  0
    1.5820  -15.2540    1.3911 C   0  0  0  0  0  0  0  0  0  0  0  0
    2.1230  -16.5086    1.7099 C   0  0  0  0  0  0  0  0  0  0  0  0
    2.8810  -16.6779    2.8778 C   0  0  0  0  0  0  0  0  0  0  0  0
    3.4442  -17.9252    3.1727 C   0  0  0  0  0  0  0  0  0  0  0  0
    3.2427  -19.0096    2.3178 C   0  0  0  0  0  0  0  0  0  0  0  0
    3.7947  -20.2112    2.6130 F   0  0  0  0  0  0  0  0  0  0  0  0
    2.4890  -18.8574    1.1494 C   0  0  0  0  0  0  0  0  0  0  0  0
    1.9238  -17.6103    0.8316 C   0  0  0  0  0  0  0  0  0  0  0  0
    1.1870  -17.4418   -0.3603 C   0  0  0  0  0  0  0  0  0  0  0  0
    0.6320  -16.1818   -0.6526 C   0  0  0  0  0  0  0  0  0  0  0  0
   -0.1370  -15.7074   -1.8451 C   0  0  0  0  0  0  0  0  0  0  0  0
   -0.7445  -16.4801   -2.7899 C   0  0  0  0  0  0  0  0  0  0  0  0
   -1.5851  -15.9359   -3.8182 C   0  0  0  0  0  0  0  0  0  0  0  0
   -2.2693  -15.5118   -4.6516 N   0  0  0  0  0  0  0  0  0  0  0  0
   -0.6837  -17.9197   -2.7755 C   0  0  0  0  0  0  0  0  0  0  0  0
   -0.6470  -19.0763   -2.7796 N   0  0  0  0  0  0  0  0  0  0  0  0
   -6.8919   12.0438    1.1787 H   0  0  0  0  0  0  0  0  0  0  0  0
   -0.2585   13.5149   -2.0658 H   0  0  0  0  0  0  0  0  0  0  0  0
   -1.5327   14.5369   -1.3412 H   0  0  0  0  0  0  0  0  0  0  0  0
   -1.2651   13.6119    0.7811 H   0  0  0  0  0  0  0  0  0  0  0  0
   -0.8914   11.9683    0.1393 H   0  0  0  0  0  0  0  0  0  0  0  0
    0.3748   13.2501    0.1480 H   0  0  0  0  0  0  0  0  0  0  0  0
   -3.6448   13.6684    0.2940 H   0  0  0  0  0  0  0  0  0  0  0  0
    0.2243   11.1538   -2.5863 H   0  0  0  0  0  0  0  0  0  0  0  0
   -0.0118    9.3124   -0.0003 H   0  0  0  0  0  0  0  0  0  0  0  0
    0.9563   10.9931    1.5275 H   0  0  0  0  0  0  0  0  0  0  0  0
    3.1772   11.9564    1.0808 H   0  0  0  0  0  0  0  0  0  0  0  0
    5.3442   11.7335   -0.0353 H   0  0  0  0  0  0  0  0  0  0  0  0
    5.5577   10.5573   -1.3690 H   0  0  0  0  0  0  0  0  0  0  0  0
    4.3970   12.1164   -2.9508 H   0  0  0  0  0  0  0  0  0  0  0  0
    5.8064   12.9165   -2.1517 H   0  0  0  0  0  0  0  0  0  0  0  0
    4.1315   13.2928   -1.5998 H   0  0  0  0  0  0  0  0  0  0  0  0
    3.5512    9.4641   -2.4126 H   0  0  0  0  0  0  0  0  0  0  0  0
    3.4632   -3.7900    1.8738 H   0  0  0  0  0  0  0  0  0  0  0  0
    4.2808   -5.1405    3.7636 H   0  0  0  0  0  0  0  0  0  0  0  0
    2.8508   -6.8931    4.7600 H   0  0  0  0  0  0  0  0  0  0  0  0
    0.9199   -8.4262    4.4532 H   0  0  0  0  0  0  0  0  0  0  0  0
   -0.3422   -8.0537    3.2409 H   0  0  0  0  0  0  0  0  0  0  0  0
   -1.1448   -6.1347    4.7029 H   0  0  0  0  0  0  0  0  0  0  0  0
    0.0799   -6.6248    5.9474 H   0  0  0  0  0  0  0  0  0  0  0  0
   -1.2628   -7.7514    5.5028 H   0  0  0  0  0  0  0  0  0  0  0  0
   -0.2697   -5.9473    1.9508 H   0  0  0  0  0  0  0  0  0  0  0  0
   -0.8988    4.0975   -3.6868 H   0  0  0  0  0  0  0  0  0  0  0  0
   -0.5801    2.4191   -3.7900 H   0  0  0  0  0  0  0  0  0  0  0  0
   -2.6416    2.9983   -2.4090 H   0  0  0  0  0  0  0  0  0  0  0  0
   -1.5912    3.9125   -1.2583 H   0  0  0  0  0  0  0  0  0  0  0  0
   -1.4504    2.1148   -1.4028 H   0  0  0  0  0  0  0  0  0  0  0  0
   -0.6984    0.4331   -3.2687 H   0  0  0  0  0  0  0  0  0  0  0  0
    0.0662   -1.1041   -3.0909 H   0  0  0  0  0  0  0  0  0  0  0  0
    2.3679   -0.0892   -3.5076 H   0  0  0  0  0  0  0  0  0  0  0  0
    1.5203    1.3999   -4.0717 H   0  0  0  0  0  0  0  0  0  0  0  0
    1.2361   -0.1610   -4.9117 H   0  0  0  0  0  0  0  0  0  0  0  0
    3.5347  -10.3702   -0.9894 H   0  0  0  0  0  0  0  0  0  0  0  0
    3.6365   -8.7079   -0.3223 H   0  0  0  0  0  0  0  0  0  0  0  0
    5.2328   -9.0523   -2.2263 H   0  0  0  0  0  0  0  0  0  0  0  0
    4.0019   -7.7889   -2.6160 H   0  0  0  0  0  0  0  0  0  0  0  0
    3.8504   -9.4555   -3.3132 H   0  0  0  0  0  0  0  0  0  0  0  0
    2.4791   -6.4112   -0.5315 H   0  0  0  0  0  0  0  0  0  0  0  0
    1.9596  -11.9608   -2.0194 H   0  0  0  0  0  0  0  0  0  0  0  0
   -0.8752  -13.5655   -3.6028 H   0  0  0  0  0  0  0  0  0  0  0  0
    1.7461  -14.3920    2.0302 H   0  0  0  0  0  0  0  0  0  0  0  0
    3.0488  -15.8453    3.5533 H   0  0  0  0  0  0  0  0  0  0  0  0
    4.0413  -18.0458    4.0676 H   0  0  0  0  0  0  0  0  0  0  0  0
    2.3486  -19.7097    0.4951 H   0  0  0  0  0  0  0  0  0  0  0  0
    1.0995  -18.2696   -1.0416 H   0  0  0  0  0  0  0  0  0  0  0  0
  1  2  2  3
  2  3  1  0
  3  4  2  0
  3  5  1  0
  5  6  2  0
  6  7  1  0
  6  8  1  0
  8  9  1  0
  8 10  2  0
 10 11  1  0
 10 12  1  0
 12 13  1  0
 12 14  2  0
 14 15  1  0
 15 16  2  3
 16 17  1  0
 17 18  3  0
 16 19  1  0
 19 20  3  0
  1 21  1  0
 21 22  1  0
 22 23  1  0
 23 24  1  0
 24 25  2  0
 25 26  1  0
 26 27  1  0
 27 28  1  0
 26 29  1  0
 29 30  1  0
 25 31  1  0
 31 32  2  0
 32 33  1  0
 32 34  1  0
 34 35  2  0
 35 36  1  0
 36 37  2  0
 37 38  1  0
 38 39  2  0
 39 40  1  0
 40 41  1  0
 41 42  1  0
 40 43  2  0
 35 44  1  0
 44 45  1  0
 45 46  1  0
 46 47  1  0
 47 48  1  0
 48 49  1  0
 49 50  2  0
 50 51  1  0
 51 52  1  0
 49 53  1  0
 53 54  1  0
 54 55  1  0
 55 56  1  0
 56 57  1  0
 57 58  1  0
 58 59  2  0
 59 60  1  0
 60 61  2  0
 61 62  1  0
 62 63  1  0
 63 64  1  0
 62 65  2  0
 57 66  2  0
 66 67  1  0
 67 68  1  0
 68 69  1  0
 69 70  1  0
 70 71  1  0
 71 72  1  0
 72 73  1  0
 73 74  1  0
 74 75  1  0
 75 76  1  0
 73 77  1  0
 77 78  1  0
 70 79  1  0
 79 80  1  0
 66 81  1  0
 81 82  1  0
 82 83  1  0
 83 84  1  0
 84 85  2  0
 85 86  1  0
 86 87  1  0
 87 88  1  0
 86 89  1  0
 89 90  1  0
 85 91  1  0
 91 92  2  0
 92 93  1  0
 92 94  1  0
 94 95  2  3
 95 96  1  0
 96 97  2  0
 96 98  1  0
 98 99  2  0
 99100  1  0
100101  2  0
101102  1  0
102103  2  0
103104  1  0
103105  1  0
105106  2  0
106107  1  0
107108  2  0
108109  1  0
109110  2  3
110111  1  0
111112  3  0
110113  1  0
113114  3  0
 15  2  1  0
 30 21  2  0
 76 34  1  0
 90 81  2  0
109 95  1  0
 14  5  1  0
 29 23  2  0
 43 36  1  0
 75 44  2  0
 89 83  2  0
108 98  1  0
 33 24  1  0
 74 46  2  0
 93 84  1  0
106100  1  0
 72 47  2  0
 52 48  2  0
 71 53  2  0
 69 54  2  0
 68 56  2  0
 65 58  1  0
  1115  1  0
 27116  1  0
 27117  1  0
 28118  1  0
 28119  1  0
 28120  1  0
 30121  1  0
 31122  1  0
 37123  1  0
 38124  1  0
 39125  1  0
 41126  1  0
 41127  1  0
 42128  1  0
 42129  1  0
 42130  1  0
 43131  1  0
 59132  1  0
 60133  1  0
 61134  1  0
 63135  1  0
 63136  1  0
 64137  1  0
 64138  1  0
 64139  1  0
 65140  1  0
 77141  1  0
 77142  1  0
 78143  1  0
 78144  1  0
 78145  1  0
 79146  1  0
 79147  1  0
 80148  1  0
 80149  1  0
 80150  1  0
 87151  1  0
 87152  1  0
 88153  1  0
 88154  1  0
 88155  1  0
 90156  1  0
 91157  1  0
 94158  1  0
 99159  1  0
101160  1  0
102161  1  0
105162  1  0
107163  1  0
M  END

