
     RDKit          3D

199221  0  0  0  0  0  0  0  0999 V2000
   -4.4063   -6.5630   -4.6605 C   0  0  0  0  0  0  0  0  0  0  0  0
   -3.5252   -7.3861   -5.2615 C   0  0  0  0  0  0  0  0  0  0  0  0
   -2.0810   -7.1275   -5.3930 C   0  0  0  0  0  0  0  0  0  0  0  0
   -1.4928   -6.0271   -5.2084 O   0  0  0  0  0  0  0  0  0  0  0  0
   -1.4159   -8.3726   -5.6930 C   0  0  0  0  0  0  0  0  0  0  0  0
   -0.0355   -8.6189   -5.7284 C   0  0  0  0  0  0  0  0  0  0  0  0
    0.3728   -9.9500   -5.8754 C   0  0  0  0  0  0  0  0  0  0  0  0
    1.6945  -10.4127   -5.8973 C   0  0  0  0  0  0  0  0  0  0  0  0
    1.7699  -11.7974   -6.0041 C   0  0  0  0  0  0  0  0  0  0  0  0
    3.3734  -12.8205   -6.0714 Br  0  0  0  0  0  0  0  0  0  0  0  0
    0.2114  -12.4532   -6.0855 S   0  0  0  0  0  0  0  0  0  0  0  0
   -0.5742  -10.9734   -5.9793 C   0  0  0  0  0  0  0  0  0  0  0  0
   -1.9497  -10.7307   -5.9353 C   0  0  0  0  0  0  0  0  0  0  0  0
   -2.3650   -9.3872   -5.8129 C   0  0  0  0  0  0  0  0  0  0  0  0
   -3.7346   -8.8179   -5.6530 C   0  0  0  0  0  0  0  0  0  0  0  0
   -4.9008   -9.4139   -6.0036 C   0  0  0  0  0  0  0  0  0  0  0  0
   -4.9410  -10.7129   -6.6196 C   0  0  0  0  0  0  0  0  0  0  0  0
   -4.9838  -11.7552   -7.1300 N   0  0  0  0  0  0  0  0  0  0  0  0
   -6.1746   -8.7531   -5.9173 C   0  0  0  0  0  0  0  0  0  0  0  0
   -7.2048   -8.2326   -5.8674 N   0  0  0  0  0  0  0  0  0  0  0  0
   -4.0372   -5.2187   -4.1970 C   0  0  0  0  0  0  0  0  0  0  0  0
   -3.7208   -4.1026   -5.0059 C   0  0  0  0  0  0  0  0  0  0  0  0
   -4.0236   -3.9987   -6.4198 N   0  0  0  0  0  0  0  0  0  0  0  0
   -5.1090   -4.7513   -6.9901 C   0  0  0  0  0  0  0  0  0  0  0  0
   -4.8947   -5.5398   -8.1289 C   0  0  0  0  0  0  0  0  0  0  0  0
   -5.9612   -6.2160   -8.7272 C   0  0  0  0  0  0  0  0  0  0  0  0
   -7.2560   -6.1079   -8.1960 C   0  0  0  0  0  0  0  0  0  0  0  0
   -8.4055   -6.8219   -8.8392 C   0  0  0  0  0  0  0  0  0  0  0  0
   -7.4754   -5.2920   -7.0755 C   0  0  0  0  0  0  0  0  0  0  0  0
   -6.4052   -4.6302   -6.4674 C   0  0  0  0  0  0  0  0  0  0  0  0
   -3.5669   -2.8837   -7.1952 C   0  0  0  0  0  0  0  0  0  0  0  0
   -4.3224   -1.7001   -7.2276 C   0  0  0  0  0  0  0  0  0  0  0  0
   -3.9049   -0.6199   -8.0123 C   0  0  0  0  0  0  0  0  0  0  0  0
   -2.7507   -0.7275   -8.8028 C   0  0  0  0  0  0  0  0  0  0  0  0
   -2.3100    0.4391   -9.6354 C   0  0  0  0  0  0  0  0  0  0  0  0
   -2.0181   -1.9248   -8.7951 C   0  0  0  0  0  0  0  0  0  0  0  0
   -2.4141   -2.9903   -7.9791 C   0  0  0  0  0  0  0  0  0  0  0  0
   -3.1265   -3.0985   -4.2255 C   0  0  0  0  0  0  0  0  0  0  0  0
   -2.4422   -1.5944   -4.5172 S   0  0  0  0  0  0  0  0  0  0  0  0
   -2.0731   -1.2612   -2.8873 C   0  0  0  0  0  0  0  0  0  0  0  0
   -2.5079   -2.3428   -2.1034 C   0  0  0  0  0  0  0  0  0  0  0  0
   -2.4872   -2.3790   -0.6665 N   0  0  0  0  0  0  0  0  0  0  0  0
   -1.2376   -2.2488    0.0488 C   0  0  0  0  0  0  0  0  0  0  0  0
   -1.1905   -1.6195    1.3059 C   0  0  0  0  0  0  0  0  0  0  0  0
    0.0216   -1.4880    1.9902 C   0  0  0  0  0  0  0  0  0  0  0  0
    1.2115   -1.9741    1.4257 C   0  0  0  0  0  0  0  0  0  0  0  0
    2.5040   -1.8570    2.1791 C   0  0  0  0  0  0  0  0  0  0  0  0
    1.1711   -2.6086    0.1770 C   0  0  0  0  0  0  0  0  0  0  0  0
   -0.0414   -2.7392   -0.5092 C   0  0  0  0  0  0  0  0  0  0  0  0
   -3.7352   -2.5819    0.0312 C   0  0  0  0  0  0  0  0  0  0  0  0
   -3.8325   -3.5051    1.0880 C   0  0  0  0  0  0  0  0  0  0  0  0
   -5.0605   -3.7316    1.7180 C   0  0  0  0  0  0  0  0  0  0  0  0
   -6.2054   -3.0305    1.3113 C   0  0  0  0  0  0  0  0  0  0  0  0
   -7.5342   -3.3067    1.9494 C   0  0  0  0  0  0  0  0  0  0  0  0
   -6.1167   -2.1214    0.2474 C   0  0  0  0  0  0  0  0  0  0  0  0
   -4.8909   -1.8987   -0.3837 C   0  0  0  0  0  0  0  0  0  0  0  0
   -3.0623   -3.3532   -2.8911 C   0  0  0  0  0  0  0  0  0  0  0  0
   -3.6615   -4.8854   -2.5706 S   0  0  0  0  0  0  0  0  0  0  0  0
   -1.6191    0.0660   -2.4256 C   0  0  0  0  0  0  0  0  0  0  0  0
   -0.8440    0.9499   -3.1966 C   0  0  0  0  0  0  0  0  0  0  0  0
    0.2854    0.5001   -4.0234 C   0  0  0  0  0  0  0  0  0  0  0  0
    1.5111    0.2263   -3.3917 C   0  0  0  0  0  0  0  0  0  0  0  0
    2.6255   -0.1365   -4.1415 C   0  0  0  0  0  0  0  0  0  0  0  0
    2.5286   -0.2489   -5.5272 C   0  0  0  0  0  0  0  0  0  0  0  0
    1.3049   -0.0045   -6.1757 C   0  0  0  0  0  0  0  0  0  0  0  0
    1.2105   -0.1694   -7.6685 C   0  0  0  0  0  0  0  0  0  0  0  0
    1.3792   -1.6317   -8.0694 C   0  0  0  0  0  0  0  0  0  0  0  0
    0.1817    0.3805   -5.4178 C   0  0  0  0  0  0  0  0  0  0  0  0
   -0.8632    2.2294   -2.6471 C   0  0  0  0  0  0  0  0  0  0  0  0
   -0.1093    3.6831   -3.1008 S   0  0  0  0  0  0  0  0  0  0  0  0
   -0.7081    4.4489   -1.7138 C   0  0  0  0  0  0  0  0  0  0  0  0
   -0.3726    5.5527   -1.0014 C   0  0  0  0  0  0  0  0  0  0  0  0
    0.4231    6.6291   -1.3927 C   0  0  0  0  0  0  0  0  0  0  0  0
    0.7948    7.5833   -0.4227 C   0  0  0  0  0  0  0  0  0  0  0  0
    1.6023    8.5946   -0.8323 N   0  0  0  0  0  0  0  0  0  0  0  0
    1.7819    8.1865   -2.4251 S   0  0  0  0  0  0  0  0  0  0  0  0
    0.9037    6.8024   -2.6500 N   0  0  0  0  0  0  0  0  0  0  0  0
    0.3611    7.4095    0.8925 C   0  0  0  0  0  0  0  0  0  0  0  0
    0.7957    8.0682    2.0021 C   0  0  0  0  0  0  0  0  0  0  0  0
    2.2540    8.8678    2.3088 S   0  0  0  0  0  0  0  0  0  0  0  0
    2.3202    8.2516    3.8861 C   0  0  0  0  0  0  0  0  0  0  0  0
    3.4184    8.0611    4.7315 C   0  0  0  0  0  0  0  0  0  0  0  0
    4.7338    8.7150    4.5392 C   0  0  0  0  0  0  0  0  0  0  0  0
    5.3195    9.4230    5.5985 C   0  0  0  0  0  0  0  0  0  0  0  0
    6.5512   10.0590    5.4228 C   0  0  0  0  0  0  0  0  0  0  0  0
    7.2143    9.9875    4.1943 C   0  0  0  0  0  0  0  0  0  0  0  0
    6.6597    9.2571    3.1344 C   0  0  0  0  0  0  0  0  0  0  0  0
    7.3792    9.1716    1.8127 C   0  0  0  0  0  0  0  0  0  0  0  0
    7.0572   10.3790    0.9391 C   0  0  0  0  0  0  0  0  0  0  0  0
    5.4153    8.6250    3.3106 C   0  0  0  0  0  0  0  0  0  0  0  0
    3.1565    7.0553    5.6832 C   0  0  0  0  0  0  0  0  0  0  0  0
    1.5958    6.4311    5.4235 S   0  0  0  0  0  0  0  0  0  0  0  0
    1.2274    7.4591    4.1512 C   0  0  0  0  0  0  0  0  0  0  0  0
    0.3571    7.3484    3.0694 C   0  0  0  0  0  0  0  0  0  0  0  0
   -0.4254    6.3023    2.7049 N   0  0  0  0  0  0  0  0  0  0  0  0
   -0.4037    6.3002    1.3252 C   0  0  0  0  0  0  0  0  0  0  0  0
   -0.8170    5.3330    0.3237 C   0  0  0  0  0  0  0  0  0  0  0  0
   -1.4437    4.0931    0.3866 N   0  0  0  0  0  0  0  0  0  0  0  0
   -1.3712    3.6151   -0.8837 C   0  0  0  0  0  0  0  0  0  0  0  0
   -1.5087    2.3464   -1.4447 C   0  0  0  0  0  0  0  0  0  0  0  0
   -2.2016    0.8722   -1.0389 S   0  0  0  0  0  0  0  0  0  0  0  0
   -1.8019    3.2290    1.5125 C   0  0  0  0  0  0  0  0  0  0  0  0
   -0.5614    2.5358    2.0768 C   0  0  0  0  0  0  0  0  0  0  0  0
   -1.2927    5.6252    3.6762 C   0  0  0  0  0  0  0  0  0  0  0  0
   -2.7568    6.0136    3.4667 C   0  0  0  0  0  0  0  0  0  0  0  0
    4.1695    6.2849    6.4328 C   0  0  0  0  0  0  0  0  0  0  0  0
    5.3325    5.8392    5.7828 C   0  0  0  0  0  0  0  0  0  0  0  0
    6.1904    4.9328    6.4093 C   0  0  0  0  0  0  0  0  0  0  0  0
    5.8858    4.4529    7.6880 C   0  0  0  0  0  0  0  0  0  0  0  0
    4.7465    4.9172    8.3552 C   0  0  0  0  0  0  0  0  0  0  0  0
    3.8825    5.8176    7.7237 C   0  0  0  0  0  0  0  0  0  0  0  0
    6.7348    3.4229    8.3023 C   0  0  0  0  0  0  0  0  0  0  0  0
    6.7565    2.1483    7.8748 C   0  0  0  0  0  0  0  0  0  0  0  0
    5.7616    1.5380    6.9851 C   0  0  0  0  0  0  0  0  0  0  0  0
    4.9720    2.1423    6.2095 O   0  0  0  0  0  0  0  0  0  0  0  0
    5.8037    0.1008    7.1828 C   0  0  0  0  0  0  0  0  0  0  0  0
    4.9328   -0.8673    6.6595 C   0  0  0  0  0  0  0  0  0  0  0  0
    5.0950   -2.1837    7.1147 C   0  0  0  0  0  0  0  0  0  0  0  0
    4.2941   -3.2761    6.7579 C   0  0  0  0  0  0  0  0  0  0  0  0
    4.6607   -4.4343    7.4362 C   0  0  0  0  0  0  0  0  0  0  0  0
    3.8026   -6.1289    7.2778 Br  0  0  0  0  0  0  0  0  0  0  0  0
    5.9700   -4.1192    8.4614 S   0  0  0  0  0  0  0  0  0  0  0  0
    6.0794   -2.4938    8.0545 C   0  0  0  0  0  0  0  0  0  0  0  0
    6.9502   -1.5292    8.5738 C   0  0  0  0  0  0  0  0  0  0  0  0
    6.8098   -0.2120    8.0979 C   0  0  0  0  0  0  0  0  0  0  0  0
    7.5343    1.0287    8.4779 C   0  0  0  0  0  0  0  0  0  0  0  0
    8.7905    1.1164    8.9953 C   0  0  0  0  0  0  0  0  0  0  0  0
    9.5097    2.3621    9.0327 C   0  0  0  0  0  0  0  0  0  0  0  0
   10.0911    3.3648    9.0616 N   0  0  0  0  0  0  0  0  0  0  0  0
    9.5229   -0.0335    9.4567 C   0  0  0  0  0  0  0  0  0  0  0  0
   10.1127   -0.9458    9.8512 N   0  0  0  0  0  0  0  0  0  0  0  0
   -5.3950   -6.9058   -4.3964 H   0  0  0  0  0  0  0  0  0  0  0  0
    0.6826   -7.8141   -5.6166 H   0  0  0  0  0  0  0  0  0  0  0  0
    2.5622   -9.7699   -5.8274 H   0  0  0  0  0  0  0  0  0  0  0  0
   -2.6382  -11.5583   -5.9283 H   0  0  0  0  0  0  0  0  0  0  0  0
   -3.9000   -5.6320   -8.5463 H   0  0  0  0  0  0  0  0  0  0  0  0
   -5.7756   -6.8253   -9.6041 H   0  0  0  0  0  0  0  0  0  0  0  0
   -8.9587   -6.1297   -9.5036 H   0  0  0  0  0  0  0  0  0  0  0  0
   -9.0995   -7.2075   -8.0611 H   0  0  0  0  0  0  0  0  0  0  0  0
   -8.0519   -7.6910   -9.4332 H   0  0  0  0  0  0  0  0  0  0  0  0
   -8.4727   -5.1860   -6.6606 H   0  0  0  0  0  0  0  0  0  0  0  0
   -6.5878   -4.0039   -5.6033 H   0  0  0  0  0  0  0  0  0  0  0  0
   -5.2229   -1.6136   -6.6317 H   0  0  0  0  0  0  0  0  0  0  0  0
   -4.4916    0.2894   -8.0175 H   0  0  0  0  0  0  0  0  0  0  0  0
   -3.1325    0.7403  -10.3217 H   0  0  0  0  0  0  0  0  0  0  0  0
   -1.4148    0.1849  -10.2452 H   0  0  0  0  0  0  0  0  0  0  0  0
   -2.0539    1.2933   -8.9689 H   0  0  0  0  0  0  0  0  0  0  0  0
   -1.1445   -2.0365   -9.4228 H   0  0  0  0  0  0  0  0  0  0  0  0
   -1.8394   -3.9112   -7.9798 H   0  0  0  0  0  0  0  0  0  0  0  0
   -2.0912   -1.2128    1.7509 H   0  0  0  0  0  0  0  0  0  0  0  0
    0.0320   -1.0083    2.9610 H   0  0  0  0  0  0  0  0  0  0  0  0
    3.3675   -1.8090    1.4798 H   0  0  0  0  0  0  0  0  0  0  0  0
    2.6271   -2.7388    2.8438 H   0  0  0  0  0  0  0  0  0  0  0  0
    2.5161   -0.9347    2.7985 H   0  0  0  0  0  0  0  0  0  0  0  0
    2.0759   -3.0038   -0.2685 H   0  0  0  0  0  0  0  0  0  0  0  0
   -0.0499   -3.2369   -1.4719 H   0  0  0  0  0  0  0  0  0  0  0  0
   -2.9626   -4.0653    1.4058 H   0  0  0  0  0  0  0  0  0  0  0  0
   -5.1226   -4.4631    2.5184 H   0  0  0  0  0  0  0  0  0  0  0  0
   -8.0720   -4.0792    1.3621 H   0  0  0  0  0  0  0  0  0  0  0  0
   -8.1512   -2.3842    1.9855 H   0  0  0  0  0  0  0  0  0  0  0  0
   -7.4039   -3.6718    2.9888 H   0  0  0  0  0  0  0  0  0  0  0  0
   -6.9934   -1.5904   -0.1001 H   0  0  0  0  0  0  0  0  0  0  0  0
   -4.8379   -1.1888   -1.2003 H   0  0  0  0  0  0  0  0  0  0  0  0
    1.6044    0.3219   -2.3127 H   0  0  0  0  0  0  0  0  0  0  0  0
    3.5684   -0.3310   -3.6508 H   0  0  0  0  0  0  0  0  0  0  0  0
    3.4034   -0.5323   -6.0985 H   0  0  0  0  0  0  0  0  0  0  0  0
    2.0040    0.4389   -8.1566 H   0  0  0  0  0  0  0  0  0  0  0  0
    0.2304    0.1995   -8.0423 H   0  0  0  0  0  0  0  0  0  0  0  0
    1.2671   -1.7336   -9.1692 H   0  0  0  0  0  0  0  0  0  0  0  0
    0.6140   -2.2604   -7.5657 H   0  0  0  0  0  0  0  0  0  0  0  0
    2.3886   -2.0002   -7.7867 H   0  0  0  0  0  0  0  0  0  0  0  0
   -0.7632    0.5916   -5.9085 H   0  0  0  0  0  0  0  0  0  0  0  0
    4.8116    9.4966    6.5519 H   0  0  0  0  0  0  0  0  0  0  0  0
    6.9904   10.6142    6.2401 H   0  0  0  0  0  0  0  0  0  0  0  0
    8.1591   10.5037    4.0691 H   0  0  0  0  0  0  0  0  0  0  0  0
    7.0938    8.2409    1.2766 H   0  0  0  0  0  0  0  0  0  0  0  0
    8.4765    9.1292    1.9865 H   0  0  0  0  0  0  0  0  0  0  0  0
    7.6303   10.3132   -0.0098 H   0  0  0  0  0  0  0  0  0  0  0  0
    7.3371   11.3249    1.4565 H   0  0  0  0  0  0  0  0  0  0  0  0
    5.9696   10.4006    0.7023 H   0  0  0  0  0  0  0  0  0  0  0  0
    4.9884    8.0483    2.4988 H   0  0  0  0  0  0  0  0  0  0  0  0
   -2.3943    3.7636    2.2565 H   0  0  0  0  0  0  0  0  0  0  0  0
   -2.5118    2.4466    1.1786 H   0  0  0  0  0  0  0  0  0  0  0  0
    0.2371    3.2772    2.2992 H   0  0  0  0  0  0  0  0  0  0  0  0
   -0.1657    1.8118    1.3353 H   0  0  0  0  0  0  0  0  0  0  0  0
   -0.8256    1.9889    3.0043 H   0  0  0  0  0  0  0  0  0  0  0  0
   -1.0399    5.9545    4.7057 H   0  0  0  0  0  0  0  0  0  0  0  0
   -1.1009    4.5429    3.7093 H   0  0  0  0  0  0  0  0  0  0  0  0
   -3.4015    5.3385    4.0713 H   0  0  0  0  0  0  0  0  0  0  0  0
   -2.9205    7.0618    3.8067 H   0  0  0  0  0  0  0  0  0  0  0  0
   -3.0560    5.9403    2.3982 H   0  0  0  0  0  0  0  0  0  0  0  0
    5.5544    6.1399    4.7695 H   0  0  0  0  0  0  0  0  0  0  0  0
    7.0669    4.5756    5.8788 H   0  0  0  0  0  0  0  0  0  0  0  0
    4.4971    4.5428    9.3404 H   0  0  0  0  0  0  0  0  0  0  0  0
    2.9712    6.1222    8.2246 H   0  0  0  0  0  0  0  0  0  0  0  0
    7.3070    3.7075    9.1692 H   0  0  0  0  0  0  0  0  0  0  0  0
    4.1464   -0.5982    5.9648 H   0  0  0  0  0  0  0  0  0  0  0  0
    3.4716   -3.2216    6.0559 H   0  0  0  0  0  0  0  0  0  0  0  0
    7.6616   -1.8026    9.3355 H   0  0  0  0  0  0  0  0  0  0  0  0
  1  2  2  3
  2  3  1  0
  3  4  2  0
  3  5  1  0
  5  6  2  0
  6  7  1  0
  7  8  1  0
  8  9  2  0
  9 10  1  0
  9 11  1  0
 11 12  1  0
 12 13  1  0
 13 14  2  0
 14 15  1  0
 15 16  2  3
 16 17  1  0
 17 18  3  0
 16 19  1  0
 19 20  3  0
  1 21  1  0
 21 22  2  0
 22 23  1  0
 23 24  1  0
 24 25  2  0
 25 26  1  0
 26 27  2  0
 27 28  1  0
 27 29  1  0
 29 30  2  0
 23 31  1  0
 31 32  2  0
 32 33  1  0
 33 34  2  0
 34 35  1  0
 34 36  1  0
 36 37  2  0
 22 38  1  0
 38 39  1  0
 39 40  1  0
 40 41  2  0
 41 42  1  0
 42 43  1  0
 43 44  2  0
 44 45  1  0
 45 46  2  0
 46 47  1  0
 46 48  1  0
 48 49  2  0
 42 50  1  0
 50 51  2  0
 51 52  1  0
 52 53  2  0
 53 54  1  0
 53 55  1  0
 55 56  2  0
 41 57  1  0
 57 58  1  0
 40 59  1  0
 59 60  2  0
 60 61  1  0
 61 62  2  0
 62 63  1  0
 63 64  2  0
 64 65  1  0
 65 66  1  0
 66 67  1  0
 65 68  2  0
 60 69  1  0
 69 70  1  0
 70 71  1  0
 71 72  1  0
 72 73  1  0
 73 74  1  0
 74 75  2  0
 75 76  1  0
 76 77  1  0
 74 78  1  0
 78 79  1  0
 79 80  1  0
 80 81  1  0
 81 82  1  0
 82 83  1  0
 83 84  2  0
 84 85  1  0
 85 86  2  0
 86 87  1  0
 87 88  1  0
 88 89  1  0
 87 90  2  0
 82 91  2  0
 91 92  1  0
 92 93  1  0
 93 94  1  0
 94 95  1  0
 95 96  1  0
 96 97  1  0
 97 98  1  0
 98 99  1  0
 99100  1  0
100101  1  0
 98102  1  0
102103  1  0
 95104  1  0
104105  1  0
 91106  1  0
106107  2  0
107108  1  0
108109  2  0
109110  1  0
110111  2  0
109112  1  0
112113  2  3
113114  1  0
114115  2  0
114116  1  0
116117  2  0
117118  1  0
118119  1  0
119120  2  0
120121  1  0
120122  1  0
122123  1  0
123124  1  0
124125  2  0
125126  1  0
126127  2  3
127128  1  0
128129  3  0
127130  1  0
130131  3  0
 15  2  1  0
 58 21  1  0
101 59  1  0
111106  1  0
126113  1  0
 14  5  1  0
 30 24  1  0
 37 31  1  0
 57 38  2  0
 68 61  1  0
100 69  2  0
125116  1  0
 12  7  2  0
 49 43  1  0
 56 50  1  0
 99 71  2  0
123118  2  0
 97 72  2  0
 77 73  2  0
 96 78  2  0
 94 79  2  0
 93 81  2  0
 90 83  1  0
  1132  1  0
  6133  1  0
  8134  1  0
 13135  1  0
 25136  1  0
 26137  1  0
 28138  1  0
 28139  1  0
 28140  1  0
 29141  1  0
 30142  1  0
 32143  1  0
 33144  1  0
 35145  1  0
 35146  1  0
 35147  1  0
 36148  1  0
 37149  1  0
 44150  1  0
 45151  1  0
 47152  1  0
 47153  1  0
 47154  1  0
 48155  1  0
 49156  1  0
 51157  1  0
 52158  1  0
 54159  1  0
 54160  1  0
 54161  1  0
 55162  1  0
 56163  1  0
 62164  1  0
 63165  1  0
 64166  1  0
 66167  1  0
 66168  1  0
 67169  1  0
 67170  1  0
 67171  1  0
 68172  1  0
 84173  1  0
 85174  1  0
 86175  1  0
 88176  1  0
 88177  1  0
 89178  1  0
 89179  1  0
 89180  1  0
 90181  1  0
102182  1  0
102183  1  0
103184  1  0
103185  1  0
103186  1  0
104187  1  0
104188  1  0
105189  1  0
105190  1  0
105191  1  0
107192  1  0
108193  1  0
110194  1  0
111195  1  0
112196  1  0
117197  1  0
119198  1  0
124199  1  0
M  END

