
     RDKit          3D

239265  0  0  0  0  0  0  0  0999 V2000
    0.8819   -6.5380    3.3501 C   0  0  0  0  0  0  0  0  0  0  0  0
    1.2452   -5.3781    3.9488 C   0  0  0  0  0  0  0  0  0  0  0  0
    1.2927   -4.0661    3.2677 C   0  0  0  0  0  0  0  0  0  0  0  0
    1.0170   -3.8382    2.0589 O   0  0  0  0  0  0  0  0  0  0  0  0
    1.6480   -3.0517    4.2235 C   0  0  0  0  0  0  0  0  0  0  0  0
    1.8318   -1.6842    3.9816 C   0  0  0  0  0  0  0  0  0  0  0  0
    2.2311   -0.8917    5.0621 C   0  0  0  0  0  0  0  0  0  0  0  0
    2.4511    0.4889    5.0298 C   0  0  0  0  0  0  0  0  0  0  0  0
    2.8468    0.9849    6.2636 C   0  0  0  0  0  0  0  0  0  0  0  0
    3.2609    2.8154    6.6355 Br  0  0  0  0  0  0  0  0  0  0  0  0
    2.9003   -0.2645    7.4034 S   0  0  0  0  0  0  0  0  0  0  0  0
    2.4371   -1.4611    6.3184 C   0  0  0  0  0  0  0  0  0  0  0  0
    2.2456   -2.8268    6.5635 C   0  0  0  0  0  0  0  0  0  0  0  0
    1.8140   -3.6294    5.4821 C   0  0  0  0  0  0  0  0  0  0  0  0
    1.5314   -5.1044    5.4036 C   0  0  0  0  0  0  0  0  0  0  0  0
    1.4220   -5.9597    6.4540 C   0  0  0  0  0  0  0  0  0  0  0  0
    1.1421   -7.3641    6.3081 C   0  0  0  0  0  0  0  0  0  0  0  0
    0.9042   -8.4888    6.1947 N   0  0  0  0  0  0  0  0  0  0  0  0
    1.4869   -5.5222    7.8227 C   0  0  0  0  0  0  0  0  0  0  0  0
    1.5394   -5.1848    8.9301 N   0  0  0  0  0  0  0  0  0  0  0  0
    0.5195   -6.6072    1.9291 C   0  0  0  0  0  0  0  0  0  0  0  0
   -0.7816   -6.4689    1.4205 C   0  0  0  0  0  0  0  0  0  0  0  0
   -1.9817   -6.6887    2.1828 N   0  0  0  0  0  0  0  0  0  0  0  0
   -2.3450   -8.0318    2.5609 C   0  0  0  0  0  0  0  0  0  0  0  0
   -2.1876   -9.0991    1.6602 C   0  0  0  0  0  0  0  0  0  0  0  0
   -2.5433  -10.3945    2.0310 C   0  0  0  0  0  0  0  0  0  0  0  0
   -3.0520  -10.6502    3.3118 C   0  0  0  0  0  0  0  0  0  0  0  0
   -3.4205  -12.0539    3.7019 C   0  0  0  0  0  0  0  0  0  0  0  0
   -3.1866   -9.5950    4.2253 C   0  0  0  0  0  0  0  0  0  0  0  0
   -2.8489   -8.2944    3.8474 C   0  0  0  0  0  0  0  0  0  0  0  0
   -2.7746   -5.5704    2.6239 C   0  0  0  0  0  0  0  0  0  0  0  0
   -2.2760   -4.6941    3.5972 C   0  0  0  0  0  0  0  0  0  0  0  0
   -3.0844   -3.6874    4.1279 C   0  0  0  0  0  0  0  0  0  0  0  0
   -4.4050   -3.5346    3.6843 C   0  0  0  0  0  0  0  0  0  0  0  0
   -5.2966   -2.4918    4.2920 C   0  0  0  0  0  0  0  0  0  0  0  0
   -4.9142   -4.4145    2.7175 C   0  0  0  0  0  0  0  0  0  0  0  0
   -4.1044   -5.4315    2.1937 C   0  0  0  0  0  0  0  0  0  0  0  0
   -0.7552   -6.2725    0.0435 C   0  0  0  0  0  0  0  0  0  0  0  0
   -1.8936   -5.9425   -1.1367 S   0  0  0  0  0  0  0  0  0  0  0  0
   -0.7636   -5.7777   -2.4149 C   0  0  0  0  0  0  0  0  0  0  0  0
    0.5302   -6.0119   -1.8820 C   0  0  0  0  0  0  0  0  0  0  0  0
    1.7697   -5.9770   -2.6268 N   0  0  0  0  0  0  0  0  0  0  0  0
    2.8141   -5.0809   -2.1898 C   0  0  0  0  0  0  0  0  0  0  0  0
    2.5040   -3.7613   -1.8072 C   0  0  0  0  0  0  0  0  0  0  0  0
    3.5049   -2.9117   -1.3257 C   0  0  0  0  0  0  0  0  0  0  0  0
    4.8261   -3.3711   -1.1996 C   0  0  0  0  0  0  0  0  0  0  0  0
    5.8923   -2.4511   -0.6872 C   0  0  0  0  0  0  0  0  0  0  0  0
    5.1401   -4.6765   -1.5967 C   0  0  0  0  0  0  0  0  0  0  0  0
    4.1401   -5.5275   -2.0822 C   0  0  0  0  0  0  0  0  0  0  0  0
    2.0031   -6.9454   -3.6762 C   0  0  0  0  0  0  0  0  0  0  0  0
    1.4671   -8.2427   -3.5872 C   0  0  0  0  0  0  0  0  0  0  0  0
    1.6991   -9.1770   -4.6016 C   0  0  0  0  0  0  0  0  0  0  0  0
    2.4581   -8.8252   -5.7296 C   0  0  0  0  0  0  0  0  0  0  0  0
    2.7378   -9.8431   -6.7961 C   0  0  0  0  0  0  0  0  0  0  0  0
    3.0014   -7.5400   -5.8165 C   0  0  0  0  0  0  0  0  0  0  0  0
    2.7769   -6.6036   -4.8012 C   0  0  0  0  0  0  0  0  0  0  0  0
    0.4809   -6.2721   -0.5128 C   0  0  0  0  0  0  0  0  0  0  0  0
    1.6525   -6.5068    0.6651 S   0  0  0  0  0  0  0  0  0  0  0  0
   -1.0604   -5.1995   -3.7507 C   0  0  0  0  0  0  0  0  0  0  0  0
   -2.3276   -4.8044   -4.2536 C   0  0  0  0  0  0  0  0  0  0  0  0
   -3.6261   -5.1495   -3.6524 C   0  0  0  0  0  0  0  0  0  0  0  0
   -4.0495   -6.4856   -3.6468 C   0  0  0  0  0  0  0  0  0  0  0  0
   -5.2798   -6.8291   -3.0827 C   0  0  0  0  0  0  0  0  0  0  0  0
   -6.0917   -5.8450   -2.5155 C   0  0  0  0  0  0  0  0  0  0  0  0
   -5.6838   -4.5016   -2.5229 C   0  0  0  0  0  0  0  0  0  0  0  0
   -6.5409   -3.4500   -1.8818 C   0  0  0  0  0  0  0  0  0  0  0  0
   -6.4138   -3.4940   -0.3642 C   0  0  0  0  0  0  0  0  0  0  0  0
   -4.4426   -4.1585   -3.0887 C   0  0  0  0  0  0  0  0  0  0  0  0
   -2.2005   -3.9781   -5.3802 C   0  0  0  0  0  0  0  0  0  0  0  0
   -3.2204   -2.7799   -6.0499 S   0  0  0  0  0  0  0  0  0  0  0  0
   -1.9247   -2.0592   -6.8921 C   0  0  0  0  0  0  0  0  0  0  0  0
   -1.5867   -0.7581   -7.1972 C   0  0  0  0  0  0  0  0  0  0  0  0
   -2.3485    0.3901   -7.4775 C   0  0  0  0  0  0  0  0  0  0  0  0
   -1.6596    1.6268   -7.6891 C   0  0  0  0  0  0  0  0  0  0  0  0
   -2.4258    2.7150   -7.9486 N   0  0  0  0  0  0  0  0  0  0  0  0
   -3.9328    2.0170   -7.8966 S   0  0  0  0  0  0  0  0  0  0  0  0
   -3.6990    0.4077   -7.5660 N   0  0  0  0  0  0  0  0  0  0  0  0
   -0.2630    1.6791   -7.5181 C   0  0  0  0  0  0  0  0  0  0  0  0
    0.5447    2.7556   -7.2492 C   0  0  0  0  0  0  0  0  0  0  0  0
    0.1997    4.3830   -6.9225 S   0  0  0  0  0  0  0  0  0  0  0  0
    1.4805    4.4973   -5.8190 C   0  0  0  0  0  0  0  0  0  0  0  0
    1.7223    5.4111   -4.7930 C   0  0  0  0  0  0  0  0  0  0  0  0
    1.0557    6.7186   -4.6556 C   0  0  0  0  0  0  0  0  0  0  0  0
    1.8397    7.8677   -4.4983 C   0  0  0  0  0  0  0  0  0  0  0  0
    1.2375    9.1046   -4.2669 C   0  0  0  0  0  0  0  0  0  0  0  0
   -0.1521    9.1998   -4.1753 C   0  0  0  0  0  0  0  0  0  0  0  0
   -0.9498    8.0519   -4.3119 C   0  0  0  0  0  0  0  0  0  0  0  0
   -2.4396    8.1366   -4.1608 C   0  0  0  0  0  0  0  0  0  0  0  0
   -3.1353    8.0699   -5.5167 C   0  0  0  0  0  0  0  0  0  0  0  0
   -0.3448    6.8133   -4.5721 C   0  0  0  0  0  0  0  0  0  0  0  0
    2.5579    4.8628   -3.8050 C   0  0  0  0  0  0  0  0  0  0  0  0
    2.9978    3.2903   -4.2542 S   0  0  0  0  0  0  0  0  0  0  0  0
    2.1261    3.2906   -5.6885 C   0  0  0  0  0  0  0  0  0  0  0  0
    1.5978    2.2871   -6.5094 C   0  0  0  0  0  0  0  0  0  0  0  0
    1.5518    0.9400   -6.3406 N   0  0  0  0  0  0  0  0  0  0  0  0
    0.4486    0.5580   -7.0685 C   0  0  0  0  0  0  0  0  0  0  0  0
   -0.1961   -0.6943   -7.0722 C   0  0  0  0  0  0  0  0  0  0  0  0
    0.3269   -1.9181   -6.7949 N   0  0  0  0  0  0  0  0  0  0  0  0
   -0.7507   -2.7120   -6.6496 C   0  0  0  0  0  0  0  0  0  0  0  0
   -0.9122   -3.7901   -5.8067 C   0  0  0  0  0  0  0  0  0  0  0  0
    0.1388   -4.5116   -4.7401 S   0  0  0  0  0  0  0  0  0  0  0  0
    1.6956   -2.3745   -7.0410 C   0  0  0  0  0  0  0  0  0  0  0  0
    1.7359   -3.4071   -8.1678 C   0  0  0  0  0  0  0  0  0  0  0  0
    2.1103    0.2338   -5.1711 C   0  0  0  0  0  0  0  0  0  0  0  0
    3.6266    0.0535   -5.2873 C   0  0  0  0  0  0  0  0  0  0  0  0
    2.5411    5.2786   -2.4019 C   0  0  0  0  0  0  0  0  0  0  0  0
    1.3633    5.5828   -1.7145 C   0  0  0  0  0  0  0  0  0  0  0  0
    1.5302    5.6310   -0.3284 C   0  0  0  0  0  0  0  0  0  0  0  0
    0.5044    5.8197    0.6123 C   0  0  0  0  0  0  0  0  0  0  0  0
   -0.9135    5.8795    0.2111 C   0  0  0  0  0  0  0  0  0  0  0  0
   -1.6263    4.6823    0.0424 C   0  0  0  0  0  0  0  0  0  0  0  0
   -2.9866    4.7122   -0.2528 C   0  0  0  0  0  0  0  0  0  0  0  0
   -3.6505    5.9377   -0.3958 C   0  0  0  0  0  0  0  0  0  0  0  0
   -5.4358    5.9384   -0.6558 S   0  0  0  0  0  0  0  0  0  0  0  0
   -5.4117    6.1270   -2.4725 C   0  0  0  0  0  0  0  0  0  0  0  0
   -4.6852    4.9831   -3.1739 C   0  0  0  0  0  0  0  0  0  0  0  0
   -2.9375    7.1411   -0.2550 C   0  0  0  0  0  0  0  0  0  0  0  0
   -3.5760    8.3340   -0.3815 F   0  0  0  0  0  0  0  0  0  0  0  0
   -1.5738    7.1104    0.0491 C   0  0  0  0  0  0  0  0  0  0  0  0
    0.8559    5.7435    1.9615 C   0  0  0  0  0  0  0  0  0  0  0  0
    2.1578    5.4495    2.3786 C   0  0  0  0  0  0  0  0  0  0  0  0
    3.1821    5.2286    1.4354 C   0  0  0  0  0  0  0  0  0  0  0  0
    4.5289    4.8087    1.8497 C   0  0  0  0  0  0  0  0  0  0  0  0
    5.5906    5.7215    1.8361 C   0  0  0  0  0  0  0  0  0  0  0  0
    6.8598    5.3211    2.2568 C   0  0  0  0  0  0  0  0  0  0  0  0
    7.0880    3.9893    2.6390 C   0  0  0  0  0  0  0  0  0  0  0  0
    8.7380    3.4778    3.1396 S   0  0  0  0  0  0  0  0  0  0  0  0
    9.3889    3.3394    1.4345 C   0  0  0  0  0  0  0  0  0  0  0  0
    8.9326    2.0485    0.7712 C   0  0  0  0  0  0  0  0  0  0  0  0
    6.0216    3.0768    2.6560 C   0  0  0  0  0  0  0  0  0  0  0  0
    4.7434    3.4880    2.2727 C   0  0  0  0  0  0  0  0  0  0  0  0
    6.2156    1.8009    3.0717 F   0  0  0  0  0  0  0  0  0  0  0  0
    2.8331    5.3414    0.0807 C   0  0  0  0  0  0  0  0  0  0  0  0
    3.7812    5.0036   -1.2785 S   0  0  0  0  0  0  0  0  0  0  0  0
    2.2952    5.4163    3.7731 C   0  0  0  0  0  0  0  0  0  0  0  0
    1.0917    5.6353    4.4367 C   0  0  0  0  0  0  0  0  0  0  0  0
   -0.1338    5.9619    3.3107 S   0  0  0  0  0  0  0  0  0  0  0  0
    0.9970    5.8868    5.8753 C   0  0  0  0  0  0  0  0  0  0  0  0
   -0.0955    5.6498    6.6243 C   0  0  0  0  0  0  0  0  0  0  0  0
   -0.3859    6.4214    7.8340 C   0  0  0  0  0  0  0  0  0  0  0  0
    0.4064    7.2083    8.4234 O   0  0  0  0  0  0  0  0  0  0  0  0
   -1.7505    6.1576    8.2276 C   0  0  0  0  0  0  0  0  0  0  0  0
   -2.5053    6.7714    9.2296 C   0  0  0  0  0  0  0  0  0  0  0  0
   -3.8481    6.3901    9.3346 C   0  0  0  0  0  0  0  0  0  0  0  0
   -4.7596    6.8648   10.2801 C   0  0  0  0  0  0  0  0  0  0  0  0
   -6.0268    6.3090   10.1092 C   0  0  0  0  0  0  0  0  0  0  0  0
   -7.5317    6.6565   11.2093 Br  0  0  0  0  0  0  0  0  0  0  0  0
   -6.0134    5.2109    8.8159 S   0  0  0  0  0  0  0  0  0  0  0  0
   -4.3990    5.4553    8.4525 C   0  0  0  0  0  0  0  0  0  0  0  0
   -3.6435    4.8487    7.4435 C   0  0  0  0  0  0  0  0  0  0  0  0
   -2.2843    5.2098    7.3595 C   0  0  0  0  0  0  0  0  0  0  0  0
   -1.2714    4.7572    6.3754 C   0  0  0  0  0  0  0  0  0  0  0  0
   -1.1641    3.4690    5.9904 C   0  0  0  0  0  0  0  0  0  0  0  0
   -0.5183    3.0785    4.7570 C   0  0  0  0  0  0  0  0  0  0  0  0
   -0.0928    2.7463    3.7229 N   0  0  0  0  0  0  0  0  0  0  0  0
   -1.9313    2.4310    6.6493 C   0  0  0  0  0  0  0  0  0  0  0  0
   -2.5460    1.6057    7.2082 N   0  0  0  0  0  0  0  0  0  0  0  0
    0.8086   -7.4669    3.8780 H   0  0  0  0  0  0  0  0  0  0  0  0
    1.6656   -1.2434    3.0095 H   0  0  0  0  0  0  0  0  0  0  0  0
    2.3489    1.0963    4.1392 H   0  0  0  0  0  0  0  0  0  0  0  0
    2.4525   -3.2183    7.5424 H   0  0  0  0  0  0  0  0  0  0  0  0
   -1.7988   -8.9292    0.6608 H   0  0  0  0  0  0  0  0  0  0  0  0
   -2.4288  -11.1993    1.3101 H   0  0  0  0  0  0  0  0  0  0  0  0
   -2.4998  -12.6369    3.9038 H   0  0  0  0  0  0  0  0  0  0  0  0
   -4.0524  -12.0612    4.6182 H   0  0  0  0  0  0  0  0  0  0  0  0
   -3.9941  -12.5432    2.8833 H   0  0  0  0  0  0  0  0  0  0  0  0
   -3.5553   -9.7806    5.2321 H   0  0  0  0  0  0  0  0  0  0  0  0
   -2.9586   -7.4963    4.5698 H   0  0  0  0  0  0  0  0  0  0  0  0
   -1.2890   -4.8275    3.9977 H   0  0  0  0  0  0  0  0  0  0  0  0
   -2.6872   -3.0387    4.9019 H   0  0  0  0  0  0  0  0  0  0  0  0
   -5.9668   -2.9610    5.0420 H   0  0  0  0  0  0  0  0  0  0  0  0
   -5.9148   -2.0076    3.5018 H   0  0  0  0  0  0  0  0  0  0  0  0
   -4.6985   -1.6991    4.7938 H   0  0  0  0  0  0  0  0  0  0  0  0
   -5.9450   -4.3361    2.3922 H   0  0  0  0  0  0  0  0  0  0  0  0
   -4.5221   -6.1336    1.4856 H   0  0  0  0  0  0  0  0  0  0  0  0
    1.4883   -3.3935   -1.8821 H   0  0  0  0  0  0  0  0  0  0  0  0
    3.2487   -1.8958   -1.0452 H   0  0  0  0  0  0  0  0  0  0  0  0
    5.5002   -1.8351    0.1519 H   0  0  0  0  0  0  0  0  0  0  0  0
    6.2256   -1.7819   -1.5001 H   0  0  0  0  0  0  0  0  0  0  0  0
    6.7660   -3.0225   -0.3037 H   0  0  0  0  0  0  0  0  0  0  0  0
    6.1557   -5.0493   -1.5186 H   0  0  0  0  0  0  0  0  0  0  0  0
    4.4023   -6.5434   -2.3586 H   0  0  0  0  0  0  0  0  0  0  0  0
    0.8796   -8.5400   -2.7271 H   0  0  0  0  0  0  0  0  0  0  0  0
    1.2907  -10.1744   -4.5025 H   0  0  0  0  0  0  0  0  0  0  0  0
    2.8500   -9.3516   -7.7869 H   0  0  0  0  0  0  0  0  0  0  0  0
    1.9030  -10.5740   -6.8720 H   0  0  0  0  0  0  0  0  0  0  0  0
    3.6747  -10.3882   -6.5528 H   0  0  0  0  0  0  0  0  0  0  0  0
    3.6002   -7.2527   -6.6740 H   0  0  0  0  0  0  0  0  0  0  0  0
    3.1933   -5.6044   -4.9062 H   0  0  0  0  0  0  0  0  0  0  0  0
   -3.4237   -7.2601   -4.0739 H   0  0  0  0  0  0  0  0  0  0  0  0
   -5.5991   -7.8642   -3.0717 H   0  0  0  0  0  0  0  0  0  0  0  0
   -7.0259   -6.1282   -2.0578 H   0  0  0  0  0  0  0  0  0  0  0  0
   -7.6091   -3.6184   -2.1593 H   0  0  0  0  0  0  0  0  0  0  0  0
   -6.2648   -2.4341   -2.2401 H   0  0  0  0  0  0  0  0  0  0  0  0
   -5.3838   -3.1938   -0.0584 H   0  0  0  0  0  0  0  0  0  0  0  0
   -7.1392   -2.7880    0.0962 H   0  0  0  0  0  0  0  0  0  0  0  0
   -6.6232   -4.5138    0.0182 H   0  0  0  0  0  0  0  0  0  0  0  0
   -4.1073   -3.1242   -3.0743 H   0  0  0  0  0  0  0  0  0  0  0  0
    2.9189    7.8011   -4.5380 H   0  0  0  0  0  0  0  0  0  0  0  0
    1.8497    9.9886   -4.1349 H   0  0  0  0  0  0  0  0  0  0  0  0
   -0.6027   10.1640   -3.9806 H   0  0  0  0  0  0  0  0  0  0  0  0
   -2.7818    7.2955   -3.5261 H   0  0  0  0  0  0  0  0  0  0  0  0
   -2.7342    9.0789   -3.6443 H   0  0  0  0  0  0  0  0  0  0  0  0
   -2.9547    7.0848   -5.9996 H   0  0  0  0  0  0  0  0  0  0  0  0
   -2.7558    8.8761   -6.1846 H   0  0  0  0  0  0  0  0  0  0  0  0
   -4.2257    8.2004   -5.3854 H   0  0  0  0  0  0  0  0  0  0  0  0
   -0.9533    5.9198   -4.6368 H   0  0  0  0  0  0  0  0  0  0  0  0
    2.1210   -2.8205   -6.1178 H   0  0  0  0  0  0  0  0  0  0  0  0
    2.3257   -1.5185   -7.3563 H   0  0  0  0  0  0  0  0  0  0  0  0
    1.3031   -2.9757   -9.0956 H   0  0  0  0  0  0  0  0  0  0  0  0
    2.7886   -3.7015   -8.3623 H   0  0  0  0  0  0  0  0  0  0  0  0
    1.1665   -4.3155   -7.8845 H   0  0  0  0  0  0  0  0  0  0  0  0
    1.8701    0.8012   -4.2468 H   0  0  0  0  0  0  0  0  0  0  0  0
    1.6378   -0.7528   -5.0210 H   0  0  0  0  0  0  0  0  0  0  0  0
    4.1401    1.0270   -5.4255 H   0  0  0  0  0  0  0  0  0  0  0  0
    3.8950   -0.6073   -6.1342 H   0  0  0  0  0  0  0  0  0  0  0  0
    4.0000   -0.4081   -4.3470 H   0  0  0  0  0  0  0  0  0  0  0  0
    0.3976    5.6826   -2.1877 H   0  0  0  0  0  0  0  0  0  0  0  0
   -1.1270    3.7321    0.1655 H   0  0  0  0  0  0  0  0  0  0  0  0
   -3.5290    3.7776   -0.3465 H   0  0  0  0  0  0  0  0  0  0  0  0
   -6.4667    6.1478   -2.8224 H   0  0  0  0  0  0  0  0  0  0  0  0
   -4.9601    7.0986   -2.7432 H   0  0  0  0  0  0  0  0  0  0  0  0
   -5.0087    4.0067   -2.7582 H   0  0  0  0  0  0  0  0  0  0  0  0
   -3.5910    5.0957   -3.0545 H   0  0  0  0  0  0  0  0  0  0  0  0
   -4.9193    5.0086   -4.2608 H   0  0  0  0  0  0  0  0  0  0  0  0
   -1.0348    8.0389    0.1749 H   0  0  0  0  0  0  0  0  0  0  0  0
    5.4290    6.7423    1.5131 H   0  0  0  0  0  0  0  0  0  0  0  0
    7.6732    6.0334    2.2579 H   0  0  0  0  0  0  0  0  0  0  0  0
   10.4969    3.3388    1.4901 H   0  0  0  0  0  0  0  0  0  0  0  0
    9.0745    4.2142    0.8220 H   0  0  0  0  0  0  0  0  0  0  0  0
    9.3843    1.9704   -0.2397 H   0  0  0  0  0  0  0  0  0  0  0  0
    7.8274    2.0324    0.6606 H   0  0  0  0  0  0  0  0  0  0  0  0
    9.2561    1.1723    1.3729 H   0  0  0  0  0  0  0  0  0  0  0  0
    3.9239    2.7806    2.2936 H   0  0  0  0  0  0  0  0  0  0  0  0
    3.2279    5.2327    4.2905 H   0  0  0  0  0  0  0  0  0  0  0  0
    1.8010    6.4799    6.2963 H   0  0  0  0  0  0  0  0  0  0  0  0
   -2.0747    7.5198    9.8717 H   0  0  0  0  0  0  0  0  0  0  0  0
   -4.5201    7.5945   11.0446 H   0  0  0  0  0  0  0  0  0  0  0  0
   -4.0924    4.1389    6.7617 H   0  0  0  0  0  0  0  0  0  0  0  0
  1  2  2  3
  2  3  1  0
  3  4  2  0
  3  5  1  0
  5  6  2  0
  6  7  1  0
  7  8  1  0
  8  9  2  0
  9 10  1  0
  9 11  1  0
 11 12  1  0
 12 13  1  0
 13 14  2  0
 14 15  1  0
 15 16  2  3
 16 17  1  0
 17 18  3  0
 16 19  1  0
 19 20  3  0
  1 21  1  0
 21 22  2  0
 22 23  1  0
 23 24  1  0
 24 25  2  0
 25 26  1  0
 26 27  2  0
 27 28  1  0
 27 29  1  0
 29 30  2  0
 23 31  1  0
 31 32  2  0
 32 33  1  0
 33 34  2  0
 34 35  1  0
 34 36  1  0
 36 37  2  0
 22 38  1  0
 38 39  1  0
 39 40  1  0
 40 41  2  0
 41 42  1  0
 42 43  1  0
 43 44  2  0
 44 45  1  0
 45 46  2  0
 46 47  1  0
 46 48  1  0
 48 49  2  0
 42 50  1  0
 50 51  2  0
 51 52  1  0
 52 53  2  0
 53 54  1  0
 53 55  1  0
 55 56  2  0
 41 57  1  0
 57 58  1  0
 40 59  1  0
 59 60  2  0
 60 61  1  0
 61 62  2  0
 62 63  1  0
 63 64  2  0
 64 65  1  0
 65 66  1  0
 66 67  1  0
 65 68  2  0
 60 69  1  0
 69 70  1  0
 70 71  1  0
 71 72  1  0
 72 73  1  0
 73 74  1  0
 74 75  2  0
 75 76  1  0
 76 77  1  0
 74 78  1  0
 78 79  1  0
 79 80  1  0
 80 81  1  0
 81 82  1  0
 82 83  1  0
 83 84  2  0
 84 85  1  0
 85 86  2  0
 86 87  1  0
 87 88  1  0
 88 89  1  0
 87 90  2  0
 82 91  2  0
 91 92  1  0
 92 93  1  0
 93 94  1  0
 94 95  1  0
 95 96  1  0
 96 97  1  0
 97 98  1  0
 98 99  1  0
 99100  1  0
100101  1  0
 98102  1  0
102103  1  0
 95104  1  0
104105  1  0
 91106  1  0
106107  2  0
107108  1  0
108109  2  0
109110  1  0
110111  2  0
111112  1  0
112113  2  0
113114  1  0
114115  1  0
115116  1  0
113117  1  0
117118  1  0
117119  2  0
109120  1  0
120121  2  0
121122  1  0
122123  1  0
123124  2  0
124125  1  0
125126  2  0
126127  1  0
127128  1  0
128129  1  0
126130  1  0
130131  2  0
130132  1  0
122133  2  0
133134  1  0
121135  1  0
135136  2  0
136137  1  0
136138  1  0
138139  2  3
139140  1  0
140141  2  0
140142  1  0
142143  2  0
143144  1  0
144145  1  0
145146  2  0
146147  1  0
146148  1  0
148149  1  0
149150  1  0
150151  2  0
151152  1  0
152153  2  3
153154  1  0
154155  3  0
153156  1  0
156157  3  0
 15  2  1  0
 58 21  1  0
101 59  1  0
134106  1  0
152139  1  0
 14  5  1  0
 30 24  1  0
 37 31  1  0
 57 38  2  0
 68 61  1  0
100 69  2  0
133108  1  0
151142  1  0
 12  7  2  0
 49 43  1  0
 56 50  1  0
 99 71  2  0
119110  1  0
137120  1  0
149144  2  0
 97 72  2  0
131123  1  0
 77 73  2  0
 96 78  2  0
 94 79  2  0
 93 81  2  0
 90 83  1  0
  1158  1  0
  6159  1  0
  8160  1  0
 13161  1  0
 25162  1  0
 26163  1  0
 28164  1  0
 28165  1  0
 28166  1  0
 29167  1  0
 30168  1  0
 32169  1  0
 33170  1  0
 35171  1  0
 35172  1  0
 35173  1  0
 36174  1  0
 37175  1  0
 44176  1  0
 45177  1  0
 47178  1  0
 47179  1  0
 47180  1  0
 48181  1  0
 49182  1  0
 51183  1  0
 52184  1  0
 54185  1  0
 54186  1  0
 54187  1  0
 55188  1  0
 56189  1  0
 62190  1  0
 63191  1  0
 64192  1  0
 66193  1  0
 66194  1  0
 67195  1  0
 67196  1  0
 67197  1  0
 68198  1  0
 84199  1  0
 85200  1  0
 86201  1  0
 88202  1  0
 88203  1  0
 89204  1  0
 89205  1  0
 89206  1  0
 90207  1  0
102208  1  0
102209  1  0
103210  1  0
103211  1  0
103212  1  0
104213  1  0
104214  1  0
105215  1  0
105216  1  0
105217  1  0
107218  1  0
111219  1  0
112220  1  0
115221  1  0
115222  1  0
116223  1  0
116224  1  0
116225  1  0
119226  1  0
124227  1  0
125228  1  0
128229  1  0
128230  1  0
129231  1  0
129232  1  0
129233  1  0
131234  1  0
135235  1  0
138236  1  0
143237  1  0
145238  1  0
150239  1  0
M  END

