
     RDKit          3D

199221  0  0  0  0  0  0  0  0999 V2000
   -6.8479    1.5145    3.3663 C   0  0  0  0  0  0  0  0  0  0  0  0
   -6.0865    0.4246    3.5704 C   0  0  0  0  0  0  0  0  0  0  0  0
   -5.4127    0.0501    4.8256 C   0  0  0  0  0  0  0  0  0  0  0  0
   -5.7274    0.4130    5.9815 O   0  0  0  0  0  0  0  0  0  0  0  0
   -4.2463   -0.7451    4.4695 C   0  0  0  0  0  0  0  0  0  0  0  0
   -3.2582   -1.3136    5.2867 C   0  0  0  0  0  0  0  0  0  0  0  0
   -2.1585   -1.9433    4.6694 C   0  0  0  0  0  0  0  0  0  0  0  0
   -2.0318   -1.8952    3.2778 C   0  0  0  0  0  0  0  0  0  0  0  0
   -0.6477   -2.6380    2.4720 Cl  0  0  0  0  0  0  0  0  0  0  0  0
   -3.0162   -1.2952    2.4892 C   0  0  0  0  0  0  0  0  0  0  0  0
   -4.1754   -0.8192    3.0938 C   0  0  0  0  0  0  0  0  0  0  0  0
   -5.4360   -0.3482    2.4961 C   0  0  0  0  0  0  0  0  0  0  0  0
   -6.1029   -0.9992    1.5257 C   0  0  0  0  0  0  0  0  0  0  0  0
   -7.5373   -0.9806    1.4358 C   0  0  0  0  0  0  0  0  0  0  0  0
   -8.7014   -1.0069    1.3355 N   0  0  0  0  0  0  0  0  0  0  0  0
   -5.4550   -2.0327    0.7251 C   0  0  0  0  0  0  0  0  0  0  0  0
   -4.9993   -2.9327    0.1691 N   0  0  0  0  0  0  0  0  0  0  0  0
   -7.0449    2.0724    1.9941 C   0  0  0  0  0  0  0  0  0  0  0  0
   -8.3199    2.0941    1.3436 C   0  0  0  0  0  0  0  0  0  0  0  0
   -9.4640    1.9175    2.1302 O   0  0  0  0  0  0  0  0  0  0  0  0
  -10.2609    3.0065    2.5944 C   0  0  0  0  0  0  0  0  0  0  0  0
   -9.8071    3.5273    3.9532 C   0  0  0  0  0  0  0  0  0  0  0  0
   -8.3980    2.2615   -0.0895 C   0  0  0  0  0  0  0  0  0  0  0  0
   -9.5770    2.3300   -0.8556 O   0  0  0  0  0  0  0  0  0  0  0  0
  -10.8956    1.8323   -0.6726 C   0  0  0  0  0  0  0  0  0  0  0  0
  -11.0814    0.4523   -1.2441 C   0  0  0  0  0  0  0  0  0  0  0  0
   -7.2109    2.4096   -0.8113 C   0  0  0  0  0  0  0  0  0  0  0  0
   -5.9832    2.5783   -0.1415 C   0  0  0  0  0  0  0  0  0  0  0  0
   -5.9082    2.4059    1.2434 C   0  0  0  0  0  0  0  0  0  0  0  0
   -4.6688    2.5357    1.8373 N   0  0  0  0  0  0  0  0  0  0  0  0
   -3.5615    2.8294    1.1280 C   0  0  0  0  0  0  0  0  0  0  0  0
   -3.6494    2.9943   -0.2331 C   0  0  0  0  0  0  0  0  0  0  0  0
   -4.8589    2.8637   -0.8360 N   0  0  0  0  0  0  0  0  0  0  0  0
   -7.1190    2.1964   -2.2801 C   0  0  0  0  0  0  0  0  0  0  0  0
   -7.0004    3.2258   -3.2283 C   0  0  0  0  0  0  0  0  0  0  0  0
   -7.6233    4.5577   -3.0635 C   0  0  0  0  0  0  0  0  0  0  0  0
   -8.9789    4.6669   -2.7476 C   0  0  0  0  0  0  0  0  0  0  0  0
   -9.5870    5.9215   -2.6616 C   0  0  0  0  0  0  0  0  0  0  0  0
   -8.8551    7.0699   -2.9248 C   0  0  0  0  0  0  0  0  0  0  0  0
   -7.4997    6.9744   -3.2640 C   0  0  0  0  0  0  0  0  0  0  0  0
   -6.7065    8.2181   -3.5591 C   0  0  0  0  0  0  0  0  0  0  0  0
   -6.0058    8.7281   -2.3008 C   0  0  0  0  0  0  0  0  0  0  0  0
   -6.8814    5.7222   -3.3072 C   0  0  0  0  0  0  0  0  0  0  0  0
   -6.2209    2.8417   -4.3305 C   0  0  0  0  0  0  0  0  0  0  0  0
   -5.3283    3.7500   -5.4619 S   0  0  0  0  0  0  0  0  0  0  0  0
   -4.3857    2.4143   -5.9173 C   0  0  0  0  0  0  0  0  0  0  0  0
   -3.0753    2.2407   -6.3137 C   0  0  0  0  0  0  0  0  0  0  0  0
   -2.1603    3.2076   -6.7770 C   0  0  0  0  0  0  0  0  0  0  0  0
   -0.7812    2.9230   -6.7469 C   0  0  0  0  0  0  0  0  0  0  0  0
    0.0590    3.9058   -7.1633 N   0  0  0  0  0  0  0  0  0  0  0  0
   -1.0333    5.0913   -7.5294 S   0  0  0  0  0  0  0  0  0  0  0  0
   -2.5194    4.4468   -7.2007 N   0  0  0  0  0  0  0  0  0  0  0  0
   -0.3475    1.6670   -6.2742 C   0  0  0  0  0  0  0  0  0  0  0  0
    0.9111    1.2485   -5.9526 C   0  0  0  0  0  0  0  0  0  0  0  0
    2.4301    1.9245   -5.6104 S   0  0  0  0  0  0  0  0  0  0  0  0
    2.9516    0.5262   -4.7592 C   0  0  0  0  0  0  0  0  0  0  0  0
    4.0413    0.2602   -3.9037 C   0  0  0  0  0  0  0  0  0  0  0  0
    5.0104    1.3116   -3.5411 C   0  0  0  0  0  0  0  0  0  0  0  0
    6.3842    1.1136   -3.6180 C   0  0  0  0  0  0  0  0  0  0  0  0
    7.2702    2.1629   -3.3475 C   0  0  0  0  0  0  0  0  0  0  0  0
    6.7600    3.4371   -3.0648 C   0  0  0  0  0  0  0  0  0  0  0  0
    5.3790    3.6494   -2.9731 C   0  0  0  0  0  0  0  0  0  0  0  0
    4.8002    5.0310   -2.7689 C   0  0  0  0  0  0  0  0  0  0  0  0
    4.5287    5.6944   -4.1240 C   0  0  0  0  0  0  0  0  0  0  0  0
    4.5091    2.5773   -3.1863 C   0  0  0  0  0  0  0  0  0  0  0  0
    3.9194   -1.0222   -3.2984 C   0  0  0  0  0  0  0  0  0  0  0  0
    2.4325   -1.6774   -3.8168 S   0  0  0  0  0  0  0  0  0  0  0  0
    1.9750   -0.4169   -4.8037 C   0  0  0  0  0  0  0  0  0  0  0  0
    0.7742    0.0070   -5.4157 C   0  0  0  0  0  0  0  0  0  0  0  0
   -0.5007   -0.3887   -5.3653 N   0  0  0  0  0  0  0  0  0  0  0  0
   -1.2563    0.6421   -5.8650 C   0  0  0  0  0  0  0  0  0  0  0  0
   -2.6717    0.9521   -5.8603 C   0  0  0  0  0  0  0  0  0  0  0  0
   -3.7327    0.3914   -5.2178 N   0  0  0  0  0  0  0  0  0  0  0  0
   -4.7285    1.2996   -5.2175 C   0  0  0  0  0  0  0  0  0  0  0  0
   -5.7691    1.5545   -4.3127 C   0  0  0  0  0  0  0  0  0  0  0  0
   -6.2642    0.8466   -2.8833 S   0  0  0  0  0  0  0  0  0  0  0  0
   -3.9907   -0.9992   -4.7968 C   0  0  0  0  0  0  0  0  0  0  0  0
   -4.3096   -1.8991   -5.9815 C   0  0  0  0  0  0  0  0  0  0  0  0
   -0.8632   -1.8061   -5.0956 C   0  0  0  0  0  0  0  0  0  0  0  0
   -0.9654   -2.0764   -3.5927 C   0  0  0  0  0  0  0  0  0  0  0  0
    4.7031   -1.6661   -2.1878 C   0  0  0  0  0  0  0  0  0  0  0  0
    5.5176   -1.0802   -1.2025 C   0  0  0  0  0  0  0  0  0  0  0  0
    5.7869   -1.9228   -0.1076 C   0  0  0  0  0  0  0  0  0  0  0  0
    6.4389   -1.6075    1.0908 C   0  0  0  0  0  0  0  0  0  0  0  0
    7.2981   -0.4219    1.2676 C   0  0  0  0  0  0  0  0  0  0  0  0
    8.5636   -0.5120    1.8427 C   0  0  0  0  0  0  0  0  0  0  0  0
    9.0440    0.7073    2.2894 C   0  0  0  0  0  0  0  0  0  0  0  0
   10.1947    0.9097    3.0247 C   0  0  0  0  0  0  0  0  0  0  0  0
   10.5280    2.1829    3.4989 C   0  0  0  0  0  0  0  0  0  0  0  0
   11.7719    2.3706    4.3371 C   0  0  0  0  0  0  0  0  0  0  0  0
   13.0121    2.4238    3.4440 C   0  0  0  0  0  0  0  0  0  0  0  0
    9.7461    3.2997    3.1029 C   0  0  0  0  0  0  0  0  0  0  0  0
    8.5628    3.0857    2.3685 C   0  0  0  0  0  0  0  0  0  0  0  0
    8.2205    1.7800    2.0029 C   0  0  0  0  0  0  0  0  0  0  0  0
    6.8225    1.2134    1.2398 S   0  0  0  0  0  0  0  0  0  0  0  0
    6.3733   -2.5515    2.1319 C   0  0  0  0  0  0  0  0  0  0  0  0
    5.7937   -3.8072    2.0123 C   0  0  0  0  0  0  0  0  0  0  0  0
    5.2088   -4.1627    0.7829 C   0  0  0  0  0  0  0  0  0  0  0  0
    4.4892   -5.4212    0.5975 C   0  0  0  0  0  0  0  0  0  0  0  0
    2.7980   -5.5520    0.6586 S   0  0  0  0  0  0  0  0  0  0  0  0
    2.7636   -7.0817   -0.0304 C   0  0  0  0  0  0  0  0  0  0  0  0
    1.6242   -7.8333   -0.3369 C   0  0  0  0  0  0  0  0  0  0  0  0
    1.8048   -9.0521   -1.0159 C   0  0  0  0  0  0  0  0  0  0  0  0
    3.0838   -9.4701   -1.3989 C   0  0  0  0  0  0  0  0  0  0  0  0
    3.2819  -10.7579   -2.1533 C   0  0  0  0  0  0  0  0  0  0  0  0
    3.1452  -11.9603   -1.2130 C   0  0  0  0  0  0  0  0  0  0  0  0
    4.2203   -8.6931   -1.0357 C   0  0  0  0  0  0  0  0  0  0  0  0
    4.0249   -7.4844   -0.3531 C   0  0  0  0  0  0  0  0  0  0  0  0
    5.0213   -6.5694   -0.0107 C   0  0  0  0  0  0  0  0  0  0  0  0
    5.1915   -3.1803   -0.2345 C   0  0  0  0  0  0  0  0  0  0  0  0
    4.3876   -3.2558   -1.6926 S   0  0  0  0  0  0  0  0  0  0  0  0
    5.7973   -4.5478    3.2164 C   0  0  0  0  0  0  0  0  0  0  0  0
    6.2660   -3.8181    4.2883 C   0  0  0  0  0  0  0  0  0  0  0  0
    6.8009   -2.3133    3.7612 S   0  0  0  0  0  0  0  0  0  0  0  0
    6.2309   -4.1982    5.7152 C   0  0  0  0  0  0  0  0  0  0  0  0
    5.2739   -3.7957    6.5695 C   0  0  0  0  0  0  0  0  0  0  0  0
    5.5143   -3.7047    8.0175 C   0  0  0  0  0  0  0  0  0  0  0  0
    6.4908   -4.2166    8.6338 O   0  0  0  0  0  0  0  0  0  0  0  0
    4.4909   -2.9024    8.6224 C   0  0  0  0  0  0  0  0  0  0  0  0
    4.2141   -2.7097    9.9781 C   0  0  0  0  0  0  0  0  0  0  0  0
    3.0224   -2.0362   10.3530 C   0  0  0  0  0  0  0  0  0  0  0  0
    2.1349   -1.6106    9.3358 C   0  0  0  0  0  0  0  0  0  0  0  0
    0.6288   -0.8179    9.8147 Cl  0  0  0  0  0  0  0  0  0  0  0  0
    2.4329   -1.8328    7.9895 C   0  0  0  0  0  0  0  0  0  0  0  0
    3.6111   -2.4682    7.6225 C   0  0  0  0  0  0  0  0  0  0  0  0
    4.0129   -3.0097    6.3111 C   0  0  0  0  0  0  0  0  0  0  0  0
    3.2554   -3.0649    5.1927 C   0  0  0  0  0  0  0  0  0  0  0  0
    3.0795   -4.2418    4.4100 C   0  0  0  0  0  0  0  0  0  0  0  0
    2.9230   -5.2296    3.8015 N   0  0  0  0  0  0  0  0  0  0  0  0
    2.3641   -2.0208    4.8358 C   0  0  0  0  0  0  0  0  0  0  0  0
    1.5937   -1.2147    4.4928 N   0  0  0  0  0  0  0  0  0  0  0  0
   -7.1613    2.0973    4.2195 H   0  0  0  0  0  0  0  0  0  0  0  0
   -3.3530   -1.3274    6.3569 H   0  0  0  0  0  0  0  0  0  0  0  0
   -1.4329   -2.4862    5.2621 H   0  0  0  0  0  0  0  0  0  0  0  0
   -2.8531   -1.1991    1.4323 H   0  0  0  0  0  0  0  0  0  0  0  0
  -11.3163    2.6699    2.7001 H   0  0  0  0  0  0  0  0  0  0  0  0
  -10.2346    3.8229    1.8549 H   0  0  0  0  0  0  0  0  0  0  0  0
  -10.4524    4.3837    4.2683 H   0  0  0  0  0  0  0  0  0  0  0  0
   -8.7590    3.8694    3.9049 H   0  0  0  0  0  0  0  0  0  0  0  0
   -9.9103    2.7321    4.7088 H   0  0  0  0  0  0  0  0  0  0  0  0
  -11.3028    1.9534    0.3606 H   0  0  0  0  0  0  0  0  0  0  0  0
  -11.5586    2.4945   -1.2859 H   0  0  0  0  0  0  0  0  0  0  0  0
  -10.3156   -0.2535   -0.8121 H   0  0  0  0  0  0  0  0  0  0  0  0
  -12.1189    0.0786   -1.0290 H   0  0  0  0  0  0  0  0  0  0  0  0
  -10.9556    0.4748   -2.3503 H   0  0  0  0  0  0  0  0  0  0  0  0
   -2.5915    2.8962    1.5837 H   0  0  0  0  0  0  0  0  0  0  0  0
   -2.8005    3.1673   -0.8412 H   0  0  0  0  0  0  0  0  0  0  0  0
   -9.5868    3.7898   -2.6470 H   0  0  0  0  0  0  0  0  0  0  0  0
  -10.6433    5.9859   -2.4038 H   0  0  0  0  0  0  0  0  0  0  0  0
   -9.3521    8.0390   -2.8663 H   0  0  0  0  0  0  0  0  0  0  0  0
   -5.9434    8.0108   -4.3444 H   0  0  0  0  0  0  0  0  0  0  0  0
   -7.3783    9.0163   -3.9611 H   0  0  0  0  0  0  0  0  0  0  0  0
   -5.6864    9.7832   -2.4585 H   0  0  0  0  0  0  0  0  0  0  0  0
   -6.6985    8.6919   -1.4321 H   0  0  0  0  0  0  0  0  0  0  0  0
   -5.1085    8.1026   -2.0871 H   0  0  0  0  0  0  0  0  0  0  0  0
   -5.8219    5.6600   -3.5392 H   0  0  0  0  0  0  0  0  0  0  0  0
    6.7873    0.1311   -3.8795 H   0  0  0  0  0  0  0  0  0  0  0  0
    8.3212    2.0087   -3.4236 H   0  0  0  0  0  0  0  0  0  0  0  0
    7.4542    4.2637   -2.9069 H   0  0  0  0  0  0  0  0  0  0  0  0
    5.4991    5.6649   -2.1856 H   0  0  0  0  0  0  0  0  0  0  0  0
    3.8417    4.9501   -2.2073 H   0  0  0  0  0  0  0  0  0  0  0  0
    5.4750    6.0838   -4.5657 H   0  0  0  0  0  0  0  0  0  0  0  0
    4.0603    4.9677   -4.8409 H   0  0  0  0  0  0  0  0  0  0  0  0
    3.8136    6.5439   -3.9877 H   0  0  0  0  0  0  0  0  0  0  0  0
    3.4438    2.7370   -3.1287 H   0  0  0  0  0  0  0  0  0  0  0  0
   -4.8825   -1.0493   -4.1265 H   0  0  0  0  0  0  0  0  0  0  0  0
   -3.2110   -1.3561   -4.1661 H   0  0  0  0  0  0  0  0  0  0  0  0
   -5.3364   -1.6921   -6.3605 H   0  0  0  0  0  0  0  0  0  0  0  0
   -3.5874   -1.7288   -6.8116 H   0  0  0  0  0  0  0  0  0  0  0  0
   -4.2597   -2.9515   -5.6638 H   0  0  0  0  0  0  0  0  0  0  0  0
   -0.0446   -2.4516   -5.4955 H   0  0  0  0  0  0  0  0  0  0  0  0
   -1.7487   -2.0982   -5.6527 H   0  0  0  0  0  0  0  0  0  0  0  0
   -1.2503   -1.1699   -3.0470 H   0  0  0  0  0  0  0  0  0  0  0  0
   -1.7440   -2.8496   -3.4226 H   0  0  0  0  0  0  0  0  0  0  0  0
   -0.0221   -2.4742   -3.1526 H   0  0  0  0  0  0  0  0  0  0  0  0
    5.8464   -0.0527   -1.2625 H   0  0  0  0  0  0  0  0  0  0  0  0
    9.0559   -1.4493    2.0537 H   0  0  0  0  0  0  0  0  0  0  0  0
   10.8138    0.0703    3.2879 H   0  0  0  0  0  0  0  0  0  0  0  0
   11.8595    1.5220    5.0515 H   0  0  0  0  0  0  0  0  0  0  0  0
   11.6942    3.3087    4.9242 H   0  0  0  0  0  0  0  0  0  0  0  0
   12.7660    3.0177    2.5304 H   0  0  0  0  0  0  0  0  0  0  0  0
   13.2957    1.3816    3.1501 H   0  0  0  0  0  0  0  0  0  0  0  0
   13.8476    2.9269    3.9851 H   0  0  0  0  0  0  0  0  0  0  0  0
   10.0266    4.3016    3.3963 H   0  0  0  0  0  0  0  0  0  0  0  0
    7.9307    3.9290    2.0734 H   0  0  0  0  0  0  0  0  0  0  0  0
    0.6207   -7.4928   -0.0741 H   0  0  0  0  0  0  0  0  0  0  0  0
    0.9309   -9.6443   -1.2723 H   0  0  0  0  0  0  0  0  0  0  0  0
    4.2819  -10.7887   -2.6370 H   0  0  0  0  0  0  0  0  0  0  0  0
    2.5141  -10.8325   -2.9646 H   0  0  0  0  0  0  0  0  0  0  0  0
    3.4742  -12.8681   -1.7442 H   0  0  0  0  0  0  0  0  0  0  0  0
    3.7740  -11.8212   -0.3136 H   0  0  0  0  0  0  0  0  0  0  0  0
    2.0709  -12.0959   -0.9238 H   0  0  0  0  0  0  0  0  0  0  0  0
    5.1980   -9.0095   -1.3054 H   0  0  0  0  0  0  0  0  0  0  0  0
    6.0639   -6.6896   -0.2555 H   0  0  0  0  0  0  0  0  0  0  0  0
    5.4066   -5.5496    3.2865 H   0  0  0  0  0  0  0  0  0  0  0  0
    7.1251   -4.6682    6.1030 H   0  0  0  0  0  0  0  0  0  0  0  0
    4.8752   -3.1105   10.7294 H   0  0  0  0  0  0  0  0  0  0  0  0
    2.8072   -1.8819   11.3843 H   0  0  0  0  0  0  0  0  0  0  0  0
    1.6786   -1.5581    7.2563 H   0  0  0  0  0  0  0  0  0  0  0  0
  1  2  2  3
  2  3  1  0
  3  4  2  0
  3  5  1  0
  5  6  2  0
  6  7  1  0
  7  8  2  0
  8  9  1  0
  8 10  1  0
 10 11  2  0
 11 12  1  0
 12 13  2  3
 13 14  1  0
 14 15  3  0
 13 16  1  0
 16 17  3  0
  1 18  1  0
 18 19  2  0
 19 20  1  0
 20 21  1  0
 21 22  1  0
 19 23  1  0
 23 24  1  0
 24 25  1  0
 25 26  1  0
 23 27  2  0
 27 28  1  0
 28 29  2  0
 29 30  1  0
 30 31  2  0
 31 32  1  0
 32 33  2  0
 27 34  1  0
 34 35  2  0
 35 36  1  0
 36 37  2  0
 37 38  1  0
 38 39  2  0
 39 40  1  0
 40 41  1  0
 41 42  1  0
 40 43  2  0
 35 44  1  0
 44 45  1  0
 45 46  1  0
 46 47  1  0
 47 48  1  0
 48 49  1  0
 49 50  2  0
 50 51  1  0
 51 52  1  0
 49 53  1  0
 53 54  1  0
 54 55  1  0
 55 56  1  0
 56 57  1  0
 57 58  1  0
 58 59  2  0
 59 60  1  0
 60 61  2  0
 61 62  1  0
 62 63  1  0
 63 64  1  0
 62 65  2  0
 57 66  2  0
 66 67  1  0
 67 68  1  0
 68 69  1  0
 69 70  1  0
 70 71  1  0
 71 72  1  0
 72 73  1  0
 73 74  1  0
 74 75  1  0
 75 76  1  0
 73 77  1  0
 77 78  1  0
 70 79  1  0
 79 80  1  0
 66 81  1  0
 81 82  2  0
 82 83  1  0
 83 84  2  0
 84 85  1  0
 85 86  2  0
 86 87  1  0
 87 88  2  0
 88 89  1  0
 89 90  1  0
 90 91  1  0
 89 92  2  0
 92 93  1  0
 93 94  2  0
 94 95  1  0
 84 96  1  0
 96 97  2  0
 97 98  1  0
 98 99  1  0
 99100  1  0
100101  1  0
101102  2  0
102103  1  0
103104  2  0
104105  1  0
105106  1  0
104107  1  0
107108  2  0
108109  1  0
 98110  2  0
110111  1  0
 97112  1  0
112113  2  0
113114  1  0
113115  1  0
115116  2  3
116117  1  0
117118  2  0
117119  1  0
119120  2  0
120121  1  0
121122  2  0
122123  1  0
122124  1  0
124125  2  0
125126  1  0
126127  2  3
127128  1  0
128129  3  0
127130  1  0
130131  3  0
 12  2  1  0
 29 18  1  0
 76 34  1  0
111 81  1  0
126116  1  0
 11  5  1  0
 33 28  1  0
 43 36  1  0
 75 44  2  0
110 83  1  0
125119  1  0
 74 46  2  0
 95 85  1  0
114 96  1  0
 72 47  2  0
 94 87  1  0
109 99  2  0
 52 48  2  0
 71 53  2  0
108101  1  0
 69 54  2  0
 68 56  2  0
 65 58  1  0
  1132  1  0
  6133  1  0
  7134  1  0
 10135  1  0
 21136  1  0
 21137  1  0
 22138  1  0
 22139  1  0
 22140  1  0
 25141  1  0
 25142  1  0
 26143  1  0
 26144  1  0
 26145  1  0
 31146  1  0
 32147  1  0
 37148  1  0
 38149  1  0
 39150  1  0
 41151  1  0
 41152  1  0
 42153  1  0
 42154  1  0
 42155  1  0
 43156  1  0
 59157  1  0
 60158  1  0
 61159  1  0
 63160  1  0
 63161  1  0
 64162  1  0
 64163  1  0
 64164  1  0
 65165  1  0
 77166  1  0
 77167  1  0
 78168  1  0
 78169  1  0
 78170  1  0
 79171  1  0
 79172  1  0
 80173  1  0
 80174  1  0
 80175  1  0
 82176  1  0
 86177  1  0
 88178  1  0
 90179  1  0
 90180  1  0
 91181  1  0
 91182  1  0
 91183  1  0
 92184  1  0
 93185  1  0
102186  1  0
103187  1  0
105188  1  0
105189  1  0
106190  1  0
106191  1  0
106192  1  0
107193  1  0
109194  1  0
112195  1  0
115196  1  0
120197  1  0
121198  1  0
124199  1  0
M  END

