
     RDKit          3D

165183  0  0  0  0  0  0  0  0999 V2000
    5.6233    2.3710    2.7614 C   0  0  0  0  0  0  0  0  0  0  0  0
    6.8813    2.3747    2.3016 C   0  0  0  0  0  0  0  0  0  0  0  0
    7.7520    3.5481    2.1757 C   0  0  0  0  0  0  0  0  0  0  0  0
    7.4580    4.7383    2.4882 O   0  0  0  0  0  0  0  0  0  0  0  0
    9.0799    3.0873    1.8236 C   0  0  0  0  0  0  0  0  0  0  0  0
   10.2308    3.8534    1.6246 C   0  0  0  0  0  0  0  0  0  0  0  0
   11.4171    3.1946    1.2773 C   0  0  0  0  0  0  0  0  0  0  0  0
   11.4452    1.7930    1.1636 C   0  0  0  0  0  0  0  0  0  0  0  0
   12.9459    0.9823    0.7420 Cl  0  0  0  0  0  0  0  0  0  0  0  0
   10.2787    1.0398    1.3868 C   0  0  0  0  0  0  0  0  0  0  0  0
    9.0810    1.7037    1.7054 C   0  0  0  0  0  0  0  0  0  0  0  0
    7.7039    1.1802    1.9301 C   0  0  0  0  0  0  0  0  0  0  0  0
    7.2306   -0.0460    1.5790 C   0  0  0  0  0  0  0  0  0  0  0  0
    5.8196   -0.3319    1.4743 C   0  0  0  0  0  0  0  0  0  0  0  0
    4.6875   -0.5592    1.3771 N   0  0  0  0  0  0  0  0  0  0  0  0
    8.0796   -1.1298    1.1510 C   0  0  0  0  0  0  0  0  0  0  0  0
    8.7293   -2.0276    0.8019 N   0  0  0  0  0  0  0  0  0  0  0  0
    4.6928    3.5263    2.7416 C   0  0  0  0  0  0  0  0  0  0  0  0
    3.8066    3.6769    3.8264 C   0  0  0  0  0  0  0  0  0  0  0  0
    4.0945    3.0115    5.0252 O   0  0  0  0  0  0  0  0  0  0  0  0
    3.1962    2.0860    5.6353 C   0  0  0  0  0  0  0  0  0  0  0  0
    3.8874    1.4176    6.8131 C   0  0  0  0  0  0  0  0  0  0  0  0
    2.6281    4.4408    3.6795 C   0  0  0  0  0  0  0  0  0  0  0  0
    1.7576    4.6520    4.7537 O   0  0  0  0  0  0  0  0  0  0  0  0
    2.1274    5.4376    5.8881 C   0  0  0  0  0  0  0  0  0  0  0  0
    0.9945    5.4294    6.9008 C   0  0  0  0  0  0  0  0  0  0  0  0
    2.2763    4.9601    2.4204 C   0  0  0  0  0  0  0  0  0  0  0  0
    3.2076    4.9030    1.3652 C   0  0  0  0  0  0  0  0  0  0  0  0
    4.4199    4.1961    1.5280 C   0  0  0  0  0  0  0  0  0  0  0  0
    5.2517    4.0698    0.4562 N   0  0  0  0  0  0  0  0  0  0  0  0
    4.9705    4.6402   -0.7420 C   0  0  0  0  0  0  0  0  0  0  0  0
    3.7733    5.3371   -0.9020 C   0  0  0  0  0  0  0  0  0  0  0  0
    2.9175    5.4331    0.1462 N   0  0  0  0  0  0  0  0  0  0  0  0
    0.8498    5.2601    2.1522 C   0  0  0  0  0  0  0  0  0  0  0  0
    0.3049    6.3231    1.3951 C   0  0  0  0  0  0  0  0  0  0  0  0
    1.0320    7.5645    1.0482 C   0  0  0  0  0  0  0  0  0  0  0  0
    0.9672    8.1104   -0.2460 C   0  0  0  0  0  0  0  0  0  0  0  0
    1.6376    9.2998   -0.5430 C   0  0  0  0  0  0  0  0  0  0  0  0
    2.3890    9.9471    0.4394 C   0  0  0  0  0  0  0  0  0  0  0  0
    2.4858    9.4031    1.7286 C   0  0  0  0  0  0  0  0  0  0  0  0
    3.2789   10.1063    2.7991 C   0  0  0  0  0  0  0  0  0  0  0  0
    2.3546   10.7943    3.7998 C   0  0  0  0  0  0  0  0  0  0  0  0
    1.8027    8.2137    2.0269 C   0  0  0  0  0  0  0  0  0  0  0  0
   -1.0202    6.0330    1.0166 C   0  0  0  0  0  0  0  0  0  0  0  0
   -2.0710    6.7016   -0.1397 S   0  0  0  0  0  0  0  0  0  0  0  0
   -3.1637    5.4066    0.0058 C   0  0  0  0  0  0  0  0  0  0  0  0
   -4.0034    4.7745   -0.8691 C   0  0  0  0  0  0  0  0  0  0  0  0
   -4.3476    5.1512   -2.1754 C   0  0  0  0  0  0  0  0  0  0  0  0
   -4.8600    4.1694   -3.0678 C   0  0  0  0  0  0  0  0  0  0  0  0
   -5.1237    4.5600   -4.3420 N   0  0  0  0  0  0  0  0  0  0  0  0
   -4.6654    6.1490   -4.2380 S   0  0  0  0  0  0  0  0  0  0  0  0
   -4.1434    6.3934   -2.6844 N   0  0  0  0  0  0  0  0  0  0  0  0
   -5.0610    2.8766   -2.5885 C   0  0  0  0  0  0  0  0  0  0  0  0
   -5.4398    1.7331   -3.2296 C   0  0  0  0  0  0  0  0  0  0  0  0
   -5.5180    1.1304   -4.8202 S   0  0  0  0  0  0  0  0  0  0  0  0
   -5.6039   -0.4751   -4.2353 C   0  0  0  0  0  0  0  0  0  0  0  0
   -5.5137   -1.7354   -4.8407 C   0  0  0  0  0  0  0  0  0  0  0  0
   -5.4183   -1.9705   -6.2981 C   0  0  0  0  0  0  0  0  0  0  0  0
   -6.2073   -2.9636   -6.9067 C   0  0  0  0  0  0  0  0  0  0  0  0
   -6.1424   -3.1663   -8.2908 C   0  0  0  0  0  0  0  0  0  0  0  0
   -5.2724   -2.4014   -9.0687 C   0  0  0  0  0  0  0  0  0  0  0  0
   -4.4643   -1.4167   -8.4758 C   0  0  0  0  0  0  0  0  0  0  0  0
   -3.5632   -0.5611   -9.3241 C   0  0  0  0  0  0  0  0  0  0  0  0
   -4.3364    0.6038   -9.9315 C   0  0  0  0  0  0  0  0  0  0  0  0
   -4.5483   -1.2020   -7.0909 C   0  0  0  0  0  0  0  0  0  0  0  0
   -5.4548   -2.7450   -3.8582 C   0  0  0  0  0  0  0  0  0  0  0  0
   -5.4444   -2.0656   -2.2982 S   0  0  0  0  0  0  0  0  0  0  0  0
   -5.5837   -0.5009   -2.8631 C   0  0  0  0  0  0  0  0  0  0  0  0
   -5.4683    0.7557   -2.3020 C   0  0  0  0  0  0  0  0  0  0  0  0
   -5.1357    1.1790   -1.0616 N   0  0  0  0  0  0  0  0  0  0  0  0
   -4.7947    2.5018   -1.2538 C   0  0  0  0  0  0  0  0  0  0  0  0
   -4.1386    3.4483   -0.4044 C   0  0  0  0  0  0  0  0  0  0  0  0
   -3.2968    3.2479    0.6697 N   0  0  0  0  0  0  0  0  0  0  0  0
   -2.7278    4.4645    0.8843 C   0  0  0  0  0  0  0  0  0  0  0  0
   -1.5071    4.8262    1.4599 C   0  0  0  0  0  0  0  0  0  0  0  0
   -0.3123    4.0300    2.3079 S   0  0  0  0  0  0  0  0  0  0  0  0
   -2.7741    1.9912    1.2203 C   0  0  0  0  0  0  0  0  0  0  0  0
   -1.9265    1.2399    0.1975 C   0  0  0  0  0  0  0  0  0  0  0  0
   -5.4812    0.4282    0.1512 C   0  0  0  0  0  0  0  0  0  0  0  0
   -6.2636    1.2744    1.1550 C   0  0  0  0  0  0  0  0  0  0  0  0
   -5.1383   -4.1522   -4.0884 C   0  0  0  0  0  0  0  0  0  0  0  0
   -3.5401   -4.7157   -4.2961 S   0  0  0  0  0  0  0  0  0  0  0  0
   -3.9733   -6.3086   -4.0345 C   0  0  0  0  0  0  0  0  0  0  0  0
   -3.3581   -7.4100   -3.5110 C   0  0  0  0  0  0  0  0  0  0  0  0
   -4.3287   -8.1414   -2.9002 C   0  0  0  0  0  0  0  0  0  0  0  0
   -5.5504   -7.5536   -3.0037 N   0  0  0  0  0  0  0  0  0  0  0  0
   -6.7496   -7.8721   -2.2276 C   0  0  0  0  0  0  0  0  0  0  0  0
   -7.4438   -9.0924   -2.8151 C   0  0  0  0  0  0  0  0  0  0  0  0
   -5.2906   -6.4114   -3.6976 C   0  0  0  0  0  0  0  0  0  0  0  0
   -5.9846   -5.2017   -3.7114 C   0  0  0  0  0  0  0  0  0  0  0  0
   -3.8628   -9.0675   -1.9677 C   0  0  0  0  0  0  0  0  0  0  0  0
   -2.4698   -8.9834   -1.8512 C   0  0  0  0  0  0  0  0  0  0  0  0
   -1.8492   -7.7629   -2.8798 S   0  0  0  0  0  0  0  0  0  0  0  0
   -1.6562   -9.8510   -0.9873 C   0  0  0  0  0  0  0  0  0  0  0  0
   -0.7297   -9.4000   -0.1194 C   0  0  0  0  0  0  0  0  0  0  0  0
   -0.6555   -8.0325    0.4124 C   0  0  0  0  0  0  0  0  0  0  0  0
   -1.3903   -7.0660    0.0831 O   0  0  0  0  0  0  0  0  0  0  0  0
    0.2305   -8.0440    1.5596 C   0  0  0  0  0  0  0  0  0  0  0  0
    0.5302   -6.9890    2.4224 C   0  0  0  0  0  0  0  0  0  0  0  0
    1.3299   -7.2522    3.5439 C   0  0  0  0  0  0  0  0  0  0  0  0
    1.7969   -8.5543    3.7912 C   0  0  0  0  0  0  0  0  0  0  0  0
    2.7626   -8.8799    5.2173 Cl  0  0  0  0  0  0  0  0  0  0  0  0
    1.4770   -9.6061    2.9095 C   0  0  0  0  0  0  0  0  0  0  0  0
    0.7126   -9.3253    1.7658 C   0  0  0  0  0  0  0  0  0  0  0  0
    0.2230  -10.2235    0.6836 C   0  0  0  0  0  0  0  0  0  0  0  0
    0.7362  -11.4373    0.3406 C   0  0  0  0  0  0  0  0  0  0  0  0
    0.3443  -12.1286   -0.8608 C   0  0  0  0  0  0  0  0  0  0  0  0
    0.0376  -12.6936   -1.8252 N   0  0  0  0  0  0  0  0  0  0  0  0
    1.8535  -12.0208    1.0326 C   0  0  0  0  0  0  0  0  0  0  0  0
    2.7683  -12.4926    1.5643 N   0  0  0  0  0  0  0  0  0  0  0  0
    5.1937    1.4464    3.0965 H   0  0  0  0  0  0  0  0  0  0  0  0
   10.2072    4.9330    1.7383 H   0  0  0  0  0  0  0  0  0  0  0  0
   12.3167    3.7733    1.1176 H   0  0  0  0  0  0  0  0  0  0  0  0
   10.3470   -0.0302    1.3295 H   0  0  0  0  0  0  0  0  0  0  0  0
    2.2883    2.5997    6.0038 H   0  0  0  0  0  0  0  0  0  0  0  0
    2.8991    1.3068    4.9019 H   0  0  0  0  0  0  0  0  0  0  0  0
    4.1728    2.1805    7.5692 H   0  0  0  0  0  0  0  0  0  0  0  0
    3.1970    0.6890    7.2866 H   0  0  0  0  0  0  0  0  0  0  0  0
    4.8008    0.8787    6.4746 H   0  0  0  0  0  0  0  0  0  0  0  0
    3.0443    5.0263    6.3601 H   0  0  0  0  0  0  0  0  0  0  0  0
    2.3264    6.4863    5.5683 H   0  0  0  0  0  0  0  0  0  0  0  0
    0.0972    5.9136    6.4676 H   0  0  0  0  0  0  0  0  0  0  0  0
    1.3035    5.9928    7.8075 H   0  0  0  0  0  0  0  0  0  0  0  0
    0.7461    4.3886    7.1926 H   0  0  0  0  0  0  0  0  0  0  0  0
    5.6640    4.5443   -1.5670 H   0  0  0  0  0  0  0  0  0  0  0  0
    3.5174    5.7761   -1.8555 H   0  0  0  0  0  0  0  0  0  0  0  0
    0.4256    7.6028   -1.0351 H   0  0  0  0  0  0  0  0  0  0  0  0
    1.5841    9.7138   -1.5413 H   0  0  0  0  0  0  0  0  0  0  0  0
    2.8998   10.8714    0.1978 H   0  0  0  0  0  0  0  0  0  0  0  0
    3.9508   10.8695    2.3495 H   0  0  0  0  0  0  0  0  0  0  0  0
    3.9206    9.3700    3.3261 H   0  0  0  0  0  0  0  0  0  0  0  0
    1.7240   11.5511    3.2848 H   0  0  0  0  0  0  0  0  0  0  0  0
    2.9585   11.3106    4.5767 H   0  0  0  0  0  0  0  0  0  0  0  0
    1.7038   10.0456    4.3011 H   0  0  0  0  0  0  0  0  0  0  0  0
    1.8573    7.8057    3.0287 H   0  0  0  0  0  0  0  0  0  0  0  0
   -6.8974   -3.5543   -6.3176 H   0  0  0  0  0  0  0  0  0  0  0  0
   -6.7664   -3.9188   -8.7535 H   0  0  0  0  0  0  0  0  0  0  0  0
   -5.2411   -2.5653  -10.1404 H   0  0  0  0  0  0  0  0  0  0  0  0
   -2.7212   -0.1629   -8.7135 H   0  0  0  0  0  0  0  0  0  0  0  0
   -3.1187   -1.1723  -10.1391 H   0  0  0  0  0  0  0  0  0  0  0  0
   -4.8163    1.2062   -9.1332 H   0  0  0  0  0  0  0  0  0  0  0  0
   -5.1202    0.2237  -10.6215 H   0  0  0  0  0  0  0  0  0  0  0  0
   -3.6448    1.2533  -10.5074 H   0  0  0  0  0  0  0  0  0  0  0  0
   -3.9225   -0.4505   -6.6308 H   0  0  0  0  0  0  0  0  0  0  0  0
   -3.5755    1.3810    1.6385 H   0  0  0  0  0  0  0  0  0  0  0  0
   -2.1560    2.1848    2.1096 H   0  0  0  0  0  0  0  0  0  0  0  0
   -2.5274    0.9432   -0.6861 H   0  0  0  0  0  0  0  0  0  0  0  0
   -1.5138    0.3201    0.6636 H   0  0  0  0  0  0  0  0  0  0  0  0
   -1.0846    1.8825   -0.1437 H   0  0  0  0  0  0  0  0  0  0  0  0
   -4.5942   -0.0750    0.5806 H   0  0  0  0  0  0  0  0  0  0  0  0
   -6.1565   -0.4115   -0.1102 H   0  0  0  0  0  0  0  0  0  0  0  0
   -7.2359    1.5825    0.7143 H   0  0  0  0  0  0  0  0  0  0  0  0
   -6.4626    0.6689    2.0644 H   0  0  0  0  0  0  0  0  0  0  0  0
   -5.7119    2.1840    1.4601 H   0  0  0  0  0  0  0  0  0  0  0  0
   -6.4720   -8.0661   -1.1677 H   0  0  0  0  0  0  0  0  0  0  0  0
   -7.4623   -7.0213   -2.2355 H   0  0  0  0  0  0  0  0  0  0  0  0
   -6.7788   -9.9786   -2.7492 H   0  0  0  0  0  0  0  0  0  0  0  0
   -7.7010   -8.9017   -3.8799 H   0  0  0  0  0  0  0  0  0  0  0  0
   -8.3722   -9.2979   -2.2478 H   0  0  0  0  0  0  0  0  0  0  0  0
   -6.9909   -5.0609   -3.3398 H   0  0  0  0  0  0  0  0  0  0  0  0
   -4.4961   -9.6872   -1.3451 H   0  0  0  0  0  0  0  0  0  0  0  0
   -1.8648  -10.9090   -1.0464 H   0  0  0  0  0  0  0  0  0  0  0  0
    0.1375   -5.9952    2.2471 H   0  0  0  0  0  0  0  0  0  0  0  0
    1.5764   -6.4461    4.2226 H   0  0  0  0  0  0  0  0  0  0  0  0
    1.8011  -10.6064    3.1487 H   0  0  0  0  0  0  0  0  0  0  0  0
  1  2  2  3
  2  3  1  0
  3  4  2  0
  3  5  1  0
  5  6  2  0
  6  7  1  0
  7  8  2  0
  8  9  1  0
  8 10  1  0
 10 11  2  0
 11 12  1  0
 12 13  2  3
 13 14  1  0
 14 15  3  0
 13 16  1  0
 16 17  3  0
  1 18  1  0
 18 19  2  0
 19 20  1  0
 20 21  1  0
 21 22  1  0
 19 23  1  0
 23 24  1  0
 24 25  1  0
 25 26  1  0
 23 27  2  0
 27 28  1  0
 28 29  2  0
 29 30  1  0
 30 31  2  0
 31 32  1  0
 32 33  2  0
 27 34  1  0
 34 35  2  0
 35 36  1  0
 36 37  2  0
 37 38  1  0
 38 39  2  0
 39 40  1  0
 40 41  1  0
 41 42  1  0
 40 43  2  0
 35 44  1  0
 44 45  1  0
 45 46  1  0
 46 47  1  0
 47 48  1  0
 48 49  1  0
 49 50  2  0
 50 51  1  0
 51 52  1  0
 49 53  1  0
 53 54  1  0
 54 55  1  0
 55 56  1  0
 56 57  1  0
 57 58  1  0
 58 59  2  0
 59 60  1  0
 60 61  2  0
 61 62  1  0
 62 63  1  0
 63 64  1  0
 62 65  2  0
 57 66  2  0
 66 67  1  0
 67 68  1  0
 68 69  1  0
 69 70  1  0
 70 71  1  0
 71 72  1  0
 72 73  1  0
 73 74  1  0
 74 75  1  0
 75 76  1  0
 73 77  1  0
 77 78  1  0
 70 79  1  0
 79 80  1  0
 66 81  1  0
 81 82  1  0
 82 83  1  0
 83 84  1  0
 84 85  2  0
 85 86  1  0
 86 87  1  0
 87 88  1  0
 86 89  1  0
 89 90  1  0
 85 91  1  0
 91 92  2  0
 92 93  1  0
 92 94  1  0
 94 95  2  3
 95 96  1  0
 96 97  2  0
 96 98  1  0
 98 99  2  0
 99100  1  0
100101  2  0
101102  1  0
101103  1  0
103104  2  0
104105  1  0
105106  2  3
106107  1  0
107108  3  0
106109  1  0
109110  3  0
 12  2  1  0
 29 18  1  0
 76 34  1  0
 90 81  2  0
105 95  1  0
 11  5  1  0
 33 28  1  0
 43 36  1  0
 75 44  2  0
 89 83  2  0
104 98  1  0
 74 46  2  0
 93 84  1  0
 72 47  2  0
 52 48  2  0
 71 53  2  0
 69 54  2  0
 68 56  2  0
 65 58  1  0
  1111  1  0
  6112  1  0
  7113  1  0
 10114  1  0
 21115  1  0
 21116  1  0
 22117  1  0
 22118  1  0
 22119  1  0
 25120  1  0
 25121  1  0
 26122  1  0
 26123  1  0
 26124  1  0
 31125  1  0
 32126  1  0
 37127  1  0
 38128  1  0
 39129  1  0
 41130  1  0
 41131  1  0
 42132  1  0
 42133  1  0
 42134  1  0
 43135  1  0
 59136  1  0
 60137  1  0
 61138  1  0
 63139  1  0
 63140  1  0
 64141  1  0
 64142  1  0
 64143  1  0
 65144  1  0
 77145  1  0
 77146  1  0
 78147  1  0
 78148  1  0
 78149  1  0
 79150  1  0
 79151  1  0
 80152  1  0
 80153  1  0
 80154  1  0
 87155  1  0
 87156  1  0
 88157  1  0
 88158  1  0
 88159  1  0
 90160  1  0
 91161  1  0
 94162  1  0
 99163  1  0
100164  1  0
103165  1  0
M  END

