
     RDKit          3D

156173  0  0  0  0  0  0  0  0999 V2000
   -6.2886    0.5414    8.4256 C   0  0  0  0  0  0  0  0  0  0  0  0
   -6.1027    0.3159    9.7428 C   0  0  0  0  0  0  0  0  0  0  0  0
   -4.8145    0.1251   10.4185 C   0  0  0  0  0  0  0  0  0  0  0  0
   -3.7283   -0.2190    9.8781 O   0  0  0  0  0  0  0  0  0  0  0  0
   -5.0043    0.3562   11.8342 C   0  0  0  0  0  0  0  0  0  0  0  0
   -4.0365    0.4135   12.8382 C   0  0  0  0  0  0  0  0  0  0  0  0
   -4.4443    0.7399   14.1381 C   0  0  0  0  0  0  0  0  0  0  0  0
   -5.7969    1.0189   14.4093 C   0  0  0  0  0  0  0  0  0  0  0  0
   -6.2870    1.4688   16.0298 Cl  0  0  0  0  0  0  0  0  0  0  0  0
   -6.7533    0.9578   13.3831 C   0  0  0  0  0  0  0  0  0  0  0  0
   -6.3439    0.5957   12.0879 C   0  0  0  0  0  0  0  0  0  0  0  0
   -7.1246    0.4502   10.8252 C   0  0  0  0  0  0  0  0  0  0  0  0
   -8.4584    0.2202   10.7182 C   0  0  0  0  0  0  0  0  0  0  0  0
   -9.0655   -0.2235    9.4885 C   0  0  0  0  0  0  0  0  0  0  0  0
   -9.5619   -0.5858    8.5073 N   0  0  0  0  0  0  0  0  0  0  0  0
   -9.3412    0.2483   11.8561 C   0  0  0  0  0  0  0  0  0  0  0  0
  -10.0607    0.2659   12.7630 N   0  0  0  0  0  0  0  0  0  0  0  0
   -5.2006    0.5603    7.4199 C   0  0  0  0  0  0  0  0  0  0  0  0
   -4.1424    1.4729    7.5285 C   0  0  0  0  0  0  0  0  0  0  0  0
   -4.0911    2.3451    8.5680 F   0  0  0  0  0  0  0  0  0  0  0  0
   -3.1149    1.4827    6.5848 C   0  0  0  0  0  0  0  0  0  0  0  0
   -2.0281    2.2570    6.8424 F   0  0  0  0  0  0  0  0  0  0  0  0
   -3.1721    0.6585    5.4392 C   0  0  0  0  0  0  0  0  0  0  0  0
   -4.2569   -0.2374    5.3117 C   0  0  0  0  0  0  0  0  0  0  0  0
   -4.3480   -1.0843    4.2516 N   0  0  0  0  0  0  0  0  0  0  0  0
   -5.3434   -2.0045    4.1290 C   0  0  0  0  0  0  0  0  0  0  0  0
   -5.3103   -2.9169    2.9249 C   0  0  0  0  0  0  0  0  0  0  0  0
   -6.3214   -2.4861    1.8627 C   0  0  0  0  0  0  0  0  0  0  0  0
   -6.3351   -2.0710    5.1377 C   0  0  0  0  0  0  0  0  0  0  0  0
   -6.2556   -1.2079    6.1852 N   0  0  0  0  0  0  0  0  0  0  0  0
   -5.2561   -0.2928    6.3052 C   0  0  0  0  0  0  0  0  0  0  0  0
   -7.4714   -3.0659    5.1366 C   0  0  0  0  0  0  0  0  0  0  0  0
   -8.8157   -2.3636    5.0001 C   0  0  0  0  0  0  0  0  0  0  0  0
   -2.0536    0.6793    4.4450 C   0  0  0  0  0  0  0  0  0  0  0  0
   -1.2428    1.7961    4.1232 C   0  0  0  0  0  0  0  0  0  0  0  0
   -1.6662    3.2062    4.2716 C   0  0  0  0  0  0  0  0  0  0  0  0
   -0.7824    4.1852    4.7506 C   0  0  0  0  0  0  0  0  0  0  0  0
   -1.2040    5.5117    4.8781 C   0  0  0  0  0  0  0  0  0  0  0  0
   -2.5040    5.8771    4.5172 C   0  0  0  0  0  0  0  0  0  0  0  0
   -3.3982    4.9102    4.0324 C   0  0  0  0  0  0  0  0  0  0  0  0
   -4.7854    5.2991    3.5972 C   0  0  0  0  0  0  0  0  0  0  0  0
   -4.8341    5.5297    2.0886 C   0  0  0  0  0  0  0  0  0  0  0  0
   -2.9704    3.5799    3.9048 C   0  0  0  0  0  0  0  0  0  0  0  0
   -0.1129    1.4048    3.3996 C   0  0  0  0  0  0  0  0  0  0  0  0
    1.3062    2.2051    2.8777 S   0  0  0  0  0  0  0  0  0  0  0  0
    1.8800    0.7809    2.1530 C   0  0  0  0  0  0  0  0  0  0  0  0
    2.9955    0.2895    1.5297 C   0  0  0  0  0  0  0  0  0  0  0  0
    4.2893    0.7866    1.3496 C   0  0  0  0  0  0  0  0  0  0  0  0
    5.2707   -0.0654    0.7507 C   0  0  0  0  0  0  0  0  0  0  0  0
    6.5099    0.4571    0.5867 N   0  0  0  0  0  0  0  0  0  0  0  0
    6.2808    1.9565    1.2540 S   0  0  0  0  0  0  0  0  0  0  0  0
    4.6948    2.0203    1.7324 N   0  0  0  0  0  0  0  0  0  0  0  0
    4.8817   -1.3357    0.2791 C   0  0  0  0  0  0  0  0  0  0  0  0
    5.4358   -2.0745   -0.7379 C   0  0  0  0  0  0  0  0  0  0  0  0
    6.7267   -1.7780   -1.7979 S   0  0  0  0  0  0  0  0  0  0  0  0
    5.9321   -2.5218   -3.1031 C   0  0  0  0  0  0  0  0  0  0  0  0
    6.1320   -2.4163   -4.4877 C   0  0  0  0  0  0  0  0  0  0  0  0
    7.4161   -2.0968   -5.1574 C   0  0  0  0  0  0  0  0  0  0  0  0
    8.2556   -1.0621   -4.7097 C   0  0  0  0  0  0  0  0  0  0  0  0
    9.4518   -0.7831   -5.3769 C   0  0  0  0  0  0  0  0  0  0  0  0
    9.8234   -1.5292   -6.4989 C   0  0  0  0  0  0  0  0  0  0  0  0
    8.9990   -2.5657   -6.9610 C   0  0  0  0  0  0  0  0  0  0  0  0
    9.3743   -3.3501   -8.1936 C   0  0  0  0  0  0  0  0  0  0  0  0
    8.6926   -2.7725   -9.4300 C   0  0  0  0  0  0  0  0  0  0  0  0
    7.7973   -2.8397   -6.2906 C   0  0  0  0  0  0  0  0  0  0  0  0
    4.9359   -2.6661   -5.1908 C   0  0  0  0  0  0  0  0  0  0  0  0
    3.7175   -3.0909   -4.0839 S   0  0  0  0  0  0  0  0  0  0  0  0
    4.6748   -2.9338   -2.7162 C   0  0  0  0  0  0  0  0  0  0  0  0
    4.3981   -2.7114   -1.3614 C   0  0  0  0  0  0  0  0  0  0  0  0
    3.2128   -2.5390   -0.7081 N   0  0  0  0  0  0  0  0  0  0  0  0
    3.5453   -1.7586    0.3686 C   0  0  0  0  0  0  0  0  0  0  0  0
    2.6572   -1.0151    1.1685 C   0  0  0  0  0  0  0  0  0  0  0  0
    1.4568   -1.3917    1.7030 N   0  0  0  0  0  0  0  0  0  0  0  0
    1.0129   -0.2514    2.2811 C   0  0  0  0  0  0  0  0  0  0  0  0
   -0.0929    0.0816    3.0438 C   0  0  0  0  0  0  0  0  0  0  0  0
   -1.4042   -0.7179    3.7002 S   0  0  0  0  0  0  0  0  0  0  0  0
    1.0079   -2.7531    2.0249 C   0  0  0  0  0  0  0  0  0  0  0  0
    1.3573   -3.1190    3.4680 C   0  0  0  0  0  0  0  0  0  0  0  0
    1.8886   -2.6096   -1.3470 C   0  0  0  0  0  0  0  0  0  0  0  0
    1.5418   -1.2919   -2.0378 C   0  0  0  0  0  0  0  0  0  0  0  0
    4.5884   -2.0760   -6.5080 C   0  0  0  0  0  0  0  0  0  0  0  0
    3.8919   -2.8209   -7.4874 C   0  0  0  0  0  0  0  0  0  0  0  0
    3.7620   -4.2561   -7.3329 C   0  0  0  0  0  0  0  0  0  0  0  0
    3.6723   -5.4023   -7.2186 N   0  0  0  0  0  0  0  0  0  0  0  0
    3.3515   -2.1765   -8.6340 C   0  0  0  0  0  0  0  0  0  0  0  0
    2.6100   -2.9495   -9.6109 C   0  0  0  0  0  0  0  0  0  0  0  0
    2.0227   -3.5660  -10.3939 N   0  0  0  0  0  0  0  0  0  0  0  0
    3.4797   -0.7785   -8.8005 C   0  0  0  0  0  0  0  0  0  0  0  0
    4.2735   -0.0655   -7.8887 C   0  0  0  0  0  0  0  0  0  0  0  0
    4.7848   -0.7013   -6.7248 C   0  0  0  0  0  0  0  0  0  0  0  0
    5.4872    0.0937   -5.8697 N   0  0  0  0  0  0  0  0  0  0  0  0
    5.4132    1.5439   -6.6480 S   0  0  0  0  0  0  0  0  0  0  0  0
    4.5377    1.2608   -8.0199 N   0  0  0  0  0  0  0  0  0  0  0  0
    2.8579   -0.0767   -9.9564 C   0  0  0  0  0  0  0  0  0  0  0  0
    2.1277    1.0560   -9.8488 C   0  0  0  0  0  0  0  0  0  0  0  0
    1.5283    1.5662   -8.6065 C   0  0  0  0  0  0  0  0  0  0  0  0
    1.6416    1.0625   -7.4561 O   0  0  0  0  0  0  0  0  0  0  0  0
    0.6488    2.6644   -8.9340 C   0  0  0  0  0  0  0  0  0  0  0  0
   -0.1461    3.4077   -8.0613 C   0  0  0  0  0  0  0  0  0  0  0  0
   -0.9682    4.4057   -8.5953 C   0  0  0  0  0  0  0  0  0  0  0  0
   -0.9900    4.6388   -9.9832 C   0  0  0  0  0  0  0  0  0  0  0  0
   -2.0430    5.8768  -10.6421 Cl  0  0  0  0  0  0  0  0  0  0  0  0
   -0.1961    3.8636  -10.8457 C   0  0  0  0  0  0  0  0  0  0  0  0
    0.6432    2.8721  -10.3029 C   0  0  0  0  0  0  0  0  0  0  0  0
    1.5965    1.9219  -10.9577 C   0  0  0  0  0  0  0  0  0  0  0  0
    2.0405    1.9669  -12.2409 C   0  0  0  0  0  0  0  0  0  0  0  0
    3.1551    1.1782  -12.7030 C   0  0  0  0  0  0  0  0  0  0  0  0
    4.0535    0.5501  -13.0832 N   0  0  0  0  0  0  0  0  0  0  0  0
    1.4986    2.8644  -13.2253 C   0  0  0  0  0  0  0  0  0  0  0  0
    1.0811    3.5725  -14.0390 N   0  0  0  0  0  0  0  0  0  0  0  0
   -7.2728    0.7615    8.0447 H   0  0  0  0  0  0  0  0  0  0  0  0
   -2.9952    0.2260   12.6189 H   0  0  0  0  0  0  0  0  0  0  0  0
   -3.7082    0.7973   14.9303 H   0  0  0  0  0  0  0  0  0  0  0  0
   -7.7736    1.2207   13.6067 H   0  0  0  0  0  0  0  0  0  0  0  0
   -5.4810   -3.9735    3.2213 H   0  0  0  0  0  0  0  0  0  0  0  0
   -4.2993   -2.8870    2.4700 H   0  0  0  0  0  0  0  0  0  0  0  0
   -7.3584   -2.5908    2.2399 H   0  0  0  0  0  0  0  0  0  0  0  0
   -6.1437   -1.4266    1.5631 H   0  0  0  0  0  0  0  0  0  0  0  0
   -6.2093   -3.1346    0.9680 H   0  0  0  0  0  0  0  0  0  0  0  0
   -7.3833   -3.8235    4.3340 H   0  0  0  0  0  0  0  0  0  0  0  0
   -7.4532   -3.6234    6.0985 H   0  0  0  0  0  0  0  0  0  0  0  0
   -9.6243   -3.1300    4.9480 H   0  0  0  0  0  0  0  0  0  0  0  0
   -8.8513   -1.7620    4.0704 H   0  0  0  0  0  0  0  0  0  0  0  0
   -9.0095   -1.7075    5.8765 H   0  0  0  0  0  0  0  0  0  0  0  0
    0.2225    3.9170    5.0506 H   0  0  0  0  0  0  0  0  0  0  0  0
   -0.5237    6.2598    5.2614 H   0  0  0  0  0  0  0  0  0  0  0  0
   -2.8122    6.9109    4.6087 H   0  0  0  0  0  0  0  0  0  0  0  0
   -5.5060    4.4962    3.8679 H   0  0  0  0  0  0  0  0  0  0  0  0
   -5.1084    6.2247    4.1205 H   0  0  0  0  0  0  0  0  0  0  0  0
   -4.5953    4.5894    1.5481 H   0  0  0  0  0  0  0  0  0  0  0  0
   -4.1059    6.3141    1.7951 H   0  0  0  0  0  0  0  0  0  0  0  0
   -5.8516    5.8600    1.7959 H   0  0  0  0  0  0  0  0  0  0  0  0
   -3.6545    2.8385    3.5072 H   0  0  0  0  0  0  0  0  0  0  0  0
    7.9716   -0.4362   -3.8765 H   0  0  0  0  0  0  0  0  0  0  0  0
   10.0881    0.0216   -5.0341 H   0  0  0  0  0  0  0  0  0  0  0  0
   10.7519   -1.2967   -7.0088 H   0  0  0  0  0  0  0  0  0  0  0  0
    9.0671   -4.4124   -8.0706 H   0  0  0  0  0  0  0  0  0  0  0  0
   10.4756   -3.3391   -8.3441 H   0  0  0  0  0  0  0  0  0  0  0  0
    9.0527   -1.7368   -9.6172 H   0  0  0  0  0  0  0  0  0  0  0  0
    8.9347   -3.3985  -10.3139 H   0  0  0  0  0  0  0  0  0  0  0  0
    7.5883   -2.7581   -9.2930 H   0  0  0  0  0  0  0  0  0  0  0  0
    7.1592   -3.6368   -6.6536 H   0  0  0  0  0  0  0  0  0  0  0  0
    1.5103   -3.4995    1.3777 H   0  0  0  0  0  0  0  0  0  0  0  0
   -0.0911   -2.8284    1.8704 H   0  0  0  0  0  0  0  0  0  0  0  0
    1.0162   -4.1559    3.6792 H   0  0  0  0  0  0  0  0  0  0  0  0
    2.4561   -3.0645    3.6199 H   0  0  0  0  0  0  0  0  0  0  0  0
    0.8597   -2.4336    4.1821 H   0  0  0  0  0  0  0  0  0  0  0  0
    1.8624   -3.4462   -2.0753 H   0  0  0  0  0  0  0  0  0  0  0  0
    1.0962   -2.8281   -0.6175 H   0  0  0  0  0  0  0  0  0  0  0  0
    1.4212   -0.4802   -1.2870 H   0  0  0  0  0  0  0  0  0  0  0  0
    2.3351   -0.9883   -2.7558 H   0  0  0  0  0  0  0  0  0  0  0  0
    0.5804   -1.4037   -2.5850 H   0  0  0  0  0  0  0  0  0  0  0  0
    2.9691   -0.5487  -10.9128 H   0  0  0  0  0  0  0  0  0  0  0  0
   -0.1323    3.2130   -6.9954 H   0  0  0  0  0  0  0  0  0  0  0  0
   -1.5922    4.9952   -7.9329 H   0  0  0  0  0  0  0  0  0  0  0  0
   -0.2686    4.0438  -11.9026 H   0  0  0  0  0  0  0  0  0  0  0  0
  1  2  2  3
  2  3  1  0
  3  4  2  0
  3  5  1  0
  5  6  2  0
  6  7  1  0
  7  8  2  0
  8  9  1  0
  8 10  1  0
 10 11  2  0
 11 12  1  0
 12 13  2  3
 13 14  1  0
 14 15  3  0
 13 16  1  0
 16 17  3  0
  1 18  1  0
 18 19  2  0
 19 20  1  0
 19 21  1  0
 21 22  1  0
 21 23  2  0
 23 24  1  0
 24 25  2  0
 25 26  1  0
 26 27  1  0
 27 28  1  0
 26 29  2  0
 29 30  1  0
 30 31  2  0
 29 32  1  0
 32 33  1  0
 23 34  1  0
 34 35  2  0
 35 36  1  0
 36 37  2  0
 37 38  1  0
 38 39  2  0
 39 40  1  0
 40 41  1  0
 41 42  1  0
 40 43  2  0
 35 44  1  0
 44 45  1  0
 45 46  1  0
 46 47  1  0
 47 48  1  0
 48 49  1  0
 49 50  2  0
 50 51  1  0
 51 52  1  0
 49 53  1  0
 53 54  1  0
 54 55  1  0
 55 56  1  0
 56 57  1  0
 57 58  1  0
 58 59  2  0
 59 60  1  0
 60 61  2  0
 61 62  1  0
 62 63  1  0
 63 64  1  0
 62 65  2  0
 57 66  2  0
 66 67  1  0
 67 68  1  0
 68 69  1  0
 69 70  1  0
 70 71  1  0
 71 72  1  0
 72 73  1  0
 73 74  1  0
 74 75  1  0
 75 76  1  0
 73 77  1  0
 77 78  1  0
 70 79  1  0
 79 80  1  0
 66 81  1  0
 81 82  2  0
 82 83  1  0
 83 84  3  0
 82 85  1  0
 85 86  1  0
 86 87  3  0
 85 88  2  0
 88 89  1  0
 89 90  1  0
 90 91  2  0
 91 92  1  0
 92 93  1  0
 88 94  1  0
 94 95  2  3
 95 96  1  0
 96 97  2  0
 96 98  1  0
 98 99  2  0
 99100  1  0
100101  2  0
101102  1  0
101103  1  0
103104  2  0
104105  1  0
105106  2  3
106107  1  0
107108  3  0
106109  1  0
109110  3  0
 12  2  1  0
 31 18  1  0
 76 34  1  0
 90 81  1  0
105 95  1  0
 11  5  1  0
 31 24  1  0
 43 36  1  0
 75 44  2  0
 93 89  2  0
104 98  1  0
 74 46  2  0
 72 47  2  0
 52 48  2  0
 71 53  2  0
 69 54  2  0
 68 56  2  0
 65 58  1  0
  1111  1  0
  6112  1  0
  7113  1  0
 10114  1  0
 27115  1  0
 27116  1  0
 28117  1  0
 28118  1  0
 28119  1  0
 32120  1  0
 32121  1  0
 33122  1  0
 33123  1  0
 33124  1  0
 37125  1  0
 38126  1  0
 39127  1  0
 41128  1  0
 41129  1  0
 42130  1  0
 42131  1  0
 42132  1  0
 43133  1  0
 59134  1  0
 60135  1  0
 61136  1  0
 63137  1  0
 63138  1  0
 64139  1  0
 64140  1  0
 64141  1  0
 65142  1  0
 77143  1  0
 77144  1  0
 78145  1  0
 78146  1  0
 78147  1  0
 79148  1  0
 79149  1  0
 80150  1  0
 80151  1  0
 80152  1  0
 94153  1  0
 99154  1  0
100155  1  0
103156  1  0
M  END

