
     RDKit          3D

135150  0  0  0  0  0  0  0  0999 V2000
    2.9011    9.0402   -1.6999 C   0  0  0  0  0  0  0  0  0  0  0  0
    3.6036    9.7712   -2.5947 C   0  0  0  0  0  0  0  0  0  0  0  0
    3.7142    9.5202   -4.0462 C   0  0  0  0  0  0  0  0  0  0  0  0
    3.1124    8.6349   -4.7108 O   0  0  0  0  0  0  0  0  0  0  0  0
    4.7605   10.3626   -4.5889 C   0  0  0  0  0  0  0  0  0  0  0  0
    5.1869   10.4113   -5.9174 C   0  0  0  0  0  0  0  0  0  0  0  0
    6.2444   11.2478   -6.2664 C   0  0  0  0  0  0  0  0  0  0  0  0
    6.9055   12.0643   -5.2127 C   0  0  0  0  0  0  0  0  0  0  0  0
    8.3337   13.1110   -5.8998 Cl  0  0  0  0  0  0  0  0  0  0  0  0
    6.3999   11.9855   -3.7663 C   0  0  0  0  0  0  0  0  0  0  0  0
    5.3223   11.1121   -3.5633 C   0  0  0  0  0  0  0  0  0  0  0  0
    4.6123   10.8352   -2.2847 C   0  0  0  0  0  0  0  0  0  0  0  0
    4.7584   11.5451   -1.1323 C   0  0  0  0  0  0  0  0  0  0  0  0
    5.7525   12.5816   -0.9954 C   0  0  0  0  0  0  0  0  0  0  0  0
    6.5453   13.4167   -0.8808 N   0  0  0  0  0  0  0  0  0  0  0  0
    3.8888   11.3901    0.0039 C   0  0  0  0  0  0  0  0  0  0  0  0
    3.1941   11.2687    0.9200 N   0  0  0  0  0  0  0  0  0  0  0  0
    1.8541    8.0461   -2.0202 C   0  0  0  0  0  0  0  0  0  0  0  0
    1.5988    7.0030   -1.1214 C   0  0  0  0  0  0  0  0  0  0  0  0
    0.6134    6.0631   -1.4201 C   0  0  0  0  0  0  0  0  0  0  0  0
   -0.1119    6.1611   -2.6142 C   0  0  0  0  0  0  0  0  0  0  0  0
    0.1243    7.2558   -3.4564 C   0  0  0  0  0  0  0  0  0  0  0  0
    1.0816    8.1660   -3.1364 N   0  0  0  0  0  0  0  0  0  0  0  0
   -1.0291    5.0802   -3.0152 C   0  0  0  0  0  0  0  0  0  0  0  0
   -0.9709    4.3752   -4.2356 C   0  0  0  0  0  0  0  0  0  0  0  0
   -0.0102    4.6441   -5.3244 C   0  0  0  0  0  0  0  0  0  0  0  0
   -0.4999    5.2113   -6.5104 C   0  0  0  0  0  0  0  0  0  0  0  0
    0.3673    5.5272   -7.5564 C   0  0  0  0  0  0  0  0  0  0  0  0
    1.7298    5.2724   -7.4337 C   0  0  0  0  0  0  0  0  0  0  0  0
    2.2324    4.6853   -6.2704 C   0  0  0  0  0  0  0  0  0  0  0  0
    1.3757    4.3631   -5.2036 C   0  0  0  0  0  0  0  0  0  0  0  0
    1.9554    3.6363   -4.0101 C   0  0  0  0  0  0  0  0  0  0  0  0
    1.9770    2.1291   -4.2521 C   0  0  0  0  0  0  0  0  0  0  0  0
   -1.8259    3.2746   -4.2226 C   0  0  0  0  0  0  0  0  0  0  0  0
   -1.9039    1.8736   -5.2022 S   0  0  0  0  0  0  0  0  0  0  0  0
   -2.8708    1.0973   -4.0441 C   0  0  0  0  0  0  0  0  0  0  0  0
   -3.2355   -0.1777   -3.7163 C   0  0  0  0  0  0  0  0  0  0  0  0
   -3.1430   -1.3777   -4.4229 C   0  0  0  0  0  0  0  0  0  0  0  0
   -3.5043   -2.5862   -3.7618 C   0  0  0  0  0  0  0  0  0  0  0  0
   -3.3641   -3.7359   -4.4686 N   0  0  0  0  0  0  0  0  0  0  0  0
   -2.8085   -3.1187   -5.9015 S   0  0  0  0  0  0  0  0  0  0  0  0
   -2.7081   -1.4769   -5.7027 N   0  0  0  0  0  0  0  0  0  0  0  0
   -3.8922   -2.5328   -2.4147 C   0  0  0  0  0  0  0  0  0  0  0  0
   -3.9373   -3.5401   -1.4940 C   0  0  0  0  0  0  0  0  0  0  0  0
   -3.3628   -5.1395   -1.4869 S   0  0  0  0  0  0  0  0  0  0  0  0
   -3.1277   -5.0878    0.1937 C   0  0  0  0  0  0  0  0  0  0  0  0
   -2.5042   -5.9616    1.0853 C   0  0  0  0  0  0  0  0  0  0  0  0
   -1.9587   -7.2691    0.6787 C   0  0  0  0  0  0  0  0  0  0  0  0
   -2.6629   -8.4775    0.9010 C   0  0  0  0  0  0  0  0  0  0  0  0
   -4.0381   -8.4997    1.5294 C   0  0  0  0  0  0  0  0  0  0  0  0
   -5.1210   -8.3986    0.4603 C   0  0  0  0  0  0  0  0  0  0  0  0
   -2.0983   -9.6883    0.4607 C   0  0  0  0  0  0  0  0  0  0  0  0
   -0.8532   -9.7021   -0.1733 C   0  0  0  0  0  0  0  0  0  0  0  0
   -0.1579   -8.5098   -0.3788 C   0  0  0  0  0  0  0  0  0  0  0  0
   -0.7087   -7.2995    0.0417 C   0  0  0  0  0  0  0  0  0  0  0  0
   -2.3520   -5.3739    2.3571 C   0  0  0  0  0  0  0  0  0  0  0  0
   -2.9566   -3.7799    2.3063 S   0  0  0  0  0  0  0  0  0  0  0  0
   -3.4391   -3.8552    0.7035 C   0  0  0  0  0  0  0  0  0  0  0  0
   -3.8931   -2.9587   -0.2618 C   0  0  0  0  0  0  0  0  0  0  0  0
   -3.8430   -1.6011   -0.3277 N   0  0  0  0  0  0  0  0  0  0  0  0
   -3.9031   -1.3334   -1.6785 C   0  0  0  0  0  0  0  0  0  0  0  0
   -3.6630   -0.1162   -2.3779 C   0  0  0  0  0  0  0  0  0  0  0  0
   -3.6499    1.1779   -1.9271 N   0  0  0  0  0  0  0  0  0  0  0  0
   -3.1126    1.8660   -2.9600 C   0  0  0  0  0  0  0  0  0  0  0  0
   -2.5236    3.1107   -3.0518 C   0  0  0  0  0  0  0  0  0  0  0  0
   -2.0959    4.2876   -1.9419 S   0  0  0  0  0  0  0  0  0  0  0  0
   -4.5159    1.7753   -0.9032 C   0  0  0  0  0  0  0  0  0  0  0  0
   -5.6056    2.6474   -1.5259 C   0  0  0  0  0  0  0  0  0  0  0  0
   -3.2899   -0.7573    0.7424 C   0  0  0  0  0  0  0  0  0  0  0  0
   -4.3072   -0.5484    1.8687 C   0  0  0  0  0  0  0  0  0  0  0  0
   -1.6958   -5.9706    3.5406 C   0  0  0  0  0  0  0  0  0  0  0  0
   -2.0076   -5.5129    4.8308 C   0  0  0  0  0  0  0  0  0  0  0  0
   -1.3775   -6.0849    5.9349 C   0  0  0  0  0  0  0  0  0  0  0  0
   -0.4175   -7.0846    5.7535 C   0  0  0  0  0  0  0  0  0  0  0  0
   -0.1340   -7.5223    4.4520 C   0  0  0  0  0  0  0  0  0  0  0  0
   -0.7749   -6.9628    3.3901 N   0  0  0  0  0  0  0  0  0  0  0  0
    0.1948   -7.7257    6.9290 C   0  0  0  0  0  0  0  0  0  0  0  0
    1.5150   -7.7122    7.1922 C   0  0  0  0  0  0  0  0  0  0  0  0
    2.5153   -6.8749    6.5148 C   0  0  0  0  0  0  0  0  0  0  0  0
    2.3933   -6.3347    5.3868 O   0  0  0  0  0  0  0  0  0  0  0  0
    3.6712   -6.7402    7.3898 C   0  0  0  0  0  0  0  0  0  0  0  0
    3.4569   -7.4899    8.5369 C   0  0  0  0  0  0  0  0  0  0  0  0
    4.3615   -7.4094    9.6040 C   0  0  0  0  0  0  0  0  0  0  0  0
    5.5040   -6.6080    9.4712 C   0  0  0  0  0  0  0  0  0  0  0  0
    5.7358   -5.8763    8.2936 C   0  0  0  0  0  0  0  0  0  0  0  0
    7.3101   -4.7873    8.1930 Br  0  0  0  0  0  0  0  0  0  0  0  0
    4.8035   -5.9236    7.2372 C   0  0  0  0  0  0  0  0  0  0  0  0
    5.0460   -4.9638    5.7782 Cl  0  0  0  0  0  0  0  0  0  0  0  0
    2.1669   -8.2248    8.4312 C   0  0  0  0  0  0  0  0  0  0  0  0
    1.7713   -9.2954    9.1675 C   0  0  0  0  0  0  0  0  0  0  0  0
    0.6070  -10.0733    8.8290 C   0  0  0  0  0  0  0  0  0  0  0  0
   -0.3307  -10.7059    8.5710 N   0  0  0  0  0  0  0  0  0  0  0  0
    2.5396   -9.8104   10.2713 C   0  0  0  0  0  0  0  0  0  0  0  0
    3.1324  -10.2364   11.1673 N   0  0  0  0  0  0  0  0  0  0  0  0
    3.1364    9.1318   -0.6533 H   0  0  0  0  0  0  0  0  0  0  0  0
    4.7071    9.8044   -6.6743 H   0  0  0  0  0  0  0  0  0  0  0  0
    6.5851   11.2952   -7.2924 H   0  0  0  0  0  0  0  0  0  0  0  0
    6.8873   12.2174   -4.5065 H   0  0  0  0  0  0  0  0  0  0  0  0
    2.1772    6.9013   -0.2110 H   0  0  0  0  0  0  0  0  0  0  0  0
    0.4592    5.2277   -0.7470 H   0  0  0  0  0  0  0  0  0  0  0  0
   -0.4378    7.3761   -4.3724 H   0  0  0  0  0  0  0  0  0  0  0  0
   -1.5583    5.4244   -6.6171 H   0  0  0  0  0  0  0  0  0  0  0  0
   -0.0209    5.9694   -8.4665 H   0  0  0  0  0  0  0  0  0  0  0  0
    2.4013    5.5116   -8.2492 H   0  0  0  0  0  0  0  0  0  0  0  0
    3.2927    4.4683   -6.2067 H   0  0  0  0  0  0  0  0  0  0  0  0
    1.3796    3.8390   -3.0886 H   0  0  0  0  0  0  0  0  0  0  0  0
    2.9922    3.9867   -3.8204 H   0  0  0  0  0  0  0  0  0  0  0  0
    2.4148    1.6195   -3.3720 H   0  0  0  0  0  0  0  0  0  0  0  0
    0.9432    1.7505   -4.3991 H   0  0  0  0  0  0  0  0  0  0  0  0
    2.5861    1.8889   -5.1506 H   0  0  0  0  0  0  0  0  0  0  0  0
   -4.1575   -7.6700    2.2574 H   0  0  0  0  0  0  0  0  0  0  0  0
   -4.1782   -9.4445    2.0973 H   0  0  0  0  0  0  0  0  0  0  0  0
   -5.0349   -7.4405   -0.0931 H   0  0  0  0  0  0  0  0  0  0  0  0
   -6.1236   -8.4437    0.9381 H   0  0  0  0  0  0  0  0  0  0  0  0
   -5.0364   -9.2428   -0.2561 H   0  0  0  0  0  0  0  0  0  0  0  0
   -2.6298  -10.6227    0.5968 H   0  0  0  0  0  0  0  0  0  0  0  0
   -0.4289  -10.6390   -0.5082 H   0  0  0  0  0  0  0  0  0  0  0  0
    0.8084   -8.5224   -0.8702 H   0  0  0  0  0  0  0  0  0  0  0  0
   -0.1638   -6.3804   -0.1333 H   0  0  0  0  0  0  0  0  0  0  0  0
   -5.0381    0.9842   -0.3448 H   0  0  0  0  0  0  0  0  0  0  0  0
   -3.9053    2.3840   -0.2031 H   0  0  0  0  0  0  0  0  0  0  0  0
   -6.2821    3.0252   -0.7312 H   0  0  0  0  0  0  0  0  0  0  0  0
   -6.2017    2.0519   -2.2522 H   0  0  0  0  0  0  0  0  0  0  0  0
   -5.1635    3.5204   -2.0493 H   0  0  0  0  0  0  0  0  0  0  0  0
   -2.3805   -1.2375    1.1613 H   0  0  0  0  0  0  0  0  0  0  0  0
   -2.9374    0.2124    0.3564 H   0  0  0  0  0  0  0  0  0  0  0  0
   -3.9027    0.1759    2.6082 H   0  0  0  0  0  0  0  0  0  0  0  0
   -5.2730   -0.1672    1.4869 H   0  0  0  0  0  0  0  0  0  0  0  0
   -4.5184   -1.5016    2.3922 H   0  0  0  0  0  0  0  0  0  0  0  0
   -2.7431   -4.7334    4.9861 H   0  0  0  0  0  0  0  0  0  0  0  0
   -1.6356   -5.7460    6.9307 H   0  0  0  0  0  0  0  0  0  0  0  0
    0.5868   -8.3119    4.2799 H   0  0  0  0  0  0  0  0  0  0  0  0
   -0.4906   -8.1024    7.6728 H   0  0  0  0  0  0  0  0  0  0  0  0
    4.1871   -7.9050   10.5438 H   0  0  0  0  0  0  0  0  0  0  0  0
    6.1990   -6.5383   10.2974 H   0  0  0  0  0  0  0  0  0  0  0  0
  1  2  2  3
  2  3  1  0
  3  4  2  0
  3  5  1  0
  5  6  2  0
  6  7  1  0
  7  8  2  0
  8  9  1  0
  8 10  1  0
 10 11  2  0
 11 12  1  0
 12 13  2  3
 13 14  1  0
 14 15  3  0
 13 16  1  0
 16 17  3  0
  1 18  1  0
 18 19  2  0
 19 20  1  0
 20 21  2  0
 21 22  1  0
 22 23  2  0
 21 24  1  0
 24 25  2  0
 25 26  1  0
 26 27  2  0
 27 28  1  0
 28 29  2  0
 29 30  1  0
 30 31  2  0
 31 32  1  0
 32 33  1  0
 25 34  1  0
 34 35  1  0
 35 36  1  0
 36 37  1  0
 37 38  1  0
 38 39  1  0
 39 40  2  0
 40 41  1  0
 41 42  1  0
 39 43  1  0
 43 44  1  0
 44 45  1  0
 45 46  1  0
 46 47  1  0
 47 48  1  0
 48 49  2  0
 49 50  1  0
 50 51  1  0
 49 52  1  0
 52 53  2  0
 53 54  1  0
 54 55  2  0
 47 56  2  0
 56 57  1  0
 57 58  1  0
 58 59  1  0
 59 60  1  0
 60 61  1  0
 61 62  1  0
 62 63  1  0
 63 64  1  0
 64 65  1  0
 65 66  1  0
 63 67  1  0
 67 68  1  0
 60 69  1  0
 69 70  1  0
 56 71  1  0
 71 72  2  0
 72 73  1  0
 73 74  2  0
 74 75  1  0
 75 76  2  0
 74 77  1  0
 77 78  2  3
 78 79  1  0
 79 80  2  0
 79 81  1  0
 81 82  2  0
 82 83  1  0
 83 84  2  0
 84 85  1  0
 85 86  1  0
 85 87  2  0
 87 88  1  0
 82 89  1  0
 89 90  2  3
 90 91  1  0
 91 92  3  0
 90 93  1  0
 93 94  3  0
 12  2  1  0
 23 18  1  0
 66 24  1  0
 76 71  1  0
 89 78  1  0
 11  5  1  0
 31 26  1  0
 65 34  2  0
 87 81  1  0
 64 36  2  0
 62 37  2  0
 42 38  2  0
 61 43  2  0
 59 44  2  0
 58 46  2  0
 55 48  1  0
  1 95  1  0
  6 96  1  0
  7 97  1  0
 10 98  1  0
 19 99  1  0
 20100  1  0
 22101  1  0
 27102  1  0
 28103  1  0
 29104  1  0
 30105  1  0
 32106  1  0
 32107  1  0
 33108  1  0
 33109  1  0
 33110  1  0
 50111  1  0
 50112  1  0
 51113  1  0
 51114  1  0
 51115  1  0
 52116  1  0
 53117  1  0
 54118  1  0
 55119  1  0
 67120  1  0
 67121  1  0
 68122  1  0
 68123  1  0
 68124  1  0
 69125  1  0
 69126  1  0
 70127  1  0
 70128  1  0
 70129  1  0
 72130  1  0
 73131  1  0
 75132  1  0
 77133  1  0
 83134  1  0
 84135  1  0
M  END

