
     RDKit          3D

166184  0  0  0  0  0  0  0  0999 V2000
   -4.3978    0.7673   -7.0031 C   0  0  0  0  0  0  0  0  0  0  0  0
   -5.2257    1.5050   -6.2347 C   0  0  0  0  0  0  0  0  0  0  0  0
   -6.3391    2.2341   -6.8501 C   0  0  0  0  0  0  0  0  0  0  0  0
   -6.5042    2.4295   -8.0847 O   0  0  0  0  0  0  0  0  0  0  0  0
   -7.2531    2.6473   -5.8150 C   0  0  0  0  0  0  0  0  0  0  0  0
   -8.4800    3.3019   -5.9576 C   0  0  0  0  0  0  0  0  0  0  0  0
   -9.2498    3.5370   -4.8094 C   0  0  0  0  0  0  0  0  0  0  0  0
   -8.8049    3.0786   -3.5555 C   0  0  0  0  0  0  0  0  0  0  0  0
   -9.7973    3.3186   -2.1275 Cl  0  0  0  0  0  0  0  0  0  0  0  0
   -7.5725    2.4082   -3.4425 C   0  0  0  0  0  0  0  0  0  0  0  0
   -6.7748    2.2358   -4.5883 C   0  0  0  0  0  0  0  0  0  0  0  0
   -5.4132    1.6398   -4.7452 C   0  0  0  0  0  0  0  0  0  0  0  0
   -4.4703    1.6197   -3.7608 C   0  0  0  0  0  0  0  0  0  0  0  0
   -4.7436    2.0866   -2.4206 C   0  0  0  0  0  0  0  0  0  0  0  0
   -4.9545    2.4705   -1.3446 N   0  0  0  0  0  0  0  0  0  0  0  0
   -3.0756    1.3347   -3.9548 C   0  0  0  0  0  0  0  0  0  0  0  0
   -1.9402    1.1230   -4.0335 N   0  0  0  0  0  0  0  0  0  0  0  0
   -3.3133   -0.1161   -6.5517 C   0  0  0  0  0  0  0  0  0  0  0  0
   -3.5898   -1.3740   -5.9833 C   0  0  0  0  0  0  0  0  0  0  0  0
   -4.9211   -1.7830   -5.8461 O   0  0  0  0  0  0  0  0  0  0  0  0
   -5.4613   -2.9223   -6.5092 C   0  0  0  0  0  0  0  0  0  0  0  0
   -5.8534   -2.5619   -7.9381 C   0  0  0  0  0  0  0  0  0  0  0  0
   -2.5300   -2.1985   -5.5489 C   0  0  0  0  0  0  0  0  0  0  0  0
   -2.8296   -3.4514   -4.9917 O   0  0  0  0  0  0  0  0  0  0  0  0
   -2.9381   -3.7275   -3.5934 C   0  0  0  0  0  0  0  0  0  0  0  0
   -3.6359   -2.6066   -2.8242 C   0  0  0  0  0  0  0  0  0  0  0  0
   -1.1900   -1.7707   -5.6985 C   0  0  0  0  0  0  0  0  0  0  0  0
   -0.9206   -0.5538   -6.3526 C   0  0  0  0  0  0  0  0  0  0  0  0
   -1.9840    0.2554   -6.8088 C   0  0  0  0  0  0  0  0  0  0  0  0
   -1.7004    1.4530   -7.3994 N   0  0  0  0  0  0  0  0  0  0  0  0
   -0.4229    1.8822   -7.5596 C   0  0  0  0  0  0  0  0  0  0  0  0
    0.6254    1.0994   -7.0809 C   0  0  0  0  0  0  0  0  0  0  0  0
    0.3526   -0.0882   -6.4777 N   0  0  0  0  0  0  0  0  0  0  0  0
   -0.0920   -2.4420   -4.9868 C   0  0  0  0  0  0  0  0  0  0  0  0
    1.0752   -2.9898   -5.5600 C   0  0  0  0  0  0  0  0  0  0  0  0
    1.1248   -3.6594   -6.8669 C   0  0  0  0  0  0  0  0  0  0  0  0
    1.1520   -2.9453   -8.0742 C   0  0  0  0  0  0  0  0  0  0  0  0
    1.1787   -3.6357   -9.2889 C   0  0  0  0  0  0  0  0  0  0  0  0
    1.1796   -5.0343   -9.3139 C   0  0  0  0  0  0  0  0  0  0  0  0
    1.1729   -5.7546   -8.1098 C   0  0  0  0  0  0  0  0  0  0  0  0
    1.1289   -7.2599   -8.1158 C   0  0  0  0  0  0  0  0  0  0  0  0
   -0.3123   -7.7569   -8.1100 C   0  0  0  0  0  0  0  0  0  0  0  0
    1.1332   -5.0609   -6.8943 C   0  0  0  0  0  0  0  0  0  0  0  0
    2.0567   -3.1785   -4.5800 C   0  0  0  0  0  0  0  0  0  0  0  0
    3.7119   -3.6189   -4.6320 S   0  0  0  0  0  0  0  0  0  0  0  0
    3.8339   -3.4420   -2.9451 C   0  0  0  0  0  0  0  0  0  0  0  0
    4.7920   -3.3421   -1.9699 C   0  0  0  0  0  0  0  0  0  0  0  0
    6.1879   -3.1857   -2.0295 C   0  0  0  0  0  0  0  0  0  0  0  0
    6.8905   -2.7892   -0.8384 C   0  0  0  0  0  0  0  0  0  0  0  0
    8.2291   -2.5941   -0.9467 N   0  0  0  0  0  0  0  0  0  0  0  0
    8.4155   -2.9078   -2.5616 S   0  0  0  0  0  0  0  0  0  0  0  0
    6.9179   -3.2917   -3.1639 N   0  0  0  0  0  0  0  0  0  0  0  0
    6.1681   -2.6696    0.3582 C   0  0  0  0  0  0  0  0  0  0  0  0
    6.5316   -2.3894    1.6584 C   0  0  0  0  0  0  0  0  0  0  0  0
    7.6596   -1.3551    2.4042 S   0  0  0  0  0  0  0  0  0  0  0  0
    6.6289   -1.1295    3.7614 C   0  0  0  0  0  0  0  0  0  0  0  0
    6.5868   -0.1833    4.8099 C   0  0  0  0  0  0  0  0  0  0  0  0
    7.7175    0.6881    5.1847 C   0  0  0  0  0  0  0  0  0  0  0  0
    8.1183    0.7716    6.5303 C   0  0  0  0  0  0  0  0  0  0  0  0
    9.1798    1.6021    6.8981 C   0  0  0  0  0  0  0  0  0  0  0  0
    9.8648    2.3335    5.9297 C   0  0  0  0  0  0  0  0  0  0  0  0
    9.4903    2.2467    4.5838 C   0  0  0  0  0  0  0  0  0  0  0  0
   10.2137    3.0687    3.5482 C   0  0  0  0  0  0  0  0  0  0  0  0
    9.7196    4.5125    3.5633 C   0  0  0  0  0  0  0  0  0  0  0  0
    8.4057    1.4334    4.2162 C   0  0  0  0  0  0  0  0  0  0  0  0
    5.3107   -0.1822    5.4313 C   0  0  0  0  0  0  0  0  0  0  0  0
    4.3091   -1.3262    4.6738 S   0  0  0  0  0  0  0  0  0  0  0  0
    5.4687   -1.8372    3.6006 C   0  0  0  0  0  0  0  0  0  0  0  0
    5.4068   -2.5350    2.4131 C   0  0  0  0  0  0  0  0  0  0  0  0
    4.3173   -2.8833    1.6886 N   0  0  0  0  0  0  0  0  0  0  0  0
    4.7863   -2.8794    0.4042 C   0  0  0  0  0  0  0  0  0  0  0  0
    4.0817   -3.0419   -0.7978 C   0  0  0  0  0  0  0  0  0  0  0  0
    2.7701   -2.7587   -1.0638 N   0  0  0  0  0  0  0  0  0  0  0  0
    2.6614   -3.0559   -2.3745 C   0  0  0  0  0  0  0  0  0  0  0  0
    1.6679   -2.8509   -3.3114 C   0  0  0  0  0  0  0  0  0  0  0  0
    0.1300   -2.2101   -3.3085 S   0  0  0  0  0  0  0  0  0  0  0  0
    1.9235   -1.7845   -0.3592 C   0  0  0  0  0  0  0  0  0  0  0  0
    2.0981   -0.3752   -0.9339 C   0  0  0  0  0  0  0  0  0  0  0  0
    3.2134   -3.6928    2.2451 C   0  0  0  0  0  0  0  0  0  0  0  0
    3.2011   -5.1074    1.6594 C   0  0  0  0  0  0  0  0  0  0  0  0
    4.7406    0.7996    6.3831 C   0  0  0  0  0  0  0  0  0  0  0  0
    3.2223    0.5813    7.1020 S   0  0  0  0  0  0  0  0  0  0  0  0
    3.0647    2.1670    7.6215 C   0  0  0  0  0  0  0  0  0  0  0  0
    1.9646    2.8115    8.1469 C   0  0  0  0  0  0  0  0  0  0  0  0
    2.0069    4.1870    8.3170 C   0  0  0  0  0  0  0  0  0  0  0  0
    3.1051    4.8896    8.0057 O   0  0  0  0  0  0  0  0  0  0  0  0
    4.1908    4.2942    7.4813 C   0  0  0  0  0  0  0  0  0  0  0  0
    5.1938    4.9914    7.1694 O   0  0  0  0  0  0  0  0  0  0  0  0
    4.1818    2.8991    7.2521 C   0  0  0  0  0  0  0  0  0  0  0  0
    5.1262    2.1418    6.5425 C   0  0  0  0  0  0  0  0  0  0  0  0
    0.7954    4.7330    8.7439 C   0  0  0  0  0  0  0  0  0  0  0  0
   -0.2159    3.7667    8.8290 C   0  0  0  0  0  0  0  0  0  0  0  0
    0.4170    2.2353    8.4566 S   0  0  0  0  0  0  0  0  0  0  0  0
   -1.6343    4.0624    9.1173 C   0  0  0  0  0  0  0  0  0  0  0  0
   -2.6550    3.5711    8.3899 C   0  0  0  0  0  0  0  0  0  0  0  0
   -2.5461    2.5980    7.0258 S   0  0  0  0  0  0  0  0  0  0  0  0
   -4.2075    2.5294    6.7235 C   0  0  0  0  0  0  0  0  0  0  0  0
   -4.7371    1.8553    5.6750 C   0  0  0  0  0  0  0  0  0  0  0  0
   -3.8849    1.1124    4.7903 C   0  0  0  0  0  0  0  0  0  0  0  0
   -3.2145    0.4920    4.0710 N   0  0  0  0  0  0  0  0  0  0  0  0
   -6.1092    1.9784    5.2571 C   0  0  0  0  0  0  0  0  0  0  0  0
   -7.2089    2.0946    4.8995 N   0  0  0  0  0  0  0  0  0  0  0  0
   -4.8833    3.2497    7.6887 N   0  0  0  0  0  0  0  0  0  0  0  0
   -6.3446    3.2808    7.9213 C   0  0  0  0  0  0  0  0  0  0  0  0
   -7.0497    4.3777    7.1563 C   0  0  0  0  0  0  0  0  0  0  0  0
   -8.4150    4.2269    6.8820 C   0  0  0  0  0  0  0  0  0  0  0  0
   -9.1366    5.2603    6.2730 C   0  0  0  0  0  0  0  0  0  0  0  0
   -8.4970    6.4527    5.9302 C   0  0  0  0  0  0  0  0  0  0  0  0
   -7.1396    6.6200    6.2075 C   0  0  0  0  0  0  0  0  0  0  0  0
   -6.4184    5.5987    6.8380 C   0  0  0  0  0  0  0  0  0  0  0  0
   -4.0136    3.8262    8.5909 C   0  0  0  0  0  0  0  0  0  0  0  0
   -4.4209    4.5355    9.5583 O   0  0  0  0  0  0  0  0  0  0  0  0
   -4.5054    0.8220   -8.0771 H   0  0  0  0  0  0  0  0  0  0  0  0
   -8.8369    3.6099   -6.9343 H   0  0  0  0  0  0  0  0  0  0  0  0
  -10.1960    4.0544   -4.8937 H   0  0  0  0  0  0  0  0  0  0  0  0
   -7.2791    2.0219   -2.4784 H   0  0  0  0  0  0  0  0  0  0  0  0
   -6.3687   -3.2564   -5.9581 H   0  0  0  0  0  0  0  0  0  0  0  0
   -4.7402   -3.7671   -6.5221 H   0  0  0  0  0  0  0  0  0  0  0  0
   -4.9645   -2.2172   -8.5073 H   0  0  0  0  0  0  0  0  0  0  0  0
   -6.6218   -1.7606   -7.9246 H   0  0  0  0  0  0  0  0  0  0  0  0
   -6.2746   -3.4558   -8.4414 H   0  0  0  0  0  0  0  0  0  0  0  0
   -3.5236   -4.6682   -3.4721 H   0  0  0  0  0  0  0  0  0  0  0  0
   -1.9412   -3.9271   -3.1663 H   0  0  0  0  0  0  0  0  0  0  0  0
   -3.0403   -1.6699   -2.8742 H   0  0  0  0  0  0  0  0  0  0  0  0
   -3.7400   -2.8994   -1.7581 H   0  0  0  0  0  0  0  0  0  0  0  0
   -4.6437   -2.4208   -3.2426 H   0  0  0  0  0  0  0  0  0  0  0  0
   -0.2248    2.8309   -8.0411 H   0  0  0  0  0  0  0  0  0  0  0  0
    1.6482    1.4359   -7.1685 H   0  0  0  0  0  0  0  0  0  0  0  0
    1.1678   -1.8653   -8.0804 H   0  0  0  0  0  0  0  0  0  0  0  0
    1.1952   -3.0814  -10.2212 H   0  0  0  0  0  0  0  0  0  0  0  0
    1.1936   -5.5514  -10.2638 H   0  0  0  0  0  0  0  0  0  0  0  0
    1.6550   -7.6568   -7.2241 H   0  0  0  0  0  0  0  0  0  0  0  0
    1.6541   -7.6565   -9.0140 H   0  0  0  0  0  0  0  0  0  0  0  0
   -0.8598   -7.3470   -7.2351 H   0  0  0  0  0  0  0  0  0  0  0  0
   -0.3206   -8.8687   -8.0435 H   0  0  0  0  0  0  0  0  0  0  0  0
   -0.8277   -7.4561   -9.0421 H   0  0  0  0  0  0  0  0  0  0  0  0
    1.0966   -5.6169   -5.9617 H   0  0  0  0  0  0  0  0  0  0  0  0
    7.6035    0.1985    7.2952 H   0  0  0  0  0  0  0  0  0  0  0  0
    9.4687    1.6818    7.9364 H   0  0  0  0  0  0  0  0  0  0  0  0
   10.6774    2.9773    6.2291 H   0  0  0  0  0  0  0  0  0  0  0  0
   10.0646    2.6438    2.5319 H   0  0  0  0  0  0  0  0  0  0  0  0
   11.3061    3.0560    3.7549 H   0  0  0  0  0  0  0  0  0  0  0  0
   10.2555    5.0985    2.7754 H   0  0  0  0  0  0  0  0  0  0  0  0
    8.6313    4.5566    3.3571 H   0  0  0  0  0  0  0  0  0  0  0  0
    9.9342    4.9853    4.5418 H   0  0  0  0  0  0  0  0  0  0  0  0
    8.0913    1.3931    3.1829 H   0  0  0  0  0  0  0  0  0  0  0  0
    2.2015   -1.7035    0.6981 H   0  0  0  0  0  0  0  0  0  0  0  0
    0.8585   -2.1004   -0.4066 H   0  0  0  0  0  0  0  0  0  0  0  0
    3.1777   -0.1627   -1.0962 H   0  0  0  0  0  0  0  0  0  0  0  0
    1.5416   -0.2605   -1.8826 H   0  0  0  0  0  0  0  0  0  0  0  0
    1.7025    0.3732   -0.2176 H   0  0  0  0  0  0  0  0  0  0  0  0
    2.2255   -3.2214    2.0965 H   0  0  0  0  0  0  0  0  0  0  0  0
    3.3431   -3.7906    3.3467 H   0  0  0  0  0  0  0  0  0  0  0  0
    2.4446   -5.7215    2.1859 H   0  0  0  0  0  0  0  0  0  0  0  0
    2.9500   -5.0839    0.5819 H   0  0  0  0  0  0  0  0  0  0  0  0
    4.2038   -5.5827    1.7789 H   0  0  0  0  0  0  0  0  0  0  0  0
    5.9977    2.5818    6.0793 H   0  0  0  0  0  0  0  0  0  0  0  0
    0.6340    5.7949    8.8887 H   0  0  0  0  0  0  0  0  0  0  0  0
   -1.8468    4.7690    9.9129 H   0  0  0  0  0  0  0  0  0  0  0  0
   -6.5617    3.4335    8.9998 H   0  0  0  0  0  0  0  0  0  0  0  0
   -6.7798    2.2852    7.6972 H   0  0  0  0  0  0  0  0  0  0  0  0
   -8.9279    3.3075    7.1427 H   0  0  0  0  0  0  0  0  0  0  0  0
  -10.1859    5.1372    6.0629 H   0  0  0  0  0  0  0  0  0  0  0  0
   -9.0502    7.2524    5.4623 H   0  0  0  0  0  0  0  0  0  0  0  0
   -6.6442    7.5557    5.9569 H   0  0  0  0  0  0  0  0  0  0  0  0
   -5.3805    5.7729    7.0870 H   0  0  0  0  0  0  0  0  0  0  0  0
  1  2  2  3
  2  3  1  0
  3  4  2  0
  3  5  1  0
  5  6  2  0
  6  7  1  0
  7  8  2  0
  8  9  1  0
  8 10  1  0
 10 11  2  0
 11 12  1  0
 12 13  2  3
 13 14  1  0
 14 15  3  0
 13 16  1  0
 16 17  3  0
  1 18  1  0
 18 19  2  0
 19 20  1  0
 20 21  1  0
 21 22  1  0
 19 23  1  0
 23 24  1  0
 24 25  1  0
 25 26  1  0
 23 27  2  0
 27 28  1  0
 28 29  2  0
 29 30  1  0
 30 31  2  0
 31 32  1  0
 32 33  2  0
 27 34  1  0
 34 35  2  0
 35 36  1  0
 36 37  2  0
 37 38  1  0
 38 39  2  0
 39 40  1  0
 40 41  1  0
 41 42  1  0
 40 43  2  0
 35 44  1  0
 44 45  1  0
 45 46  1  0
 46 47  1  0
 47 48  1  0
 48 49  1  0
 49 50  2  0
 50 51  1  0
 51 52  1  0
 49 53  1  0
 53 54  1  0
 54 55  1  0
 55 56  1  0
 56 57  1  0
 57 58  1  0
 58 59  2  0
 59 60  1  0
 60 61  2  0
 61 62  1  0
 62 63  1  0
 63 64  1  0
 62 65  2  0
 57 66  2  0
 66 67  1  0
 67 68  1  0
 68 69  1  0
 69 70  1  0
 70 71  1  0
 71 72  1  0
 72 73  1  0
 73 74  1  0
 74 75  1  0
 75 76  1  0
 73 77  1  0
 77 78  1  0
 70 79  1  0
 79 80  1  0
 66 81  1  0
 81 82  1  0
 82 83  1  0
 83 84  1  0
 84 85  2  0
 85 86  1  0
 86 87  1  0
 87 88  2  0
 87 89  1  0
 89 90  1  0
 85 91  1  0
 91 92  2  0
 92 93  1  0
 92 94  1  0
 94 95  2  3
 95 96  1  0
 96 97  1  0
 97 98  2  3
 98 99  1  0
 99100  3  0
 98101  1  0
101102  3  0
 97103  1  0
103104  1  0
104105  1  0
105106  2  0
106107  1  0
107108  2  0
108109  1  0
109110  2  0
103111  1  0
111112  2  0
 12  2  1  0
 29 18  1  0
 76 34  1  0
 90 81  2  0
111 95  1  0
 11  5  1  0
 33 28  1  0
 43 36  1  0
 75 44  2  0
 89 83  2  0
110105  1  0
 74 46  2  0
 93 84  1  0
 72 47  2  0
 52 48  2  0
 71 53  2  0
 69 54  2  0
 68 56  2  0
 65 58  1  0
  1113  1  0
  6114  1  0
  7115  1  0
 10116  1  0
 21117  1  0
 21118  1  0
 22119  1  0
 22120  1  0
 22121  1  0
 25122  1  0
 25123  1  0
 26124  1  0
 26125  1  0
 26126  1  0
 31127  1  0
 32128  1  0
 37129  1  0
 38130  1  0
 39131  1  0
 41132  1  0
 41133  1  0
 42134  1  0
 42135  1  0
 42136  1  0
 43137  1  0
 59138  1  0
 60139  1  0
 61140  1  0
 63141  1  0
 63142  1  0
 64143  1  0
 64144  1  0
 64145  1  0
 65146  1  0
 77147  1  0
 77148  1  0
 78149  1  0
 78150  1  0
 78151  1  0
 79152  1  0
 79153  1  0
 80154  1  0
 80155  1  0
 80156  1  0
 90157  1  0
 91158  1  0
 94159  1  0
104160  1  0
104161  1  0
106162  1  0
107163  1  0
108164  1  0
109165  1  0
110166  1  0
M  END

