
     RDKit          3D

143159  0  0  0  0  0  0  0  0999 V2000
    0.5595    3.9701   -8.5366 C   0  0  0  0  0  0  0  0  0  0  0  0
    0.5231    5.2474   -8.1098 C   0  0  0  0  0  0  0  0  0  0  0  0
   -0.3342    6.2607   -8.7249 C   0  0  0  0  0  0  0  0  0  0  0  0
   -0.8542    6.1972   -9.8702 O   0  0  0  0  0  0  0  0  0  0  0  0
   -0.5784    7.2997   -7.7440 C   0  0  0  0  0  0  0  0  0  0  0  0
   -1.4567    8.3806   -7.8258 C   0  0  0  0  0  0  0  0  0  0  0  0
   -1.6215    9.1916   -6.6951 C   0  0  0  0  0  0  0  0  0  0  0  0
   -0.9334    8.8958   -5.5025 C   0  0  0  0  0  0  0  0  0  0  0  0
   -1.1918    9.8860   -4.0781 Cl  0  0  0  0  0  0  0  0  0  0  0  0
   -0.0561    7.8002   -5.4410 C   0  0  0  0  0  0  0  0  0  0  0  0
    0.1344    7.0190   -6.5907 C   0  0  0  0  0  0  0  0  0  0  0  0
    0.9824    5.8187   -6.8093 C   0  0  0  0  0  0  0  0  0  0  0  0
    2.1588    5.5542   -6.1888 C   0  0  0  0  0  0  0  0  0  0  0  0
    3.1436    4.6784   -6.7686 C   0  0  0  0  0  0  0  0  0  0  0  0
    3.9467    3.9840   -7.2313 N   0  0  0  0  0  0  0  0  0  0  0  0
    2.5864    6.2619   -5.0093 C   0  0  0  0  0  0  0  0  0  0  0  0
    2.9414    6.8245   -4.0619 N   0  0  0  0  0  0  0  0  0  0  0  0
    0.9707    2.8195   -7.7065 C   0  0  0  0  0  0  0  0  0  0  0  0
    0.4892    2.6509   -6.3948 C   0  0  0  0  0  0  0  0  0  0  0  0
   -0.4377    3.4957   -5.8755 F   0  0  0  0  0  0  0  0  0  0  0  0
    0.9499    1.5922   -5.6114 C   0  0  0  0  0  0  0  0  0  0  0  0
    1.8637    0.6669   -6.1334 C   0  0  0  0  0  0  0  0  0  0  0  0
    2.2920    0.7923   -7.4644 C   0  0  0  0  0  0  0  0  0  0  0  0
    3.2029   -0.0696   -7.9823 F   0  0  0  0  0  0  0  0  0  0  0  0
    1.8334    1.8552   -8.2498 C   0  0  0  0  0  0  0  0  0  0  0  0
    2.3997   -0.3836   -5.2543 C   0  0  0  0  0  0  0  0  0  0  0  0
    2.1294   -1.7629   -5.3494 C   0  0  0  0  0  0  0  0  0  0  0  0
    1.2455   -2.3779   -6.3502 C   0  0  0  0  0  0  0  0  0  0  0  0
    1.7524   -2.7751   -7.5942 C   0  0  0  0  0  0  0  0  0  0  0  0
    0.9138   -3.3826   -8.5325 C   0  0  0  0  0  0  0  0  0  0  0  0
   -0.4307   -3.6083   -8.2286 C   0  0  0  0  0  0  0  0  0  0  0  0
   -0.9503   -3.2191   -6.9832 C   0  0  0  0  0  0  0  0  0  0  0  0
   -2.3866   -3.5112   -6.6402 C   0  0  0  0  0  0  0  0  0  0  0  0
   -2.5303   -4.9190   -6.0713 C   0  0  0  0  0  0  0  0  0  0  0  0
   -0.1034   -2.6108   -6.0425 C   0  0  0  0  0  0  0  0  0  0  0  0
    2.5912   -2.4388   -4.2202 C   0  0  0  0  0  0  0  0  0  0  0  0
    2.3020   -4.0107   -3.6037 S   0  0  0  0  0  0  0  0  0  0  0  0
    2.9990   -3.5764   -2.1180 C   0  0  0  0  0  0  0  0  0  0  0  0
    3.0783   -4.0450   -0.8347 C   0  0  0  0  0  0  0  0  0  0  0  0
    2.7834   -5.2859   -0.2681 C   0  0  0  0  0  0  0  0  0  0  0  0
    2.9091   -5.4366    1.1456 C   0  0  0  0  0  0  0  0  0  0  0  0
    2.5864   -6.6495    1.6606 N   0  0  0  0  0  0  0  0  0  0  0  0
    2.1879   -7.4514    0.2664 S   0  0  0  0  0  0  0  0  0  0  0  0
    2.3728   -6.3679   -0.9735 N   0  0  0  0  0  0  0  0  0  0  0  0
    3.2603   -4.3195    1.9220 C   0  0  0  0  0  0  0  0  0  0  0  0
    3.0538   -4.1031    3.2576 C   0  0  0  0  0  0  0  0  0  0  0  0
    2.1544   -4.9396    4.4298 S   0  0  0  0  0  0  0  0  0  0  0  0
    1.7320   -3.4981    5.2235 C   0  0  0  0  0  0  0  0  0  0  0  0
    0.7939   -3.2001    6.2218 C   0  0  0  0  0  0  0  0  0  0  0  0
    0.0816   -4.2148    7.0287 C   0  0  0  0  0  0  0  0  0  0  0  0
    0.0076   -4.0777    8.4243 C   0  0  0  0  0  0  0  0  0  0  0  0
   -0.6515   -5.0405    9.1931 C   0  0  0  0  0  0  0  0  0  0  0  0
   -1.2501   -6.1413    8.5772 C   0  0  0  0  0  0  0  0  0  0  0  0
   -1.2075   -6.2796    7.1805 C   0  0  0  0  0  0  0  0  0  0  0  0
   -1.8272   -7.4786    6.5152 C   0  0  0  0  0  0  0  0  0  0  0  0
   -0.7991   -8.5930    6.3498 C   0  0  0  0  0  0  0  0  0  0  0  0
   -0.5324   -5.3181    6.4127 C   0  0  0  0  0  0  0  0  0  0  0  0
    0.5992   -1.8059    6.3244 C   0  0  0  0  0  0  0  0  0  0  0  0
    1.5706   -1.0127    5.1740 S   0  0  0  0  0  0  0  0  0  0  0  0
    2.2568   -2.4132    4.5677 C   0  0  0  0  0  0  0  0  0  0  0  0
    3.0077   -2.7493    3.4386 C   0  0  0  0  0  0  0  0  0  0  0  0
    3.2332   -2.0610    2.2844 N   0  0  0  0  0  0  0  0  0  0  0  0
    3.4540   -3.0483    1.3524 C   0  0  0  0  0  0  0  0  0  0  0  0
    3.4852   -2.9458   -0.0627 C   0  0  0  0  0  0  0  0  0  0  0  0
    3.7673   -1.8690   -0.8570 N   0  0  0  0  0  0  0  0  0  0  0  0
    3.4126   -2.2890   -2.0919 C   0  0  0  0  0  0  0  0  0  0  0  0
    3.1963   -1.6359   -3.2876 C   0  0  0  0  0  0  0  0  0  0  0  0
    3.1655   -0.0370   -3.7691 S   0  0  0  0  0  0  0  0  0  0  0  0
    4.6863   -0.7597   -0.5724 C   0  0  0  0  0  0  0  0  0  0  0  0
    5.9882   -0.9003   -1.3589 C   0  0  0  0  0  0  0  0  0  0  0  0
    2.7208   -0.7017    2.0394 C   0  0  0  0  0  0  0  0  0  0  0  0
    3.5798    0.3576    2.7370 C   0  0  0  0  0  0  0  0  0  0  0  0
   -0.4780   -1.0972    7.0440 C   0  0  0  0  0  0  0  0  0  0  0  0
   -1.8235   -1.4889    6.9014 C   0  0  0  0  0  0  0  0  0  0  0  0
   -2.1553   -2.5997    6.1973 F   0  0  0  0  0  0  0  0  0  0  0  0
   -2.8486   -0.6678    7.3798 C   0  0  0  0  0  0  0  0  0  0  0  0
   -2.5479    0.5642    7.9725 C   0  0  0  0  0  0  0  0  0  0  0  0
   -1.2076    0.9312    8.1702 C   0  0  0  0  0  0  0  0  0  0  0  0
   -0.8992    2.1189    8.7503 F   0  0  0  0  0  0  0  0  0  0  0  0
   -0.1812    0.1056    7.7044 C   0  0  0  0  0  0  0  0  0  0  0  0
   -3.6385    1.5086    8.2677 C   0  0  0  0  0  0  0  0  0  0  0  0
   -3.8904    2.5827    7.4929 C   0  0  0  0  0  0  0  0  0  0  0  0
   -3.2521    2.8689    6.2003 C   0  0  0  0  0  0  0  0  0  0  0  0
   -2.2156    2.3239    5.7335 O   0  0  0  0  0  0  0  0  0  0  0  0
   -4.0623    3.8394    5.4996 C   0  0  0  0  0  0  0  0  0  0  0  0
   -3.8902    4.3173    4.2019 C   0  0  0  0  0  0  0  0  0  0  0  0
   -4.8595    5.1822    3.6700 C   0  0  0  0  0  0  0  0  0  0  0  0
   -4.7211    5.6918    2.3698 C   0  0  0  0  0  0  0  0  0  0  0  0
   -5.7019    6.5335    1.8385 C   0  0  0  0  0  0  0  0  0  0  0  0
   -6.8289    6.8675    2.5933 C   0  0  0  0  0  0  0  0  0  0  0  0
   -7.7795    7.6777    2.0673 F   0  0  0  0  0  0  0  0  0  0  0  0
   -6.9817    6.3681    3.8915 C   0  0  0  0  0  0  0  0  0  0  0  0
   -6.0022    5.5288    4.4456 C   0  0  0  0  0  0  0  0  0  0  0  0
   -6.1477    5.0240    5.7540 C   0  0  0  0  0  0  0  0  0  0  0  0
   -5.1432    4.1990    6.2846 C   0  0  0  0  0  0  0  0  0  0  0  0
   -5.0379    3.5319    7.6145 C   0  0  0  0  0  0  0  0  0  0  0  0
   -5.6603    3.9037    8.7606 C   0  0  0  0  0  0  0  0  0  0  0  0
   -5.2709    3.3804   10.0451 C   0  0  0  0  0  0  0  0  0  0  0  0
   -4.9577    2.9704   11.0799 N   0  0  0  0  0  0  0  0  0  0  0  0
   -6.6391    4.9593    8.8024 C   0  0  0  0  0  0  0  0  0  0  0  0
   -7.4233    5.8087    8.8526 N   0  0  0  0  0  0  0  0  0  0  0  0
    0.1765    3.7413   -9.5238 H   0  0  0  0  0  0  0  0  0  0  0  0
   -2.0118    8.5813   -8.7334 H   0  0  0  0  0  0  0  0  0  0  0  0
   -2.3007   10.0342   -6.7350 H   0  0  0  0  0  0  0  0  0  0  0  0
    0.4205    7.5581   -4.5043 H   0  0  0  0  0  0  0  0  0  0  0  0
    0.5909    1.4899   -4.5934 H   0  0  0  0  0  0  0  0  0  0  0  0
    2.1948    1.9593   -9.2654 H   0  0  0  0  0  0  0  0  0  0  0  0
    2.7989   -2.6258   -7.8333 H   0  0  0  0  0  0  0  0  0  0  0  0
    1.3091   -3.6887   -9.4920 H   0  0  0  0  0  0  0  0  0  0  0  0
   -1.0660   -4.0953   -8.9583 H   0  0  0  0  0  0  0  0  0  0  0  0
   -2.7622   -2.7755   -5.8949 H   0  0  0  0  0  0  0  0  0  0  0  0
   -3.0196   -3.4134   -7.5469 H   0  0  0  0  0  0  0  0  0  0  0  0
   -3.5980   -5.1251   -5.8541 H   0  0  0  0  0  0  0  0  0  0  0  0
   -2.1649   -5.6716   -6.8042 H   0  0  0  0  0  0  0  0  0  0  0  0
   -1.9483   -5.0156   -5.1297 H   0  0  0  0  0  0  0  0  0  0  0  0
   -0.4899   -2.3258   -5.0699 H   0  0  0  0  0  0  0  0  0  0  0  0
    0.4763   -3.2357    8.9182 H   0  0  0  0  0  0  0  0  0  0  0  0
   -0.6913   -4.9364   10.2690 H   0  0  0  0  0  0  0  0  0  0  0  0
   -1.7488   -6.8850    9.1867 H   0  0  0  0  0  0  0  0  0  0  0  0
   -2.6818   -7.8544    7.1189 H   0  0  0  0  0  0  0  0  0  0  0  0
   -2.2257   -7.1965    5.5170 H   0  0  0  0  0  0  0  0  0  0  0  0
   -0.4025   -8.9012    7.3407 H   0  0  0  0  0  0  0  0  0  0  0  0
   -1.2747   -9.4725    5.8672 H   0  0  0  0  0  0  0  0  0  0  0  0
    0.0419   -8.2491    5.7096 H   0  0  0  0  0  0  0  0  0  0  0  0
   -0.5070   -5.4214    5.3351 H   0  0  0  0  0  0  0  0  0  0  0  0
    4.9673   -0.7719    0.4939 H   0  0  0  0  0  0  0  0  0  0  0  0
    4.2007    0.2088   -0.8195 H   0  0  0  0  0  0  0  0  0  0  0  0
    6.4519   -1.8895   -1.1535 H   0  0  0  0  0  0  0  0  0  0  0  0
    5.8047   -0.8019   -2.4501 H   0  0  0  0  0  0  0  0  0  0  0  0
    6.6983   -0.1037   -1.0502 H   0  0  0  0  0  0  0  0  0  0  0  0
    2.6427   -0.4736    0.9640 H   0  0  0  0  0  0  0  0  0  0  0  0
    1.6754   -0.6287    2.4086 H   0  0  0  0  0  0  0  0  0  0  0  0
    3.7665    0.0884    3.7971 H   0  0  0  0  0  0  0  0  0  0  0  0
    4.5597    0.4816    2.2407 H   0  0  0  0  0  0  0  0  0  0  0  0
    3.0513    1.3324    2.7113 H   0  0  0  0  0  0  0  0  0  0  0  0
   -3.8801   -0.9542    7.2129 H   0  0  0  0  0  0  0  0  0  0  0  0
    0.8467    0.4314    7.8092 H   0  0  0  0  0  0  0  0  0  0  0  0
   -4.3209    1.2313    9.0560 H   0  0  0  0  0  0  0  0  0  0  0  0
   -3.0303    4.0100    3.6186 H   0  0  0  0  0  0  0  0  0  0  0  0
   -3.8572    5.4394    1.7661 H   0  0  0  0  0  0  0  0  0  0  0  0
   -5.5891    6.9239    0.8348 H   0  0  0  0  0  0  0  0  0  0  0  0
   -7.8623    6.6387    4.4627 H   0  0  0  0  0  0  0  0  0  0  0  0
   -7.0424    5.2517    6.3114 H   0  0  0  0  0  0  0  0  0  0  0  0
  1  2  2  3
  2  3  1  0
  3  4  2  0
  3  5  1  0
  5  6  2  0
  6  7  1  0
  7  8  2  0
  8  9  1  0
  8 10  1  0
 10 11  2  0
 11 12  1  0
 12 13  2  3
 13 14  1  0
 14 15  3  0
 13 16  1  0
 16 17  3  0
  1 18  1  0
 18 19  2  0
 19 20  1  0
 19 21  1  0
 21 22  2  0
 22 23  1  0
 23 24  1  0
 23 25  2  0
 22 26  1  0
 26 27  2  0
 27 28  1  0
 28 29  2  0
 29 30  1  0
 30 31  2  0
 31 32  1  0
 32 33  1  0
 33 34  1  0
 32 35  2  0
 27 36  1  0
 36 37  1  0
 37 38  1  0
 38 39  1  0
 39 40  1  0
 40 41  1  0
 41 42  2  0
 42 43  1  0
 43 44  1  0
 41 45  1  0
 45 46  1  0
 46 47  1  0
 47 48  1  0
 48 49  1  0
 49 50  1  0
 50 51  2  0
 51 52  1  0
 52 53  2  0
 53 54  1  0
 54 55  1  0
 55 56  1  0
 54 57  2  0
 49 58  2  0
 58 59  1  0
 59 60  1  0
 60 61  1  0
 61 62  1  0
 62 63  1  0
 63 64  1  0
 64 65  1  0
 65 66  1  0
 66 67  1  0
 67 68  1  0
 65 69  1  0
 69 70  1  0
 62 71  1  0
 71 72  1  0
 58 73  1  0
 73 74  2  0
 74 75  1  0
 74 76  1  0
 76 77  2  0
 77 78  1  0
 78 79  1  0
 78 80  2  0
 77 81  1  0
 81 82  2  3
 82 83  1  0
 83 84  2  0
 83 85  1  0
 85 86  2  0
 86 87  1  0
 87 88  2  0
 88 89  1  0
 89 90  2  0
 90 91  1  0
 90 92  1  0
 92 93  2  0
 93 94  1  0
 94 95  2  0
 95 96  1  0
 96 97  2  3
 97 98  1  0
 98 99  3  0
 97100  1  0
100101  3  0
 12  2  1  0
 25 18  1  0
 68 26  1  0
 80 73  1  0
 96 82  1  0
 11  5  1  0
 35 28  1  0
 67 36  2  0
 95 85  1  0
 66 38  2  0
 93 87  1  0
 64 39  2  0
 44 40  2  0
 63 45  2  0
 61 46  2  0
 60 48  2  0
 57 50  1  0
  1102  1  0
  6103  1  0
  7104  1  0
 10105  1  0
 21106  1  0
 25107  1  0
 29108  1  0
 30109  1  0
 31110  1  0
 33111  1  0
 33112  1  0
 34113  1  0
 34114  1  0
 34115  1  0
 35116  1  0
 51117  1  0
 52118  1  0
 53119  1  0
 55120  1  0
 55121  1  0
 56122  1  0
 56123  1  0
 56124  1  0
 57125  1  0
 69126  1  0
 69127  1  0
 70128  1  0
 70129  1  0
 70130  1  0
 71131  1  0
 71132  1  0
 72133  1  0
 72134  1  0
 72135  1  0
 76136  1  0
 80137  1  0
 81138  1  0
 86139  1  0
 88140  1  0
 89141  1  0
 92142  1  0
 94143  1  0
M  END

