
     RDKit          3D

198219  0  0  0  0  0  0  0  0999 V2000
    3.3053    0.3988   -8.0213 C   0  0  0  0  0  0  0  0  0  0  0  0
    2.0680    0.7764   -7.6356 C   0  0  0  0  0  0  0  0  0  0  0  0
    1.6058    0.8608   -6.2455 C   0  0  0  0  0  0  0  0  0  0  0  0
    2.2141    0.4476   -5.2233 O   0  0  0  0  0  0  0  0  0  0  0  0
    0.3330    1.5420   -6.2214 C   0  0  0  0  0  0  0  0  0  0  0  0
   -0.4683    1.8204   -5.1176 C   0  0  0  0  0  0  0  0  0  0  0  0
   -1.6839    2.4853   -5.3283 C   0  0  0  0  0  0  0  0  0  0  0  0
   -2.0615    2.8798   -6.6250 C   0  0  0  0  0  0  0  0  0  0  0  0
   -3.5784    3.7436   -6.8596 Cl  0  0  0  0  0  0  0  0  0  0  0  0
   -1.2389    2.5917   -7.7235 C   0  0  0  0  0  0  0  0  0  0  0  0
   -0.0399    1.8747   -7.5169 C   0  0  0  0  0  0  0  0  0  0  0  0
    0.9668    1.3352   -8.4866 C   0  0  0  0  0  0  0  0  0  0  0  0
    0.8160    1.2017   -9.8291 C   0  0  0  0  0  0  0  0  0  0  0  0
    1.7280    0.4365  -10.6388 C   0  0  0  0  0  0  0  0  0  0  0  0
    2.4469   -0.1894  -11.2927 N   0  0  0  0  0  0  0  0  0  0  0  0
   -0.3342    1.6986  -10.5341 C   0  0  0  0  0  0  0  0  0  0  0  0
   -1.2555    2.0800  -11.1268 N   0  0  0  0  0  0  0  0  0  0  0  0
    4.3179   -0.0782   -7.0631 C   0  0  0  0  0  0  0  0  0  0  0  0
    4.3144   -1.3974   -6.5565 C   0  0  0  0  0  0  0  0  0  0  0  0
    3.4909   -2.4302   -7.0500 O   0  0  0  0  0  0  0  0  0  0  0  0
    2.8433   -2.4879   -8.3216 C   0  0  0  0  0  0  0  0  0  0  0  0
    2.5393   -3.9334   -8.6665 C   0  0  0  0  0  0  0  0  0  0  0  0
    5.1746   -1.7319   -5.4994 C   0  0  0  0  0  0  0  0  0  0  0  0
    5.3241   -3.0785   -5.1644 O   0  0  0  0  0  0  0  0  0  0  0  0
    6.0032   -3.9801   -6.0333 C   0  0  0  0  0  0  0  0  0  0  0  0
    6.3763   -5.2352   -5.2809 C   0  0  0  0  0  0  0  0  0  0  0  0
    5.9427   -0.7457   -4.8215 C   0  0  0  0  0  0  0  0  0  0  0  0
    6.1245    0.4809   -5.5138 C   0  0  0  0  0  0  0  0  0  0  0  0
    5.3028    0.8097   -6.6191 C   0  0  0  0  0  0  0  0  0  0  0  0
    5.4627    2.0157   -7.2365 N   0  0  0  0  0  0  0  0  0  0  0  0
    6.4358    2.8822   -6.8603 C   0  0  0  0  0  0  0  0  0  0  0  0
    7.3028    2.5268   -5.8305 C   0  0  0  0  0  0  0  0  0  0  0  0
    7.1087    1.3532   -5.1780 N   0  0  0  0  0  0  0  0  0  0  0  0
    6.4324   -1.0579   -3.4083 C   0  0  0  0  0  0  0  0  0  0  0  0
    7.3555   -0.4074   -2.5185 C   0  0  0  0  0  0  0  0  0  0  0  0
    7.8865    0.9555   -2.6255 C   0  0  0  0  0  0  0  0  0  0  0  0
    9.2459    1.1675   -2.8732 C   0  0  0  0  0  0  0  0  0  0  0  0
    9.7528    2.4729   -2.8923 C   0  0  0  0  0  0  0  0  0  0  0  0
    8.9063    3.5595   -2.6477 C   0  0  0  0  0  0  0  0  0  0  0  0
    7.5422    3.3480   -2.3833 C   0  0  0  0  0  0  0  0  0  0  0  0
    6.6246    4.5056   -2.0759 C   0  0  0  0  0  0  0  0  0  0  0  0
    6.4451    4.6786   -0.5768 C   0  0  0  0  0  0  0  0  0  0  0  0
    7.0392    2.0417   -2.3601 C   0  0  0  0  0  0  0  0  0  0  0  0
    7.4245   -1.0435   -1.2714 C   0  0  0  0  0  0  0  0  0  0  0  0
    8.0607   -0.5146    0.2244 S   0  0  0  0  0  0  0  0  0  0  0  0
    7.1939   -1.6986    1.0775 C   0  0  0  0  0  0  0  0  0  0  0  0
    6.6456   -1.7280    2.3296 C   0  0  0  0  0  0  0  0  0  0  0  0
    6.9829   -0.9496    3.4331 C   0  0  0  0  0  0  0  0  0  0  0  0
    6.0914   -0.8897    4.5236 C   0  0  0  0  0  0  0  0  0  0  0  0
    6.4392   -0.0818    5.5549 N   0  0  0  0  0  0  0  0  0  0  0  0
    7.8865    0.4900    4.9936 S   0  0  0  0  0  0  0  0  0  0  0  0
    8.1079   -0.1950    3.5057 N   0  0  0  0  0  0  0  0  0  0  0  0
    4.9009   -1.6088    4.4576 C   0  0  0  0  0  0  0  0  0  0  0  0
    3.7947   -1.5115    5.2526 C   0  0  0  0  0  0  0  0  0  0  0  0
    3.2051   -0.4098    6.3987 S   0  0  0  0  0  0  0  0  0  0  0  0
    1.6090   -0.9358    6.1093 C   0  0  0  0  0  0  0  0  0  0  0  0
    0.3738   -0.3593    6.4260 C   0  0  0  0  0  0  0  0  0  0  0  0
    0.2601    0.7724    7.3638 C   0  0  0  0  0  0  0  0  0  0  0  0
   -0.4283    0.6301    8.5737 C   0  0  0  0  0  0  0  0  0  0  0  0
   -0.6038    1.7363    9.4133 C   0  0  0  0  0  0  0  0  0  0  0  0
   -0.1524    3.0007    9.0133 C   0  0  0  0  0  0  0  0  0  0  0  0
    0.5297    3.1569    7.7935 C   0  0  0  0  0  0  0  0  0  0  0  0
    0.8548    4.5250    7.2767 C   0  0  0  0  0  0  0  0  0  0  0  0
   -0.3480    5.1166    6.5186 C   0  0  0  0  0  0  0  0  0  0  0  0
    0.7693    2.0297    6.9952 C   0  0  0  0  0  0  0  0  0  0  0  0
   -0.6687   -0.8854    5.6125 C   0  0  0  0  0  0  0  0  0  0  0  0
    0.0176   -2.0524    4.5619 S   0  0  0  0  0  0  0  0  0  0  0  0
    1.5714   -1.9107    5.1480 C   0  0  0  0  0  0  0  0  0  0  0  0
    2.8300   -2.2308    4.6557 C   0  0  0  0  0  0  0  0  0  0  0  0
    3.2306   -2.8470    3.5170 N   0  0  0  0  0  0  0  0  0  0  0  0
    4.5424   -2.4278    3.3605 C   0  0  0  0  0  0  0  0  0  0  0  0
    5.4586   -2.4864    2.2410 C   0  0  0  0  0  0  0  0  0  0  0  0
    5.3180   -2.9344    0.9378 N   0  0  0  0  0  0  0  0  0  0  0  0
    6.3802   -2.4210    0.2675 C   0  0  0  0  0  0  0  0  0  0  0  0
    6.5428   -2.0721   -1.0766 C   0  0  0  0  0  0  0  0  0  0  0  0
    5.6589   -2.2790   -2.4746 S   0  0  0  0  0  0  0  0  0  0  0  0
    4.2899   -3.7498    0.2940 C   0  0  0  0  0  0  0  0  0  0  0  0
    3.0536   -2.9084   -0.0592 C   0  0  0  0  0  0  0  0  0  0  0  0
    2.5914   -4.1122    3.1388 C   0  0  0  0  0  0  0  0  0  0  0  0
    3.3144   -5.3071    3.7608 C   0  0  0  0  0  0  0  0  0  0  0  0
   -2.0369   -0.3330    5.3863 C   0  0  0  0  0  0  0  0  0  0  0  0
   -3.0005   -1.1397    4.7354 C   0  0  0  0  0  0  0  0  0  0  0  0
   -4.1654   -0.5505    4.2439 C   0  0  0  0  0  0  0  0  0  0  0  0
   -5.2236   -1.1430    3.3464 C   0  0  0  0  0  0  0  0  0  0  0  0
   -4.7002   -1.9361    2.1739 C   0  0  0  0  0  0  0  0  0  0  0  0
   -3.9061   -1.5035    1.1139 C   0  0  0  0  0  0  0  0  0  0  0  0
   -3.6646   -2.3862    0.0426 C   0  0  0  0  0  0  0  0  0  0  0  0
   -4.2186   -3.6892    0.0482 C   0  0  0  0  0  0  0  0  0  0  0  0
   -4.0709   -4.5752   -1.0289 O   0  0  0  0  0  0  0  0  0  0  0  0
   -3.6827   -4.1788   -2.3415 C   0  0  0  0  0  0  0  0  0  0  0  0
   -3.9109   -5.3374   -3.3051 C   0  0  0  0  0  0  0  0  0  0  0  0
   -4.9756   -4.1196    1.1513 C   0  0  0  0  0  0  0  0  0  0  0  0
   -5.2142   -3.2198    2.1883 C   0  0  0  0  0  0  0  0  0  0  0  0
   -6.0482   -3.3807    3.3641 C   0  0  0  0  0  0  0  0  0  0  0  0
   -6.6892   -4.5191    3.8453 C   0  0  0  0  0  0  0  0  0  0  0  0
   -7.3457   -4.4538    5.0898 C   0  0  0  0  0  0  0  0  0  0  0  0
   -7.9551   -5.6204    5.5647 O   0  0  0  0  0  0  0  0  0  0  0  0
   -8.3764   -5.8422    6.9127 C   0  0  0  0  0  0  0  0  0  0  0  0
   -7.1611   -6.0365    7.8244 C   0  0  0  0  0  0  0  0  0  0  0  0
   -7.3630   -3.2216    5.8024 C   0  0  0  0  0  0  0  0  0  0  0  0
   -6.7237   -2.0815    5.2797 C   0  0  0  0  0  0  0  0  0  0  0  0
   -6.0656   -2.1836    4.0504 C   0  0  0  0  0  0  0  0  0  0  0  0
   -5.9984    0.0915    2.9300 C   0  0  0  0  0  0  0  0  0  0  0  0
   -5.5510    1.1901    3.6423 C   0  0  0  0  0  0  0  0  0  0  0  0
   -4.4175    0.7911    4.4486 C   0  0  0  0  0  0  0  0  0  0  0  0
   -3.5266    1.5987    5.1438 C   0  0  0  0  0  0  0  0  0  0  0  0
   -2.3228    1.0418    5.5878 C   0  0  0  0  0  0  0  0  0  0  0  0
   -5.9075    2.4876    3.2853 C   0  0  0  0  0  0  0  0  0  0  0  0
   -6.6683    2.6813    2.1319 C   0  0  0  0  0  0  0  0  0  0  0  0
   -7.1018    1.5765    1.3577 C   0  0  0  0  0  0  0  0  0  0  0  0
   -6.7868    0.2680    1.7818 C   0  0  0  0  0  0  0  0  0  0  0  0
   -7.5910    1.7859   -0.0260 C   0  0  0  0  0  0  0  0  0  0  0  0
   -8.2550    2.8826   -0.4429 C   0  0  0  0  0  0  0  0  0  0  0  0
   -9.1458    3.6961    0.3819 C   0  0  0  0  0  0  0  0  0  0  0  0
   -9.4458    3.4817    1.5842 O   0  0  0  0  0  0  0  0  0  0  0  0
   -9.8032    4.6646   -0.4729 C   0  0  0  0  0  0  0  0  0  0  0  0
  -10.7247    5.6459   -0.1067 C   0  0  0  0  0  0  0  0  0  0  0  0
  -11.2493    6.4739   -1.1079 C   0  0  0  0  0  0  0  0  0  0  0  0
  -10.8690    6.2908   -2.4514 C   0  0  0  0  0  0  0  0  0  0  0  0
  -11.5473    7.3191   -3.7002 Cl  0  0  0  0  0  0  0  0  0  0  0  0
   -9.9490    5.2889   -2.8010 C   0  0  0  0  0  0  0  0  0  0  0  0
   -9.3993    4.4832   -1.7856 C   0  0  0  0  0  0  0  0  0  0  0  0
   -8.3753    3.3968   -1.8491 C   0  0  0  0  0  0  0  0  0  0  0  0
   -7.5214    3.1410   -2.8814 C   0  0  0  0  0  0  0  0  0  0  0  0
   -6.3750    2.2864   -2.7449 C   0  0  0  0  0  0  0  0  0  0  0  0
   -5.4399    1.6139   -2.6415 N   0  0  0  0  0  0  0  0  0  0  0  0
   -7.6436    3.7647   -4.1685 C   0  0  0  0  0  0  0  0  0  0  0  0
   -7.7281    4.2378   -5.2263 N   0  0  0  0  0  0  0  0  0  0  0  0
    3.6347    0.5491   -9.0319 H   0  0  0  0  0  0  0  0  0  0  0  0
   -0.1660    1.5207   -4.1270 H   0  0  0  0  0  0  0  0  0  0  0  0
   -2.3267    2.6985   -4.4841 H   0  0  0  0  0  0  0  0  0  0  0  0
   -1.5309    2.9532   -8.6928 H   0  0  0  0  0  0  0  0  0  0  0  0
    1.8913   -1.9250   -8.2740 H   0  0  0  0  0  0  0  0  0  0  0  0
    3.4935   -2.0593   -9.1117 H   0  0  0  0  0  0  0  0  0  0  0  0
    2.1199   -3.9876   -9.6878 H   0  0  0  0  0  0  0  0  0  0  0  0
    1.8035   -4.3572   -7.9495 H   0  0  0  0  0  0  0  0  0  0  0  0
    3.4611   -4.5449   -8.6077 H   0  0  0  0  0  0  0  0  0  0  0  0
    5.3582   -4.2386   -6.8933 H   0  0  0  0  0  0  0  0  0  0  0  0
    6.9343   -3.4905   -6.4039 H   0  0  0  0  0  0  0  0  0  0  0  0
    5.4526   -5.7769   -4.9840 H   0  0  0  0  0  0  0  0  0  0  0  0
    6.9938   -5.8900   -5.9331 H   0  0  0  0  0  0  0  0  0  0  0  0
    6.9540   -4.9856   -4.3680 H   0  0  0  0  0  0  0  0  0  0  0  0
    6.5475    3.8362   -7.3673 H   0  0  0  0  0  0  0  0  0  0  0  0
    8.0901    3.2003   -5.5195 H   0  0  0  0  0  0  0  0  0  0  0  0
    9.9150    0.3336   -3.0586 H   0  0  0  0  0  0  0  0  0  0  0  0
   10.8078    2.6409   -3.0786 H   0  0  0  0  0  0  0  0  0  0  0  0
    9.3153    4.5656   -2.6571 H   0  0  0  0  0  0  0  0  0  0  0  0
    5.6365    4.3312   -2.5507 H   0  0  0  0  0  0  0  0  0  0  0  0
    7.0324    5.4507   -2.5105 H   0  0  0  0  0  0  0  0  0  0  0  0
    7.4143    4.9210   -0.0905 H   0  0  0  0  0  0  0  0  0  0  0  0
    5.7299    5.4979   -0.3872 H   0  0  0  0  0  0  0  0  0  0  0  0
    6.0478    3.7436   -0.1220 H   0  0  0  0  0  0  0  0  0  0  0  0
    5.9945    1.8684   -2.1468 H   0  0  0  0  0  0  0  0  0  0  0  0
   -0.8203   -0.3351    8.8760 H   0  0  0  0  0  0  0  0  0  0  0  0
   -1.1405    1.6289   10.3456 H   0  0  0  0  0  0  0  0  0  0  0  0
   -0.3399    3.8573    9.6497 H   0  0  0  0  0  0  0  0  0  0  0  0
    1.1399    5.2051    8.1139 H   0  0  0  0  0  0  0  0  0  0  0  0
    1.7346    4.4706    6.5950 H   0  0  0  0  0  0  0  0  0  0  0  0
   -0.8437    5.8973    7.1359 H   0  0  0  0  0  0  0  0  0  0  0  0
   -1.1027    4.3384    6.2730 H   0  0  0  0  0  0  0  0  0  0  0  0
   -0.0072    5.5799    5.5708 H   0  0  0  0  0  0  0  0  0  0  0  0
    1.2571    2.1465    6.0331 H   0  0  0  0  0  0  0  0  0  0  0  0
    4.6880   -4.1905   -0.6483 H   0  0  0  0  0  0  0  0  0  0  0  0
    4.0895   -4.6424    0.9090 H   0  0  0  0  0  0  0  0  0  0  0  0
    3.2392   -2.3228   -0.9835 H   0  0  0  0  0  0  0  0  0  0  0  0
    2.8204   -2.1986    0.7552 H   0  0  0  0  0  0  0  0  0  0  0  0
    2.1779   -3.5629   -0.2329 H   0  0  0  0  0  0  0  0  0  0  0  0
    2.4880   -4.2257    2.0570 H   0  0  0  0  0  0  0  0  0  0  0  0
    1.5188   -4.1258    3.4654 H   0  0  0  0  0  0  0  0  0  0  0  0
    2.8440   -6.2489    3.4334 H   0  0  0  0  0  0  0  0  0  0  0  0
    3.2483   -5.2395    4.8732 H   0  0  0  0  0  0  0  0  0  0  0  0
    4.3854   -5.3087    3.4623 H   0  0  0  0  0  0  0  0  0  0  0  0
   -2.8121   -2.1860    4.5149 H   0  0  0  0  0  0  0  0  0  0  0  0
   -3.4968   -0.5029    1.0958 H   0  0  0  0  0  0  0  0  0  0  0  0
   -3.0611   -2.0380   -0.7807 H   0  0  0  0  0  0  0  0  0  0  0  0
   -4.2963   -3.3090   -2.6648 H   0  0  0  0  0  0  0  0  0  0  0  0
   -2.6017   -3.8926   -2.3516 H   0  0  0  0  0  0  0  0  0  0  0  0
   -3.1365   -6.1170   -3.1399 H   0  0  0  0  0  0  0  0  0  0  0  0
   -3.8578   -4.9704   -4.3480 H   0  0  0  0  0  0  0  0  0  0  0  0
   -4.9214   -5.7781   -3.1292 H   0  0  0  0  0  0  0  0  0  0  0  0
   -5.4123   -5.1156    1.1625 H   0  0  0  0  0  0  0  0  0  0  0  0
   -6.6629   -5.4408    3.2913 H   0  0  0  0  0  0  0  0  0  0  0  0
   -8.9809   -6.7716    6.9381 H   0  0  0  0  0  0  0  0  0  0  0  0
   -9.0152   -5.0111    7.2823 H   0  0  0  0  0  0  0  0  0  0  0  0
   -7.4968   -6.1975    8.8671 H   0  0  0  0  0  0  0  0  0  0  0  0
   -6.5830   -6.9285    7.4945 H   0  0  0  0  0  0  0  0  0  0  0  0
   -6.5142   -5.1347    7.7996 H   0  0  0  0  0  0  0  0  0  0  0  0
   -7.8473   -3.1369    6.7623 H   0  0  0  0  0  0  0  0  0  0  0  0
   -6.7167   -1.1534    5.8303 H   0  0  0  0  0  0  0  0  0  0  0  0
   -3.7169    2.6594    5.2647 H   0  0  0  0  0  0  0  0  0  0  0  0
   -1.6050    1.7251    5.9855 H   0  0  0  0  0  0  0  0  0  0  0  0
   -5.5071    3.3463    3.8118 H   0  0  0  0  0  0  0  0  0  0  0  0
   -6.8063    3.6932    1.7817 H   0  0  0  0  0  0  0  0  0  0  0  0
   -7.0120   -0.5884    1.1510 H   0  0  0  0  0  0  0  0  0  0  0  0
   -7.2686    1.0502   -0.7506 H   0  0  0  0  0  0  0  0  0  0  0  0
  -11.0265    5.7683    0.9268 H   0  0  0  0  0  0  0  0  0  0  0  0
  -11.9592    7.2538   -0.8427 H   0  0  0  0  0  0  0  0  0  0  0  0
   -9.7012    5.1588   -3.8384 H   0  0  0  0  0  0  0  0  0  0  0  0
  1  2  2  3
  2  3  1  0
  3  4  2  0
  3  5  1  0
  5  6  2  0
  6  7  1  0
  7  8  2  0
  8  9  1  0
  8 10  1  0
 10 11  2  0
 11 12  1  0
 12 13  2  3
 13 14  1  0
 14 15  3  0
 13 16  1  0
 16 17  3  0
  1 18  1  0
 18 19  2  0
 19 20  1  0
 20 21  1  0
 21 22  1  0
 19 23  1  0
 23 24  1  0
 24 25  1  0
 25 26  1  0
 23 27  2  0
 27 28  1  0
 28 29  2  0
 29 30  1  0
 30 31  2  0
 31 32  1  0
 32 33  2  0
 27 34  1  0
 34 35  2  0
 35 36  1  0
 36 37  2  0
 37 38  1  0
 38 39  2  0
 39 40  1  0
 40 41  1  0
 41 42  1  0
 40 43  2  0
 35 44  1  0
 44 45  1  0
 45 46  1  0
 46 47  1  0
 47 48  1  0
 48 49  1  0
 49 50  2  0
 50 51  1  0
 51 52  1  0
 49 53  1  0
 53 54  1  0
 54 55  1  0
 55 56  1  0
 56 57  1  0
 57 58  1  0
 58 59  2  0
 59 60  1  0
 60 61  2  0
 61 62  1  0
 62 63  1  0
 63 64  1  0
 62 65  2  0
 57 66  2  0
 66 67  1  0
 67 68  1  0
 68 69  1  0
 69 70  1  0
 70 71  1  0
 71 72  1  0
 72 73  1  0
 73 74  1  0
 74 75  1  0
 75 76  1  0
 73 77  1  0
 77 78  1  0
 70 79  1  0
 79 80  1  0
 66 81  1  0
 81 82  2  0
 82 83  1  0
 83 84  1  0
 84 85  1  0
 85 86  2  0
 86 87  1  0
 87 88  2  0
 88 89  1  0
 89 90  1  0
 90 91  1  0
 88 92  1  0
 92 93  2  0
 93 94  1  0
 94 95  2  0
 95 96  1  0
 96 97  1  0
 97 98  1  0
 98 99  1  0
 96100  2  0
100101  1  0
101102  2  0
 84103  1  0
103104  2  0
104105  1  0
105106  1  0
106107  2  0
104108  1  0
108109  2  0
109110  1  0
110111  2  0
110112  1  0
112113  2  3
113114  1  0
114115  2  0
114116  1  0
116117  2  0
117118  1  0
118119  2  0
119120  1  0
119121  1  0
121122  2  0
122123  1  0
123124  2  3
124125  1  0
125126  3  0
124127  1  0
127128  3  0
 12  2  1  0
 29 18  1  0
 76 34  1  0
107 81  1  0
123113  1  0
 11  5  1  0
 33 28  1  0
 43 36  1  0
 75 44  2  0
105 83  2  0
122116  1  0
 74 46  2  0
102 84  1  0
111103  1  0
 72 47  2  0
 93 85  1  0
102 94  1  0
 52 48  2  0
 71 53  2  0
 69 54  2  0
 68 56  2  0
 65 58  1  0
  1129  1  0
  6130  1  0
  7131  1  0
 10132  1  0
 21133  1  0
 21134  1  0
 22135  1  0
 22136  1  0
 22137  1  0
 25138  1  0
 25139  1  0
 26140  1  0
 26141  1  0
 26142  1  0
 31143  1  0
 32144  1  0
 37145  1  0
 38146  1  0
 39147  1  0
 41148  1  0
 41149  1  0
 42150  1  0
 42151  1  0
 42152  1  0
 43153  1  0
 59154  1  0
 60155  1  0
 61156  1  0
 63157  1  0
 63158  1  0
 64159  1  0
 64160  1  0
 64161  1  0
 65162  1  0
 77163  1  0
 77164  1  0
 78165  1  0
 78166  1  0
 78167  1  0
 79168  1  0
 79169  1  0
 80170  1  0
 80171  1  0
 80172  1  0
 82173  1  0
 86174  1  0
 87175  1  0
 90176  1  0
 90177  1  0
 91178  1  0
 91179  1  0
 91180  1  0
 92181  1  0
 95182  1  0
 98183  1  0
 98184  1  0
 99185  1  0
 99186  1  0
 99187  1  0
100188  1  0
101189  1  0
106190  1  0
107191  1  0
108192  1  0
109193  1  0
111194  1  0
112195  1  0
117196  1  0
118197  1  0
121198  1  0
M  END

