
     RDKit          3D

168183  0  0  0  0  0  0  0  0999 V2000
    4.3888   -4.0562    4.9497 C   0  0  0  0  0  0  0  0  0  0  0  0
    4.6983   -5.2236    4.3497 C   0  0  0  0  0  0  0  0  0  0  0  0
    3.8342   -6.4028    4.4328 C   0  0  0  0  0  0  0  0  0  0  0  0
    2.9533   -6.6207    5.3070 O   0  0  0  0  0  0  0  0  0  0  0  0
    4.0837   -7.2227    3.2646 C   0  0  0  0  0  0  0  0  0  0  0  0
    3.3489   -8.3176    2.8077 C   0  0  0  0  0  0  0  0  0  0  0  0
    3.6759   -8.8693    1.5614 C   0  0  0  0  0  0  0  0  0  0  0  0
    4.7074   -8.3037    0.7855 C   0  0  0  0  0  0  0  0  0  0  0  0
    5.0823   -8.9784   -0.7924 Cl  0  0  0  0  0  0  0  0  0  0  0  0
    5.4240   -7.1874    1.2552 C   0  0  0  0  0  0  0  0  0  0  0  0
    5.1132   -6.6667    2.5196 C   0  0  0  0  0  0  0  0  0  0  0  0
    5.6492   -5.4797    3.2319 C   0  0  0  0  0  0  0  0  0  0  0  0
    6.9004   -4.9736    3.1283 C   0  0  0  0  0  0  0  0  0  0  0  0
    7.4700   -4.1822    4.1930 C   0  0  0  0  0  0  0  0  0  0  0  0
    7.9242   -3.5775    5.0652 N   0  0  0  0  0  0  0  0  0  0  0  0
    7.7932   -5.3163    2.0525 C   0  0  0  0  0  0  0  0  0  0  0  0
    8.5166   -5.5682    1.1898 N   0  0  0  0  0  0  0  0  0  0  0  0
    4.8062   -2.7044    4.4943 C   0  0  0  0  0  0  0  0  0  0  0  0
    5.0489   -1.7190    5.4636 C   0  0  0  0  0  0  0  0  0  0  0  0
    5.0685   -2.0496    6.7828 F   0  0  0  0  0  0  0  0  0  0  0  0
    5.2091   -0.3833    5.0926 C   0  0  0  0  0  0  0  0  0  0  0  0
    5.3548    0.5577    6.0577 F   0  0  0  0  0  0  0  0  0  0  0  0
    5.1997   -0.0142    3.7410 C   0  0  0  0  0  0  0  0  0  0  0  0
    5.0622   -1.0066    2.7490 C   0  0  0  0  0  0  0  0  0  0  0  0
    5.2147   -0.6378    1.3968 O   0  0  0  0  0  0  0  0  0  0  0  0
    5.7894   -1.4607    0.3729 C   0  0  0  0  0  0  0  0  0  0  0  0
    7.1625   -1.9885    0.7872 C   0  0  0  0  0  0  0  0  0  0  0  0
    4.7479   -2.3306    3.1352 C   0  0  0  0  0  0  0  0  0  0  0  0
    4.2825   -3.2439    2.1899 O   0  0  0  0  0  0  0  0  0  0  0  0
    2.9486   -3.1932    1.6989 C   0  0  0  0  0  0  0  0  0  0  0  0
    2.6497   -4.4471    0.8954 C   0  0  0  0  0  0  0  0  0  0  0  0
    5.1209    1.4182    3.3780 C   0  0  0  0  0  0  0  0  0  0  0  0
    5.8795    2.0925    2.3937 C   0  0  0  0  0  0  0  0  0  0  0  0
    7.2097    1.6465    1.9083 C   0  0  0  0  0  0  0  0  0  0  0  0
    7.6120    1.8239    0.5697 C   0  0  0  0  0  0  0  0  0  0  0  0
    8.9192    1.5047    0.1760 C   0  0  0  0  0  0  0  0  0  0  0  0
    9.8277    0.9885    1.1026 C   0  0  0  0  0  0  0  0  0  0  0  0
    9.4374    0.7907    2.4368 C   0  0  0  0  0  0  0  0  0  0  0  0
   10.3826    0.1597    3.4234 C   0  0  0  0  0  0  0  0  0  0  0  0
   10.2667   -1.3586    3.3646 C   0  0  0  0  0  0  0  0  0  0  0  0
    8.1271    1.1107    2.8285 C   0  0  0  0  0  0  0  0  0  0  0  0
    5.2864    3.3248    2.0639 C   0  0  0  0  0  0  0  0  0  0  0  0
    5.3561    4.2951    0.6636 S   0  0  0  0  0  0  0  0  0  0  0  0
    3.9323    5.1224    1.0889 C   0  0  0  0  0  0  0  0  0  0  0  0
    2.8706    5.6024    0.3673 C   0  0  0  0  0  0  0  0  0  0  0  0
    2.8024    5.9945   -0.9724 C   0  0  0  0  0  0  0  0  0  0  0  0
    1.5243    6.2261   -1.5541 C   0  0  0  0  0  0  0  0  0  0  0  0
    1.5006    6.5653   -2.8686 N   0  0  0  0  0  0  0  0  0  0  0  0
    3.1301    6.5593   -3.1867 S   0  0  0  0  0  0  0  0  0  0  0  0
    3.8852    6.1431   -1.7763 N   0  0  0  0  0  0  0  0  0  0  0  0
    0.3767    6.0057   -0.7825 C   0  0  0  0  0  0  0  0  0  0  0  0
   -0.9088    5.8077   -1.2053 C   0  0  0  0  0  0  0  0  0  0  0  0
   -1.6062    5.4513   -2.7158 S   0  0  0  0  0  0  0  0  0  0  0  0
   -2.8602    4.5658   -1.9870 C   0  0  0  0  0  0  0  0  0  0  0  0
   -3.7995    3.6616   -2.4993 C   0  0  0  0  0  0  0  0  0  0  0  0
   -3.9646    3.3798   -3.9333 C   0  0  0  0  0  0  0  0  0  0  0  0
   -3.5052    2.1656   -4.4642 C   0  0  0  0  0  0  0  0  0  0  0  0
   -3.7215    1.8618   -5.8100 C   0  0  0  0  0  0  0  0  0  0  0  0
   -4.4245    2.7523   -6.6284 C   0  0  0  0  0  0  0  0  0  0  0  0
   -4.9190    3.9586   -6.0973 C   0  0  0  0  0  0  0  0  0  0  0  0
   -5.7202    4.8912   -6.9618 C   0  0  0  0  0  0  0  0  0  0  0  0
   -4.8105    5.8822   -7.6845 C   0  0  0  0  0  0  0  0  0  0  0  0
   -4.6463    4.2874   -4.7587 C   0  0  0  0  0  0  0  0  0  0  0  0
   -4.3840    2.8947   -1.4673 C   0  0  0  0  0  0  0  0  0  0  0  0
   -3.7061    3.3493    0.0201 S   0  0  0  0  0  0  0  0  0  0  0  0
   -2.6974    4.5150   -0.6264 C   0  0  0  0  0  0  0  0  0  0  0  0
   -1.5735    5.2080   -0.1790 C   0  0  0  0  0  0  0  0  0  0  0  0
   -0.7883    5.0232    0.9159 N   0  0  0  0  0  0  0  0  0  0  0  0
    0.4333    5.5516    0.5544 C   0  0  0  0  0  0  0  0  0  0  0  0
    1.7248    5.4151    1.1677 C   0  0  0  0  0  0  0  0  0  0  0  0
    2.0933    4.8962    2.3852 N   0  0  0  0  0  0  0  0  0  0  0  0
    3.4178    4.6661    2.2593 C   0  0  0  0  0  0  0  0  0  0  0  0
    4.1707    3.6337    2.7961 C   0  0  0  0  0  0  0  0  0  0  0  0
    3.7801    2.3726    3.8179 S   0  0  0  0  0  0  0  0  0  0  0  0
    1.4933    5.0629    3.7179 C   0  0  0  0  0  0  0  0  0  0  0  0
    0.8310    6.4311    3.8897 C   0  0  0  0  0  0  0  0  0  0  0  0
   -1.1360    4.1152    2.0148 C   0  0  0  0  0  0  0  0  0  0  0  0
   -0.4987    2.7401    1.8146 C   0  0  0  0  0  0  0  0  0  0  0  0
   -5.3542    1.7870   -1.6173 C   0  0  0  0  0  0  0  0  0  0  0  0
   -5.1670    0.5981   -0.8945 C   0  0  0  0  0  0  0  0  0  0  0  0
   -4.0592    0.4128   -0.1281 F   0  0  0  0  0  0  0  0  0  0  0  0
   -6.1254   -0.4142   -0.9347 C   0  0  0  0  0  0  0  0  0  0  0  0
   -5.9659   -1.5059   -0.1451 F   0  0  0  0  0  0  0  0  0  0  0  0
   -7.2612   -0.2857   -1.7514 C   0  0  0  0  0  0  0  0  0  0  0  0
   -7.4519    0.9006   -2.4862 C   0  0  0  0  0  0  0  0  0  0  0  0
   -8.5488    1.0464   -3.3401 O   0  0  0  0  0  0  0  0  0  0  0  0
   -8.6386    0.3552   -4.5859 C   0  0  0  0  0  0  0  0  0  0  0  0
   -7.5700    0.8541   -5.5561 C   0  0  0  0  0  0  0  0  0  0  0  0
   -6.5233    1.9503   -2.3854 C   0  0  0  0  0  0  0  0  0  0  0  0
   -6.7570    3.1593   -3.0498 O   0  0  0  0  0  0  0  0  0  0  0  0
   -7.8097    4.0519   -2.6975 C   0  0  0  0  0  0  0  0  0  0  0  0
   -7.5421    4.6741   -1.3359 C   0  0  0  0  0  0  0  0  0  0  0  0
   -8.3201   -1.3105   -1.7056 C   0  0  0  0  0  0  0  0  0  0  0  0
   -8.1142   -2.6149   -1.9684 C   0  0  0  0  0  0  0  0  0  0  0  0
   -6.8434   -3.2112   -2.3905 C   0  0  0  0  0  0  0  0  0  0  0  0
   -5.8864   -2.6138   -2.9537 O   0  0  0  0  0  0  0  0  0  0  0  0
   -6.8711   -4.6211   -2.0639 C   0  0  0  0  0  0  0  0  0  0  0  0
   -5.8297   -5.5460   -2.1376 C   0  0  0  0  0  0  0  0  0  0  0  0
   -6.0451   -6.8346   -1.6308 C   0  0  0  0  0  0  0  0  0  0  0  0
   -7.2770   -7.1691   -1.0328 C   0  0  0  0  0  0  0  0  0  0  0  0
   -7.4835   -8.5441   -0.4669 C   0  0  0  0  0  0  0  0  0  0  0  0
   -8.3235   -6.2265   -1.0024 C   0  0  0  0  0  0  0  0  0  0  0  0
   -8.1100   -4.9489   -1.5439 C   0  0  0  0  0  0  0  0  0  0  0  0
   -9.0012   -3.7543   -1.5939 C   0  0  0  0  0  0  0  0  0  0  0  0
  -10.3572   -3.7466   -1.5176 C   0  0  0  0  0  0  0  0  0  0  0  0
  -11.1377   -2.5737   -1.8119 C   0  0  0  0  0  0  0  0  0  0  0  0
  -11.7670   -1.6336   -2.0536 N   0  0  0  0  0  0  0  0  0  0  0  0
  -11.1219   -4.9411   -1.2620 C   0  0  0  0  0  0  0  0  0  0  0  0
  -11.7458   -5.8954   -1.0518 N   0  0  0  0  0  0  0  0  0  0  0  0
    3.6567   -4.0805    5.7500 H   0  0  0  0  0  0  0  0  0  0  0  0
    2.5263   -8.7073    3.3908 H   0  0  0  0  0  0  0  0  0  0  0  0
    3.1208   -9.7162    1.1871 H   0  0  0  0  0  0  0  0  0  0  0  0
    6.1712   -6.7372    0.6254 H   0  0  0  0  0  0  0  0  0  0  0  0
    5.9096   -0.8446   -0.5406 H   0  0  0  0  0  0  0  0  0  0  0  0
    5.1213   -2.3033    0.1085 H   0  0  0  0  0  0  0  0  0  0  0  0
    7.5547   -2.6746    0.0081 H   0  0  0  0  0  0  0  0  0  0  0  0
    7.0956   -2.5428    1.7388 H   0  0  0  0  0  0  0  0  0  0  0  0
    7.8705   -1.1506    0.9208 H   0  0  0  0  0  0  0  0  0  0  0  0
    2.8142   -2.2985    1.0552 H   0  0  0  0  0  0  0  0  0  0  0  0
    2.2423   -3.1350    2.5534 H   0  0  0  0  0  0  0  0  0  0  0  0
    3.3711   -4.5461    0.0559 H   0  0  0  0  0  0  0  0  0  0  0  0
    2.7251   -5.3369    1.5471 H   0  0  0  0  0  0  0  0  0  0  0  0
    1.6203   -4.3911    0.4863 H   0  0  0  0  0  0  0  0  0  0  0  0
    6.9236    2.1848   -0.1769 H   0  0  0  0  0  0  0  0  0  0  0  0
    9.2280    1.6558   -0.8532 H   0  0  0  0  0  0  0  0  0  0  0  0
   10.8273    0.7256    0.7795 H   0  0  0  0  0  0  0  0  0  0  0  0
   10.1432    0.5069    4.4539 H   0  0  0  0  0  0  0  0  0  0  0  0
   11.4315    0.4600    3.2052 H   0  0  0  0  0  0  0  0  0  0  0  0
   10.9205   -1.8152    4.1361 H   0  0  0  0  0  0  0  0  0  0  0  0
   10.5791   -1.7304    2.3666 H   0  0  0  0  0  0  0  0  0  0  0  0
    9.2171   -1.6697    3.5546 H   0  0  0  0  0  0  0  0  0  0  0  0
    7.8430    0.9779    3.8622 H   0  0  0  0  0  0  0  0  0  0  0  0
   -2.9784    1.4594   -3.8354 H   0  0  0  0  0  0  0  0  0  0  0  0
   -3.3583    0.9270   -6.2182 H   0  0  0  0  0  0  0  0  0  0  0  0
   -4.6031    2.4966   -7.6660 H   0  0  0  0  0  0  0  0  0  0  0  0
   -6.2955    4.3092   -7.7178 H   0  0  0  0  0  0  0  0  0  0  0  0
   -6.4570    5.4488   -6.3406 H   0  0  0  0  0  0  0  0  0  0  0  0
   -4.1107    5.3386   -8.3565 H   0  0  0  0  0  0  0  0  0  0  0  0
   -4.2284    6.4784   -6.9512 H   0  0  0  0  0  0  0  0  0  0  0  0
   -5.4246    6.5755   -8.2931 H   0  0  0  0  0  0  0  0  0  0  0  0
   -5.0188    5.2157   -4.3454 H   0  0  0  0  0  0  0  0  0  0  0  0
    2.2961    5.0144    4.4889 H   0  0  0  0  0  0  0  0  0  0  0  0
    0.8498    4.2025    3.9760 H   0  0  0  0  0  0  0  0  0  0  0  0
    0.4049    6.5050    4.9129 H   0  0  0  0  0  0  0  0  0  0  0  0
    0.0175    6.5967    3.1551 H   0  0  0  0  0  0  0  0  0  0  0  0
    1.5869    7.2373    3.7539 H   0  0  0  0  0  0  0  0  0  0  0  0
   -2.2286    3.9883    2.0807 H   0  0  0  0  0  0  0  0  0  0  0  0
   -0.9253    4.5617    2.9854 H   0  0  0  0  0  0  0  0  0  0  0  0
   -0.8300    2.0603    2.6277 H   0  0  0  0  0  0  0  0  0  0  0  0
   -0.8134    2.3143    0.8410 H   0  0  0  0  0  0  0  0  0  0  0  0
    0.6039    2.8059    1.8320 H   0  0  0  0  0  0  0  0  0  0  0  0
   -9.6448    0.5373   -5.0211 H   0  0  0  0  0  0  0  0  0  0  0  0
   -8.5213   -0.7380   -4.4288 H   0  0  0  0  0  0  0  0  0  0  0  0
   -7.6712    1.9543   -5.6997 H   0  0  0  0  0  0  0  0  0  0  0  0
   -6.5582    0.6344   -5.1578 H   0  0  0  0  0  0  0  0  0  0  0  0
   -7.6829    0.3467   -6.5326 H   0  0  0  0  0  0  0  0  0  0  0  0
   -7.8539    4.8626   -3.4534 H   0  0  0  0  0  0  0  0  0  0  0  0
   -8.7866    3.5249   -2.6931 H   0  0  0  0  0  0  0  0  0  0  0  0
   -8.3254    5.4259   -1.0996 H   0  0  0  0  0  0  0  0  0  0  0  0
   -6.5510    5.1774   -1.3377 H   0  0  0  0  0  0  0  0  0  0  0  0
   -7.5489    3.8895   -0.5506 H   0  0  0  0  0  0  0  0  0  0  0  0
   -9.2636   -0.9750   -1.3132 H   0  0  0  0  0  0  0  0  0  0  0  0
   -4.8675   -5.2720   -2.5556 H   0  0  0  0  0  0  0  0  0  0  0  0
   -5.2435   -7.5630   -1.6774 H   0  0  0  0  0  0  0  0  0  0  0  0
   -7.8136   -9.2277   -1.2747 H   0  0  0  0  0  0  0  0  0  0  0  0
   -6.5412   -8.9277   -0.0243 H   0  0  0  0  0  0  0  0  0  0  0  0
   -8.2516   -8.5277    0.3348 H   0  0  0  0  0  0  0  0  0  0  0  0
   -9.2483   -6.4863   -0.5194 H   0  0  0  0  0  0  0  0  0  0  0  0
  1  2  2  3
  2  3  1  0
  3  4  2  0
  3  5  1  0
  5  6  2  0
  6  7  1  0
  7  8  2  0
  8  9  1  0
  8 10  1  0
 10 11  2  0
 11 12  1  0
 12 13  2  3
 13 14  1  0
 14 15  3  0
 13 16  1  0
 16 17  3  0
  1 18  1  0
 18 19  2  0
 19 20  1  0
 19 21  1  0
 21 22  1  0
 21 23  2  0
 23 24  1  0
 24 25  1  0
 25 26  1  0
 26 27  1  0
 24 28  2  0
 28 29  1  0
 29 30  1  0
 30 31  1  0
 23 32  1  0
 32 33  2  0
 33 34  1  0
 34 35  2  0
 35 36  1  0
 36 37  2  0
 37 38  1  0
 38 39  1  0
 39 40  1  0
 38 41  2  0
 33 42  1  0
 42 43  1  0
 43 44  1  0
 44 45  1  0
 45 46  1  0
 46 47  1  0
 47 48  2  0
 48 49  1  0
 49 50  1  0
 47 51  1  0
 51 52  1  0
 52 53  1  0
 53 54  1  0
 54 55  1  0
 55 56  1  0
 56 57  2  0
 57 58  1  0
 58 59  2  0
 59 60  1  0
 60 61  1  0
 61 62  1  0
 60 63  2  0
 55 64  2  0
 64 65  1  0
 65 66  1  0
 66 67  1  0
 67 68  1  0
 68 69  1  0
 69 70  1  0
 70 71  1  0
 71 72  1  0
 72 73  1  0
 73 74  1  0
 71 75  1  0
 75 76  1  0
 68 77  1  0
 77 78  1  0
 64 79  1  0
 79 80  2  0
 80 81  1  0
 80 82  1  0
 82 83  1  0
 82 84  2  0
 84 85  1  0
 85 86  1  0
 86 87  1  0
 87 88  1  0
 85 89  2  0
 89 90  1  0
 90 91  1  0
 91 92  1  0
 84 93  1  0
 93 94  2  3
 94 95  1  0
 95 96  2  0
 95 97  1  0
 97 98  2  0
 98 99  1  0
 99100  2  0
100101  1  0
100102  1  0
102103  2  0
103104  1  0
104105  2  3
105106  1  0
106107  3  0
105108  1  0
108109  3  0
 12  2  1  0
 28 18  1  0
 74 32  1  0
 89 79  1  0
104 94  1  0
 11  5  1  0
 41 34  1  0
 73 42  2  0
103 97  1  0
 72 44  2  0
 70 45  2  0
 50 46  2  0
 69 51  2  0
 67 52  2  0
 66 54  2  0
 63 56  1  0
  1110  1  0
  6111  1  0
  7112  1  0
 10113  1  0
 26114  1  0
 26115  1  0
 27116  1  0
 27117  1  0
 27118  1  0
 30119  1  0
 30120  1  0
 31121  1  0
 31122  1  0
 31123  1  0
 35124  1  0
 36125  1  0
 37126  1  0
 39127  1  0
 39128  1  0
 40129  1  0
 40130  1  0
 40131  1  0
 41132  1  0
 57133  1  0
 58134  1  0
 59135  1  0
 61136  1  0
 61137  1  0
 62138  1  0
 62139  1  0
 62140  1  0
 63141  1  0
 75142  1  0
 75143  1  0
 76144  1  0
 76145  1  0
 76146  1  0
 77147  1  0
 77148  1  0
 78149  1  0
 78150  1  0
 78151  1  0
 87152  1  0
 87153  1  0
 88154  1  0
 88155  1  0
 88156  1  0
 91157  1  0
 91158  1  0
 92159  1  0
 92160  1  0
 92161  1  0
 93162  1  0
 98163  1  0
 99164  1  0
101165  1  0
101166  1  0
101167  1  0
102168  1  0
M  END

