
     RDKit          3D

217240  0  0  0  0  0  0  0  0999 V2000
   13.3165   -3.9007    7.2845 C   0  0  0  0  0  0  0  0  0  0  0  0
   14.1243   -4.4908    6.3782 C   0  0  0  0  0  0  0  0  0  0  0  0
   13.8774   -4.5983    4.9311 C   0  0  0  0  0  0  0  0  0  0  0  0
   12.7826   -4.3689    4.3334 O   0  0  0  0  0  0  0  0  0  0  0  0
   15.1134   -4.9393    4.2725 C   0  0  0  0  0  0  0  0  0  0  0  0
   15.3523   -5.0484    2.8929 C   0  0  0  0  0  0  0  0  0  0  0  0
   16.6662   -5.3100    2.4763 C   0  0  0  0  0  0  0  0  0  0  0  0
   17.6954   -5.4417    3.4156 C   0  0  0  0  0  0  0  0  0  0  0  0
   19.3401   -5.7539    2.8778 Cl  0  0  0  0  0  0  0  0  0  0  0  0
   17.4363   -5.3407    4.7894 C   0  0  0  0  0  0  0  0  0  0  0  0
   16.1147   -5.1020    5.2160 C   0  0  0  0  0  0  0  0  0  0  0  0
   15.5426   -4.9601    6.5840 C   0  0  0  0  0  0  0  0  0  0  0  0
   16.1138   -5.3523    7.7590 C   0  0  0  0  0  0  0  0  0  0  0  0
   17.4331   -5.8888    7.8271 C   0  0  0  0  0  0  0  0  0  0  0  0
   18.5213   -6.3085    7.8639 N   0  0  0  0  0  0  0  0  0  0  0  0
   15.3597   -5.4339    8.9588 C   0  0  0  0  0  0  0  0  0  0  0  0
   14.7417   -5.5174    9.9488 N   0  0  0  0  0  0  0  0  0  0  0  0
   12.0494   -3.2533    6.9100 C   0  0  0  0  0  0  0  0  0  0  0  0
   10.8503   -3.9254    6.6449 C   0  0  0  0  0  0  0  0  0  0  0  0
    9.8730   -3.0708    6.0915 C   0  0  0  0  0  0  0  0  0  0  0  0
    8.5845   -3.4345    5.6492 C   0  0  0  0  0  0  0  0  0  0  0  0
    7.9906   -4.6850    6.1234 C   0  0  0  0  0  0  0  0  0  0  0  0
    7.3350   -4.6764    7.3594 C   0  0  0  0  0  0  0  0  0  0  0  0
    6.9290   -5.8686    7.9484 C   0  0  0  0  0  0  0  0  0  0  0  0
    7.1429   -7.0865    7.2829 C   0  0  0  0  0  0  0  0  0  0  0  0
    6.6563   -8.6579    8.0362 S   0  0  0  0  0  0  0  0  0  0  0  0
    4.8548   -8.3285    8.1424 C   0  0  0  0  0  0  0  0  0  0  0  0
    4.1962   -8.1049    6.7803 C   0  0  0  0  0  0  0  0  0  0  0  0
    7.7779   -7.0872    6.0332 C   0  0  0  0  0  0  0  0  0  0  0  0
    8.2499   -5.8968    5.4735 C   0  0  0  0  0  0  0  0  0  0  0  0
    7.8272   -2.4715    4.9593 C   0  0  0  0  0  0  0  0  0  0  0  0
    8.2908   -1.1539    4.8123 C   0  0  0  0  0  0  0  0  0  0  0  0
    9.5243   -0.7522    5.3646 C   0  0  0  0  0  0  0  0  0  0  0  0
    9.9828    0.6473    5.3186 C   0  0  0  0  0  0  0  0  0  0  0  0
   10.2457    1.2610    4.0827 C   0  0  0  0  0  0  0  0  0  0  0  0
   10.6603    2.5965    4.0539 C   0  0  0  0  0  0  0  0  0  0  0  0
   10.8543    3.3094    5.2361 C   0  0  0  0  0  0  0  0  0  0  0  0
   11.3081    5.0523    5.1463 S   0  0  0  0  0  0  0  0  0  0  0  0
    9.6714    5.7357    5.6166 C   0  0  0  0  0  0  0  0  0  0  0  0
    8.5264    5.2726    4.7185 C   0  0  0  0  0  0  0  0  0  0  0  0
   10.6438    2.6778    6.4778 C   0  0  0  0  0  0  0  0  0  0  0  0
   10.2108    1.3482    6.5096 C   0  0  0  0  0  0  0  0  0  0  0  0
   10.3145   -1.7510    5.9531 C   0  0  0  0  0  0  0  0  0  0  0  0
   11.9168   -1.6263    6.4846 S   0  0  0  0  0  0  0  0  0  0  0  0
    7.4308   -0.3664    4.0513 C   0  0  0  0  0  0  0  0  0  0  0  0
    6.3233   -1.0548    3.5151 C   0  0  0  0  0  0  0  0  0  0  0  0
    6.3714   -2.6531    4.1079 S   0  0  0  0  0  0  0  0  0  0  0  0
    5.4266   -0.5185    2.4376 C   0  0  0  0  0  0  0  0  0  0  0  0
    5.7632    0.5411    1.5579 C   0  0  0  0  0  0  0  0  0  0  0  0
    7.0818    1.1649    1.4020 C   0  0  0  0  0  0  0  0  0  0  0  0
    7.2634    2.5021    1.7844 C   0  0  0  0  0  0  0  0  0  0  0  0
    8.4355    3.1705    1.4569 C   0  0  0  0  0  0  0  0  0  0  0  0
    9.4371    2.5150    0.7425 C   0  0  0  0  0  0  0  0  0  0  0  0
    9.2761    1.1745    0.3443 C   0  0  0  0  0  0  0  0  0  0  0  0
   10.3377    0.5056   -0.4768 C   0  0  0  0  0  0  0  0  0  0  0  0
   10.3302    1.0323   -1.9097 C   0  0  0  0  0  0  0  0  0  0  0  0
    8.0965    0.4916    0.6949 C   0  0  0  0  0  0  0  0  0  0  0  0
    4.7594    0.8119    0.6485 C   0  0  0  0  0  0  0  0  0  0  0  0
    4.7016    1.9436   -0.6345 S   0  0  0  0  0  0  0  0  0  0  0  0
    3.2141    1.2957   -1.0929 C   0  0  0  0  0  0  0  0  0  0  0  0
    2.2281    1.6084   -1.9767 C   0  0  0  0  0  0  0  0  0  0  0  0
    2.0924    2.6894   -2.8579 C   0  0  0  0  0  0  0  0  0  0  0  0
    0.8664    2.8401   -3.5838 C   0  0  0  0  0  0  0  0  0  0  0  0
    0.7730    3.8929   -4.4327 N   0  0  0  0  0  0  0  0  0  0  0  0
    2.2602    4.5726   -4.1686 S   0  0  0  0  0  0  0  0  0  0  0  0
    3.0575    3.6308   -3.0524 N   0  0  0  0  0  0  0  0  0  0  0  0
   -0.1330    1.8687   -3.4099 C   0  0  0  0  0  0  0  0  0  0  0  0
   -1.3337    1.6932   -4.0453 C   0  0  0  0  0  0  0  0  0  0  0  0
   -2.3032    2.5166   -5.1746 S   0  0  0  0  0  0  0  0  0  0  0  0
   -3.4400    1.2387   -5.1045 C   0  0  0  0  0  0  0  0  0  0  0  0
   -4.7477    1.1400   -5.5988 C   0  0  0  0  0  0  0  0  0  0  0  0
   -5.3251    2.2561   -6.3689 C   0  0  0  0  0  0  0  0  0  0  0  0
   -6.2374    3.1317   -5.7502 C   0  0  0  0  0  0  0  0  0  0  0  0
   -6.6031    4.3126   -6.3830 C   0  0  0  0  0  0  0  0  0  0  0  0
   -6.0247    4.6638   -7.6043 C   0  0  0  0  0  0  0  0  0  0  0  0
   -5.0640    3.8377   -8.2056 C   0  0  0  0  0  0  0  0  0  0  0  0
   -4.3339    4.2858   -9.4364 C   0  0  0  0  0  0  0  0  0  0  0  0
   -5.1300    3.9884  -10.7029 C   0  0  0  0  0  0  0  0  0  0  0  0
   -4.7379    2.6126   -7.6015 C   0  0  0  0  0  0  0  0  0  0  0  0
   -5.4193   -0.0112   -5.0922 C   0  0  0  0  0  0  0  0  0  0  0  0
   -4.3158   -0.8529   -4.0753 S   0  0  0  0  0  0  0  0  0  0  0  0
   -3.0484    0.2255   -4.2698 C   0  0  0  0  0  0  0  0  0  0  0  0
   -1.8393    0.5122   -3.6415 C   0  0  0  0  0  0  0  0  0  0  0  0
   -1.0347   -0.1432   -2.7607 N   0  0  0  0  0  0  0  0  0  0  0  0
    0.0112    0.7434   -2.5640 C   0  0  0  0  0  0  0  0  0  0  0  0
    1.2005    0.6632   -1.7558 C   0  0  0  0  0  0  0  0  0  0  0  0
    1.5262   -0.1497   -0.6894 N   0  0  0  0  0  0  0  0  0  0  0  0
    2.7771    0.2636   -0.3267 C   0  0  0  0  0  0  0  0  0  0  0  0
    3.6580   -0.0081    0.7170 C   0  0  0  0  0  0  0  0  0  0  0  0
    3.8588   -1.1100    1.9929 S   0  0  0  0  0  0  0  0  0  0  0  0
    0.6513   -0.9174    0.1929 C   0  0  0  0  0  0  0  0  0  0  0  0
    0.9617   -2.4116    0.0852 C   0  0  0  0  0  0  0  0  0  0  0  0
   -1.0078   -1.6139   -2.6734 C   0  0  0  0  0  0  0  0  0  0  0  0
    0.1096   -2.1743   -3.5332 C   0  0  0  0  0  0  0  0  0  0  0  0
   -6.8785   -0.3240   -5.1514 C   0  0  0  0  0  0  0  0  0  0  0  0
   -7.4850   -1.3735   -4.4456 C   0  0  0  0  0  0  0  0  0  0  0  0
   -8.8598   -1.1708   -4.2048 C   0  0  0  0  0  0  0  0  0  0  0  0
   -9.6726   -1.9085   -3.3133 C   0  0  0  0  0  0  0  0  0  0  0  0
   -9.2155   -3.1753   -2.7412 C   0  0  0  0  0  0  0  0  0  0  0  0
   -8.1354   -3.2011   -1.8389 C   0  0  0  0  0  0  0  0  0  0  0  0
   -7.5289   -4.4154   -1.5105 C   0  0  0  0  0  0  0  0  0  0  0  0
   -7.9808   -5.6101   -2.0996 C   0  0  0  0  0  0  0  0  0  0  0  0
   -7.1758   -7.1898   -1.7757 S   0  0  0  0  0  0  0  0  0  0  0  0
   -5.6258   -6.8179   -2.6753 C   0  0  0  0  0  0  0  0  0  0  0  0
   -5.8334   -6.5763   -4.1659 C   0  0  0  0  0  0  0  0  0  0  0  0
   -9.1095   -5.5828   -2.9258 C   0  0  0  0  0  0  0  0  0  0  0  0
   -9.7361   -4.3691   -3.2432 C   0  0  0  0  0  0  0  0  0  0  0  0
  -10.9178   -1.3491   -2.9687 C   0  0  0  0  0  0  0  0  0  0  0  0
  -11.3636   -0.1561   -3.5538 C   0  0  0  0  0  0  0  0  0  0  0  0
  -10.6265    0.4909   -4.5614 C   0  0  0  0  0  0  0  0  0  0  0  0
  -11.0715    1.7821   -5.1431 C   0  0  0  0  0  0  0  0  0  0  0  0
  -12.0258    1.7861   -6.1711 C   0  0  0  0  0  0  0  0  0  0  0  0
  -12.3599    2.9892   -6.7979 C   0  0  0  0  0  0  0  0  0  0  0  0
  -11.6935    4.1745   -6.4727 C   0  0  0  0  0  0  0  0  0  0  0  0
  -11.8937    5.6080   -7.5673 S   0  0  0  0  0  0  0  0  0  0  0  0
  -12.8656    6.6753   -6.4489 C   0  0  0  0  0  0  0  0  0  0  0  0
  -14.1641    6.0215   -5.9832 C   0  0  0  0  0  0  0  0  0  0  0  0
  -10.7591    4.1828   -5.4202 C   0  0  0  0  0  0  0  0  0  0  0  0
  -10.4593    2.9842   -4.7515 C   0  0  0  0  0  0  0  0  0  0  0  0
   -9.3544   -0.0265   -4.8388 C   0  0  0  0  0  0  0  0  0  0  0  0
   -8.1039    0.7226   -5.6539 S   0  0  0  0  0  0  0  0  0  0  0  0
  -12.4552    0.3890   -2.8977 C   0  0  0  0  0  0  0  0  0  0  0  0
  -12.8296   -0.3322   -1.7495 C   0  0  0  0  0  0  0  0  0  0  0  0
  -11.8725   -1.7268   -1.6176 S   0  0  0  0  0  0  0  0  0  0  0  0
  -13.6984    0.2174   -0.6801 C   0  0  0  0  0  0  0  0  0  0  0  0
  -13.8831    1.5720   -0.5538 C   0  0  0  0  0  0  0  0  0  0  0  0
  -15.1973    2.2197   -0.6463 C   0  0  0  0  0  0  0  0  0  0  0  0
  -16.3374    1.6769   -0.4791 O   0  0  0  0  0  0  0  0  0  0  0  0
  -14.9583    3.6077   -1.0981 C   0  0  0  0  0  0  0  0  0  0  0  0
  -15.8477    4.5082   -1.6787 C   0  0  0  0  0  0  0  0  0  0  0  0
  -15.3336    5.6954   -2.2363 C   0  0  0  0  0  0  0  0  0  0  0  0
  -13.9424    5.9710   -2.1993 C   0  0  0  0  0  0  0  0  0  0  0  0
  -13.2972    7.4510   -2.8946 Cl  0  0  0  0  0  0  0  0  0  0  0  0
  -13.0538    5.0365   -1.6467 C   0  0  0  0  0  0  0  0  0  0  0  0
  -13.5861    3.8665   -1.1102 C   0  0  0  0  0  0  0  0  0  0  0  0
  -12.8566    2.6445   -0.7171 C   0  0  0  0  0  0  0  0  0  0  0  0
  -11.6148    2.6630   -0.1763 C   0  0  0  0  0  0  0  0  0  0  0  0
  -11.6070    2.8828    1.2705 C   0  0  0  0  0  0  0  0  0  0  0  0
  -11.5767    3.0140    2.4237 N   0  0  0  0  0  0  0  0  0  0  0  0
  -10.7788    1.5158   -0.4818 C   0  0  0  0  0  0  0  0  0  0  0  0
  -10.1641    0.5387   -0.6721 N   0  0  0  0  0  0  0  0  0  0  0  0
   13.6776   -3.6752    8.2697 H   0  0  0  0  0  0  0  0  0  0  0  0
   14.5582   -4.9110    2.1716 H   0  0  0  0  0  0  0  0  0  0  0  0
   16.8806   -5.3987    1.4243 H   0  0  0  0  0  0  0  0  0  0  0  0
   18.2570   -5.3875    5.4790 H   0  0  0  0  0  0  0  0  0  0  0  0
   10.7181   -4.9894    6.7727 H   0  0  0  0  0  0  0  0  0  0  0  0
    7.1698   -3.7319    7.8782 H   0  0  0  0  0  0  0  0  0  0  0  0
    6.4580   -5.8370    8.9223 H   0  0  0  0  0  0  0  0  0  0  0  0
    4.6658   -7.4559    8.8205 H   0  0  0  0  0  0  0  0  0  0  0  0
    4.3790   -9.2163    8.6193 H   0  0  0  0  0  0  0  0  0  0  0  0
    3.1565   -7.7455    6.9377 H   0  0  0  0  0  0  0  0  0  0  0  0
    4.7430   -7.3423    6.1893 H   0  0  0  0  0  0  0  0  0  0  0  0
    4.1723   -9.0650    6.2176 H   0  0  0  0  0  0  0  0  0  0  0  0
    7.9499   -8.0224    5.5174 H   0  0  0  0  0  0  0  0  0  0  0  0
    8.8209   -5.9208    4.5532 H   0  0  0  0  0  0  0  0  0  0  0  0
   10.1139    0.7165    3.1571 H   0  0  0  0  0  0  0  0  0  0  0  0
   10.8607    3.0699    3.0961 H   0  0  0  0  0  0  0  0  0  0  0  0
    9.7427    6.8442    5.5346 H   0  0  0  0  0  0  0  0  0  0  0  0
    9.4658    5.4936    6.6868 H   0  0  0  0  0  0  0  0  0  0  0  0
    7.5812    5.7512    5.0592 H   0  0  0  0  0  0  0  0  0  0  0  0
    8.7320    5.5717    3.6708 H   0  0  0  0  0  0  0  0  0  0  0  0
    8.3971    4.1773    4.7822 H   0  0  0  0  0  0  0  0  0  0  0  0
   10.8173    3.2095    7.4020 H   0  0  0  0  0  0  0  0  0  0  0  0
   10.0328    0.8639    7.4662 H   0  0  0  0  0  0  0  0  0  0  0  0
    7.6172    0.6759    3.8639 H   0  0  0  0  0  0  0  0  0  0  0  0
    6.4744    3.0248    2.3231 H   0  0  0  0  0  0  0  0  0  0  0  0
    8.5632    4.2078    1.7311 H   0  0  0  0  0  0  0  0  0  0  0  0
   10.3377    3.0599    0.4718 H   0  0  0  0  0  0  0  0  0  0  0  0
   11.3289    0.6892   -0.0143 H   0  0  0  0  0  0  0  0  0  0  0  0
   10.1875   -0.5944   -0.5012 H   0  0  0  0  0  0  0  0  0  0  0  0
    9.4160    0.6900   -2.4463 H   0  0  0  0  0  0  0  0  0  0  0  0
   10.3634    2.1421   -1.9172 H   0  0  0  0  0  0  0  0  0  0  0  0
   11.2326    0.6706   -2.4471 H   0  0  0  0  0  0  0  0  0  0  0  0
    7.9344   -0.5275    0.3793 H   0  0  0  0  0  0  0  0  0  0  0  0
   -6.6431    2.9045   -4.7662 H   0  0  0  0  0  0  0  0  0  0  0  0
   -7.3051    4.9887   -5.9067 H   0  0  0  0  0  0  0  0  0  0  0  0
   -6.2825    5.6115   -8.0681 H   0  0  0  0  0  0  0  0  0  0  0  0
   -3.3497    3.7824   -9.5041 H   0  0  0  0  0  0  0  0  0  0  0  0
   -4.1503    5.3752   -9.3678 H   0  0  0  0  0  0  0  0  0  0  0  0
   -6.0434    4.6146  -10.7464 H   0  0  0  0  0  0  0  0  0  0  0  0
   -4.4916    4.2331  -11.5854 H   0  0  0  0  0  0  0  0  0  0  0  0
   -5.3961    2.9157  -10.7625 H   0  0  0  0  0  0  0  0  0  0  0  0
   -3.9736    1.9717   -8.0128 H   0  0  0  0  0  0  0  0  0  0  0  0
    0.8213   -0.5954    1.2406 H   0  0  0  0  0  0  0  0  0  0  0  0
   -0.4140   -0.6762   -0.0113 H   0  0  0  0  0  0  0  0  0  0  0  0
    1.1859   -2.7030   -0.9676 H   0  0  0  0  0  0  0  0  0  0  0  0
    1.8480   -2.6470    0.6949 H   0  0  0  0  0  0  0  0  0  0  0  0
    0.0979   -3.0010    0.4572 H   0  0  0  0  0  0  0  0  0  0  0  0
   -1.9691   -2.0237   -3.0344 H   0  0  0  0  0  0  0  0  0  0  0  0
   -0.9467   -1.9442   -1.6385 H   0  0  0  0  0  0  0  0  0  0  0  0
    0.1379   -3.2782   -3.4187 H   0  0  0  0  0  0  0  0  0  0  0  0
    1.1017   -1.7737   -3.2276 H   0  0  0  0  0  0  0  0  0  0  0  0
   -0.0710   -1.9196   -4.5935 H   0  0  0  0  0  0  0  0  0  0  0  0
   -6.9149   -2.1550   -3.9783 H   0  0  0  0  0  0  0  0  0  0  0  0
   -7.7144   -2.2642   -1.4770 H   0  0  0  0  0  0  0  0  0  0  0  0
   -6.6679   -4.4218   -0.8538 H   0  0  0  0  0  0  0  0  0  0  0  0
   -4.9586   -7.6916   -2.5484 H   0  0  0  0  0  0  0  0  0  0  0  0
   -5.1273   -5.9404   -2.1984 H   0  0  0  0  0  0  0  0  0  0  0  0
   -4.8405   -6.5259   -4.6657 H   0  0  0  0  0  0  0  0  0  0  0  0
   -6.4072   -7.4125   -4.6151 H   0  0  0  0  0  0  0  0  0  0  0  0
   -6.3580   -5.6164   -4.3320 H   0  0  0  0  0  0  0  0  0  0  0  0
   -9.4993   -6.4937   -3.3691 H   0  0  0  0  0  0  0  0  0  0  0  0
  -10.5573   -4.3712   -3.9355 H   0  0  0  0  0  0  0  0  0  0  0  0
  -12.4733    0.8510   -6.4886 H   0  0  0  0  0  0  0  0  0  0  0  0
  -13.0595    2.9681   -7.6354 H   0  0  0  0  0  0  0  0  0  0  0  0
  -13.1281    7.5838   -7.0384 H   0  0  0  0  0  0  0  0  0  0  0  0
  -12.2305    6.9967   -5.5918 H   0  0  0  0  0  0  0  0  0  0  0  0
  -14.7127    5.5998   -6.8433 H   0  0  0  0  0  0  0  0  0  0  0  0
  -13.9373    5.2378   -5.2377 H   0  0  0  0  0  0  0  0  0  0  0  0
  -14.8038    6.7936   -5.4896 H   0  0  0  0  0  0  0  0  0  0  0  0
  -10.2050    5.0786   -5.1648 H   0  0  0  0  0  0  0  0  0  0  0  0
   -9.7045    2.9763   -3.9616 H   0  0  0  0  0  0  0  0  0  0  0  0
  -12.8609    1.3509   -3.1529 H   0  0  0  0  0  0  0  0  0  0  0  0
  -14.4182   -0.4611   -0.2217 H   0  0  0  0  0  0  0  0  0  0  0  0
  -16.9081    4.2534   -1.7764 H   0  0  0  0  0  0  0  0  0  0  0  0
  -16.0024    6.4034   -2.7087 H   0  0  0  0  0  0  0  0  0  0  0  0
  -11.9770    5.1888   -1.7068 H   0  0  0  0  0  0  0  0  0  0  0  0
  1  2  2  3
  2  3  1  0
  3  4  2  0
  3  5  1  0
  5  6  2  0
  6  7  1  0
  7  8  2  0
  8  9  1  0
  8 10  1  0
 10 11  2  0
 11 12  1  0
 12 13  2  3
 13 14  1  0
 14 15  3  0
 13 16  1  0
 16 17  3  0
  1 18  1  0
 18 19  2  0
 19 20  1  0
 20 21  2  0
 21 22  1  0
 22 23  2  0
 23 24  1  0
 24 25  2  0
 25 26  1  0
 26 27  1  0
 27 28  1  0
 25 29  1  0
 29 30  2  0
 21 31  1  0
 31 32  2  0
 32 33  1  0
 33 34  1  0
 34 35  2  0
 35 36  1  0
 36 37  2  0
 37 38  1  0
 38 39  1  0
 39 40  1  0
 37 41  1  0
 41 42  2  0
 33 43  2  0
 43 44  1  0
 32 45  1  0
 45 46  2  0
 46 47  1  0
 46 48  1  0
 48 49  2  0
 49 50  1  0
 50 51  2  0
 51 52  1  0
 52 53  2  0
 53 54  1  0
 54 55  1  0
 55 56  1  0
 54 57  2  0
 49 58  1  0
 58 59  1  0
 59 60  1  0
 60 61  1  0
 61 62  1  0
 62 63  1  0
 63 64  2  0
 64 65  1  0
 65 66  1  0
 63 67  1  0
 67 68  1  0
 68 69  1  0
 69 70  1  0
 70 71  1  0
 71 72  1  0
 72 73  2  0
 73 74  1  0
 74 75  2  0
 75 76  1  0
 76 77  1  0
 77 78  1  0
 76 79  2  0
 71 80  2  0
 80 81  1  0
 81 82  1  0
 82 83  1  0
 83 84  1  0
 84 85  1  0
 85 86  1  0
 86 87  1  0
 87 88  1  0
 88 89  1  0
 89 90  1  0
 87 91  1  0
 91 92  1  0
 84 93  1  0
 93 94  1  0
 80 95  1  0
 95 96  2  0
 96 97  1  0
 97 98  2  0
 98 99  1  0
 99100  2  0
100101  1  0
101102  2  0
102103  1  0
103104  1  0
104105  1  0
102106  1  0
106107  2  0
 98108  1  0
108109  2  0
109110  1  0
110111  1  0
111112  2  0
112113  1  0
113114  2  0
114115  1  0
115116  1  0
116117  1  0
114118  1  0
118119  2  0
110120  2  0
120121  1  0
109122  1  0
122123  2  0
123124  1  0
123125  1  0
125126  2  3
126127  1  0
127128  2  0
127129  1  0
129130  2  0
130131  1  0
131132  2  0
132133  1  0
132134  1  0
134135  2  0
135136  1  0
136137  2  3
137138  1  0
138139  3  0
137140  1  0
140141  3  0
 12  2  1  0
 44 18  1  0
 90 48  1  0
121 95  1  0
136126  1  0
 11  5  1  0
 43 20  1  0
 57 50  1  0
 89 58  2  0
120 97  1  0
135129  1  0
 30 22  1  0
 47 31  1  0
 88 60  2  0
107 99  1  0
124108  1  0
 42 34  1  0
 86 61  2  0
119111  1  0
 66 62  2  0
 85 67  2  0
 83 68  2  0
 82 70  2  0
 79 72  1  0
  1142  1  0
  6143  1  0
  7144  1  0
 10145  1  0
 19146  1  0
 23147  1  0
 24148  1  0
 27149  1  0
 27150  1  0
 28151  1  0
 28152  1  0
 28153  1  0
 29154  1  0
 30155  1  0
 35156  1  0
 36157  1  0
 39158  1  0
 39159  1  0
 40160  1  0
 40161  1  0
 40162  1  0
 41163  1  0
 42164  1  0
 45165  1  0
 51166  1  0
 52167  1  0
 53168  1  0
 55169  1  0
 55170  1  0
 56171  1  0
 56172  1  0
 56173  1  0
 57174  1  0
 73175  1  0
 74176  1  0
 75177  1  0
 77178  1  0
 77179  1  0
 78180  1  0
 78181  1  0
 78182  1  0
 79183  1  0
 91184  1  0
 91185  1  0
 92186  1  0
 92187  1  0
 92188  1  0
 93189  1  0
 93190  1  0
 94191  1  0
 94192  1  0
 94193  1  0
 96194  1  0
100195  1  0
101196  1  0
104197  1  0
104198  1  0
105199  1  0
105200  1  0
105201  1  0
106202  1  0
107203  1  0
112204  1  0
113205  1  0
116206  1  0
116207  1  0
117208  1  0
117209  1  0
117210  1  0
118211  1  0
119212  1  0
122213  1  0
125214  1  0
130215  1  0
131216  1  0
134217  1  0
M  END

