
     RDKit          3D

224244  0  0  0  0  0  0  0  0999 V2000
    0.3694    7.6439   -1.5642 C   0  0  0  0  0  0  0  0  0  0  0  0
    0.1009    7.3188   -2.8416 C   0  0  0  0  0  0  0  0  0  0  0  0
   -0.5726    6.0888   -3.2830 C   0  0  0  0  0  0  0  0  0  0  0  0
   -1.1605    5.2511   -2.5500 O   0  0  0  0  0  0  0  0  0  0  0  0
   -0.2757    5.8902   -4.6866 C   0  0  0  0  0  0  0  0  0  0  0  0
   -0.6248    4.8013   -5.4879 C   0  0  0  0  0  0  0  0  0  0  0  0
   -0.1731    4.7759   -6.8136 C   0  0  0  0  0  0  0  0  0  0  0  0
    0.6266    5.8196   -7.3089 C   0  0  0  0  0  0  0  0  0  0  0  0
    1.2060    5.7666   -8.9602 Cl  0  0  0  0  0  0  0  0  0  0  0  0
    0.9800    6.8980   -6.4813 C   0  0  0  0  0  0  0  0  0  0  0  0
    0.5067    6.9324   -5.1571 C   0  0  0  0  0  0  0  0  0  0  0  0
    0.7313    7.9219   -4.0619 C   0  0  0  0  0  0  0  0  0  0  0  0
    1.2666    9.1703   -4.1741 C   0  0  0  0  0  0  0  0  0  0  0  0
    1.8266    9.6727   -5.4011 C   0  0  0  0  0  0  0  0  0  0  0  0
    2.2952   10.0883   -6.3784 N   0  0  0  0  0  0  0  0  0  0  0  0
    1.2544   10.1225   -3.0929 C   0  0  0  0  0  0  0  0  0  0  0  0
    1.2594   10.8958   -2.2283 N   0  0  0  0  0  0  0  0  0  0  0  0
   -0.2500    7.0293   -0.3770 C   0  0  0  0  0  0  0  0  0  0  0  0
    0.4281    6.7345    0.8038 C   0  0  0  0  0  0  0  0  0  0  0  0
    1.8982    6.7681    0.9600 C   0  0  0  0  0  0  0  0  0  0  0  0
    2.5204    7.9152    1.5161 C   0  0  0  0  0  0  0  0  0  0  0  0
    3.9094    7.9107    1.7235 C   0  0  0  0  0  0  0  0  0  0  0  0
    4.6844    6.7923    1.4007 C   0  0  0  0  0  0  0  0  0  0  0  0
    6.1526    6.7642    1.7362 C   0  0  0  0  0  0  0  0  0  0  0  0
    6.3680    6.2107    3.1428 C   0  0  0  0  0  0  0  0  0  0  0  0
    4.0651    5.6631    0.8554 C   0  0  0  0  0  0  0  0  0  0  0  0
    2.6787    5.6282    0.6390 C   0  0  0  0  0  0  0  0  0  0  0  0
    2.0728    4.3450    0.1010 C   0  0  0  0  0  0  0  0  0  0  0  0
    2.2407    4.2469   -1.4119 C   0  0  0  0  0  0  0  0  0  0  0  0
    1.7257    9.1152    1.9903 C   0  0  0  0  0  0  0  0  0  0  0  0
    1.5251    9.0615    3.5023 C   0  0  0  0  0  0  0  0  0  0  0  0
   -0.4127    6.3703    1.8550 C   0  0  0  0  0  0  0  0  0  0  0  0
   -1.7589    6.3976    1.5236 C   0  0  0  0  0  0  0  0  0  0  0  0
   -1.9120    6.8400   -0.0968 S   0  0  0  0  0  0  0  0  0  0  0  0
   -2.7944    5.8534    2.4047 C   0  0  0  0  0  0  0  0  0  0  0  0
   -2.8294    6.1806    3.7713 C   0  0  0  0  0  0  0  0  0  0  0  0
   -2.5133    7.5209    4.2966 C   0  0  0  0  0  0  0  0  0  0  0  0
   -1.4709    7.7212    5.2147 C   0  0  0  0  0  0  0  0  0  0  0  0
   -1.2301    9.0015    5.7285 C   0  0  0  0  0  0  0  0  0  0  0  0
   -2.0341   10.0816    5.3452 C   0  0  0  0  0  0  0  0  0  0  0  0
   -3.0886    9.8878    4.4370 C   0  0  0  0  0  0  0  0  0  0  0  0
   -3.9707   11.0409    4.0390 C   0  0  0  0  0  0  0  0  0  0  0  0
   -3.5042   11.6607    2.7248 C   0  0  0  0  0  0  0  0  0  0  0  0
   -3.3064    8.6090    3.8983 C   0  0  0  0  0  0  0  0  0  0  0  0
   -3.1722    5.0799    4.5622 C   0  0  0  0  0  0  0  0  0  0  0  0
   -2.7887    4.7153    6.1770 S   0  0  0  0  0  0  0  0  0  0  0  0
   -3.1047    3.0667    5.9442 C   0  0  0  0  0  0  0  0  0  0  0  0
   -2.5348    1.9267    6.4499 C   0  0  0  0  0  0  0  0  0  0  0  0
   -1.5420    1.7816    7.4376 C   0  0  0  0  0  0  0  0  0  0  0  0
   -0.7713    0.5789    7.4738 C   0  0  0  0  0  0  0  0  0  0  0  0
    0.2015    0.4945    8.4172 N   0  0  0  0  0  0  0  0  0  0  0  0
    0.0291    1.9835    9.1218 S   0  0  0  0  0  0  0  0  0  0  0  0
   -1.2076    2.7486    8.3290 N   0  0  0  0  0  0  0  0  0  0  0  0
   -1.0940   -0.4491    6.5867 C   0  0  0  0  0  0  0  0  0  0  0  0
   -0.5926   -1.7114    6.3984 C   0  0  0  0  0  0  0  0  0  0  0  0
    0.8463   -2.5881    6.6512 S   0  0  0  0  0  0  0  0  0  0  0  0
    0.3446   -3.8047    5.5516 C   0  0  0  0  0  0  0  0  0  0  0  0
    0.9903   -4.8692    4.9082 C   0  0  0  0  0  0  0  0  0  0  0  0
    2.3721   -5.2832    5.1925 C   0  0  0  0  0  0  0  0  0  0  0  0
    3.4520   -4.5992    4.6153 C   0  0  0  0  0  0  0  0  0  0  0  0
    4.7623   -4.9775    4.9156 C   0  0  0  0  0  0  0  0  0  0  0  0
    5.0065   -6.0289    5.8034 C   0  0  0  0  0  0  0  0  0  0  0  0
    3.9322   -6.7147    6.3977 C   0  0  0  0  0  0  0  0  0  0  0  0
    4.1932   -7.8148    7.3950 C   0  0  0  0  0  0  0  0  0  0  0  0
    4.1750   -7.2689    8.8216 C   0  0  0  0  0  0  0  0  0  0  0  0
    2.6152   -6.3327    6.0901 C   0  0  0  0  0  0  0  0  0  0  0  0
    0.1716   -5.4114    3.8941 C   0  0  0  0  0  0  0  0  0  0  0  0
   -1.2804   -4.5285    3.7949 S   0  0  0  0  0  0  0  0  0  0  0  0
   -0.8946   -3.5087    5.0433 C   0  0  0  0  0  0  0  0  0  0  0  0
   -1.4000   -2.3135    5.4923 C   0  0  0  0  0  0  0  0  0  0  0  0
   -2.3840   -1.5125    5.0258 N   0  0  0  0  0  0  0  0  0  0  0  0
   -2.1347   -0.3222    5.6516 C   0  0  0  0  0  0  0  0  0  0  0  0
   -2.7448    0.9393    5.4795 C   0  0  0  0  0  0  0  0  0  0  0  0
   -3.2391    1.4886    4.3279 N   0  0  0  0  0  0  0  0  0  0  0  0
   -3.4680    2.7873    4.6524 C   0  0  0  0  0  0  0  0  0  0  0  0
   -3.4831    3.9396    3.8629 C   0  0  0  0  0  0  0  0  0  0  0  0
   -3.2597    4.2320    2.2270 S   0  0  0  0  0  0  0  0  0  0  0  0
   -3.0021    1.0115    2.9568 C   0  0  0  0  0  0  0  0  0  0  0  0
   -4.3130    0.8829    2.1858 C   0  0  0  0  0  0  0  0  0  0  0  0
   -3.5999   -1.9966    4.3439 C   0  0  0  0  0  0  0  0  0  0  0  0
   -4.8777   -1.5266    5.0409 C   0  0  0  0  0  0  0  0  0  0  0  0
    0.5194   -6.3569    2.8242 C   0  0  0  0  0  0  0  0  0  0  0  0
    1.5679   -6.1442    1.9198 C   0  0  0  0  0  0  0  0  0  0  0  0
    1.2876   -6.6102    0.6150 C   0  0  0  0  0  0  0  0  0  0  0  0
    2.0503   -6.3637   -0.5514 C   0  0  0  0  0  0  0  0  0  0  0  0
    3.2514   -5.4992   -0.5317 C   0  0  0  0  0  0  0  0  0  0  0  0
    3.2555   -4.1758   -0.1054 C   0  0  0  0  0  0  0  0  0  0  0  0
    4.3785   -3.4497   -0.5206 C   0  0  0  0  0  0  0  0  0  0  0  0
    4.5017   -1.7266   -0.2295 Cl  0  0  0  0  0  0  0  0  0  0  0  0
    5.2846   -4.1926   -1.2769 C   0  0  0  0  0  0  0  0  0  0  0  0
    6.6491   -3.5251   -2.3475 Si  0  0  0  0  0  4  0  0  0  0  0  0
    7.6907   -4.9533   -2.9976 C   0  0  0  0  0  0  0  0  0  0  0  0
    8.3369   -5.7508   -1.8717 C   0  0  0  0  0  0  0  0  0  0  0  0
    7.6969   -2.3012   -1.3641 C   0  0  0  0  0  0  0  0  0  0  0  0
    9.0586   -2.0277   -1.9964 C   0  0  0  0  0  0  0  0  0  0  0  0
    5.7710   -2.6838   -3.7871 C   0  0  0  0  0  0  0  0  0  0  0  0
    6.7263   -2.0907   -4.8149 C   0  0  0  0  0  0  0  0  0  0  0  0
    4.6467   -5.7407   -1.4401 S   0  0  0  0  0  0  0  0  0  0  0  0
    1.4660   -6.7316   -1.7841 C   0  0  0  0  0  0  0  0  0  0  0  0
    0.1508   -7.2050   -1.8785 C   0  0  0  0  0  0  0  0  0  0  0  0
   -0.6064   -7.4510   -0.7150 C   0  0  0  0  0  0  0  0  0  0  0  0
   -2.0793   -7.5617   -0.7836 C   0  0  0  0  0  0  0  0  0  0  0  0
   -3.1024   -6.3088   -0.3435 S   0  0  0  0  0  0  0  0  0  0  0  0
   -4.4745   -6.8575   -1.1323 C   0  0  0  0  0  0  0  0  0  0  0  0
   -5.9867   -5.8012   -1.3835 Si  0  0  0  0  0  4  0  0  0  0  0  0
   -6.1195   -4.5097   -0.0072 C   0  0  0  0  0  0  0  0  0  0  0  0
   -5.1390   -3.3498   -0.1515 C   0  0  0  0  0  0  0  0  0  0  0  0
   -7.5341   -6.8760   -1.3437 C   0  0  0  0  0  0  0  0  0  0  0  0
   -8.8166   -6.0464   -1.3794 C   0  0  0  0  0  0  0  0  0  0  0  0
   -5.9143   -4.9695   -3.0741 C   0  0  0  0  0  0  0  0  0  0  0  0
   -4.4855   -4.6988   -3.5283 C   0  0  0  0  0  0  0  0  0  0  0  0
   -4.1401   -8.0528   -1.7747 C   0  0  0  0  0  0  0  0  0  0  0  0
   -2.8076   -8.4484   -1.5704 C   0  0  0  0  0  0  0  0  0  0  0  0
   -5.1850   -8.9100   -2.8893 Cl  0  0  0  0  0  0  0  0  0  0  0  0
    0.0247   -7.2035    0.5160 C   0  0  0  0  0  0  0  0  0  0  0  0
   -0.7100   -7.1821    2.0165 S   0  0  0  0  0  0  0  0  0  0  0  0
   -0.3471   -7.1929   -3.1943 C   0  0  0  0  0  0  0  0  0  0  0  0
    0.5883   -6.7975   -4.1460 C   0  0  0  0  0  0  0  0  0  0  0  0
    1.9932   -6.3492   -3.3369 S   0  0  0  0  0  0  0  0  0  0  0  0
    0.3187   -6.4080   -5.5450 C   0  0  0  0  0  0  0  0  0  0  0  0
   -0.6717   -6.8875   -6.3228 C   0  0  0  0  0  0  0  0  0  0  0  0
   -1.6364   -7.9350   -5.9710 C   0  0  0  0  0  0  0  0  0  0  0  0
   -1.4066   -8.9532   -5.2644 O   0  0  0  0  0  0  0  0  0  0  0  0
   -2.8677   -7.6643   -6.6860 C   0  0  0  0  0  0  0  0  0  0  0  0
   -4.1192   -8.2485   -6.4978 C   0  0  0  0  0  0  0  0  0  0  0  0
   -5.2090   -7.7418   -7.2170 C   0  0  0  0  0  0  0  0  0  0  0  0
   -5.0328   -6.6574   -8.0983 C   0  0  0  0  0  0  0  0  0  0  0  0
   -6.4108   -6.0099   -8.9670 Cl  0  0  0  0  0  0  0  0  0  0  0  0
   -3.7585   -6.0835   -8.2786 C   0  0  0  0  0  0  0  0  0  0  0  0
   -2.6702   -6.6145   -7.5681 C   0  0  0  0  0  0  0  0  0  0  0  0
   -1.2470   -6.1773   -7.5005 C   0  0  0  0  0  0  0  0  0  0  0  0
   -0.5588   -5.4768   -8.4379 C   0  0  0  0  0  0  0  0  0  0  0  0
   -1.1996   -4.8633   -9.5687 C   0  0  0  0  0  0  0  0  0  0  0  0
   -1.7044   -4.3503  -10.4810 N   0  0  0  0  0  0  0  0  0  0  0  0
    0.8812   -5.3853   -8.4091 C   0  0  0  0  0  0  0  0  0  0  0  0
    2.0375   -5.3086   -8.3907 N   0  0  0  0  0  0  0  0  0  0  0  0
    1.1566    8.3451   -1.3496 H   0  0  0  0  0  0  0  0  0  0  0  0
   -1.2243    3.9893   -5.0944 H   0  0  0  0  0  0  0  0  0  0  0  0
   -0.4285    3.9369   -7.4479 H   0  0  0  0  0  0  0  0  0  0  0  0
    1.6221    7.6594   -6.8809 H   0  0  0  0  0  0  0  0  0  0  0  0
    4.3828    8.7706    2.1840 H   0  0  0  0  0  0  0  0  0  0  0  0
    6.5797    7.7892    1.6738 H   0  0  0  0  0  0  0  0  0  0  0  0
    6.7006    6.1315    1.0047 H   0  0  0  0  0  0  0  0  0  0  0  0
    5.8171    6.8245    3.8901 H   0  0  0  0  0  0  0  0  0  0  0  0
    7.4493    6.2360    3.3900 H   0  0  0  0  0  0  0  0  0  0  0  0
    6.0110    5.1612    3.2024 H   0  0  0  0  0  0  0  0  0  0  0  0
    4.6644    4.7914    0.6252 H   0  0  0  0  0  0  0  0  0  0  0  0
    0.9980    4.2545    0.3650 H   0  0  0  0  0  0  0  0  0  0  0  0
    2.5796    3.4752    0.5706 H   0  0  0  0  0  0  0  0  0  0  0  0
    1.8821    3.2542   -1.7559 H   0  0  0  0  0  0  0  0  0  0  0  0
    1.6438    5.0314   -1.9148 H   0  0  0  0  0  0  0  0  0  0  0  0
    3.3058    4.3602   -1.6982 H   0  0  0  0  0  0  0  0  0  0  0  0
    0.7371    9.1714    1.4920 H   0  0  0  0  0  0  0  0  0  0  0  0
    2.2619   10.0515    1.7267 H   0  0  0  0  0  0  0  0  0  0  0  0
    2.4675    9.3376    4.0194 H   0  0  0  0  0  0  0  0  0  0  0  0
    0.7366    9.7865    3.7934 H   0  0  0  0  0  0  0  0  0  0  0  0
    1.2179    8.0472    3.8309 H   0  0  0  0  0  0  0  0  0  0  0  0
   -0.0456    6.0607    2.8237 H   0  0  0  0  0  0  0  0  0  0  0  0
   -0.8342    6.8988    5.5206 H   0  0  0  0  0  0  0  0  0  0  0  0
   -0.4182    9.1561    6.4270 H   0  0  0  0  0  0  0  0  0  0  0  0
   -1.8407   11.0690    5.7574 H   0  0  0  0  0  0  0  0  0  0  0  0
   -3.9688   11.8211    4.8318 H   0  0  0  0  0  0  0  0  0  0  0  0
   -5.0205   10.6887    3.9261 H   0  0  0  0  0  0  0  0  0  0  0  0
   -4.1789   12.5012    2.4551 H   0  0  0  0  0  0  0  0  0  0  0  0
   -3.5349   10.9073    1.9120 H   0  0  0  0  0  0  0  0  0  0  0  0
   -2.4707   12.0513    2.8299 H   0  0  0  0  0  0  0  0  0  0  0  0
   -4.1169    8.4537    3.1914 H   0  0  0  0  0  0  0  0  0  0  0  0
    3.2776   -3.7738    3.9318 H   0  0  0  0  0  0  0  0  0  0  0  0
    5.5930   -4.4531    4.4583 H   0  0  0  0  0  0  0  0  0  0  0  0
    6.0308   -6.2992    6.0398 H   0  0  0  0  0  0  0  0  0  0  0  0
    3.4257   -8.6107    7.2926 H   0  0  0  0  0  0  0  0  0  0  0  0
    5.1808   -8.2891    7.1993 H   0  0  0  0  0  0  0  0  0  0  0  0
    4.3930   -8.0922    9.5338 H   0  0  0  0  0  0  0  0  0  0  0  0
    3.1746   -6.8504    9.0622 H   0  0  0  0  0  0  0  0  0  0  0  0
    4.9460   -6.4786    8.9424 H   0  0  0  0  0  0  0  0  0  0  0  0
    1.7817   -6.8451    6.5576 H   0  0  0  0  0  0  0  0  0  0  0  0
   -2.4469    0.0603    2.9443 H   0  0  0  0  0  0  0  0  0  0  0  0
   -2.3220    1.7071    2.4271 H   0  0  0  0  0  0  0  0  0  0  0  0
   -4.9272    0.0490    2.5816 H   0  0  0  0  0  0  0  0  0  0  0  0
   -4.0964    0.6831    1.1155 H   0  0  0  0  0  0  0  0  0  0  0  0
   -4.9082    1.8158    2.2601 H   0  0  0  0  0  0  0  0  0  0  0  0
   -3.6254   -3.1056    4.3678 H   0  0  0  0  0  0  0  0  0  0  0  0
   -3.5943   -1.7257    3.2749 H   0  0  0  0  0  0  0  0  0  0  0  0
   -5.0044   -0.4300    4.9536 H   0  0  0  0  0  0  0  0  0  0  0  0
   -5.7552   -2.0085    4.5612 H   0  0  0  0  0  0  0  0  0  0  0  0
   -4.8521   -1.8067    6.1169 H   0  0  0  0  0  0  0  0  0  0  0  0
    2.4289   -5.5324    2.1526 H   0  0  0  0  0  0  0  0  0  0  0  0
    2.4132   -3.7187    0.3976 H   0  0  0  0  0  0  0  0  0  0  0  0
    8.4828   -4.5496   -3.6645 H   0  0  0  0  0  0  0  0  0  0  0  0
    7.0384   -5.6201   -3.5989 H   0  0  0  0  0  0  0  0  0  0  0  0
    8.9464   -6.5712   -2.3055 H   0  0  0  0  0  0  0  0  0  0  0  0
    7.5619   -6.1978   -1.2181 H   0  0  0  0  0  0  0  0  0  0  0  0
    9.0001   -5.1029   -1.2612 H   0  0  0  0  0  0  0  0  0  0  0  0
    7.8520   -2.7175   -0.3471 H   0  0  0  0  0  0  0  0  0  0  0  0
    7.1394   -1.3457   -1.2742 H   0  0  0  0  0  0  0  0  0  0  0  0
    9.6099   -1.2992   -1.3668 H   0  0  0  0  0  0  0  0  0  0  0  0
    9.6612   -2.9546   -2.0622 H   0  0  0  0  0  0  0  0  0  0  0  0
    8.9531   -1.5935   -3.0078 H   0  0  0  0  0  0  0  0  0  0  0  0
    5.1148   -1.8809   -3.3888 H   0  0  0  0  0  0  0  0  0  0  0  0
    5.1302   -3.4440   -4.2836 H   0  0  0  0  0  0  0  0  0  0  0  0
    7.2257   -1.1919   -4.4043 H   0  0  0  0  0  0  0  0  0  0  0  0
    7.4837   -2.8380   -5.1299 H   0  0  0  0  0  0  0  0  0  0  0  0
    6.1511   -1.7760   -5.7110 H   0  0  0  0  0  0  0  0  0  0  0  0
   -7.1452   -4.0917   -0.0099 H   0  0  0  0  0  0  0  0  0  0  0  0
   -5.9519   -5.0173    0.9656 H   0  0  0  0  0  0  0  0  0  0  0  0
   -4.0878   -3.7044   -0.1620 H   0  0  0  0  0  0  0  0  0  0  0  0
   -5.2600   -2.6641    0.7163 H   0  0  0  0  0  0  0  0  0  0  0  0
   -5.3422   -2.7751   -1.0805 H   0  0  0  0  0  0  0  0  0  0  0  0
   -7.5222   -7.5418   -2.2300 H   0  0  0  0  0  0  0  0  0  0  0  0
   -7.5225   -7.4996   -0.4259 H   0  0  0  0  0  0  0  0  0  0  0  0
   -8.7913   -5.3181   -2.2206 H   0  0  0  0  0  0  0  0  0  0  0  0
   -9.6876   -6.7205   -1.5282 H   0  0  0  0  0  0  0  0  0  0  0  0
   -8.9562   -5.5051   -0.4221 H   0  0  0  0  0  0  0  0  0  0  0  0
   -6.4809   -4.0139   -3.0235 H   0  0  0  0  0  0  0  0  0  0  0  0
   -6.4099   -5.6318   -3.8165 H   0  0  0  0  0  0  0  0  0  0  0  0
   -3.9347   -5.6522   -3.6657 H   0  0  0  0  0  0  0  0  0  0  0  0
   -3.9507   -4.0651   -2.7901 H   0  0  0  0  0  0  0  0  0  0  0  0
   -4.5041   -4.1609   -4.5004 H   0  0  0  0  0  0  0  0  0  0  0  0
   -2.3601   -9.2926   -2.0757 H   0  0  0  0  0  0  0  0  0  0  0  0
   -1.3882   -7.3280   -3.4286 H   0  0  0  0  0  0  0  0  0  0  0  0
    0.8966   -5.5620   -5.8840 H   0  0  0  0  0  0  0  0  0  0  0  0
   -4.2530   -9.0638   -5.8014 H   0  0  0  0  0  0  0  0  0  0  0  0
   -6.1913   -8.1764   -7.0766 H   0  0  0  0  0  0  0  0  0  0  0  0
   -3.6567   -5.2212   -8.9175 H   0  0  0  0  0  0  0  0  0  0  0  0
  1  2  2  3
  2  3  1  0
  3  4  2  0
  3  5  1  0
  5  6  2  0
  6  7  1  0
  7  8  2  0
  8  9  1  0
  8 10  1  0
 10 11  2  0
 11 12  1  0
 12 13  2  3
 13 14  1  0
 14 15  3  0
 13 16  1  0
 16 17  3  0
  1 18  1  0
 18 19  2  0
 19 20  1  0
 20 21  2  0
 21 22  1  0
 22 23  2  0
 23 24  1  0
 24 25  1  0
 23 26  1  0
 26 27  2  0
 27 28  1  0
 28 29  1  0
 21 30  1  0
 30 31  1  0
 19 32  1  0
 32 33  2  0
 33 34  1  0
 33 35  1  0
 35 36  2  0
 36 37  1  0
 37 38  2  0
 38 39  1  0
 39 40  2  0
 40 41  1  0
 41 42  1  0
 42 43  1  0
 41 44  2  0
 36 45  1  0
 45 46  1  0
 46 47  1  0
 47 48  1  0
 48 49  1  0
 49 50  1  0
 50 51  2  0
 51 52  1  0
 52 53  1  0
 50 54  1  0
 54 55  1  0
 55 56  1  0
 56 57  1  0
 57 58  1  0
 58 59  1  0
 59 60  2  0
 60 61  1  0
 61 62  2  0
 62 63  1  0
 63 64  1  0
 64 65  1  0
 63 66  2  0
 58 67  2  0
 67 68  1  0
 68 69  1  0
 69 70  1  0
 70 71  1  0
 71 72  1  0
 72 73  1  0
 73 74  1  0
 74 75  1  0
 75 76  1  0
 76 77  1  0
 74 78  1  0
 78 79  1  0
 71 80  1  0
 80 81  1  0
 67 82  1  0
 82 83  2  0
 83 84  1  0
 84 85  2  0
 85 86  1  0
 86 87  2  0
 87 88  1  0
 88 89  1  0
 88 90  2  0
 90 91  1  0
 91 92  1  0
 92 93  1  0
 91 94  1  0
 94 95  1  0
 91 96  1  0
 96 97  1  0
 90 98  1  0
 85 99  1  0
 99100  2  0
100101  1  0
101102  1  0
102103  1  0
103104  1  0
104105  1  0
105106  1  0
106107  1  0
105108  1  0
108109  1  0
105110  1  0
110111  1  0
104112  2  0
112113  1  0
112114  1  0
101115  2  0
115116  1  0
100117  1  0
117118  2  0
118119  1  0
118120  1  0
120121  2  3
121122  1  0
122123  2  0
122124  1  0
124125  2  0
125126  1  0
126127  2  0
127128  1  0
127129  1  0
129130  2  0
130131  1  0
131132  2  3
132133  1  0
133134  3  0
132135  1  0
135136  3  0
 12  2  1  0
 34 18  1  0
 77 35  1  0
116 82  1  0
131121  1  0
 11  5  1  0
 27 20  1  0
 44 37  1  0
 76 45  2  0
115 84  1  0
130124  1  0
 75 47  2  0
 98 86  1  0
119 99  1  0
 73 48  2  0
113102  2  0
 53 49  2  0
 72 54  2  0
 70 55  2  0
 69 57  2  0
 66 59  1  0
  1137  1  0
  6138  1  0
  7139  1  0
 10140  1  0
 22141  1  0
 24142  1  0
 24143  1  0
 25144  1  0
 25145  1  0
 25146  1  0
 26147  1  0
 28148  1  0
 28149  1  0
 29150  1  0
 29151  1  0
 29152  1  0
 30153  1  0
 30154  1  0
 31155  1  0
 31156  1  0
 31157  1  0
 32158  1  0
 38159  1  0
 39160  1  0
 40161  1  0
 42162  1  0
 42163  1  0
 43164  1  0
 43165  1  0
 43166  1  0
 44167  1  0
 60168  1  0
 61169  1  0
 62170  1  0
 64171  1  0
 64172  1  0
 65173  1  0
 65174  1  0
 65175  1  0
 66176  1  0
 78177  1  0
 78178  1  0
 79179  1  0
 79180  1  0
 79181  1  0
 80182  1  0
 80183  1  0
 81184  1  0
 81185  1  0
 81186  1  0
 83187  1  0
 87188  1  0
 92189  1  0
 92190  1  0
 93191  1  0
 93192  1  0
 93193  1  0
 94194  1  0
 94195  1  0
 95196  1  0
 95197  1  0
 95198  1  0
 96199  1  0
 96200  1  0
 97201  1  0
 97202  1  0
 97203  1  0
106204  1  0
106205  1  0
107206  1  0
107207  1  0
107208  1  0
108209  1  0
108210  1  0
109211  1  0
109212  1  0
109213  1  0
110214  1  0
110215  1  0
111216  1  0
111217  1  0
111218  1  0
113219  1  0
117220  1  0
120221  1  0
125222  1  0
126223  1  0
129224  1  0
M  END

