
     RDKit          3D

208230  0  0  0  0  0  0  0  0999 V2000
   -8.0596   -1.7797    3.8610 C   0  0  0  0  0  0  0  0  0  0  0  0
   -8.5421   -0.6451    3.2868 C   0  0  0  0  0  0  0  0  0  0  0  0
   -7.7736    0.4169    2.6027 C   0  0  0  0  0  0  0  0  0  0  0  0
   -6.5794    0.7305    2.8452 O   0  0  0  0  0  0  0  0  0  0  0  0
   -8.6285    1.1002    1.6696 C   0  0  0  0  0  0  0  0  0  0  0  0
   -8.3964    2.2812    0.9793 C   0  0  0  0  0  0  0  0  0  0  0  0
   -9.4597    2.8918    0.3028 C   0  0  0  0  0  0  0  0  0  0  0  0
  -10.7615    2.3332    0.3573 C   0  0  0  0  0  0  0  0  0  0  0  0
  -12.0674    3.1042   -0.4973 Cl  0  0  0  0  0  0  0  0  0  0  0  0
  -10.9834    1.1570    1.0846 C   0  0  0  0  0  0  0  0  0  0  0  0
   -9.8939    0.5481    1.7343 C   0  0  0  0  0  0  0  0  0  0  0  0
   -9.9310   -0.5020    2.7933 C   0  0  0  0  0  0  0  0  0  0  0  0
  -11.0259   -1.1897    3.2231 C   0  0  0  0  0  0  0  0  0  0  0  0
  -11.4104   -1.0024    4.5878 C   0  0  0  0  0  0  0  0  0  0  0  0
  -11.7124   -0.8251    5.6898 N   0  0  0  0  0  0  0  0  0  0  0  0
  -11.9548   -1.7242    2.2967 C   0  0  0  0  0  0  0  0  0  0  0  0
  -12.6583   -2.1281    1.4726 N   0  0  0  0  0  0  0  0  0  0  0  0
   -6.6851   -2.2679    3.6606 C   0  0  0  0  0  0  0  0  0  0  0  0
   -6.3717   -3.4061    2.9031 C   0  0  0  0  0  0  0  0  0  0  0  0
   -7.3464   -4.2450    2.2759 N   0  0  0  0  0  0  0  0  0  0  0  0
   -7.1239   -5.6645    2.4199 C   0  0  0  0  0  0  0  0  0  0  0  0
   -6.9366   -6.1948    3.7199 C   0  0  0  0  0  0  0  0  0  0  0  0
   -6.5059   -7.5207    3.8761 C   0  0  0  0  0  0  0  0  0  0  0  0
   -6.2167   -8.2933    2.7492 C   0  0  0  0  0  0  0  0  0  0  0  0
   -5.6134   -9.6566    2.8709 C   0  0  0  0  0  0  0  0  0  0  0  0
   -6.4563   -7.7677    1.4706 C   0  0  0  0  0  0  0  0  0  0  0  0
   -6.9054   -6.4627    1.3103 C   0  0  0  0  0  0  0  0  0  0  0  0
   -7.9767   -3.7545    1.0671 C   0  0  0  0  0  0  0  0  0  0  0  0
   -7.2624   -3.0044    0.1256 C   0  0  0  0  0  0  0  0  0  0  0  0
   -7.7809   -2.7822   -1.1423 C   0  0  0  0  0  0  0  0  0  0  0  0
   -9.0229   -3.3142   -1.5024 C   0  0  0  0  0  0  0  0  0  0  0  0
   -9.4563   -3.2372   -2.9263 C   0  0  0  0  0  0  0  0  0  0  0  0
   -9.7648   -4.0228   -0.5493 C   0  0  0  0  0  0  0  0  0  0  0  0
   -9.2539   -4.2616    0.7257 C   0  0  0  0  0  0  0  0  0  0  0  0
   -4.9859   -3.5572    2.7909 C   0  0  0  0  0  0  0  0  0  0  0  0
   -4.0030   -4.5507    1.8698 S   0  0  0  0  0  0  0  0  0  0  0  0
   -2.5586   -3.7711    2.3295 C   0  0  0  0  0  0  0  0  0  0  0  0
   -2.8883   -2.6757    3.1843 C   0  0  0  0  0  0  0  0  0  0  0  0
   -1.9214   -1.8558    3.8683 N   0  0  0  0  0  0  0  0  0  0  0  0
   -2.1783   -1.5398    5.2467 C   0  0  0  0  0  0  0  0  0  0  0  0
   -2.1699   -0.2068    5.6837 C   0  0  0  0  0  0  0  0  0  0  0  0
   -2.6157    0.1079    6.9527 C   0  0  0  0  0  0  0  0  0  0  0  0
   -3.0308   -0.8877    7.8420 C   0  0  0  0  0  0  0  0  0  0  0  0
   -3.6246   -0.5185    9.1692 C   0  0  0  0  0  0  0  0  0  0  0  0
   -2.9746   -2.2339    7.4238 C   0  0  0  0  0  0  0  0  0  0  0  0
   -2.5522   -2.5575    6.1220 C   0  0  0  0  0  0  0  0  0  0  0  0
   -1.0436   -0.9853    3.1016 C   0  0  0  0  0  0  0  0  0  0  0  0
   -1.5170   -0.2536    2.0073 C   0  0  0  0  0  0  0  0  0  0  0  0
   -0.7569    0.7873    1.4550 C   0  0  0  0  0  0  0  0  0  0  0  0
    0.4835    1.1108    2.0106 C   0  0  0  0  0  0  0  0  0  0  0  0
    1.2244    2.3403    1.5842 C   0  0  0  0  0  0  0  0  0  0  0  0
    0.9664    0.3586    3.0843 C   0  0  0  0  0  0  0  0  0  0  0  0
    0.2129   -0.6846    3.6324 C   0  0  0  0  0  0  0  0  0  0  0  0
   -4.2711   -2.5939    3.4356 C   0  0  0  0  0  0  0  0  0  0  0  0
   -5.2694   -1.4916    4.2255 S   0  0  0  0  0  0  0  0  0  0  0  0
   -1.3207   -3.8516    1.4734 C   0  0  0  0  0  0  0  0  0  0  0  0
   -0.2238   -4.7629    1.6473 C   0  0  0  0  0  0  0  0  0  0  0  0
    0.2238   -5.2664    2.9455 C   0  0  0  0  0  0  0  0  0  0  0  0
   -0.3390   -6.4209    3.5184 C   0  0  0  0  0  0  0  0  0  0  0  0
    0.1773   -6.9206    4.7228 C   0  0  0  0  0  0  0  0  0  0  0  0
    1.2215   -6.2440    5.3537 C   0  0  0  0  0  0  0  0  0  0  0  0
    1.7622   -5.0811    4.7843 C   0  0  0  0  0  0  0  0  0  0  0  0
    2.9165   -4.3425    5.4373 C   0  0  0  0  0  0  0  0  0  0  0  0
    4.2677   -4.5696    4.7315 C   0  0  0  0  0  0  0  0  0  0  0  0
    1.2615   -4.5950    3.5857 C   0  0  0  0  0  0  0  0  0  0  0  0
    0.6457   -4.7062    0.5301 C   0  0  0  0  0  0  0  0  0  0  0  0
    2.1989   -5.3707    0.1598 S   0  0  0  0  0  0  0  0  0  0  0  0
    2.2851   -4.4448   -1.2428 C   0  0  0  0  0  0  0  0  0  0  0  0
    3.2330   -4.0344   -2.1738 C   0  0  0  0  0  0  0  0  0  0  0  0
    4.5553   -4.4475   -2.4423 C   0  0  0  0  0  0  0  0  0  0  0  0
    5.3917   -3.6256   -3.3217 C   0  0  0  0  0  0  0  0  0  0  0  0
    6.6759   -3.9948   -3.5011 N   0  0  0  0  0  0  0  0  0  0  0  0
    6.6290   -5.3751   -2.5717 S   0  0  0  0  0  0  0  0  0  0  0  0
    5.1255   -5.5577   -1.9005 N   0  0  0  0  0  0  0  0  0  0  0  0
    4.8543   -2.3974   -3.8027 C   0  0  0  0  0  0  0  0  0  0  0  0
    5.4838   -1.2549   -4.2675 C   0  0  0  0  0  0  0  0  0  0  0  0
    7.1018   -0.7018   -4.2741 S   0  0  0  0  0  0  0  0  0  0  0  0
    6.5501    0.9137   -4.3162 C   0  0  0  0  0  0  0  0  0  0  0  0
    7.2163    2.1556   -4.1789 C   0  0  0  0  0  0  0  0  0  0  0  0
    8.6676    2.2854   -4.0093 C   0  0  0  0  0  0  0  0  0  0  0  0
    9.2451    2.9986   -2.9461 C   0  0  0  0  0  0  0  0  0  0  0  0
   10.6112    2.8896   -2.6693 C   0  0  0  0  0  0  0  0  0  0  0  0
   11.4162    2.0539   -3.4490 C   0  0  0  0  0  0  0  0  0  0  0  0
   10.8585    1.3591   -4.5344 C   0  0  0  0  0  0  0  0  0  0  0  0
   11.6459    0.3376   -5.2894 C   0  0  0  0  0  0  0  0  0  0  0  0
   11.6792   -1.0056   -4.5397 C   0  0  0  0  0  0  0  0  0  0  0  0
    9.5030    1.4831   -4.8024 C   0  0  0  0  0  0  0  0  0  0  0  0
    6.2460    3.2115   -4.0810 C   0  0  0  0  0  0  0  0  0  0  0  0
    4.6706    2.5826   -4.0608 S   0  0  0  0  0  0  0  0  0  0  0  0
    5.1713    1.0050   -4.2497 C   0  0  0  0  0  0  0  0  0  0  0  0
    4.5652   -0.2623   -4.2090 C   0  0  0  0  0  0  0  0  0  0  0  0
    3.3622   -0.6302   -3.6978 N   0  0  0  0  0  0  0  0  0  0  0  0
    3.5177   -1.9983   -3.5296 C   0  0  0  0  0  0  0  0  0  0  0  0
    2.6581   -2.9017   -2.8034 C   0  0  0  0  0  0  0  0  0  0  0  0
    1.3708   -2.6915   -2.3880 N   0  0  0  0  0  0  0  0  0  0  0  0
    1.2118   -3.6077   -1.4104 C   0  0  0  0  0  0  0  0  0  0  0  0
    0.2641   -3.7899   -0.4168 C   0  0  0  0  0  0  0  0  0  0  0  0
   -1.1689   -2.9948   -0.0123 S   0  0  0  0  0  0  0  0  0  0  0  0
    0.2901   -2.0458   -3.1449 C   0  0  0  0  0  0  0  0  0  0  0  0
   -0.6031   -3.0825   -3.7896 C   0  0  0  0  0  0  0  0  0  0  0  0
    2.4709    0.2810   -2.9841 C   0  0  0  0  0  0  0  0  0  0  0  0
    1.5776    1.0523   -3.9598 C   0  0  0  0  0  0  0  0  0  0  0  0
    6.5124    4.6211   -3.6838 C   0  0  0  0  0  0  0  0  0  0  0  0
    6.2079    5.0143   -2.3758 C   0  0  0  0  0  0  0  0  0  0  0  0
    5.9159    4.2092   -1.1716 C   0  0  0  0  0  0  0  0  0  0  0  0
    6.0214    2.9442   -1.1230 O   0  0  0  0  0  0  0  0  0  0  0  0
    5.5212    5.0252   -0.0829 N   0  0  0  0  0  0  0  0  0  0  0  0
    5.1842    4.5684    1.2662 C   0  0  0  0  0  0  0  0  0  0  0  0
    6.3014    4.9358    2.2427 C   0  0  0  0  0  0  0  0  0  0  0  0
    5.5374    6.3629   -0.6141 C   0  0  0  0  0  0  0  0  0  0  0  0
    5.2294    7.3798    0.0642 O   0  0  0  0  0  0  0  0  0  0  0  0
    6.0174    6.3405   -2.0108 C   0  0  0  0  0  0  0  0  0  0  0  0
    6.1269    7.4020   -2.9473 C   0  0  0  0  0  0  0  0  0  0  0  0
    6.4422    7.0597   -4.2769 C   0  0  0  0  0  0  0  0  0  0  0  0
    6.6501    5.6560   -4.6494 C   0  0  0  0  0  0  0  0  0  0  0  0
    6.9185    5.3967   -5.9530 N   0  0  0  0  0  0  0  0  0  0  0  0
    6.8420    6.9357   -6.5507 S   0  0  0  0  0  0  0  0  0  0  0  0
    6.4886    7.9705   -5.2911 N   0  0  0  0  0  0  0  0  0  0  0  0
    5.5503    8.7218   -2.6390 C   0  0  0  0  0  0  0  0  0  0  0  0
    4.2416    8.9327   -2.7782 C   0  0  0  0  0  0  0  0  0  0  0  0
    3.3192    7.8163   -3.1279 C   0  0  0  0  0  0  0  0  0  0  0  0
    2.9564    6.8904   -2.3564 O   0  0  0  0  0  0  0  0  0  0  0  0
    2.5750    8.2283   -4.2965 C   0  0  0  0  0  0  0  0  0  0  0  0
    1.6668    7.4829   -5.0451 C   0  0  0  0  0  0  0  0  0  0  0  0
    1.3644    6.1790   -4.6351 O   0  0  0  0  0  0  0  0  0  0  0  0
    0.1862    5.4769   -4.9913 C   0  0  0  0  0  0  0  0  0  0  0  0
    1.0173    8.1408   -6.1638 C   0  0  0  0  0  0  0  0  0  0  0  0
    1.3732    9.4554   -6.4719 C   0  0  0  0  0  0  0  0  0  0  0  0
    2.1393   10.2095   -5.6038 C   0  0  0  0  0  0  0  0  0  0  0  0
    2.7687    9.5873   -4.5181 C   0  0  0  0  0  0  0  0  0  0  0  0
    3.5974   10.1223   -3.4633 C   0  0  0  0  0  0  0  0  0  0  0  0
    3.8643   11.4475   -3.2163 C   0  0  0  0  0  0  0  0  0  0  0  0
    5.0383   11.8673   -2.5084 C   0  0  0  0  0  0  0  0  0  0  0  0
    6.0220   12.2647   -2.0404 N   0  0  0  0  0  0  0  0  0  0  0  0
    3.0276   12.4845   -3.7966 C   0  0  0  0  0  0  0  0  0  0  0  0
    2.2912   13.2383   -4.2738 N   0  0  0  0  0  0  0  0  0  0  0  0
   -8.8091   -2.5159    4.1483 H   0  0  0  0  0  0  0  0  0  0  0  0
   -7.4226    2.7342    1.0306 H   0  0  0  0  0  0  0  0  0  0  0  0
   -9.2937    3.8269   -0.2209 H   0  0  0  0  0  0  0  0  0  0  0  0
  -11.9761    0.7415    1.1421 H   0  0  0  0  0  0  0  0  0  0  0  0
   -7.0826   -5.5834    4.5889 H   0  0  0  0  0  0  0  0  0  0  0  0
   -6.3571   -7.9011    4.8615 H   0  0  0  0  0  0  0  0  0  0  0  0
   -6.3405  -10.3685    3.3493 H   0  0  0  0  0  0  0  0  0  0  0  0
   -5.3005  -10.0793    1.8965 H   0  0  0  0  0  0  0  0  0  0  0  0
   -4.7175   -9.5868    3.5200 H   0  0  0  0  0  0  0  0  0  0  0  0
   -6.2870   -8.3406    0.5813 H   0  0  0  0  0  0  0  0  0  0  0  0
   -6.9824   -6.0993    0.3111 H   0  0  0  0  0  0  0  0  0  0  0  0
   -6.2751   -2.6587    0.3498 H   0  0  0  0  0  0  0  0  0  0  0  0
   -7.1993   -2.2562   -1.8401 H   0  0  0  0  0  0  0  0  0  0  0  0
  -10.5336   -2.9337   -2.9937 H   0  0  0  0  0  0  0  0  0  0  0  0
   -8.8739   -2.4893   -3.4940 H   0  0  0  0  0  0  0  0  0  0  0  0
   -9.3276   -4.2324   -3.4071 H   0  0  0  0  0  0  0  0  0  0  0  0
  -10.7429   -4.4330   -0.8201 H   0  0  0  0  0  0  0  0  0  0  0  0
   -9.8228   -4.8642    1.4197 H   0  0  0  0  0  0  0  0  0  0  0  0
   -1.9210    0.6064    5.0160 H   0  0  0  0  0  0  0  0  0  0  0  0
   -2.6722    1.1375    7.2240 H   0  0  0  0  0  0  0  0  0  0  0  0
   -4.7299   -0.5421    9.0649 H   0  0  0  0  0  0  0  0  0  0  0  0
   -3.2953   -1.2480    9.9483 H   0  0  0  0  0  0  0  0  0  0  0  0
   -3.2943    0.5006    9.4461 H   0  0  0  0  0  0  0  0  0  0  0  0
   -3.2968   -3.0343    8.0698 H   0  0  0  0  0  0  0  0  0  0  0  0
   -2.5522   -3.6006    5.8129 H   0  0  0  0  0  0  0  0  0  0  0  0
   -2.5058   -0.4459    1.5933 H   0  0  0  0  0  0  0  0  0  0  0  0
   -1.1669    1.3531    0.6407 H   0  0  0  0  0  0  0  0  0  0  0  0
    1.1279    3.1187    2.3666 H   0  0  0  0  0  0  0  0  0  0  0  0
    2.3007    2.1000    1.4253 H   0  0  0  0  0  0  0  0  0  0  0  0
    0.8209    2.7409    0.6191 H   0  0  0  0  0  0  0  0  0  0  0  0
    1.9135    0.6051    3.5475 H   0  0  0  0  0  0  0  0  0  0  0  0
    0.5811   -1.1895    4.4979 H   0  0  0  0  0  0  0  0  0  0  0  0
   -1.1618   -6.9360    3.0383 H   0  0  0  0  0  0  0  0  0  0  0  0
   -0.2544   -7.7971    5.1741 H   0  0  0  0  0  0  0  0  0  0  0  0
    1.6250   -6.6249    6.2849 H   0  0  0  0  0  0  0  0  0  0  0  0
    3.0172   -4.6121    6.5048 H   0  0  0  0  0  0  0  0  0  0  0  0
    2.6923   -3.2346    5.4355 H   0  0  0  0  0  0  0  0  0  0  0  0
    4.1244   -4.7639    3.6398 H   0  0  0  0  0  0  0  0  0  0  0  0
    4.8612   -3.6256    4.8206 H   0  0  0  0  0  0  0  0  0  0  0  0
    4.7824   -5.4524    5.1800 H   0  0  0  0  0  0  0  0  0  0  0  0
    1.6700   -3.7058    3.1300 H   0  0  0  0  0  0  0  0  0  0  0  0
    8.6053    3.6003   -2.2855 H   0  0  0  0  0  0  0  0  0  0  0  0
   11.0256    3.4287   -1.8475 H   0  0  0  0  0  0  0  0  0  0  0  0
   12.4551    1.9404   -3.2047 H   0  0  0  0  0  0  0  0  0  0  0  0
   11.1824    0.1769   -6.3001 H   0  0  0  0  0  0  0  0  0  0  0  0
   12.6848    0.7041   -5.4752 H   0  0  0  0  0  0  0  0  0  0  0  0
   12.5193   -0.9916   -3.8060 H   0  0  0  0  0  0  0  0  0  0  0  0
   11.8289   -1.8358   -5.2597 H   0  0  0  0  0  0  0  0  0  0  0  0
   10.7192   -1.1608   -3.9710 H   0  0  0  0  0  0  0  0  0  0  0  0
    9.0603    0.9293   -5.6104 H   0  0  0  0  0  0  0  0  0  0  0  0
    0.7440   -1.4351   -3.9347 H   0  0  0  0  0  0  0  0  0  0  0  0
   -0.2650   -1.3870   -2.4472 H   0  0  0  0  0  0  0  0  0  0  0  0
   -0.5872   -4.0268   -3.2225 H   0  0  0  0  0  0  0  0  0  0  0  0
   -0.2333   -3.2778   -4.8173 H   0  0  0  0  0  0  0  0  0  0  0  0
   -1.6195   -2.7376   -3.7769 H   0  0  0  0  0  0  0  0  0  0  0  0
    3.0780    0.9683   -2.4117 H   0  0  0  0  0  0  0  0  0  0  0  0
    1.8708   -0.2551   -2.2323 H   0  0  0  0  0  0  0  0  0  0  0  0
    1.8071    2.1347   -3.8986 H   0  0  0  0  0  0  0  0  0  0  0  0
    1.7286    0.7429   -5.0383 H   0  0  0  0  0  0  0  0  0  0  0  0
    0.5126    0.9334   -3.6988 H   0  0  0  0  0  0  0  0  0  0  0  0
    4.2306    5.0419    1.5868 H   0  0  0  0  0  0  0  0  0  0  0  0
    5.0559    3.4539    1.2499 H   0  0  0  0  0  0  0  0  0  0  0  0
    6.2018    5.9972    2.5664 H   0  0  0  0  0  0  0  0  0  0  0  0
    6.2431    4.2819    3.1446 H   0  0  0  0  0  0  0  0  0  0  0  0
    7.3079    4.8040    1.7694 H   0  0  0  0  0  0  0  0  0  0  0  0
    6.2768    9.5267   -2.6214 H   0  0  0  0  0  0  0  0  0  0  0  0
   -0.2331    4.9740   -4.0764 H   0  0  0  0  0  0  0  0  0  0  0  0
   -0.6526    6.1117   -5.3702 H   0  0  0  0  0  0  0  0  0  0  0  0
    0.4464    4.7100   -5.7677 H   0  0  0  0  0  0  0  0  0  0  0  0
    0.2534    7.6787   -6.7806 H   0  0  0  0  0  0  0  0  0  0  0  0
    1.0723    9.8975   -7.4116 H   0  0  0  0  0  0  0  0  0  0  0  0
    2.4229   11.1865   -5.9117 H   0  0  0  0  0  0  0  0  0  0  0  0
  1  2  2  3
  2  3  1  0
  3  4  2  0
  3  5  1  0
  5  6  2  0
  6  7  1  0
  7  8  2  0
  8  9  1  0
  8 10  1  0
 10 11  2  0
 11 12  1  0
 12 13  2  3
 13 14  1  0
 14 15  3  0
 13 16  1  0
 16 17  3  0
  1 18  1  0
 18 19  2  0
 19 20  1  0
 20 21  1  0
 21 22  2  0
 22 23  1  0
 23 24  2  0
 24 25  1  0
 24 26  1  0
 26 27  2  0
 20 28  1  0
 28 29  2  0
 29 30  1  0
 30 31  2  0
 31 32  1  0
 31 33  1  0
 33 34  2  0
 19 35  1  0
 35 36  1  0
 36 37  1  0
 37 38  2  0
 38 39  1  0
 39 40  1  0
 40 41  2  0
 41 42  1  0
 42 43  2  0
 43 44  1  0
 43 45  1  0
 45 46  2  0
 39 47  1  0
 47 48  2  0
 48 49  1  0
 49 50  2  0
 50 51  1  0
 50 52  1  0
 52 53  2  0
 38 54  1  0
 54 55  1  0
 37 56  1  0
 56 57  2  0
 57 58  1  0
 58 59  2  0
 59 60  1  0
 60 61  2  0
 61 62  1  0
 62 63  1  0
 63 64  1  0
 62 65  2  0
 57 66  1  0
 66 67  1  0
 67 68  1  0
 68 69  1  0
 69 70  1  0
 70 71  1  0
 71 72  2  0
 72 73  1  0
 73 74  1  0
 71 75  1  0
 75 76  1  0
 76 77  1  0
 77 78  1  0
 78 79  1  0
 79 80  1  0
 80 81  2  0
 81 82  1  0
 82 83  2  0
 83 84  1  0
 84 85  1  0
 85 86  1  0
 84 87  2  0
 79 88  2  0
 88 89  1  0
 89 90  1  0
 90 91  1  0
 91 92  1  0
 92 93  1  0
 93 94  1  0
 94 95  1  0
 95 96  1  0
 96 97  1  0
 97 98  1  0
 95 99  1  0
 99100  1  0
 92101  1  0
101102  1  0
 88103  1  0
103104  2  0
104105  1  0
105106  2  0
105107  1  0
107108  1  0
108109  1  0
107110  1  0
110111  2  0
110112  1  0
112113  2  0
113114  1  0
114115  1  0
115116  2  0
116117  1  0
117118  1  0
113119  1  0
119120  2  3
120121  1  0
121122  2  0
121123  1  0
123124  2  0
124125  1  0
125126  1  0
124127  1  0
127128  2  0
128129  1  0
129130  2  0
130131  1  0
131132  2  3
132133  1  0
133134  3  0
132135  1  0
135136  3  0
 12  2  1  0
 55 18  1  0
 98 56  1  0
115103  1  0
131120  1  0
 11  5  1  0
 27 21  1  0
 34 28  1  0
 54 35  2  0
 65 58  1  0
 97 66  2  0
112104  1  0
118114  2  0
130123  1  0
 46 40  1  0
 53 47  1  0
 96 68  2  0
 94 69  2  0
 74 70  2  0
 93 75  2  0
 91 76  2  0
 90 78  2  0
 87 80  1  0
  1137  1  0
  6138  1  0
  7139  1  0
 10140  1  0
 22141  1  0
 23142  1  0
 25143  1  0
 25144  1  0
 25145  1  0
 26146  1  0
 27147  1  0
 29148  1  0
 30149  1  0
 32150  1  0
 32151  1  0
 32152  1  0
 33153  1  0
 34154  1  0
 41155  1  0
 42156  1  0
 44157  1  0
 44158  1  0
 44159  1  0
 45160  1  0
 46161  1  0
 48162  1  0
 49163  1  0
 51164  1  0
 51165  1  0
 51166  1  0
 52167  1  0
 53168  1  0
 59169  1  0
 60170  1  0
 61171  1  0
 63172  1  0
 63173  1  0
 64174  1  0
 64175  1  0
 64176  1  0
 65177  1  0
 81178  1  0
 82179  1  0
 83180  1  0
 85181  1  0
 85182  1  0
 86183  1  0
 86184  1  0
 86185  1  0
 87186  1  0
 99187  1  0
 99188  1  0
100189  1  0
100190  1  0
100191  1  0
101192  1  0
101193  1  0
102194  1  0
102195  1  0
102196  1  0
108197  1  0
108198  1  0
109199  1  0
109200  1  0
109201  1  0
119202  1  0
126203  1  0
126204  1  0
126205  1  0
127206  1  0
128207  1  0
129208  1  0
M  END

