
     RDKit          3D

177195  0  0  0  0  0  0  0  0999 V2000
    2.1519   -5.4722   -4.5285 C   0  0  0  0  0  0  0  0  0  0  0  0
    3.4749   -5.5988   -4.2817 C   0  0  0  0  0  0  0  0  0  0  0  0
    4.1258   -5.2384   -3.0109 C   0  0  0  0  0  0  0  0  0  0  0  0
    3.5865   -4.6956   -2.0101 O   0  0  0  0  0  0  0  0  0  0  0  0
    5.5185   -5.5921   -3.0822 C   0  0  0  0  0  0  0  0  0  0  0  0
    6.4676   -5.5290   -2.0601 C   0  0  0  0  0  0  0  0  0  0  0  0
    7.7519   -6.0152   -2.3087 C   0  0  0  0  0  0  0  0  0  0  0  0
    8.0715   -6.5507   -3.5731 C   0  0  0  0  0  0  0  0  0  0  0  0
    9.6662   -7.2246   -3.8441 Cl  0  0  0  0  0  0  0  0  0  0  0  0
    7.0981   -6.6065   -4.5873 C   0  0  0  0  0  0  0  0  0  0  0  0
    5.8054   -6.1127   -4.3309 C   0  0  0  0  0  0  0  0  0  0  0  0
    4.5648   -6.1241   -5.1747 C   0  0  0  0  0  0  0  0  0  0  0  0
    4.4671   -6.5262   -6.4726 C   0  0  0  0  0  0  0  0  0  0  0  0
    3.2177   -6.6272   -7.1835 C   0  0  0  0  0  0  0  0  0  0  0  0
    2.2313   -6.7415   -7.7779 N   0  0  0  0  0  0  0  0  0  0  0  0
    5.6170   -6.8466   -7.2759 C   0  0  0  0  0  0  0  0  0  0  0  0
    6.5373   -7.0957   -7.9347 N   0  0  0  0  0  0  0  0  0  0  0  0
    1.2140   -5.0183   -3.4877 C   0  0  0  0  0  0  0  0  0  0  0  0
    0.8160   -5.7772   -2.3682 C   0  0  0  0  0  0  0  0  0  0  0  0
    0.7018   -7.2085   -2.3655 N   0  0  0  0  0  0  0  0  0  0  0  0
   -0.6173   -7.8134   -2.3666 C   0  0  0  0  0  0  0  0  0  0  0  0
   -0.8038   -9.1299   -1.8993 C   0  0  0  0  0  0  0  0  0  0  0  0
   -2.0779   -9.7101   -1.8961 C   0  0  0  0  0  0  0  0  0  0  0  0
   -3.1869   -8.9927   -2.3711 C   0  0  0  0  0  0  0  0  0  0  0  0
   -4.5561   -9.5977   -2.3240 C   0  0  0  0  0  0  0  0  0  0  0  0
   -3.0101   -7.6794   -2.8233 C   0  0  0  0  0  0  0  0  0  0  0  0
   -1.7417   -7.0993   -2.8277 C   0  0  0  0  0  0  0  0  0  0  0  0
    1.8668   -7.9996   -2.6462 C   0  0  0  0  0  0  0  0  0  0  0  0
    2.9454   -7.9983   -1.7505 C   0  0  0  0  0  0  0  0  0  0  0  0
    4.1236   -8.6716   -2.0649 C   0  0  0  0  0  0  0  0  0  0  0  0
    4.2385   -9.3704   -3.2794 C   0  0  0  0  0  0  0  0  0  0  0  0
    5.5376  -10.0131   -3.6521 C   0  0  0  0  0  0  0  0  0  0  0  0
    3.1579   -9.3711   -4.1749 C   0  0  0  0  0  0  0  0  0  0  0  0
    1.9731   -8.7055   -3.8571 C   0  0  0  0  0  0  0  0  0  0  0  0
    0.2879   -4.9588   -1.3745 C   0  0  0  0  0  0  0  0  0  0  0  0
   -0.0888   -5.1841    0.2531 S   0  0  0  0  0  0  0  0  0  0  0  0
   -0.3878   -3.5266    0.5292 C   0  0  0  0  0  0  0  0  0  0  0  0
   -0.2151   -2.8113   -0.6730 C   0  0  0  0  0  0  0  0  0  0  0  0
   -0.5800   -1.4289   -0.8448 N   0  0  0  0  0  0  0  0  0  0  0  0
    0.3505   -0.4489   -1.3569 C   0  0  0  0  0  0  0  0  0  0  0  0
    1.7342   -0.5870   -1.1472 C   0  0  0  0  0  0  0  0  0  0  0  0
    2.6156    0.4204   -1.5460 C   0  0  0  0  0  0  0  0  0  0  0  0
    2.1337    1.5772   -2.1763 C   0  0  0  0  0  0  0  0  0  0  0  0
    3.0809    2.6634   -2.5810 C   0  0  0  0  0  0  0  0  0  0  0  0
    0.7623    1.6934   -2.4427 C   0  0  0  0  0  0  0  0  0  0  0  0
   -0.1209    0.6879   -2.0376 C   0  0  0  0  0  0  0  0  0  0  0  0
   -1.8921   -1.0257   -0.4023 C   0  0  0  0  0  0  0  0  0  0  0  0
   -3.0303   -1.7248   -0.8389 C   0  0  0  0  0  0  0  0  0  0  0  0
   -4.2935   -1.3883   -0.3500 C   0  0  0  0  0  0  0  0  0  0  0  0
   -4.4383   -0.3673    0.6063 C   0  0  0  0  0  0  0  0  0  0  0  0
   -5.7812   -0.0778    1.2081 C   0  0  0  0  0  0  0  0  0  0  0  0
   -3.3041    0.3502    1.0201 C   0  0  0  0  0  0  0  0  0  0  0  0
   -2.0453    0.0328    0.5079 C   0  0  0  0  0  0  0  0  0  0  0  0
    0.2174   -3.6407   -1.6957 C   0  0  0  0  0  0  0  0  0  0  0  0
    0.8419   -3.3748   -3.2274 S   0  0  0  0  0  0  0  0  0  0  0  0
   -0.3257   -2.8750    1.8486 C   0  0  0  0  0  0  0  0  0  0  0  0
   -1.2962   -2.9147    2.8632 C   0  0  0  0  0  0  0  0  0  0  0  0
   -2.3907   -3.8899    2.9525 C   0  0  0  0  0  0  0  0  0  0  0  0
   -3.6585   -3.5805    2.4522 C   0  0  0  0  0  0  0  0  0  0  0  0
   -4.7166   -4.4755    2.6075 C   0  0  0  0  0  0  0  0  0  0  0  0
   -4.5214   -5.6741    3.2989 C   0  0  0  0  0  0  0  0  0  0  0  0
   -3.2627   -5.9873    3.8378 C   0  0  0  0  0  0  0  0  0  0  0  0
   -3.0954   -7.2078    4.7028 C   0  0  0  0  0  0  0  0  0  0  0  0
   -3.3084   -6.8509    6.1720 C   0  0  0  0  0  0  0  0  0  0  0  0
   -2.1949   -5.0919    3.6528 C   0  0  0  0  0  0  0  0  0  0  0  0
   -1.1403   -1.8424    3.7509 C   0  0  0  0  0  0  0  0  0  0  0  0
   -2.2316   -1.0791    4.8111 S   0  0  0  0  0  0  0  0  0  0  0  0
   -1.2220    0.2877    4.9493 C   0  0  0  0  0  0  0  0  0  0  0  0
   -1.4485    1.6246    5.1425 C   0  0  0  0  0  0  0  0  0  0  0  0
   -2.6278    2.3016    5.5069 C   0  0  0  0  0  0  0  0  0  0  0  0
   -2.7153    3.7113    5.2841 C   0  0  0  0  0  0  0  0  0  0  0  0
   -3.8869    4.3117    5.5936 N   0  0  0  0  0  0  0  0  0  0  0  0
   -4.7395    2.9963    6.1273 S   0  0  0  0  0  0  0  0  0  0  0  0
   -3.7321    1.6902    5.9969 N   0  0  0  0  0  0  0  0  0  0  0  0
   -1.6059    4.3728    4.7459 C   0  0  0  0  0  0  0  0  0  0  0  0
   -1.3853    5.6758    4.4041 C   0  0  0  0  0  0  0  0  0  0  0  0
   -2.2593    7.1214    4.2078 S   0  0  0  0  0  0  0  0  0  0  0  0
   -0.9040    7.8657    3.4850 C   0  0  0  0  0  0  0  0  0  0  0  0
   -0.7531    9.0512    2.7585 C   0  0  0  0  0  0  0  0  0  0  0  0
   -1.8267   10.0257    2.5282 C   0  0  0  0  0  0  0  0  0  0  0  0
   -1.8692   11.2105    3.2745 C   0  0  0  0  0  0  0  0  0  0  0  0
   -2.8433   12.1743    3.0035 C   0  0  0  0  0  0  0  0  0  0  0  0
   -3.7724   11.9646    1.9791 C   0  0  0  0  0  0  0  0  0  0  0  0
   -3.7237   10.7899    1.2072 C   0  0  0  0  0  0  0  0  0  0  0  0
   -4.7209   10.5535    0.1037 C   0  0  0  0  0  0  0  0  0  0  0  0
   -5.9019    9.7274    0.6047 C   0  0  0  0  0  0  0  0  0  0  0  0
   -2.7512    9.8173    1.4936 C   0  0  0  0  0  0  0  0  0  0  0  0
    0.4730    9.0634    2.0727 C   0  0  0  0  0  0  0  0  0  0  0  0
    1.3240    7.6176    2.3673 S   0  0  0  0  0  0  0  0  0  0  0  0
    0.1661    7.0032    3.4094 C   0  0  0  0  0  0  0  0  0  0  0  0
   -0.1119    5.7576    3.9497 C   0  0  0  0  0  0  0  0  0  0  0  0
    0.5527    4.5739    3.9822 N   0  0  0  0  0  0  0  0  0  0  0  0
   -0.4169    3.7042    4.4146 C   0  0  0  0  0  0  0  0  0  0  0  0
   -0.3721    2.2906    4.5278 C   0  0  0  0  0  0  0  0  0  0  0  0
    0.4311    1.3981    3.8703 N   0  0  0  0  0  0  0  0  0  0  0  0
   -0.1056    0.1877    4.1737 C   0  0  0  0  0  0  0  0  0  0  0  0
   -0.0682   -1.0241    3.4928 C   0  0  0  0  0  0  0  0  0  0  0  0
    0.7152   -1.5596    2.1242 S   0  0  0  0  0  0  0  0  0  0  0  0
    1.2893    1.6577    2.6986 C   0  0  0  0  0  0  0  0  0  0  0  0
    2.7127    1.1498    2.9235 C   0  0  0  0  0  0  0  0  0  0  0  0
    1.9763    4.4556    4.3523 C   0  0  0  0  0  0  0  0  0  0  0  0
    2.9289    4.8202    3.2127 C   0  0  0  0  0  0  0  0  0  0  0  0
    0.8715   10.0533    1.0631 C   0  0  0  0  0  0  0  0  0  0  0  0
    1.1634    9.6563   -0.2494 C   0  0  0  0  0  0  0  0  0  0  0  0
    1.5034   10.5941   -1.1723 N   0  0  0  0  0  0  0  0  0  0  0  0
    1.5824   11.9178   -0.8499 C   0  0  0  0  0  0  0  0  0  0  0  0
    1.3091   12.3122    0.4679 C   0  0  0  0  0  0  0  0  0  0  0  0
    0.9390   11.3766    1.3854 N   0  0  0  0  0  0  0  0  0  0  0  0
    1.9596   12.9256   -1.8650 C   0  0  0  0  0  0  0  0  0  0  0  0
    1.7114   12.8133   -3.1889 C   0  0  0  0  0  0  0  0  0  0  0  0
    2.1155   13.8759   -4.0752 C   0  0  0  0  0  0  0  0  0  0  0  0
    2.4356   14.7309   -4.7873 N   0  0  0  0  0  0  0  0  0  0  0  0
    1.0190   11.6870   -3.7599 C   0  0  0  0  0  0  0  0  0  0  0  0
    0.4590   10.7832   -4.2218 N   0  0  0  0  0  0  0  0  0  0  0  0
    1.7189   -5.6904   -5.4837 H   0  0  0  0  0  0  0  0  0  0  0  0
    6.2050   -5.1476   -1.0775 H   0  0  0  0  0  0  0  0  0  0  0  0
    8.4947   -6.0036   -1.5171 H   0  0  0  0  0  0  0  0  0  0  0  0
    7.3634   -7.0766   -5.5144 H   0  0  0  0  0  0  0  0  0  0  0  0
    0.0363   -9.7008   -1.5227 H   0  0  0  0  0  0  0  0  0  0  0  0
   -2.1995  -10.7188   -1.5144 H   0  0  0  0  0  0  0  0  0  0  0  0
   -5.2091   -9.1642   -3.1113 H   0  0  0  0  0  0  0  0  0  0  0  0
   -4.5060  -10.6961   -2.4937 H   0  0  0  0  0  0  0  0  0  0  0  0
   -5.0092   -9.4052   -1.3303 H   0  0  0  0  0  0  0  0  0  0  0  0
   -3.8562   -7.0995   -3.1734 H   0  0  0  0  0  0  0  0  0  0  0  0
   -1.6398   -6.0910   -3.2128 H   0  0  0  0  0  0  0  0  0  0  0  0
    2.8679   -7.4500   -0.8187 H   0  0  0  0  0  0  0  0  0  0  0  0
    4.9582   -8.6345   -1.3724 H   0  0  0  0  0  0  0  0  0  0  0  0
    5.3716  -10.8416   -4.3826 H   0  0  0  0  0  0  0  0  0  0  0  0
    6.0379  -10.4382   -2.7546 H   0  0  0  0  0  0  0  0  0  0  0  0
    6.2070   -9.2606   -4.1169 H   0  0  0  0  0  0  0  0  0  0  0  0
    3.2408   -9.8656   -5.1381 H   0  0  0  0  0  0  0  0  0  0  0  0
    1.1596   -8.6833   -4.5725 H   0  0  0  0  0  0  0  0  0  0  0  0
    2.1307   -1.4561   -0.6339 H   0  0  0  0  0  0  0  0  0  0  0  0
    3.6757    0.3063   -1.3482 H   0  0  0  0  0  0  0  0  0  0  0  0
    3.6090    2.3598   -3.5100 H   0  0  0  0  0  0  0  0  0  0  0  0
    2.5426    3.6173   -2.7642 H   0  0  0  0  0  0  0  0  0  0  0  0
    3.8280    2.8457   -1.7748 H   0  0  0  0  0  0  0  0  0  0  0  0
    0.3726    2.5609   -2.9618 H   0  0  0  0  0  0  0  0  0  0  0  0
   -1.1779    0.8078   -2.2436 H   0  0  0  0  0  0  0  0  0  0  0  0
   -2.9324   -2.5330   -1.5550 H   0  0  0  0  0  0  0  0  0  0  0  0
   -5.1576   -1.9503   -0.6813 H   0  0  0  0  0  0  0  0  0  0  0  0
   -5.6802    0.4236    2.1924 H   0  0  0  0  0  0  0  0  0  0  0  0
   -6.3401   -1.0276    1.3653 H   0  0  0  0  0  0  0  0  0  0  0  0
   -6.3633    0.5709    0.5270 H   0  0  0  0  0  0  0  0  0  0  0  0
   -3.3916    1.1498    1.7459 H   0  0  0  0  0  0  0  0  0  0  0  0
   -1.1781    0.5800    0.8536 H   0  0  0  0  0  0  0  0  0  0  0  0
   -3.8283   -2.6299    1.9784 H   0  0  0  0  0  0  0  0  0  0  0  0
   -5.6963   -4.2269    2.2158 H   0  0  0  0  0  0  0  0  0  0  0  0
   -5.3620   -6.3452    3.4372 H   0  0  0  0  0  0  0  0  0  0  0  0
   -2.0809   -7.6380    4.5626 H   0  0  0  0  0  0  0  0  0  0  0  0
   -3.8305   -7.9848    4.4054 H   0  0  0  0  0  0  0  0  0  0  0  0
   -2.5054   -6.1635    6.5222 H   0  0  0  0  0  0  0  0  0  0  0  0
   -4.2945   -6.3625    6.3172 H   0  0  0  0  0  0  0  0  0  0  0  0
   -3.2834   -7.7731    6.7927 H   0  0  0  0  0  0  0  0  0  0  0  0
   -1.2264   -5.3097    4.0916 H   0  0  0  0  0  0  0  0  0  0  0  0
   -1.1435   11.3910    4.0535 H   0  0  0  0  0  0  0  0  0  0  0  0
   -2.8803   13.0859    3.5868 H   0  0  0  0  0  0  0  0  0  0  0  0
   -4.5277   12.7168    1.7812 H   0  0  0  0  0  0  0  0  0  0  0  0
   -5.0910   11.5230   -0.2968 H   0  0  0  0  0  0  0  0  0  0  0  0
   -4.2281   10.0159   -0.7375 H   0  0  0  0  0  0  0  0  0  0  0  0
   -6.6068    9.5437   -0.2379 H   0  0  0  0  0  0  0  0  0  0  0  0
   -6.4409   10.2716    1.4101 H   0  0  0  0  0  0  0  0  0  0  0  0
   -5.5468    8.7457    0.9924 H   0  0  0  0  0  0  0  0  0  0  0  0
   -2.7068    8.9062    0.9083 H   0  0  0  0  0  0  0  0  0  0  0  0
    1.2999    2.7229    2.4361 H   0  0  0  0  0  0  0  0  0  0  0  0
    0.8609    1.1624    1.8060 H   0  0  0  0  0  0  0  0  0  0  0  0
    3.2628    1.1672    1.9605 H   0  0  0  0  0  0  0  0  0  0  0  0
    2.7095    0.1078    3.3036 H   0  0  0  0  0  0  0  0  0  0  0  0
    3.2558    1.7787    3.6541 H   0  0  0  0  0  0  0  0  0  0  0  0
    2.1824    5.1124    5.2259 H   0  0  0  0  0  0  0  0  0  0  0  0
    2.1889    3.4293    4.7072 H   0  0  0  0  0  0  0  0  0  0  0  0
    3.8644    4.2424    3.3231 H   0  0  0  0  0  0  0  0  0  0  0  0
    2.4801    4.6211    2.2195 H   0  0  0  0  0  0  0  0  0  0  0  0
    3.2114    5.8910    3.2823 H   0  0  0  0  0  0  0  0  0  0  0  0
    1.0990    8.6151   -0.5399 H   0  0  0  0  0  0  0  0  0  0  0  0
    1.3558   13.3550    0.7584 H   0  0  0  0  0  0  0  0  0  0  0  0
    2.4077   13.8439   -1.5027 H   0  0  0  0  0  0  0  0  0  0  0  0
  1  2  2  3
  2  3  1  0
  3  4  2  0
  3  5  1  0
  5  6  2  0
  6  7  1  0
  7  8  2  0
  8  9  1  0
  8 10  1  0
 10 11  2  0
 11 12  1  0
 12 13  2  3
 13 14  1  0
 14 15  3  0
 13 16  1  0
 16 17  3  0
  1 18  1  0
 18 19  2  0
 19 20  1  0
 20 21  1  0
 21 22  2  0
 22 23  1  0
 23 24  2  0
 24 25  1  0
 24 26  1  0
 26 27  2  0
 20 28  1  0
 28 29  2  0
 29 30  1  0
 30 31  2  0
 31 32  1  0
 31 33  1  0
 33 34  2  0
 19 35  1  0
 35 36  1  0
 36 37  1  0
 37 38  2  0
 38 39  1  0
 39 40  1  0
 40 41  2  0
 41 42  1  0
 42 43  2  0
 43 44  1  0
 43 45  1  0
 45 46  2  0
 39 47  1  0
 47 48  2  0
 48 49  1  0
 49 50  2  0
 50 51  1  0
 50 52  1  0
 52 53  2  0
 38 54  1  0
 54 55  1  0
 37 56  1  0
 56 57  2  0
 57 58  1  0
 58 59  2  0
 59 60  1  0
 60 61  2  0
 61 62  1  0
 62 63  1  0
 63 64  1  0
 62 65  2  0
 57 66  1  0
 66 67  1  0
 67 68  1  0
 68 69  1  0
 69 70  1  0
 70 71  1  0
 71 72  2  0
 72 73  1  0
 73 74  1  0
 71 75  1  0
 75 76  1  0
 76 77  1  0
 77 78  1  0
 78 79  1  0
 79 80  1  0
 80 81  2  0
 81 82  1  0
 82 83  2  0
 83 84  1  0
 84 85  1  0
 85 86  1  0
 84 87  2  0
 79 88  2  0
 88 89  1  0
 89 90  1  0
 90 91  1  0
 91 92  1  0
 92 93  1  0
 93 94  1  0
 94 95  1  0
 95 96  1  0
 96 97  1  0
 97 98  1  0
 95 99  1  0
 99100  1  0
 92101  1  0
101102  1  0
 88103  1  0
103104  2  0
104105  1  0
105106  2  0
106107  1  0
107108  2  0
106109  1  0
109110  2  3
110111  1  0
111112  3  0
110113  1  0
113114  3  0
 12  2  1  0
 55 18  1  0
 98 56  1  0
108103  1  0
 11  5  1  0
 27 21  1  0
 34 28  1  0
 54 35  2  0
 65 58  1  0
 97 66  2  0
 46 40  1  0
 53 47  1  0
 96 68  2  0
 94 69  2  0
 74 70  2  0
 93 75  2  0
 91 76  2  0
 90 78  2  0
 87 80  1  0
  1115  1  0
  6116  1  0
  7117  1  0
 10118  1  0
 22119  1  0
 23120  1  0
 25121  1  0
 25122  1  0
 25123  1  0
 26124  1  0
 27125  1  0
 29126  1  0
 30127  1  0
 32128  1  0
 32129  1  0
 32130  1  0
 33131  1  0
 34132  1  0
 41133  1  0
 42134  1  0
 44135  1  0
 44136  1  0
 44137  1  0
 45138  1  0
 46139  1  0
 48140  1  0
 49141  1  0
 51142  1  0
 51143  1  0
 51144  1  0
 52145  1  0
 53146  1  0
 59147  1  0
 60148  1  0
 61149  1  0
 63150  1  0
 63151  1  0
 64152  1  0
 64153  1  0
 64154  1  0
 65155  1  0
 81156  1  0
 82157  1  0
 83158  1  0
 85159  1  0
 85160  1  0
 86161  1  0
 86162  1  0
 86163  1  0
 87164  1  0
 99165  1  0
 99166  1  0
100167  1  0
100168  1  0
100169  1  0
101170  1  0
101171  1  0
102172  1  0
102173  1  0
102174  1  0
104175  1  0
107176  1  0
109177  1  0
M  END

