
     RDKit          3D

201222  0  0  0  0  0  0  0  0999 V2000
   -4.5575    3.8306   -1.9219 C   0  0  0  0  0  0  0  0  0  0  0  0
   -4.8805    2.6220   -2.4071 C   0  0  0  0  0  0  0  0  0  0  0  0
   -4.1240    1.3785   -2.1970 C   0  0  0  0  0  0  0  0  0  0  0  0
   -2.9202    1.2779   -1.8371 O   0  0  0  0  0  0  0  0  0  0  0  0
   -5.0253    0.2620   -2.4015 C   0  0  0  0  0  0  0  0  0  0  0  0
   -4.7914   -1.0936   -2.1752 C   0  0  0  0  0  0  0  0  0  0  0  0
   -5.8631   -1.9884   -2.3063 C   0  0  0  0  0  0  0  0  0  0  0  0
   -7.1462   -1.5141   -2.6245 C   0  0  0  0  0  0  0  0  0  0  0  0
   -8.4939   -2.6332   -2.7082 Cl  0  0  0  0  0  0  0  0  0  0  0  0
   -7.3627   -0.1424   -2.8442 C   0  0  0  0  0  0  0  0  0  0  0  0
   -6.2728    0.7384   -2.7648 C   0  0  0  0  0  0  0  0  0  0  0  0
   -6.2194    2.2171   -2.9159 C   0  0  0  0  0  0  0  0  0  0  0  0
   -7.0904    2.9932   -3.6104 C   0  0  0  0  0  0  0  0  0  0  0  0
   -6.8014    4.3714   -3.9172 C   0  0  0  0  0  0  0  0  0  0  0  0
   -6.5717    5.4763   -4.1685 N   0  0  0  0  0  0  0  0  0  0  0  0
   -8.2730    2.4596   -4.2316 C   0  0  0  0  0  0  0  0  0  0  0  0
   -9.2261    2.0386   -4.7406 N   0  0  0  0  0  0  0  0  0  0  0  0
   -3.2982    4.1197   -1.2335 C   0  0  0  0  0  0  0  0  0  0  0  0
   -3.1897    4.3509    0.1432 C   0  0  0  0  0  0  0  0  0  0  0  0
   -4.2301    4.0324    1.0791 N   0  0  0  0  0  0  0  0  0  0  0  0
   -4.9888    5.0884    1.7109 C   0  0  0  0  0  0  0  0  0  0  0  0
   -5.5958    4.8816    2.9605 C   0  0  0  0  0  0  0  0  0  0  0  0
   -6.3600    5.8888    3.5548 C   0  0  0  0  0  0  0  0  0  0  0  0
   -6.5140    7.1312    2.9205 C   0  0  0  0  0  0  0  0  0  0  0  0
   -7.3742    8.1943    3.5365 C   0  0  0  0  0  0  0  0  0  0  0  0
   -5.9056    7.3479    1.6777 C   0  0  0  0  0  0  0  0  0  0  0  0
   -5.1417    6.3406    1.0810 C   0  0  0  0  0  0  0  0  0  0  0  0
   -4.5847    2.6400    1.2356 C   0  0  0  0  0  0  0  0  0  0  0  0
   -3.5845    1.6662    1.3994 C   0  0  0  0  0  0  0  0  0  0  0  0
   -3.9183    0.3121    1.4892 C   0  0  0  0  0  0  0  0  0  0  0  0
   -5.2601   -0.0916    1.4266 C   0  0  0  0  0  0  0  0  0  0  0  0
   -5.6130   -1.5469    1.5066 C   0  0  0  0  0  0  0  0  0  0  0  0
   -6.2593    0.8727    1.2325 C   0  0  0  0  0  0  0  0  0  0  0  0
   -5.9266    2.2282    1.1422 C   0  0  0  0  0  0  0  0  0  0  0  0
   -1.8651    4.5627    0.5112 C   0  0  0  0  0  0  0  0  0  0  0  0
   -1.0617    4.5460    1.9800 S   0  0  0  0  0  0  0  0  0  0  0  0
    0.4959    4.4576    1.2860 C   0  0  0  0  0  0  0  0  0  0  0  0
    0.3639    4.3906   -0.1198 C   0  0  0  0  0  0  0  0  0  0  0  0
    1.3931    3.9494   -1.0244 N   0  0  0  0  0  0  0  0  0  0  0  0
    2.1689    4.9424   -1.7406 C   0  0  0  0  0  0  0  0  0  0  0  0
    3.4635    4.6461   -2.2032 C   0  0  0  0  0  0  0  0  0  0  0  0
    4.1916    5.5882   -2.9344 C   0  0  0  0  0  0  0  0  0  0  0  0
    3.6545    6.8579   -3.1911 C   0  0  0  0  0  0  0  0  0  0  0  0
    4.4434    7.8674   -3.9743 C   0  0  0  0  0  0  0  0  0  0  0  0
    2.3653    7.1629   -2.7334 C   0  0  0  0  0  0  0  0  0  0  0  0
    1.6351    6.2208   -2.0086 C   0  0  0  0  0  0  0  0  0  0  0  0
    1.4037    2.5515   -1.4230 C   0  0  0  0  0  0  0  0  0  0  0  0
    1.6455    2.1746   -2.7591 C   0  0  0  0  0  0  0  0  0  0  0  0
    1.6545    0.8283   -3.1364 C   0  0  0  0  0  0  0  0  0  0  0  0
    1.3923   -0.1739   -2.1901 C   0  0  0  0  0  0  0  0  0  0  0  0
    1.4553   -1.6212   -2.5781 C   0  0  0  0  0  0  0  0  0  0  0  0
    1.1323    0.1881   -0.8630 C   0  0  0  0  0  0  0  0  0  0  0  0
    1.1219    1.5350   -0.4875 C   0  0  0  0  0  0  0  0  0  0  0  0
   -0.9702    4.4730   -0.5047 C   0  0  0  0  0  0  0  0  0  0  0  0
   -1.7564    4.1579   -1.9566 S   0  0  0  0  0  0  0  0  0  0  0  0
    1.6759    4.0285    2.0542 C   0  0  0  0  0  0  0  0  0  0  0  0
    3.0110    4.4504    1.8814 C   0  0  0  0  0  0  0  0  0  0  0  0
    3.4120    5.7328    1.2472 C   0  0  0  0  0  0  0  0  0  0  0  0
    4.6020    5.8469    0.5086 C   0  0  0  0  0  0  0  0  0  0  0  0
    4.9842    7.0789   -0.0331 C   0  0  0  0  0  0  0  0  0  0  0  0
    4.1931    8.2110    0.1633 C   0  0  0  0  0  0  0  0  0  0  0  0
    3.0212    8.1260    0.9256 C   0  0  0  0  0  0  0  0  0  0  0  0
    2.1624    9.3427    1.1410 C   0  0  0  0  0  0  0  0  0  0  0  0
    1.1651    9.5048    0.0017 C   0  0  0  0  0  0  0  0  0  0  0  0
    2.6275    6.8848    1.4509 C   0  0  0  0  0  0  0  0  0  0  0  0
    3.8861    3.5770    2.5488 C   0  0  0  0  0  0  0  0  0  0  0  0
    5.5636    3.3152    2.4665 S   0  0  0  0  0  0  0  0  0  0  0  0
    5.4543    1.9031    3.4041 C   0  0  0  0  0  0  0  0  0  0  0  0
    6.1403    0.7171    3.4177 C   0  0  0  0  0  0  0  0  0  0  0  0
    7.2667    0.3391    2.6632 C   0  0  0  0  0  0  0  0  0  0  0  0
    7.5319   -1.0533    2.4655 C   0  0  0  0  0  0  0  0  0  0  0  0
    8.5619   -1.3769    1.6475 N   0  0  0  0  0  0  0  0  0  0  0  0
    9.0667    0.1422    1.2224 S   0  0  0  0  0  0  0  0  0  0  0  0
    8.0635    1.2115    1.9977 N   0  0  0  0  0  0  0  0  0  0  0  0
    6.7093   -1.9890    3.1049 C   0  0  0  0  0  0  0  0  0  0  0  0
    6.6357   -3.3591    3.0030 C   0  0  0  0  0  0  0  0  0  0  0  0
    6.8336   -4.3649    1.6489 S   0  0  0  0  0  0  0  0  0  0  0  0
    5.5118   -5.3416    2.0787 C   0  0  0  0  0  0  0  0  0  0  0  0
    4.6631   -6.0765    1.2384 C   0  0  0  0  0  0  0  0  0  0  0  0
    5.0866   -6.5077   -0.1130 C   0  0  0  0  0  0  0  0  0  0  0  0
    6.1802   -7.3733   -0.2479 C   0  0  0  0  0  0  0  0  0  0  0  0
    6.5566   -7.8434   -1.5074 C   0  0  0  0  0  0  0  0  0  0  0  0
    5.8257   -7.4780   -2.6426 C   0  0  0  0  0  0  0  0  0  0  0  0
    4.7346   -6.6025   -2.5256 C   0  0  0  0  0  0  0  0  0  0  0  0
    3.9456   -6.2120   -3.7465 C   0  0  0  0  0  0  0  0  0  0  0  0
    4.6955   -5.1670   -4.5658 C   0  0  0  0  0  0  0  0  0  0  0  0
    4.3996   -6.0840   -1.2650 C   0  0  0  0  0  0  0  0  0  0  0  0
    3.3448   -6.1430    1.7601 C   0  0  0  0  0  0  0  0  0  0  0  0
    3.3076   -5.2967    3.2374 S   0  0  0  0  0  0  0  0  0  0  0  0
    4.9256   -4.8723    3.2319 C   0  0  0  0  0  0  0  0  0  0  0  0
    5.5491   -3.7422    3.7495 C   0  0  0  0  0  0  0  0  0  0  0  0
    4.9488   -2.6881    4.3483 N   0  0  0  0  0  0  0  0  0  0  0  0
    5.6179   -1.5995    3.8840 C   0  0  0  0  0  0  0  0  0  0  0  0
    5.2417   -0.2348    3.9261 C   0  0  0  0  0  0  0  0  0  0  0  0
    3.9863    0.3060    4.0648 N   0  0  0  0  0  0  0  0  0  0  0  0
    4.1663    1.6181    3.7559 C   0  0  0  0  0  0  0  0  0  0  0  0
    3.2800    2.5671    3.2531 C   0  0  0  0  0  0  0  0  0  0  0  0
    1.6229    2.6594    3.0580 S   0  0  0  0  0  0  0  0  0  0  0  0
    2.6934   -0.3904    3.9376 C   0  0  0  0  0  0  0  0  0  0  0  0
    1.7800   -0.1100    5.1293 C   0  0  0  0  0  0  0  0  0  0  0  0
    4.1875   -2.7710    5.6029 C   0  0  0  0  0  0  0  0  0  0  0  0
    4.9799   -3.5129    6.6810 C   0  0  0  0  0  0  0  0  0  0  0  0
    2.1196   -6.4965    0.9990 C   0  0  0  0  0  0  0  0  0  0  0  0
    0.9984   -5.6577    1.0104 C   0  0  0  0  0  0  0  0  0  0  0  0
    0.7920   -4.5373    1.7266 N   0  0  0  0  0  0  0  0  0  0  0  0
   -0.3425   -4.0280    1.2573 N   0  0  0  0  0  0  0  0  0  0  0  0
   -0.9461   -2.8076    1.7781 C   0  0  0  0  0  0  0  0  0  0  0  0
   -1.7806   -3.1238    3.0129 C   0  0  0  0  0  0  0  0  0  0  0  0
   -0.8628   -4.7467    0.2672 N   0  0  0  0  0  0  0  0  0  0  0  0
   -0.0187   -5.7835    0.1079 C   0  0  0  0  0  0  0  0  0  0  0  0
   -0.0158   -6.7512   -0.9047 C   0  0  0  0  0  0  0  0  0  0  0  0
    1.0804   -7.6493   -0.9068 C   0  0  0  0  0  0  0  0  0  0  0  0
    2.1049   -7.5555    0.0646 C   0  0  0  0  0  0  0  0  0  0  0  0
   -0.9434   -6.6006   -2.0535 C   0  0  0  0  0  0  0  0  0  0  0  0
   -1.3890   -7.5800   -2.8650 C   0  0  0  0  0  0  0  0  0  0  0  0
   -1.1181   -9.0174   -2.7396 C   0  0  0  0  0  0  0  0  0  0  0  0
   -0.8894   -9.6485   -1.6715 O   0  0  0  0  0  0  0  0  0  0  0  0
   -1.2795   -9.6202   -4.0478 C   0  0  0  0  0  0  0  0  0  0  0  0
   -0.9180  -10.9013   -4.4631 C   0  0  0  0  0  0  0  0  0  0  0  0
   -1.0253  -11.2200   -5.8258 C   0  0  0  0  0  0  0  0  0  0  0  0
   -1.4764  -10.2560   -6.7457 C   0  0  0  0  0  0  0  0  0  0  0  0
   -1.5620  -10.6399   -8.4579 Cl  0  0  0  0  0  0  0  0  0  0  0  0
   -1.8325   -8.9682   -6.3071 C   0  0  0  0  0  0  0  0  0  0  0  0
   -1.7549   -8.6689   -4.9378 C   0  0  0  0  0  0  0  0  0  0  0  0
   -2.0000   -7.3896   -4.2169 C   0  0  0  0  0  0  0  0  0  0  0  0
   -2.7895   -6.3620   -4.6310 C   0  0  0  0  0  0  0  0  0  0  0  0
   -3.1538   -5.2696   -3.7669 C   0  0  0  0  0  0  0  0  0  0  0  0
   -3.4552   -4.3906   -3.0747 N   0  0  0  0  0  0  0  0  0  0  0  0
   -3.4542   -6.3615   -5.9093 C   0  0  0  0  0  0  0  0  0  0  0  0
   -3.9991   -6.3471   -6.9334 N   0  0  0  0  0  0  0  0  0  0  0  0
   -5.3154    4.5923   -1.8532 H   0  0  0  0  0  0  0  0  0  0  0  0
   -3.8139   -1.4464   -1.8714 H   0  0  0  0  0  0  0  0  0  0  0  0
   -5.7081   -3.0407   -2.1136 H   0  0  0  0  0  0  0  0  0  0  0  0
   -8.3645    0.2101   -3.0204 H   0  0  0  0  0  0  0  0  0  0  0  0
   -5.4802    3.9372    3.4764 H   0  0  0  0  0  0  0  0  0  0  0  0
   -6.8337    5.7005    4.5098 H   0  0  0  0  0  0  0  0  0  0  0  0
   -7.0251    9.2061    3.2343 H   0  0  0  0  0  0  0  0  0  0  0  0
   -7.3344    8.1353    4.6451 H   0  0  0  0  0  0  0  0  0  0  0  0
   -8.4246    8.0551    3.2058 H   0  0  0  0  0  0  0  0  0  0  0  0
   -6.0272    8.2960    1.1628 H   0  0  0  0  0  0  0  0  0  0  0  0
   -4.6912    6.5331    0.1156 H   0  0  0  0  0  0  0  0  0  0  0  0
   -2.5397    1.9538    1.4562 H   0  0  0  0  0  0  0  0  0  0  0  0
   -3.1273   -0.4188    1.6072 H   0  0  0  0  0  0  0  0  0  0  0  0
   -5.6460   -1.9816    0.4889 H   0  0  0  0  0  0  0  0  0  0  0  0
   -4.8643   -2.1038    2.1099 H   0  0  0  0  0  0  0  0  0  0  0  0
   -6.6049   -1.6768    1.9845 H   0  0  0  0  0  0  0  0  0  0  0  0
   -7.2964    0.5738    1.1452 H   0  0  0  0  0  0  0  0  0  0  0  0
   -6.7098    2.9551    0.9778 H   0  0  0  0  0  0  0  0  0  0  0  0
    3.9121    3.6832   -1.9910 H   0  0  0  0  0  0  0  0  0  0  0  0
    5.1860    5.3347   -3.2823 H   0  0  0  0  0  0  0  0  0  0  0  0
    4.3101    7.6744   -5.0593 H   0  0  0  0  0  0  0  0  0  0  0  0
    4.1019    8.9005   -3.7473 H   0  0  0  0  0  0  0  0  0  0  0  0
    5.5237    7.7973   -3.7185 H   0  0  0  0  0  0  0  0  0  0  0  0
    1.9321    8.1352   -2.9320 H   0  0  0  0  0  0  0  0  0  0  0  0
    0.6411    6.4905   -1.6807 H   0  0  0  0  0  0  0  0  0  0  0  0
    1.8156    2.9224   -3.5198 H   0  0  0  0  0  0  0  0  0  0  0  0
    1.8590    0.5670   -4.1666 H   0  0  0  0  0  0  0  0  0  0  0  0
    1.1184   -1.7567   -3.6271 H   0  0  0  0  0  0  0  0  0  0  0  0
    0.7996   -2.2359   -1.9247 H   0  0  0  0  0  0  0  0  0  0  0  0
    2.5005   -1.9839   -2.4807 H   0  0  0  0  0  0  0  0  0  0  0  0
    0.9307   -0.5700   -0.1147 H   0  0  0  0  0  0  0  0  0  0  0  0
    0.8849    1.7766    0.5352 H   0  0  0  0  0  0  0  0  0  0  0  0
    5.2134    4.9787    0.3042 H   0  0  0  0  0  0  0  0  0  0  0  0
    5.8883    7.1486   -0.6191 H   0  0  0  0  0  0  0  0  0  0  0  0
    4.4883    9.1490   -0.2874 H   0  0  0  0  0  0  0  0  0  0  0  0
    1.6033    9.2559    2.1014 H   0  0  0  0  0  0  0  0  0  0  0  0
    2.7976   10.2535    1.2081 H   0  0  0  0  0  0  0  0  0  0  0  0
    1.7024    9.6702   -0.9571 H   0  0  0  0  0  0  0  0  0  0  0  0
    0.5148   10.3822    0.1996 H   0  0  0  0  0  0  0  0  0  0  0  0
    0.5270    8.5983   -0.0869 H   0  0  0  0  0  0  0  0  0  0  0  0
    1.7252    6.8286    2.0493 H   0  0  0  0  0  0  0  0  0  0  0  0
    6.7303   -7.7034    0.6212 H   0  0  0  0  0  0  0  0  0  0  0  0
    7.3989   -8.5135   -1.6064 H   0  0  0  0  0  0  0  0  0  0  0  0
    6.1148   -7.8713   -3.6089 H   0  0  0  0  0  0  0  0  0  0  0  0
    2.9532   -5.8033   -3.4547 H   0  0  0  0  0  0  0  0  0  0  0  0
    3.7624   -7.1090   -4.3739 H   0  0  0  0  0  0  0  0  0  0  0  0
    5.6712   -5.5727   -4.9123 H   0  0  0  0  0  0  0  0  0  0  0  0
    4.0928   -4.8893   -5.4564 H   0  0  0  0  0  0  0  0  0  0  0  0
    4.8774   -4.2571   -3.9545 H   0  0  0  0  0  0  0  0  0  0  0  0
    3.5785   -5.3813   -1.1761 H   0  0  0  0  0  0  0  0  0  0  0  0
    2.8222   -1.4779    3.8187 H   0  0  0  0  0  0  0  0  0  0  0  0
    2.1922   -0.0816    2.9972 H   0  0  0  0  0  0  0  0  0  0  0  0
    0.8228   -0.6601    5.0045 H   0  0  0  0  0  0  0  0  0  0  0  0
    1.5531    0.9703    5.2157 H   0  0  0  0  0  0  0  0  0  0  0  0
    2.2490   -0.4210    6.0838 H   0  0  0  0  0  0  0  0  0  0  0  0
    3.9870   -1.7570    5.9841 H   0  0  0  0  0  0  0  0  0  0  0  0
    3.2224   -3.2880    5.4245 H   0  0  0  0  0  0  0  0  0  0  0  0
    5.9643   -3.0186    6.8374 H   0  0  0  0  0  0  0  0  0  0  0  0
    5.1439   -4.5716    6.3849 H   0  0  0  0  0  0  0  0  0  0  0  0
    4.4161   -3.4892    7.6378 H   0  0  0  0  0  0  0  0  0  0  0  0
   -1.5879   -2.3435    1.0001 H   0  0  0  0  0  0  0  0  0  0  0  0
   -0.1439   -2.0854    2.0460 H   0  0  0  0  0  0  0  0  0  0  0  0
   -2.2194   -2.1884    3.4199 H   0  0  0  0  0  0  0  0  0  0  0  0
   -1.1392   -3.5853    3.7964 H   0  0  0  0  0  0  0  0  0  0  0  0
   -2.5990   -3.8273    2.7550 H   0  0  0  0  0  0  0  0  0  0  0  0
    1.2242   -8.3528   -1.7137 H   0  0  0  0  0  0  0  0  0  0  0  0
    2.9438   -8.2376    0.0059 H   0  0  0  0  0  0  0  0  0  0  0  0
   -1.1580   -5.5746   -2.3031 H   0  0  0  0  0  0  0  0  0  0  0  0
   -0.5321  -11.6261   -3.7563 H   0  0  0  0  0  0  0  0  0  0  0  0
   -0.7240  -12.2003   -6.1704 H   0  0  0  0  0  0  0  0  0  0  0  0
   -2.1255   -8.2317   -7.0375 H   0  0  0  0  0  0  0  0  0  0  0  0
  1  2  2  3
  2  3  1  0
  3  4  2  0
  3  5  1  0
  5  6  2  0
  6  7  1  0
  7  8  2  0
  8  9  1  0
  8 10  1  0
 10 11  2  0
 11 12  1  0
 12 13  2  3
 13 14  1  0
 14 15  3  0
 13 16  1  0
 16 17  3  0
  1 18  1  0
 18 19  2  0
 19 20  1  0
 20 21  1  0
 21 22  2  0
 22 23  1  0
 23 24  2  0
 24 25  1  0
 24 26  1  0
 26 27  2  0
 20 28  1  0
 28 29  2  0
 29 30  1  0
 30 31  2  0
 31 32  1  0
 31 33  1  0
 33 34  2  0
 19 35  1  0
 35 36  1  0
 36 37  1  0
 37 38  2  0
 38 39  1  0
 39 40  1  0
 40 41  2  0
 41 42  1  0
 42 43  2  0
 43 44  1  0
 43 45  1  0
 45 46  2  0
 39 47  1  0
 47 48  2  0
 48 49  1  0
 49 50  2  0
 50 51  1  0
 50 52  1  0
 52 53  2  0
 38 54  1  0
 54 55  1  0
 37 56  1  0
 56 57  2  0
 57 58  1  0
 58 59  2  0
 59 60  1  0
 60 61  2  0
 61 62  1  0
 62 63  1  0
 63 64  1  0
 62 65  2  0
 57 66  1  0
 66 67  1  0
 67 68  1  0
 68 69  1  0
 69 70  1  0
 70 71  1  0
 71 72  2  0
 72 73  1  0
 73 74  1  0
 71 75  1  0
 75 76  1  0
 76 77  1  0
 77 78  1  0
 78 79  1  0
 79 80  1  0
 80 81  2  0
 81 82  1  0
 82 83  2  0
 83 84  1  0
 84 85  1  0
 85 86  1  0
 84 87  2  0
 79 88  2  0
 88 89  1  0
 89 90  1  0
 90 91  1  0
 91 92  1  0
 92 93  1  0
 93 94  1  0
 94 95  1  0
 95 96  1  0
 96 97  1  0
 97 98  1  0
 95 99  1  0
 99100  1  0
 92101  1  0
101102  1  0
 88103  1  0
103104  1  0
104105  2  0
105106  1  0
106107  1  0
107108  1  0
106109  1  0
109110  2  0
110111  1  0
111112  2  0
112113  1  0
111114  1  0
114115  2  3
115116  1  0
116117  2  0
116118  1  0
118119  2  0
119120  1  0
120121  2  0
121122  1  0
121123  1  0
123124  2  0
124125  1  0
125126  2  3
126127  1  0
127128  3  0
126129  1  0
129130  3  0
 12  2  1  0
 55 18  1  0
 98 56  1  0
113103  2  0
125115  1  0
 11  5  1  0
 27 21  1  0
 34 28  1  0
 54 35  2  0
 65 58  1  0
 97 66  2  0
110104  1  0
124118  1  0
 46 40  1  0
 53 47  1  0
 96 68  2  0
 94 69  2  0
 74 70  2  0
 93 75  2  0
 91 76  2  0
 90 78  2  0
 87 80  1  0
  1131  1  0
  6132  1  0
  7133  1  0
 10134  1  0
 22135  1  0
 23136  1  0
 25137  1  0
 25138  1  0
 25139  1  0
 26140  1  0
 27141  1  0
 29142  1  0
 30143  1  0
 32144  1  0
 32145  1  0
 32146  1  0
 33147  1  0
 34148  1  0
 41149  1  0
 42150  1  0
 44151  1  0
 44152  1  0
 44153  1  0
 45154  1  0
 46155  1  0
 48156  1  0
 49157  1  0
 51158  1  0
 51159  1  0
 51160  1  0
 52161  1  0
 53162  1  0
 59163  1  0
 60164  1  0
 61165  1  0
 63166  1  0
 63167  1  0
 64168  1  0
 64169  1  0
 64170  1  0
 65171  1  0
 81172  1  0
 82173  1  0
 83174  1  0
 85175  1  0
 85176  1  0
 86177  1  0
 86178  1  0
 86179  1  0
 87180  1  0
 99181  1  0
 99182  1  0
100183  1  0
100184  1  0
100185  1  0
101186  1  0
101187  1  0
102188  1  0
102189  1  0
102190  1  0
107191  1  0
107192  1  0
108193  1  0
108194  1  0
108195  1  0
112196  1  0
113197  1  0
114198  1  0
119199  1  0
120200  1  0
123201  1  0
M  END

