
     RDKit          3D

249274  0  0  0  0  0  0  0  0999 V2000
    4.8508    0.3368    5.0011 C   0  0  0  0  0  0  0  0  0  0  0  0
    3.9535    0.3951    6.0094 C   0  0  0  0  0  0  0  0  0  0  0  0
    2.5630   -0.0802    5.9624 C   0  0  0  0  0  0  0  0  0  0  0  0
    1.8318   -0.1697    4.9356 O   0  0  0  0  0  0  0  0  0  0  0  0
    2.1030   -0.2750    7.3133 C   0  0  0  0  0  0  0  0  0  0  0  0
    0.9155   -0.8668    7.7347 C   0  0  0  0  0  0  0  0  0  0  0  0
    0.7113   -1.0299    9.1126 C   0  0  0  0  0  0  0  0  0  0  0  0
    1.6905   -0.5984   10.0368 C   0  0  0  0  0  0  0  0  0  0  0  0
    1.4438   -0.8300   11.7567 Cl  0  0  0  0  0  0  0  0  0  0  0  0
    2.8772    0.0072    9.5816 C   0  0  0  0  0  0  0  0  0  0  0  0
    3.0680    0.1726    8.1952 C   0  0  0  0  0  0  0  0  0  0  0  0
    4.2105    0.7552    7.4382 C   0  0  0  0  0  0  0  0  0  0  0  0
    5.1377    1.6321    7.9067 C   0  0  0  0  0  0  0  0  0  0  0  0
    6.0615    2.3147    7.0419 C   0  0  0  0  0  0  0  0  0  0  0  0
    6.8024    2.8757    6.3514 N   0  0  0  0  0  0  0  0  0  0  0  0
    5.1641    2.0673    9.2818 C   0  0  0  0  0  0  0  0  0  0  0  0
    5.1749    2.4404   10.3699 N   0  0  0  0  0  0  0  0  0  0  0  0
    4.5809   -0.2628    3.6715 C   0  0  0  0  0  0  0  0  0  0  0  0
    5.1397    0.1699    2.4576 C   0  0  0  0  0  0  0  0  0  0  0  0
    6.2553    1.0743    2.3794 N   0  0  0  0  0  0  0  0  0  0  0  0
    6.0704    2.3657    1.7890 C   0  0  0  0  0  0  0  0  0  0  0  0
    6.3959    2.5725    0.4388 C   0  0  0  0  0  0  0  0  0  0  0  0
    6.2875    3.8470   -0.1212 C   0  0  0  0  0  0  0  0  0  0  0  0
    5.8578    4.9309    0.6624 C   0  0  0  0  0  0  0  0  0  0  0  0
    5.8063    6.3110    0.0778 C   0  0  0  0  0  0  0  0  0  0  0  0
    5.5626    4.7280    2.0224 C   0  0  0  0  0  0  0  0  0  0  0  0
    5.6552    3.4473    2.5752 C   0  0  0  0  0  0  0  0  0  0  0  0
    7.5675    0.6408    2.8111 C   0  0  0  0  0  0  0  0  0  0  0  0
    8.5427    1.5760    3.2317 C   0  0  0  0  0  0  0  0  0  0  0  0
    9.7939    1.1503    3.6954 C   0  0  0  0  0  0  0  0  0  0  0  0
   10.0990   -0.2173    3.7309 C   0  0  0  0  0  0  0  0  0  0  0  0
   11.4150   -0.6893    4.2700 C   0  0  0  0  0  0  0  0  0  0  0  0
    9.1328   -1.1478    3.3373 C   0  0  0  0  0  0  0  0  0  0  0  0
    7.8872   -0.7266    2.8739 C   0  0  0  0  0  0  0  0  0  0  0  0
    4.7515   -0.6680    1.4059 C   0  0  0  0  0  0  0  0  0  0  0  0
    5.1568   -0.8053   -0.2088 S   0  0  0  0  0  0  0  0  0  0  0  0
    4.3171   -2.2844   -0.4618 C   0  0  0  0  0  0  0  0  0  0  0  0
    3.7272   -2.6746    0.7600 C   0  0  0  0  0  0  0  0  0  0  0  0
    3.2724   -4.0045    1.0740 N   0  0  0  0  0  0  0  0  0  0  0  0
    4.0620   -4.7939    1.9866 C   0  0  0  0  0  0  0  0  0  0  0  0
    5.4599   -4.8656    1.8472 C   0  0  0  0  0  0  0  0  0  0  0  0
    6.2279   -5.5860    2.7631 C   0  0  0  0  0  0  0  0  0  0  0  0
    5.6092   -6.2403    3.8436 C   0  0  0  0  0  0  0  0  0  0  0  0
    6.4233   -7.0535    4.8089 C   0  0  0  0  0  0  0  0  0  0  0  0
    4.2180   -6.1741    3.9838 C   0  0  0  0  0  0  0  0  0  0  0  0
    3.4511   -5.4565    3.0665 C   0  0  0  0  0  0  0  0  0  0  0  0
    1.9854   -4.4654    0.6240 C   0  0  0  0  0  0  0  0  0  0  0  0
    0.9031   -3.5784    0.4851 C   0  0  0  0  0  0  0  0  0  0  0  0
   -0.3174   -4.0261   -0.0208 C   0  0  0  0  0  0  0  0  0  0  0  0
   -0.4753   -5.3679   -0.4060 C   0  0  0  0  0  0  0  0  0  0  0  0
   -1.7840   -5.8606   -0.9282 C   0  0  0  0  0  0  0  0  0  0  0  0
    0.5925   -6.2595   -0.2424 C   0  0  0  0  0  0  0  0  0  0  0  0
    1.8155   -5.8125    0.2602 C   0  0  0  0  0  0  0  0  0  0  0  0
    4.0021   -1.7397    1.7617 C   0  0  0  0  0  0  0  0  0  0  0  0
    3.7491   -1.7377    3.4148 S   0  0  0  0  0  0  0  0  0  0  0  0
    4.1289   -2.9046   -1.7945 C   0  0  0  0  0  0  0  0  0  0  0  0
    4.9088   -2.6179   -2.9353 C   0  0  0  0  0  0  0  0  0  0  0  0
    6.3808   -2.6851   -2.8987 C   0  0  0  0  0  0  0  0  0  0  0  0
    7.1752   -1.5365   -2.7575 C   0  0  0  0  0  0  0  0  0  0  0  0
    8.5685   -1.6410   -2.7282 C   0  0  0  0  0  0  0  0  0  0  0  0
    9.1798   -2.8911   -2.8547 C   0  0  0  0  0  0  0  0  0  0  0  0
    8.4016   -4.0503   -3.0288 C   0  0  0  0  0  0  0  0  0  0  0  0
    9.0530   -5.3993   -3.2163 C   0  0  0  0  0  0  0  0  0  0  0  0
    9.0079   -6.2150   -1.9318 C   0  0  0  0  0  0  0  0  0  0  0  0
    7.0018   -3.9391   -3.0378 C   0  0  0  0  0  0  0  0  0  0  0  0
    4.2379   -2.9634   -4.1127 C   0  0  0  0  0  0  0  0  0  0  0  0
    4.2395   -2.1535   -5.6088 S   0  0  0  0  0  0  0  0  0  0  0  0
    2.7164   -2.8014   -6.0245 C   0  0  0  0  0  0  0  0  0  0  0  0
    1.6331   -2.3607   -6.7346 C   0  0  0  0  0  0  0  0  0  0  0  0
    1.5405   -1.2282   -7.5450 C   0  0  0  0  0  0  0  0  0  0  0  0
    0.2496   -0.7360   -7.8975 C   0  0  0  0  0  0  0  0  0  0  0  0
    0.2025    0.4013   -8.6377 N   0  0  0  0  0  0  0  0  0  0  0  0
    1.8182    0.7087   -8.7777 S   0  0  0  0  0  0  0  0  0  0  0  0
    2.6069   -0.5028   -7.9604 N   0  0  0  0  0  0  0  0  0  0  0  0
   -0.8848   -1.4088   -7.4238 C   0  0  0  0  0  0  0  0  0  0  0  0
   -2.1986   -1.0169   -7.4469 C   0  0  0  0  0  0  0  0  0  0  0  0
   -2.9616    0.5068   -7.5283 S   0  0  0  0  0  0  0  0  0  0  0  0
   -4.2267    0.0142   -6.5038 C   0  0  0  0  0  0  0  0  0  0  0  0
   -5.0334    0.7921   -5.6403 C   0  0  0  0  0  0  0  0  0  0  0  0
   -5.6461    2.0580   -6.1144 C   0  0  0  0  0  0  0  0  0  0  0  0
   -6.3088    2.0424   -7.3535 C   0  0  0  0  0  0  0  0  0  0  0  0
   -6.9265    3.1927   -7.8382 C   0  0  0  0  0  0  0  0  0  0  0  0
   -6.8876    4.3678   -7.0912 C   0  0  0  0  0  0  0  0  0  0  0  0
   -6.2351    4.4037   -5.8504 C   0  0  0  0  0  0  0  0  0  0  0  0
   -6.3307    5.6429   -5.0078 C   0  0  0  0  0  0  0  0  0  0  0  0
   -7.7374    5.7765   -4.4166 C   0  0  0  0  0  0  0  0  0  0  0  0
   -5.5793    3.2487   -5.3768 C   0  0  0  0  0  0  0  0  0  0  0  0
   -5.3781    0.0622   -4.4715 C   0  0  0  0  0  0  0  0  0  0  0  0
   -4.7785   -1.5225   -4.6589 S   0  0  0  0  0  0  0  0  0  0  0  0
   -4.0202   -1.2858   -6.1087 C   0  0  0  0  0  0  0  0  0  0  0  0
   -2.8684   -1.8728   -6.6397 C   0  0  0  0  0  0  0  0  0  0  0  0
   -2.0779   -2.8387   -6.1202 N   0  0  0  0  0  0  0  0  0  0  0  0
   -0.8130   -2.5497   -6.5900 C   0  0  0  0  0  0  0  0  0  0  0  0
    0.4985   -3.0358   -6.2173 C   0  0  0  0  0  0  0  0  0  0  0  0
    0.9115   -3.8594   -5.1934 N   0  0  0  0  0  0  0  0  0  0  0  0
    2.2332   -3.6067   -5.0585 C   0  0  0  0  0  0  0  0  0  0  0  0
    3.0468   -3.6198   -3.9304 C   0  0  0  0  0  0  0  0  0  0  0  0
    2.6712   -3.6118   -2.3092 S   0  0  0  0  0  0  0  0  0  0  0  0
    0.2361   -4.9911   -4.5388 C   0  0  0  0  0  0  0  0  0  0  0  0
    1.1458   -6.2135   -4.3262 C   0  0  0  0  0  0  0  0  0  0  0  0
   -2.6420   -4.0418   -5.4985 C   0  0  0  0  0  0  0  0  0  0  0  0
   -2.6642   -5.2102   -6.4911 C   0  0  0  0  0  0  0  0  0  0  0  0
   -5.8053    0.5479   -3.1209 C   0  0  0  0  0  0  0  0  0  0  0  0
   -5.4045   -0.0503   -1.9102 C   0  0  0  0  0  0  0  0  0  0  0  0
   -4.3714   -1.0414   -1.7621 N   0  0  0  0  0  0  0  0  0  0  0  0
   -4.6907   -2.2500   -1.0449 C   0  0  0  0  0  0  0  0  0  0  0  0
   -5.7161   -3.0950   -1.4936 C   0  0  0  0  0  0  0  0  0  0  0  0
   -5.9624   -4.3072   -0.8382 C   0  0  0  0  0  0  0  0  0  0  0  0
   -5.2158   -4.6665    0.2894 C   0  0  0  0  0  0  0  0  0  0  0  0
   -5.4470   -5.9904    0.9576 C   0  0  0  0  0  0  0  0  0  0  0  0
   -4.2115   -3.8062    0.7507 C   0  0  0  0  0  0  0  0  0  0  0  0
   -3.9618   -2.6010    0.0918 C   0  0  0  0  0  0  0  0  0  0  0  0
   -3.0059   -0.7480   -2.1423 C   0  0  0  0  0  0  0  0  0  0  0  0
   -2.5441    0.5775   -2.2397 C   0  0  0  0  0  0  0  0  0  0  0  0
   -1.2293    0.8423   -2.6327 C   0  0  0  0  0  0  0  0  0  0  0  0
   -0.3499   -0.2141   -2.9262 C   0  0  0  0  0  0  0  0  0  0  0  0
    1.0516    0.0635   -3.3918 C   0  0  0  0  0  0  0  0  0  0  0  0
   -0.8119   -1.5328   -2.8498 C   0  0  0  0  0  0  0  0  0  0  0  0
   -2.1203   -1.7961   -2.4568 C   0  0  0  0  0  0  0  0  0  0  0  0
   -5.9316    0.6113   -0.8125 C   0  0  0  0  0  0  0  0  0  0  0  0
   -5.7124    0.3900    0.8228 S   0  0  0  0  0  0  0  0  0  0  0  0
   -6.5952    1.7779    1.2539 C   0  0  0  0  0  0  0  0  0  0  0  0
   -7.0321    2.4471    0.0920 C   0  0  0  0  0  0  0  0  0  0  0  0
   -7.6352    3.7541    0.0962 N   0  0  0  0  0  0  0  0  0  0  0  0
   -8.7641    3.9542    0.9671 C   0  0  0  0  0  0  0  0  0  0  0  0
   -8.7545    4.9751    1.9317 C   0  0  0  0  0  0  0  0  0  0  0  0
   -9.8326    5.1319    2.8046 C   0  0  0  0  0  0  0  0  0  0  0  0
  -10.9400    4.2660    2.7303 C   0  0  0  0  0  0  0  0  0  0  0  0
  -12.0596    4.3941    3.7115 C   0  0  0  0  0  0  0  0  0  0  0  0
  -10.9396    3.2359    1.7738 C   0  0  0  0  0  0  0  0  0  0  0  0
   -9.8654    3.0825    0.8987 C   0  0  0  0  0  0  0  0  0  0  0  0
   -6.9898    4.8710   -0.5679 C   0  0  0  0  0  0  0  0  0  0  0  0
   -5.6327    4.8138   -0.9476 C   0  0  0  0  0  0  0  0  0  0  0  0
   -5.0086    5.9143   -1.5382 C   0  0  0  0  0  0  0  0  0  0  0  0
   -5.7228    7.0980   -1.7706 C   0  0  0  0  0  0  0  0  0  0  0  0
   -5.0504    8.2447   -2.4670 C   0  0  0  0  0  0  0  0  0  0  0  0
   -7.0658    7.1695   -1.3874 C   0  0  0  0  0  0  0  0  0  0  0  0
   -7.7014    6.0592   -0.8257 C   0  0  0  0  0  0  0  0  0  0  0  0
   -6.6547    1.7298   -1.0584 C   0  0  0  0  0  0  0  0  0  0  0  0
   -6.7689    1.9205   -2.7330 S   0  0  0  0  0  0  0  0  0  0  0  0
   -6.7898    2.1253    2.6618 C   0  0  0  0  0  0  0  0  0  0  0  0
   -5.7443    2.6161    3.3381 C   0  0  0  0  0  0  0  0  0  0  0  0
   -5.0331    3.8462    2.9735 C   0  0  0  0  0  0  0  0  0  0  0  0
   -5.3910    4.6762    2.1007 O   0  0  0  0  0  0  0  0  0  0  0  0
   -3.8942    3.9893    3.8603 C   0  0  0  0  0  0  0  0  0  0  0  0
   -3.0181    5.0631    3.9858 C   0  0  0  0  0  0  0  0  0  0  0  0
   -2.0489    5.0117    5.0007 C   0  0  0  0  0  0  0  0  0  0  0  0
   -2.0027    3.9180    5.8861 C   0  0  0  0  0  0  0  0  0  0  0  0
   -2.9139    2.8623    5.7581 C   0  0  0  0  0  0  0  0  0  0  0  0
   -3.8412    2.9009    4.7084 C   0  0  0  0  0  0  0  0  0  0  0  0
   -4.9200    1.9396    4.3853 C   0  0  0  0  0  0  0  0  0  0  0  0
   -4.8503    0.6028    4.6202 C   0  0  0  0  0  0  0  0  0  0  0  0
   -5.9019   -0.3146    4.2748 C   0  0  0  0  0  0  0  0  0  0  0  0
   -6.7383   -1.0671    4.0018 N   0  0  0  0  0  0  0  0  0  0  0  0
   -3.6038   -0.0160    5.0051 C   0  0  0  0  0  0  0  0  0  0  0  0
   -2.5900   -0.5165    5.2441 N   0  0  0  0  0  0  0  0  0  0  0  0
    5.8688    0.6704    5.1531 H   0  0  0  0  0  0  0  0  0  0  0  0
    0.1692   -1.2041    7.0273 H   0  0  0  0  0  0  0  0  0  0  0  0
   -0.1941   -1.5079    9.4624 H   0  0  0  0  0  0  0  0  0  0  0  0
    3.6343    0.2708   10.2961 H   0  0  0  0  0  0  0  0  0  0  0  0
    6.7441    1.7454   -0.1698 H   0  0  0  0  0  0  0  0  0  0  0  0
    6.5565    3.9865   -1.1606 H   0  0  0  0  0  0  0  0  0  0  0  0
    6.6926    6.8863    0.4175 H   0  0  0  0  0  0  0  0  0  0  0  0
    4.8862    6.8350    0.4038 H   0  0  0  0  0  0  0  0  0  0  0  0
    5.8122    6.2812   -1.0349 H   0  0  0  0  0  0  0  0  0  0  0  0
    5.2827    5.5661    2.6570 H   0  0  0  0  0  0  0  0  0  0  0  0
    5.4558    3.3042    3.6317 H   0  0  0  0  0  0  0  0  0  0  0  0
    8.3217    2.6380    3.2250 H   0  0  0  0  0  0  0  0  0  0  0  0
   10.5187    1.8774    4.0402 H   0  0  0  0  0  0  0  0  0  0  0  0
   11.2807   -1.0146    5.3251 H   0  0  0  0  0  0  0  0  0  0  0  0
   12.1754    0.1153    4.2327 H   0  0  0  0  0  0  0  0  0  0  0  0
   11.7878   -1.5589    3.6773 H   0  0  0  0  0  0  0  0  0  0  0  0
    9.3381   -2.2123    3.3947 H   0  0  0  0  0  0  0  0  0  0  0  0
    7.1753   -1.4781    2.5558 H   0  0  0  0  0  0  0  0  0  0  0  0
    5.9520   -4.3638    1.0228 H   0  0  0  0  0  0  0  0  0  0  0  0
    7.3033   -5.6504    2.6351 H   0  0  0  0  0  0  0  0  0  0  0  0
    6.0762   -6.8706    5.8483 H   0  0  0  0  0  0  0  0  0  0  0  0
    6.3095   -8.1302    4.5704 H   0  0  0  0  0  0  0  0  0  0  0  0
    7.5002   -6.7850    4.7534 H   0  0  0  0  0  0  0  0  0  0  0  0
    3.7247   -6.6782    4.8032 H   0  0  0  0  0  0  0  0  0  0  0  0
    2.3761   -5.3871    3.2083 H   0  0  0  0  0  0  0  0  0  0  0  0
    1.0027   -2.5312    0.7579 H   0  0  0  0  0  0  0  0  0  0  0  0
   -1.1375   -3.3284   -0.1202 H   0  0  0  0  0  0  0  0  0  0  0  0
   -2.3635   -6.3257   -0.1031 H   0  0  0  0  0  0  0  0  0  0  0  0
   -2.3770   -5.0298   -1.3574 H   0  0  0  0  0  0  0  0  0  0  0  0
   -1.6098   -6.6145   -1.7270 H   0  0  0  0  0  0  0  0  0  0  0  0
    0.4823   -7.3043   -0.5134 H   0  0  0  0  0  0  0  0  0  0  0  0
    2.6447   -6.5038    0.3459 H   0  0  0  0  0  0  0  0  0  0  0  0
    6.7106   -0.5660   -2.6838 H   0  0  0  0  0  0  0  0  0  0  0  0
    9.1787   -0.7514   -2.6075 H   0  0  0  0  0  0  0  0  0  0  0  0
   10.2541   -2.9565   -2.8307 H   0  0  0  0  0  0  0  0  0  0  0  0
    8.5364   -5.9591   -4.0259 H   0  0  0  0  0  0  0  0  0  0  0  0
   10.1113   -5.2685   -3.5255 H   0  0  0  0  0  0  0  0  0  0  0  0
    9.4588   -5.6478   -1.0917 H   0  0  0  0  0  0  0  0  0  0  0  0
    7.9557   -6.4737   -1.6767 H   0  0  0  0  0  0  0  0  0  0  0  0
    9.5834   -7.1542   -2.0692 H   0  0  0  0  0  0  0  0  0  0  0  0
    6.3932   -4.8315   -3.1605 H   0  0  0  0  0  0  0  0  0  0  0  0
   -6.3747    1.1272   -7.9359 H   0  0  0  0  0  0  0  0  0  0  0  0
   -7.4322    3.1714   -8.7916 H   0  0  0  0  0  0  0  0  0  0  0  0
   -7.3999    5.2476   -7.4705 H   0  0  0  0  0  0  0  0  0  0  0  0
   -6.1049    6.5379   -5.6313 H   0  0  0  0  0  0  0  0  0  0  0  0
   -5.5879    5.6012   -4.1864 H   0  0  0  0  0  0  0  0  0  0  0  0
   -8.5081    5.7261   -5.2142 H   0  0  0  0  0  0  0  0  0  0  0  0
   -7.8359    6.7661   -3.9259 H   0  0  0  0  0  0  0  0  0  0  0  0
   -7.9254    4.9704   -3.6785 H   0  0  0  0  0  0  0  0  0  0  0  0
   -5.0280    3.2776   -4.4472 H   0  0  0  0  0  0  0  0  0  0  0  0
   -0.1916   -4.6682   -3.5725 H   0  0  0  0  0  0  0  0  0  0  0  0
   -0.5157   -5.3887   -5.2262 H   0  0  0  0  0  0  0  0  0  0  0  0
    0.5511   -7.0261   -3.8568 H   0  0  0  0  0  0  0  0  0  0  0  0
    1.5299   -6.5712   -5.2975 H   0  0  0  0  0  0  0  0  0  0  0  0
    1.9951   -5.9948   -3.6550 H   0  0  0  0  0  0  0  0  0  0  0  0
   -2.1649   -4.2575   -4.5365 H   0  0  0  0  0  0  0  0  0  0  0  0
   -3.6928   -3.8736   -5.2057 H   0  0  0  0  0  0  0  0  0  0  0  0
   -3.5698   -5.1477   -7.1454 H   0  0  0  0  0  0  0  0  0  0  0  0
   -1.7696   -5.1871   -7.1652 H   0  0  0  0  0  0  0  0  0  0  0  0
   -2.6810   -6.1819   -5.9454 H   0  0  0  0  0  0  0  0  0  0  0  0
   -6.2942   -2.8350   -2.3768 H   0  0  0  0  0  0  0  0  0  0  0  0
   -6.7347   -4.9691   -1.2149 H   0  0  0  0  0  0  0  0  0  0  0  0
   -6.5344   -6.2081    1.0172 H   0  0  0  0  0  0  0  0  0  0  0  0
   -5.0348   -5.9962    1.9894 H   0  0  0  0  0  0  0  0  0  0  0  0
   -4.9481   -6.7881    0.3717 H   0  0  0  0  0  0  0  0  0  0  0  0
   -3.6198   -4.0680    1.6211 H   0  0  0  0  0  0  0  0  0  0  0  0
   -3.1882   -1.9371    0.4696 H   0  0  0  0  0  0  0  0  0  0  0  0
   -3.2025    1.4141   -2.0254 H   0  0  0  0  0  0  0  0  0  0  0  0
   -0.8949    1.8686   -2.7049 H   0  0  0  0  0  0  0  0  0  0  0  0
    1.0537    0.1643   -4.4945 H   0  0  0  0  0  0  0  0  0  0  0  0
    1.4220    1.0166   -2.9571 H   0  0  0  0  0  0  0  0  0  0  0  0
    1.7294   -0.7570   -3.0875 H   0  0  0  0  0  0  0  0  0  0  0  0
   -0.1455   -2.3540   -3.0725 H   0  0  0  0  0  0  0  0  0  0  0  0
   -2.4523   -2.8263   -2.4189 H   0  0  0  0  0  0  0  0  0  0  0  0
   -7.9051    5.6387    2.0198 H   0  0  0  0  0  0  0  0  0  0  0  0
   -9.8105    5.9130    3.5582 H   0  0  0  0  0  0  0  0  0  0  0  0
  -11.8197    3.8107    4.6248 H   0  0  0  0  0  0  0  0  0  0  0  0
  -12.2076    5.4586    3.9984 H   0  0  0  0  0  0  0  0  0  0  0  0
  -13.0074    4.0184    3.2799 H   0  0  0  0  0  0  0  0  0  0  0  0
  -11.7688    2.5445    1.7256 H   0  0  0  0  0  0  0  0  0  0  0  0
   -9.8875    2.2781    0.1760 H   0  0  0  0  0  0  0  0  0  0  0  0
   -5.0321    3.9310   -0.7513 H   0  0  0  0  0  0  0  0  0  0  0  0
   -3.9669    5.8372   -1.8333 H   0  0  0  0  0  0  0  0  0  0  0  0
   -4.1541    8.5614   -1.8983 H   0  0  0  0  0  0  0  0  0  0  0  0
   -4.7471    7.9324   -3.4887 H   0  0  0  0  0  0  0  0  0  0  0  0
   -5.7333    9.1146   -2.5688 H   0  0  0  0  0  0  0  0  0  0  0  0
   -7.6433    8.0706   -1.5697 H   0  0  0  0  0  0  0  0  0  0  0  0
   -8.7587    6.1364   -0.5860 H   0  0  0  0  0  0  0  0  0  0  0  0
   -7.4064    1.3967    3.1710 H   0  0  0  0  0  0  0  0  0  0  0  0
   -3.0720    5.9013    3.3052 H   0  0  0  0  0  0  0  0  0  0  0  0
   -1.3519    5.8229    5.1191 H   0  0  0  0  0  0  0  0  0  0  0  0
   -1.2614    3.8822    6.6665 H   0  0  0  0  0  0  0  0  0  0  0  0
   -2.8908    2.0440    6.4637 H   0  0  0  0  0  0  0  0  0  0  0  0
  1  2  2  3
  2  3  1  0
  3  4  2  0
  3  5  1  0
  5  6  2  0
  6  7  1  0
  7  8  2  0
  8  9  1  0
  8 10  1  0
 10 11  2  0
 11 12  1  0
 12 13  2  3
 13 14  1  0
 14 15  3  0
 13 16  1  0
 16 17  3  0
  1 18  1  0
 18 19  2  0
 19 20  1  0
 20 21  1  0
 21 22  2  0
 22 23  1  0
 23 24  2  0
 24 25  1  0
 24 26  1  0
 26 27  2  0
 20 28  1  0
 28 29  2  0
 29 30  1  0
 30 31  2  0
 31 32  1  0
 31 33  1  0
 33 34  2  0
 19 35  1  0
 35 36  1  0
 36 37  1  0
 37 38  2  0
 38 39  1  0
 39 40  1  0
 40 41  2  0
 41 42  1  0
 42 43  2  0
 43 44  1  0
 43 45  1  0
 45 46  2  0
 39 47  1  0
 47 48  2  0
 48 49  1  0
 49 50  2  0
 50 51  1  0
 50 52  1  0
 52 53  2  0
 38 54  1  0
 54 55  1  0
 37 56  1  0
 56 57  2  0
 57 58  1  0
 58 59  2  0
 59 60  1  0
 60 61  2  0
 61 62  1  0
 62 63  1  0
 63 64  1  0
 62 65  2  0
 57 66  1  0
 66 67  1  0
 67 68  1  0
 68 69  1  0
 69 70  1  0
 70 71  1  0
 71 72  2  0
 72 73  1  0
 73 74  1  0
 71 75  1  0
 75 76  1  0
 76 77  1  0
 77 78  1  0
 78 79  1  0
 79 80  1  0
 80 81  2  0
 81 82  1  0
 82 83  2  0
 83 84  1  0
 84 85  1  0
 85 86  1  0
 84 87  2  0
 79 88  2  0
 88 89  1  0
 89 90  1  0
 90 91  1  0
 91 92  1  0
 92 93  1  0
 93 94  1  0
 94 95  1  0
 95 96  1  0
 96 97  1  0
 97 98  1  0
 95 99  1  0
 99100  1  0
 92101  1  0
101102  1  0
 88103  1  0
103104  2  0
104105  1  0
105106  1  0
106107  2  0
107108  1  0
108109  2  0
109110  1  0
109111  1  0
111112  2  0
105113  1  0
113114  2  0
114115  1  0
115116  2  0
116117  1  0
116118  1  0
118119  2  0
104120  1  0
120121  1  0
121122  1  0
122123  2  0
123124  1  0
124125  1  0
125126  2  0
126127  1  0
127128  2  0
128129  1  0
128130  1  0
130131  2  0
124132  1  0
132133  2  0
133134  1  0
134135  2  0
135136  1  0
135137  1  0
137138  2  0
123139  1  0
139140  1  0
122141  1  0
141142  2  3
142143  1  0
143144  2  0
143145  1  0
145146  2  0
146147  1  0
147148  2  0
148149  1  0
149150  2  0
150151  1  0
151152  2  3
152153  1  0
153154  3  0
152155  1  0
155156  3  0
 12  2  1  0
 55 18  1  0
 98 56  1  0
140103  1  0
151142  1  0
 11  5  1  0
 27 21  1  0
 34 28  1  0
 54 35  2  0
 65 58  1  0
 97 66  2  0
112106  1  0
119113  1  0
139120  2  0
150145  1  0
 46 40  1  0
 53 47  1  0
 96 68  2  0
131125  1  0
138132  1  0
 94 69  2  0
 74 70  2  0
 93 75  2  0
 91 76  2  0
 90 78  2  0
 87 80  1  0
  1157  1  0
  6158  1  0
  7159  1  0
 10160  1  0
 22161  1  0
 23162  1  0
 25163  1  0
 25164  1  0
 25165  1  0
 26166  1  0
 27167  1  0
 29168  1  0
 30169  1  0
 32170  1  0
 32171  1  0
 32172  1  0
 33173  1  0
 34174  1  0
 41175  1  0
 42176  1  0
 44177  1  0
 44178  1  0
 44179  1  0
 45180  1  0
 46181  1  0
 48182  1  0
 49183  1  0
 51184  1  0
 51185  1  0
 51186  1  0
 52187  1  0
 53188  1  0
 59189  1  0
 60190  1  0
 61191  1  0
 63192  1  0
 63193  1  0
 64194  1  0
 64195  1  0
 64196  1  0
 65197  1  0
 81198  1  0
 82199  1  0
 83200  1  0
 85201  1  0
 85202  1  0
 86203  1  0
 86204  1  0
 86205  1  0
 87206  1  0
 99207  1  0
 99208  1  0
100209  1  0
100210  1  0
100211  1  0
101212  1  0
101213  1  0
102214  1  0
102215  1  0
102216  1  0
107217  1  0
108218  1  0
110219  1  0
110220  1  0
110221  1  0
111222  1  0
112223  1  0
114224  1  0
115225  1  0
117226  1  0
117227  1  0
117228  1  0
118229  1  0
119230  1  0
126231  1  0
127232  1  0
129233  1  0
129234  1  0
129235  1  0
130236  1  0
131237  1  0
133238  1  0
134239  1  0
136240  1  0
136241  1  0
136242  1  0
137243  1  0
138244  1  0
141245  1  0
146246  1  0
147247  1  0
148248  1  0
149249  1  0
M  END

