
     RDKit          3D

209231  0  0  0  0  0  0  0  0999 V2000
   -4.8719   -3.7295   -4.5176 C   0  0  0  0  0  0  0  0  0  0  0  0
   -5.0346   -4.4767   -5.6210 C   0  0  0  0  0  0  0  0  0  0  0  0
   -4.4025   -4.2174   -6.9192 C   0  0  0  0  0  0  0  0  0  0  0  0
   -3.8208   -3.1562   -7.2734 O   0  0  0  0  0  0  0  0  0  0  0  0
   -4.4858   -5.4226   -7.7148 C   0  0  0  0  0  0  0  0  0  0  0  0
   -3.8821   -5.6838   -8.9458 C   0  0  0  0  0  0  0  0  0  0  0  0
   -3.9831   -6.9767   -9.4758 C   0  0  0  0  0  0  0  0  0  0  0  0
   -4.6518   -7.9866   -8.7565 C   0  0  0  0  0  0  0  0  0  0  0  0
   -4.7236   -9.6109   -9.4053 Cl  0  0  0  0  0  0  0  0  0  0  0  0
   -5.2390   -7.7033   -7.5115 C   0  0  0  0  0  0  0  0  0  0  0  0
   -5.1761   -6.3944   -7.0104 C   0  0  0  0  0  0  0  0  0  0  0  0
   -5.6486   -5.8379   -5.7116 C   0  0  0  0  0  0  0  0  0  0  0  0
   -6.6109   -6.3622   -4.9115 C   0  0  0  0  0  0  0  0  0  0  0  0
   -7.3303   -7.5593   -5.2604 C   0  0  0  0  0  0  0  0  0  0  0  0
   -7.9247   -8.5061   -5.5490 N   0  0  0  0  0  0  0  0  0  0  0  0
   -7.0970   -5.6880   -3.7376 C   0  0  0  0  0  0  0  0  0  0  0  0
   -7.5038   -5.1519   -2.7931 N   0  0  0  0  0  0  0  0  0  0  0  0
   -4.1823   -2.4315   -4.5095 C   0  0  0  0  0  0  0  0  0  0  0  0
   -4.7078   -1.1986   -4.9404 C   0  0  0  0  0  0  0  0  0  0  0  0
   -5.9309   -1.0167   -5.6783 N   0  0  0  0  0  0  0  0  0  0  0  0
   -5.9740   -0.0874   -6.7847 C   0  0  0  0  0  0  0  0  0  0  0  0
   -4.8634    0.0604   -7.6348 C   0  0  0  0  0  0  0  0  0  0  0  0
   -4.8868    0.9817   -8.6841 C   0  0  0  0  0  0  0  0  0  0  0  0
   -6.0167    1.7840   -8.8979 C   0  0  0  0  0  0  0  0  0  0  0  0
   -6.0482    2.7594  -10.0390 C   0  0  0  0  0  0  0  0  0  0  0  0
   -7.1383    1.6187   -8.0739 C   0  0  0  0  0  0  0  0  0  0  0  0
   -7.1191    0.6955   -7.0236 C   0  0  0  0  0  0  0  0  0  0  0  0
   -7.1233   -1.7109   -5.2757 C   0  0  0  0  0  0  0  0  0  0  0  0
   -7.5785   -1.6220   -3.9528 C   0  0  0  0  0  0  0  0  0  0  0  0
   -8.7528   -2.2734   -3.5626 C   0  0  0  0  0  0  0  0  0  0  0  0
   -9.4845   -3.0289   -4.4916 C   0  0  0  0  0  0  0  0  0  0  0  0
  -10.7100   -3.7795   -4.0615 C   0  0  0  0  0  0  0  0  0  0  0  0
   -9.0144   -3.1389   -5.8126 C   0  0  0  0  0  0  0  0  0  0  0  0
   -7.8481   -2.4731   -6.2007 C   0  0  0  0  0  0  0  0  0  0  0  0
   -3.8846   -0.1482   -4.5434 C   0  0  0  0  0  0  0  0  0  0  0  0
   -4.0794    1.5136   -4.4805 S   0  0  0  0  0  0  0  0  0  0  0  0
   -2.6641    1.7890   -3.5627 C   0  0  0  0  0  0  0  0  0  0  0  0
   -2.0049    0.5562   -3.3614 C   0  0  0  0  0  0  0  0  0  0  0  0
   -0.6661    0.3906   -2.8522 N   0  0  0  0  0  0  0  0  0  0  0  0
   -0.4257   -0.5830   -1.8092 C   0  0  0  0  0  0  0  0  0  0  0  0
    0.6508   -1.4869   -1.8997 C   0  0  0  0  0  0  0  0  0  0  0  0
    0.8905   -2.4101   -0.8792 C   0  0  0  0  0  0  0  0  0  0  0  0
    0.0390   -2.4684    0.2339 C   0  0  0  0  0  0  0  0  0  0  0  0
    0.2947   -3.4477    1.3412 C   0  0  0  0  0  0  0  0  0  0  0  0
   -1.0406   -1.5805    0.3235 C   0  0  0  0  0  0  0  0  0  0  0  0
   -1.2747   -0.6466   -0.6937 C   0  0  0  0  0  0  0  0  0  0  0  0
    0.4439    1.0064   -3.5552 C   0  0  0  0  0  0  0  0  0  0  0  0
    1.6260    1.3375   -2.8688 C   0  0  0  0  0  0  0  0  0  0  0  0
    2.6843    1.9627   -3.5325 C   0  0  0  0  0  0  0  0  0  0  0  0
    2.5781    2.2849   -4.8912 C   0  0  0  0  0  0  0  0  0  0  0  0
    3.6836    3.0323   -5.5796 C   0  0  0  0  0  0  0  0  0  0  0  0
    1.3985    1.9721   -5.5803 C   0  0  0  0  0  0  0  0  0  0  0  0
    0.3465    1.3307   -4.9241 C   0  0  0  0  0  0  0  0  0  0  0  0
   -2.7552   -0.5005   -3.8789 C   0  0  0  0  0  0  0  0  0  0  0  0
   -2.7080   -2.1687   -3.6957 S   0  0  0  0  0  0  0  0  0  0  0  0
   -2.4239    3.0401   -2.8072 C   0  0  0  0  0  0  0  0  0  0  0  0
   -3.4223    3.8456   -2.2079 C   0  0  0  0  0  0  0  0  0  0  0  0
   -4.8649    3.5282   -2.1403 C   0  0  0  0  0  0  0  0  0  0  0  0
   -5.8144    4.4773   -2.5435 C   0  0  0  0  0  0  0  0  0  0  0  0
   -7.1787    4.2113   -2.4092 C   0  0  0  0  0  0  0  0  0  0  0  0
   -7.6053    3.0013   -1.8476 C   0  0  0  0  0  0  0  0  0  0  0  0
   -6.6652    2.0412   -1.4358 C   0  0  0  0  0  0  0  0  0  0  0  0
   -7.1173    0.7549   -0.7910 C   0  0  0  0  0  0  0  0  0  0  0  0
   -6.9872    0.8271    0.7236 C   0  0  0  0  0  0  0  0  0  0  0  0
   -5.2960    2.3173   -1.5758 C   0  0  0  0  0  0  0  0  0  0  0  0
   -2.8628    4.8417   -1.4033 C   0  0  0  0  0  0  0  0  0  0  0  0
   -3.5415    5.7436   -0.1433 S   0  0  0  0  0  0  0  0  0  0  0  0
   -2.0123    6.1853    0.4484 C   0  0  0  0  0  0  0  0  0  0  0  0
   -1.5572    6.3605    1.7285 C   0  0  0  0  0  0  0  0  0  0  0  0
   -2.2947    6.3705    2.9262 C   0  0  0  0  0  0  0  0  0  0  0  0
   -1.6383    6.0407    4.1487 C   0  0  0  0  0  0  0  0  0  0  0  0
   -2.4024    5.9749    5.2657 N   0  0  0  0  0  0  0  0  0  0  0  0
   -3.8818    6.3353    4.6099 S   0  0  0  0  0  0  0  0  0  0  0  0
   -3.6342    6.5682    2.9873 N   0  0  0  0  0  0  0  0  0  0  0  0
   -0.2626    5.8112    4.1248 C   0  0  0  0  0  0  0  0  0  0  0  0
    0.6228    5.4161    5.0988 C   0  0  0  0  0  0  0  0  0  0  0  0
    0.5032    4.3365    6.4058 S   0  0  0  0  0  0  0  0  0  0  0  0
    2.1318    3.8568    6.2277 C   0  0  0  0  0  0  0  0  0  0  0  0
    2.8582    2.7632    6.7087 C   0  0  0  0  0  0  0  0  0  0  0  0
    2.3043    1.7466    7.6227 C   0  0  0  0  0  0  0  0  0  0  0  0
    2.9239    1.4906    8.8523 C   0  0  0  0  0  0  0  0  0  0  0  0
    2.4145    0.5040    9.7003 C   0  0  0  0  0  0  0  0  0  0  0  0
    1.2958   -0.2423    9.3211 C   0  0  0  0  0  0  0  0  0  0  0  0
    0.6611    0.0074    8.0951 C   0  0  0  0  0  0  0  0  0  0  0  0
   -0.5167   -0.8254    7.6632 C   0  0  0  0  0  0  0  0  0  0  0  0
   -0.0551   -2.0134    6.8268 C   0  0  0  0  0  0  0  0  0  0  0  0
    1.1745    0.9998    7.2463 C   0  0  0  0  0  0  0  0  0  0  0  0
    4.0562    2.6035    5.9836 C   0  0  0  0  0  0  0  0  0  0  0  0
    4.1436    3.7523    4.7332 S   0  0  0  0  0  0  0  0  0  0  0  0
    2.7167    4.5043    5.1670 C   0  0  0  0  0  0  0  0  0  0  0  0
    1.8507    5.3525    4.5023 C   0  0  0  0  0  0  0  0  0  0  0  0
    1.8033    5.6694    3.1869 N   0  0  0  0  0  0  0  0  0  0  0  0
    0.4784    5.8796    2.9410 C   0  0  0  0  0  0  0  0  0  0  0  0
   -0.2016    5.9966    1.7046 C   0  0  0  0  0  0  0  0  0  0  0  0
    0.1284    5.4348    0.4940 N   0  0  0  0  0  0  0  0  0  0  0  0
   -0.9953    5.6022   -0.2589 C   0  0  0  0  0  0  0  0  0  0  0  0
   -1.4942    4.8412   -1.3220 C   0  0  0  0  0  0  0  0  0  0  0  0
   -0.9056    3.5806   -2.2628 S   0  0  0  0  0  0  0  0  0  0  0  0
    1.0759    4.3266    0.2861 C   0  0  0  0  0  0  0  0  0  0  0  0
    2.0518    4.6277   -0.8573 C   0  0  0  0  0  0  0  0  0  0  0  0
    2.9485    6.0043    2.3297 C   0  0  0  0  0  0  0  0  0  0  0  0
    3.8621    7.0275    3.0025 C   0  0  0  0  0  0  0  0  0  0  0  0
    4.9434    1.4328    6.0215 C   0  0  0  0  0  0  0  0  0  0  0  0
    5.9781    1.3178    6.9632 C   0  0  0  0  0  0  0  0  0  0  0  0
    6.2014    2.2081    7.9666 N   0  0  0  0  0  0  0  0  0  0  0  0
    7.2986    1.8747    8.6905 C   0  0  0  0  0  0  0  0  0  0  0  0
    7.8444    2.7121    9.8045 C   0  0  0  0  0  0  0  0  0  0  0  0
    6.7421    3.1908   10.7458 C   0  0  0  0  0  0  0  0  0  0  0  0
    8.0675    0.4957    8.0740 S   0  0  0  0  0  0  0  0  0  0  0  0
    6.9203    0.2889    6.8612 C   0  0  0  0  0  0  0  0  0  0  0  0
    6.9138   -0.6406    5.8079 C   0  0  0  0  0  0  0  0  0  0  0  0
    5.8351   -0.5662    4.9042 C   0  0  0  0  0  0  0  0  0  0  0  0
    4.8939    0.4597    5.0131 C   0  0  0  0  0  0  0  0  0  0  0  0
    3.8077    0.3276    3.7402 S   0  0  0  0  0  0  0  0  0  0  0  0
    4.5721   -1.0391    3.1053 C   0  0  0  0  0  0  0  0  0  0  0  0
    4.0754   -1.7873    1.9057 C   0  0  0  0  0  0  0  0  0  0  0  0
    5.1434   -2.6983    1.2988 C   0  0  0  0  0  0  0  0  0  0  0  0
    5.6436   -1.4113    3.8554 N   0  0  0  0  0  0  0  0  0  0  0  0
    8.0145   -1.6144    5.6549 C   0  0  0  0  0  0  0  0  0  0  0  0
    8.6786   -1.8616    4.5038 C   0  0  0  0  0  0  0  0  0  0  0  0
    9.4009   -3.1115    4.2816 C   0  0  0  0  0  0  0  0  0  0  0  0
    9.8158   -3.8985    5.1738 O   0  0  0  0  0  0  0  0  0  0  0  0
    9.4850   -3.3435    2.8576 C   0  0  0  0  0  0  0  0  0  0  0  0
    9.9265   -4.4879    2.1943 C   0  0  0  0  0  0  0  0  0  0  0  0
    9.8146   -4.5354    0.7999 C   0  0  0  0  0  0  0  0  0  0  0  0
    9.2397   -3.4557    0.0991 C   0  0  0  0  0  0  0  0  0  0  0  0
    9.0492   -3.5510   -1.6409 Cl  0  0  0  0  0  0  0  0  0  0  0  0
    8.8111   -2.3089    0.7841 C   0  0  0  0  0  0  0  0  0  0  0  0
    8.9417   -2.2608    2.1812 C   0  0  0  0  0  0  0  0  0  0  0  0
    8.5402   -1.2129    3.1617 C   0  0  0  0  0  0  0  0  0  0  0  0
    8.4286    0.1182    2.9144 C   0  0  0  0  0  0  0  0  0  0  0  0
    8.5509    1.1049    3.9566 C   0  0  0  0  0  0  0  0  0  0  0  0
    8.6494    1.9109    4.7806 N   0  0  0  0  0  0  0  0  0  0  0  0
    8.3008    0.6510    1.5811 C   0  0  0  0  0  0  0  0  0  0  0  0
    8.1881    1.0920    0.5171 N   0  0  0  0  0  0  0  0  0  0  0  0
   -5.1496   -4.1161   -3.5521 H   0  0  0  0  0  0  0  0  0  0  0  0
   -3.3332   -4.9127   -9.4696 H   0  0  0  0  0  0  0  0  0  0  0  0
   -3.5234   -7.2020  -10.4298 H   0  0  0  0  0  0  0  0  0  0  0  0
   -5.6906   -8.5085   -6.9493 H   0  0  0  0  0  0  0  0  0  0  0  0
   -3.9699   -0.5310   -7.4811 H   0  0  0  0  0  0  0  0  0  0  0  0
   -4.0188    1.0744   -9.3244 H   0  0  0  0  0  0  0  0  0  0  0  0
   -6.4884    2.2740  -10.9374 H   0  0  0  0  0  0  0  0  0  0  0  0
   -5.0217    3.1072  -10.2830 H   0  0  0  0  0  0  0  0  0  0  0  0
   -6.6538    3.6523   -9.7710 H   0  0  0  0  0  0  0  0  0  0  0  0
   -8.0278    2.2154   -8.2398 H   0  0  0  0  0  0  0  0  0  0  0  0
   -7.9878    0.6113   -6.3824 H   0  0  0  0  0  0  0  0  0  0  0  0
   -7.0275   -1.0376   -3.2319 H   0  0  0  0  0  0  0  0  0  0  0  0
   -9.0882   -2.1939   -2.5322 H   0  0  0  0  0  0  0  0  0  0  0  0
  -10.4143   -4.7771   -3.6744 H   0  0  0  0  0  0  0  0  0  0  0  0
  -11.4083   -3.9121   -4.9117 H   0  0  0  0  0  0  0  0  0  0  0  0
  -11.2450   -3.2229   -3.2647 H   0  0  0  0  0  0  0  0  0  0  0  0
   -9.5502   -3.7393   -6.5392 H   0  0  0  0  0  0  0  0  0  0  0  0
   -7.5019   -2.5590   -7.2223 H   0  0  0  0  0  0  0  0  0  0  0  0
    1.3041   -1.4854   -2.7638 H   0  0  0  0  0  0  0  0  0  0  0  0
    1.7375   -3.0820   -0.9619 H   0  0  0  0  0  0  0  0  0  0  0  0
    1.1106   -4.1558    1.0775 H   0  0  0  0  0  0  0  0  0  0  0  0
   -0.6247   -4.0402    1.5395 H   0  0  0  0  0  0  0  0  0  0  0  0
    0.5850   -2.8987    2.2637 H   0  0  0  0  0  0  0  0  0  0  0  0
   -1.7044   -1.6104    1.1782 H   0  0  0  0  0  0  0  0  0  0  0  0
   -2.1147    0.0319   -0.6051 H   0  0  0  0  0  0  0  0  0  0  0  0
    1.7216    1.1291   -1.8133 H   0  0  0  0  0  0  0  0  0  0  0  0
    3.5803    2.2138   -2.9782 H   0  0  0  0  0  0  0  0  0  0  0  0
    3.6800    2.8204   -6.6708 H   0  0  0  0  0  0  0  0  0  0  0  0
    4.6708    2.7332   -5.1680 H   0  0  0  0  0  0  0  0  0  0  0  0
    3.5404    4.1219   -5.4250 H   0  0  0  0  0  0  0  0  0  0  0  0
    1.2915    2.2358   -6.6270 H   0  0  0  0  0  0  0  0  0  0  0  0
   -0.5440    1.0879   -5.4914 H   0  0  0  0  0  0  0  0  0  0  0  0
   -5.4963    5.4267   -2.9466 H   0  0  0  0  0  0  0  0  0  0  0  0
   -7.9076    4.9548   -2.7135 H   0  0  0  0  0  0  0  0  0  0  0  0
   -8.6703    2.8175   -1.7298 H   0  0  0  0  0  0  0  0  0  0  0  0
   -6.5035   -0.0857   -1.1696 H   0  0  0  0  0  0  0  0  0  0  0  0
   -8.1755    0.5445   -1.0552 H   0  0  0  0  0  0  0  0  0  0  0  0
   -7.6270    1.6402    1.1298 H   0  0  0  0  0  0  0  0  0  0  0  0
   -7.3096   -0.1365    1.1749 H   0  0  0  0  0  0  0  0  0  0  0  0
   -5.9323    1.0262    1.0213 H   0  0  0  0  0  0  0  0  0  0  0  0
   -4.5657    1.5942   -1.2307 H   0  0  0  0  0  0  0  0  0  0  0  0
    3.7900    2.0618    9.1599 H   0  0  0  0  0  0  0  0  0  0  0  0
    2.8911    0.3133   10.6565 H   0  0  0  0  0  0  0  0  0  0  0  0
    0.9334   -1.0170    9.9807 H   0  0  0  0  0  0  0  0  0  0  0  0
   -1.2221   -0.2088    7.0684 H   0  0  0  0  0  0  0  0  0  0  0  0
   -1.0690   -1.1984    8.5518 H   0  0  0  0  0  0  0  0  0  0  0  0
    0.6542   -2.6465    7.4022 H   0  0  0  0  0  0  0  0  0  0  0  0
   -0.9314   -2.6362    6.5434 H   0  0  0  0  0  0  0  0  0  0  0  0
    0.4411   -1.6569    5.8949 H   0  0  0  0  0  0  0  0  0  0  0  0
    0.7056    1.1784    6.2815 H   0  0  0  0  0  0  0  0  0  0  0  0
    0.5118    3.3950    0.0657 H   0  0  0  0  0  0  0  0  0  0  0  0
    1.6365    4.0769    1.2009 H   0  0  0  0  0  0  0  0  0  0  0  0
    2.5029    3.6728   -1.1940 H   0  0  0  0  0  0  0  0  0  0  0  0
    2.8673    5.2972   -0.5250 H   0  0  0  0  0  0  0  0  0  0  0  0
    1.5313    5.0983   -1.7159 H   0  0  0  0  0  0  0  0  0  0  0  0
    3.5317    5.0824    2.1033 H   0  0  0  0  0  0  0  0  0  0  0  0
    2.5862    6.4596    1.3828 H   0  0  0  0  0  0  0  0  0  0  0  0
    3.2890    7.9404    3.2685 H   0  0  0  0  0  0  0  0  0  0  0  0
    4.6783    7.3030    2.3074 H   0  0  0  0  0  0  0  0  0  0  0  0
    4.3172    6.6056    3.9247 H   0  0  0  0  0  0  0  0  0  0  0  0
    8.3653    3.5916    9.3655 H   0  0  0  0  0  0  0  0  0  0  0  0
    8.5779    2.1169   10.3919 H   0  0  0  0  0  0  0  0  0  0  0  0
    6.2093    2.3183   11.1835 H   0  0  0  0  0  0  0  0  0  0  0  0
    7.1984    3.7869   11.5680 H   0  0  0  0  0  0  0  0  0  0  0  0
    6.0163    3.8284   10.1979 H   0  0  0  0  0  0  0  0  0  0  0  0
    3.7375   -1.0641    1.1316 H   0  0  0  0  0  0  0  0  0  0  0  0
    3.2041   -2.4017    2.2115 H   0  0  0  0  0  0  0  0  0  0  0  0
    5.4994   -3.4347    2.0558 H   0  0  0  0  0  0  0  0  0  0  0  0
    4.7035   -3.2528    0.4386 H   0  0  0  0  0  0  0  0  0  0  0  0
    6.0016   -2.0917    0.9376 H   0  0  0  0  0  0  0  0  0  0  0  0
    8.2545   -2.2145    6.5260 H   0  0  0  0  0  0  0  0  0  0  0  0
   10.3447   -5.3258    2.7382 H   0  0  0  0  0  0  0  0  0  0  0  0
   10.1534   -5.4158    0.2592 H   0  0  0  0  0  0  0  0  0  0  0  0
    8.3417   -1.5158    0.2280 H   0  0  0  0  0  0  0  0  0  0  0  0
  1  2  2  3
  2  3  1  0
  3  4  2  0
  3  5  1  0
  5  6  2  0
  6  7  1  0
  7  8  2  0
  8  9  1  0
  8 10  1  0
 10 11  2  0
 11 12  1  0
 12 13  2  3
 13 14  1  0
 14 15  3  0
 13 16  1  0
 16 17  3  0
  1 18  1  0
 18 19  2  0
 19 20  1  0
 20 21  1  0
 21 22  2  0
 22 23  1  0
 23 24  2  0
 24 25  1  0
 24 26  1  0
 26 27  2  0
 20 28  1  0
 28 29  2  0
 29 30  1  0
 30 31  2  0
 31 32  1  0
 31 33  1  0
 33 34  2  0
 19 35  1  0
 35 36  1  0
 36 37  1  0
 37 38  2  0
 38 39  1  0
 39 40  1  0
 40 41  2  0
 41 42  1  0
 42 43  2  0
 43 44  1  0
 43 45  1  0
 45 46  2  0
 39 47  1  0
 47 48  2  0
 48 49  1  0
 49 50  2  0
 50 51  1  0
 50 52  1  0
 52 53  2  0
 38 54  1  0
 54 55  1  0
 37 56  1  0
 56 57  2  0
 57 58  1  0
 58 59  2  0
 59 60  1  0
 60 61  2  0
 61 62  1  0
 62 63  1  0
 63 64  1  0
 62 65  2  0
 57 66  1  0
 66 67  1  0
 67 68  1  0
 68 69  1  0
 69 70  1  0
 70 71  1  0
 71 72  2  0
 72 73  1  0
 73 74  1  0
 71 75  1  0
 75 76  1  0
 76 77  1  0
 77 78  1  0
 78 79  1  0
 79 80  1  0
 80 81  2  0
 81 82  1  0
 82 83  2  0
 83 84  1  0
 84 85  1  0
 85 86  1  0
 84 87  2  0
 79 88  2  0
 88 89  1  0
 89 90  1  0
 90 91  1  0
 91 92  1  0
 92 93  1  0
 93 94  1  0
 94 95  1  0
 95 96  1  0
 96 97  1  0
 97 98  1  0
 95 99  1  0
 99100  1  0
 92101  1  0
101102  1  0
 88103  1  0
103104  2  0
104105  1  0
105106  2  0
106107  1  0
107108  1  0
106109  1  0
109110  1  0
110111  2  0
111112  1  0
112113  2  0
113114  1  0
114115  1  0
115116  1  0
116117  1  0
115118  2  0
111119  1  0
119120  2  3
120121  1  0
121122  2  0
121123  1  0
123124  2  0
124125  1  0
125126  2  0
126127  1  0
126128  1  0
128129  2  0
129130  1  0
130131  2  3
131132  1  0
132133  3  0
131134  1  0
134135  3  0
 12  2  1  0
 55 18  1  0
 98 56  1  0
113103  1  0
130120  1  0
 11  5  1  0
 27 21  1  0
 34 28  1  0
 54 35  2  0
 65 58  1  0
 97 66  2  0
110104  1  0
118112  1  0
129123  1  0
 46 40  1  0
 53 47  1  0
 96 68  2  0
 94 69  2  0
 74 70  2  0
 93 75  2  0
 91 76  2  0
 90 78  2  0
 87 80  1  0
  1136  1  0
  6137  1  0
  7138  1  0
 10139  1  0
 22140  1  0
 23141  1  0
 25142  1  0
 25143  1  0
 25144  1  0
 26145  1  0
 27146  1  0
 29147  1  0
 30148  1  0
 32149  1  0
 32150  1  0
 32151  1  0
 33152  1  0
 34153  1  0
 41154  1  0
 42155  1  0
 44156  1  0
 44157  1  0
 44158  1  0
 45159  1  0
 46160  1  0
 48161  1  0
 49162  1  0
 51163  1  0
 51164  1  0
 51165  1  0
 52166  1  0
 53167  1  0
 59168  1  0
 60169  1  0
 61170  1  0
 63171  1  0
 63172  1  0
 64173  1  0
 64174  1  0
 64175  1  0
 65176  1  0
 81177  1  0
 82178  1  0
 83179  1  0
 85180  1  0
 85181  1  0
 86182  1  0
 86183  1  0
 86184  1  0
 87185  1  0
 99186  1  0
 99187  1  0
100188  1  0
100189  1  0
100190  1  0
101191  1  0
101192  1  0
102193  1  0
102194  1  0
102195  1  0
107196  1  0
107197  1  0
108198  1  0
108199  1  0
108200  1  0
116201  1  0
116202  1  0
117203  1  0
117204  1  0
117205  1  0
119206  1  0
124207  1  0
125208  1  0
128209  1  0
M  END

