
     RDKit          3D

252278  0  0  0  0  0  0  0  0999 V2000
   -4.0552   -2.2481   -8.9436 C   0  0  0  0  0  0  0  0  0  0  0  0
   -3.0660   -2.9404   -8.3403 C   0  0  0  0  0  0  0  0  0  0  0  0
   -2.5404   -2.6116   -7.0188 C   0  0  0  0  0  0  0  0  0  0  0  0
   -3.2039   -2.1432   -6.0627 O   0  0  0  0  0  0  0  0  0  0  0  0
   -1.1532   -2.9960   -6.9641 C   0  0  0  0  0  0  0  0  0  0  0  0
   -0.2319   -2.7262   -5.9549 C   0  0  0  0  0  0  0  0  0  0  0  0
    1.0980   -3.1130   -6.1526 C   0  0  0  0  0  0  0  0  0  0  0  0
    1.4808   -3.7734   -7.3307 C   0  0  0  0  0  0  0  0  0  0  0  0
    3.1549   -4.2573   -7.5730 Cl  0  0  0  0  0  0  0  0  0  0  0  0
    0.5297   -4.0478   -8.3322 C   0  0  0  0  0  0  0  0  0  0  0  0
   -0.8058   -3.6437   -8.1380 C   0  0  0  0  0  0  0  0  0  0  0  0
   -2.0044   -3.7399   -9.0260 C   0  0  0  0  0  0  0  0  0  0  0  0
   -2.1343   -4.4437  -10.1725 C   0  0  0  0  0  0  0  0  0  0  0  0
   -1.0126   -5.0622  -10.8291 C   0  0  0  0  0  0  0  0  0  0  0  0
   -0.1105   -5.5472  -11.3804 N   0  0  0  0  0  0  0  0  0  0  0  0
   -3.4126   -4.6370  -10.8153 C   0  0  0  0  0  0  0  0  0  0  0  0
   -4.4377   -4.7857  -11.3348 N   0  0  0  0  0  0  0  0  0  0  0  0
   -4.4790   -0.9420   -8.4162 C   0  0  0  0  0  0  0  0  0  0  0  0
   -3.6438    0.1880   -8.3157 C   0  0  0  0  0  0  0  0  0  0  0  0
   -2.2780    0.2613   -8.8061 N   0  0  0  0  0  0  0  0  0  0  0  0
   -1.2792    0.9601   -8.0315 C   0  0  0  0  0  0  0  0  0  0  0  0
   -1.1191    0.7047   -6.6574 C   0  0  0  0  0  0  0  0  0  0  0  0
   -0.1970    1.4305   -5.8971 C   0  0  0  0  0  0  0  0  0  0  0  0
    0.5863    2.4261   -6.4985 C   0  0  0  0  0  0  0  0  0  0  0  0
    1.5394    3.2492   -5.6848 C   0  0  0  0  0  0  0  0  0  0  0  0
    0.4341    2.6804   -7.8710 C   0  0  0  0  0  0  0  0  0  0  0  0
   -0.4823    1.9489   -8.6312 C   0  0  0  0  0  0  0  0  0  0  0  0
   -1.9156   -0.3001  -10.0869 C   0  0  0  0  0  0  0  0  0  0  0  0
   -0.6566   -0.9011  -10.2673 C   0  0  0  0  0  0  0  0  0  0  0  0
   -0.2972   -1.4422  -11.5025 C   0  0  0  0  0  0  0  0  0  0  0  0
   -1.1919   -1.3924  -12.5823 C   0  0  0  0  0  0  0  0  0  0  0  0
   -0.7943   -1.9305  -13.9306 C   0  0  0  0  0  0  0  0  0  0  0  0
   -2.4378   -0.7683  -12.4129 C   0  0  0  0  0  0  0  0  0  0  0  0
   -2.7987   -0.2284  -11.1751 C   0  0  0  0  0  0  0  0  0  0  0  0
   -4.2532    1.1677   -7.5386 C   0  0  0  0  0  0  0  0  0  0  0  0
   -3.7717    2.6428   -6.9680 S   0  0  0  0  0  0  0  0  0  0  0  0
   -5.0647    2.8489   -5.8629 C   0  0  0  0  0  0  0  0  0  0  0  0
   -5.9669    1.7724   -6.0636 C   0  0  0  0  0  0  0  0  0  0  0  0
   -7.3889    1.9166   -5.9267 N   0  0  0  0  0  0  0  0  0  0  0  0
   -8.1792    0.9464   -5.1891 C   0  0  0  0  0  0  0  0  0  0  0  0
   -7.5712   -0.1347   -4.5186 C   0  0  0  0  0  0  0  0  0  0  0  0
   -8.3374   -1.0589   -3.8068 C   0  0  0  0  0  0  0  0  0  0  0  0
   -9.7282   -0.9116   -3.7205 C   0  0  0  0  0  0  0  0  0  0  0  0
  -10.5563   -1.9125   -2.9723 C   0  0  0  0  0  0  0  0  0  0  0  0
  -10.3455    0.1655   -4.3719 C   0  0  0  0  0  0  0  0  0  0  0  0
   -9.5828    1.0860   -5.0927 C   0  0  0  0  0  0  0  0  0  0  0  0
   -8.0116    2.7167   -6.9520 C   0  0  0  0  0  0  0  0  0  0  0  0
   -8.6268    2.1002   -8.0559 C   0  0  0  0  0  0  0  0  0  0  0  0
   -9.1125    2.8687   -9.1175 C   0  0  0  0  0  0  0  0  0  0  0  0
   -8.9843    4.2630   -9.0954 C   0  0  0  0  0  0  0  0  0  0  0  0
   -9.5023    5.0958  -10.2286 C   0  0  0  0  0  0  0  0  0  0  0  0
   -8.3849    4.8818   -7.9885 C   0  0  0  0  0  0  0  0  0  0  0  0
   -7.8880    4.1120   -6.9345 C   0  0  0  0  0  0  0  0  0  0  0  0
   -5.4472    0.8501   -6.9910 C   0  0  0  0  0  0  0  0  0  0  0  0
   -5.9124   -0.6782   -7.5252 S   0  0  0  0  0  0  0  0  0  0  0  0
   -4.7506    3.5304   -4.5695 C   0  0  0  0  0  0  0  0  0  0  0  0
   -5.5142    3.7262   -3.3787 C   0  0  0  0  0  0  0  0  0  0  0  0
   -6.9169    3.3618   -3.1320 C   0  0  0  0  0  0  0  0  0  0  0  0
   -7.2012    2.2200   -2.3672 C   0  0  0  0  0  0  0  0  0  0  0  0
   -8.4970    1.9815   -1.9045 C   0  0  0  0  0  0  0  0  0  0  0  0
   -9.5153    2.8893   -2.1892 C   0  0  0  0  0  0  0  0  0  0  0  0
   -9.2423    4.0465   -2.9334 C   0  0  0  0  0  0  0  0  0  0  0  0
  -10.3135    5.0843   -3.1252 C   0  0  0  0  0  0  0  0  0  0  0  0
  -10.3272    6.0639   -1.9560 C   0  0  0  0  0  0  0  0  0  0  0  0
   -7.9367    4.2855   -3.3935 C   0  0  0  0  0  0  0  0  0  0  0  0
   -4.6890    4.1460   -2.3161 C   0  0  0  0  0  0  0  0  0  0  0  0
   -4.9296    4.3961   -0.6332 S   0  0  0  0  0  0  0  0  0  0  0  0
   -3.2451    4.5023   -0.3724 C   0  0  0  0  0  0  0  0  0  0  0  0
   -2.3099    4.5977    0.6300 C   0  0  0  0  0  0  0  0  0  0  0  0
   -2.3844    4.9676    1.9790 C   0  0  0  0  0  0  0  0  0  0  0  0
   -1.1637    5.0838    2.7229 C   0  0  0  0  0  0  0  0  0  0  0  0
   -1.2798    5.4162    4.0277 N   0  0  0  0  0  0  0  0  0  0  0  0
   -2.9243    5.5694    4.1314 S   0  0  0  0  0  0  0  0  0  0  0  0
   -3.5381    5.2290    2.6308 N   0  0  0  0  0  0  0  0  0  0  0  0
    0.0527    4.7440    2.0983 C   0  0  0  0  0  0  0  0  0  0  0  0
    1.2574    4.3972    2.6482 C   0  0  0  0  0  0  0  0  0  0  0  0
    1.8971    4.3036    4.2114 S   0  0  0  0  0  0  0  0  0  0  0  0
    2.9797    3.0796    3.7320 C   0  0  0  0  0  0  0  0  0  0  0  0
    3.8114    2.2496    4.4913 C   0  0  0  0  0  0  0  0  0  0  0  0
    4.6704    2.8482    5.5443 C   0  0  0  0  0  0  0  0  0  0  0  0
    5.3342    4.0554    5.2510 C   0  0  0  0  0  0  0  0  0  0  0  0
    6.1737    4.6534    6.1881 C   0  0  0  0  0  0  0  0  0  0  0  0
    6.3722    4.0478    7.4261 C   0  0  0  0  0  0  0  0  0  0  0  0
    5.7198    2.8450    7.7387 C   0  0  0  0  0  0  0  0  0  0  0  0
    6.0371    2.1656    9.0393 C   0  0  0  0  0  0  0  0  0  0  0  0
    7.4167    1.5136    8.9751 C   0  0  0  0  0  0  0  0  0  0  0  0
    4.8461    2.2553    6.8033 C   0  0  0  0  0  0  0  0  0  0  0  0
    4.1211    1.0653    3.7743 C   0  0  0  0  0  0  0  0  0  0  0  0
    3.4548    1.2072    2.2034 S   0  0  0  0  0  0  0  0  0  0  0  0
    2.7688    2.7095    2.4356 C   0  0  0  0  0  0  0  0  0  0  0  0
    1.8470    3.5187    1.7842 C   0  0  0  0  0  0  0  0  0  0  0  0
    1.1568    3.3876    0.6237 N   0  0  0  0  0  0  0  0  0  0  0  0
    0.0774    4.2248    0.7965 C   0  0  0  0  0  0  0  0  0  0  0  0
   -1.0844    4.3252    0.0133 C   0  0  0  0  0  0  0  0  0  0  0  0
   -1.2235    4.2194   -1.3406 N   0  0  0  0  0  0  0  0  0  0  0  0
   -2.5546    4.3321   -1.5192 C   0  0  0  0  0  0  0  0  0  0  0  0
   -3.3638    4.2059   -2.6175 C   0  0  0  0  0  0  0  0  0  0  0  0
   -3.1089    3.8373   -4.1992 S   0  0  0  0  0  0  0  0  0  0  0  0
   -0.1988    4.4226   -2.3746 C   0  0  0  0  0  0  0  0  0  0  0  0
   -0.2523    5.8478   -2.9216 C   0  0  0  0  0  0  0  0  0  0  0  0
    1.2390    2.2198   -0.2706 C   0  0  0  0  0  0  0  0  0  0  0  0
    2.5486    2.1972   -1.0611 C   0  0  0  0  0  0  0  0  0  0  0  0
    4.3514   -0.2607    4.4022 C   0  0  0  0  0  0  0  0  0  0  0  0
    3.4604   -1.3529    4.2998 C   0  0  0  0  0  0  0  0  0  0  0  0
    2.2635   -1.3875    3.5028 N   0  0  0  0  0  0  0  0  0  0  0  0
    2.3190   -1.8764    2.1397 C   0  0  0  0  0  0  0  0  0  0  0  0
    3.3515   -2.7346    1.7128 C   0  0  0  0  0  0  0  0  0  0  0  0
    3.4022   -3.1846    0.3899 C   0  0  0  0  0  0  0  0  0  0  0  0
    2.4351   -2.7715   -0.5361 C   0  0  0  0  0  0  0  0  0  0  0  0
    2.4595   -3.2860   -1.9440 C   0  0  0  0  0  0  0  0  0  0  0  0
    1.4048   -1.9192   -0.1186 C   0  0  0  0  0  0  0  0  0  0  0  0
    1.3507   -1.4712    1.2037 C   0  0  0  0  0  0  0  0  0  0  0  0
    1.0012   -1.1462    4.1588 C   0  0  0  0  0  0  0  0  0  0  0  0
   -0.0796   -2.0265    3.9753 C   0  0  0  0  0  0  0  0  0  0  0  0
   -1.3089   -1.7815    4.5929 C   0  0  0  0  0  0  0  0  0  0  0  0
   -1.4810   -0.6472    5.4004 C   0  0  0  0  0  0  0  0  0  0  0  0
   -2.7970   -0.3928    6.0706 C   0  0  0  0  0  0  0  0  0  0  0  0
   -0.3940    0.2078    5.6244 C   0  0  0  0  0  0  0  0  0  0  0  0
    0.8365   -0.0402    5.0087 C   0  0  0  0  0  0  0  0  0  0  0  0
    3.8144   -2.3910    5.1485 C   0  0  0  0  0  0  0  0  0  0  0  0
    3.0907   -3.8621    5.5280 S   0  0  0  0  0  0  0  0  0  0  0  0
    4.2657   -4.2453    6.6950 C   0  0  0  0  0  0  0  0  0  0  0  0
    5.2254   -3.2194    6.7803 C   0  0  0  0  0  0  0  0  0  0  0  0
    6.3351   -3.2478    7.6986 N   0  0  0  0  0  0  0  0  0  0  0  0
    7.1903   -4.4078    7.6228 C   0  0  0  0  0  0  0  0  0  0  0  0
    7.3598   -5.2523    8.7386 C   0  0  0  0  0  0  0  0  0  0  0  0
    8.0639   -6.4536    8.6187 C   0  0  0  0  0  0  0  0  0  0  0  0
    8.6145   -6.8323    7.3868 C   0  0  0  0  0  0  0  0  0  0  0  0
    9.3025   -8.1576    7.2473 C   0  0  0  0  0  0  0  0  0  0  0  0
    8.4410   -5.9957    6.2719 C   0  0  0  0  0  0  0  0  0  0  0  0
    7.7414   -4.7940    6.3925 C   0  0  0  0  0  0  0  0  0  0  0  0
    6.3478   -2.3899    8.8688 C   0  0  0  0  0  0  0  0  0  0  0  0
    5.1781   -1.7380    9.3081 C   0  0  0  0  0  0  0  0  0  0  0  0
    5.1629   -1.0176   10.5040 C   0  0  0  0  0  0  0  0  0  0  0  0
    6.3305   -0.8865   11.2665 C   0  0  0  0  0  0  0  0  0  0  0  0
    6.3138   -0.0818   12.5316 C   0  0  0  0  0  0  0  0  0  0  0  0
    7.5068   -1.5134   10.8308 C   0  0  0  0  0  0  0  0  0  0  0  0
    7.5180   -2.2442    9.6394 C   0  0  0  0  0  0  0  0  0  0  0  0
    4.9287   -2.1855    5.8941 C   0  0  0  0  0  0  0  0  0  0  0  0
    5.5646   -0.6665    5.5436 S   0  0  0  0  0  0  0  0  0  0  0  0
    4.1826   -5.3744    7.6366 C   0  0  0  0  0  0  0  0  0  0  0  0
    3.5207   -5.2706    8.8042 C   0  0  0  0  0  0  0  0  0  0  0  0
    2.7228   -4.1097    9.2190 C   0  0  0  0  0  0  0  0  0  0  0  0
    2.1688   -3.2728    8.4605 O   0  0  0  0  0  0  0  0  0  0  0  0
    2.6634   -4.0864   10.6601 C   0  0  0  0  0  0  0  0  0  0  0  0
    2.1739   -3.0608   11.4778 C   0  0  0  0  0  0  0  0  0  0  0  0
    2.3595   -3.2042   12.8569 C   0  0  0  0  0  0  0  0  0  0  0  0
    1.9668   -2.2844   13.8352 C   0  0  0  0  0  0  0  0  0  0  0  0
    2.3292   -2.6914   15.1174 C   0  0  0  0  0  0  0  0  0  0  0  0
    1.9779   -1.7287   16.7215 Br  0  0  0  0  0  0  0  0  0  0  0  0
    3.1363   -4.1730   15.0428 S   0  0  0  0  0  0  0  0  0  0  0  0
    3.0207   -4.3171   13.3721 C   0  0  0  0  0  0  0  0  0  0  0  0
    3.5194   -5.3405   12.5536 C   0  0  0  0  0  0  0  0  0  0  0  0
    3.3051   -5.2170   11.1675 C   0  0  0  0  0  0  0  0  0  0  0  0
    3.7638   -6.0769   10.0374 C   0  0  0  0  0  0  0  0  0  0  0  0
    4.1376   -7.3781   10.1049 C   0  0  0  0  0  0  0  0  0  0  0  0
    4.1596   -8.1064   11.3494 C   0  0  0  0  0  0  0  0  0  0  0  0
    4.1688   -8.7050   12.3381 N   0  0  0  0  0  0  0  0  0  0  0  0
    4.3908   -8.1701    8.9303 C   0  0  0  0  0  0  0  0  0  0  0  0
    4.5928   -8.8170    7.9885 N   0  0  0  0  0  0  0  0  0  0  0  0
   -4.3141   -2.4328   -9.9708 H   0  0  0  0  0  0  0  0  0  0  0  0
   -0.5247   -2.2107   -5.0476 H   0  0  0  0  0  0  0  0  0  0  0  0
    1.8322   -2.9114   -5.3793 H   0  0  0  0  0  0  0  0  0  0  0  0
    0.8620   -4.5226   -9.2328 H   0  0  0  0  0  0  0  0  0  0  0  0
   -1.7266   -0.0355   -6.1635 H   0  0  0  0  0  0  0  0  0  0  0  0
   -0.1049    1.2247   -4.8388 H   0  0  0  0  0  0  0  0  0  0  0  0
    1.6751    2.8241   -4.6683 H   0  0  0  0  0  0  0  0  0  0  0  0
    2.5309    3.2902   -6.1832 H   0  0  0  0  0  0  0  0  0  0  0  0
    1.1439    4.2833   -5.5845 H   0  0  0  0  0  0  0  0  0  0  0  0
    1.0203    3.4531   -8.3484 H   0  0  0  0  0  0  0  0  0  0  0  0
   -0.6016    2.1730   -9.6798 H   0  0  0  0  0  0  0  0  0  0  0  0
    0.0419   -0.9676   -9.4437 H   0  0  0  0  0  0  0  0  0  0  0  0
    0.6704   -1.9011  -11.6242 H   0  0  0  0  0  0  0  0  0  0  0  0
   -0.0644   -2.7585  -13.8236 H   0  0  0  0  0  0  0  0  0  0  0  0
   -0.3285   -1.1164  -14.5270 H   0  0  0  0  0  0  0  0  0  0  0  0
   -1.6796   -2.3180  -14.4704 H   0  0  0  0  0  0  0  0  0  0  0  0
   -3.1317   -0.6977  -13.2426 H   0  0  0  0  0  0  0  0  0  0  0  0
   -3.7629    0.2513  -11.0728 H   0  0  0  0  0  0  0  0  0  0  0  0
   -6.5007   -0.2700   -4.5357 H   0  0  0  0  0  0  0  0  0  0  0  0
   -7.8441   -1.8848   -3.3099 H   0  0  0  0  0  0  0  0  0  0  0  0
  -10.9861   -2.6449   -3.6892 H   0  0  0  0  0  0  0  0  0  0  0  0
  -11.3816   -1.4086   -2.4276 H   0  0  0  0  0  0  0  0  0  0  0  0
   -9.9440   -2.4639   -2.2267 H   0  0  0  0  0  0  0  0  0  0  0  0
  -11.4203    0.2928   -4.3152 H   0  0  0  0  0  0  0  0  0  0  0  0
  -10.0904    1.9178   -5.5629 H   0  0  0  0  0  0  0  0  0  0  0  0
   -8.7070    1.0204   -8.0959 H   0  0  0  0  0  0  0  0  0  0  0  0
   -9.5799    2.3724   -9.9583 H   0  0  0  0  0  0  0  0  0  0  0  0
  -10.4462    5.5958   -9.9223 H   0  0  0  0  0  0  0  0  0  0  0  0
   -8.7581    5.8730  -10.5097 H   0  0  0  0  0  0  0  0  0  0  0  0
   -9.7024    4.4759  -11.1295 H   0  0  0  0  0  0  0  0  0  0  0  0
   -8.2728    5.9584   -7.9566 H   0  0  0  0  0  0  0  0  0  0  0  0
   -7.3781    4.6016   -6.1170 H   0  0  0  0  0  0  0  0  0  0  0  0
   -6.4108    1.5242   -2.1062 H   0  0  0  0  0  0  0  0  0  0  0  0
   -8.7063    1.1081   -1.3062 H   0  0  0  0  0  0  0  0  0  0  0  0
  -10.5105    2.7120   -1.7982 H   0  0  0  0  0  0  0  0  0  0  0  0
  -11.3112    4.5960   -3.2043 H   0  0  0  0  0  0  0  0  0  0  0  0
  -10.1392    5.6430   -4.0710 H   0  0  0  0  0  0  0  0  0  0  0  0
  -11.0931    6.8456   -2.1307 H   0  0  0  0  0  0  0  0  0  0  0  0
   -9.3364    6.5540   -1.8545 H   0  0  0  0  0  0  0  0  0  0  0  0
  -10.5740    5.5279   -1.0110 H   0  0  0  0  0  0  0  0  0  0  0  0
   -7.7032    5.2177   -3.8918 H   0  0  0  0  0  0  0  0  0  0  0  0
    5.2172    4.5309    4.2847 H   0  0  0  0  0  0  0  0  0  0  0  0
    6.6811    5.5752    5.9489 H   0  0  0  0  0  0  0  0  0  0  0  0
    7.0548    4.5072    8.1333 H   0  0  0  0  0  0  0  0  0  0  0  0
    5.2704    1.3988    9.2699 H   0  0  0  0  0  0  0  0  0  0  0  0
    6.0224    2.9120    9.8648 H   0  0  0  0  0  0  0  0  0  0  0  0
    8.1822    2.2500    8.6496 H   0  0  0  0  0  0  0  0  0  0  0  0
    7.4059    0.6617    8.2682 H   0  0  0  0  0  0  0  0  0  0  0  0
    7.7079    1.1536    9.9806 H   0  0  0  0  0  0  0  0  0  0  0  0
    4.3186    1.3455    7.0542 H   0  0  0  0  0  0  0  0  0  0  0  0
   -0.3474    3.6951   -3.1994 H   0  0  0  0  0  0  0  0  0  0  0  0
    0.8036    4.2798   -1.9497 H   0  0  0  0  0  0  0  0  0  0  0  0
    0.6006    6.0133   -3.6092 H   0  0  0  0  0  0  0  0  0  0  0  0
   -0.1785    6.5753   -2.0856 H   0  0  0  0  0  0  0  0  0  0  0  0
   -1.1955    6.0263   -3.4743 H   0  0  0  0  0  0  0  0  0  0  0  0
    0.3924    2.1914   -0.9772 H   0  0  0  0  0  0  0  0  0  0  0  0
    1.1617    1.2917    0.3367 H   0  0  0  0  0  0  0  0  0  0  0  0
    2.5801    1.2824   -1.6910 H   0  0  0  0  0  0  0  0  0  0  0  0
    3.4286    2.1897   -0.3864 H   0  0  0  0  0  0  0  0  0  0  0  0
    2.6379    3.0773   -1.7247 H   0  0  0  0  0  0  0  0  0  0  0  0
    4.1173   -3.0678    2.3998 H   0  0  0  0  0  0  0  0  0  0  0  0
    4.1990   -3.8550    0.0897 H   0  0  0  0  0  0  0  0  0  0  0  0
    3.4606   -3.6936   -2.2033 H   0  0  0  0  0  0  0  0  0  0  0  0
    2.2234   -2.4656   -2.6554 H   0  0  0  0  0  0  0  0  0  0  0  0
    1.7031   -4.0923   -2.0570 H   0  0  0  0  0  0  0  0  0  0  0  0
    0.6459   -1.5984   -0.8200 H   0  0  0  0  0  0  0  0  0  0  0  0
    0.5579   -0.7942    1.4904 H   0  0  0  0  0  0  0  0  0  0  0  0
    0.0320   -2.9078    3.3580 H   0  0  0  0  0  0  0  0  0  0  0  0
   -2.1272   -2.4742    4.4358 H   0  0  0  0  0  0  0  0  0  0  0  0
   -3.6340   -0.7736    5.4462 H   0  0  0  0  0  0  0  0  0  0  0  0
   -2.8181   -0.9082    7.0555 H   0  0  0  0  0  0  0  0  0  0  0  0
   -2.9522    0.6957    6.2260 H   0  0  0  0  0  0  0  0  0  0  0  0
   -0.4962    1.0722    6.2691 H   0  0  0  0  0  0  0  0  0  0  0  0
    1.6552    0.6384    5.1896 H   0  0  0  0  0  0  0  0  0  0  0  0
    6.9025   -5.0083    9.6894 H   0  0  0  0  0  0  0  0  0  0  0  0
    8.1611   -7.1036    9.4826 H   0  0  0  0  0  0  0  0  0  0  0  0
    8.5387   -8.9642    7.2124 H   0  0  0  0  0  0  0  0  0  0  0  0
    9.9132   -8.1957    6.3195 H   0  0  0  0  0  0  0  0  0  0  0  0
    9.9752   -8.3315    8.1143 H   0  0  0  0  0  0  0  0  0  0  0  0
    8.8305   -6.2852    5.3018 H   0  0  0  0  0  0  0  0  0  0  0  0
    7.5974   -4.1714    5.5181 H   0  0  0  0  0  0  0  0  0  0  0  0
    4.2696   -1.7909    8.7324 H   0  0  0  0  0  0  0  0  0  0  0  0
    4.2428   -0.5433   10.8271 H   0  0  0  0  0  0  0  0  0  0  0  0
    5.8422   -0.6705   13.3453 H   0  0  0  0  0  0  0  0  0  0  0  0
    5.7378    0.8541   12.3751 H   0  0  0  0  0  0  0  0  0  0  0  0
    7.3432    0.2000   12.8356 H   0  0  0  0  0  0  0  0  0  0  0  0
    8.4198   -1.4272   11.4079 H   0  0  0  0  0  0  0  0  0  0  0  0
    8.4412   -2.7076    9.3267 H   0  0  0  0  0  0  0  0  0  0  0  0
    4.8934   -6.1686    7.4767 H   0  0  0  0  0  0  0  0  0  0  0  0
    1.7180   -2.1734   11.0563 H   0  0  0  0  0  0  0  0  0  0  0  0
    1.4429   -1.3618   13.6226 H   0  0  0  0  0  0  0  0  0  0  0  0
    4.0875   -6.1460   12.9929 H   0  0  0  0  0  0  0  0  0  0  0  0
  1  2  2  3
  2  3  1  0
  3  4  2  0
  3  5  1  0
  5  6  2  0
  6  7  1  0
  7  8  2  0
  8  9  1  0
  8 10  1  0
 10 11  2  0
 11 12  1  0
 12 13  2  3
 13 14  1  0
 14 15  3  0
 13 16  1  0
 16 17  3  0
  1 18  1  0
 18 19  2  0
 19 20  1  0
 20 21  1  0
 21 22  2  0
 22 23  1  0
 23 24  2  0
 24 25  1  0
 24 26  1  0
 26 27  2  0
 20 28  1  0
 28 29  2  0
 29 30  1  0
 30 31  2  0
 31 32  1  0
 31 33  1  0
 33 34  2  0
 19 35  1  0
 35 36  1  0
 36 37  1  0
 37 38  2  0
 38 39  1  0
 39 40  1  0
 40 41  2  0
 41 42  1  0
 42 43  2  0
 43 44  1  0
 43 45  1  0
 45 46  2  0
 39 47  1  0
 47 48  2  0
 48 49  1  0
 49 50  2  0
 50 51  1  0
 50 52  1  0
 52 53  2  0
 38 54  1  0
 54 55  1  0
 37 56  1  0
 56 57  2  0
 57 58  1  0
 58 59  2  0
 59 60  1  0
 60 61  2  0
 61 62  1  0
 62 63  1  0
 63 64  1  0
 62 65  2  0
 57 66  1  0
 66 67  1  0
 67 68  1  0
 68 69  1  0
 69 70  1  0
 70 71  1  0
 71 72  2  0
 72 73  1  0
 73 74  1  0
 71 75  1  0
 75 76  1  0
 76 77  1  0
 77 78  1  0
 78 79  1  0
 79 80  1  0
 80 81  2  0
 81 82  1  0
 82 83  2  0
 83 84  1  0
 84 85  1  0
 85 86  1  0
 84 87  2  0
 79 88  2  0
 88 89  1  0
 89 90  1  0
 90 91  1  0
 91 92  1  0
 92 93  1  0
 93 94  1  0
 94 95  1  0
 95 96  1  0
 96 97  1  0
 97 98  1  0
 95 99  1  0
 99100  1  0
 92101  1  0
101102  1  0
 88103  1  0
103104  2  0
104105  1  0
105106  1  0
106107  2  0
107108  1  0
108109  2  0
109110  1  0
109111  1  0
111112  2  0
105113  1  0
113114  2  0
114115  1  0
115116  2  0
116117  1  0
116118  1  0
118119  2  0
104120  1  0
120121  1  0
121122  1  0
122123  2  0
123124  1  0
124125  1  0
125126  2  0
126127  1  0
127128  2  0
128129  1  0
128130  1  0
130131  2  0
124132  1  0
132133  2  0
133134  1  0
134135  2  0
135136  1  0
135137  1  0
137138  2  0
123139  1  0
139140  1  0
122141  1  0
141142  2  3
142143  1  0
143144  2  0
143145  1  0
145146  2  0
146147  1  0
147148  1  0
148149  2  0
149150  1  0
149151  1  0
151152  1  0
152153  1  0
153154  2  0
154155  1  0
155156  2  3
156157  1  0
157158  3  0
156159  1  0
159160  3  0
 12  2  1  0
 55 18  1  0
 98 56  1  0
140103  1  0
155142  1  0
 11  5  1  0
 27 21  1  0
 34 28  1  0
 54 35  2  0
 65 58  1  0
 97 66  2  0
112106  1  0
119113  1  0
139120  2  0
154145  1  0
 46 40  1  0
 53 47  1  0
 96 68  2  0
131125  1  0
138132  1  0
152147  2  0
 94 69  2  0
 74 70  2  0
 93 75  2  0
 91 76  2  0
 90 78  2  0
 87 80  1  0
  1161  1  0
  6162  1  0
  7163  1  0
 10164  1  0
 22165  1  0
 23166  1  0
 25167  1  0
 25168  1  0
 25169  1  0
 26170  1  0
 27171  1  0
 29172  1  0
 30173  1  0
 32174  1  0
 32175  1  0
 32176  1  0
 33177  1  0
 34178  1  0
 41179  1  0
 42180  1  0
 44181  1  0
 44182  1  0
 44183  1  0
 45184  1  0
 46185  1  0
 48186  1  0
 49187  1  0
 51188  1  0
 51189  1  0
 51190  1  0
 52191  1  0
 53192  1  0
 59193  1  0
 60194  1  0
 61195  1  0
 63196  1  0
 63197  1  0
 64198  1  0
 64199  1  0
 64200  1  0
 65201  1  0
 81202  1  0
 82203  1  0
 83204  1  0
 85205  1  0
 85206  1  0
 86207  1  0
 86208  1  0
 86209  1  0
 87210  1  0
 99211  1  0
 99212  1  0
100213  1  0
100214  1  0
100215  1  0
101216  1  0
101217  1  0
102218  1  0
102219  1  0
102220  1  0
107221  1  0
108222  1  0
110223  1  0
110224  1  0
110225  1  0
111226  1  0
112227  1  0
114228  1  0
115229  1  0
117230  1  0
117231  1  0
117232  1  0
118233  1  0
119234  1  0
126235  1  0
127236  1  0
129237  1  0
129238  1  0
129239  1  0
130240  1  0
131241  1  0
133242  1  0
134243  1  0
136244  1  0
136245  1  0
136246  1  0
137247  1  0
138248  1  0
141249  1  0
146250  1  0
148251  1  0
153252  1  0
M  END

