
     RDKit          3D

205225  0  0  0  0  0  0  0  0999 V2000
    2.1050    1.6918    8.0229 C   0  0  0  0  0  0  0  0  0  0  0  0
    2.6582    2.5753    8.8705 C   0  0  0  0  0  0  0  0  0  0  0  0
    1.9156    3.5301    9.7011 C   0  0  0  0  0  0  0  0  0  0  0  0
    0.6675    3.5635    9.8763 O   0  0  0  0  0  0  0  0  0  0  0  0
    2.8614    4.4332   10.3132 C   0  0  0  0  0  0  0  0  0  0  0  0
    2.5925    5.5573   11.0959 C   0  0  0  0  0  0  0  0  0  0  0  0
    3.6657    6.3568   11.5055 C   0  0  0  0  0  0  0  0  0  0  0  0
    4.9765    6.0391   11.1091 C   0  0  0  0  0  0  0  0  0  0  0  0
    6.3071    7.0792   11.5902 Cl  0  0  0  0  0  0  0  0  0  0  0  0
    5.2237    4.9084   10.3110 C   0  0  0  0  0  0  0  0  0  0  0  0
    4.1491    4.0792    9.9455 C   0  0  0  0  0  0  0  0  0  0  0  0
    4.1159    2.8494    9.1016 C   0  0  0  0  0  0  0  0  0  0  0  0
    5.1821    2.0690    8.7603 C   0  0  0  0  0  0  0  0  0  0  0  0
    5.0632    0.8345    8.0249 C   0  0  0  0  0  0  0  0  0  0  0  0
    4.9877   -0.1579    7.4318 N   0  0  0  0  0  0  0  0  0  0  0  0
    6.5235    2.3643    9.1907 C   0  0  0  0  0  0  0  0  0  0  0  0
    7.6057    2.5808    9.5392 N   0  0  0  0  0  0  0  0  0  0  0  0
    0.6579    1.5533    7.7911 C   0  0  0  0  0  0  0  0  0  0  0  0
    0.0222    0.3066    7.6877 C   0  0  0  0  0  0  0  0  0  0  0  0
    0.7014   -0.9445    7.9273 N   0  0  0  0  0  0  0  0  0  0  0  0
    1.3614   -1.1730    9.1913 C   0  0  0  0  0  0  0  0  0  0  0  0
    0.8114   -0.6764   10.3851 C   0  0  0  0  0  0  0  0  0  0  0  0
    1.4644   -0.8688   11.6046 C   0  0  0  0  0  0  0  0  0  0  0  0
    2.6867   -1.5522   11.6516 C   0  0  0  0  0  0  0  0  0  0  0  0
    3.3675   -1.7867   12.9670 C   0  0  0  0  0  0  0  0  0  0  0  0
    3.2360   -2.0650   10.4663 C   0  0  0  0  0  0  0  0  0  0  0  0
    2.5785   -1.8803    9.2463 C   0  0  0  0  0  0  0  0  0  0  0  0
    0.8024   -1.9073    6.8597 C   0  0  0  0  0  0  0  0  0  0  0  0
    0.4335   -3.2434    7.0716 C   0  0  0  0  0  0  0  0  0  0  0  0
    0.4015   -4.1453    6.0012 C   0  0  0  0  0  0  0  0  0  0  0  0
    0.7535   -3.7265    4.7080 C   0  0  0  0  0  0  0  0  0  0  0  0
    0.6108   -4.6573    3.5397 C   0  0  0  0  0  0  0  0  0  0  0  0
    1.1430   -2.3968    4.5008 C   0  0  0  0  0  0  0  0  0  0  0  0
    1.1783   -1.4951    5.5686 C   0  0  0  0  0  0  0  0  0  0  0  0
   -1.1787    0.4053    6.9800 C   0  0  0  0  0  0  0  0  0  0  0  0
   -2.0517   -0.7502    6.1450 S   0  0  0  0  0  0  0  0  0  0  0  0
   -2.7526    0.3274    5.0388 C   0  0  0  0  0  0  0  0  0  0  0  0
   -2.3187    1.6334    5.3575 C   0  0  0  0  0  0  0  0  0  0  0  0
   -2.5941    2.8099    4.5744 N   0  0  0  0  0  0  0  0  0  0  0  0
   -2.4704    2.7711    3.1458 C   0  0  0  0  0  0  0  0  0  0  0  0
   -1.2212    2.5652    2.5484 C   0  0  0  0  0  0  0  0  0  0  0  0
   -1.1105    2.4888    1.1542 C   0  0  0  0  0  0  0  0  0  0  0  0
   -2.2513    2.6168    0.3477 C   0  0  0  0  0  0  0  0  0  0  0  0
   -2.1572    2.5027   -1.1434 C   0  0  0  0  0  0  0  0  0  0  0  0
   -3.4992    2.8323    0.9476 C   0  0  0  0  0  0  0  0  0  0  0  0
   -3.6073    2.9205    2.3400 C   0  0  0  0  0  0  0  0  0  0  0  0
   -3.0880    4.0062    5.2122 C   0  0  0  0  0  0  0  0  0  0  0  0
   -2.7873    5.2747    4.6847 C   0  0  0  0  0  0  0  0  0  0  0  0
   -3.2924    6.4330    5.2823 C   0  0  0  0  0  0  0  0  0  0  0  0
   -4.1040    6.3444    6.4230 C   0  0  0  0  0  0  0  0  0  0  0  0
   -4.7047    7.5808    7.0167 C   0  0  0  0  0  0  0  0  0  0  0  0
   -4.4153    5.0815    6.9485 C   0  0  0  0  0  0  0  0  0  0  0  0
   -3.9058    3.9244    6.3546 C   0  0  0  0  0  0  0  0  0  0  0  0
   -1.4543    1.6329    6.4577 C   0  0  0  0  0  0  0  0  0  0  0  0
   -0.2394    2.7006    6.9062 S   0  0  0  0  0  0  0  0  0  0  0  0
   -2.9708   -0.1478    3.6706 C   0  0  0  0  0  0  0  0  0  0  0  0
   -4.1897   -0.3583    2.9892 C   0  0  0  0  0  0  0  0  0  0  0  0
   -5.5321   -0.0298    3.5166 C   0  0  0  0  0  0  0  0  0  0  0  0
   -5.8642   -0.2991    4.8549 C   0  0  0  0  0  0  0  0  0  0  0  0
   -7.1227    0.0385    5.3551 C   0  0  0  0  0  0  0  0  0  0  0  0
   -8.0666    0.6446    4.5245 C   0  0  0  0  0  0  0  0  0  0  0  0
   -7.7636    0.9023    3.1800 C   0  0  0  0  0  0  0  0  0  0  0  0
   -8.7727    1.5837    2.2960 C   0  0  0  0  0  0  0  0  0  0  0  0
   -8.6069    3.0993    2.3538 C   0  0  0  0  0  0  0  0  0  0  0  0
   -6.4888    0.5723    2.6832 C   0  0  0  0  0  0  0  0  0  0  0  0
   -3.9430   -0.9642    1.7451 C   0  0  0  0  0  0  0  0  0  0  0  0
   -4.9316   -1.7089    0.5616 S   0  0  0  0  0  0  0  0  0  0  0  0
   -3.5622   -2.3292   -0.2431 C   0  0  0  0  0  0  0  0  0  0  0  0
   -3.2123   -3.0822   -1.3315 C   0  0  0  0  0  0  0  0  0  0  0  0
   -3.9609   -3.5528   -2.4152 C   0  0  0  0  0  0  0  0  0  0  0  0
   -3.2698   -4.1526   -3.5105 C   0  0  0  0  0  0  0  0  0  0  0  0
   -4.0192   -4.5340   -4.5741 N   0  0  0  0  0  0  0  0  0  0  0  0
   -5.5139   -4.0619   -4.0463 S   0  0  0  0  0  0  0  0  0  0  0  0
   -5.3004   -3.3971   -2.5435 N   0  0  0  0  0  0  0  0  0  0  0  0
   -1.8808   -4.3130   -3.4259 C   0  0  0  0  0  0  0  0  0  0  0  0
   -0.9590   -4.7567   -4.3303 C   0  0  0  0  0  0  0  0  0  0  0  0
   -0.9079   -4.7095   -6.0224 S   0  0  0  0  0  0  0  0  0  0  0  0
    0.7736   -4.4541   -6.0138 C   0  0  0  0  0  0  0  0  0  0  0  0
    1.6047   -3.9096   -6.9971 C   0  0  0  0  0  0  0  0  0  0  0  0
    1.2264   -3.8395   -8.4269 C   0  0  0  0  0  0  0  0  0  0  0  0
    1.2622   -2.6240   -9.1289 C   0  0  0  0  0  0  0  0  0  0  0  0
    0.9796   -2.5946  -10.4978 C   0  0  0  0  0  0  0  0  0  0  0  0
    0.6442   -3.7723  -11.1711 C   0  0  0  0  0  0  0  0  0  0  0  0
    0.5892   -4.9919  -10.4777 C   0  0  0  0  0  0  0  0  0  0  0  0
    0.2222   -6.2683  -11.1922 C   0  0  0  0  0  0  0  0  0  0  0  0
   -1.1992   -6.6992  -10.8425 C   0  0  0  0  0  0  0  0  0  0  0  0
    0.8720   -5.0169   -9.1031 C   0  0  0  0  0  0  0  0  0  0  0  0
    2.7770   -3.3626   -6.4306 C   0  0  0  0  0  0  0  0  0  0  0  0
    2.7036   -3.5283   -4.7358 S   0  0  0  0  0  0  0  0  0  0  0  0
    1.2497   -4.3621   -4.7260 C   0  0  0  0  0  0  0  0  0  0  0  0
    0.2714   -4.5722   -3.7592 C   0  0  0  0  0  0  0  0  0  0  0  0
    0.1982   -4.0932   -2.4924 N   0  0  0  0  0  0  0  0  0  0  0  0
   -1.1393   -3.8634   -2.3282 C   0  0  0  0  0  0  0  0  0  0  0  0
   -1.8084   -3.1684   -1.2929 C   0  0  0  0  0  0  0  0  0  0  0  0
   -1.2966   -2.4022   -0.2758 N   0  0  0  0  0  0  0  0  0  0  0  0
   -2.4082   -1.9566    0.3518 C   0  0  0  0  0  0  0  0  0  0  0  0
   -2.6178   -1.1897    1.4750 C   0  0  0  0  0  0  0  0  0  0  0  0
   -1.6640   -0.7255    2.7483 S   0  0  0  0  0  0  0  0  0  0  0  0
    0.0043   -1.7139   -0.2105 C   0  0  0  0  0  0  0  0  0  0  0  0
    0.2103   -0.8085   -1.4203 C   0  0  0  0  0  0  0  0  0  0  0  0
    1.0419   -4.6641   -1.4278 C   0  0  0  0  0  0  0  0  0  0  0  0
    2.4560   -4.0932   -1.4436 C   0  0  0  0  0  0  0  0  0  0  0  0
    3.7394   -2.4818   -7.1307 C   0  0  0  0  0  0  0  0  0  0  0  0
    3.9005   -1.1761   -6.6416 C   0  0  0  0  0  0  0  0  0  0  0  0
    4.5688   -0.1984   -7.3895 C   0  0  0  0  0  0  0  0  0  0  0  0
    4.7448    1.1801   -6.7921 C   0  0  0  0  0  0  0  0  0  0  0  0
    6.1165    1.3115   -6.1374 C   0  0  0  0  0  0  0  0  0  0  0  0
    5.0831   -0.5387   -8.6605 C   0  0  0  0  0  0  0  0  0  0  0  0
    5.0266   -1.8670   -9.1000 C   0  0  0  0  0  0  0  0  0  0  0  0
    4.3860   -2.8571   -8.3347 C   0  0  0  0  0  0  0  0  0  0  0  0
    4.4208   -4.2879   -8.8242 C   0  0  0  0  0  0  0  0  0  0  0  0
    5.8451   -4.8443   -8.8048 C   0  0  0  0  0  0  0  0  0  0  0  0
    5.6805    0.4731   -9.5516 C   0  0  0  0  0  0  0  0  0  0  0  0
    4.9386    1.3772  -10.2213 C   0  0  0  0  0  0  0  0  0  0  0  0
    3.4831    1.5393  -10.0997 C   0  0  0  0  0  0  0  0  0  0  0  0
    2.6658    0.6821   -9.6716 O   0  0  0  0  0  0  0  0  0  0  0  0
    3.1369    2.8710  -10.5449 C   0  0  0  0  0  0  0  0  0  0  0  0
    1.8992    3.5081  -10.4715 C   0  0  0  0  0  0  0  0  0  0  0  0
    1.8181    4.8547  -10.8537 C   0  0  0  0  0  0  0  0  0  0  0  0
    2.9705    5.5418  -11.2842 C   0  0  0  0  0  0  0  0  0  0  0  0
    2.8625    7.2375  -11.7177 Cl  0  0  0  0  0  0  0  0  0  0  0  0
    4.2101    4.8789  -11.3461 C   0  0  0  0  0  0  0  0  0  0  0  0
    4.2762    3.5186  -10.9967 C   0  0  0  0  0  0  0  0  0  0  0  0
    5.4365    2.5840  -10.9464 C   0  0  0  0  0  0  0  0  0  0  0  0
    6.6029    2.6959  -11.6299 C   0  0  0  0  0  0  0  0  0  0  0  0
    7.5271    1.5985  -11.7497 C   0  0  0  0  0  0  0  0  0  0  0  0
    8.2709    0.7177  -11.8573 N   0  0  0  0  0  0  0  0  0  0  0  0
    6.9459    3.8716  -12.3848 C   0  0  0  0  0  0  0  0  0  0  0  0
    7.2380    4.8187  -12.9879 N   0  0  0  0  0  0  0  0  0  0  0  0
    2.7109    1.0454    7.4192 H   0  0  0  0  0  0  0  0  0  0  0  0
    1.5766    5.8137   11.3669 H   0  0  0  0  0  0  0  0  0  0  0  0
    3.4782    7.2391   12.1035 H   0  0  0  0  0  0  0  0  0  0  0  0
    6.2266    4.7301    9.9677 H   0  0  0  0  0  0  0  0  0  0  0  0
   -0.1352   -0.1492   10.3747 H   0  0  0  0  0  0  0  0  0  0  0  0
    1.0172   -0.4856   12.5117 H   0  0  0  0  0  0  0  0  0  0  0  0
    4.4541   -1.9635   12.8259 H   0  0  0  0  0  0  0  0  0  0  0  0
    3.2400   -0.9057   13.6310 H   0  0  0  0  0  0  0  0  0  0  0  0
    2.9187   -2.6746   13.4650 H   0  0  0  0  0  0  0  0  0  0  0  0
    4.1715   -2.6106   10.4876 H   0  0  0  0  0  0  0  0  0  0  0  0
    3.0264   -2.2739    8.3444 H   0  0  0  0  0  0  0  0  0  0  0  0
    0.1164   -3.5730    8.0540 H   0  0  0  0  0  0  0  0  0  0  0  0
    0.0784   -5.1662    6.1773 H   0  0  0  0  0  0  0  0  0  0  0  0
    1.3494   -4.4120    2.7472 H   0  0  0  0  0  0  0  0  0  0  0  0
    0.7746   -5.7119    3.8496 H   0  0  0  0  0  0  0  0  0  0  0  0
   -0.4108   -4.5586    3.1121 H   0  0  0  0  0  0  0  0  0  0  0  0
    1.3977   -2.0529    3.5062 H   0  0  0  0  0  0  0  0  0  0  0  0
    1.4623   -0.4664    5.3861 H   0  0  0  0  0  0  0  0  0  0  0  0
   -0.3367    2.4504    3.1646 H   0  0  0  0  0  0  0  0  0  0  0  0
   -0.1372    2.3142    0.7118 H   0  0  0  0  0  0  0  0  0  0  0  0
   -2.6323    3.3853   -1.6234 H   0  0  0  0  0  0  0  0  0  0  0  0
   -1.1009    2.4533   -1.4828 H   0  0  0  0  0  0  0  0  0  0  0  0
   -2.6806    1.5843   -1.4831 H   0  0  0  0  0  0  0  0  0  0  0  0
   -4.3915    2.9267    0.3409 H   0  0  0  0  0  0  0  0  0  0  0  0
   -4.5799    3.0763    2.7906 H   0  0  0  0  0  0  0  0  0  0  0  0
   -2.1584    5.3682    3.8099 H   0  0  0  0  0  0  0  0  0  0  0  0
   -3.0544    7.3993    4.8513 H   0  0  0  0  0  0  0  0  0  0  0  0
   -4.0163    8.4437    6.9033 H   0  0  0  0  0  0  0  0  0  0  0  0
   -4.9075    7.4395    8.0988 H   0  0  0  0  0  0  0  0  0  0  0  0
   -5.6588    7.8130    6.4995 H   0  0  0  0  0  0  0  0  0  0  0  0
   -5.0580    4.9893    7.8154 H   0  0  0  0  0  0  0  0  0  0  0  0
   -4.1692    2.9604    6.7725 H   0  0  0  0  0  0  0  0  0  0  0  0
   -5.1564   -0.7829    5.5150 H   0  0  0  0  0  0  0  0  0  0  0  0
   -7.3620   -0.1635    6.3896 H   0  0  0  0  0  0  0  0  0  0  0  0
   -9.0340    0.9144    4.9310 H   0  0  0  0  0  0  0  0  0  0  0  0
   -8.6586    1.2417    1.2435 H   0  0  0  0  0  0  0  0  0  0  0  0
   -9.8059    1.3165    2.6145 H   0  0  0  0  0  0  0  0  0  0  0  0
   -9.3878    3.5785    1.7287 H   0  0  0  0  0  0  0  0  0  0  0  0
   -7.6077    3.3900    1.9689 H   0  0  0  0  0  0  0  0  0  0  0  0
   -8.7112    3.4592    3.3988 H   0  0  0  0  0  0  0  0  0  0  0  0
   -6.2404    0.8104    1.6568 H   0  0  0  0  0  0  0  0  0  0  0  0
    1.5191   -1.7024   -8.6241 H   0  0  0  0  0  0  0  0  0  0  0  0
    1.0226   -1.6572  -11.0376 H   0  0  0  0  0  0  0  0  0  0  0  0
    0.4313   -3.7343  -12.2324 H   0  0  0  0  0  0  0  0  0  0  0  0
    0.3072   -6.1425  -12.2955 H   0  0  0  0  0  0  0  0  0  0  0  0
    0.9300   -7.0749  -10.8985 H   0  0  0  0  0  0  0  0  0  0  0  0
   -1.9265   -5.9104  -11.1313 H   0  0  0  0  0  0  0  0  0  0  0  0
   -1.2800   -6.8945   -9.7521 H   0  0  0  0  0  0  0  0  0  0  0  0
   -1.4485   -7.6351  -11.3862 H   0  0  0  0  0  0  0  0  0  0  0  0
    0.8481   -5.9572   -8.5666 H   0  0  0  0  0  0  0  0  0  0  0  0
    0.8374   -2.4177   -0.1023 H   0  0  0  0  0  0  0  0  0  0  0  0
    0.0639   -1.0789    0.6934 H   0  0  0  0  0  0  0  0  0  0  0  0
   -0.6220   -0.0804   -1.4935 H   0  0  0  0  0  0  0  0  0  0  0  0
    0.2577   -1.4003   -2.3579 H   0  0  0  0  0  0  0  0  0  0  0  0
    1.1627   -0.2522   -1.3085 H   0  0  0  0  0  0  0  0  0  0  0  0
    1.0987   -5.7670   -1.5525 H   0  0  0  0  0  0  0  0  0  0  0  0
    0.5735   -4.5144   -0.4353 H   0  0  0  0  0  0  0  0  0  0  0  0
    3.0758   -4.6368   -2.1866 H   0  0  0  0  0  0  0  0  0  0  0  0
    2.4469   -3.0123   -1.6989 H   0  0  0  0  0  0  0  0  0  0  0  0
    2.9252   -4.2285   -0.4478 H   0  0  0  0  0  0  0  0  0  0  0  0
    3.4528   -0.9025   -5.6946 H   0  0  0  0  0  0  0  0  0  0  0  0
    4.6263    1.9727   -7.5602 H   0  0  0  0  0  0  0  0  0  0  0  0
    3.9632    1.3758   -6.0229 H   0  0  0  0  0  0  0  0  0  0  0  0
    6.2156    0.5698   -5.3162 H   0  0  0  0  0  0  0  0  0  0  0  0
    6.2306    2.3309   -5.7147 H   0  0  0  0  0  0  0  0  0  0  0  0
    6.9228    1.1450   -6.8837 H   0  0  0  0  0  0  0  0  0  0  0  0
    5.4709   -2.1298  -10.0543 H   0  0  0  0  0  0  0  0  0  0  0  0
    4.0211   -4.3346   -9.8626 H   0  0  0  0  0  0  0  0  0  0  0  0
    3.8012   -4.9605   -8.1975 H   0  0  0  0  0  0  0  0  0  0  0  0
    6.4754   -4.3266   -9.5564 H   0  0  0  0  0  0  0  0  0  0  0  0
    5.8215   -5.9259   -9.0501 H   0  0  0  0  0  0  0  0  0  0  0  0
    6.2925   -4.7185   -7.7970 H   0  0  0  0  0  0  0  0  0  0  0  0
    6.7589    0.5164   -9.5799 H   0  0  0  0  0  0  0  0  0  0  0  0
    1.0237    2.9846  -10.1102 H   0  0  0  0  0  0  0  0  0  0  0  0
    0.8681    5.3711  -10.7943 H   0  0  0  0  0  0  0  0  0  0  0  0
    5.0852    5.4403  -11.6254 H   0  0  0  0  0  0  0  0  0  0  0  0
  1  2  2  3
  2  3  1  0
  3  4  2  0
  3  5  1  0
  5  6  2  0
  6  7  1  0
  7  8  2  0
  8  9  1  0
  8 10  1  0
 10 11  2  0
 11 12  1  0
 12 13  2  3
 13 14  1  0
 14 15  3  0
 13 16  1  0
 16 17  3  0
  1 18  1  0
 18 19  2  0
 19 20  1  0
 20 21  1  0
 21 22  2  0
 22 23  1  0
 23 24  2  0
 24 25  1  0
 24 26  1  0
 26 27  2  0
 20 28  1  0
 28 29  2  0
 29 30  1  0
 30 31  2  0
 31 32  1  0
 31 33  1  0
 33 34  2  0
 19 35  1  0
 35 36  1  0
 36 37  1  0
 37 38  2  0
 38 39  1  0
 39 40  1  0
 40 41  2  0
 41 42  1  0
 42 43  2  0
 43 44  1  0
 43 45  1  0
 45 46  2  0
 39 47  1  0
 47 48  2  0
 48 49  1  0
 49 50  2  0
 50 51  1  0
 50 52  1  0
 52 53  2  0
 38 54  1  0
 54 55  1  0
 37 56  1  0
 56 57  2  0
 57 58  1  0
 58 59  2  0
 59 60  1  0
 60 61  2  0
 61 62  1  0
 62 63  1  0
 63 64  1  0
 62 65  2  0
 57 66  1  0
 66 67  1  0
 67 68  1  0
 68 69  1  0
 69 70  1  0
 70 71  1  0
 71 72  2  0
 72 73  1  0
 73 74  1  0
 71 75  1  0
 75 76  1  0
 76 77  1  0
 77 78  1  0
 78 79  1  0
 79 80  1  0
 80 81  2  0
 81 82  1  0
 82 83  2  0
 83 84  1  0
 84 85  1  0
 85 86  1  0
 84 87  2  0
 79 88  2  0
 88 89  1  0
 89 90  1  0
 90 91  1  0
 91 92  1  0
 92 93  1  0
 93 94  1  0
 94 95  1  0
 95 96  1  0
 96 97  1  0
 97 98  1  0
 95 99  1  0
 99100  1  0
 92101  1  0
101102  1  0
 88103  1  0
103104  2  0
104105  1  0
105106  1  0
106107  1  0
105108  2  0
108109  1  0
109110  2  0
110111  1  0
111112  1  0
108113  1  0
113114  2  3
114115  1  0
115116  2  0
115117  1  0
117118  2  0
118119  1  0
119120  2  0
120121  1  0
120122  1  0
122123  2  0
123124  1  0
124125  2  3
125126  1  0
126127  3  0
125128  1  0
128129  3  0
 12  2  1  0
 55 18  1  0
 98 56  1  0
110103  1  0
124114  1  0
 11  5  1  0
 27 21  1  0
 34 28  1  0
 54 35  2  0
 65 58  1  0
 97 66  2  0
123117  1  0
 46 40  1  0
 53 47  1  0
 96 68  2  0
 94 69  2  0
 74 70  2  0
 93 75  2  0
 91 76  2  0
 90 78  2  0
 87 80  1  0
  1130  1  0
  6131  1  0
  7132  1  0
 10133  1  0
 22134  1  0
 23135  1  0
 25136  1  0
 25137  1  0
 25138  1  0
 26139  1  0
 27140  1  0
 29141  1  0
 30142  1  0
 32143  1  0
 32144  1  0
 32145  1  0
 33146  1  0
 34147  1  0
 41148  1  0
 42149  1  0
 44150  1  0
 44151  1  0
 44152  1  0
 45153  1  0
 46154  1  0
 48155  1  0
 49156  1  0
 51157  1  0
 51158  1  0
 51159  1  0
 52160  1  0
 53161  1  0
 59162  1  0
 60163  1  0
 61164  1  0
 63165  1  0
 63166  1  0
 64167  1  0
 64168  1  0
 64169  1  0
 65170  1  0
 81171  1  0
 82172  1  0
 83173  1  0
 85174  1  0
 85175  1  0
 86176  1  0
 86177  1  0
 86178  1  0
 87179  1  0
 99180  1  0
 99181  1  0
100182  1  0
100183  1  0
100184  1  0
101185  1  0
101186  1  0
102187  1  0
102188  1  0
102189  1  0
104190  1  0
106191  1  0
106192  1  0
107193  1  0
107194  1  0
107195  1  0
109196  1  0
111197  1  0
111198  1  0
112199  1  0
112200  1  0
112201  1  0
113202  1  0
118203  1  0
119204  1  0
122205  1  0
M  END

