
     RDKit          3D

249274  0  0  0  0  0  0  0  0999 V2000
   -8.2907   -2.1999    3.1291 C   0  0  0  0  0  0  0  0  0  0  0  0
   -8.4482   -3.0665    4.1487 C   0  0  0  0  0  0  0  0  0  0  0  0
   -7.5048   -3.2085    5.2652 C   0  0  0  0  0  0  0  0  0  0  0  0
   -6.7172   -2.3251    5.7032 O   0  0  0  0  0  0  0  0  0  0  0  0
   -7.6162   -4.5429    5.7893 C   0  0  0  0  0  0  0  0  0  0  0  0
   -6.7440   -5.1798    6.6684 C   0  0  0  0  0  0  0  0  0  0  0  0
   -6.9415   -6.5366    6.9378 C   0  0  0  0  0  0  0  0  0  0  0  0
   -8.0066   -7.2274    6.3325 C   0  0  0  0  0  0  0  0  0  0  0  0
   -8.2089   -8.9440    6.6402 Cl  0  0  0  0  0  0  0  0  0  0  0  0
   -8.8778   -6.5644    5.4485 C   0  0  0  0  0  0  0  0  0  0  0  0
   -8.6583   -5.2052    5.1612 C   0  0  0  0  0  0  0  0  0  0  0  0
   -9.3022   -4.2936    4.1662 C   0  0  0  0  0  0  0  0  0  0  0  0
  -10.4563   -4.5022    3.4795 C   0  0  0  0  0  0  0  0  0  0  0  0
  -11.0654   -3.4721    2.6780 C   0  0  0  0  0  0  0  0  0  0  0  0
  -11.5626   -2.6483    2.0327 N   0  0  0  0  0  0  0  0  0  0  0  0
  -11.2044   -5.7261    3.5674 C   0  0  0  0  0  0  0  0  0  0  0  0
  -11.8125   -6.7127    3.6279 N   0  0  0  0  0  0  0  0  0  0  0  0
   -7.1041   -1.3410    3.0626 C   0  0  0  0  0  0  0  0  0  0  0  0
   -5.8027   -1.8118    2.8247 C   0  0  0  0  0  0  0  0  0  0  0  0
   -5.5120   -2.8373    1.8651 N   0  0  0  0  0  0  0  0  0  0  0  0
   -4.9189   -2.4391    0.6166 C   0  0  0  0  0  0  0  0  0  0  0  0
   -3.7699   -3.0900    0.1512 C   0  0  0  0  0  0  0  0  0  0  0  0
   -3.1142   -2.6281   -0.9923 C   0  0  0  0  0  0  0  0  0  0  0  0
   -3.6024   -1.5151   -1.6880 C   0  0  0  0  0  0  0  0  0  0  0  0
   -2.8940   -1.0400   -2.9190 C   0  0  0  0  0  0  0  0  0  0  0  0
   -4.7665   -0.8761   -1.2413 C   0  0  0  0  0  0  0  0  0  0  0  0
   -5.4155   -1.3312   -0.0929 C   0  0  0  0  0  0  0  0  0  0  0  0
   -6.0451   -4.1610    2.0107 C   0  0  0  0  0  0  0  0  0  0  0  0
   -7.0257   -4.6219    1.1206 C   0  0  0  0  0  0  0  0  0  0  0  0
   -7.5470   -5.9112    1.2528 C   0  0  0  0  0  0  0  0  0  0  0  0
   -7.0775   -6.7622    2.2617 C   0  0  0  0  0  0  0  0  0  0  0  0
   -7.6345   -8.1464    2.4053 C   0  0  0  0  0  0  0  0  0  0  0  0
   -6.1046   -6.2954    3.1636 C   0  0  0  0  0  0  0  0  0  0  0  0
   -5.5931   -4.9996    3.0384 C   0  0  0  0  0  0  0  0  0  0  0  0
   -4.8679   -0.8483    3.1860 C   0  0  0  0  0  0  0  0  0  0  0  0
   -3.2085   -0.7505    3.0784 S   0  0  0  0  0  0  0  0  0  0  0  0
   -3.1166    0.8842    3.5612 C   0  0  0  0  0  0  0  0  0  0  0  0
   -4.4360    1.3729    3.7477 C   0  0  0  0  0  0  0  0  0  0  0  0
   -4.8357    2.7381    3.5506 N   0  0  0  0  0  0  0  0  0  0  0  0
   -4.9238    3.1263    2.1650 C   0  0  0  0  0  0  0  0  0  0  0  0
   -3.7620    3.2848    1.3918 C   0  0  0  0  0  0  0  0  0  0  0  0
   -3.8440    3.4448    0.0072 C   0  0  0  0  0  0  0  0  0  0  0  0
   -5.0962    3.4877   -0.6269 C   0  0  0  0  0  0  0  0  0  0  0  0
   -5.1869    3.5778   -2.1205 C   0  0  0  0  0  0  0  0  0  0  0  0
   -6.2613    3.3573    0.1439 C   0  0  0  0  0  0  0  0  0  0  0  0
   -6.1770    3.1777    1.5271 C   0  0  0  0  0  0  0  0  0  0  0  0
   -5.6446    3.4203    4.5477 C   0  0  0  0  0  0  0  0  0  0  0  0
   -6.0356    4.7611    4.3532 C   0  0  0  0  0  0  0  0  0  0  0  0
   -6.7701    5.4428    5.3295 C   0  0  0  0  0  0  0  0  0  0  0  0
   -7.1254    4.8059    6.5234 C   0  0  0  0  0  0  0  0  0  0  0  0
   -7.8957    5.5495    7.5691 C   0  0  0  0  0  0  0  0  0  0  0  0
   -6.7663    3.4631    6.7187 C   0  0  0  0  0  0  0  0  0  0  0  0
   -6.0264    2.7822    5.7503 C   0  0  0  0  0  0  0  0  0  0  0  0
   -5.3675    0.3419    3.5904 C   0  0  0  0  0  0  0  0  0  0  0  0
   -7.0507    0.2734    3.6057 S   0  0  0  0  0  0  0  0  0  0  0  0
   -1.8048    1.5721    3.7122 C   0  0  0  0  0  0  0  0  0  0  0  0
   -1.4916    2.8214    4.3119 C   0  0  0  0  0  0  0  0  0  0  0  0
   -2.3872    3.6997    5.0877 C   0  0  0  0  0  0  0  0  0  0  0  0
   -2.5901    5.0091    4.6234 C   0  0  0  0  0  0  0  0  0  0  0  0
   -3.2359    5.9539    5.4248 C   0  0  0  0  0  0  0  0  0  0  0  0
   -3.6717    5.6063    6.7034 C   0  0  0  0  0  0  0  0  0  0  0  0
   -3.4785    4.3079    7.1807 C   0  0  0  0  0  0  0  0  0  0  0  0
   -2.8332    3.3409    6.3873 C   0  0  0  0  0  0  0  0  0  0  0  0
   -2.5642    1.9798    6.9930 C   0  0  0  0  0  0  0  0  0  0  0  0
   -1.2279    1.9628    7.7335 C   0  0  0  0  0  0  0  0  0  0  0  0
   -0.1165    3.0792    4.2510 C   0  0  0  0  0  0  0  0  0  0  0  0
    0.8349    4.4407    4.6314 S   0  0  0  0  0  0  0  0  0  0  0  0
    2.2496    3.6134    4.1879 C   0  0  0  0  0  0  0  0  0  0  0  0
    3.5126    3.9399    3.7701 C   0  0  0  0  0  0  0  0  0  0  0  0
    4.0705    5.1936    3.4586 C   0  0  0  0  0  0  0  0  0  0  0  0
    5.2167    5.2460    2.5982 C   0  0  0  0  0  0  0  0  0  0  0  0
    5.6701    6.4745    2.2508 N   0  0  0  0  0  0  0  0  0  0  0  0
    4.5711    7.4176    3.0539 S   0  0  0  0  0  0  0  0  0  0  0  0
    3.5316    6.3822    3.8269 N   0  0  0  0  0  0  0  0  0  0  0  0
    5.8013    4.0435    2.1786 C   0  0  0  0  0  0  0  0  0  0  0  0
    6.8187    3.7557    1.2901 C   0  0  0  0  0  0  0  0  0  0  0  0
    7.0959    4.4071   -0.2560 S   0  0  0  0  0  0  0  0  0  0  0  0
    7.4040    2.8801   -0.9429 C   0  0  0  0  0  0  0  0  0  0  0  0
    7.2014    2.4442   -2.2613 C   0  0  0  0  0  0  0  0  0  0  0  0
    7.2751    3.3502   -3.4264 C   0  0  0  0  0  0  0  0  0  0  0  0
    8.5249    3.8013   -3.9249 C   0  0  0  0  0  0  0  0  0  0  0  0
    9.8358    3.4664   -3.2434 C   0  0  0  0  0  0  0  0  0  0  0  0
   10.3699    2.1166   -3.7062 C   0  0  0  0  0  0  0  0  0  0  0  0
    8.5522    4.5812   -5.0961 C   0  0  0  0  0  0  0  0  0  0  0  0
    7.3662    4.9572   -5.7303 C   0  0  0  0  0  0  0  0  0  0  0  0
    6.1392    4.5759   -5.1944 C   0  0  0  0  0  0  0  0  0  0  0  0
    6.0910    3.7910   -4.0408 C   0  0  0  0  0  0  0  0  0  0  0  0
    6.8858    1.0636   -2.3129 C   0  0  0  0  0  0  0  0  0  0  0  0
    6.8808    0.4640   -0.7298 S   0  0  0  0  0  0  0  0  0  0  0  0
    7.2849    1.9027    0.0110 C   0  0  0  0  0  0  0  0  0  0  0  0
    6.9181    2.3797    1.2591 C   0  0  0  0  0  0  0  0  0  0  0  0
    6.0211    1.7905    2.0799 N   0  0  0  0  0  0  0  0  0  0  0  0
    5.2814    2.8139    2.5684 C   0  0  0  0  0  0  0  0  0  0  0  0
    4.0359    2.7568    3.2255 C   0  0  0  0  0  0  0  0  0  0  0  0
    3.0700    1.7885    3.1267 N   0  0  0  0  0  0  0  0  0  0  0  0
    2.0043    2.3521    3.7518 C   0  0  0  0  0  0  0  0  0  0  0  0
    0.6464    2.0659    3.7423 C   0  0  0  0  0  0  0  0  0  0  0  0
   -0.3436    0.8260    3.2214 S   0  0  0  0  0  0  0  0  0  0  0  0
    2.9421    0.7817    2.0613 C   0  0  0  0  0  0  0  0  0  0  0  0
    2.7907   -0.6298    2.6216 C   0  0  0  0  0  0  0  0  0  0  0  0
    6.1415    0.4468    2.6587 C   0  0  0  0  0  0  0  0  0  0  0  0
    7.5584    0.2004    3.1825 C   0  0  0  0  0  0  0  0  0  0  0  0
    6.0472    0.3884   -3.3194 C   0  0  0  0  0  0  0  0  0  0  0  0
    6.0697   -1.0102   -3.5255 C   0  0  0  0  0  0  0  0  0  0  0  0
    7.2518   -1.8271   -3.3943 N   0  0  0  0  0  0  0  0  0  0  0  0
    8.4687   -1.4430   -4.0761 C   0  0  0  0  0  0  0  0  0  0  0  0
    8.4193   -0.7739   -5.3135 C   0  0  0  0  0  0  0  0  0  0  0  0
    9.5969   -0.4686   -6.0028 C   0  0  0  0  0  0  0  0  0  0  0  0
   10.8402   -0.8394   -5.4741 C   0  0  0  0  0  0  0  0  0  0  0  0
   12.0998   -0.5024   -6.2086 C   0  0  0  0  0  0  0  0  0  0  0  0
   10.8984   -1.4717   -4.2230 C   0  0  0  0  0  0  0  0  0  0  0  0
    9.7214   -1.7744   -3.5325 C   0  0  0  0  0  0  0  0  0  0  0  0
    7.1589   -3.1271   -2.7774 C   0  0  0  0  0  0  0  0  0  0  0  0
    7.5777   -4.2728   -3.4724 C   0  0  0  0  0  0  0  0  0  0  0  0
    7.4708   -5.5374   -2.8864 C   0  0  0  0  0  0  0  0  0  0  0  0
    6.9341   -5.6742   -1.5967 C   0  0  0  0  0  0  0  0  0  0  0  0
    6.8455   -7.0203   -0.9412 C   0  0  0  0  0  0  0  0  0  0  0  0
    6.5222   -4.5286   -0.8964 C   0  0  0  0  0  0  0  0  0  0  0  0
    6.6236   -3.2677   -1.4858 C   0  0  0  0  0  0  0  0  0  0  0  0
    4.8058   -1.5093   -3.8614 C   0  0  0  0  0  0  0  0  0  0  0  0
    4.1280   -3.0466   -3.9631 S   0  0  0  0  0  0  0  0  0  0  0  0
    2.5258   -2.4739   -4.1051 C   0  0  0  0  0  0  0  0  0  0  0  0
    2.5325   -1.0735   -4.1042 C   0  0  0  0  0  0  0  0  0  0  0  0
    1.3573   -0.2516   -4.2090 N   0  0  0  0  0  0  0  0  0  0  0  0
    1.0345    0.6146   -3.1086 C   0  0  0  0  0  0  0  0  0  0  0  0
    1.0968    2.0061   -3.2616 C   0  0  0  0  0  0  0  0  0  0  0  0
    0.7531    2.8503   -2.2003 C   0  0  0  0  0  0  0  0  0  0  0  0
    0.3137    2.3076   -0.9837 C   0  0  0  0  0  0  0  0  0  0  0  0
   -0.0248    3.2155    0.1557 C   0  0  0  0  0  0  0  0  0  0  0  0
    0.2627    0.9140   -0.8246 C   0  0  0  0  0  0  0  0  0  0  0  0
    0.6313    0.0726   -1.8801 C   0  0  0  0  0  0  0  0  0  0  0  0
    0.5323   -0.2842   -5.4023 C   0  0  0  0  0  0  0  0  0  0  0  0
    1.0258   -0.8374   -6.6020 C   0  0  0  0  0  0  0  0  0  0  0  0
    0.2173   -0.9102   -7.7400 C   0  0  0  0  0  0  0  0  0  0  0  0
   -1.0935   -0.4183   -7.7095 C   0  0  0  0  0  0  0  0  0  0  0  0
   -1.9791   -0.5493   -8.9163 C   0  0  0  0  0  0  0  0  0  0  0  0
   -1.5906    0.1395   -6.5237 C   0  0  0  0  0  0  0  0  0  0  0  0
   -0.7837    0.2165   -5.3861 C   0  0  0  0  0  0  0  0  0  0  0  0
    3.8244   -0.5800   -3.9473 C   0  0  0  0  0  0  0  0  0  0  0  0
    4.4474    0.9195   -3.5819 S   0  0  0  0  0  0  0  0  0  0  0  0
    1.3213   -3.3057   -3.9883 C   0  0  0  0  0  0  0  0  0  0  0  0
    0.9736   -3.9352   -2.8461 C   0  0  0  0  0  0  0  0  0  0  0  0
    1.6049   -3.7128   -1.5346 C   0  0  0  0  0  0  0  0  0  0  0  0
    2.6444   -3.0396   -1.3021 O   0  0  0  0  0  0  0  0  0  0  0  0
    0.7808   -4.3179   -0.5135 C   0  0  0  0  0  0  0  0  0  0  0  0
    0.9667   -4.2764    0.8692 C   0  0  0  0  0  0  0  0  0  0  0  0
    0.0268   -4.9108    1.6892 C   0  0  0  0  0  0  0  0  0  0  0  0
   -1.0631   -5.5858    1.1190 C   0  0  0  0  0  0  0  0  0  0  0  0
   -1.2324   -5.6171   -0.2750 C   0  0  0  0  0  0  0  0  0  0  0  0
   -0.3072   -4.9432   -1.0963 C   0  0  0  0  0  0  0  0  0  0  0  0
   -0.2587   -4.7546   -2.5806 C   0  0  0  0  0  0  0  0  0  0  0  0
   -1.1394   -5.2436   -3.4965 C   0  0  0  0  0  0  0  0  0  0  0  0
   -0.8786   -5.2243   -4.9120 C   0  0  0  0  0  0  0  0  0  0  0  0
   -0.6740   -5.2187   -6.0514 N   0  0  0  0  0  0  0  0  0  0  0  0
   -2.3958   -5.8388   -3.1322 C   0  0  0  0  0  0  0  0  0  0  0  0
   -3.4170   -6.3101   -2.8592 N   0  0  0  0  0  0  0  0  0  0  0  0
   -8.9047   -2.2430    2.2478 H   0  0  0  0  0  0  0  0  0  0  0  0
   -5.9061   -4.6440    7.1030 H   0  0  0  0  0  0  0  0  0  0  0  0
   -6.2538   -7.0549    7.5965 H   0  0  0  0  0  0  0  0  0  0  0  0
   -9.6644   -7.1357    4.9871 H   0  0  0  0  0  0  0  0  0  0  0  0
   -3.3657   -3.9278    0.7024 H   0  0  0  0  0  0  0  0  0  0  0  0
   -2.2148   -3.1208   -1.3277 H   0  0  0  0  0  0  0  0  0  0  0  0
   -1.8005   -1.0520   -2.7495 H   0  0  0  0  0  0  0  0  0  0  0  0
   -3.1950   -0.0024   -3.1769 H   0  0  0  0  0  0  0  0  0  0  0  0
   -3.1368   -1.7110   -3.7679 H   0  0  0  0  0  0  0  0  0  0  0  0
   -5.1661   -0.0204   -1.7740 H   0  0  0  0  0  0  0  0  0  0  0  0
   -6.3021   -0.8155    0.2524 H   0  0  0  0  0  0  0  0  0  0  0  0
   -7.3976   -3.9712    0.3377 H   0  0  0  0  0  0  0  0  0  0  0  0
   -8.3213   -6.2402    0.5698 H   0  0  0  0  0  0  0  0  0  0  0  0
   -6.8252   -8.8640    2.6585 H   0  0  0  0  0  0  0  0  0  0  0  0
   -8.1090   -8.4859    1.4592 H   0  0  0  0  0  0  0  0  0  0  0  0
   -8.3995   -8.1660    3.2073 H   0  0  0  0  0  0  0  0  0  0  0  0
   -5.7514   -6.9320    3.9651 H   0  0  0  0  0  0  0  0  0  0  0  0
   -4.8397   -4.6488    3.7350 H   0  0  0  0  0  0  0  0  0  0  0  0
   -2.7898    3.2564    1.8571 H   0  0  0  0  0  0  0  0  0  0  0  0
   -2.9370    3.5206   -0.5770 H   0  0  0  0  0  0  0  0  0  0  0  0
   -5.9817    4.2964   -2.4137 H   0  0  0  0  0  0  0  0  0  0  0  0
   -4.2275    3.9240   -2.5613 H   0  0  0  0  0  0  0  0  0  0  0  0
   -5.4289    2.5759   -2.5330 H   0  0  0  0  0  0  0  0  0  0  0  0
   -7.2344    3.3735   -0.3312 H   0  0  0  0  0  0  0  0  0  0  0  0
   -7.0847    3.0320    2.0995 H   0  0  0  0  0  0  0  0  0  0  0  0
   -5.7351    5.2976    3.4625 H   0  0  0  0  0  0  0  0  0  0  0  0
   -7.0407    6.4766    5.1616 H   0  0  0  0  0  0  0  0  0  0  0  0
   -8.9474    5.6758    7.2349 H   0  0  0  0  0  0  0  0  0  0  0  0
   -7.4377    6.5476    7.7299 H   0  0  0  0  0  0  0  0  0  0  0  0
   -7.8854    5.0055    8.5400 H   0  0  0  0  0  0  0  0  0  0  0  0
   -7.0382    2.9501    7.6297 H   0  0  0  0  0  0  0  0  0  0  0  0
   -5.7353    1.7609    5.9600 H   0  0  0  0  0  0  0  0  0  0  0  0
   -2.2286    5.3085    3.6466 H   0  0  0  0  0  0  0  0  0  0  0  0
   -3.3938    6.9607    5.0590 H   0  0  0  0  0  0  0  0  0  0  0  0
   -4.1750    6.3359    7.3202 H   0  0  0  0  0  0  0  0  0  0  0  0
   -3.8201    4.0552    8.1803 H   0  0  0  0  0  0  0  0  0  0  0  0
   -2.5630    1.1881    6.2194 H   0  0  0  0  0  0  0  0  0  0  0  0
   -3.3781    1.7105    7.7035 H   0  0  0  0  0  0  0  0  0  0  0  0
   -1.3082    2.5526    8.6714 H   0  0  0  0  0  0  0  0  0  0  0  0
   -0.9565    0.9171    7.9888 H   0  0  0  0  0  0  0  0  0  0  0  0
   -0.4249    2.3988    7.1080 H   0  0  0  0  0  0  0  0  0  0  0  0
   10.5943    4.2453   -3.4726 H   0  0  0  0  0  0  0  0  0  0  0  0
    9.7242    3.4599   -2.1420 H   0  0  0  0  0  0  0  0  0  0  0  0
   11.3346    1.9029   -3.1937 H   0  0  0  0  0  0  0  0  0  0  0  0
    9.6512    1.3081   -3.4531 H   0  0  0  0  0  0  0  0  0  0  0  0
   10.5464    2.1295   -4.8051 H   0  0  0  0  0  0  0  0  0  0  0  0
    9.5001    4.9061   -5.5119 H   0  0  0  0  0  0  0  0  0  0  0  0
    7.4051    5.5607   -6.6270 H   0  0  0  0  0  0  0  0  0  0  0  0
    5.2217    4.8918   -5.6714 H   0  0  0  0  0  0  0  0  0  0  0  0
    5.1251    3.5451   -3.6200 H   0  0  0  0  0  0  0  0  0  0  0  0
    3.7972    0.8135    1.3605 H   0  0  0  0  0  0  0  0  0  0  0  0
    2.0503    1.0180    1.4419 H   0  0  0  0  0  0  0  0  0  0  0  0
    3.7470   -1.0040    3.0311 H   0  0  0  0  0  0  0  0  0  0  0  0
    2.0334   -0.6602    3.4317 H   0  0  0  0  0  0  0  0  0  0  0  0
    2.4719   -1.3117    1.8058 H   0  0  0  0  0  0  0  0  0  0  0  0
    5.4603    0.3558    3.5247 H   0  0  0  0  0  0  0  0  0  0  0  0
    5.8797   -0.3236    1.9052 H   0  0  0  0  0  0  0  0  0  0  0  0
    7.8884    1.0515    3.8198 H   0  0  0  0  0  0  0  0  0  0  0  0
    8.2598    0.0789    2.3350 H   0  0  0  0  0  0  0  0  0  0  0  0
    7.5762   -0.7283    3.7888 H   0  0  0  0  0  0  0  0  0  0  0  0
    7.4699   -0.5073   -5.7608 H   0  0  0  0  0  0  0  0  0  0  0  0
    9.5371    0.0418   -6.9573 H   0  0  0  0  0  0  0  0  0  0  0  0
   11.9413   -0.5705   -7.3062 H   0  0  0  0  0  0  0  0  0  0  0  0
   12.9171   -1.2063   -5.9376 H   0  0  0  0  0  0  0  0  0  0  0  0
   12.4132    0.5299   -5.9512 H   0  0  0  0  0  0  0  0  0  0  0  0
   11.8494   -1.7449   -3.7887 H   0  0  0  0  0  0  0  0  0  0  0  0
    9.7826   -2.2756   -2.5752 H   0  0  0  0  0  0  0  0  0  0  0  0
    7.9847   -4.1853   -4.4713 H   0  0  0  0  0  0  0  0  0  0  0  0
    7.8099   -6.4073   -3.4372 H   0  0  0  0  0  0  0  0  0  0  0  0
    6.9834   -7.8414   -1.6797 H   0  0  0  0  0  0  0  0  0  0  0  0
    5.8518   -7.1503   -0.4608 H   0  0  0  0  0  0  0  0  0  0  0  0
    7.6371   -7.1027   -0.1672 H   0  0  0  0  0  0  0  0  0  0  0  0
    6.1230   -4.6149    0.1068 H   0  0  0  0  0  0  0  0  0  0  0  0
    6.2917   -2.3975   -0.9382 H   0  0  0  0  0  0  0  0  0  0  0  0
    1.4202    2.4315   -4.2039 H   0  0  0  0  0  0  0  0  0  0  0  0
    0.8257    3.9224   -2.3300 H   0  0  0  0  0  0  0  0  0  0  0  0
    0.9140    3.5963    0.6184 H   0  0  0  0  0  0  0  0  0  0  0  0
   -0.6180    2.6873    0.9351 H   0  0  0  0  0  0  0  0  0  0  0  0
   -0.6216    4.0845   -0.2048 H   0  0  0  0  0  0  0  0  0  0  0  0
   -0.0658    0.4731    0.1095 H   0  0  0  0  0  0  0  0  0  0  0  0
    0.5680   -0.9993   -1.7565 H   0  0  0  0  0  0  0  0  0  0  0  0
    2.0391   -1.2137   -6.6680 H   0  0  0  0  0  0  0  0  0  0  0  0
    0.6130   -1.3541   -8.6449 H   0  0  0  0  0  0  0  0  0  0  0  0
   -2.7641    0.2361   -8.9180 H   0  0  0  0  0  0  0  0  0  0  0  0
   -2.4690   -1.5452   -8.9078 H   0  0  0  0  0  0  0  0  0  0  0  0
   -1.3868   -0.4460   -9.8497 H   0  0  0  0  0  0  0  0  0  0  0  0
   -2.6061    0.5107   -6.4800 H   0  0  0  0  0  0  0  0  0  0  0  0
   -1.1945    0.6652   -4.4949 H   0  0  0  0  0  0  0  0  0  0  0  0
    0.6572   -3.2874   -4.8344 H   0  0  0  0  0  0  0  0  0  0  0  0
    1.8110   -3.7553    1.3027 H   0  0  0  0  0  0  0  0  0  0  0  0
    0.1421   -4.8796    2.7647 H   0  0  0  0  0  0  0  0  0  0  0  0
   -1.7841   -6.0757    1.7600 H   0  0  0  0  0  0  0  0  0  0  0  0
   -2.0838   -6.1496   -0.6644 H   0  0  0  0  0  0  0  0  0  0  0  0
  1  2  2  3
  2  3  1  0
  3  4  2  0
  3  5  1  0
  5  6  2  0
  6  7  1  0
  7  8  2  0
  8  9  1  0
  8 10  1  0
 10 11  2  0
 11 12  1  0
 12 13  2  3
 13 14  1  0
 14 15  3  0
 13 16  1  0
 16 17  3  0
  1 18  1  0
 18 19  2  0
 19 20  1  0
 20 21  1  0
 21 22  2  0
 22 23  1  0
 23 24  2  0
 24 25  1  0
 24 26  1  0
 26 27  2  0
 20 28  1  0
 28 29  2  0
 29 30  1  0
 30 31  2  0
 31 32  1  0
 31 33  1  0
 33 34  2  0
 19 35  1  0
 35 36  1  0
 36 37  1  0
 37 38  2  0
 38 39  1  0
 39 40  1  0
 40 41  2  0
 41 42  1  0
 42 43  2  0
 43 44  1  0
 43 45  1  0
 45 46  2  0
 39 47  1  0
 47 48  2  0
 48 49  1  0
 49 50  2  0
 50 51  1  0
 50 52  1  0
 52 53  2  0
 38 54  1  0
 54 55  1  0
 37 56  1  0
 56 57  2  0
 57 58  1  0
 58 59  2  0
 59 60  1  0
 60 61  2  0
 61 62  1  0
 62 63  2  0
 63 64  1  0
 64 65  1  0
 57 66  1  0
 66 67  1  0
 67 68  1  0
 68 69  1  0
 69 70  1  0
 70 71  1  0
 71 72  2  0
 72 73  1  0
 73 74  1  0
 71 75  1  0
 75 76  1  0
 76 77  1  0
 77 78  1  0
 78 79  1  0
 79 80  1  0
 80 81  2  0
 81 82  1  0
 82 83  1  0
 81 84  1  0
 84 85  2  0
 85 86  1  0
 86 87  2  0
 79 88  2  0
 88 89  1  0
 89 90  1  0
 90 91  1  0
 91 92  1  0
 92 93  1  0
 93 94  1  0
 94 95  1  0
 95 96  1  0
 96 97  1  0
 97 98  1  0
 95 99  1  0
 99100  1  0
 92101  1  0
101102  1  0
 88103  1  0
103104  2  0
104105  1  0
105106  1  0
106107  2  0
107108  1  0
108109  2  0
109110  1  0
109111  1  0
111112  2  0
105113  1  0
113114  2  0
114115  1  0
115116  2  0
116117  1  0
116118  1  0
118119  2  0
104120  1  0
120121  1  0
121122  1  0
122123  2  0
123124  1  0
124125  1  0
125126  2  0
126127  1  0
127128  2  0
128129  1  0
128130  1  0
130131  2  0
124132  1  0
132133  2  0
133134  1  0
134135  2  0
135136  1  0
135137  1  0
137138  2  0
123139  1  0
139140  1  0
122141  1  0
141142  2  3
142143  1  0
143144  2  0
143145  1  0
145146  2  0
146147  1  0
147148  2  0
148149  1  0
149150  2  0
150151  1  0
151152  2  3
152153  1  0
153154  3  0
152155  1  0
155156  3  0
 12  2  1  0
 55 18  1  0
 98 56  1  0
140103  1  0
151142  1  0
 11  5  1  0
 27 21  1  0
 34 28  1  0
 54 35  2  0
 63 58  1  0
 97 66  2  0
112106  1  0
119113  1  0
139120  2  0
150145  1  0
 46 40  1  0
 53 47  1  0
 96 68  2  0
131125  1  0
138132  1  0
 94 69  2  0
 74 70  2  0
 93 75  2  0
 91 76  2  0
 90 78  2  0
 87 80  1  0
  1157  1  0
  6158  1  0
  7159  1  0
 10160  1  0
 22161  1  0
 23162  1  0
 25163  1  0
 25164  1  0
 25165  1  0
 26166  1  0
 27167  1  0
 29168  1  0
 30169  1  0
 32170  1  0
 32171  1  0
 32172  1  0
 33173  1  0
 34174  1  0
 41175  1  0
 42176  1  0
 44177  1  0
 44178  1  0
 44179  1  0
 45180  1  0
 46181  1  0
 48182  1  0
 49183  1  0
 51184  1  0
 51185  1  0
 51186  1  0
 52187  1  0
 53188  1  0
 59189  1  0
 60190  1  0
 61191  1  0
 62192  1  0
 64193  1  0
 64194  1  0
 65195  1  0
 65196  1  0
 65197  1  0
 82198  1  0
 82199  1  0
 83200  1  0
 83201  1  0
 83202  1  0
 84203  1  0
 85204  1  0
 86205  1  0
 87206  1  0
 99207  1  0
 99208  1  0
100209  1  0
100210  1  0
100211  1  0
101212  1  0
101213  1  0
102214  1  0
102215  1  0
102216  1  0
107217  1  0
108218  1  0
110219  1  0
110220  1  0
110221  1  0
111222  1  0
112223  1  0
114224  1  0
115225  1  0
117226  1  0
117227  1  0
117228  1  0
118229  1  0
119230  1  0
126231  1  0
127232  1  0
129233  1  0
129234  1  0
129235  1  0
130236  1  0
131237  1  0
133238  1  0
134239  1  0
136240  1  0
136241  1  0
136242  1  0
137243  1  0
138244  1  0
141245  1  0
146246  1  0
147247  1  0
148248  1  0
149249  1  0
M  END

