
     RDKit          3D

190210  0  0  0  0  0  0  0  0999 V2000
    2.8280    8.1303   -2.1118 C   0  0  0  0  0  0  0  0  0  0  0  0
    2.4532    9.4205   -2.1009 C   0  0  0  0  0  0  0  0  0  0  0  0
    2.8150   10.5606   -1.2296 C   0  0  0  0  0  0  0  0  0  0  0  0
    3.5706   10.5220   -0.2186 O   0  0  0  0  0  0  0  0  0  0  0  0
    2.1958   11.7711   -1.7500 C   0  0  0  0  0  0  0  0  0  0  0  0
    2.1635   13.1249   -1.2901 C   0  0  0  0  0  0  0  0  0  0  0  0
    1.4204   14.0703   -1.9990 C   0  0  0  0  0  0  0  0  0  0  0  0
    0.7523   13.7151   -3.2007 C   0  0  0  0  0  0  0  0  0  0  0  0
   -0.2229   14.9149   -4.0872 Cl  0  0  0  0  0  0  0  0  0  0  0  0
    0.8298   12.4179   -3.6644 C   0  0  0  0  0  0  0  0  0  0  0  0
    1.4656   11.4370   -2.8958 C   0  0  0  0  0  0  0  0  0  0  0  0
    1.3765    9.9888   -3.0225 C   0  0  0  0  0  0  0  0  0  0  0  0
    0.2243    9.3219   -3.3448 C   0  0  0  0  0  0  0  0  0  0  0  0
   -0.0469    8.0024   -2.8799 C   0  0  0  0  0  0  0  0  0  0  0  0
   -0.2869    6.9168   -2.5624 N   0  0  0  0  0  0  0  0  0  0  0  0
   -0.9096   10.0217   -3.8854 C   0  0  0  0  0  0  0  0  0  0  0  0
   -1.8423   10.5610   -4.2938 N   0  0  0  0  0  0  0  0  0  0  0  0
    3.2528    7.2154   -1.0238 C   0  0  0  0  0  0  0  0  0  0  0  0
    4.4434    6.4339   -1.0224 C   0  0  0  0  0  0  0  0  0  0  0  0
    5.7461    7.1286   -0.8152 N   0  0  0  0  0  0  0  0  0  0  0  0
    6.7657    6.9832   -1.7819 C   0  0  0  0  0  0  0  0  0  0  0  0
    7.4077    8.0834   -2.3872 C   0  0  0  0  0  0  0  0  0  0  0  0
    8.5865    7.9157   -3.1580 C   0  0  0  0  0  0  0  0  0  0  0  0
    9.0667    6.6405   -3.3931 C   0  0  0  0  0  0  0  0  0  0  0  0
   10.3173    6.4432   -4.1926 C   0  0  0  0  0  0  0  0  0  0  0  0
    8.3419    5.5156   -2.9298 C   0  0  0  0  0  0  0  0  0  0  0  0
    7.2281    5.6894   -2.1427 C   0  0  0  0  0  0  0  0  0  0  0  0
    5.9621    7.7720    0.4670 C   0  0  0  0  0  0  0  0  0  0  0  0
    5.3356    7.2659    1.6440 C   0  0  0  0  0  0  0  0  0  0  0  0
    5.5497    7.8487    2.8854 C   0  0  0  0  0  0  0  0  0  0  0  0
    6.3986    8.9643    2.9792 C   0  0  0  0  0  0  0  0  0  0  0  0
    6.6524    9.5601    4.3414 C   0  0  0  0  0  0  0  0  0  0  0  0
    7.0260    9.4658    1.8828 C   0  0  0  0  0  0  0  0  0  0  0  0
    6.8056    8.8821    0.6158 C   0  0  0  0  0  0  0  0  0  0  0  0
    4.2506    5.0513   -0.6660 C   0  0  0  0  0  0  0  0  0  0  0  0
    5.0755    3.5780   -0.2473 S   0  0  0  0  0  0  0  0  0  0  0  0
    3.6889    2.6162    0.0638 C   0  0  0  0  0  0  0  0  0  0  0  0
    2.6129    3.4822   -0.0626 C   0  0  0  0  0  0  0  0  0  0  0  0
    1.3115    3.2096    0.4747 N   0  0  0  0  0  0  0  0  0  0  0  0
    1.1307    3.3688    1.9256 C   0  0  0  0  0  0  0  0  0  0  0  0
    0.2699    2.5233    2.6144 C   0  0  0  0  0  0  0  0  0  0  0  0
   -0.0283    2.7904    3.9625 C   0  0  0  0  0  0  0  0  0  0  0  0
    0.5052    3.8962    4.6014 C   0  0  0  0  0  0  0  0  0  0  0  0
    0.1491    4.2237    6.0065 C   0  0  0  0  0  0  0  0  0  0  0  0
    1.4026    4.7420    3.9026 C   0  0  0  0  0  0  0  0  0  0  0  0
    1.7196    4.4737    2.5932 C   0  0  0  0  0  0  0  0  0  0  0  0
    0.2183    3.0683   -0.4098 C   0  0  0  0  0  0  0  0  0  0  0  0
   -1.0288    3.6266   -0.0591 C   0  0  0  0  0  0  0  0  0  0  0  0
   -2.1220    3.4639   -0.8518 C   0  0  0  0  0  0  0  0  0  0  0  0
   -2.0255    2.7400   -2.0614 C   0  0  0  0  0  0  0  0  0  0  0  0
   -3.2431    2.5242   -2.8765 C   0  0  0  0  0  0  0  0  0  0  0  0
   -0.7819    2.1950   -2.4422 C   0  0  0  0  0  0  0  0  0  0  0  0
    0.3307    2.3705   -1.6337 C   0  0  0  0  0  0  0  0  0  0  0  0
    2.9326    4.7393   -0.4848 C   0  0  0  0  0  0  0  0  0  0  0  0
    2.0081    6.1098   -0.5944 S   0  0  0  0  0  0  0  0  0  0  0  0
    3.5382    1.1170    0.3812 C   0  0  0  0  0  0  0  0  0  0  0  0
    4.4110   -0.0204    0.4784 C   0  0  0  0  0  0  0  0  0  0  0  0
    5.8259    0.0207   -0.0321 C   0  0  0  0  0  0  0  0  0  0  0  0
    6.8305    0.6696    0.6767 C   0  0  0  0  0  0  0  0  0  0  0  0
    8.1024    0.7778    0.1190 C   0  0  0  0  0  0  0  0  0  0  0  0
    8.3580    0.3015   -1.1711 C   0  0  0  0  0  0  0  0  0  0  0  0
    7.3319   -0.3775   -1.8658 C   0  0  0  0  0  0  0  0  0  0  0  0
    7.5509   -0.8428   -3.2822 C   0  0  0  0  0  0  0  0  0  0  0  0
    6.8977    0.1138   -4.2717 C   0  0  0  0  0  0  0  0  0  0  0  0
    6.0810   -0.4994   -1.3141 C   0  0  0  0  0  0  0  0  0  0  0  0
    3.7277   -1.2466    0.7090 C   0  0  0  0  0  0  0  0  0  0  0  0
    4.0450   -2.9241    0.9338 S   0  0  0  0  0  0  0  0  0  0  0  0
    2.3521   -3.3643    1.0054 C   0  0  0  0  0  0  0  0  0  0  0  0
    1.4485   -4.3878    1.2991 C   0  0  0  0  0  0  0  0  0  0  0  0
    1.5832   -5.7192    1.7677 C   0  0  0  0  0  0  0  0  0  0  0  0
    0.3938   -6.4736    2.0816 C   0  0  0  0  0  0  0  0  0  0  0  0
    0.5811   -7.7505    2.5500 N   0  0  0  0  0  0  0  0  0  0  0  0
    2.2350   -7.7710    2.5383 S   0  0  0  0  0  0  0  0  0  0  0  0
    2.7776   -6.3063    1.9739 N   0  0  0  0  0  0  0  0  0  0  0  0
   -0.8742   -5.8907    1.8772 C   0  0  0  0  0  0  0  0  0  0  0  0
   -2.1740   -6.3430    2.0323 C   0  0  0  0  0  0  0  0  0  0  0  0
   -3.0044   -7.7314    2.5900 S   0  0  0  0  0  0  0  0  0  0  0  0
   -4.5089   -7.0452    2.1342 C   0  0  0  0  0  0  0  0  0  0  0  0
   -5.8107   -7.4883    2.2882 C   0  0  0  0  0  0  0  0  0  0  0  0
   -6.1315   -8.6438    3.1402 C   0  0  0  0  0  0  0  0  0  0  0  0
   -6.1259   -9.9220    2.6388 C   0  0  0  0  0  0  0  0  0  0  0  0
   -6.2456  -11.0155    3.5029 C   0  0  0  0  0  0  0  0  0  0  0  0
   -6.3245  -10.8004    4.8754 C   0  0  0  0  0  0  0  0  0  0  0  0
   -6.3442   -9.4703    5.3950 C   0  0  0  0  0  0  0  0  0  0  0  0
   -6.1321   -9.1935    6.8490 C   0  0  0  0  0  0  0  0  0  0  0  0
   -4.6215   -9.0234    7.0917 C   0  0  0  0  0  0  0  0  0  0  0  0
   -6.3010   -8.4038    4.5203 C   0  0  0  0  0  0  0  0  0  0  0  0
   -6.8170   -6.6385    1.7428 C   0  0  0  0  0  0  0  0  0  0  0  0
   -5.9521   -5.3141    1.1111 S   0  0  0  0  0  0  0  0  0  0  0  0
   -4.3757   -5.8166    1.5356 C   0  0  0  0  0  0  0  0  0  0  0  0
   -3.0353   -5.4092    1.5509 C   0  0  0  0  0  0  0  0  0  0  0  0
   -2.3494   -4.3096    1.1224 N   0  0  0  0  0  0  0  0  0  0  0  0
   -1.0098   -4.5847    1.3621 C   0  0  0  0  0  0  0  0  0  0  0  0
    0.1500   -3.8048    1.2037 C   0  0  0  0  0  0  0  0  0  0  0  0
    0.2642   -2.4602    1.0297 N   0  0  0  0  0  0  0  0  0  0  0  0
    1.5910   -2.2414    0.8436 C   0  0  0  0  0  0  0  0  0  0  0  0
    2.3363   -1.1163    0.7187 C   0  0  0  0  0  0  0  0  0  0  0  0
    1.9428    0.4356    0.4808 S   0  0  0  0  0  0  0  0  0  0  0  0
   -0.6623   -1.4449    1.6160 C   0  0  0  0  0  0  0  0  0  0  0  0
   -0.1775   -0.9519    2.9845 C   0  0  0  0  0  0  0  0  0  0  0  0
   -2.9492   -3.3101    0.2237 C   0  0  0  0  0  0  0  0  0  0  0  0
   -3.2622   -3.9125   -1.1424 C   0  0  0  0  0  0  0  0  0  0  0  0
   -8.3140   -6.9079    1.7439 C   0  0  0  0  0  0  0  0  0  0  0  0
   -9.1693   -6.6825    0.6464 C   0  0  0  0  0  0  0  0  0  0  0  0
  -10.0094   -7.7649    0.3884 C   0  0  0  0  0  0  0  0  0  0  0  0
  -11.0447   -7.6798   -0.4967 F   0  0  0  0  0  0  0  0  0  0  0  0
   -9.9599   -8.7713    1.2902 C   0  0  0  0  0  0  0  0  0  0  0  0
   -8.9755   -8.3402    2.5338 S   0  0  0  0  0  0  0  0  0  0  0  0
  -10.2369  -10.2181    0.9444 C   0  0  0  0  0  0  0  0  0  0  0  0
   -9.4315  -10.9672    0.0697 C   0  0  0  0  0  0  0  0  0  0  0  0
   -8.7394  -12.1550    0.5427 C   0  0  0  0  0  0  0  0  0  0  0  0
   -9.1659  -12.9908    1.4452 O   0  0  0  0  0  0  0  0  0  0  0  0
   -7.3072  -12.1510    0.1267 C   0  0  0  0  0  0  0  0  0  0  0  0
   -6.1963  -12.9782    0.2951 C   0  0  0  0  0  0  0  0  0  0  0  0
   -4.9303  -12.6189   -0.2216 C   0  0  0  0  0  0  0  0  0  0  0  0
   -4.7809  -11.3906   -0.8941 C   0  0  0  0  0  0  0  0  0  0  0  0
   -3.3097  -10.9438   -1.7191 Cl  0  0  0  0  0  0  0  0  0  0  0  0
   -5.8849  -10.5912   -1.1036 C   0  0  0  0  0  0  0  0  0  0  0  0
   -7.1321  -10.9534   -0.5421 C   0  0  0  0  0  0  0  0  0  0  0  0
   -8.4823  -10.4797   -1.0161 C   0  0  0  0  0  0  0  0  0  0  0  0
   -8.7149   -9.6490   -2.0242 C   0  0  0  0  0  0  0  0  0  0  0  0
   -9.9730   -9.3737   -2.6134 C   0  0  0  0  0  0  0  0  0  0  0  0
  -11.0007   -9.1364   -3.1719 N   0  0  0  0  0  0  0  0  0  0  0  0
   -7.8615   -8.4554   -2.1081 C   0  0  0  0  0  0  0  0  0  0  0  0
   -7.1976   -7.4656   -2.0757 N   0  0  0  0  0  0  0  0  0  0  0  0
    2.4526    7.4912   -2.9481 H   0  0  0  0  0  0  0  0  0  0  0  0
    2.7002   13.4052   -0.3871 H   0  0  0  0  0  0  0  0  0  0  0  0
    1.3541   15.1211   -1.6495 H   0  0  0  0  0  0  0  0  0  0  0  0
    0.3422   12.2190   -4.6041 H   0  0  0  0  0  0  0  0  0  0  0  0
    7.0157    9.0859   -2.2819 H   0  0  0  0  0  0  0  0  0  0  0  0
    9.1072    8.7969   -3.5231 H   0  0  0  0  0  0  0  0  0  0  0  0
   10.6733    5.3890   -4.1784 H   0  0  0  0  0  0  0  0  0  0  0  0
   11.1137    7.0935   -3.7940 H   0  0  0  0  0  0  0  0  0  0  0  0
   10.1122    6.7130   -5.2535 H   0  0  0  0  0  0  0  0  0  0  0  0
    8.6789    4.5057   -3.1499 H   0  0  0  0  0  0  0  0  0  0  0  0
    6.7249    4.8017   -1.7729 H   0  0  0  0  0  0  0  0  0  0  0  0
    4.6790    6.3992    1.5934 H   0  0  0  0  0  0  0  0  0  0  0  0
    5.0817    7.4261    3.7435 H   0  0  0  0  0  0  0  0  0  0  0  0
    7.1928   10.5314    4.2443 H   0  0  0  0  0  0  0  0  0  0  0  0
    5.6847    9.7505    4.8522 H   0  0  0  0  0  0  0  0  0  0  0  0
    7.2662    8.8591    4.9414 H   0  0  0  0  0  0  0  0  0  0  0  0
    7.6866   10.3165    1.9384 H   0  0  0  0  0  0  0  0  0  0  0  0
    7.2970    9.3717   -0.1901 H   0  0  0  0  0  0  0  0  0  0  0  0
   -0.2102    1.7036    2.0981 H   0  0  0  0  0  0  0  0  0  0  0  0
   -0.7071    2.1286    4.4832 H   0  0  0  0  0  0  0  0  0  0  0  0
   -0.9460    4.0969    6.1711 H   0  0  0  0  0  0  0  0  0  0  0  0
    0.7131    3.5513    6.6937 H   0  0  0  0  0  0  0  0  0  0  0  0
    0.4083    5.2715    6.2651 H   0  0  0  0  0  0  0  0  0  0  0  0
    1.8235    5.6063    4.3678 H   0  0  0  0  0  0  0  0  0  0  0  0
    2.3568    5.1858    2.0769 H   0  0  0  0  0  0  0  0  0  0  0  0
   -1.1448    4.2036    0.8621 H   0  0  0  0  0  0  0  0  0  0  0  0
   -3.0735    3.8905   -0.5492 H   0  0  0  0  0  0  0  0  0  0  0  0
   -3.9673    1.8746   -2.3042 H   0  0  0  0  0  0  0  0  0  0  0  0
   -3.7407    3.5061   -3.0576 H   0  0  0  0  0  0  0  0  0  0  0  0
   -3.0258    2.0603   -3.8665 H   0  0  0  0  0  0  0  0  0  0  0  0
   -0.6861    1.5974   -3.3806 H   0  0  0  0  0  0  0  0  0  0  0  0
    1.2944    1.9149   -1.9311 H   0  0  0  0  0  0  0  0  0  0  0  0
    6.6193    1.0913    1.6711 H   0  0  0  0  0  0  0  0  0  0  0  0
    8.9096    1.2920    0.6578 H   0  0  0  0  0  0  0  0  0  0  0  0
    9.3226    0.4233   -1.6230 H   0  0  0  0  0  0  0  0  0  0  0  0
    8.6465   -0.9271   -3.5238 H   0  0  0  0  0  0  0  0  0  0  0  0
    7.0853   -1.8585   -3.4049 H   0  0  0  0  0  0  0  0  0  0  0  0
    7.0861   -0.2062   -5.3158 H   0  0  0  0  0  0  0  0  0  0  0  0
    5.7790    0.1356   -4.1376 H   0  0  0  0  0  0  0  0  0  0  0  0
    7.2259    1.1899   -4.1200 H   0  0  0  0  0  0  0  0  0  0  0  0
    5.2516   -0.9732   -1.8676 H   0  0  0  0  0  0  0  0  0  0  0  0
   -5.9687  -10.0943    1.6082 H   0  0  0  0  0  0  0  0  0  0  0  0
   -6.2432  -12.0347    3.1327 H   0  0  0  0  0  0  0  0  0  0  0  0
   -6.3081  -11.6602    5.5551 H   0  0  0  0  0  0  0  0  0  0  0  0
   -6.6350   -8.2418    7.1275 H   0  0  0  0  0  0  0  0  0  0  0  0
   -6.5256  -10.0018    7.4843 H   0  0  0  0  0  0  0  0  0  0  0  0
   -4.1083   -9.9670    6.8576 H   0  0  0  0  0  0  0  0  0  0  0  0
   -4.4129   -8.7351    8.1440 H   0  0  0  0  0  0  0  0  0  0  0  0
   -4.1776   -8.2563    6.3800 H   0  0  0  0  0  0  0  0  0  0  0  0
   -6.2515   -7.3724    4.9028 H   0  0  0  0  0  0  0  0  0  0  0  0
   -1.6158   -1.8915    1.8526 H   0  0  0  0  0  0  0  0  0  0  0  0
   -0.7977   -0.6148    0.8953 H   0  0  0  0  0  0  0  0  0  0  0  0
    0.7860   -0.4516    2.9040 H   0  0  0  0  0  0  0  0  0  0  0  0
   -0.9163   -0.2382    3.3801 H   0  0  0  0  0  0  0  0  0  0  0  0
   -0.0463   -1.8253    3.6554 H   0  0  0  0  0  0  0  0  0  0  0  0
   -3.8695   -2.9043    0.6894 H   0  0  0  0  0  0  0  0  0  0  0  0
   -2.2597   -2.4635    0.0056 H   0  0  0  0  0  0  0  0  0  0  0  0
   -3.3268   -3.0989   -1.8925 H   0  0  0  0  0  0  0  0  0  0  0  0
   -4.2241   -4.4491   -1.1220 H   0  0  0  0  0  0  0  0  0  0  0  0
   -2.4676   -4.6266   -1.4216 H   0  0  0  0  0  0  0  0  0  0  0  0
   -8.9544   -5.9217   -0.0468 H   0  0  0  0  0  0  0  0  0  0  0  0
  -11.3612  -10.4881    0.7942 H   0  0  0  0  0  0  0  0  0  0  0  0
   -6.3224  -13.9426    0.7818 H   0  0  0  0  0  0  0  0  0  0  0  0
   -4.0825  -13.3350   -0.2209 H   0  0  0  0  0  0  0  0  0  0  0  0
   -5.7303   -9.6544   -1.6470 H   0  0  0  0  0  0  0  0  0  0  0  0
  1  2  2  3
  2  3  1  0
  3  4  2  0
  3  5  1  0
  5  6  2  0
  6  7  1  0
  7  8  2  0
  8  9  1  0
  8 10  1  0
 10 11  2  0
 11 12  1  0
 12 13  2  3
 13 14  1  0
 14 15  3  0
 13 16  1  0
 16 17  3  0
  1 18  1  0
 18 19  2  0
 19 20  1  0
 20 21  1  0
 21 22  2  0
 22 23  1  0
 23 24  2  0
 24 25  1  0
 24 26  1  0
 26 27  2  0
 20 28  1  0
 28 29  2  0
 29 30  1  0
 30 31  2  0
 31 32  1  0
 31 33  1  0
 33 34  2  0
 19 35  1  0
 35 36  1  0
 36 37  1  0
 37 38  2  0
 38 39  1  0
 39 40  1  0
 40 41  2  0
 41 42  1  0
 42 43  2  0
 43 44  1  0
 43 45  1  0
 45 46  2  0
 39 47  1  0
 47 48  2  0
 48 49  1  0
 49 50  2  0
 50 51  1  0
 50 52  1  0
 52 53  2  0
 38 54  1  0
 54 55  1  0
 37 56  1  0
 56 57  2  0
 57 58  1  0
 58 59  2  0
 59 60  1  0
 60 61  2  0
 61 62  1  0
 62 63  1  0
 63 64  1  0
 62 65  2  0
 57 66  1  0
 66 67  1  0
 67 68  1  0
 68 69  1  0
 69 70  1  0
 70 71  1  0
 71 72  2  0
 72 73  1  0
 73 74  1  0
 71 75  1  0
 75 76  1  0
 76 77  1  0
 77 78  1  0
 78 79  1  0
 79 80  1  0
 80 81  2  0
 81 82  1  0
 82 83  2  0
 83 84  1  0
 84 85  1  0
 85 86  1  0
 84 87  2  0
 79 88  2  0
 88 89  1  0
 89 90  1  0
 90 91  1  0
 91 92  1  0
 92 93  1  0
 93 94  1  0
 94 95  1  0
 95 96  1  0
 96 97  1  0
 97 98  1  0
 95 99  1  0
 99100  1  0
 92101  1  0
101102  1  0
 88103  1  0
103104  2  0
104105  1  0
105106  1  0
105107  2  0
107108  1  0
107109  1  0
109110  2  3
110111  1  0
111112  2  0
111113  1  0
113114  2  0
114115  1  0
115116  2  0
116117  1  0
116118  1  0
118119  2  0
119120  1  0
120121  2  3
121122  1  0
122123  3  0
121124  1  0
124125  3  0
 12  2  1  0
 55 18  1  0
 98 56  1  0
108103  1  0
120110  1  0
 11  5  1  0
 27 21  1  0
 34 28  1  0
 54 35  2  0
 65 58  1  0
 97 66  2  0
119113  1  0
 46 40  1  0
 53 47  1  0
 96 68  2  0
 94 69  2  0
 74 70  2  0
 93 75  2  0
 91 76  2  0
 90 78  2  0
 87 80  1  0
  1126  1  0
  6127  1  0
  7128  1  0
 10129  1  0
 22130  1  0
 23131  1  0
 25132  1  0
 25133  1  0
 25134  1  0
 26135  1  0
 27136  1  0
 29137  1  0
 30138  1  0
 32139  1  0
 32140  1  0
 32141  1  0
 33142  1  0
 34143  1  0
 41144  1  0
 42145  1  0
 44146  1  0
 44147  1  0
 44148  1  0
 45149  1  0
 46150  1  0
 48151  1  0
 49152  1  0
 51153  1  0
 51154  1  0
 51155  1  0
 52156  1  0
 53157  1  0
 59158  1  0
 60159  1  0
 61160  1  0
 63161  1  0
 63162  1  0
 64163  1  0
 64164  1  0
 64165  1  0
 65166  1  0
 81167  1  0
 82168  1  0
 83169  1  0
 85170  1  0
 85171  1  0
 86172  1  0
 86173  1  0
 86174  1  0
 87175  1  0
 99176  1  0
 99177  1  0
100178  1  0
100179  1  0
100180  1  0
101181  1  0
101182  1  0
102183  1  0
102184  1  0
102185  1  0
104186  1  0
109187  1  0
114188  1  0
115189  1  0
118190  1  0
M  END

