
     RDKit          3D

249274  0  0  0  0  0  0  0  0999 V2000
   -3.7267    3.4237   -8.5401 C   0  0  0  0  0  0  0  0  0  0  0  0
   -3.5497    4.6495   -9.0601 C   0  0  0  0  0  0  0  0  0  0  0  0
   -2.3940    5.5148   -8.7994 C   0  0  0  0  0  0  0  0  0  0  0  0
   -1.3760    5.2148   -8.1208 O   0  0  0  0  0  0  0  0  0  0  0  0
   -2.6871    6.8341   -9.3010 C   0  0  0  0  0  0  0  0  0  0  0  0
   -1.9067    7.9816   -9.1706 C   0  0  0  0  0  0  0  0  0  0  0  0
   -2.4454    9.2009   -9.5892 C   0  0  0  0  0  0  0  0  0  0  0  0
   -3.7483    9.2575  -10.1127 C   0  0  0  0  0  0  0  0  0  0  0  0
   -4.4338   10.8049  -10.5821 Cl  0  0  0  0  0  0  0  0  0  0  0  0
   -4.5156    8.0863  -10.2436 C   0  0  0  0  0  0  0  0  0  0  0  0
   -3.9582    6.8581   -9.8498 C   0  0  0  0  0  0  0  0  0  0  0  0
   -4.5442    5.4835   -9.8126 C   0  0  0  0  0  0  0  0  0  0  0  0
   -5.6588    5.0547  -10.4666 C   0  0  0  0  0  0  0  0  0  0  0  0
   -6.0774    3.6747  -10.4897 C   0  0  0  0  0  0  0  0  0  0  0  0
   -6.4288    2.5734  -10.4957 N   0  0  0  0  0  0  0  0  0  0  0  0
   -6.5008    5.9391  -11.2326 C   0  0  0  0  0  0  0  0  0  0  0  0
   -7.1937    6.6301  -11.8493 N   0  0  0  0  0  0  0  0  0  0  0  0
   -2.6862    2.7121   -7.7935 C   0  0  0  0  0  0  0  0  0  0  0  0
   -1.6340    1.9741   -8.3376 C   0  0  0  0  0  0  0  0  0  0  0  0
   -1.2613    1.9885   -9.7236 N   0  0  0  0  0  0  0  0  0  0  0  0
   -1.7613    0.9621  -10.5907 C   0  0  0  0  0  0  0  0  0  0  0  0
   -0.9497   -0.1349  -10.9085 C   0  0  0  0  0  0  0  0  0  0  0  0
   -1.3977   -1.1046  -11.8091 C   0  0  0  0  0  0  0  0  0  0  0  0
   -2.6570   -0.9747  -12.4181 C   0  0  0  0  0  0  0  0  0  0  0  0
   -3.1411   -2.0066  -13.3897 C   0  0  0  0  0  0  0  0  0  0  0  0
   -3.4791    0.1119  -12.0802 C   0  0  0  0  0  0  0  0  0  0  0  0
   -3.0288    1.0800  -11.1776 C   0  0  0  0  0  0  0  0  0  0  0  0
   -0.4079    3.0258  -10.2489 C   0  0  0  0  0  0  0  0  0  0  0  0
    0.6616    3.5322   -9.4889 C   0  0  0  0  0  0  0  0  0  0  0  0
    1.4632    4.5645   -9.9883 C   0  0  0  0  0  0  0  0  0  0  0  0
    1.2027    5.1118  -11.2532 C   0  0  0  0  0  0  0  0  0  0  0  0
    2.0682    6.2066  -11.8033 C   0  0  0  0  0  0  0  0  0  0  0  0
    0.1613    4.5933  -12.0288 C   0  0  0  0  0  0  0  0  0  0  0  0
   -0.6397    3.5603  -11.5313 C   0  0  0  0  0  0  0  0  0  0  0  0
   -0.8974    1.3386   -7.3413 C   0  0  0  0  0  0  0  0  0  0  0  0
    0.4632    0.3815   -7.3437 S   0  0  0  0  0  0  0  0  0  0  0  0
    0.5803    0.2861   -5.6461 C   0  0  0  0  0  0  0  0  0  0  0  0
   -0.4802    1.0258   -5.0530 C   0  0  0  0  0  0  0  0  0  0  0  0
   -0.6883    1.2608   -3.6319 N   0  0  0  0  0  0  0  0  0  0  0  0
   -1.9428    1.7764   -3.1616 C   0  0  0  0  0  0  0  0  0  0  0  0
   -3.0805    0.9591   -3.1457 C   0  0  0  0  0  0  0  0  0  0  0  0
   -4.3173    1.4847   -2.7582 C   0  0  0  0  0  0  0  0  0  0  0  0
   -4.4308    2.8373   -2.4019 C   0  0  0  0  0  0  0  0  0  0  0  0
   -5.7601    3.4085   -2.0081 C   0  0  0  0  0  0  0  0  0  0  0  0
   -3.2843    3.6468   -2.3861 C   0  0  0  0  0  0  0  0  0  0  0  0
   -2.0459    3.1178   -2.7593 C   0  0  0  0  0  0  0  0  0  0  0  0
    0.3535    1.1064   -2.6523 C   0  0  0  0  0  0  0  0  0  0  0  0
    1.5567    1.8157   -2.7637 C   0  0  0  0  0  0  0  0  0  0  0  0
    2.5790    1.6228   -1.8292 C   0  0  0  0  0  0  0  0  0  0  0  0
    2.4015    0.7289   -0.7606 C   0  0  0  0  0  0  0  0  0  0  0  0
    3.5151    0.4743    0.2125 C   0  0  0  0  0  0  0  0  0  0  0  0
    1.1600    0.0983   -0.5947 C   0  0  0  0  0  0  0  0  0  0  0  0
    0.1483    0.2742   -1.5403 C   0  0  0  0  0  0  0  0  0  0  0  0
   -1.2926    1.5814   -6.0628 C   0  0  0  0  0  0  0  0  0  0  0  0
   -2.6515    2.5775   -6.1014 S   0  0  0  0  0  0  0  0  0  0  0  0
    1.6941   -0.4218   -4.9897 C   0  0  0  0  0  0  0  0  0  0  0  0
    3.0587   -0.1272   -5.1688 C   0  0  0  0  0  0  0  0  0  0  0  0
    3.5795    0.9636   -6.0141 C   0  0  0  0  0  0  0  0  0  0  0  0
    3.6559    0.8000   -7.4064 C   0  0  0  0  0  0  0  0  0  0  0  0
    4.0381    1.8673   -8.2185 C   0  0  0  0  0  0  0  0  0  0  0  0
    4.3758    3.0970   -7.6506 C   0  0  0  0  0  0  0  0  0  0  0  0
    4.3391    3.2624   -6.2569 C   0  0  0  0  0  0  0  0  0  0  0  0
    4.7669    4.5655   -5.6402 C   0  0  0  0  0  0  0  0  0  0  0  0
    6.2542    4.5343   -5.3026 C   0  0  0  0  0  0  0  0  0  0  0  0
    3.9603    2.1842   -5.4427 C   0  0  0  0  0  0  0  0  0  0  0  0
    3.8512   -0.9305   -4.3544 C   0  0  0  0  0  0  0  0  0  0  0  0
    5.4716   -0.8066   -3.8689 S   0  0  0  0  0  0  0  0  0  0  0  0
    5.2723   -2.0556   -2.7373 C   0  0  0  0  0  0  0  0  0  0  0  0
    5.8389   -2.3241   -1.5241 C   0  0  0  0  0  0  0  0  0  0  0  0
    6.8762   -1.6435   -0.8712 C   0  0  0  0  0  0  0  0  0  0  0  0
    7.0180   -1.7866    0.5374 C   0  0  0  0  0  0  0  0  0  0  0  0
    7.9770   -1.0449    1.1446 N   0  0  0  0  0  0  0  0  0  0  0  0
    8.5747   -0.2331   -0.1690 S   0  0  0  0  0  0  0  0  0  0  0  0
    7.7018   -0.7547   -1.4763 N   0  0  0  0  0  0  0  0  0  0  0  0
    6.1720   -2.6679    1.2066 C   0  0  0  0  0  0  0  0  0  0  0  0
    6.0255   -2.9393    2.5401 C   0  0  0  0  0  0  0  0  0  0  0  0
    6.1329   -1.9376    3.8963 S   0  0  0  0  0  0  0  0  0  0  0  0
    4.8512   -2.7427    4.6788 C   0  0  0  0  0  0  0  0  0  0  0  0
    3.9675   -2.2683    5.6612 C   0  0  0  0  0  0  0  0  0  0  0  0
    4.2048   -0.9355    6.2280 C   0  0  0  0  0  0  0  0  0  0  0  0
    3.8165    0.1875    5.4835 C   0  0  0  0  0  0  0  0  0  0  0  0
    4.3259    1.4473    5.7965 C   0  0  0  0  0  0  0  0  0  0  0  0
    5.2338    1.6008    6.8446 C   0  0  0  0  0  0  0  0  0  0  0  0
    5.6250    0.4908    7.6147 C   0  0  0  0  0  0  0  0  0  0  0  0
    6.6907    0.6173    8.6803 C   0  0  0  0  0  0  0  0  0  0  0  0
    6.4578    1.8016    9.6167 C   0  0  0  0  0  0  0  0  0  0  0  0
    5.1196   -0.7788    7.2824 C   0  0  0  0  0  0  0  0  0  0  0  0
    2.7427   -2.9942    5.6509 C   0  0  0  0  0  0  0  0  0  0  0  0
    2.8217   -4.1307    4.3767 S   0  0  0  0  0  0  0  0  0  0  0  0
    4.3643   -3.7506    3.8879 C   0  0  0  0  0  0  0  0  0  0  0  0
    4.9986   -3.8308    2.6541 C   0  0  0  0  0  0  0  0  0  0  0  0
    4.4690   -4.1524    1.4463 N   0  0  0  0  0  0  0  0  0  0  0  0
    5.1533   -3.3753    0.5539 C   0  0  0  0  0  0  0  0  0  0  0  0
    4.8987   -3.0986   -0.8192 C   0  0  0  0  0  0  0  0  0  0  0  0
    3.7170   -3.1740   -1.5235 N   0  0  0  0  0  0  0  0  0  0  0  0
    3.9947   -2.5307   -2.6932 C   0  0  0  0  0  0  0  0  0  0  0  0
    3.1750   -1.8663   -3.6099 C   0  0  0  0  0  0  0  0  0  0  0  0
    1.5214   -1.7063   -3.8818 S   0  0  0  0  0  0  0  0  0  0  0  0
    2.3569   -3.3506   -1.0015 C   0  0  0  0  0  0  0  0  0  0  0  0
    1.6434   -4.5150   -1.6900 C   0  0  0  0  0  0  0  0  0  0  0  0
    3.6864   -5.3620    1.1684 C   0  0  0  0  0  0  0  0  0  0  0  0
    4.3081   -6.5986    1.8123 C   0  0  0  0  0  0  0  0  0  0  0  0
    1.4403   -2.7390    6.3317 C   0  0  0  0  0  0  0  0  0  0  0  0
    1.0603   -1.7860    7.3131 C   0  0  0  0  0  0  0  0  0  0  0  0
    1.9376   -1.0719    8.1947 N   0  0  0  0  0  0  0  0  0  0  0  0
    1.9570    0.3869    8.1762 C   0  0  0  0  0  0  0  0  0  0  0  0
    1.2962    1.1102    7.1556 C   0  0  0  0  0  0  0  0  0  0  0  0
    1.3286    2.5055    7.1280 C   0  0  0  0  0  0  0  0  0  0  0  0
    2.0045    3.2181    8.1260 C   0  0  0  0  0  0  0  0  0  0  0  0
    2.0773    4.7145    8.0682 C   0  0  0  0  0  0  0  0  0  0  0  0
    2.6888    2.5173    9.1257 C   0  0  0  0  0  0  0  0  0  0  0  0
    2.6810    1.1204    9.1417 C   0  0  0  0  0  0  0  0  0  0  0  0
    2.3738   -1.8162    9.3545 C   0  0  0  0  0  0  0  0  0  0  0  0
    3.2078   -2.9381    9.2133 C   0  0  0  0  0  0  0  0  0  0  0  0
    3.5905   -3.6857   10.3279 C   0  0  0  0  0  0  0  0  0  0  0  0
    3.1334   -3.3342   11.6081 C   0  0  0  0  0  0  0  0  0  0  0  0
    3.5589   -4.1188   12.8142 C   0  0  0  0  0  0  0  0  0  0  0  0
    2.2755   -2.2352   11.7531 C   0  0  0  0  0  0  0  0  0  0  0  0
    1.8778   -1.4984   10.6337 C   0  0  0  0  0  0  0  0  0  0  0  0
   -0.3311   -1.7482    7.4725 C   0  0  0  0  0  0  0  0  0  0  0  0
   -1.4138   -0.6777    8.1777 S   0  0  0  0  0  0  0  0  0  0  0  0
   -2.8244   -1.3836    7.5185 C   0  0  0  0  0  0  0  0  0  0  0  0
   -2.4130   -2.4915    6.7405 C   0  0  0  0  0  0  0  0  0  0  0  0
   -3.2646   -3.4075    6.0307 N   0  0  0  0  0  0  0  0  0  0  0  0
   -4.0475   -2.9566    4.9023 C   0  0  0  0  0  0  0  0  0  0  0  0
   -5.2792   -3.5670    4.6060 C   0  0  0  0  0  0  0  0  0  0  0  0
   -6.0573   -3.1109    3.5380 C   0  0  0  0  0  0  0  0  0  0  0  0
   -5.6198   -2.0349    2.7540 C   0  0  0  0  0  0  0  0  0  0  0  0
   -6.4279   -1.5732    1.5772 C   0  0  0  0  0  0  0  0  0  0  0  0
   -4.3834   -1.4371    3.0324 C   0  0  0  0  0  0  0  0  0  0  0  0
   -3.6067   -1.8867    4.1027 C   0  0  0  0  0  0  0  0  0  0  0  0
   -3.1285   -4.8144    6.3532 C   0  0  0  0  0  0  0  0  0  0  0  0
   -2.9259   -5.2168    7.6893 C   0  0  0  0  0  0  0  0  0  0  0  0
   -2.6767   -6.5523    8.0030 C   0  0  0  0  0  0  0  0  0  0  0  0
   -2.5970   -7.5131    6.9874 C   0  0  0  0  0  0  0  0  0  0  0  0
   -2.3143   -8.9459    7.3262 C   0  0  0  0  0  0  0  0  0  0  0  0
   -2.8090   -7.1263    5.6557 C   0  0  0  0  0  0  0  0  0  0  0  0
   -3.0676   -5.7881    5.3396 C   0  0  0  0  0  0  0  0  0  0  0  0
   -1.0299   -2.6344    6.7401 C   0  0  0  0  0  0  0  0  0  0  0  0
    0.0162   -3.5166    5.7941 S   0  0  0  0  0  0  0  0  0  0  0  0
   -4.0590   -0.5887    7.3410 C   0  0  0  0  0  0  0  0  0  0  0  0
   -5.2988   -1.0769    7.1609 C   0  0  0  0  0  0  0  0  0  0  0  0
   -5.7791   -2.3864    7.6083 C   0  0  0  0  0  0  0  0  0  0  0  0
   -5.1346   -3.2169    8.3007 O   0  0  0  0  0  0  0  0  0  0  0  0
   -7.1840   -2.4918    7.2904 C   0  0  0  0  0  0  0  0  0  0  0  0
   -8.0216   -3.5955    7.4677 C   0  0  0  0  0  0  0  0  0  0  0  0
   -9.3608   -3.4932    7.0676 C   0  0  0  0  0  0  0  0  0  0  0  0
   -9.8412   -2.2938    6.5127 C   0  0  0  0  0  0  0  0  0  0  0  0
  -11.6696   -2.1599    5.9727 Br  0  0  0  0  0  0  0  0  0  0  0  0
   -8.9834   -1.1937    6.3443 C   0  0  0  0  0  0  0  0  0  0  0  0
   -7.6314   -1.3069    6.7261 C   0  0  0  0  0  0  0  0  0  0  0  0
   -6.4830   -0.3573    6.5762 C   0  0  0  0  0  0  0  0  0  0  0  0
   -6.4762    0.8075    5.8704 C   0  0  0  0  0  0  0  0  0  0  0  0
   -5.2711    1.5180    5.5382 C   0  0  0  0  0  0  0  0  0  0  0  0
   -4.3101    2.1005    5.2632 N   0  0  0  0  0  0  0  0  0  0  0  0
   -7.6669    1.4004    5.3170 C   0  0  0  0  0  0  0  0  0  0  0  0
   -8.6120    1.8915    4.8608 N   0  0  0  0  0  0  0  0  0  0  0  0
   -4.6760    2.9238   -8.5907 H   0  0  0  0  0  0  0  0  0  0  0  0
   -0.9210    7.9336   -8.7347 H   0  0  0  0  0  0  0  0  0  0  0  0
   -1.8627   10.1090   -9.4924 H   0  0  0  0  0  0  0  0  0  0  0  0
   -5.5261    8.1736  -10.5961 H   0  0  0  0  0  0  0  0  0  0  0  0
    0.0304   -0.2338  -10.4592 H   0  0  0  0  0  0  0  0  0  0  0  0
   -0.7595   -1.9496  -12.0399 H   0  0  0  0  0  0  0  0  0  0  0  0
   -3.6541   -1.5161  -14.2456 H   0  0  0  0  0  0  0  0  0  0  0  0
   -3.8520   -2.6899  -12.8784 H   0  0  0  0  0  0  0  0  0  0  0  0
   -2.2923   -2.6024  -13.7916 H   0  0  0  0  0  0  0  0  0  0  0  0
   -4.4603    0.2156  -12.5225 H   0  0  0  0  0  0  0  0  0  0  0  0
   -3.6526    1.9363  -10.9577 H   0  0  0  0  0  0  0  0  0  0  0  0
    0.8763    3.1393   -8.5039 H   0  0  0  0  0  0  0  0  0  0  0  0
    2.2826    4.9346   -9.3865 H   0  0  0  0  0  0  0  0  0  0  0  0
    2.8048    5.7735  -12.5113 H   0  0  0  0  0  0  0  0  0  0  0  0
    1.4460    6.9542  -12.3401 H   0  0  0  0  0  0  0  0  0  0  0  0
    2.6165    6.7339  -10.9941 H   0  0  0  0  0  0  0  0  0  0  0  0
   -0.0414    4.9875  -13.0171 H   0  0  0  0  0  0  0  0  0  0  0  0
   -1.4469    3.1857  -12.1432 H   0  0  0  0  0  0  0  0  0  0  0  0
   -3.0085   -0.0821   -3.4395 H   0  0  0  0  0  0  0  0  0  0  0  0
   -5.1907    0.8424   -2.7577 H   0  0  0  0  0  0  0  0  0  0  0  0
   -5.8395    4.4681   -2.3331 H   0  0  0  0  0  0  0  0  0  0  0  0
   -5.8722    3.3561   -0.9059 H   0  0  0  0  0  0  0  0  0  0  0  0
   -6.5890    2.8412   -2.4841 H   0  0  0  0  0  0  0  0  0  0  0  0
   -3.3514    4.6873   -2.0965 H   0  0  0  0  0  0  0  0  0  0  0  0
   -1.1730    3.7571   -2.7753 H   0  0  0  0  0  0  0  0  0  0  0  0
    1.6977    2.5064   -3.5846 H   0  0  0  0  0  0  0  0  0  0  0  0
    3.5099    2.1615   -1.9384 H   0  0  0  0  0  0  0  0  0  0  0  0
    3.5255    1.2695    0.9872 H   0  0  0  0  0  0  0  0  0  0  0  0
    4.4922    0.4609   -0.3164 H   0  0  0  0  0  0  0  0  0  0  0  0
    3.3863   -0.5129    0.7088 H   0  0  0  0  0  0  0  0  0  0  0  0
    0.9887   -0.5661    0.2456 H   0  0  0  0  0  0  0  0  0  0  0  0
   -0.7884   -0.2578   -1.4234 H   0  0  0  0  0  0  0  0  0  0  0  0
    3.3930   -0.1481   -7.8597 H   0  0  0  0  0  0  0  0  0  0  0  0
    4.0631    1.7484   -9.2929 H   0  0  0  0  0  0  0  0  0  0  0  0
    4.6727    3.9174   -8.2897 H   0  0  0  0  0  0  0  0  0  0  0  0
    4.1820    4.7600   -4.7114 H   0  0  0  0  0  0  0  0  0  0  0  0
    4.5651    5.4080   -6.3346 H   0  0  0  0  0  0  0  0  0  0  0  0
    6.4678    3.7187   -4.5793 H   0  0  0  0  0  0  0  0  0  0  0  0
    6.5587    5.5030   -4.8503 H   0  0  0  0  0  0  0  0  0  0  0  0
    6.8539    4.3690   -6.2254 H   0  0  0  0  0  0  0  0  0  0  0  0
    3.9506    2.2994   -4.3649 H   0  0  0  0  0  0  0  0  0  0  0  0
    3.1671    0.0763    4.6250 H   0  0  0  0  0  0  0  0  0  0  0  0
    4.0357    2.3056    5.2084 H   0  0  0  0  0  0  0  0  0  0  0  0
    5.6418    2.5839    7.0387 H   0  0  0  0  0  0  0  0  0  0  0  0
    6.7249   -0.3055    9.2992 H   0  0  0  0  0  0  0  0  0  0  0  0
    7.6822    0.7282    8.1905 H   0  0  0  0  0  0  0  0  0  0  0  0
    6.6697    2.7616    9.0931 H   0  0  0  0  0  0  0  0  0  0  0  0
    5.4134    1.8083    9.9964 H   0  0  0  0  0  0  0  0  0  0  0  0
    7.1483    1.7298   10.4843 H   0  0  0  0  0  0  0  0  0  0  0  0
    5.4890   -1.6559    7.7987 H   0  0  0  0  0  0  0  0  0  0  0  0
    1.7705   -2.4313   -1.1853 H   0  0  0  0  0  0  0  0  0  0  0  0
    2.3466   -3.4684    0.0944 H   0  0  0  0  0  0  0  0  0  0  0  0
    2.1548   -5.4788   -1.4914 H   0  0  0  0  0  0  0  0  0  0  0  0
    1.6173   -4.3652   -2.7879 H   0  0  0  0  0  0  0  0  0  0  0  0
    0.6007   -4.5847   -1.3143 H   0  0  0  0  0  0  0  0  0  0  0  0
    3.6708   -5.5492    0.0791 H   0  0  0  0  0  0  0  0  0  0  0  0
    2.6437   -5.2380    1.5394 H   0  0  0  0  0  0  0  0  0  0  0  0
    4.2692   -6.5207    2.9210 H   0  0  0  0  0  0  0  0  0  0  0  0
    5.3673   -6.7027    1.4897 H   0  0  0  0  0  0  0  0  0  0  0  0
    3.7460   -7.5032    1.5035 H   0  0  0  0  0  0  0  0  0  0  0  0
    0.7785    0.5987    6.3540 H   0  0  0  0  0  0  0  0  0  0  0  0
    0.8356    3.0279    6.3191 H   0  0  0  0  0  0  0  0  0  0  0  0
    2.2149    5.1405    9.0857 H   0  0  0  0  0  0  0  0  0  0  0  0
    1.1414    5.1354    7.6422 H   0  0  0  0  0  0  0  0  0  0  0  0
    2.9336    5.0192    7.4288 H   0  0  0  0  0  0  0  0  0  0  0  0
    3.2374    3.0526    9.8885 H   0  0  0  0  0  0  0  0  0  0  0  0
    3.2590    0.6204    9.9043 H   0  0  0  0  0  0  0  0  0  0  0  0
    3.5661   -3.2393    8.2406 H   0  0  0  0  0  0  0  0  0  0  0  0
    4.2400   -4.5381   10.1929 H   0  0  0  0  0  0  0  0  0  0  0  0
    4.0962   -5.0458   12.5256 H   0  0  0  0  0  0  0  0  0  0  0  0
    2.6677   -4.4062   13.4105 H   0  0  0  0  0  0  0  0  0  0  0  0
    4.2320   -3.4990   13.4417 H   0  0  0  0  0  0  0  0  0  0  0  0
    1.9080   -1.9514   12.7332 H   0  0  0  0  0  0  0  0  0  0  0  0
    1.1888   -0.6744   10.7611 H   0  0  0  0  0  0  0  0  0  0  0  0
   -5.6462   -4.3872    5.2123 H   0  0  0  0  0  0  0  0  0  0  0  0
   -7.0049   -3.5950    3.3298 H   0  0  0  0  0  0  0  0  0  0  0  0
   -6.3411   -0.4716    1.4548 H   0  0  0  0  0  0  0  0  0  0  0  0
   -6.0531   -2.0727    0.6585 H   0  0  0  0  0  0  0  0  0  0  0  0
   -7.5026   -1.8236    1.7119 H   0  0  0  0  0  0  0  0  0  0  0  0
   -4.0194   -0.6192    2.4238 H   0  0  0  0  0  0  0  0  0  0  0  0
   -2.6568   -1.4058    4.3036 H   0  0  0  0  0  0  0  0  0  0  0  0
   -2.9424   -4.4908    8.4944 H   0  0  0  0  0  0  0  0  0  0  0  0
   -2.5266   -6.8318    9.0379 H   0  0  0  0  0  0  0  0  0  0  0  0
   -3.2660   -9.5164    7.3612 H   0  0  0  0  0  0  0  0  0  0  0  0
   -1.8104   -9.0300    8.3148 H   0  0  0  0  0  0  0  0  0  0  0  0
   -1.6427   -9.3987    6.5647 H   0  0  0  0  0  0  0  0  0  0  0  0
   -2.7542   -7.8581    4.8587 H   0  0  0  0  0  0  0  0  0  0  0  0
   -3.1790   -5.5052    4.3016 H   0  0  0  0  0  0  0  0  0  0  0  0
   -3.8965    0.4755    7.3058 H   0  0  0  0  0  0  0  0  0  0  0  0
   -7.6481   -4.5179    7.8926 H   0  0  0  0  0  0  0  0  0  0  0  0
  -10.0233   -4.3387    7.1858 H   0  0  0  0  0  0  0  0  0  0  0  0
   -9.3919   -0.2910    5.9299 H   0  0  0  0  0  0  0  0  0  0  0  0
  1  2  2  3
  2  3  1  0
  3  4  2  0
  3  5  1  0
  5  6  2  0
  6  7  1  0
  7  8  2  0
  8  9  1  0
  8 10  1  0
 10 11  2  0
 11 12  1  0
 12 13  2  3
 13 14  1  0
 14 15  3  0
 13 16  1  0
 16 17  3  0
  1 18  1  0
 18 19  2  0
 19 20  1  0
 20 21  1  0
 21 22  2  0
 22 23  1  0
 23 24  2  0
 24 25  1  0
 24 26  1  0
 26 27  2  0
 20 28  1  0
 28 29  2  0
 29 30  1  0
 30 31  2  0
 31 32  1  0
 31 33  1  0
 33 34  2  0
 19 35  1  0
 35 36  1  0
 36 37  1  0
 37 38  2  0
 38 39  1  0
 39 40  1  0
 40 41  2  0
 41 42  1  0
 42 43  2  0
 43 44  1  0
 43 45  1  0
 45 46  2  0
 39 47  1  0
 47 48  2  0
 48 49  1  0
 49 50  2  0
 50 51  1  0
 50 52  1  0
 52 53  2  0
 38 54  1  0
 54 55  1  0
 37 56  1  0
 56 57  2  0
 57 58  1  0
 58 59  2  0
 59 60  1  0
 60 61  2  0
 61 62  1  0
 62 63  1  0
 63 64  1  0
 62 65  2  0
 57 66  1  0
 66 67  1  0
 67 68  1  0
 68 69  1  0
 69 70  1  0
 70 71  1  0
 71 72  2  0
 72 73  1  0
 73 74  1  0
 71 75  1  0
 75 76  1  0
 76 77  1  0
 77 78  1  0
 78 79  1  0
 79 80  1  0
 80 81  2  0
 81 82  1  0
 82 83  2  0
 83 84  1  0
 84 85  1  0
 85 86  1  0
 84 87  2  0
 79 88  2  0
 88 89  1  0
 89 90  1  0
 90 91  1  0
 91 92  1  0
 92 93  1  0
 93 94  1  0
 94 95  1  0
 95 96  1  0
 96 97  1  0
 97 98  1  0
 95 99  1  0
 99100  1  0
 92101  1  0
101102  1  0
 88103  1  0
103104  2  0
104105  1  0
105106  1  0
106107  2  0
107108  1  0
108109  2  0
109110  1  0
109111  1  0
111112  2  0
105113  1  0
113114  2  0
114115  1  0
115116  2  0
116117  1  0
116118  1  0
118119  2  0
104120  1  0
120121  1  0
121122  1  0
122123  2  0
123124  1  0
124125  1  0
125126  2  0
126127  1  0
127128  2  0
128129  1  0
128130  1  0
130131  2  0
124132  1  0
132133  2  0
133134  1  0
134135  2  0
135136  1  0
135137  1  0
137138  2  0
123139  1  0
139140  1  0
122141  1  0
141142  2  3
142143  1  0
143144  2  0
143145  1  0
145146  2  0
146147  1  0
147148  2  0
148149  1  0
148150  1  0
150151  2  0
151152  1  0
152153  2  3
153154  1  0
154155  3  0
153156  1  0
156157  3  0
 12  2  1  0
 55 18  1  0
 98 56  1  0
140103  1  0
152142  1  0
 11  5  1  0
 27 21  1  0
 34 28  1  0
 54 35  2  0
 65 58  1  0
 97 66  2  0
112106  1  0
119113  1  0
139120  2  0
151145  1  0
 46 40  1  0
 53 47  1  0
 96 68  2  0
131125  1  0
138132  1  0
 94 69  2  0
 74 70  2  0
 93 75  2  0
 91 76  2  0
 90 78  2  0
 87 80  1  0
  1158  1  0
  6159  1  0
  7160  1  0
 10161  1  0
 22162  1  0
 23163  1  0
 25164  1  0
 25165  1  0
 25166  1  0
 26167  1  0
 27168  1  0
 29169  1  0
 30170  1  0
 32171  1  0
 32172  1  0
 32173  1  0
 33174  1  0
 34175  1  0
 41176  1  0
 42177  1  0
 44178  1  0
 44179  1  0
 44180  1  0
 45181  1  0
 46182  1  0
 48183  1  0
 49184  1  0
 51185  1  0
 51186  1  0
 51187  1  0
 52188  1  0
 53189  1  0
 59190  1  0
 60191  1  0
 61192  1  0
 63193  1  0
 63194  1  0
 64195  1  0
 64196  1  0
 64197  1  0
 65198  1  0
 81199  1  0
 82200  1  0
 83201  1  0
 85202  1  0
 85203  1  0
 86204  1  0
 86205  1  0
 86206  1  0
 87207  1  0
 99208  1  0
 99209  1  0
100210  1  0
100211  1  0
100212  1  0
101213  1  0
101214  1  0
102215  1  0
102216  1  0
102217  1  0
107218  1  0
108219  1  0
110220  1  0
110221  1  0
110222  1  0
111223  1  0
112224  1  0
114225  1  0
115226  1  0
117227  1  0
117228  1  0
117229  1  0
118230  1  0
119231  1  0
126232  1  0
127233  1  0
129234  1  0
129235  1  0
129236  1  0
130237  1  0
131238  1  0
133239  1  0
134240  1  0
136241  1  0
136242  1  0
136243  1  0
137244  1  0
138245  1  0
141246  1  0
146247  1  0
147248  1  0
150249  1  0
M  END

