
     RDKit          3D

197217  0  0  0  0  0  0  0  0999 V2000
   -4.7279   -5.2890   -3.8645 C   0  0  0  0  0  0  0  0  0  0  0  0
   -5.8715   -4.9906   -4.5054 C   0  0  0  0  0  0  0  0  0  0  0  0
   -6.7737   -5.9983   -5.0590 C   0  0  0  0  0  0  0  0  0  0  0  0
   -6.8407   -7.2025   -4.7137 O   0  0  0  0  0  0  0  0  0  0  0  0
   -7.5876   -5.3621   -6.0826 C   0  0  0  0  0  0  0  0  0  0  0  0
   -8.5529   -5.9378   -6.9036 C   0  0  0  0  0  0  0  0  0  0  0  0
   -9.2015   -5.1222   -7.8415 C   0  0  0  0  0  0  0  0  0  0  0  0
   -8.8761   -3.7616   -7.9493 C   0  0  0  0  0  0  0  0  0  0  0  0
   -9.6929   -2.7630   -9.1362 Cl  0  0  0  0  0  0  0  0  0  0  0  0
   -7.9108   -3.1958   -7.0997 C   0  0  0  0  0  0  0  0  0  0  0  0
   -7.2667   -4.0191   -6.1624 C   0  0  0  0  0  0  0  0  0  0  0  0
   -6.2750   -3.6856   -5.0996 C   0  0  0  0  0  0  0  0  0  0  0  0
   -6.1354   -2.4747   -4.5238 C   0  0  0  0  0  0  0  0  0  0  0  0
   -6.0174   -2.3600   -3.0939 C   0  0  0  0  0  0  0  0  0  0  0  0
   -5.9870   -2.2515   -1.9366 N   0  0  0  0  0  0  0  0  0  0  0  0
   -6.2876   -1.2606   -5.2700 C   0  0  0  0  0  0  0  0  0  0  0  0
   -6.3709   -0.2726   -5.8785 N   0  0  0  0  0  0  0  0  0  0  0  0
   -3.6421   -4.3205   -3.6167 C   0  0  0  0  0  0  0  0  0  0  0  0
   -3.1473   -3.3354   -4.5119 C   0  0  0  0  0  0  0  0  0  0  0  0
   -3.1400   -3.4176   -5.9656 N   0  0  0  0  0  0  0  0  0  0  0  0
   -3.5857   -4.5855   -6.6774 C   0  0  0  0  0  0  0  0  0  0  0  0
   -3.0729   -5.8599   -6.3706 C   0  0  0  0  0  0  0  0  0  0  0  0
   -3.5607   -6.9906   -7.0270 C   0  0  0  0  0  0  0  0  0  0  0  0
   -4.5381   -6.8617   -8.0282 C   0  0  0  0  0  0  0  0  0  0  0  0
   -5.1187   -8.0854   -8.6790 C   0  0  0  0  0  0  0  0  0  0  0  0
   -5.0103   -5.5888   -8.3697 C   0  0  0  0  0  0  0  0  0  0  0  0
   -4.5247   -4.4572   -7.7145 C   0  0  0  0  0  0  0  0  0  0  0  0
   -2.3204   -2.5057   -6.7170 C   0  0  0  0  0  0  0  0  0  0  0  0
   -0.9256   -2.6395   -6.6945 C   0  0  0  0  0  0  0  0  0  0  0  0
   -0.1226   -1.7504   -7.4069 C   0  0  0  0  0  0  0  0  0  0  0  0
   -0.7049   -0.7131   -8.1497 C   0  0  0  0  0  0  0  0  0  0  0  0
    0.1610    0.2093   -8.9496 C   0  0  0  0  0  0  0  0  0  0  0  0
   -2.1042   -0.5926   -8.1895 C   0  0  0  0  0  0  0  0  0  0  0  0
   -2.9072   -1.4771   -7.4621 C   0  0  0  0  0  0  0  0  0  0  0  0
   -2.5623   -2.2863   -3.7806 C   0  0  0  0  0  0  0  0  0  0  0  0
   -2.1589   -0.6852   -4.1110 S   0  0  0  0  0  0  0  0  0  0  0  0
   -1.7668   -0.3007   -2.4992 C   0  0  0  0  0  0  0  0  0  0  0  0
   -1.9334   -1.4371   -1.6957 C   0  0  0  0  0  0  0  0  0  0  0  0
   -1.2118   -1.6393   -0.4732 N   0  0  0  0  0  0  0  0  0  0  0  0
    0.0099   -2.4119   -0.5297 C   0  0  0  0  0  0  0  0  0  0  0  0
    0.9074   -2.2474   -1.6046 C   0  0  0  0  0  0  0  0  0  0  0  0
    2.0100   -3.0922   -1.7477 C   0  0  0  0  0  0  0  0  0  0  0  0
    2.2306   -4.1249   -0.8229 C   0  0  0  0  0  0  0  0  0  0  0  0
    3.3739   -5.0809   -1.0130 C   0  0  0  0  0  0  0  0  0  0  0  0
    1.3803   -4.2541    0.2820 C   0  0  0  0  0  0  0  0  0  0  0  0
    0.2739   -3.4096    0.4297 C   0  0  0  0  0  0  0  0  0  0  0  0
   -1.7870   -1.2532    0.7864 C   0  0  0  0  0  0  0  0  0  0  0  0
   -1.0031   -0.5803    1.7402 C   0  0  0  0  0  0  0  0  0  0  0  0
   -1.5395   -0.2623    2.9899 C   0  0  0  0  0  0  0  0  0  0  0  0
   -2.8526   -0.6297    3.3127 C   0  0  0  0  0  0  0  0  0  0  0  0
   -3.4275   -0.2662    4.6515 C   0  0  0  0  0  0  0  0  0  0  0  0
   -3.6372   -1.2872    2.3555 C   0  0  0  0  0  0  0  0  0  0  0  0
   -3.1099   -1.5964    1.0974 C   0  0  0  0  0  0  0  0  0  0  0  0
   -2.4188   -2.5059   -2.4491 C   0  0  0  0  0  0  0  0  0  0  0  0
   -3.1141   -3.9706   -2.0340 S   0  0  0  0  0  0  0  0  0  0  0  0
   -1.5072    1.0589   -2.0065 C   0  0  0  0  0  0  0  0  0  0  0  0
   -2.4592    1.8896   -1.3782 C   0  0  0  0  0  0  0  0  0  0  0  0
   -3.8646    1.5244   -1.1251 C   0  0  0  0  0  0  0  0  0  0  0  0
   -4.2736    1.2876    0.1979 C   0  0  0  0  0  0  0  0  0  0  0  0
   -5.5802    0.8880    0.4729 C   0  0  0  0  0  0  0  0  0  0  0  0
   -6.4948    0.7275   -0.5685 C   0  0  0  0  0  0  0  0  0  0  0  0
   -6.1175    1.0000   -1.8832 C   0  0  0  0  0  0  0  0  0  0  0  0
   -4.8106    1.4258   -2.1777 C   0  0  0  0  0  0  0  0  0  0  0  0
   -4.4816    1.8178   -3.6000 C   0  0  0  0  0  0  0  0  0  0  0  0
   -5.2027    3.1014   -4.0066 C   0  0  0  0  0  0  0  0  0  0  0  0
   -1.8713    3.0629   -0.9124 C   0  0  0  0  0  0  0  0  0  0  0  0
   -2.3857    4.2468    0.2025 S   0  0  0  0  0  0  0  0  0  0  0  0
   -0.8112    4.8945    0.2911 C   0  0  0  0  0  0  0  0  0  0  0  0
   -0.0714    5.4946    1.2816 C   0  0  0  0  0  0  0  0  0  0  0  0
   -0.4289    6.2574    2.3976 C   0  0  0  0  0  0  0  0  0  0  0  0
    0.5907    6.6237    3.3330 C   0  0  0  0  0  0  0  0  0  0  0  0
    0.1965    7.3397    4.4158 N   0  0  0  0  0  0  0  0  0  0  0  0
   -1.4215    7.4917    4.0796 S   0  0  0  0  0  0  0  0  0  0  0  0
   -1.6911    6.6782    2.6636 N   0  0  0  0  0  0  0  0  0  0  0  0
    1.8994    6.1424    3.1387 C   0  0  0  0  0  0  0  0  0  0  0  0
    2.9215    5.9976    4.0438 C   0  0  0  0  0  0  0  0  0  0  0  0
    3.0390    6.1916    5.7331 S   0  0  0  0  0  0  0  0  0  0  0  0
    4.2037    4.9554    5.8447 C   0  0  0  0  0  0  0  0  0  0  0  0
    4.7207    4.2426    6.9320 C   0  0  0  0  0  0  0  0  0  0  0  0
    4.5220    4.6536    8.3355 C   0  0  0  0  0  0  0  0  0  0  0  0
    3.4920    4.1164    9.1454 C   0  0  0  0  0  0  0  0  0  0  0  0
    2.6067    2.9781    8.6862 C   0  0  0  0  0  0  0  0  0  0  0  0
    1.5095    3.4424    7.7330 C   0  0  0  0  0  0  0  0  0  0  0  0
    3.2801    4.6512   10.4279 C   0  0  0  0  0  0  0  0  0  0  0  0
    4.0932    5.6767   10.9130 C   0  0  0  0  0  0  0  0  0  0  0  0
    5.1227    6.1884   10.1238 C   0  0  0  0  0  0  0  0  0  0  0  0
    5.3334    5.6856    8.8367 C   0  0  0  0  0  0  0  0  0  0  0  0
    5.3859    3.0816    6.4947 C   0  0  0  0  0  0  0  0  0  0  0  0
    5.3138    2.9881    4.8045 S   0  0  0  0  0  0  0  0  0  0  0  0
    4.4346    4.3949    4.6183 C   0  0  0  0  0  0  0  0  0  0  0  0
    3.7193    4.9856    3.5827 C   0  0  0  0  0  0  0  0  0  0  0  0
    3.2904    4.4808    2.3927 N   0  0  0  0  0  0  0  0  0  0  0  0
    2.2113    5.2743    2.0796 C   0  0  0  0  0  0  0  0  0  0  0  0
    1.2446    5.0655    1.0693 C   0  0  0  0  0  0  0  0  0  0  0  0
    1.3421    4.3329   -0.0693 N   0  0  0  0  0  0  0  0  0  0  0  0
    0.0675    4.2061   -0.4907 C   0  0  0  0  0  0  0  0  0  0  0  0
   -0.5315    3.1707   -1.1771 C   0  0  0  0  0  0  0  0  0  0  0  0
    0.0296    1.7793   -1.9462 S   0  0  0  0  0  0  0  0  0  0  0  0
    2.5246    4.1690   -0.9201 C   0  0  0  0  0  0  0  0  0  0  0  0
    2.4524    5.0934   -2.1345 C   0  0  0  0  0  0  0  0  0  0  0  0
    3.4569    3.0676    2.0048 C   0  0  0  0  0  0  0  0  0  0  0  0
    4.8314    2.7970    1.3924 C   0  0  0  0  0  0  0  0  0  0  0  0
    6.0330    2.0456    7.2971 C   0  0  0  0  0  0  0  0  0  0  0  0
    7.6089    2.2112    7.9096 S   0  0  0  0  0  0  0  0  0  0  0  0
    8.0166    0.5672    7.9879 C   0  0  0  0  0  0  0  0  0  0  0  0
    6.9066   -0.1102    7.5295 C   0  0  0  0  0  0  0  0  0  0  0  0
    6.6813   -1.7062    7.0901 S   0  0  0  0  0  0  0  0  0  0  0  0
    5.1613   -1.4361    6.3852 C   0  0  0  0  0  0  0  0  0  0  0  0
    4.4128   -2.4869    5.6781 C   0  0  0  0  0  0  0  0  0  0  0  0
    3.2369   -2.2805    5.2696 O   0  0  0  0  0  0  0  0  0  0  0  0
    5.0410   -3.7115    5.4333 O   0  0  0  0  0  0  0  0  0  0  0  0
    4.4614   -4.7306    4.6301 C   0  0  0  0  0  0  0  0  0  0  0  0
    5.4523   -5.8694    4.4741 C   0  0  0  0  0  0  0  0  0  0  0  0
    4.8174   -0.0740    6.4973 C   0  0  0  0  0  0  0  0  0  0  0  0
    5.8343    0.6656    7.1289 C   0  0  0  0  0  0  0  0  0  0  0  0
    3.3026    0.5988    5.9034 Cl  0  0  0  0  0  0  0  0  0  0  0  0
    9.3367   -0.0438    8.2305 C   0  0  0  0  0  0  0  0  0  0  0  0
   10.4587    0.3298    7.5909 C   0  0  0  0  0  0  0  0  0  0  0  0
   10.5391    1.6191    6.3351 S   0  0  0  0  0  0  0  0  0  0  0  0
   12.2047    1.0693    5.9508 C   0  0  0  0  0  0  0  0  0  0  0  0
   13.1617    1.9191    4.9284 S   0  0  0  0  0  0  0  0  0  0  0  0
   12.6899   -0.0353    6.7213 N   0  0  0  0  0  0  0  0  0  0  0  0
   13.9010   -0.8097    6.3976 C   0  0  0  0  0  0  0  0  0  0  0  0
   13.6169   -1.7856    5.2536 C   0  0  0  0  0  0  0  0  0  0  0  0
   11.6962   -0.4517    7.6419 C   0  0  0  0  0  0  0  0  0  0  0  0
   11.8732   -1.4247    8.4255 O   0  0  0  0  0  0  0  0  0  0  0  0
   -4.5723   -6.2970   -3.5072 H   0  0  0  0  0  0  0  0  0  0  0  0
   -8.8009   -6.9882   -6.8175 H   0  0  0  0  0  0  0  0  0  0  0  0
   -9.9603   -5.5509   -8.4851 H   0  0  0  0  0  0  0  0  0  0  0  0
   -7.6725   -2.1529   -7.1996 H   0  0  0  0  0  0  0  0  0  0  0  0
   -2.3170   -5.9670   -5.6015 H   0  0  0  0  0  0  0  0  0  0  0  0
   -3.1940   -7.9672   -6.7465 H   0  0  0  0  0  0  0  0  0  0  0  0
   -5.9215   -8.4967   -8.0310 H   0  0  0  0  0  0  0  0  0  0  0  0
   -5.5486   -7.8333   -9.6741 H   0  0  0  0  0  0  0  0  0  0  0  0
   -4.3315   -8.8515   -8.8298 H   0  0  0  0  0  0  0  0  0  0  0  0
   -5.7743   -5.4687   -9.1288 H   0  0  0  0  0  0  0  0  0  0  0  0
   -4.9177   -3.4835   -7.9801 H   0  0  0  0  0  0  0  0  0  0  0  0
   -0.4686   -3.4420   -6.1274 H   0  0  0  0  0  0  0  0  0  0  0  0
    0.9569   -1.8692   -7.3815 H   0  0  0  0  0  0  0  0  0  0  0  0
    1.0402    0.5196   -8.3434 H   0  0  0  0  0  0  0  0  0  0  0  0
   -0.3957    1.1280   -9.2430 H   0  0  0  0  0  0  0  0  0  0  0  0
    0.5139   -0.3076   -9.8669 H   0  0  0  0  0  0  0  0  0  0  0  0
   -2.5746    0.1914   -8.7758 H   0  0  0  0  0  0  0  0  0  0  0  0
   -3.9845   -1.3565   -7.4814 H   0  0  0  0  0  0  0  0  0  0  0  0
    0.7460   -1.4782   -2.3436 H   0  0  0  0  0  0  0  0  0  0  0  0
    2.6691   -2.9591   -2.5972 H   0  0  0  0  0  0  0  0  0  0  0  0
    4.1739   -4.8511   -0.2790 H   0  0  0  0  0  0  0  0  0  0  0  0
    3.8014   -5.0062   -2.0371 H   0  0  0  0  0  0  0  0  0  0  0  0
    3.0242   -6.1225   -0.8626 H   0  0  0  0  0  0  0  0  0  0  0  0
    1.5494   -5.0388    1.0089 H   0  0  0  0  0  0  0  0  0  0  0  0
   -0.3956   -3.5604    1.2662 H   0  0  0  0  0  0  0  0  0  0  0  0
    0.0184   -0.3046    1.5089 H   0  0  0  0  0  0  0  0  0  0  0  0
   -0.9261    0.2700    3.7084 H   0  0  0  0  0  0  0  0  0  0  0  0
   -4.2674   -0.9469    4.9187 H   0  0  0  0  0  0  0  0  0  0  0  0
   -2.6495   -0.3520    5.4421 H   0  0  0  0  0  0  0  0  0  0  0  0
   -3.8056    0.7796    4.6221 H   0  0  0  0  0  0  0  0  0  0  0  0
   -4.6629   -1.5626    2.5821 H   0  0  0  0  0  0  0  0  0  0  0  0
   -3.7275   -2.1177    0.3769 H   0  0  0  0  0  0  0  0  0  0  0  0
   -3.5659    1.3971    1.0103 H   0  0  0  0  0  0  0  0  0  0  0  0
   -5.8748    0.6800    1.4999 H   0  0  0  0  0  0  0  0  0  0  0  0
   -7.5014    0.4003   -0.3481 H   0  0  0  0  0  0  0  0  0  0  0  0
   -6.8419    0.8799   -2.6725 H   0  0  0  0  0  0  0  0  0  0  0  0
   -4.7818    0.9982   -4.2811 H   0  0  0  0  0  0  0  0  0  0  0  0
   -3.3969    1.9710   -3.7579 H   0  0  0  0  0  0  0  0  0  0  0  0
   -6.3038    2.9332   -4.0012 H   0  0  0  0  0  0  0  0  0  0  0  0
   -4.8937    3.3850   -5.0293 H   0  0  0  0  0  0  0  0  0  0  0  0
   -4.9527    3.9279   -3.3022 H   0  0  0  0  0  0  0  0  0  0  0  0
    3.2243    2.2020    8.1961 H   0  0  0  0  0  0  0  0  0  0  0  0
    2.1293    2.4838    9.5598 H   0  0  0  0  0  0  0  0  0  0  0  0
    1.9389    3.7505    6.7599 H   0  0  0  0  0  0  0  0  0  0  0  0
    0.8093    2.6068    7.5387 H   0  0  0  0  0  0  0  0  0  0  0  0
    0.9427    4.2946    8.1686 H   0  0  0  0  0  0  0  0  0  0  0  0
    2.4826    4.2806   11.0598 H   0  0  0  0  0  0  0  0  0  0  0  0
    3.9211    6.0836   11.9048 H   0  0  0  0  0  0  0  0  0  0  0  0
    5.7536    6.9785   10.5018 H   0  0  0  0  0  0  0  0  0  0  0  0
    6.1235    6.1046    8.2283 H   0  0  0  0  0  0  0  0  0  0  0  0
    3.4290    4.4541   -0.3631 H   0  0  0  0  0  0  0  0  0  0  0  0
    2.6079    3.1142   -1.2525 H   0  0  0  0  0  0  0  0  0  0  0  0
    3.3361    4.9193   -2.7852 H   0  0  0  0  0  0  0  0  0  0  0  0
    2.4691    6.1521   -1.8057 H   0  0  0  0  0  0  0  0  0  0  0  0
    1.5360    4.9039   -2.7275 H   0  0  0  0  0  0  0  0  0  0  0  0
    3.3037    2.4122    2.8891 H   0  0  0  0  0  0  0  0  0  0  0  0
    2.6753    2.7465    1.2920 H   0  0  0  0  0  0  0  0  0  0  0  0
    4.8169    1.8073    0.8878 H   0  0  0  0  0  0  0  0  0  0  0  0
    5.6219    2.7694    2.1572 H   0  0  0  0  0  0  0  0  0  0  0  0
    5.1159    3.5667    0.6515 H   0  0  0  0  0  0  0  0  0  0  0  0
    4.2108   -4.3234    3.6257 H   0  0  0  0  0  0  0  0  0  0  0  0
    3.5341   -5.1064    5.1168 H   0  0  0  0  0  0  0  0  0  0  0  0
    6.3810   -5.4942    3.9913 H   0  0  0  0  0  0  0  0  0  0  0  0
    5.0180   -6.6696    3.8357 H   0  0  0  0  0  0  0  0  0  0  0  0
    5.7030   -6.2959    5.4676 H   0  0  0  0  0  0  0  0  0  0  0  0
    9.3509   -0.9441    8.8336 H   0  0  0  0  0  0  0  0  0  0  0  0
   14.2381   -1.3815    7.2891 H   0  0  0  0  0  0  0  0  0  0  0  0
   14.7242   -0.1268    6.1070 H   0  0  0  0  0  0  0  0  0  0  0  0
   13.3135   -1.2317    4.3454 H   0  0  0  0  0  0  0  0  0  0  0  0
   12.8248   -2.5016    5.5443 H   0  0  0  0  0  0  0  0  0  0  0  0
   14.5452   -2.3516    5.0123 H   0  0  0  0  0  0  0  0  0  0  0  0
  1  2  2  3
  2  3  1  0
  3  4  2  0
  3  5  1  0
  5  6  2  0
  6  7  1  0
  7  8  2  0
  8  9  1  0
  8 10  1  0
 10 11  2  0
 11 12  1  0
 12 13  2  3
 13 14  1  0
 14 15  3  0
 13 16  1  0
 16 17  3  0
  1 18  1  0
 18 19  2  0
 19 20  1  0
 20 21  1  0
 21 22  2  0
 22 23  1  0
 23 24  2  0
 24 25  1  0
 24 26  1  0
 26 27  2  0
 20 28  1  0
 28 29  2  0
 29 30  1  0
 30 31  2  0
 31 32  1  0
 31 33  1  0
 33 34  2  0
 19 35  1  0
 35 36  1  0
 36 37  1  0
 37 38  2  0
 38 39  1  0
 39 40  1  0
 40 41  2  0
 41 42  1  0
 42 43  2  0
 43 44  1  0
 43 45  1  0
 45 46  2  0
 39 47  1  0
 47 48  2  0
 48 49  1  0
 49 50  2  0
 50 51  1  0
 50 52  1  0
 52 53  2  0
 38 54  1  0
 54 55  1  0
 37 56  1  0
 56 57  2  0
 57 58  1  0
 58 59  2  0
 59 60  1  0
 60 61  2  0
 61 62  1  0
 62 63  2  0
 63 64  1  0
 64 65  1  0
 57 66  1  0
 66 67  1  0
 67 68  1  0
 68 69  1  0
 69 70  1  0
 70 71  1  0
 71 72  2  0
 72 73  1  0
 73 74  1  0
 71 75  1  0
 75 76  1  0
 76 77  1  0
 77 78  1  0
 78 79  1  0
 79 80  1  0
 80 81  2  0
 81 82  1  0
 82 83  1  0
 81 84  1  0
 84 85  2  0
 85 86  1  0
 86 87  2  0
 79 88  2  0
 88 89  1  0
 89 90  1  0
 90 91  1  0
 91 92  1  0
 92 93  1  0
 93 94  1  0
 94 95  1  0
 95 96  1  0
 96 97  1  0
 97 98  1  0
 95 99  1  0
 99100  1  0
 92101  1  0
101102  1  0
 88103  1  0
103104  1  0
104105  1  0
105106  2  0
106107  1  0
107108  1  0
108109  1  0
109110  2  0
109111  1  0
111112  1  0
112113  1  0
108114  2  0
114115  1  0
114116  1  0
105117  1  0
117118  2  3
118119  1  0
119120  1  0
120121  2  0
120122  1  0
122123  1  0
123124  1  0
122125  1  0
125126  2  0
 12  2  1  0
 55 18  1  0
 98 56  1  0
115103  2  0
125118  1  0
 11  5  1  0
 27 21  1  0
 34 28  1  0
 54 35  2  0
 63 58  1  0
 97 66  2  0
115106  1  0
 46 40  1  0
 53 47  1  0
 96 68  2  0
 94 69  2  0
 74 70  2  0
 93 75  2  0
 91 76  2  0
 90 78  2  0
 87 80  1  0
  1127  1  0
  6128  1  0
  7129  1  0
 10130  1  0
 22131  1  0
 23132  1  0
 25133  1  0
 25134  1  0
 25135  1  0
 26136  1  0
 27137  1  0
 29138  1  0
 30139  1  0
 32140  1  0
 32141  1  0
 32142  1  0
 33143  1  0
 34144  1  0
 41145  1  0
 42146  1  0
 44147  1  0
 44148  1  0
 44149  1  0
 45150  1  0
 46151  1  0
 48152  1  0
 49153  1  0
 51154  1  0
 51155  1  0
 51156  1  0
 52157  1  0
 53158  1  0
 59159  1  0
 60160  1  0
 61161  1  0
 62162  1  0
 64163  1  0
 64164  1  0
 65165  1  0
 65166  1  0
 65167  1  0
 82168  1  0
 82169  1  0
 83170  1  0
 83171  1  0
 83172  1  0
 84173  1  0
 85174  1  0
 86175  1  0
 87176  1  0
 99177  1  0
 99178  1  0
100179  1  0
100180  1  0
100181  1  0
101182  1  0
101183  1  0
102184  1  0
102185  1  0
102186  1  0
112187  1  0
112188  1  0
113189  1  0
113190  1  0
113191  1  0
117192  1  0
123193  1  0
123194  1  0
124195  1  0
124196  1  0
124197  1  0
M  END

