
     RDKit          3D

225249  0  0  0  0  0  0  0  0999 V2000
   -5.7029   -0.7047    5.0482 C   0  0  0  0  0  0  0  0  0  0  0  0
   -5.3235   -1.9535    4.7260 C   0  0  0  0  0  0  0  0  0  0  0  0
   -4.1359   -2.3019    3.9314 C   0  0  0  0  0  0  0  0  0  0  0  0
   -3.3962   -1.4988    3.2994 O   0  0  0  0  0  0  0  0  0  0  0  0
   -3.8674   -3.7105    4.1228 C   0  0  0  0  0  0  0  0  0  0  0  0
   -2.7571   -4.4408    3.6941 C   0  0  0  0  0  0  0  0  0  0  0  0
   -2.6125   -5.7592    4.1418 C   0  0  0  0  0  0  0  0  0  0  0  0
   -3.5657   -6.3172    5.0173 C   0  0  0  0  0  0  0  0  0  0  0  0
   -3.3464   -7.9561    5.6013 Cl  0  0  0  0  0  0  0  0  0  0  0  0
   -4.6739   -5.5620    5.4413 C   0  0  0  0  0  0  0  0  0  0  0  0
   -4.8259   -4.2538    4.9637 C   0  0  0  0  0  0  0  0  0  0  0  0
   -5.8508   -3.2296    5.2954 C   0  0  0  0  0  0  0  0  0  0  0  0
   -7.1308   -3.4597    5.6843 C   0  0  0  0  0  0  0  0  0  0  0  0
   -8.1339   -2.4286    5.6532 C   0  0  0  0  0  0  0  0  0  0  0  0
   -8.9460   -1.6023    5.6290 N   0  0  0  0  0  0  0  0  0  0  0  0
   -7.6251   -4.7828    5.9581 C   0  0  0  0  0  0  0  0  0  0  0  0
   -8.0368   -5.8452    6.1626 N   0  0  0  0  0  0  0  0  0  0  0  0
   -5.3231    0.4500    4.2263 C   0  0  0  0  0  0  0  0  0  0  0  0
   -4.6105    1.5847    4.6369 C   0  0  0  0  0  0  0  0  0  0  0  0
   -3.9710    1.7239    5.9123 N   0  0  0  0  0  0  0  0  0  0  0  0
   -4.5505    2.6309    6.8667 C   0  0  0  0  0  0  0  0  0  0  0  0
   -3.7581    3.6150    7.4850 C   0  0  0  0  0  0  0  0  0  0  0  0
   -4.3317    4.5205    8.3804 C   0  0  0  0  0  0  0  0  0  0  0  0
   -5.7022    4.4525    8.6733 C   0  0  0  0  0  0  0  0  0  0  0  0
   -6.3333    5.4678    9.5792 C   0  0  0  0  0  0  0  0  0  0  0  0
   -6.4953    3.4819    8.0504 C   0  0  0  0  0  0  0  0  0  0  0  0
   -5.9227    2.5730    7.1555 C   0  0  0  0  0  0  0  0  0  0  0  0
   -2.7127    1.0606    6.1697 C   0  0  0  0  0  0  0  0  0  0  0  0
   -2.3834    0.6423    7.4715 C   0  0  0  0  0  0  0  0  0  0  0  0
   -1.1486    0.0427    7.7356 C   0  0  0  0  0  0  0  0  0  0  0  0
   -0.2315   -0.1696    6.6966 C   0  0  0  0  0  0  0  0  0  0  0  0
    1.1227   -0.7383    6.9954 C   0  0  0  0  0  0  0  0  0  0  0  0
   -0.5532    0.2450    5.3983 C   0  0  0  0  0  0  0  0  0  0  0  0
   -1.7863    0.8468    5.1320 C   0  0  0  0  0  0  0  0  0  0  0  0
   -4.4652    2.4928    3.5884 C   0  0  0  0  0  0  0  0  0  0  0  0
   -3.5419    3.8743    3.3312 S   0  0  0  0  0  0  0  0  0  0  0  0
   -3.9148    3.9775    1.6632 C   0  0  0  0  0  0  0  0  0  0  0  0
   -4.7282    2.8870    1.3129 C   0  0  0  0  0  0  0  0  0  0  0  0
   -4.9895    2.4522   -0.0304 N   0  0  0  0  0  0  0  0  0  0  0  0
   -6.3569    2.3812   -0.5194 C   0  0  0  0  0  0  0  0  0  0  0  0
   -6.6672    1.7223   -1.7238 C   0  0  0  0  0  0  0  0  0  0  0  0
   -7.9792    1.7120   -2.2108 C   0  0  0  0  0  0  0  0  0  0  0  0
   -8.9974    2.3690   -1.5117 C   0  0  0  0  0  0  0  0  0  0  0  0
  -10.3949    2.3907   -2.0515 C   0  0  0  0  0  0  0  0  0  0  0  0
   -8.7118    2.9696   -0.2821 C   0  0  0  0  0  0  0  0  0  0  0  0
   -7.4078    2.9802    0.2081 C   0  0  0  0  0  0  0  0  0  0  0  0
   -3.8979    1.8429   -0.7442 C   0  0  0  0  0  0  0  0  0  0  0  0
   -3.3755    2.4500   -1.8941 C   0  0  0  0  0  0  0  0  0  0  0  0
   -2.2929    1.8785   -2.5637 C   0  0  0  0  0  0  0  0  0  0  0  0
   -1.7330    0.6743   -2.1095 C   0  0  0  0  0  0  0  0  0  0  0  0
   -0.5588    0.0595   -2.8093 C   0  0  0  0  0  0  0  0  0  0  0  0
   -2.2500    0.0689   -0.9557 C   0  0  0  0  0  0  0  0  0  0  0  0
   -3.3281    0.6487   -0.2819 C   0  0  0  0  0  0  0  0  0  0  0  0
   -5.0265    2.1005    2.4185 C   0  0  0  0  0  0  0  0  0  0  0  0
   -5.7611    0.6090    2.5898 S   0  0  0  0  0  0  0  0  0  0  0  0
   -3.2617    4.8927    0.7117 C   0  0  0  0  0  0  0  0  0  0  0  0
   -3.8567    5.4878   -0.4230 C   0  0  0  0  0  0  0  0  0  0  0  0
   -5.3172    5.6538   -0.6398 C   0  0  0  0  0  0  0  0  0  0  0  0
   -5.9029    5.4426   -1.8998 C   0  0  0  0  0  0  0  0  0  0  0  0
   -7.2603    5.6986   -2.1052 C   0  0  0  0  0  0  0  0  0  0  0  0
   -8.0522    6.1576   -1.0503 C   0  0  0  0  0  0  0  0  0  0  0  0
   -7.4969    6.3350    0.2233 C   0  0  0  0  0  0  0  0  0  0  0  0
   -8.3509    6.8395    1.3555 C   0  0  0  0  0  0  0  0  0  0  0  0
   -8.3637    8.3615    1.3727 C   0  0  0  0  0  0  0  0  0  0  0  0
   -6.1251    6.1013    0.4206 C   0  0  0  0  0  0  0  0  0  0  0  0
   -2.8759    5.9707   -1.3003 C   0  0  0  0  0  0  0  0  0  0  0  0
   -2.9141    6.3563   -2.9536 S   0  0  0  0  0  0  0  0  0  0  0  0
   -1.2263    6.3678   -3.0604 C   0  0  0  0  0  0  0  0  0  0  0  0
   -0.3538    5.9790   -4.0434 C   0  0  0  0  0  0  0  0  0  0  0  0
   -0.6276    5.5201   -5.3431 C   0  0  0  0  0  0  0  0  0  0  0  0
    0.3591    4.7372   -6.0233 C   0  0  0  0  0  0  0  0  0  0  0  0
    0.0253    4.2423   -7.2409 N   0  0  0  0  0  0  0  0  0  0  0  0
   -1.5217    4.8248   -7.3592 S   0  0  0  0  0  0  0  0  0  0  0  0
   -1.8199    5.6767   -5.9705 N   0  0  0  0  0  0  0  0  0  0  0  0
    1.5903    4.5197   -5.3918 C   0  0  0  0  0  0  0  0  0  0  0  0
    2.6836    3.7816   -5.7448 C   0  0  0  0  0  0  0  0  0  0  0  0
    2.8328    2.3244   -6.5989 S   0  0  0  0  0  0  0  0  0  0  0  0
    4.1221    1.8180   -5.6091 C   0  0  0  0  0  0  0  0  0  0  0  0
    4.7404    0.5717   -5.4133 C   0  0  0  0  0  0  0  0  0  0  0  0
    4.5390   -0.6051   -6.2848 C   0  0  0  0  0  0  0  0  0  0  0  0
    5.6437   -1.3409   -6.7424 C   0  0  0  0  0  0  0  0  0  0  0  0
    5.4593   -2.4705   -7.5419 C   0  0  0  0  0  0  0  0  0  0  0  0
    4.1678   -2.8740   -7.8975 C   0  0  0  0  0  0  0  0  0  0  0  0
    3.0506   -2.1513   -7.4526 C   0  0  0  0  0  0  0  0  0  0  0  0
    1.6640   -2.5490   -7.8841 C   0  0  0  0  0  0  0  0  0  0  0  0
    1.2946   -1.8971   -9.2130 C   0  0  0  0  0  0  0  0  0  0  0  0
    3.2435   -1.0175   -6.6446 C   0  0  0  0  0  0  0  0  0  0  0  0
    5.5265    0.5861   -4.2383 C   0  0  0  0  0  0  0  0  0  0  0  0
    5.3913    2.1025   -3.4866 S   0  0  0  0  0  0  0  0  0  0  0  0
    4.3989    2.7621   -4.6500 C   0  0  0  0  0  0  0  0  0  0  0  0
    3.5794    3.8835   -4.7129 C   0  0  0  0  0  0  0  0  0  0  0  0
    3.1205    4.6635   -3.7000 N   0  0  0  0  0  0  0  0  0  0  0  0
    1.8630    4.9959   -4.1097 C   0  0  0  0  0  0  0  0  0  0  0  0
    0.8283    5.6201   -3.3741 C   0  0  0  0  0  0  0  0  0  0  0  0
    0.6403    5.6240   -2.0162 N   0  0  0  0  0  0  0  0  0  0  0  0
   -0.6298    6.0746   -1.8634 C   0  0  0  0  0  0  0  0  0  0  0  0
   -1.5792    5.8248   -0.8670 C   0  0  0  0  0  0  0  0  0  0  0  0
   -1.5700    5.0179    0.5999 S   0  0  0  0  0  0  0  0  0  0  0  0
    1.3786    4.8540   -1.0024 C   0  0  0  0  0  0  0  0  0  0  0  0
    1.8878    5.7641    0.1105 C   0  0  0  0  0  0  0  0  0  0  0  0
    3.9750    5.6224   -2.9774 C   0  0  0  0  0  0  0  0  0  0  0  0
    4.9196    4.9533   -1.9795 C   0  0  0  0  0  0  0  0  0  0  0  0
    6.1502   -0.5591   -3.5611 C   0  0  0  0  0  0  0  0  0  0  0  0
    5.6353   -1.8531   -3.5080 C   0  0  0  0  0  0  0  0  0  0  0  0
    6.2821   -2.6662   -2.5578 C   0  0  0  0  0  0  0  0  0  0  0  0
    5.9269   -3.9875   -2.2140 C   0  0  0  0  0  0  0  0  0  0  0  0
    4.8304   -4.6970   -2.9013 C   0  0  0  0  0  0  0  0  0  0  0  0
    3.4276   -5.2544   -2.1556 S   0  0  0  0  0  0  0  0  0  0  0  0
    2.6897   -5.8171   -3.5592 C   0  0  0  0  0  0  0  0  0  0  0  0
    1.3059   -6.3841   -3.6398 C   0  0  0  0  0  0  0  0  0  0  0  0
    0.2697   -5.2645   -3.7229 C   0  0  0  0  0  0  0  0  0  0  0  0
    3.5319   -5.5525   -4.6343 C   0  0  0  0  0  0  0  0  0  0  0  0
    3.2125   -5.8373   -5.9222 F   0  0  0  0  0  0  0  0  0  0  0  0
    4.7271   -4.9332   -4.2681 C   0  0  0  0  0  0  0  0  0  0  0  0
    5.6825   -4.5739   -5.1642 F   0  0  0  0  0  0  0  0  0  0  0  0
    6.6228   -4.5698   -1.1411 C   0  0  0  0  0  0  0  0  0  0  0  0
    7.6195   -3.8922   -0.4291 C   0  0  0  0  0  0  0  0  0  0  0  0
    7.9844   -2.5755   -0.7794 C   0  0  0  0  0  0  0  0  0  0  0  0
    8.9817   -1.8087   -0.0003 C   0  0  0  0  0  0  0  0  0  0  0  0
    8.6754   -0.3563    0.7942 S   0  0  0  0  0  0  0  0  0  0  0  0
   10.1935   -0.2070    1.4998 C   0  0  0  0  0  0  0  0  0  0  0  0
   10.5950    0.8709    2.4569 C   0  0  0  0  0  0  0  0  0  0  0  0
   10.2037    0.4968    3.8827 C   0  0  0  0  0  0  0  0  0  0  0  0
   10.9570   -1.3124    1.1423 C   0  0  0  0  0  0  0  0  0  0  0  0
   10.2827   -2.2036    0.3012 C   0  0  0  0  0  0  0  0  0  0  0  0
   10.8432   -3.3487   -0.1588 F   0  0  0  0  0  0  0  0  0  0  0  0
   12.2159   -1.5269    1.5903 F   0  0  0  0  0  0  0  0  0  0  0  0
    7.2878   -1.9936   -1.8523 C   0  0  0  0  0  0  0  0  0  0  0  0
    7.3825   -0.4123   -2.4177 S   0  0  0  0  0  0  0  0  0  0  0  0
    8.1335   -4.6391    0.6430 C   0  0  0  0  0  0  0  0  0  0  0  0
    7.5416   -5.8881    0.7720 C   0  0  0  0  0  0  0  0  0  0  0  0
    6.4125   -6.1003   -0.4680 S   0  0  0  0  0  0  0  0  0  0  0  0
    7.9651   -6.8992    1.7494 C   0  0  0  0  0  0  0  0  0  0  0  0
    7.1295   -7.5794    2.5544 C   0  0  0  0  0  0  0  0  0  0  0  0
    5.6581   -7.5002    2.5579 C   0  0  0  0  0  0  0  0  0  0  0  0
    4.9555   -6.5641    2.0949 O   0  0  0  0  0  0  0  0  0  0  0  0
    5.1445   -8.6461    3.2708 C   0  0  0  0  0  0  0  0  0  0  0  0
    3.8186   -9.0599    3.4015 C   0  0  0  0  0  0  0  0  0  0  0  0
    3.5616  -10.2785    4.0480 C   0  0  0  0  0  0  0  0  0  0  0  0
    4.6284  -11.0545    4.5424 C   0  0  0  0  0  0  0  0  0  0  0  0
    4.2913  -12.5977    5.3126 Cl  0  0  0  0  0  0  0  0  0  0  0  0
    5.9534  -10.6131    4.4075 C   0  0  0  0  0  0  0  0  0  0  0  0
    6.2005   -9.3763    3.7916 C   0  0  0  0  0  0  0  0  0  0  0  0
    7.4848   -8.6817    3.5011 C   0  0  0  0  0  0  0  0  0  0  0  0
    8.6541   -8.8364    4.1806 C   0  0  0  0  0  0  0  0  0  0  0  0
    9.7830   -7.9606    3.9901 C   0  0  0  0  0  0  0  0  0  0  0  0
   10.6891   -7.2540    3.8451 N   0  0  0  0  0  0  0  0  0  0  0  0
    8.8029   -9.7949    5.2406 C   0  0  0  0  0  0  0  0  0  0  0  0
    8.9392  -10.5536    6.1055 N   0  0  0  0  0  0  0  0  0  0  0  0
   -6.3956   -0.5305    5.8592 H   0  0  0  0  0  0  0  0  0  0  0  0
   -2.0124   -3.9907    3.0561 H   0  0  0  0  0  0  0  0  0  0  0  0
   -1.7619   -6.3430    3.8210 H   0  0  0  0  0  0  0  0  0  0  0  0
   -5.3599   -5.9859    6.1522 H   0  0  0  0  0  0  0  0  0  0  0  0
   -2.7038    3.6845    7.2570 H   0  0  0  0  0  0  0  0  0  0  0  0
   -3.7076    5.2783    8.8336 H   0  0  0  0  0  0  0  0  0  0  0  0
   -7.1705    5.0097   10.1497 H   0  0  0  0  0  0  0  0  0  0  0  0
   -5.5958    5.8644   10.3083 H   0  0  0  0  0  0  0  0  0  0  0  0
   -6.7314    6.3052    8.9700 H   0  0  0  0  0  0  0  0  0  0  0  0
   -7.5578    3.4326    8.2528 H   0  0  0  0  0  0  0  0  0  0  0  0
   -6.5491    1.8183    6.6954 H   0  0  0  0  0  0  0  0  0  0  0  0
   -3.0840    0.7900    8.2866 H   0  0  0  0  0  0  0  0  0  0  0  0
   -0.9058   -0.2483    8.7500 H   0  0  0  0  0  0  0  0  0  0  0  0
    1.5280   -1.2815    6.1113 H   0  0  0  0  0  0  0  0  0  0  0  0
    1.8175    0.0853    7.2608 H   0  0  0  0  0  0  0  0  0  0  0  0
    1.0681   -1.4525    7.8448 H   0  0  0  0  0  0  0  0  0  0  0  0
    0.1522    0.1097    4.5881 H   0  0  0  0  0  0  0  0  0  0  0  0
   -1.9992    1.1739    4.1225 H   0  0  0  0  0  0  0  0  0  0  0  0
   -5.9004    1.2211   -2.2997 H   0  0  0  0  0  0  0  0  0  0  0  0
   -8.1908    1.2093   -3.1433 H   0  0  0  0  0  0  0  0  0  0  0  0
  -10.3832    2.4047   -3.1610 H   0  0  0  0  0  0  0  0  0  0  0  0
  -10.9307    3.3011   -1.7044 H   0  0  0  0  0  0  0  0  0  0  0  0
  -10.9480    1.4933   -1.7024 H   0  0  0  0  0  0  0  0  0  0  0  0
   -9.4914    3.4594    0.2887 H   0  0  0  0  0  0  0  0  0  0  0  0
   -7.2230    3.4845    1.1469 H   0  0  0  0  0  0  0  0  0  0  0  0
   -3.7990    3.3694   -2.2604 H   0  0  0  0  0  0  0  0  0  0  0  0
   -1.8958    2.3725   -3.4417 H   0  0  0  0  0  0  0  0  0  0  0  0
   -0.7086   -1.0360   -2.9025 H   0  0  0  0  0  0  0  0  0  0  0  0
   -0.4330    0.4825   -3.8266 H   0  0  0  0  0  0  0  0  0  0  0  0
    0.3628    0.2516   -2.2197 H   0  0  0  0  0  0  0  0  0  0  0  0
   -1.8244   -0.8565   -0.5874 H   0  0  0  0  0  0  0  0  0  0  0  0
   -3.7301    0.1591    0.5948 H   0  0  0  0  0  0  0  0  0  0  0  0
   -5.3263    5.0661   -2.7280 H   0  0  0  0  0  0  0  0  0  0  0  0
   -7.6993    5.5439   -3.0810 H   0  0  0  0  0  0  0  0  0  0  0  0
   -9.1022    6.3545   -1.2269 H   0  0  0  0  0  0  0  0  0  0  0  0
   -7.9585    6.4595    2.3248 H   0  0  0  0  0  0  0  0  0  0  0  0
   -9.3914    6.4632    1.2442 H   0  0  0  0  0  0  0  0  0  0  0  0
   -8.8050    8.7545    0.4319 H   0  0  0  0  0  0  0  0  0  0  0  0
   -7.3297    8.7536    1.4803 H   0  0  0  0  0  0  0  0  0  0  0  0
   -8.9704    8.7183    2.2304 H   0  0  0  0  0  0  0  0  0  0  0  0
   -5.6883    6.2841    1.3949 H   0  0  0  0  0  0  0  0  0  0  0  0
    6.6492   -1.0353   -6.4826 H   0  0  0  0  0  0  0  0  0  0  0  0
    6.3166   -3.0334   -7.8884 H   0  0  0  0  0  0  0  0  0  0  0  0
    4.0421   -3.7470   -8.5248 H   0  0  0  0  0  0  0  0  0  0  0  0
    1.5971   -3.6536   -7.9909 H   0  0  0  0  0  0  0  0  0  0  0  0
    0.9217   -2.2496   -7.1107 H   0  0  0  0  0  0  0  0  0  0  0  0
    0.2726   -2.2100   -9.5122 H   0  0  0  0  0  0  0  0  0  0  0  0
    1.3151   -0.7891   -9.1257 H   0  0  0  0  0  0  0  0  0  0  0  0
    2.0035   -2.2130  -10.0081 H   0  0  0  0  0  0  0  0  0  0  0  0
    2.3796   -0.4691   -6.2849 H   0  0  0  0  0  0  0  0  0  0  0  0
    2.2192    4.3043   -1.4443 H   0  0  0  0  0  0  0  0  0  0  0  0
    0.7289    4.0631   -0.5808 H   0  0  0  0  0  0  0  0  0  0  0  0
    2.3846    5.1521    0.8930 H   0  0  0  0  0  0  0  0  0  0  0  0
    1.0492    6.3198    0.5712 H   0  0  0  0  0  0  0  0  0  0  0  0
    2.6231    6.4945   -0.2833 H   0  0  0  0  0  0  0  0  0  0  0  0
    3.3469    6.3596   -2.4404 H   0  0  0  0  0  0  0  0  0  0  0  0
    4.5708    6.2067   -3.7100 H   0  0  0  0  0  0  0  0  0  0  0  0
    4.4574    4.0607   -1.5153 H   0  0  0  0  0  0  0  0  0  0  0  0
    5.8611    4.6634   -2.4878 H   0  0  0  0  0  0  0  0  0  0  0  0
    5.1805    5.6709   -1.1727 H   0  0  0  0  0  0  0  0  0  0  0  0
    4.7654   -2.1649   -4.0679 H   0  0  0  0  0  0  0  0  0  0  0  0
    1.1062   -7.0051   -2.7386 H   0  0  0  0  0  0  0  0  0  0  0  0
    1.2162   -7.0404   -4.5303 H   0  0  0  0  0  0  0  0  0  0  0  0
   -0.7500   -5.7045   -3.7853 H   0  0  0  0  0  0  0  0  0  0  0  0
    0.3168   -4.6256   -2.8170 H   0  0  0  0  0  0  0  0  0  0  0  0
    0.4442   -4.6413   -4.6242 H   0  0  0  0  0  0  0  0  0  0  0  0
   11.6938    1.0324    2.4110 H   0  0  0  0  0  0  0  0  0  0  0  0
   10.0958    1.8220    2.1724 H   0  0  0  0  0  0  0  0  0  0  0  0
   10.7043   -0.4482    4.1885 H   0  0  0  0  0  0  0  0  0  0  0  0
    9.1057    0.3630    3.9582 H   0  0  0  0  0  0  0  0  0  0  0  0
   10.5124    1.3069    4.5799 H   0  0  0  0  0  0  0  0  0  0  0  0
    8.9019   -4.2919    1.3204 H   0  0  0  0  0  0  0  0  0  0  0  0
    9.0288   -7.0760    1.7851 H   0  0  0  0  0  0  0  0  0  0  0  0
    3.0125   -8.4664    2.9932 H   0  0  0  0  0  0  0  0  0  0  0  0
    2.5410  -10.6261    4.1452 H   0  0  0  0  0  0  0  0  0  0  0  0
    6.7550  -11.2525    4.7438 H   0  0  0  0  0  0  0  0  0  0  0  0
  1  2  2  3
  2  3  1  0
  3  4  2  0
  3  5  1  0
  5  6  2  0
  6  7  1  0
  7  8  2  0
  8  9  1  0
  8 10  1  0
 10 11  2  0
 11 12  1  0
 12 13  2  3
 13 14  1  0
 14 15  3  0
 13 16  1  0
 16 17  3  0
  1 18  1  0
 18 19  2  0
 19 20  1  0
 20 21  1  0
 21 22  2  0
 22 23  1  0
 23 24  2  0
 24 25  1  0
 24 26  1  0
 26 27  2  0
 20 28  1  0
 28 29  2  0
 29 30  1  0
 30 31  2  0
 31 32  1  0
 31 33  1  0
 33 34  2  0
 19 35  1  0
 35 36  1  0
 36 37  1  0
 37 38  2  0
 38 39  1  0
 39 40  1  0
 40 41  2  0
 41 42  1  0
 42 43  2  0
 43 44  1  0
 43 45  1  0
 45 46  2  0
 39 47  1  0
 47 48  2  0
 48 49  1  0
 49 50  2  0
 50 51  1  0
 50 52  1  0
 52 53  2  0
 38 54  1  0
 54 55  1  0
 37 56  1  0
 56 57  2  0
 57 58  1  0
 58 59  2  0
 59 60  1  0
 60 61  2  0
 61 62  1  0
 62 63  1  0
 63 64  1  0
 62 65  2  0
 57 66  1  0
 66 67  1  0
 67 68  1  0
 68 69  1  0
 69 70  1  0
 70 71  1  0
 71 72  2  0
 72 73  1  0
 73 74  1  0
 71 75  1  0
 75 76  1  0
 76 77  1  0
 77 78  1  0
 78 79  1  0
 79 80  1  0
 80 81  2  0
 81 82  1  0
 82 83  2  0
 83 84  1  0
 84 85  1  0
 85 86  1  0
 84 87  2  0
 79 88  2  0
 88 89  1  0
 89 90  1  0
 90 91  1  0
 91 92  1  0
 92 93  1  0
 93 94  1  0
 94 95  1  0
 95 96  1  0
 96 97  1  0
 97 98  1  0
 95 99  1  0
 99100  1  0
 92101  1  0
101102  1  0
 88103  1  0
103104  2  0
104105  1  0
105106  2  0
106107  1  0
107108  1  0
108109  1  0
109110  1  0
110111  1  0
109112  2  0
112113  1  0
112114  1  0
114115  1  0
106116  1  0
116117  2  0
117118  1  0
118119  1  0
119120  1  0
120121  1  0
121122  1  0
122123  1  0
121124  2  0
124125  1  0
125126  1  0
124127  1  0
118128  2  0
128129  1  0
117130  1  0
130131  2  0
131132  1  0
131133  1  0
133134  2  3
134135  1  0
135136  2  0
135137  1  0
137138  2  0
138139  1  0
139140  2  0
140141  1  0
140142  1  0
142143  2  0
143144  1  0
144145  2  3
145146  1  0
146147  3  0
145148  1  0
148149  3  0
 12  2  1  0
 55 18  1  0
 98 56  1  0
129103  1  0
144134  1  0
 11  5  1  0
 27 21  1  0
 34 28  1  0
 54 35  2  0
 65 58  1  0
 97 66  2  0
128105  1  0
143137  1  0
 46 40  1  0
 53 47  1  0
 96 68  2  0
114107  2  0
132116  1  0
 94 69  2  0
125119  2  0
 74 70  2  0
 93 75  2  0
 91 76  2  0
 90 78  2  0
 87 80  1  0
  1150  1  0
  6151  1  0
  7152  1  0
 10153  1  0
 22154  1  0
 23155  1  0
 25156  1  0
 25157  1  0
 25158  1  0
 26159  1  0
 27160  1  0
 29161  1  0
 30162  1  0
 32163  1  0
 32164  1  0
 32165  1  0
 33166  1  0
 34167  1  0
 41168  1  0
 42169  1  0
 44170  1  0
 44171  1  0
 44172  1  0
 45173  1  0
 46174  1  0
 48175  1  0
 49176  1  0
 51177  1  0
 51178  1  0
 51179  1  0
 52180  1  0
 53181  1  0
 59182  1  0
 60183  1  0
 61184  1  0
 63185  1  0
 63186  1  0
 64187  1  0
 64188  1  0
 64189  1  0
 65190  1  0
 81191  1  0
 82192  1  0
 83193  1  0
 85194  1  0
 85195  1  0
 86196  1  0
 86197  1  0
 86198  1  0
 87199  1  0
 99200  1  0
 99201  1  0
100202  1  0
100203  1  0
100204  1  0
101205  1  0
101206  1  0
102207  1  0
102208  1  0
102209  1  0
104210  1  0
110211  1  0
110212  1  0
111213  1  0
111214  1  0
111215  1  0
122216  1  0
122217  1  0
123218  1  0
123219  1  0
123220  1  0
130221  1  0
133222  1  0
138223  1  0
139224  1  0
142225  1  0
M  END

