
     RDKit          3D

246271  0  0  0  0  0  0  0  0999 V2000
   -4.2381   -7.8787   -5.9240 C   0  0  0  0  0  0  0  0  0  0  0  0
   -4.1085   -7.0518   -6.9842 C   0  0  0  0  0  0  0  0  0  0  0  0
   -4.2807   -5.5931   -6.9464 C   0  0  0  0  0  0  0  0  0  0  0  0
   -4.9248   -4.9337   -6.0853 O   0  0  0  0  0  0  0  0  0  0  0  0
   -3.5801   -5.0099   -8.0685 C   0  0  0  0  0  0  0  0  0  0  0  0
   -3.3045   -3.6603   -8.2982 C   0  0  0  0  0  0  0  0  0  0  0  0
   -2.4776   -3.3233   -9.3791 C   0  0  0  0  0  0  0  0  0  0  0  0
   -1.9348   -4.3295  -10.1937 C   0  0  0  0  0  0  0  0  0  0  0  0
   -0.8481   -3.8884  -11.5046 Cl  0  0  0  0  0  0  0  0  0  0  0  0
   -2.2108   -5.6814   -9.9337 C   0  0  0  0  0  0  0  0  0  0  0  0
   -3.0516   -6.0159   -8.8523 C   0  0  0  0  0  0  0  0  0  0  0  0
   -3.4309   -7.3429   -8.2785 C   0  0  0  0  0  0  0  0  0  0  0  0
   -3.3017   -8.5554   -8.8767 C   0  0  0  0  0  0  0  0  0  0  0  0
   -3.8731   -9.7525   -8.3177 C   0  0  0  0  0  0  0  0  0  0  0  0
   -4.3135  -10.7348   -7.8884 N   0  0  0  0  0  0  0  0  0  0  0  0
   -2.6988   -8.7234  -10.1767 C   0  0  0  0  0  0  0  0  0  0  0  0
   -2.2340   -8.8971  -11.2193 N   0  0  0  0  0  0  0  0  0  0  0  0
   -4.6430   -7.3883   -4.5961 C   0  0  0  0  0  0  0  0  0  0  0  0
   -3.7524   -7.0216   -3.5814 C   0  0  0  0  0  0  0  0  0  0  0  0
   -2.3535   -7.3677   -3.5326 N   0  0  0  0  0  0  0  0  0  0  0  0
   -1.8435   -8.0182   -2.3437 C   0  0  0  0  0  0  0  0  0  0  0  0
   -2.6482   -8.9288   -1.6349 C   0  0  0  0  0  0  0  0  0  0  0  0
   -2.2329   -9.4373   -0.3998 C   0  0  0  0  0  0  0  0  0  0  0  0
   -0.9867   -9.0784    0.1331 C   0  0  0  0  0  0  0  0  0  0  0  0
   -0.5870   -9.5592    1.4987 C   0  0  0  0  0  0  0  0  0  0  0  0
   -0.1655   -8.1941   -0.5836 C   0  0  0  0  0  0  0  0  0  0  0  0
   -0.5857   -7.6740   -1.8160 C   0  0  0  0  0  0  0  0  0  0  0  0
   -1.4835   -6.9866   -4.6128 C   0  0  0  0  0  0  0  0  0  0  0  0
   -0.5835   -7.9169   -5.1662 C   0  0  0  0  0  0  0  0  0  0  0  0
    0.1869   -7.5709   -6.2854 C   0  0  0  0  0  0  0  0  0  0  0  0
    0.0740   -6.2963   -6.8575 C   0  0  0  0  0  0  0  0  0  0  0  0
    0.8628   -5.9407   -8.0849 C   0  0  0  0  0  0  0  0  0  0  0  0
   -0.7743   -5.3506   -6.2667 C   0  0  0  0  0  0  0  0  0  0  0  0
   -1.5538   -5.6989   -5.1584 C   0  0  0  0  0  0  0  0  0  0  0  0
   -4.4017   -6.3207   -2.5792 C   0  0  0  0  0  0  0  0  0  0  0  0
   -3.8442   -5.3301   -1.3546 S   0  0  0  0  0  0  0  0  0  0  0  0
   -5.3893   -4.7181   -0.9819 C   0  0  0  0  0  0  0  0  0  0  0  0
   -6.3403   -5.2941   -1.8301 C   0  0  0  0  0  0  0  0  0  0  0  0
   -7.7555   -5.0466   -1.7701 N   0  0  0  0  0  0  0  0  0  0  0  0
   -8.2449   -3.6898   -1.8127 C   0  0  0  0  0  0  0  0  0  0  0  0
   -9.2475   -3.2584   -0.9254 C   0  0  0  0  0  0  0  0  0  0  0  0
   -9.6818   -1.9306   -0.9400 C   0  0  0  0  0  0  0  0  0  0  0  0
   -9.1202   -1.0177   -1.8415 C   0  0  0  0  0  0  0  0  0  0  0  0
   -9.5530    0.4200   -1.8351 C   0  0  0  0  0  0  0  0  0  0  0  0
   -8.1108   -1.4360   -2.7142 C   0  0  0  0  0  0  0  0  0  0  0  0
   -7.6737   -2.7625   -2.6974 C   0  0  0  0  0  0  0  0  0  0  0  0
   -8.6536   -6.1614   -1.5617 C   0  0  0  0  0  0  0  0  0  0  0  0
   -9.9577   -6.1466   -2.0904 C   0  0  0  0  0  0  0  0  0  0  0  0
  -10.8241   -7.2239   -1.8747 C   0  0  0  0  0  0  0  0  0  0  0  0
  -10.4093   -8.3292   -1.1225 C   0  0  0  0  0  0  0  0  0  0  0  0
  -11.3193   -9.5035   -0.9234 C   0  0  0  0  0  0  0  0  0  0  0  0
   -9.1033   -8.3666   -0.6207 C   0  0  0  0  0  0  0  0  0  0  0  0
   -8.2374   -7.2935   -0.8342 C   0  0  0  0  0  0  0  0  0  0  0  0
   -5.7392   -6.1718   -2.7339 C   0  0  0  0  0  0  0  0  0  0  0  0
   -6.2210   -6.8709   -4.1884 S   0  0  0  0  0  0  0  0  0  0  0  0
   -5.5646   -3.5228   -0.1552 C   0  0  0  0  0  0  0  0  0  0  0  0
   -6.1635   -3.4399    1.1169 C   0  0  0  0  0  0  0  0  0  0  0  0
   -6.8535   -4.5500    1.8049 C   0  0  0  0  0  0  0  0  0  0  0  0
   -8.1113   -4.3354    2.3861 C   0  0  0  0  0  0  0  0  0  0  0  0
   -8.8018   -5.3901    2.9851 C   0  0  0  0  0  0  0  0  0  0  0  0
   -8.2405   -6.6680    3.0219 C   0  0  0  0  0  0  0  0  0  0  0  0
   -6.9732   -6.8984    2.4626 C   0  0  0  0  0  0  0  0  0  0  0  0
   -6.3682   -8.2769    2.4947 C   0  0  0  0  0  0  0  0  0  0  0  0
   -5.9727   -8.6787    3.9130 C   0  0  0  0  0  0  0  0  0  0  0  0
   -6.2816   -5.8322    1.8591 C   0  0  0  0  0  0  0  0  0  0  0  0
   -5.8928   -2.2007    1.7103 C   0  0  0  0  0  0  0  0  0  0  0  0
   -5.9514   -1.6722    3.3289 S   0  0  0  0  0  0  0  0  0  0  0  0
   -4.9927   -0.3082    2.9739 C   0  0  0  0  0  0  0  0  0  0  0  0
   -4.0605    0.4051    3.6895 C   0  0  0  0  0  0  0  0  0  0  0  0
   -3.7599    0.3882    5.0572 C   0  0  0  0  0  0  0  0  0  0  0  0
   -2.5158    0.9326    5.5007 C   0  0  0  0  0  0  0  0  0  0  0  0
   -2.2563    0.8802    6.8298 N   0  0  0  0  0  0  0  0  0  0  0  0
   -3.6304    0.1094    7.3479 S   0  0  0  0  0  0  0  0  0  0  0  0
   -4.5605   -0.1567    6.0015 N   0  0  0  0  0  0  0  0  0  0  0  0
   -1.6556    1.4931    4.5536 C   0  0  0  0  0  0  0  0  0  0  0  0
   -0.4981    2.2134    4.6714 C   0  0  0  0  0  0  0  0  0  0  0  0
    0.6044    2.7303    5.8542 S   0  0  0  0  0  0  0  0  0  0  0  0
    1.4287    3.6912    4.6998 C   0  0  0  0  0  0  0  0  0  0  0  0
    2.6054    4.4425    4.7185 C   0  0  0  0  0  0  0  0  0  0  0  0
    3.5276    4.4768    5.8579 C   0  0  0  0  0  0  0  0  0  0  0  0
    3.5881    5.6083    6.6823 C   0  0  0  0  0  0  0  0  0  0  0  0
    4.4686    5.6416    7.7658 C   0  0  0  0  0  0  0  0  0  0  0  0
    5.2836    4.5382    8.0430 C   0  0  0  0  0  0  0  0  0  0  0  0
    5.2164    3.3911    7.2353 C   0  0  0  0  0  0  0  0  0  0  0  0
    6.0302    2.1712    7.5777 C   0  0  0  0  0  0  0  0  0  0  0  0
    5.2725    1.2830    8.5607 C   0  0  0  0  0  0  0  0  0  0  0  0
    4.3341    3.3687    6.1417 C   0  0  0  0  0  0  0  0  0  0  0  0
    2.8807    4.9913    3.4525 C   0  0  0  0  0  0  0  0  0  0  0  0
    1.6907    4.4993    2.3441 S   0  0  0  0  0  0  0  0  0  0  0  0
    0.8269    3.6218    3.4723 C   0  0  0  0  0  0  0  0  0  0  0  0
   -0.2404    2.7464    3.4497 C   0  0  0  0  0  0  0  0  0  0  0  0
   -1.1496    2.3901    2.5024 N   0  0  0  0  0  0  0  0  0  0  0  0
   -1.9913    1.5589    3.1922 C   0  0  0  0  0  0  0  0  0  0  0  0
   -3.1580    0.9027    2.7429 C   0  0  0  0  0  0  0  0  0  0  0  0
   -3.4117    0.3869    1.5021 N   0  0  0  0  0  0  0  0  0  0  0  0
   -4.5778   -0.2962    1.6721 C   0  0  0  0  0  0  0  0  0  0  0  0
   -5.1154   -1.3607    0.9530 C   0  0  0  0  0  0  0  0  0  0  0  0
   -4.7245   -2.0895   -0.4933 S   0  0  0  0  0  0  0  0  0  0  0  0
   -2.3814    0.0022    0.5219 C   0  0  0  0  0  0  0  0  0  0  0  0
   -1.6515   -1.2698    0.9649 C   0  0  0  0  0  0  0  0  0  0  0  0
   -1.4550    3.1634    1.2918 C   0  0  0  0  0  0  0  0  0  0  0  0
   -0.3693    3.0022    0.2208 C   0  0  0  0  0  0  0  0  0  0  0  0
    4.1386    5.5678    2.9879 C   0  0  0  0  0  0  0  0  0  0  0  0
    4.5195    6.9146    3.0911 C   0  0  0  0  0  0  0  0  0  0  0  0
    3.9842    7.8592    4.0369 N   0  0  0  0  0  0  0  0  0  0  0  0
    4.9139    8.4670    4.9653 C   0  0  0  0  0  0  0  0  0  0  0  0
    4.8565    9.8442    5.2490 C   0  0  0  0  0  0  0  0  0  0  0  0
    5.7790   10.4288    6.1241 C   0  0  0  0  0  0  0  0  0  0  0  0
    6.7645    9.6413    6.7416 C   0  0  0  0  0  0  0  0  0  0  0  0
    7.7828   10.2700    7.6377 C   0  0  0  0  0  0  0  0  0  0  0  0
    6.8555    8.2826    6.4194 C   0  0  0  0  0  0  0  0  0  0  0  0
    5.9441    7.7021    5.5368 C   0  0  0  0  0  0  0  0  0  0  0  0
    2.6092    8.2878    3.9486 C   0  0  0  0  0  0  0  0  0  0  0  0
    1.9113    8.7141    5.0950 C   0  0  0  0  0  0  0  0  0  0  0  0
    0.6204    9.2385    4.9864 C   0  0  0  0  0  0  0  0  0  0  0  0
    0.0009    9.3520    3.7362 C   0  0  0  0  0  0  0  0  0  0  0  0
   -1.3748    9.9375    3.6242 C   0  0  0  0  0  0  0  0  0  0  0  0
    0.6682    8.8806    2.5944 C   0  0  0  0  0  0  0  0  0  0  0  0
    1.9599    8.3600    2.7017 C   0  0  0  0  0  0  0  0  0  0  0  0
    5.5445    7.2178    2.2032 C   0  0  0  0  0  0  0  0  0  0  0  0
    6.2910    8.6436    1.7082 S   0  0  0  0  0  0  0  0  0  0  0  0
    7.1651    7.8809    0.4504 C   0  0  0  0  0  0  0  0  0  0  0  0
    6.8593    6.5108    0.4338 C   0  0  0  0  0  0  0  0  0  0  0  0
    7.5260    5.5305   -0.3793 N   0  0  0  0  0  0  0  0  0  0  0  0
    8.4779    4.6446    0.2511 C   0  0  0  0  0  0  0  0  0  0  0  0
    8.5800    3.3028   -0.1492 C   0  0  0  0  0  0  0  0  0  0  0  0
    9.4389    2.4276    0.5295 C   0  0  0  0  0  0  0  0  0  0  0  0
   10.2207    2.8790    1.5984 C   0  0  0  0  0  0  0  0  0  0  0  0
   11.0673    1.9143    2.3802 C   0  0  0  0  0  0  0  0  0  0  0  0
   10.1270    4.2169    1.9975 C   0  0  0  0  0  0  0  0  0  0  0  0
    9.2659    5.0885    1.3263 C   0  0  0  0  0  0  0  0  0  0  0  0
    7.3097    5.5318   -1.8033 C   0  0  0  0  0  0  0  0  0  0  0  0
    8.4006    5.4502   -2.6885 C   0  0  0  0  0  0  0  0  0  0  0  0
    8.2007    5.5841   -4.0664 C   0  0  0  0  0  0  0  0  0  0  0  0
    6.9103    5.7991   -4.5749 C   0  0  0  0  0  0  0  0  0  0  0  0
    6.6997    6.0441   -6.0352 C   0  0  0  0  0  0  0  0  0  0  0  0
    5.8252    5.8787   -3.6928 C   0  0  0  0  0  0  0  0  0  0  0  0
    6.0223    5.7215   -2.3209 C   0  0  0  0  0  0  0  0  0  0  0  0
    5.9605    6.1864    1.4274 C   0  0  0  0  0  0  0  0  0  0  0  0
    5.0827    4.8056    1.7790 S   0  0  0  0  0  0  0  0  0  0  0  0
    8.0217    8.5670   -0.5248 C   0  0  0  0  0  0  0  0  0  0  0  0
    7.5583    8.9639   -1.7275 C   0  0  0  0  0  0  0  0  0  0  0  0
    6.1340    8.9564   -2.1261 C   0  0  0  0  0  0  0  0  0  0  0  0
    5.1502    8.5996   -1.4211 O   0  0  0  0  0  0  0  0  0  0  0  0
    6.0518    9.4290   -3.4790 C   0  0  0  0  0  0  0  0  0  0  0  0
    7.2960    9.7696   -3.9420 C   0  0  0  0  0  0  0  0  0  0  0  0
    7.3024   10.2547   -5.2546 C   0  0  0  0  0  0  0  0  0  0  0  0
    5.6966   10.2063   -5.7854 S   0  0  0  0  0  0  0  0  0  0  0  0
    5.0117    9.5857   -4.3723 C   0  0  0  0  0  0  0  0  0  0  0  0
    3.3138    9.2314   -4.1027 Cl  0  0  0  0  0  0  0  0  0  0  0  0
    8.3252    9.5072   -2.9035 C   0  0  0  0  0  0  0  0  0  0  0  0
    9.6641    9.6685   -3.0519 C   0  0  0  0  0  0  0  0  0  0  0  0
   10.6231    9.3665   -2.0122 C   0  0  0  0  0  0  0  0  0  0  0  0
   11.4027    9.1299   -1.1862 N   0  0  0  0  0  0  0  0  0  0  0  0
   10.2388   10.1938   -4.2674 C   0  0  0  0  0  0  0  0  0  0  0  0
   10.7021   10.6174   -5.2470 N   0  0  0  0  0  0  0  0  0  0  0  0
   -3.8326   -8.8788   -5.9567 H   0  0  0  0  0  0  0  0  0  0  0  0
   -3.6780   -2.8969   -7.6309 H   0  0  0  0  0  0  0  0  0  0  0  0
   -2.2290   -2.2855   -9.5572 H   0  0  0  0  0  0  0  0  0  0  0  0
   -1.7270   -6.4245  -10.5451 H   0  0  0  0  0  0  0  0  0  0  0  0
   -3.6175   -9.2276   -2.0254 H   0  0  0  0  0  0  0  0  0  0  0  0
   -2.8862  -10.1045    0.1491 H   0  0  0  0  0  0  0  0  0  0  0  0
   -0.8831  -10.6205    1.6392 H   0  0  0  0  0  0  0  0  0  0  0  0
   -1.0880   -8.9344    2.2673 H   0  0  0  0  0  0  0  0  0  0  0  0
    0.5129   -9.4789    1.6375 H   0  0  0  0  0  0  0  0  0  0  0  0
    0.7886   -7.8854   -0.1700 H   0  0  0  0  0  0  0  0  0  0  0  0
    0.0460   -6.9593   -2.3239 H   0  0  0  0  0  0  0  0  0  0  0  0
   -0.5068   -8.9187   -4.7601 H   0  0  0  0  0  0  0  0  0  0  0  0
    0.8540   -8.3078   -6.7180 H   0  0  0  0  0  0  0  0  0  0  0  0
    1.9323   -5.8043   -7.8227 H   0  0  0  0  0  0  0  0  0  0  0  0
    0.7695   -6.7490   -8.8409 H   0  0  0  0  0  0  0  0  0  0  0  0
    0.4851   -5.0037   -8.5412 H   0  0  0  0  0  0  0  0  0  0  0  0
   -0.8516   -4.3534   -6.6806 H   0  0  0  0  0  0  0  0  0  0  0  0
   -2.2277   -4.9672   -4.7349 H   0  0  0  0  0  0  0  0  0  0  0  0
   -9.6666   -3.9441   -0.2000 H   0  0  0  0  0  0  0  0  0  0  0  0
  -10.4451   -1.6165   -0.2419 H   0  0  0  0  0  0  0  0  0  0  0  0
  -10.5526    0.5315   -1.3664 H   0  0  0  0  0  0  0  0  0  0  0  0
   -9.6147    0.8093   -2.8742 H   0  0  0  0  0  0  0  0  0  0  0  0
   -8.8143    1.0243   -1.2640 H   0  0  0  0  0  0  0  0  0  0  0  0
   -7.6443   -0.7348   -3.3933 H   0  0  0  0  0  0  0  0  0  0  0  0
   -6.8835   -3.0667   -3.3744 H   0  0  0  0  0  0  0  0  0  0  0  0
  -10.3043   -5.3091   -2.6856 H   0  0  0  0  0  0  0  0  0  0  0  0
  -11.8210   -7.2008   -2.2980 H   0  0  0  0  0  0  0  0  0  0  0  0
  -11.0962  -10.0127    0.0398 H   0  0  0  0  0  0  0  0  0  0  0  0
  -11.1744  -10.2184   -1.7559 H   0  0  0  0  0  0  0  0  0  0  0  0
  -12.3806   -9.1801   -0.9010 H   0  0  0  0  0  0  0  0  0  0  0  0
   -8.7539   -9.2273   -0.0640 H   0  0  0  0  0  0  0  0  0  0  0  0
   -7.2364   -7.3456   -0.4239 H   0  0  0  0  0  0  0  0  0  0  0  0
   -8.5689   -3.3561    2.3454 H   0  0  0  0  0  0  0  0  0  0  0  0
   -9.7805   -5.2213    3.4124 H   0  0  0  0  0  0  0  0  0  0  0  0
   -8.7998   -7.4811    3.4771 H   0  0  0  0  0  0  0  0  0  0  0  0
   -5.4697   -8.3215    1.8386 H   0  0  0  0  0  0  0  0  0  0  0  0
   -7.1062   -9.0067    2.0961 H   0  0  0  0  0  0  0  0  0  0  0  0
   -5.4509   -9.6543    3.8842 H   0  0  0  0  0  0  0  0  0  0  0  0
   -6.8775   -8.7723    4.5492 H   0  0  0  0  0  0  0  0  0  0  0  0
   -5.2896   -7.9222    4.3514 H   0  0  0  0  0  0  0  0  0  0  0  0
   -5.2962   -6.0067    1.4359 H   0  0  0  0  0  0  0  0  0  0  0  0
    2.9611    6.4618    6.4862 H   0  0  0  0  0  0  0  0  0  0  0  0
    4.5218    6.5208    8.3968 H   0  0  0  0  0  0  0  0  0  0  0  0
    5.9585    4.5720    8.8879 H   0  0  0  0  0  0  0  0  0  0  0  0
    6.9991    2.4743    8.0279 H   0  0  0  0  0  0  0  0  0  0  0  0
    6.2532    1.5941    6.6544 H   0  0  0  0  0  0  0  0  0  0  0  0
    5.7796    0.2959    8.6450 H   0  0  0  0  0  0  0  0  0  0  0  0
    5.2419    1.7667    9.5621 H   0  0  0  0  0  0  0  0  0  0  0  0
    4.2336    1.1032    8.2087 H   0  0  0  0  0  0  0  0  0  0  0  0
    4.2729    2.4870    5.5135 H   0  0  0  0  0  0  0  0  0  0  0  0
   -2.8329   -0.1370   -0.4842 H   0  0  0  0  0  0  0  0  0  0  0  0
   -1.6114    0.7603    0.4256 H   0  0  0  0  0  0  0  0  0  0  0  0
   -2.3450   -2.1262    1.0670 H   0  0  0  0  0  0  0  0  0  0  0  0
   -0.8775   -1.5376    0.2191 H   0  0  0  0  0  0  0  0  0  0  0  0
   -1.1531   -1.0967    1.9457 H   0  0  0  0  0  0  0  0  0  0  0  0
   -1.5586    4.2444    1.5640 H   0  0  0  0  0  0  0  0  0  0  0  0
   -2.4375    2.8554    0.8790 H   0  0  0  0  0  0  0  0  0  0  0  0
   -0.8372    2.7406   -0.7558 H   0  0  0  0  0  0  0  0  0  0  0  0
    0.3594    2.2060    0.4922 H   0  0  0  0  0  0  0  0  0  0  0  0
    0.1699    3.9597    0.0720 H   0  0  0  0  0  0  0  0  0  0  0  0
    4.1207   10.4756    4.7686 H   0  0  0  0  0  0  0  0  0  0  0  0
    5.7348   11.4960    6.3209 H   0  0  0  0  0  0  0  0  0  0  0  0
    7.3155   11.0609    8.2589 H   0  0  0  0  0  0  0  0  0  0  0  0
    8.5900   10.7040    7.0116 H   0  0  0  0  0  0  0  0  0  0  0  0
    8.2225    9.5133    8.3236 H   0  0  0  0  0  0  0  0  0  0  0  0
    7.6396    7.6689    6.8494 H   0  0  0  0  0  0  0  0  0  0  0  0
    6.0478    6.6516    5.2993 H   0  0  0  0  0  0  0  0  0  0  0  0
    2.3767    8.6767    6.0712 H   0  0  0  0  0  0  0  0  0  0  0  0
    0.1130    9.5828    5.8768 H   0  0  0  0  0  0  0  0  0  0  0  0
   -1.4664   10.5291    2.6900 H   0  0  0  0  0  0  0  0  0  0  0  0
   -1.5885   10.6160    4.4751 H   0  0  0  0  0  0  0  0  0  0  0  0
   -2.1267    9.1214    3.6180 H   0  0  0  0  0  0  0  0  0  0  0  0
    0.1973    8.9444    1.6193 H   0  0  0  0  0  0  0  0  0  0  0  0
    2.4714    8.0490    1.8034 H   0  0  0  0  0  0  0  0  0  0  0  0
    7.9722    2.9210   -0.9612 H   0  0  0  0  0  0  0  0  0  0  0  0
    9.4810    1.3844    0.2292 H   0  0  0  0  0  0  0  0  0  0  0  0
   10.4611    1.4745    3.2019 H   0  0  0  0  0  0  0  0  0  0  0  0
   11.9469    2.4259    2.8212 H   0  0  0  0  0  0  0  0  0  0  0  0
   11.4328    1.0953    1.7237 H   0  0  0  0  0  0  0  0  0  0  0  0
   10.7179    4.5866    2.8304 H   0  0  0  0  0  0  0  0  0  0  0  0
    9.2253    6.1217    1.6534 H   0  0  0  0  0  0  0  0  0  0  0  0
    9.4086    5.3303   -2.3101 H   0  0  0  0  0  0  0  0  0  0  0  0
    9.0521    5.5447   -4.7366 H   0  0  0  0  0  0  0  0  0  0  0  0
    7.4558    5.5016   -6.6411 H   0  0  0  0  0  0  0  0  0  0  0  0
    6.7807    7.1328   -6.2398 H   0  0  0  0  0  0  0  0  0  0  0  0
    5.6935    5.6911   -6.3497 H   0  0  0  0  0  0  0  0  0  0  0  0
    4.8307    6.0847   -4.0644 H   0  0  0  0  0  0  0  0  0  0  0  0
    5.1769    5.7961   -1.6523 H   0  0  0  0  0  0  0  0  0  0  0  0
    9.0559    8.6362   -0.2563 H   0  0  0  0  0  0  0  0  0  0  0  0
    8.1449   10.5651   -5.8443 H   0  0  0  0  0  0  0  0  0  0  0  0
  1  2  2  3
  2  3  1  0
  3  4  2  0
  3  5  1  0
  5  6  2  0
  6  7  1  0
  7  8  2  0
  8  9  1  0
  8 10  1  0
 10 11  2  0
 11 12  1  0
 12 13  2  3
 13 14  1  0
 14 15  3  0
 13 16  1  0
 16 17  3  0
  1 18  1  0
 18 19  2  0
 19 20  1  0
 20 21  1  0
 21 22  2  0
 22 23  1  0
 23 24  2  0
 24 25  1  0
 24 26  1  0
 26 27  2  0
 20 28  1  0
 28 29  2  0
 29 30  1  0
 30 31  2  0
 31 32  1  0
 31 33  1  0
 33 34  2  0
 19 35  1  0
 35 36  1  0
 36 37  1  0
 37 38  2  0
 38 39  1  0
 39 40  1  0
 40 41  2  0
 41 42  1  0
 42 43  2  0
 43 44  1  0
 43 45  1  0
 45 46  2  0
 39 47  1  0
 47 48  2  0
 48 49  1  0
 49 50  2  0
 50 51  1  0
 50 52  1  0
 52 53  2  0
 38 54  1  0
 54 55  1  0
 37 56  1  0
 56 57  2  0
 57 58  1  0
 58 59  2  0
 59 60  1  0
 60 61  2  0
 61 62  1  0
 62 63  1  0
 63 64  1  0
 62 65  2  0
 57 66  1  0
 66 67  1  0
 67 68  1  0
 68 69  1  0
 69 70  1  0
 70 71  1  0
 71 72  2  0
 72 73  1  0
 73 74  1  0
 71 75  1  0
 75 76  1  0
 76 77  1  0
 77 78  1  0
 78 79  1  0
 79 80  1  0
 80 81  2  0
 81 82  1  0
 82 83  2  0
 83 84  1  0
 84 85  1  0
 85 86  1  0
 84 87  2  0
 79 88  2  0
 88 89  1  0
 89 90  1  0
 90 91  1  0
 91 92  1  0
 92 93  1  0
 93 94  1  0
 94 95  1  0
 95 96  1  0
 96 97  1  0
 97 98  1  0
 95 99  1  0
 99100  1  0
 92101  1  0
101102  1  0
 88103  1  0
103104  2  0
104105  1  0
105106  1  0
106107  2  0
107108  1  0
108109  2  0
109110  1  0
109111  1  0
111112  2  0
105113  1  0
113114  2  0
114115  1  0
115116  2  0
116117  1  0
116118  1  0
118119  2  0
104120  1  0
120121  1  0
121122  1  0
122123  2  0
123124  1  0
124125  1  0
125126  2  0
126127  1  0
127128  2  0
128129  1  0
128130  1  0
130131  2  0
124132  1  0
132133  2  0
133134  1  0
134135  2  0
135136  1  0
135137  1  0
137138  2  0
123139  1  0
139140  1  0
122141  1  0
141142  2  3
142143  1  0
143144  2  0
143145  1  0
145146  1  0
146147  2  0
147148  1  0
148149  1  0
149150  1  0
146151  1  0
151152  2  3
152153  1  0
153154  3  0
152155  1  0
155156  3  0
 12  2  1  0
 55 18  1  0
 98 56  1  0
140103  1  0
151142  1  0
 11  5  1  0
 27 21  1  0
 34 28  1  0
 54 35  2  0
 65 58  1  0
 97 66  2  0
112106  1  0
119113  1  0
139120  2  0
149145  2  0
 46 40  1  0
 53 47  1  0
 96 68  2  0
131125  1  0
138132  1  0
 94 69  2  0
 74 70  2  0
 93 75  2  0
 91 76  2  0
 90 78  2  0
 87 80  1  0
  1157  1  0
  6158  1  0
  7159  1  0
 10160  1  0
 22161  1  0
 23162  1  0
 25163  1  0
 25164  1  0
 25165  1  0
 26166  1  0
 27167  1  0
 29168  1  0
 30169  1  0
 32170  1  0
 32171  1  0
 32172  1  0
 33173  1  0
 34174  1  0
 41175  1  0
 42176  1  0
 44177  1  0
 44178  1  0
 44179  1  0
 45180  1  0
 46181  1  0
 48182  1  0
 49183  1  0
 51184  1  0
 51185  1  0
 51186  1  0
 52187  1  0
 53188  1  0
 59189  1  0
 60190  1  0
 61191  1  0
 63192  1  0
 63193  1  0
 64194  1  0
 64195  1  0
 64196  1  0
 65197  1  0
 81198  1  0
 82199  1  0
 83200  1  0
 85201  1  0
 85202  1  0
 86203  1  0
 86204  1  0
 86205  1  0
 87206  1  0
 99207  1  0
 99208  1  0
100209  1  0
100210  1  0
100211  1  0
101212  1  0
101213  1  0
102214  1  0
102215  1  0
102216  1  0
107217  1  0
108218  1  0
110219  1  0
110220  1  0
110221  1  0
111222  1  0
112223  1  0
114224  1  0
115225  1  0
117226  1  0
117227  1  0
117228  1  0
118229  1  0
119230  1  0
126231  1  0
127232  1  0
129233  1  0
129234  1  0
129235  1  0
130236  1  0
131237  1  0
133238  1  0
134239  1  0
136240  1  0
136241  1  0
136242  1  0
137243  1  0
138244  1  0
141245  1  0
147246  1  0
M  END

