
     RDKit          3D

249274  0  0  0  0  0  0  0  0999 V2000
    4.9012   11.4094   -2.8726 C   0  0  0  0  0  0  0  0  0  0  0  0
    4.1580   12.2995   -3.5517 C   0  0  0  0  0  0  0  0  0  0  0  0
    4.7519   13.2467   -4.5015 C   0  0  0  0  0  0  0  0  0  0  0  0
    5.9041   13.7668   -4.4188 O   0  0  0  0  0  0  0  0  0  0  0  0
    3.8517   13.3788   -5.6317 C   0  0  0  0  0  0  0  0  0  0  0  0
    4.1236   13.8954   -6.8989 C   0  0  0  0  0  0  0  0  0  0  0  0
    3.1888   13.6838   -7.9269 C   0  0  0  0  0  0  0  0  0  0  0  0
    2.0167   12.9434   -7.6785 C   0  0  0  0  0  0  0  0  0  0  0  0
    0.9006   12.6189   -8.9870 Cl  0  0  0  0  0  0  0  0  0  0  0  0
    1.7634   12.4225   -6.3964 C   0  0  0  0  0  0  0  0  0  0  0  0
    2.6968   12.6609   -5.3744 C   0  0  0  0  0  0  0  0  0  0  0  0
    2.7539   12.1048   -4.0036 C   0  0  0  0  0  0  0  0  0  0  0  0
    1.6866   11.8928   -3.1906 C   0  0  0  0  0  0  0  0  0  0  0  0
    0.3351   12.0221   -3.6695 C   0  0  0  0  0  0  0  0  0  0  0  0
   -0.7409   12.1682   -4.0623 N   0  0  0  0  0  0  0  0  0  0  0  0
    1.8284   11.8411   -1.7583 C   0  0  0  0  0  0  0  0  0  0  0  0
    1.9068   11.8249   -0.6019 N   0  0  0  0  0  0  0  0  0  0  0  0
    4.4531   10.0222   -2.6654 C   0  0  0  0  0  0  0  0  0  0  0  0
    4.1742    9.0899   -3.6882 C   0  0  0  0  0  0  0  0  0  0  0  0
    4.5599    9.2512   -5.0749 N   0  0  0  0  0  0  0  0  0  0  0  0
    5.7977    9.9130   -5.4127 C   0  0  0  0  0  0  0  0  0  0  0  0
    5.8421   10.8541   -6.4540 C   0  0  0  0  0  0  0  0  0  0  0  0
    7.0021   11.5884   -6.7001 C   0  0  0  0  0  0  0  0  0  0  0  0
    8.1551   11.3624   -5.9381 C   0  0  0  0  0  0  0  0  0  0  0  0
    9.3908   12.1807   -6.1640 C   0  0  0  0  0  0  0  0  0  0  0  0
    8.1395   10.3800   -4.9385 C   0  0  0  0  0  0  0  0  0  0  0  0
    6.9726    9.6573   -4.6792 C   0  0  0  0  0  0  0  0  0  0  0  0
    3.6938    8.8208   -6.1440 C   0  0  0  0  0  0  0  0  0  0  0  0
    2.3255    9.1219   -6.1199 C   0  0  0  0  0  0  0  0  0  0  0  0
    1.5125    8.8044   -7.2128 C   0  0  0  0  0  0  0  0  0  0  0  0
    2.0528    8.1675   -8.3381 C   0  0  0  0  0  0  0  0  0  0  0  0
    1.1951    7.7780   -9.5067 C   0  0  0  0  0  0  0  0  0  0  0  0
    3.4202    7.8485   -8.3591 C   0  0  0  0  0  0  0  0  0  0  0  0
    4.2341    8.1770   -7.2726 C   0  0  0  0  0  0  0  0  0  0  0  0
    3.4711    7.9895   -3.1700 C   0  0  0  0  0  0  0  0  0  0  0  0
    2.5726    6.7250   -3.8317 S   0  0  0  0  0  0  0  0  0  0  0  0
    1.8792    6.2500   -2.3439 C   0  0  0  0  0  0  0  0  0  0  0  0
    2.3599    7.0850   -1.3307 C   0  0  0  0  0  0  0  0  0  0  0  0
    1.7620    7.2059   -0.0341 N   0  0  0  0  0  0  0  0  0  0  0  0
    0.3804    7.6185    0.0790 C   0  0  0  0  0  0  0  0  0  0  0  0
   -0.1928    8.4740   -0.8778 C   0  0  0  0  0  0  0  0  0  0  0  0
   -1.5428    8.8090   -0.8136 C   0  0  0  0  0  0  0  0  0  0  0  0
   -2.3488    8.3028    0.2164 C   0  0  0  0  0  0  0  0  0  0  0  0
   -3.8165    8.6069    0.2435 C   0  0  0  0  0  0  0  0  0  0  0  0
   -1.7808    7.4509    1.1771 C   0  0  0  0  0  0  0  0  0  0  0  0
   -0.4268    7.1211    1.1168 C   0  0  0  0  0  0  0  0  0  0  0  0
    2.6070    7.0530    1.1182 C   0  0  0  0  0  0  0  0  0  0  0  0
    2.6144    8.0193    2.1358 C   0  0  0  0  0  0  0  0  0  0  0  0
    3.5231    7.9240    3.1945 C   0  0  0  0  0  0  0  0  0  0  0  0
    4.4367    6.8616    3.2482 C   0  0  0  0  0  0  0  0  0  0  0  0
    5.4201    6.7503    4.3776 C   0  0  0  0  0  0  0  0  0  0  0  0
    4.4080    5.8779    2.2490 C   0  0  0  0  0  0  0  0  0  0  0  0
    3.5086    5.9797    1.1897 C   0  0  0  0  0  0  0  0  0  0  0  0
    3.2555    8.0276   -1.8293 C   0  0  0  0  0  0  0  0  0  0  0  0
    3.9005    9.4291   -1.1698 S   0  0  0  0  0  0  0  0  0  0  0  0
    0.8178    5.2421   -2.1544 C   0  0  0  0  0  0  0  0  0  0  0  0
   -0.4178    5.1907   -2.8200 C   0  0  0  0  0  0  0  0  0  0  0  0
   -0.7508    5.9252   -4.0523 C   0  0  0  0  0  0  0  0  0  0  0  0
   -0.2259    5.4817   -5.2704 C   0  0  0  0  0  0  0  0  0  0  0  0
   -0.5775    6.1178   -6.4624 C   0  0  0  0  0  0  0  0  0  0  0  0
   -1.4393    7.2118   -6.4406 C   0  0  0  0  0  0  0  0  0  0  0  0
   -1.9659    7.6775   -5.2240 C   0  0  0  0  0  0  0  0  0  0  0  0
   -2.8662    8.8965   -5.2061 C   0  0  0  0  0  0  0  0  0  0  0  0
   -4.2363    8.5940   -5.8036 C   0  0  0  0  0  0  0  0  0  0  0  0
   -1.6425    7.0079   -4.0284 C   0  0  0  0  0  0  0  0  0  0  0  0
   -1.2444    4.2094   -2.2757 C   0  0  0  0  0  0  0  0  0  0  0  0
   -2.7806    3.6222   -2.7227 S   0  0  0  0  0  0  0  0  0  0  0  0
   -2.7043    2.4389   -1.5029 C   0  0  0  0  0  0  0  0  0  0  0  0
   -3.3348    1.2674   -1.2176 C   0  0  0  0  0  0  0  0  0  0  0  0
   -4.4249    0.6668   -1.8530 C   0  0  0  0  0  0  0  0  0  0  0  0
   -4.7550   -0.6756   -1.5255 C   0  0  0  0  0  0  0  0  0  0  0  0
   -5.7952   -1.2378   -2.1883 N   0  0  0  0  0  0  0  0  0  0  0  0
   -6.2111    0.0276   -3.1718 S   0  0  0  0  0  0  0  0  0  0  0  0
   -5.1597    1.2639   -2.8215 N   0  0  0  0  0  0  0  0  0  0  0  0
   -3.9995   -1.3272   -0.5455 C   0  0  0  0  0  0  0  0  0  0  0  0
   -4.1421   -2.5661   -0.0013 C   0  0  0  0  0  0  0  0  0  0  0  0
   -5.0838   -3.9692   -0.1915 S   0  0  0  0  0  0  0  0  0  0  0  0
   -4.2346   -4.7366    1.0718 C   0  0  0  0  0  0  0  0  0  0  0  0
   -4.2509   -6.0312    1.5935 C   0  0  0  0  0  0  0  0  0  0  0  0
   -5.1548   -7.1023    1.1316 C   0  0  0  0  0  0  0  0  0  0  0  0
   -6.5439   -6.9765    1.2876 C   0  0  0  0  0  0  0  0  0  0  0  0
   -7.3918   -8.0194    0.9000 C   0  0  0  0  0  0  0  0  0  0  0  0
   -6.8628   -9.1935    0.3661 C   0  0  0  0  0  0  0  0  0  0  0  0
   -5.4803   -9.3237    0.1732 C   0  0  0  0  0  0  0  0  0  0  0  0
   -4.8882  -10.6150   -0.3428 C   0  0  0  0  0  0  0  0  0  0  0  0
   -4.4008  -11.4815    0.8135 C   0  0  0  0  0  0  0  0  0  0  0  0
   -4.6339   -8.2644    0.5395 C   0  0  0  0  0  0  0  0  0  0  0  0
   -3.2668   -6.1659    2.5946 C   0  0  0  0  0  0  0  0  0  0  0  0
   -2.3794   -4.7182    2.7427 S   0  0  0  0  0  0  0  0  0  0  0  0
   -3.2763   -3.9077    1.5979 C   0  0  0  0  0  0  0  0  0  0  0  0
   -3.2263   -2.6712    0.9774 C   0  0  0  0  0  0  0  0  0  0  0  0
   -2.4714   -1.5529    1.1306 N   0  0  0  0  0  0  0  0  0  0  0  0
   -2.9155   -0.7238    0.1228 C   0  0  0  0  0  0  0  0  0  0  0  0
   -2.5172    0.5956   -0.2859 C   0  0  0  0  0  0  0  0  0  0  0  0
   -1.3472    1.3113   -0.0850 N   0  0  0  0  0  0  0  0  0  0  0  0
   -1.5335    2.4452   -0.8203 C   0  0  0  0  0  0  0  0  0  0  0  0
   -0.6969    3.4762   -1.2514 C   0  0  0  0  0  0  0  0  0  0  0  0
    0.8426    4.0547   -0.9243 S   0  0  0  0  0  0  0  0  0  0  0  0
   -0.0234    0.8218    0.3182 C   0  0  0  0  0  0  0  0  0  0  0  0
    0.4208   -0.3893   -0.5009 C   0  0  0  0  0  0  0  0  0  0  0  0
   -1.6441   -1.2841    2.3178 C   0  0  0  0  0  0  0  0  0  0  0  0
   -2.1179   -0.0438    3.0727 C   0  0  0  0  0  0  0  0  0  0  0  0
   -2.9770   -7.3453    3.4278 C   0  0  0  0  0  0  0  0  0  0  0  0
   -2.6327   -7.2675    4.7922 C   0  0  0  0  0  0  0  0  0  0  0  0
   -3.0160   -6.1685    5.6543 N   0  0  0  0  0  0  0  0  0  0  0  0
   -4.2518   -5.4510    5.4247 C   0  0  0  0  0  0  0  0  0  0  0  0
   -4.2660   -4.0455    5.4486 C   0  0  0  0  0  0  0  0  0  0  0  0
   -5.4273   -3.3402    5.1320 C   0  0  0  0  0  0  0  0  0  0  0  0
   -6.6014   -4.0265    4.7847 C   0  0  0  0  0  0  0  0  0  0  0  0
   -7.8653   -3.2728    4.4695 C   0  0  0  0  0  0  0  0  0  0  0  0
   -6.6031   -5.4298    4.7957 C   0  0  0  0  0  0  0  0  0  0  0  0
   -5.4379   -6.1359    5.1067 C   0  0  0  0  0  0  0  0  0  0  0  0
   -2.1495   -5.7327    6.7161 C   0  0  0  0  0  0  0  0  0  0  0  0
   -0.8248   -5.3736    6.4364 C   0  0  0  0  0  0  0  0  0  0  0  0
    0.0362   -5.0112    7.4728 C   0  0  0  0  0  0  0  0  0  0  0  0
   -0.4261   -4.9989    8.7956 C   0  0  0  0  0  0  0  0  0  0  0  0
    0.5036   -4.6665    9.9239 C   0  0  0  0  0  0  0  0  0  0  0  0
   -1.7594   -5.3268    9.0727 C   0  0  0  0  0  0  0  0  0  0  0  0
   -2.6215   -5.6757    8.0321 C   0  0  0  0  0  0  0  0  0  0  0  0
   -1.8139   -8.3547    5.1742 C   0  0  0  0  0  0  0  0  0  0  0  0
   -0.7176   -8.6129    6.4227 S   0  0  0  0  0  0  0  0  0  0  0  0
    0.0810   -9.9103    5.6580 C   0  0  0  0  0  0  0  0  0  0  0  0
   -0.5601  -10.1933    4.4449 C   0  0  0  0  0  0  0  0  0  0  0  0
   -0.5210  -11.5046    3.8495 N   0  0  0  0  0  0  0  0  0  0  0  0
   -1.3336  -12.5231    4.4493 C   0  0  0  0  0  0  0  0  0  0  0  0
   -0.7864  -13.3899    5.4027 C   0  0  0  0  0  0  0  0  0  0  0  0
   -1.6090  -14.2745    6.1012 C   0  0  0  0  0  0  0  0  0  0  0  0
   -2.9931  -14.2892    5.8597 C   0  0  0  0  0  0  0  0  0  0  0  0
   -3.9022  -15.1794    6.6574 C   0  0  0  0  0  0  0  0  0  0  0  0
   -3.5390  -13.4239    4.9027 C   0  0  0  0  0  0  0  0  0  0  0  0
   -2.7153  -12.5347    4.2137 C   0  0  0  0  0  0  0  0  0  0  0  0
    0.1492  -11.7599    2.6123 C   0  0  0  0  0  0  0  0  0  0  0  0
   -0.4122  -11.3374    1.3975 C   0  0  0  0  0  0  0  0  0  0  0  0
    0.2298  -11.6016    0.1910 C   0  0  0  0  0  0  0  0  0  0  0  0
    1.4387  -12.3163    0.1782 C   0  0  0  0  0  0  0  0  0  0  0  0
    2.1479  -12.5722   -1.1157 C   0  0  0  0  0  0  0  0  0  0  0  0
    1.9555  -12.8123    1.3808 C   0  0  0  0  0  0  0  0  0  0  0  0
    1.3116  -12.5335    2.5912 C   0  0  0  0  0  0  0  0  0  0  0  0
   -1.5946   -9.2850    4.2060 C   0  0  0  0  0  0  0  0  0  0  0  0
   -2.3141   -8.7701    2.7887 S   0  0  0  0  0  0  0  0  0  0  0  0
    1.4665  -10.3543    5.9206 C   0  0  0  0  0  0  0  0  0  0  0  0
    2.5334   -9.5534    5.6538 C   0  0  0  0  0  0  0  0  0  0  0  0
    2.4724   -8.0861    5.5654 C   0  0  0  0  0  0  0  0  0  0  0  0
    1.8400   -7.3344    6.3500 O   0  0  0  0  0  0  0  0  0  0  0  0
    3.4259   -7.6210    4.5819 C   0  0  0  0  0  0  0  0  0  0  0  0
    4.1634   -8.6982    4.1274 C   0  0  0  0  0  0  0  0  0  0  0  0
    5.2617   -8.4809    3.2864 C   0  0  0  0  0  0  0  0  0  0  0  0
    5.5319   -7.1798    2.8406 C   0  0  0  0  0  0  0  0  0  0  0  0
    4.7288   -6.0957    3.2427 C   0  0  0  0  0  0  0  0  0  0  0  0
    5.1298   -4.3451    2.5617 Br  0  0  0  0  0  0  0  0  0  0  0  0
    3.6694   -6.3081    4.1462 C   0  0  0  0  0  0  0  0  0  0  0  0
    2.6726   -4.9616    4.6935 Cl  0  0  0  0  0  0  0  0  0  0  0  0
    3.6941   -9.9415    4.7864 C   0  0  0  0  0  0  0  0  0  0  0  0
    4.0932  -11.1984    4.4772 C   0  0  0  0  0  0  0  0  0  0  0  0
    3.8809  -12.3009    5.3729 C   0  0  0  0  0  0  0  0  0  0  0  0
    3.7650  -13.2067    6.0941 N   0  0  0  0  0  0  0  0  0  0  0  0
    4.6930  -11.5079    3.2052 C   0  0  0  0  0  0  0  0  0  0  0  0
    5.1209  -11.7426    2.1492 N   0  0  0  0  0  0  0  0  0  0  0  0
    5.9534   11.6153   -2.7187 H   0  0  0  0  0  0  0  0  0  0  0  0
    5.0592   14.3963   -7.1001 H   0  0  0  0  0  0  0  0  0  0  0  0
    3.3938   14.0591   -8.9243 H   0  0  0  0  0  0  0  0  0  0  0  0
    0.8928   11.8045   -6.2323 H   0  0  0  0  0  0  0  0  0  0  0  0
    4.9558   11.0683   -7.0321 H   0  0  0  0  0  0  0  0  0  0  0  0
    6.9842   12.3495   -7.4655 H   0  0  0  0  0  0  0  0  0  0  0  0
   10.2362   11.5154   -6.4376 H   0  0  0  0  0  0  0  0  0  0  0  0
    9.2495   12.9263   -6.9755 H   0  0  0  0  0  0  0  0  0  0  0  0
    9.6448   12.7301   -5.2302 H   0  0  0  0  0  0  0  0  0  0  0  0
    9.0258   10.1901   -4.3465 H   0  0  0  0  0  0  0  0  0  0  0  0
    6.9788    8.9199   -3.8888 H   0  0  0  0  0  0  0  0  0  0  0  0
    1.8935    9.6142   -5.2631 H   0  0  0  0  0  0  0  0  0  0  0  0
    0.4670    9.0722   -7.1783 H   0  0  0  0  0  0  0  0  0  0  0  0
    1.6621    8.1266  -10.4506 H   0  0  0  0  0  0  0  0  0  0  0  0
    1.0983    6.6730   -9.5447 H   0  0  0  0  0  0  0  0  0  0  0  0
    0.1802    8.2282   -9.4318 H   0  0  0  0  0  0  0  0  0  0  0  0
    3.8507    7.3646   -9.2188 H   0  0  0  0  0  0  0  0  0  0  0  0
    5.2839    7.9414   -7.3197 H   0  0  0  0  0  0  0  0  0  0  0  0
    0.4020    8.8745   -1.6863 H   0  0  0  0  0  0  0  0  0  0  0  0
   -1.9696    9.4558   -1.5690 H   0  0  0  0  0  0  0  0  0  0  0  0
   -4.3585    7.8597   -0.3739 H   0  0  0  0  0  0  0  0  0  0  0  0
   -4.2088    8.5726    1.2820 H   0  0  0  0  0  0  0  0  0  0  0  0
   -4.0120    9.6216   -0.1670 H   0  0  0  0  0  0  0  0  0  0  0  0
   -2.3924    7.0353    1.9698 H   0  0  0  0  0  0  0  0  0  0  0  0
   -0.0100    6.4524    1.8581 H   0  0  0  0  0  0  0  0  0  0  0  0
    1.9395    8.8622    2.0844 H   0  0  0  0  0  0  0  0  0  0  0  0
    3.5172    8.6902    3.9595 H   0  0  0  0  0  0  0  0  0  0  0  0
    5.5003    7.7048    4.9401 H   0  0  0  0  0  0  0  0  0  0  0  0
    5.0975    5.9438    5.0692 H   0  0  0  0  0  0  0  0  0  0  0  0
    6.4276    6.5060    3.9760 H   0  0  0  0  0  0  0  0  0  0  0  0
    5.0948    5.0403    2.2883 H   0  0  0  0  0  0  0  0  0  0  0  0
    3.5191    5.2191    0.4201 H   0  0  0  0  0  0  0  0  0  0  0  0
    0.4538    4.6375   -5.2968 H   0  0  0  0  0  0  0  0  0  0  0  0
   -0.1740    5.7623   -7.4007 H   0  0  0  0  0  0  0  0  0  0  0  0
   -1.6946    7.7027   -7.3683 H   0  0  0  0  0  0  0  0  0  0  0  0
   -2.3794    9.7134   -5.7721 H   0  0  0  0  0  0  0  0  0  0  0  0
   -3.0062    9.2696   -4.1669 H   0  0  0  0  0  0  0  0  0  0  0  0
   -4.1463    8.0408   -6.7651 H   0  0  0  0  0  0  0  0  0  0  0  0
   -4.7710    9.5463   -6.0057 H   0  0  0  0  0  0  0  0  0  0  0  0
   -4.8420    7.9882   -5.0954 H   0  0  0  0  0  0  0  0  0  0  0  0
   -2.0835    7.3228   -3.0929 H   0  0  0  0  0  0  0  0  0  0  0  0
   -6.9650   -6.0727    1.7182 H   0  0  0  0  0  0  0  0  0  0  0  0
   -8.4619   -7.9134    1.0298 H   0  0  0  0  0  0  0  0  0  0  0  0
   -7.5308  -10.0135    0.1134 H   0  0  0  0  0  0  0  0  0  0  0  0
   -4.0279  -10.3901   -1.0105 H   0  0  0  0  0  0  0  0  0  0  0  0
   -5.6291  -11.1850   -0.9345 H   0  0  0  0  0  0  0  0  0  0  0  0
   -3.7479  -10.8914    1.4741 H   0  0  0  0  0  0  0  0  0  0  0  0
   -3.8231  -12.3436    0.4222 H   0  0  0  0  0  0  0  0  0  0  0  0
   -5.2615  -11.8621    1.4058 H   0  0  0  0  0  0  0  0  0  0  0  0
   -3.5694   -8.3439    0.3589 H   0  0  0  0  0  0  0  0  0  0  0  0
    0.0286    0.6557    1.3999 H   0  0  0  0  0  0  0  0  0  0  0  0
    0.7435    1.6020    0.1592 H   0  0  0  0  0  0  0  0  0  0  0  0
   -0.2470   -1.2623   -0.3445 H   0  0  0  0  0  0  0  0  0  0  0  0
    1.4508   -0.6866   -0.2214 H   0  0  0  0  0  0  0  0  0  0  0  0
    0.4152   -0.1389   -1.5815 H   0  0  0  0  0  0  0  0  0  0  0  0
   -0.5765   -1.2515    2.0516 H   0  0  0  0  0  0  0  0  0  0  0  0
   -1.7178   -2.1179    3.0377 H   0  0  0  0  0  0  0  0  0  0  0  0
   -3.1755   -0.1790    3.3815 H   0  0  0  0  0  0  0  0  0  0  0  0
   -1.5016    0.0970    3.9844 H   0  0  0  0  0  0  0  0  0  0  0  0
   -2.0533    0.8671    2.4586 H   0  0  0  0  0  0  0  0  0  0  0  0
   -3.3628   -3.4989    5.6760 H   0  0  0  0  0  0  0  0  0  0  0  0
   -5.4030   -2.2592    5.1424 H   0  0  0  0  0  0  0  0  0  0  0  0
   -8.3937   -3.7517    3.6177 H   0  0  0  0  0  0  0  0  0  0  0  0
   -8.5322   -3.2763    5.3583 H   0  0  0  0  0  0  0  0  0  0  0  0
   -7.6407   -2.2198    4.1927 H   0  0  0  0  0  0  0  0  0  0  0  0
   -7.5024   -5.9767    4.5527 H   0  0  0  0  0  0  0  0  0  0  0  0
   -5.4574   -7.2192    5.0915 H   0  0  0  0  0  0  0  0  0  0  0  0
   -0.4541   -5.4120    5.4211 H   0  0  0  0  0  0  0  0  0  0  0  0
    1.0634   -4.7636    7.2456 H   0  0  0  0  0  0  0  0  0  0  0  0
    0.5784   -5.5391   10.6099 H   0  0  0  0  0  0  0  0  0  0  0  0
    0.1060   -3.7934   10.4882 H   0  0  0  0  0  0  0  0  0  0  0  0
    1.5210   -4.4190    9.5579 H   0  0  0  0  0  0  0  0  0  0  0  0
   -2.1275   -5.3204   10.0918 H   0  0  0  0  0  0  0  0  0  0  0  0
   -3.6437   -5.9502    8.2588 H   0  0  0  0  0  0  0  0  0  0  0  0
    0.2662  -13.3494    5.6397 H   0  0  0  0  0  0  0  0  0  0  0  0
   -1.1746  -14.9042    6.8643 H   0  0  0  0  0  0  0  0  0  0  0  0
   -3.3325  -15.8484    7.3320 H   0  0  0  0  0  0  0  0  0  0  0  0
   -4.5036  -15.8002    5.9638 H   0  0  0  0  0  0  0  0  0  0  0  0
   -4.5846  -14.5554    7.2733 H   0  0  0  0  0  0  0  0  0  0  0  0
   -4.6083  -13.4053    4.7310 H   0  0  0  0  0  0  0  0  0  0  0  0
   -3.1596  -11.8245    3.5297 H   0  0  0  0  0  0  0  0  0  0  0  0
   -1.3640  -10.8363    1.3695 H   0  0  0  0  0  0  0  0  0  0  0  0
   -0.2183  -11.2650   -0.7360 H   0  0  0  0  0  0  0  0  0  0  0  0
    1.7797  -11.8844   -1.9045 H   0  0  0  0  0  0  0  0  0  0  0  0
    3.2365  -12.3971   -0.9878 H   0  0  0  0  0  0  0  0  0  0  0  0
    1.9772  -13.6171   -1.4397 H   0  0  0  0  0  0  0  0  0  0  0  0
    2.8607  -13.4032    1.3845 H   0  0  0  0  0  0  0  0  0  0  0  0
    1.7156  -12.9276    3.5139 H   0  0  0  0  0  0  0  0  0  0  0  0
    1.5944  -11.4163    5.8309 H   0  0  0  0  0  0  0  0  0  0  0  0
    5.9329   -9.2791    3.0028 H   0  0  0  0  0  0  0  0  0  0  0  0
    6.3722   -7.0049    2.1774 H   0  0  0  0  0  0  0  0  0  0  0  0
  1  2  2  3
  2  3  1  0
  3  4  2  0
  3  5  1  0
  5  6  2  0
  6  7  1  0
  7  8  2  0
  8  9  1  0
  8 10  1  0
 10 11  2  0
 11 12  1  0
 12 13  2  3
 13 14  1  0
 14 15  3  0
 13 16  1  0
 16 17  3  0
  1 18  1  0
 18 19  2  0
 19 20  1  0
 20 21  1  0
 21 22  2  0
 22 23  1  0
 23 24  2  0
 24 25  1  0
 24 26  1  0
 26 27  2  0
 20 28  1  0
 28 29  2  0
 29 30  1  0
 30 31  2  0
 31 32  1  0
 31 33  1  0
 33 34  2  0
 19 35  1  0
 35 36  1  0
 36 37  1  0
 37 38  2  0
 38 39  1  0
 39 40  1  0
 40 41  2  0
 41 42  1  0
 42 43  2  0
 43 44  1  0
 43 45  1  0
 45 46  2  0
 39 47  1  0
 47 48  2  0
 48 49  1  0
 49 50  2  0
 50 51  1  0
 50 52  1  0
 52 53  2  0
 38 54  1  0
 54 55  1  0
 37 56  1  0
 56 57  2  0
 57 58  1  0
 58 59  2  0
 59 60  1  0
 60 61  2  0
 61 62  1  0
 62 63  1  0
 63 64  1  0
 62 65  2  0
 57 66  1  0
 66 67  1  0
 67 68  1  0
 68 69  1  0
 69 70  1  0
 70 71  1  0
 71 72  2  0
 72 73  1  0
 73 74  1  0
 71 75  1  0
 75 76  1  0
 76 77  1  0
 77 78  1  0
 78 79  1  0
 79 80  1  0
 80 81  2  0
 81 82  1  0
 82 83  2  0
 83 84  1  0
 84 85  1  0
 85 86  1  0
 84 87  2  0
 79 88  2  0
 88 89  1  0
 89 90  1  0
 90 91  1  0
 91 92  1  0
 92 93  1  0
 93 94  1  0
 94 95  1  0
 95 96  1  0
 96 97  1  0
 97 98  1  0
 95 99  1  0
 99100  1  0
 92101  1  0
101102  1  0
 88103  1  0
103104  2  0
104105  1  0
105106  1  0
106107  2  0
107108  1  0
108109  2  0
109110  1  0
109111  1  0
111112  2  0
105113  1  0
113114  2  0
114115  1  0
115116  2  0
116117  1  0
116118  1  0
118119  2  0
104120  1  0
120121  1  0
121122  1  0
122123  2  0
123124  1  0
124125  1  0
125126  2  0
126127  1  0
127128  2  0
128129  1  0
128130  1  0
130131  2  0
124132  1  0
132133  2  0
133134  1  0
134135  2  0
135136  1  0
135137  1  0
137138  2  0
123139  1  0
139140  1  0
122141  1  0
141142  2  3
142143  1  0
143144  2  0
143145  1  0
145146  2  0
146147  1  0
147148  2  0
148149  1  0
149150  1  0
149151  2  0
151152  1  0
146153  1  0
153154  2  3
154155  1  0
155156  3  0
154157  1  0
157158  3  0
 12  2  1  0
 55 18  1  0
 98 56  1  0
140103  1  0
153142  1  0
 11  5  1  0
 27 21  1  0
 34 28  1  0
 54 35  2  0
 65 58  1  0
 97 66  2  0
112106  1  0
119113  1  0
139120  2  0
151145  1  0
 46 40  1  0
 53 47  1  0
 96 68  2  0
131125  1  0
138132  1  0
 94 69  2  0
 74 70  2  0
 93 75  2  0
 91 76  2  0
 90 78  2  0
 87 80  1  0
  1159  1  0
  6160  1  0
  7161  1  0
 10162  1  0
 22163  1  0
 23164  1  0
 25165  1  0
 25166  1  0
 25167  1  0
 26168  1  0
 27169  1  0
 29170  1  0
 30171  1  0
 32172  1  0
 32173  1  0
 32174  1  0
 33175  1  0
 34176  1  0
 41177  1  0
 42178  1  0
 44179  1  0
 44180  1  0
 44181  1  0
 45182  1  0
 46183  1  0
 48184  1  0
 49185  1  0
 51186  1  0
 51187  1  0
 51188  1  0
 52189  1  0
 53190  1  0
 59191  1  0
 60192  1  0
 61193  1  0
 63194  1  0
 63195  1  0
 64196  1  0
 64197  1  0
 64198  1  0
 65199  1  0
 81200  1  0
 82201  1  0
 83202  1  0
 85203  1  0
 85204  1  0
 86205  1  0
 86206  1  0
 86207  1  0
 87208  1  0
 99209  1  0
 99210  1  0
100211  1  0
100212  1  0
100213  1  0
101214  1  0
101215  1  0
102216  1  0
102217  1  0
102218  1  0
107219  1  0
108220  1  0
110221  1  0
110222  1  0
110223  1  0
111224  1  0
112225  1  0
114226  1  0
115227  1  0
117228  1  0
117229  1  0
117230  1  0
118231  1  0
119232  1  0
126233  1  0
127234  1  0
129235  1  0
129236  1  0
129237  1  0
130238  1  0
131239  1  0
133240  1  0
134241  1  0
136242  1  0
136243  1  0
136244  1  0
137245  1  0
138246  1  0
141247  1  0
147248  1  0
148249  1  0
M  END

