
     RDKit          3D

194215  0  0  0  0  0  0  0  0999 V2000
   -3.4190    4.5138   -4.2132 C   0  0  0  0  0  0  0  0  0  0  0  0
   -3.1555    4.2615   -5.5066 C   0  0  0  0  0  0  0  0  0  0  0  0
   -1.8681    4.5064   -6.1567 C   0  0  0  0  0  0  0  0  0  0  0  0
   -0.8521    5.0219   -5.6257 O   0  0  0  0  0  0  0  0  0  0  0  0
   -2.0021    4.2038   -7.5611 C   0  0  0  0  0  0  0  0  0  0  0  0
   -1.0240    4.3044   -8.5537 C   0  0  0  0  0  0  0  0  0  0  0  0
   -1.3650    3.9496   -9.8637 C   0  0  0  0  0  0  0  0  0  0  0  0
   -2.6610    3.4986  -10.1586 C   0  0  0  0  0  0  0  0  0  0  0  0
   -3.0763    3.0443  -11.8012 Cl  0  0  0  0  0  0  0  0  0  0  0  0
   -3.6351    3.4226   -9.1500 C   0  0  0  0  0  0  0  0  0  0  0  0
   -3.2964    3.7907   -7.8335 C   0  0  0  0  0  0  0  0  0  0  0  0
   -4.0997    3.7863   -6.5703 C   0  0  0  0  0  0  0  0  0  0  0  0
   -5.3489    3.2748   -6.3958 C   0  0  0  0  0  0  0  0  0  0  0  0
   -5.9491    3.0998   -5.0977 C   0  0  0  0  0  0  0  0  0  0  0  0
   -6.4400    2.9576   -4.0605 N   0  0  0  0  0  0  0  0  0  0  0  0
   -6.1821    2.8482   -7.4884 C   0  0  0  0  0  0  0  0  0  0  0  0
   -6.8729    2.5137   -8.3562 N   0  0  0  0  0  0  0  0  0  0  0  0
   -2.3832    4.5748   -3.1640 C   0  0  0  0  0  0  0  0  0  0  0  0
   -1.4021    3.5935   -2.8954 C   0  0  0  0  0  0  0  0  0  0  0  0
   -1.1365    2.4153   -3.6900 N   0  0  0  0  0  0  0  0  0  0  0  0
    0.2255    1.9895   -3.9282 C   0  0  0  0  0  0  0  0  0  0  0  0
    1.2378    2.9325   -4.1859 C   0  0  0  0  0  0  0  0  0  0  0  0
    2.5445    2.5153   -4.4575 C   0  0  0  0  0  0  0  0  0  0  0  0
    2.8688    1.1510   -4.4480 C   0  0  0  0  0  0  0  0  0  0  0  0
    4.2591    0.7019   -4.7938 C   0  0  0  0  0  0  0  0  0  0  0  0
    1.8675    0.2081   -4.1780 C   0  0  0  0  0  0  0  0  0  0  0  0
    0.5601    0.6243   -3.9127 C   0  0  0  0  0  0  0  0  0  0  0  0
   -2.2275    1.5927   -4.1541 C   0  0  0  0  0  0  0  0  0  0  0  0
   -2.2312    1.1020   -5.4708 C   0  0  0  0  0  0  0  0  0  0  0  0
   -3.2877    0.3125   -5.9289 C   0  0  0  0  0  0  0  0  0  0  0  0
   -4.3465   -0.0126   -5.0682 C   0  0  0  0  0  0  0  0  0  0  0  0
   -5.4843   -0.8696   -5.5429 C   0  0  0  0  0  0  0  0  0  0  0  0
   -4.3351    0.4570   -3.7492 C   0  0  0  0  0  0  0  0  0  0  0  0
   -3.2870    1.2643   -3.2951 C   0  0  0  0  0  0  0  0  0  0  0  0
   -0.7879    3.8380   -1.6701 C   0  0  0  0  0  0  0  0  0  0  0  0
    0.3383    3.0065   -0.7617 S   0  0  0  0  0  0  0  0  0  0  0  0
    0.2977    4.0879    0.5525 C   0  0  0  0  0  0  0  0  0  0  0  0
   -0.6259    5.1249    0.2762 C   0  0  0  0  0  0  0  0  0  0  0  0
   -0.8367    6.3047    1.0908 N   0  0  0  0  0  0  0  0  0  0  0  0
   -2.1616    6.8797    1.1904 C   0  0  0  0  0  0  0  0  0  0  0  0
   -3.2944    6.0538    1.2903 C   0  0  0  0  0  0  0  0  0  0  0  0
   -4.5777    6.6052    1.3614 C   0  0  0  0  0  0  0  0  0  0  0  0
   -4.7511    7.9947    1.3382 C   0  0  0  0  0  0  0  0  0  0  0  0
   -6.1349    8.5757    1.3733 C   0  0  0  0  0  0  0  0  0  0  0  0
   -3.6284    8.8268    1.2322 C   0  0  0  0  0  0  0  0  0  0  0  0
   -2.3457    8.2752    1.1558 C   0  0  0  0  0  0  0  0  0  0  0  0
    0.2887    6.9608    1.7258 C   0  0  0  0  0  0  0  0  0  0  0  0
    1.5522    6.9819    1.1029 C   0  0  0  0  0  0  0  0  0  0  0  0
    2.6598    7.5170    1.7655 C   0  0  0  0  0  0  0  0  0  0  0  0
    2.5190    8.0679    3.0480 C   0  0  0  0  0  0  0  0  0  0  0  0
    3.7076    8.6091    3.7836 C   0  0  0  0  0  0  0  0  0  0  0  0
    1.2538    8.1004    3.6469 C   0  0  0  0  0  0  0  0  0  0  0  0
    0.1461    7.5644    2.9864 C   0  0  0  0  0  0  0  0  0  0  0  0
   -1.2198    4.9264   -0.9819 C   0  0  0  0  0  0  0  0  0  0  0  0
   -2.4271    5.6849   -1.8713 S   0  0  0  0  0  0  0  0  0  0  0  0
    1.1734    3.8971    1.7224 C   0  0  0  0  0  0  0  0  0  0  0  0
    0.8365    3.9412    3.0950 C   0  0  0  0  0  0  0  0  0  0  0  0
   -0.5196    4.1445    3.6338 C   0  0  0  0  0  0  0  0  0  0  0  0
   -1.6074    3.4148    3.1345 C   0  0  0  0  0  0  0  0  0  0  0  0
   -2.8840    3.6026    3.6741 C   0  0  0  0  0  0  0  0  0  0  0  0
   -3.0909    4.5395    4.6905 C   0  0  0  0  0  0  0  0  0  0  0  0
   -2.0102    5.2776    5.1988 C   0  0  0  0  0  0  0  0  0  0  0  0
   -2.2297    6.3174    6.2676 C   0  0  0  0  0  0  0  0  0  0  0  0
   -1.7618    5.8122    7.6285 C   0  0  0  0  0  0  0  0  0  0  0  0
   -0.7205    5.0413    4.6965 C   0  0  0  0  0  0  0  0  0  0  0  0
    1.9022    3.4821    3.8873 C   0  0  0  0  0  0  0  0  0  0  0  0
    1.9186    2.7839    5.4439 S   0  0  0  0  0  0  0  0  0  0  0  0
    3.3962    1.9924    5.1625 C   0  0  0  0  0  0  0  0  0  0  0  0
    3.8370    0.7409    5.5198 C   0  0  0  0  0  0  0  0  0  0  0  0
    3.7156    0.0080    6.7046 C   0  0  0  0  0  0  0  0  0  0  0  0
    4.2442   -1.3217    6.7476 C   0  0  0  0  0  0  0  0  0  0  0  0
    4.1061   -1.9944    7.9163 N   0  0  0  0  0  0  0  0  0  0  0  0
    3.3454   -0.8337    8.8211 S   0  0  0  0  0  0  0  0  0  0  0  0
    3.1514    0.4860    7.8393 N   0  0  0  0  0  0  0  0  0  0  0  0
    4.7566   -1.8887    5.5670 C   0  0  0  0  0  0  0  0  0  0  0  0
    4.8535   -3.2153    5.2256 C   0  0  0  0  0  0  0  0  0  0  0  0
    4.4459   -4.6786    5.9921 S   0  0  0  0  0  0  0  0  0  0  0  0
    4.0777   -5.4179    4.5031 C   0  0  0  0  0  0  0  0  0  0  0  0
    3.4168   -6.6168    4.1930 C   0  0  0  0  0  0  0  0  0  0  0  0
    3.6278   -7.8534    4.9895 C   0  0  0  0  0  0  0  0  0  0  0  0
    4.9348   -8.1592    5.4172 C   0  0  0  0  0  0  0  0  0  0  0  0
    5.2052   -9.3473    6.0940 C   0  0  0  0  0  0  0  0  0  0  0  0
    4.1742  -10.2441    6.3657 C   0  0  0  0  0  0  0  0  0  0  0  0
    2.8599   -9.9516    5.9701 C   0  0  0  0  0  0  0  0  0  0  0  0
    1.7625  -10.9512    6.2247 C   0  0  0  0  0  0  0  0  0  0  0  0
    1.6277  -11.9109    5.0506 C   0  0  0  0  0  0  0  0  0  0  0  0
    2.5934   -8.7591    5.2749 C   0  0  0  0  0  0  0  0  0  0  0  0
    2.9343   -6.5769    2.8632 C   0  0  0  0  0  0  0  0  0  0  0  0
    3.3903   -5.1042    2.1377 S   0  0  0  0  0  0  0  0  0  0  0  0
    4.1993   -4.5199    3.4764 C   0  0  0  0  0  0  0  0  0  0  0  0
    4.6884   -3.2791    3.8752 C   0  0  0  0  0  0  0  0  0  0  0  0
    4.5991   -2.0541    3.3005 N   0  0  0  0  0  0  0  0  0  0  0  0
    4.7308   -1.1794    4.3514 C   0  0  0  0  0  0  0  0  0  0  0  0
    4.4369    0.2058    4.3777 C   0  0  0  0  0  0  0  0  0  0  0  0
    4.5026    1.1400    3.3789 N   0  0  0  0  0  0  0  0  0  0  0  0
    3.8230    2.1959    3.8787 C   0  0  0  0  0  0  0  0  0  0  0  0
    3.0060    3.0707    3.1806 C   0  0  0  0  0  0  0  0  0  0  0  0
    2.7274    3.2339    1.5476 S   0  0  0  0  0  0  0  0  0  0  0  0
    5.4868    1.2939    2.2873 C   0  0  0  0  0  0  0  0  0  0  0  0
    6.7665    0.4792    2.5033 C   0  0  0  0  0  0  0  0  0  0  0  0
    3.9650   -1.8039    1.9999 C   0  0  0  0  0  0  0  0  0  0  0  0
    2.4515   -1.6462    2.1418 C   0  0  0  0  0  0  0  0  0  0  0  0
    1.8548   -7.3841    2.2620 C   0  0  0  0  0  0  0  0  0  0  0  0
    0.5837   -7.3914    2.8657 C   0  0  0  0  0  0  0  0  0  0  0  0
   -0.5501   -7.8261    2.1637 C   0  0  0  0  0  0  0  0  0  0  0  0
   -0.4640   -8.1668    0.8051 C   0  0  0  0  0  0  0  0  0  0  0  0
    0.8069   -8.2346    0.2096 C   0  0  0  0  0  0  0  0  0  0  0  0
    1.0054   -8.6229   -1.0767 N   0  0  0  0  0  0  0  0  0  0  0  0
    2.6407   -8.4266   -1.2029 S   0  0  0  0  0  0  0  0  0  0  0  0
    3.1455   -7.8701    0.2686 N   0  0  0  0  0  0  0  0  0  0  0  0
    1.9654   -7.8378    0.9395 C   0  0  0  0  0  0  0  0  0  0  0  0
   -1.7051   -8.3905    0.0382 C   0  0  0  0  0  0  0  0  0  0  0  0
   -2.0184   -7.7558   -1.1098 C   0  0  0  0  0  0  0  0  0  0  0  0
   -3.0089   -8.2904   -2.0567 C   0  0  0  0  0  0  0  0  0  0  0  0
   -3.8868   -9.1597   -1.8098 O   0  0  0  0  0  0  0  0  0  0  0  0
   -2.7460   -7.6885   -3.3449 C   0  0  0  0  0  0  0  0  0  0  0  0
   -1.7165   -6.7846   -3.2367 C   0  0  0  0  0  0  0  0  0  0  0  0
   -1.3924   -6.1366   -4.4264 C   0  0  0  0  0  0  0  0  0  0  0  0
   -2.4531   -6.7452   -5.6015 S   0  0  0  0  0  0  0  0  0  0  0  0
   -3.2975   -7.8209   -4.6065 C   0  0  0  0  0  0  0  0  0  0  0  0
   -4.4611   -8.6614   -5.0014 C   0  0  0  0  0  0  0  0  0  0  0  0
   -1.2694   -6.6698   -1.8304 C   0  0  0  0  0  0  0  0  0  0  0  0
   -0.6460   -5.5932   -1.2968 C   0  0  0  0  0  0  0  0  0  0  0  0
   -0.7591   -5.2520    0.0950 C   0  0  0  0  0  0  0  0  0  0  0  0
   -0.8459   -4.9530    1.2117 N   0  0  0  0  0  0  0  0  0  0  0  0
    0.0155   -4.6115   -2.1171 C   0  0  0  0  0  0  0  0  0  0  0  0
    0.5548   -3.8186   -2.7648 N   0  0  0  0  0  0  0  0  0  0  0  0
   -4.4333    4.6300   -3.8720 H   0  0  0  0  0  0  0  0  0  0  0  0
   -0.0311    4.6578   -8.3193 H   0  0  0  0  0  0  0  0  0  0  0  0
   -0.6199    4.0171  -10.6471 H   0  0  0  0  0  0  0  0  0  0  0  0
   -4.6164    3.0843   -9.4216 H   0  0  0  0  0  0  0  0  0  0  0  0
    1.0166    3.9913   -4.1904 H   0  0  0  0  0  0  0  0  0  0  0  0
    3.3027    3.2530   -4.6782 H   0  0  0  0  0  0  0  0  0  0  0  0
    4.3559    0.6251   -5.8948 H   0  0  0  0  0  0  0  0  0  0  0  0
    5.0114    1.4241   -4.4157 H   0  0  0  0  0  0  0  0  0  0  0  0
    4.4829   -0.2897   -4.3455 H   0  0  0  0  0  0  0  0  0  0  0  0
    2.0956   -0.8515   -4.1753 H   0  0  0  0  0  0  0  0  0  0  0  0
   -0.1883   -0.1242   -3.6928 H   0  0  0  0  0  0  0  0  0  0  0  0
   -1.4243    1.3524   -6.1506 H   0  0  0  0  0  0  0  0  0  0  0  0
   -3.2806   -0.0371   -6.9547 H   0  0  0  0  0  0  0  0  0  0  0  0
   -6.4500   -0.3604   -5.3338 H   0  0  0  0  0  0  0  0  0  0  0  0
   -5.4203   -1.0622   -6.6355 H   0  0  0  0  0  0  0  0  0  0  0  0
   -5.4616   -1.8404   -5.0059 H   0  0  0  0  0  0  0  0  0  0  0  0
   -5.1478    0.2118   -3.0757 H   0  0  0  0  0  0  0  0  0  0  0  0
   -3.2979    1.6197   -2.2734 H   0  0  0  0  0  0  0  0  0  0  0  0
   -3.1895    4.9778    1.2872 H   0  0  0  0  0  0  0  0  0  0  0  0
   -5.4376    5.9469    1.4228 H   0  0  0  0  0  0  0  0  0  0  0  0
   -6.1099    9.6759    1.5253 H   0  0  0  0  0  0  0  0  0  0  0  0
   -6.7153    8.1236    2.2055 H   0  0  0  0  0  0  0  0  0  0  0  0
   -6.6556    8.3632    0.4148 H   0  0  0  0  0  0  0  0  0  0  0  0
   -3.7415    9.9021    1.2021 H   0  0  0  0  0  0  0  0  0  0  0  0
   -1.4974    8.9386    1.0546 H   0  0  0  0  0  0  0  0  0  0  0  0
    1.6863    6.5669    0.1125 H   0  0  0  0  0  0  0  0  0  0  0  0
    3.6248    7.4995    1.2770 H   0  0  0  0  0  0  0  0  0  0  0  0
    4.6427    8.4874    3.1975 H   0  0  0  0  0  0  0  0  0  0  0  0
    3.5604    9.6901    3.9907 H   0  0  0  0  0  0  0  0  0  0  0  0
    3.8278    8.0699    4.7470 H   0  0  0  0  0  0  0  0  0  0  0  0
    1.1273    8.5287    4.6310 H   0  0  0  0  0  0  0  0  0  0  0  0
   -0.8193    7.5895    3.4784 H   0  0  0  0  0  0  0  0  0  0  0  0
   -1.4678    2.6885    2.3419 H   0  0  0  0  0  0  0  0  0  0  0  0
   -3.7192    3.0333    3.2851 H   0  0  0  0  0  0  0  0  0  0  0  0
   -4.0929    4.6914    5.0747 H   0  0  0  0  0  0  0  0  0  0  0  0
   -1.6711    7.2405    6.0068 H   0  0  0  0  0  0  0  0  0  0  0  0
   -3.3038    6.5955    6.3303 H   0  0  0  0  0  0  0  0  0  0  0  0
   -1.9915    6.5741    8.4019 H   0  0  0  0  0  0  0  0  0  0  0  0
   -2.2815    4.8679    7.8905 H   0  0  0  0  0  0  0  0  0  0  0  0
   -0.6648    5.6374    7.6177 H   0  0  0  0  0  0  0  0  0  0  0  0
    0.1186    5.5924    5.1048 H   0  0  0  0  0  0  0  0  0  0  0  0
    5.7575   -7.4902    5.1964 H   0  0  0  0  0  0  0  0  0  0  0  0
    6.2202   -9.5772    6.3963 H   0  0  0  0  0  0  0  0  0  0  0  0
    4.4022  -11.1709    6.8764 H   0  0  0  0  0  0  0  0  0  0  0  0
    0.7969  -10.4259    6.3854 H   0  0  0  0  0  0  0  0  0  0  0  0
    1.9806  -11.5344    7.1479 H   0  0  0  0  0  0  0  0  0  0  0  0
    0.8257  -12.6490    5.2588 H   0  0  0  0  0  0  0  0  0  0  0  0
    1.3671  -11.3545    4.1256 H   0  0  0  0  0  0  0  0  0  0  0  0
    2.5817  -12.4596    4.8925 H   0  0  0  0  0  0  0  0  0  0  0  0
    1.5806   -8.5505    4.9823 H   0  0  0  0  0  0  0  0  0  0  0  0
    5.7999    2.3618    2.2317 H   0  0  0  0  0  0  0  0  0  0  0  0
    5.0272    1.0811    1.3031 H   0  0  0  0  0  0  0  0  0  0  0  0
    7.1528    0.6281    3.5307 H   0  0  0  0  0  0  0  0  0  0  0  0
    7.5444    0.8206    1.7885 H   0  0  0  0  0  0  0  0  0  0  0  0
    6.5941   -0.5976    2.3249 H   0  0  0  0  0  0  0  0  0  0  0  0
    4.3775   -0.9159    1.5227 H   0  0  0  0  0  0  0  0  0  0  0  0
    4.1935   -2.6312    1.2982 H   0  0  0  0  0  0  0  0  0  0  0  0
    2.0134   -2.5287    2.6536 H   0  0  0  0  0  0  0  0  0  0  0  0
    2.2129   -0.7332    2.7272 H   0  0  0  0  0  0  0  0  0  0  0  0
    1.9925   -1.5529    1.1335 H   0  0  0  0  0  0  0  0  0  0  0  0
    0.4437   -6.9640    3.8517 H   0  0  0  0  0  0  0  0  0  0  0  0
   -1.5186   -7.7774    2.6472 H   0  0  0  0  0  0  0  0  0  0  0  0
   -2.3733   -9.1562    0.4111 H   0  0  0  0  0  0  0  0  0  0  0  0
   -0.6331   -5.3898   -4.5899 H   0  0  0  0  0  0  0  0  0  0  0  0
   -4.3162   -9.6987   -4.6368 H   0  0  0  0  0  0  0  0  0  0  0  0
   -5.3883   -8.2429   -4.5626 H   0  0  0  0  0  0  0  0  0  0  0  0
   -4.5584   -8.6801   -6.1072 H   0  0  0  0  0  0  0  0  0  0  0  0
  1  2  2  3
  2  3  1  0
  3  4  2  0
  3  5  1  0
  5  6  2  0
  6  7  1  0
  7  8  2  0
  8  9  1  0
  8 10  1  0
 10 11  2  0
 11 12  1  0
 12 13  2  3
 13 14  1  0
 14 15  3  0
 13 16  1  0
 16 17  3  0
  1 18  1  0
 18 19  2  0
 19 20  1  0
 20 21  1  0
 21 22  2  0
 22 23  1  0
 23 24  2  0
 24 25  1  0
 24 26  1  0
 26 27  2  0
 20 28  1  0
 28 29  2  0
 29 30  1  0
 30 31  2  0
 31 32  1  0
 31 33  1  0
 33 34  2  0
 19 35  1  0
 35 36  1  0
 36 37  1  0
 37 38  2  0
 38 39  1  0
 39 40  1  0
 40 41  2  0
 41 42  1  0
 42 43  2  0
 43 44  1  0
 43 45  1  0
 45 46  2  0
 39 47  1  0
 47 48  2  0
 48 49  1  0
 49 50  2  0
 50 51  1  0
 50 52  1  0
 52 53  2  0
 38 54  1  0
 54 55  1  0
 37 56  1  0
 56 57  2  0
 57 58  1  0
 58 59  2  0
 59 60  1  0
 60 61  2  0
 61 62  1  0
 62 63  1  0
 63 64  1  0
 62 65  2  0
 57 66  1  0
 66 67  1  0
 67 68  1  0
 68 69  1  0
 69 70  1  0
 70 71  1  0
 71 72  2  0
 72 73  1  0
 73 74  1  0
 71 75  1  0
 75 76  1  0
 76 77  1  0
 77 78  1  0
 78 79  1  0
 79 80  1  0
 80 81  2  0
 81 82  1  0
 82 83  2  0
 83 84  1  0
 84 85  1  0
 85 86  1  0
 84 87  2  0
 79 88  2  0
 88 89  1  0
 89 90  1  0
 90 91  1  0
 91 92  1  0
 92 93  1  0
 93 94  1  0
 94 95  1  0
 95 96  1  0
 96 97  1  0
 97 98  1  0
 95 99  1  0
 99100  1  0
 92101  1  0
101102  1  0
 88103  1  0
103104  2  0
104105  1  0
105106  2  0
106107  1  0
107108  2  0
108109  1  0
109110  1  0
110111  2  0
106112  1  0
112113  2  3
113114  1  0
114115  2  0
114116  1  0
116117  1  0
117118  2  0
118119  1  0
119120  1  0
120121  1  0
117122  1  0
122123  2  3
123124  1  0
124125  3  0
123126  1  0
126127  3  0
 12  2  1  0
 55 18  1  0
 98 56  1  0
111103  1  0
122113  1  0
 11  5  1  0
 27 21  1  0
 34 28  1  0
 54 35  2  0
 65 58  1  0
 97 66  2  0
111107  1  0
120116  2  0
 46 40  1  0
 53 47  1  0
 96 68  2  0
 94 69  2  0
 74 70  2  0
 93 75  2  0
 91 76  2  0
 90 78  2  0
 87 80  1  0
  1128  1  0
  6129  1  0
  7130  1  0
 10131  1  0
 22132  1  0
 23133  1  0
 25134  1  0
 25135  1  0
 25136  1  0
 26137  1  0
 27138  1  0
 29139  1  0
 30140  1  0
 32141  1  0
 32142  1  0
 32143  1  0
 33144  1  0
 34145  1  0
 41146  1  0
 42147  1  0
 44148  1  0
 44149  1  0
 44150  1  0
 45151  1  0
 46152  1  0
 48153  1  0
 49154  1  0
 51155  1  0
 51156  1  0
 51157  1  0
 52158  1  0
 53159  1  0
 59160  1  0
 60161  1  0
 61162  1  0
 63163  1  0
 63164  1  0
 64165  1  0
 64166  1  0
 64167  1  0
 65168  1  0
 81169  1  0
 82170  1  0
 83171  1  0
 85172  1  0
 85173  1  0
 86174  1  0
 86175  1  0
 86176  1  0
 87177  1  0
 99178  1  0
 99179  1  0
100180  1  0
100181  1  0
100182  1  0
101183  1  0
101184  1  0
102185  1  0
102186  1  0
102187  1  0
104188  1  0
105189  1  0
112190  1  0
118191  1  0
121192  1  0
121193  1  0
121194  1  0
M  END

