
     RDKit          3D

229252  0  0  0  0  0  0  0  0999 V2000
   -0.5002    6.9761    3.4973 C   0  0  0  0  0  0  0  0  0  0  0  0
   -1.5890    6.4438    4.0906 C   0  0  0  0  0  0  0  0  0  0  0  0
   -2.6456    7.3063    4.6476 C   0  0  0  0  0  0  0  0  0  0  0  0
   -2.6832    8.5642    4.5684 O   0  0  0  0  0  0  0  0  0  0  0  0
   -3.6274    6.4852    5.3189 C   0  0  0  0  0  0  0  0  0  0  0  0
   -4.8741    6.8736    5.8181 C   0  0  0  0  0  0  0  0  0  0  0  0
   -5.7670    5.8766    6.2474 C   0  0  0  0  0  0  0  0  0  0  0  0
   -5.4236    4.5174    6.1255 C   0  0  0  0  0  0  0  0  0  0  0  0
   -6.5853    3.2706    6.5622 Cl  0  0  0  0  0  0  0  0  0  0  0  0
   -4.1693    4.1541    5.6012 C   0  0  0  0  0  0  0  0  0  0  0  0
   -3.2493    5.1608    5.2428 C   0  0  0  0  0  0  0  0  0  0  0  0
   -1.9667    5.0466    4.4948 C   0  0  0  0  0  0  0  0  0  0  0  0
   -1.3317    3.8802    4.2407 C   0  0  0  0  0  0  0  0  0  0  0  0
   -0.7001    3.6231    2.9762 C   0  0  0  0  0  0  0  0  0  0  0  0
   -0.2161    3.3701    1.9555 N   0  0  0  0  0  0  0  0  0  0  0  0
   -1.4802    2.7310    5.0987 C   0  0  0  0  0  0  0  0  0  0  0  0
   -1.5963    1.8062    5.7833 N   0  0  0  0  0  0  0  0  0  0  0  0
    0.6695    6.2618    2.9873 C   0  0  0  0  0  0  0  0  0  0  0  0
    1.7254    5.6800    3.7236 C   0  0  0  0  0  0  0  0  0  0  0  0
    1.7927    5.6108    5.1668 N   0  0  0  0  0  0  0  0  0  0  0  0
    2.3594    4.4548    5.8264 C   0  0  0  0  0  0  0  0  0  0  0  0
    3.2895    4.6145    6.8728 C   0  0  0  0  0  0  0  0  0  0  0  0
    3.9162    3.5014    7.4416 C   0  0  0  0  0  0  0  0  0  0  0  0
    3.6171    2.2099    6.9857 C   0  0  0  0  0  0  0  0  0  0  0  0
    4.3412    1.0218    7.5478 C   0  0  0  0  0  0  0  0  0  0  0  0
    2.6850    2.0425    5.9541 C   0  0  0  0  0  0  0  0  0  0  0  0
    2.0585    3.1554    5.3878 C   0  0  0  0  0  0  0  0  0  0  0  0
    1.4619    6.7818    5.9345 C   0  0  0  0  0  0  0  0  0  0  0  0
    2.0063    8.0281    5.5895 C   0  0  0  0  0  0  0  0  0  0  0  0
    1.7093    9.1621    6.3472 C   0  0  0  0  0  0  0  0  0  0  0  0
    0.8470    9.0704    7.4502 C   0  0  0  0  0  0  0  0  0  0  0  0
    0.5796   10.2771    8.2958 C   0  0  0  0  0  0  0  0  0  0  0  0
    0.3177    7.8192    7.8087 C   0  0  0  0  0  0  0  0  0  0  0  0
    0.6203    6.6836    7.0500 C   0  0  0  0  0  0  0  0  0  0  0  0
    2.6954    5.1612    2.8594 C   0  0  0  0  0  0  0  0  0  0  0  0
    4.0146    4.1610    3.0524 S   0  0  0  0  0  0  0  0  0  0  0  0
    4.1727    3.7330    1.4076 C   0  0  0  0  0  0  0  0  0  0  0  0
    3.1985    4.4666    0.6857 C   0  0  0  0  0  0  0  0  0  0  0  0
    2.9501    4.4068   -0.7323 N   0  0  0  0  0  0  0  0  0  0  0  0
    2.9302    5.6874   -1.4074 C   0  0  0  0  0  0  0  0  0  0  0  0
    3.9916    6.5848   -1.2304 C   0  0  0  0  0  0  0  0  0  0  0  0
    3.9207    7.8848   -1.7326 C   0  0  0  0  0  0  0  0  0  0  0  0
    2.7865    8.3095   -2.4322 C   0  0  0  0  0  0  0  0  0  0  0  0
    2.6711    9.7340   -2.8938 C   0  0  0  0  0  0  0  0  0  0  0  0
    1.7131    7.4238   -2.6060 C   0  0  0  0  0  0  0  0  0  0  0  0
    1.7819    6.1236   -2.1006 C   0  0  0  0  0  0  0  0  0  0  0  0
    2.3816    3.2310   -1.3642 C   0  0  0  0  0  0  0  0  0  0  0  0
    2.3614    3.1172   -2.7651 C   0  0  0  0  0  0  0  0  0  0  0  0
    1.7690    2.0180   -3.3896 C   0  0  0  0  0  0  0  0  0  0  0  0
    1.1820    1.0047   -2.6277 C   0  0  0  0  0  0  0  0  0  0  0  0
    0.5050   -0.1410   -3.3161 C   0  0  0  0  0  0  0  0  0  0  0  0
    1.2135    1.0914   -1.2258 C   0  0  0  0  0  0  0  0  0  0  0  0
    1.8045    2.1944   -0.6011 C   0  0  0  0  0  0  0  0  0  0  0  0
    2.4209    5.2634    1.5363 C   0  0  0  0  0  0  0  0  0  0  0  0
    1.0013    6.1232    1.3216 S   0  0  0  0  0  0  0  0  0  0  0  0
    4.6386    2.3692    1.0944 C   0  0  0  0  0  0  0  0  0  0  0  0
    5.2442    1.8492   -0.0724 C   0  0  0  0  0  0  0  0  0  0  0  0
    5.7320    2.6456   -1.2150 C   0  0  0  0  0  0  0  0  0  0  0  0
    5.3940    2.2803   -2.5263 C   0  0  0  0  0  0  0  0  0  0  0  0
    5.8597    3.0219   -3.6110 C   0  0  0  0  0  0  0  0  0  0  0  0
    6.7258    4.0988   -3.4018 C   0  0  0  0  0  0  0  0  0  0  0  0
    7.1291    4.4419   -2.0992 C   0  0  0  0  0  0  0  0  0  0  0  0
    8.1900    5.4966   -1.8907 C   0  0  0  0  0  0  0  0  0  0  0  0
    7.6408    6.7530   -1.2345 C   0  0  0  0  0  0  0  0  0  0  0  0
    6.6013    3.7325   -1.0089 C   0  0  0  0  0  0  0  0  0  0  0  0
    5.3172    0.4423    0.0010 C   0  0  0  0  0  0  0  0  0  0  0  0
    5.7121   -0.8215   -1.0967 S   0  0  0  0  0  0  0  0  0  0  0  0
    5.1806   -2.0090    0.0031 C   0  0  0  0  0  0  0  0  0  0  0  0
    4.8468   -3.3368    0.0610 C   0  0  0  0  0  0  0  0  0  0  0  0
    5.0723   -4.4184   -0.7969 C   0  0  0  0  0  0  0  0  0  0  0  0
    4.4757   -5.6797   -0.4735 C   0  0  0  0  0  0  0  0  0  0  0  0
    4.6831   -6.6925   -1.3481 N   0  0  0  0  0  0  0  0  0  0  0  0
    5.6483   -5.9205   -2.4489 S   0  0  0  0  0  0  0  0  0  0  0  0
    5.8108   -4.3567   -1.9260 N   0  0  0  0  0  0  0  0  0  0  0  0
    3.6218   -5.7681    0.6417 C   0  0  0  0  0  0  0  0  0  0  0  0
    2.6175   -6.6638    0.8967 C   0  0  0  0  0  0  0  0  0  0  0  0
    1.9354   -7.9420    0.0144 S   0  0  0  0  0  0  0  0  0  0  0  0
    0.4046   -7.6910    0.7208 C   0  0  0  0  0  0  0  0  0  0  0  0
   -0.8715   -8.1507    0.3693 C   0  0  0  0  0  0  0  0  0  0  0  0
   -1.1212   -9.3371   -0.4799 C   0  0  0  0  0  0  0  0  0  0  0  0
   -0.4181   -9.5353   -1.6805 C   0  0  0  0  0  0  0  0  0  0  0  0
   -0.5468  -10.7358   -2.3812 C   0  0  0  0  0  0  0  0  0  0  0  0
   -1.3848  -11.7435   -1.9015 C   0  0  0  0  0  0  0  0  0  0  0  0
   -2.1277  -11.5491   -0.7300 C   0  0  0  0  0  0  0  0  0  0  0  0
   -2.9804  -12.6580   -0.1723 C   0  0  0  0  0  0  0  0  0  0  0  0
   -2.2462  -13.3858    0.9567 C   0  0  0  0  0  0  0  0  0  0  0  0
   -1.9979  -10.3359   -0.0321 C   0  0  0  0  0  0  0  0  0  0  0  0
   -1.8832   -7.3561    0.9378 C   0  0  0  0  0  0  0  0  0  0  0  0
   -1.1413   -6.1138    1.8458 S   0  0  0  0  0  0  0  0  0  0  0  0
    0.4318   -6.6068    1.5597 C   0  0  0  0  0  0  0  0  0  0  0  0
    1.6993   -6.0263    1.6781 C   0  0  0  0  0  0  0  0  0  0  0  0
    2.0941   -4.7721    2.0177 N   0  0  0  0  0  0  0  0  0  0  0  0
    3.3338   -4.6492    1.4381 C   0  0  0  0  0  0  0  0  0  0  0  0
    4.0841   -3.4712    1.2306 C   0  0  0  0  0  0  0  0  0  0  0  0
    4.0757   -2.3226    1.9574 N   0  0  0  0  0  0  0  0  0  0  0  0
    4.7155   -1.4512    1.1433 C   0  0  0  0  0  0  0  0  0  0  0  0
    4.8137   -0.0834    1.1575 C   0  0  0  0  0  0  0  0  0  0  0  0
    4.2219    1.0940    2.1522 S   0  0  0  0  0  0  0  0  0  0  0  0
    4.0488   -2.2179    3.4253 C   0  0  0  0  0  0  0  0  0  0  0  0
    5.4516   -2.0461    4.0027 C   0  0  0  0  0  0  0  0  0  0  0  0
    1.1852   -3.6919    2.4435 C   0  0  0  0  0  0  0  0  0  0  0  0
    0.6553   -2.8991    1.2537 C   0  0  0  0  0  0  0  0  0  0  0  0
   -3.1748   -7.1103    0.2745 C   0  0  0  0  0  0  0  0  0  0  0  0
   -4.3620   -7.6657    0.7600 C   0  0  0  0  0  0  0  0  0  0  0  0
   -5.5957   -7.3064    0.1906 C   0  0  0  0  0  0  0  0  0  0  0  0
   -5.6537   -6.3352   -0.8290 C   0  0  0  0  0  0  0  0  0  0  0  0
   -4.4497   -5.8074   -1.3374 C   0  0  0  0  0  0  0  0  0  0  0  0
   -4.4538   -4.8669   -2.3168 N   0  0  0  0  0  0  0  0  0  0  0  0
   -3.3173   -4.3000   -2.7963 C   0  0  0  0  0  0  0  0  0  0  0  0
   -3.4772   -3.1246   -3.6728 C   0  0  0  0  0  0  0  0  0  0  0  0
   -2.9984   -1.8689   -3.2749 C   0  0  0  0  0  0  0  0  0  0  0  0
   -3.2649   -0.7378   -4.0510 C   0  0  0  0  0  0  0  0  0  0  0  0
   -4.0085   -0.8521   -5.2352 C   0  0  0  0  0  0  0  0  0  0  0  0
   -4.3297    0.3722   -6.0502 C   0  0  0  0  0  0  0  0  0  0  0  0
   -5.4574    1.1699   -5.4063 C   0  0  0  0  0  0  0  0  0  0  0  0
   -4.4975   -2.1078   -5.6221 C   0  0  0  0  0  0  0  0  0  0  0  0
   -4.2374   -3.2361   -4.8401 C   0  0  0  0  0  0  0  0  0  0  0  0
   -2.0667   -4.7682   -2.3173 C   0  0  0  0  0  0  0  0  0  0  0  0
   -2.0768   -5.6930   -1.3216 N   0  0  0  0  0  0  0  0  0  0  0  0
   -3.2204   -6.2047   -0.8001 C   0  0  0  0  0  0  0  0  0  0  0  0
   -0.7345   -4.3181   -2.8239 C   0  0  0  0  0  0  0  0  0  0  0  0
    0.3932   -4.4512   -1.9957 C   0  0  0  0  0  0  0  0  0  0  0  0
    1.6542   -4.0350   -2.4202 C   0  0  0  0  0  0  0  0  0  0  0  0
    1.8308   -3.5148   -3.7058 C   0  0  0  0  0  0  0  0  0  0  0  0
    3.1948   -3.0624   -4.1713 C   0  0  0  0  0  0  0  0  0  0  0  0
    3.7717   -4.0315   -5.2017 C   0  0  0  0  0  0  0  0  0  0  0  0
    0.7282   -3.4357   -4.5651 C   0  0  0  0  0  0  0  0  0  0  0  0
   -0.5397   -3.8534   -4.1378 C   0  0  0  0  0  0  0  0  0  0  0  0
   -6.9678   -5.9732   -1.4080 C   0  0  0  0  0  0  0  0  0  0  0  0
   -7.3884   -4.7108   -1.6140 C   0  0  0  0  0  0  0  0  0  0  0  0
   -6.8508   -3.5028   -0.9710 C   0  0  0  0  0  0  0  0  0  0  0  0
   -5.8388   -3.4386   -0.2266 O   0  0  0  0  0  0  0  0  0  0  0  0
   -7.7670   -2.4078   -1.2227 C   0  0  0  0  0  0  0  0  0  0  0  0
   -7.6991   -1.0985   -0.7415 C   0  0  0  0  0  0  0  0  0  0  0  0
   -8.7648   -0.2323   -1.0139 C   0  0  0  0  0  0  0  0  0  0  0  0
   -9.8848   -0.6908   -1.7296 C   0  0  0  0  0  0  0  0  0  0  0  0
  -11.2431    0.3841   -2.0030 Cl  0  0  0  0  0  0  0  0  0  0  0  0
   -9.9323   -2.0128   -2.1997 C   0  0  0  0  0  0  0  0  0  0  0  0
   -8.8376   -2.8605   -1.9659 C   0  0  0  0  0  0  0  0  0  0  0  0
   -8.6205   -4.2830   -2.3493 C   0  0  0  0  0  0  0  0  0  0  0  0
   -9.2131   -4.9413   -3.3803 C   0  0  0  0  0  0  0  0  0  0  0  0
   -8.7251   -6.2099   -3.8626 C   0  0  0  0  0  0  0  0  0  0  0  0
   -8.3390   -7.2251   -4.2595 N   0  0  0  0  0  0  0  0  0  0  0  0
  -10.2523   -4.3474   -4.1805 C   0  0  0  0  0  0  0  0  0  0  0  0
  -11.0776   -3.8844   -4.8413 N   0  0  0  0  0  0  0  0  0  0  0  0
   -0.4833    8.0492    3.3331 H   0  0  0  0  0  0  0  0  0  0  0  0
   -5.1569    7.9143    5.8313 H   0  0  0  0  0  0  0  0  0  0  0  0
   -6.7435    6.1626    6.6165 H   0  0  0  0  0  0  0  0  0  0  0  0
   -3.9642    3.1103    5.4296 H   0  0  0  0  0  0  0  0  0  0  0  0
    3.5630    5.6033    7.2148 H   0  0  0  0  0  0  0  0  0  0  0  0
    4.6547    3.6527    8.2222 H   0  0  0  0  0  0  0  0  0  0  0  0
    4.6228    1.2006    8.6092 H   0  0  0  0  0  0  0  0  0  0  0  0
    3.7000    0.1152    7.5017 H   0  0  0  0  0  0  0  0  0  0  0  0
    5.2609    0.8467    6.9527 H   0  0  0  0  0  0  0  0  0  0  0  0
    2.4671    1.0565    5.5662 H   0  0  0  0  0  0  0  0  0  0  0  0
    1.3816    3.0036    4.5638 H   0  0  0  0  0  0  0  0  0  0  0  0
    2.6691    8.1202    4.7408 H   0  0  0  0  0  0  0  0  0  0  0  0
    2.1470   10.1145    6.0756 H   0  0  0  0  0  0  0  0  0  0  0  0
    1.4200   10.4211    9.0069 H   0  0  0  0  0  0  0  0  0  0  0  0
   -0.3636   10.1626    8.8692 H   0  0  0  0  0  0  0  0  0  0  0  0
    0.4877   11.1831    7.6602 H   0  0  0  0  0  0  0  0  0  0  0  0
   -0.3276    7.7239    8.6729 H   0  0  0  0  0  0  0  0  0  0  0  0
    0.1944    5.7257    7.3264 H   0  0  0  0  0  0  0  0  0  0  0  0
    4.8584    6.2820   -0.6594 H   0  0  0  0  0  0  0  0  0  0  0  0
    4.7438    8.5623   -1.5579 H   0  0  0  0  0  0  0  0  0  0  0  0
    2.0717   10.3119   -2.1589 H   0  0  0  0  0  0  0  0  0  0  0  0
    2.1726    9.7774   -3.8852 H   0  0  0  0  0  0  0  0  0  0  0  0
    3.6729   10.2026   -2.9877 H   0  0  0  0  0  0  0  0  0  0  0  0
    0.8148    7.7539   -3.1086 H   0  0  0  0  0  0  0  0  0  0  0  0
    0.9222    5.4704   -2.2065 H   0  0  0  0  0  0  0  0  0  0  0  0
    2.8157    3.8780   -3.3874 H   0  0  0  0  0  0  0  0  0  0  0  0
    1.7554    1.9646   -4.4700 H   0  0  0  0  0  0  0  0  0  0  0  0
   -0.3574    0.2355   -3.9039 H   0  0  0  0  0  0  0  0  0  0  0  0
    0.1391   -0.8967   -2.5920 H   0  0  0  0  0  0  0  0  0  0  0  0
    1.2210   -0.6240   -4.0108 H   0  0  0  0  0  0  0  0  0  0  0  0
    0.7649    0.3153   -0.6179 H   0  0  0  0  0  0  0  0  0  0  0  0
    1.7983    2.2409    0.4752 H   0  0  0  0  0  0  0  0  0  0  0  0
    4.7341    1.4420   -2.7103 H   0  0  0  0  0  0  0  0  0  0  0  0
    5.5704    2.7504   -4.6180 H   0  0  0  0  0  0  0  0  0  0  0  0
    7.1140    4.6355   -4.2576 H   0  0  0  0  0  0  0  0  0  0  0  0
    9.0008    5.0736   -1.2612 H   0  0  0  0  0  0  0  0  0  0  0  0
    8.6512    5.7755   -2.8605 H   0  0  0  0  0  0  0  0  0  0  0  0
    7.2034    6.5156   -0.2410 H   0  0  0  0  0  0  0  0  0  0  0  0
    8.4656    7.4821   -1.0927 H   0  0  0  0  0  0  0  0  0  0  0  0
    6.8707    7.2150   -1.8879 H   0  0  0  0  0  0  0  0  0  0  0  0
    6.8972    3.9935    0.0023 H   0  0  0  0  0  0  0  0  0  0  0  0
    0.2278   -8.7634   -2.0783 H   0  0  0  0  0  0  0  0  0  0  0  0
    0.0125  -10.8901   -3.2979 H   0  0  0  0  0  0  0  0  0  0  0  0
   -1.4490  -12.6825   -2.4376 H   0  0  0  0  0  0  0  0  0  0  0  0
   -3.9301  -12.2384    0.2208 H   0  0  0  0  0  0  0  0  0  0  0  0
   -3.2405  -13.3930   -0.9645 H   0  0  0  0  0  0  0  0  0  0  0  0
   -1.9838  -12.6780    1.7700 H   0  0  0  0  0  0  0  0  0  0  0  0
   -1.3210  -13.8591    0.5701 H   0  0  0  0  0  0  0  0  0  0  0  0
   -2.9039  -14.1747    1.3840 H   0  0  0  0  0  0  0  0  0  0  0  0
   -2.5391  -10.2041    0.8982 H   0  0  0  0  0  0  0  0  0  0  0  0
    3.6518   -3.1504    3.8694 H   0  0  0  0  0  0  0  0  0  0  0  0
    3.4077   -1.3655    3.7283 H   0  0  0  0  0  0  0  0  0  0  0  0
    6.1021   -2.8849    3.6657 H   0  0  0  0  0  0  0  0  0  0  0  0
    5.8908   -1.0826    3.6685 H   0  0  0  0  0  0  0  0  0  0  0  0
    5.4038   -2.0457    5.1141 H   0  0  0  0  0  0  0  0  0  0  0  0
    1.6625   -2.9999    3.1439 H   0  0  0  0  0  0  0  0  0  0  0  0
    0.3320   -4.1082    3.0156 H   0  0  0  0  0  0  0  0  0  0  0  0
   -0.0948   -3.4935    0.7034 H   0  0  0  0  0  0  0  0  0  0  0  0
    1.4835   -2.6056    0.5798 H   0  0  0  0  0  0  0  0  0  0  0  0
    0.1584   -1.9750    1.6104 H   0  0  0  0  0  0  0  0  0  0  0  0
   -4.3407   -8.3757    1.5822 H   0  0  0  0  0  0  0  0  0  0  0  0
   -6.5056   -7.7504    0.5747 H   0  0  0  0  0  0  0  0  0  0  0  0
   -2.4500   -1.7585   -2.3463 H   0  0  0  0  0  0  0  0  0  0  0  0
   -2.9074    0.2280   -3.7218 H   0  0  0  0  0  0  0  0  0  0  0  0
   -3.4273    1.0146   -6.1369 H   0  0  0  0  0  0  0  0  0  0  0  0
   -4.6306    0.0886   -7.0838 H   0  0  0  0  0  0  0  0  0  0  0  0
   -6.3839    0.5579   -5.3546 H   0  0  0  0  0  0  0  0  0  0  0  0
   -5.6663    2.0772   -6.0135 H   0  0  0  0  0  0  0  0  0  0  0  0
   -5.1708    1.4932   -4.3833 H   0  0  0  0  0  0  0  0  0  0  0  0
   -5.0868   -2.2143   -6.5246 H   0  0  0  0  0  0  0  0  0  0  0  0
   -4.6412   -4.1956   -5.1444 H   0  0  0  0  0  0  0  0  0  0  0  0
    0.3065   -4.8825   -1.0081 H   0  0  0  0  0  0  0  0  0  0  0  0
    2.4875   -4.1199   -1.7401 H   0  0  0  0  0  0  0  0  0  0  0  0
    3.8946   -2.9879   -3.3132 H   0  0  0  0  0  0  0  0  0  0  0  0
    3.1096   -2.0511   -4.6202 H   0  0  0  0  0  0  0  0  0  0  0  0
    4.6864   -3.5968   -5.6473 H   0  0  0  0  0  0  0  0  0  0  0  0
    4.0334   -4.9930   -4.7245 H   0  0  0  0  0  0  0  0  0  0  0  0
    3.0433   -4.2151   -6.0146 H   0  0  0  0  0  0  0  0  0  0  0  0
    0.8502   -3.0620   -5.5727 H   0  0  0  0  0  0  0  0  0  0  0  0
   -1.3413   -3.8391   -4.8576 H   0  0  0  0  0  0  0  0  0  0  0  0
   -7.6139   -6.7980   -1.6661 H   0  0  0  0  0  0  0  0  0  0  0  0
   -6.8505   -0.7612   -0.1644 H   0  0  0  0  0  0  0  0  0  0  0  0
   -8.7324    0.7876   -0.6485 H   0  0  0  0  0  0  0  0  0  0  0  0
  -10.8244   -2.3606   -2.6912 H   0  0  0  0  0  0  0  0  0  0  0  0
  1  2  2  3
  2  3  1  0
  3  4  2  0
  3  5  1  0
  5  6  2  0
  6  7  1  0
  7  8  2  0
  8  9  1  0
  8 10  1  0
 10 11  2  0
 11 12  1  0
 12 13  2  3
 13 14  1  0
 14 15  3  0
 13 16  1  0
 16 17  3  0
  1 18  1  0
 18 19  2  0
 19 20  1  0
 20 21  1  0
 21 22  2  0
 22 23  1  0
 23 24  2  0
 24 25  1  0
 24 26  1  0
 26 27  2  0
 20 28  1  0
 28 29  2  0
 29 30  1  0
 30 31  2  0
 31 32  1  0
 31 33  1  0
 33 34  2  0
 19 35  1  0
 35 36  1  0
 36 37  1  0
 37 38  2  0
 38 39  1  0
 39 40  1  0
 40 41  2  0
 41 42  1  0
 42 43  2  0
 43 44  1  0
 43 45  1  0
 45 46  2  0
 39 47  1  0
 47 48  2  0
 48 49  1  0
 49 50  2  0
 50 51  1  0
 50 52  1  0
 52 53  2  0
 38 54  1  0
 54 55  1  0
 37 56  1  0
 56 57  2  0
 57 58  1  0
 58 59  2  0
 59 60  1  0
 60 61  2  0
 61 62  1  0
 62 63  1  0
 63 64  1  0
 62 65  2  0
 57 66  1  0
 66 67  1  0
 67 68  1  0
 68 69  1  0
 69 70  1  0
 70 71  1  0
 71 72  2  0
 72 73  1  0
 73 74  1  0
 71 75  1  0
 75 76  1  0
 76 77  1  0
 77 78  1  0
 78 79  1  0
 79 80  1  0
 80 81  2  0
 81 82  1  0
 82 83  2  0
 83 84  1  0
 84 85  1  0
 85 86  1  0
 84 87  2  0
 79 88  2  0
 88 89  1  0
 89 90  1  0
 90 91  1  0
 91 92  1  0
 92 93  1  0
 93 94  1  0
 94 95  1  0
 95 96  1  0
 96 97  1  0
 97 98  1  0
 95 99  1  0
 99100  1  0
 92101  1  0
101102  1  0
 88103  1  0
103104  2  0
104105  1  0
105106  2  0
106107  1  0
107108  2  0
108109  1  0
109110  1  0
110111  2  0
111112  1  0
112113  2  0
113114  1  0
114115  1  0
113116  1  0
116117  2  0
109118  2  0
118119  1  0
119120  2  0
118121  1  0
121122  2  0
122123  1  0
123124  2  0
124125  1  0
125126  1  0
124127  1  0
127128  2  0
106129  1  0
129130  2  3
130131  1  0
131132  2  0
131133  1  0
133134  2  0
134135  1  0
135136  2  0
136137  1  0
136138  1  0
138139  2  0
139140  1  0
140141  2  3
141142  1  0
142143  3  0
141144  1  0
144145  3  0
 12  2  1  0
 55 18  1  0
 98 56  1  0
120103  1  0
128121  1  0
140130  1  0
 11  5  1  0
 27 21  1  0
 34 28  1  0
 54 35  2  0
 65 58  1  0
 97 66  2  0
120107  1  0
139133  1  0
 46 40  1  0
 53 47  1  0
 96 68  2  0
117110  1  0
 94 69  2  0
 74 70  2  0
 93 75  2  0
 91 76  2  0
 90 78  2  0
 87 80  1  0
  1146  1  0
  6147  1  0
  7148  1  0
 10149  1  0
 22150  1  0
 23151  1  0
 25152  1  0
 25153  1  0
 25154  1  0
 26155  1  0
 27156  1  0
 29157  1  0
 30158  1  0
 32159  1  0
 32160  1  0
 32161  1  0
 33162  1  0
 34163  1  0
 41164  1  0
 42165  1  0
 44166  1  0
 44167  1  0
 44168  1  0
 45169  1  0
 46170  1  0
 48171  1  0
 49172  1  0
 51173  1  0
 51174  1  0
 51175  1  0
 52176  1  0
 53177  1  0
 59178  1  0
 60179  1  0
 61180  1  0
 63181  1  0
 63182  1  0
 64183  1  0
 64184  1  0
 64185  1  0
 65186  1  0
 81187  1  0
 82188  1  0
 83189  1  0
 85190  1  0
 85191  1  0
 86192  1  0
 86193  1  0
 86194  1  0
 87195  1  0
 99196  1  0
 99197  1  0
100198  1  0
100199  1  0
100200  1  0
101201  1  0
101202  1  0
102203  1  0
102204  1  0
102205  1  0
104206  1  0
105207  1  0
111208  1  0
112209  1  0
114210  1  0
114211  1  0
115212  1  0
115213  1  0
115214  1  0
116215  1  0
117216  1  0
122217  1  0
123218  1  0
125219  1  0
125220  1  0
126221  1  0
126222  1  0
126223  1  0
127224  1  0
128225  1  0
129226  1  0
134227  1  0
135228  1  0
138229  1  0
M  END

