
     RDKit          3D

249274  0  0  0  0  0  0  0  0999 V2000
   -4.2242    0.5247   10.8256 C   0  0  0  0  0  0  0  0  0  0  0  0
   -3.3231    0.8986   11.7524 C   0  0  0  0  0  0  0  0  0  0  0  0
   -3.4642    0.5170   13.1578 C   0  0  0  0  0  0  0  0  0  0  0  0
   -4.5209    0.1204   13.7167 O   0  0  0  0  0  0  0  0  0  0  0  0
   -2.1554    0.5600   13.7743 C   0  0  0  0  0  0  0  0  0  0  0  0
   -1.7712    0.0516   15.0122 C   0  0  0  0  0  0  0  0  0  0  0  0
   -0.4077    0.0267   15.3284 C   0  0  0  0  0  0  0  0  0  0  0  0
    0.5462    0.4820   14.3999 C   0  0  0  0  0  0  0  0  0  0  0  0
    2.2523    0.4077   14.7969 Cl  0  0  0  0  0  0  0  0  0  0  0  0
    0.1389    0.9668   13.1436 C   0  0  0  0  0  0  0  0  0  0  0  0
   -1.2333    1.0248   12.8506 C   0  0  0  0  0  0  0  0  0  0  0  0
   -1.9300    1.4066   11.5911 C   0  0  0  0  0  0  0  0  0  0  0  0
   -1.5176    2.3700   10.7330 C   0  0  0  0  0  0  0  0  0  0  0  0
   -0.1870    2.9240   10.7862 C   0  0  0  0  0  0  0  0  0  0  0  0
    0.8776    3.3805   10.8220 N   0  0  0  0  0  0  0  0  0  0  0  0
   -2.4137    2.9990    9.7955 C   0  0  0  0  0  0  0  0  0  0  0  0
   -3.1311    3.4923    9.0376 N   0  0  0  0  0  0  0  0  0  0  0  0
   -4.0078    0.4685    9.3726 C   0  0  0  0  0  0  0  0  0  0  0  0
   -2.9124   -0.0806    8.6509 C   0  0  0  0  0  0  0  0  0  0  0  0
   -1.8443   -0.8874    9.2192 N   0  0  0  0  0  0  0  0  0  0  0  0
   -2.0536   -1.7031   10.3910 C   0  0  0  0  0  0  0  0  0  0  0  0
   -3.2628   -2.3930   10.5858 C   0  0  0  0  0  0  0  0  0  0  0  0
   -3.4842   -3.1133   11.7611 C   0  0  0  0  0  0  0  0  0  0  0  0
   -2.4932   -3.1732   12.7519 C   0  0  0  0  0  0  0  0  0  0  0  0
   -2.7602   -3.9149   14.0265 C   0  0  0  0  0  0  0  0  0  0  0  0
   -1.2570   -2.5499   12.5267 C   0  0  0  0  0  0  0  0  0  0  0  0
   -1.0358   -1.8271   11.3513 C   0  0  0  0  0  0  0  0  0  0  0  0
   -0.6492   -1.1355    8.4607 C   0  0  0  0  0  0  0  0  0  0  0  0
    0.3363   -0.1456    8.3372 C   0  0  0  0  0  0  0  0  0  0  0  0
    1.4979   -0.3989    7.6000 C   0  0  0  0  0  0  0  0  0  0  0  0
    1.6759   -1.6393    6.9607 C   0  0  0  0  0  0  0  0  0  0  0  0
    2.9266   -1.9318    6.1890 C   0  0  0  0  0  0  0  0  0  0  0  0
    0.6981   -2.6344    7.1058 C   0  0  0  0  0  0  0  0  0  0  0  0
   -0.4554   -2.3831    7.8518 C   0  0  0  0  0  0  0  0  0  0  0  0
   -3.0679    0.1872    7.2795 C   0  0  0  0  0  0  0  0  0  0  0  0
   -2.0643    0.1392    5.9282 S   0  0  0  0  0  0  0  0  0  0  0  0
   -3.1393    0.9661    4.8983 C   0  0  0  0  0  0  0  0  0  0  0  0
   -4.2994    1.2927    5.6232 C   0  0  0  0  0  0  0  0  0  0  0  0
   -5.2940    2.2477    5.2041 N   0  0  0  0  0  0  0  0  0  0  0  0
   -4.9022    3.6132    4.9060 C   0  0  0  0  0  0  0  0  0  0  0  0
   -3.7343    4.1705    5.4665 C   0  0  0  0  0  0  0  0  0  0  0  0
   -3.3362    5.4708    5.1461 C   0  0  0  0  0  0  0  0  0  0  0  0
   -4.1050    6.2487    4.2673 C   0  0  0  0  0  0  0  0  0  0  0  0
   -3.6645    7.6329    3.8901 C   0  0  0  0  0  0  0  0  0  0  0  0
   -5.2733    5.7081    3.7147 C   0  0  0  0  0  0  0  0  0  0  0  0
   -5.6768    4.4130    4.0423 C   0  0  0  0  0  0  0  0  0  0  0  0
   -6.6846    1.8556    5.2873 C   0  0  0  0  0  0  0  0  0  0  0  0
   -7.0906    0.5716    4.8784 C   0  0  0  0  0  0  0  0  0  0  0  0
   -8.4315    0.1846    4.9779 C   0  0  0  0  0  0  0  0  0  0  0  0
   -9.3873    1.0652    5.5096 C   0  0  0  0  0  0  0  0  0  0  0  0
  -10.8288    0.6633    5.5776 C   0  0  0  0  0  0  0  0  0  0  0  0
   -8.9828    2.3385    5.9353 C   0  0  0  0  0  0  0  0  0  0  0  0
   -7.6461    2.7238    5.8359 C   0  0  0  0  0  0  0  0  0  0  0  0
   -4.2175    0.8322    6.9332 C   0  0  0  0  0  0  0  0  0  0  0  0
   -5.1255    1.1578    8.2952 S   0  0  0  0  0  0  0  0  0  0  0  0
   -2.7662    1.5256    3.5908 C   0  0  0  0  0  0  0  0  0  0  0  0
   -3.5912    1.5847    2.4430 C   0  0  0  0  0  0  0  0  0  0  0  0
   -4.6586    0.5863    2.1557 C   0  0  0  0  0  0  0  0  0  0  0  0
   -4.3341   -0.7664    2.3887 C   0  0  0  0  0  0  0  0  0  0  0  0
   -5.2479   -1.7811    2.1269 C   0  0  0  0  0  0  0  0  0  0  0  0
   -6.5125   -1.4720    1.6361 C   0  0  0  0  0  0  0  0  0  0  0  0
   -6.8664   -0.1432    1.4018 C   0  0  0  0  0  0  0  0  0  0  0  0
   -5.9468    0.9033    1.6290 C   0  0  0  0  0  0  0  0  0  0  0  0
   -6.4170    2.3196    1.3753 C   0  0  0  0  0  0  0  0  0  0  0  0
   -6.8377    2.5386   -0.0771 C   0  0  0  0  0  0  0  0  0  0  0  0
   -2.9677    2.3567    1.4526 C   0  0  0  0  0  0  0  0  0  0  0  0
   -3.3743    2.7812   -0.1510 S   0  0  0  0  0  0  0  0  0  0  0  0
   -1.8770    3.5352   -0.3633 C   0  0  0  0  0  0  0  0  0  0  0  0
   -1.1351    4.0963   -1.3574 C   0  0  0  0  0  0  0  0  0  0  0  0
   -1.4760    4.6075   -2.6090 C   0  0  0  0  0  0  0  0  0  0  0  0
   -0.4413    5.1742   -3.4129 C   0  0  0  0  0  0  0  0  0  0  0  0
   -0.8158    5.6729   -4.6168 N   0  0  0  0  0  0  0  0  0  0  0  0
   -2.4428    5.3752   -4.5618 S   0  0  0  0  0  0  0  0  0  0  0  0
   -2.7351    4.6334   -3.1076 N   0  0  0  0  0  0  0  0  0  0  0  0
    0.8974    5.0855   -2.9729 C   0  0  0  0  0  0  0  0  0  0  0  0
    2.0078    4.9780   -3.7739 C   0  0  0  0  0  0  0  0  0  0  0  0
    2.0801    4.7695   -5.4516 S   0  0  0  0  0  0  0  0  0  0  0  0
    3.2807    3.5904   -5.3510 C   0  0  0  0  0  0  0  0  0  0  0  0
    3.5052    2.5287   -6.2309 C   0  0  0  0  0  0  0  0  0  0  0  0
    2.8582    2.4974   -7.5633 C   0  0  0  0  0  0  0  0  0  0  0  0
    1.5553    1.9633   -7.7751 C   0  0  0  0  0  0  0  0  0  0  0  0
    0.7546    1.2931   -6.6746 C   0  0  0  0  0  0  0  0  0  0  0  0
   -0.5150    2.0697   -6.3404 C   0  0  0  0  0  0  0  0  0  0  0  0
    0.9791    2.0611   -9.0566 C   0  0  0  0  0  0  0  0  0  0  0  0
    1.6510    2.7055  -10.0959 C   0  0  0  0  0  0  0  0  0  0  0  0
    2.9094    3.2622   -9.8716 C   0  0  0  0  0  0  0  0  0  0  0  0
    3.5046    3.1667   -8.6144 C   0  0  0  0  0  0  0  0  0  0  0  0
    4.0963    1.4263   -5.5788 C   0  0  0  0  0  0  0  0  0  0  0  0
    4.2852    1.8308   -3.9405 S   0  0  0  0  0  0  0  0  0  0  0  0
    3.6272    3.3686   -4.0351 C   0  0  0  0  0  0  0  0  0  0  0  0
    2.8854    4.1442   -3.1225 C   0  0  0  0  0  0  0  0  0  0  0  0
    2.4367    3.8206   -1.8737 N   0  0  0  0  0  0  0  0  0  0  0  0
    1.2236    4.4573   -1.7586 C   0  0  0  0  0  0  0  0  0  0  0  0
    0.1730    4.1402   -0.8654 C   0  0  0  0  0  0  0  0  0  0  0  0
    0.2126    3.7740    0.4505 N   0  0  0  0  0  0  0  0  0  0  0  0
   -1.0640    3.4049    0.7091 C   0  0  0  0  0  0  0  0  0  0  0  0
   -1.6993    2.7888    1.7724 C   0  0  0  0  0  0  0  0  0  0  0  0
   -1.2770    2.3101    3.3158 S   0  0  0  0  0  0  0  0  0  0  0  0
    1.2201    4.1407    1.4572 C   0  0  0  0  0  0  0  0  0  0  0  0
    0.8714    5.4709    2.1077 C   0  0  0  0  0  0  0  0  0  0  0  0
    2.8967    2.6580   -1.0933 C   0  0  0  0  0  0  0  0  0  0  0  0
    4.2991    2.8954   -0.5365 C   0  0  0  0  0  0  0  0  0  0  0  0
    3.9009    0.0204   -5.9817 C   0  0  0  0  0  0  0  0  0  0  0  0
    4.0999   -0.5502   -7.2586 C   0  0  0  0  0  0  0  0  0  0  0  0
    4.9861   -0.0117   -8.2689 N   0  0  0  0  0  0  0  0  0  0  0  0
    4.7196   -0.2260   -9.6742 C   0  0  0  0  0  0  0  0  0  0  0  0
    3.4080   -0.1944  -10.1738 C   0  0  0  0  0  0  0  0  0  0  0  0
    3.1560   -0.4017  -11.5321 C   0  0  0  0  0  0  0  0  0  0  0  0
    4.2148   -0.6374  -12.4180 C   0  0  0  0  0  0  0  0  0  0  0  0
    3.9372   -0.9041  -13.8691 C   0  0  0  0  0  0  0  0  0  0  0  0
    5.5248   -0.7010  -11.9259 C   0  0  0  0  0  0  0  0  0  0  0  0
    5.7750   -0.4973  -10.5658 C   0  0  0  0  0  0  0  0  0  0  0  0
    6.2132    0.6364   -7.8549 C   0  0  0  0  0  0  0  0  0  0  0  0
    6.9620    0.1344   -6.7742 C   0  0  0  0  0  0  0  0  0  0  0  0
    8.1493    0.7573   -6.3789 C   0  0  0  0  0  0  0  0  0  0  0  0
    8.6158    1.8882   -7.0604 C   0  0  0  0  0  0  0  0  0  0  0  0
    9.9227    2.5121   -6.6724 C   0  0  0  0  0  0  0  0  0  0  0  0
    7.8853    2.3809   -8.1537 C   0  0  0  0  0  0  0  0  0  0  0  0
    6.6952    1.7611   -8.5457 C   0  0  0  0  0  0  0  0  0  0  0  0
    3.4395   -1.7892   -7.3439 C   0  0  0  0  0  0  0  0  0  0  0  0
    3.2091   -2.9694   -8.5292 S   0  0  0  0  0  0  0  0  0  0  0  0
    2.2088   -3.9467   -7.5581 C   0  0  0  0  0  0  0  0  0  0  0  0
    2.0954   -3.3754   -6.2871 C   0  0  0  0  0  0  0  0  0  0  0  0
    1.4900   -4.0126   -5.1479 N   0  0  0  0  0  0  0  0  0  0  0  0
    0.0837   -3.8250   -4.8820 C   0  0  0  0  0  0  0  0  0  0  0  0
   -0.7104   -4.9161   -4.4977 C   0  0  0  0  0  0  0  0  0  0  0  0
   -2.0563   -4.7325   -4.1761 C   0  0  0  0  0  0  0  0  0  0  0  0
   -2.6336   -3.4562   -4.2438 C   0  0  0  0  0  0  0  0  0  0  0  0
   -4.0588   -3.2553   -3.8265 C   0  0  0  0  0  0  0  0  0  0  0  0
   -1.8469   -2.3618   -4.6338 C   0  0  0  0  0  0  0  0  0  0  0  0
   -0.4992   -2.5478   -4.9642 C   0  0  0  0  0  0  0  0  0  0  0  0
    2.3209   -4.7852   -4.2525 C   0  0  0  0  0  0  0  0  0  0  0  0
    3.4065   -5.5309   -4.7452 C   0  0  0  0  0  0  0  0  0  0  0  0
    4.2028   -6.2807   -3.8739 C   0  0  0  0  0  0  0  0  0  0  0  0
    3.9297   -6.2964   -2.4981 C   0  0  0  0  0  0  0  0  0  0  0  0
    4.8101   -7.0707   -1.5644 C   0  0  0  0  0  0  0  0  0  0  0  0
    2.8680   -5.5336   -1.9977 C   0  0  0  0  0  0  0  0  0  0  0  0
    2.0679   -4.7890   -2.8673 C   0  0  0  0  0  0  0  0  0  0  0  0
    2.7993   -2.1809   -6.2122 C   0  0  0  0  0  0  0  0  0  0  0  0
    2.9965   -1.0462   -5.0098 S   0  0  0  0  0  0  0  0  0  0  0  0
    1.6052   -5.2210   -7.9635 C   0  0  0  0  0  0  0  0  0  0  0  0
    0.2818   -5.3609   -8.1494 C   0  0  0  0  0  0  0  0  0  0  0  0
   -0.7125   -4.2896   -8.0424 C   0  0  0  0  0  0  0  0  0  0  0  0
   -0.4918   -3.0510   -8.1263 O   0  0  0  0  0  0  0  0  0  0  0  0
   -2.0067   -4.8945   -7.8227 C   0  0  0  0  0  0  0  0  0  0  0  0
   -3.2134   -4.2648   -7.5224 C   0  0  0  0  0  0  0  0  0  0  0  0
   -4.3235   -5.0644   -7.2170 C   0  0  0  0  0  0  0  0  0  0  0  0
   -4.2078   -6.4667   -7.2019 C   0  0  0  0  0  0  0  0  0  0  0  0
   -5.7081   -7.5441   -6.7205 Br  0  0  0  0  0  0  0  0  0  0  0  0
   -2.9808   -7.0813   -7.5195 C   0  0  0  0  0  0  0  0  0  0  0  0
   -1.8812   -6.2741   -7.8577 C   0  0  0  0  0  0  0  0  0  0  0  0
   -0.4811   -6.6412   -8.2010 C   0  0  0  0  0  0  0  0  0  0  0  0
   -0.0412   -7.8357   -8.6840 C   0  0  0  0  0  0  0  0  0  0  0  0
    1.2616   -7.9857   -9.2743 C   0  0  0  0  0  0  0  0  0  0  0  0
    2.3092   -8.1095   -9.7591 N   0  0  0  0  0  0  0  0  0  0  0  0
   -0.8989   -8.9873   -8.7972 C   0  0  0  0  0  0  0  0  0  0  0  0
   -1.5748   -9.9247   -8.9029 N   0  0  0  0  0  0  0  0  0  0  0  0
   -5.1932    0.1881   11.1662 H   0  0  0  0  0  0  0  0  0  0  0  0
   -2.5047   -0.3429   15.7002 H   0  0  0  0  0  0  0  0  0  0  0  0
   -0.0912   -0.3415   16.2990 H   0  0  0  0  0  0  0  0  0  0  0  0
    0.8852    1.2340   12.4124 H   0  0  0  0  0  0  0  0  0  0  0  0
   -4.0447   -2.3470    9.8395 H   0  0  0  0  0  0  0  0  0  0  0  0
   -4.4381   -3.6094   11.9071 H   0  0  0  0  0  0  0  0  0  0  0  0
   -1.9502   -3.7493   14.7692 H   0  0  0  0  0  0  0  0  0  0  0  0
   -2.8400   -5.0027   13.8180 H   0  0  0  0  0  0  0  0  0  0  0  0
   -3.7147   -3.5579   14.4665 H   0  0  0  0  0  0  0  0  0  0  0  0
   -0.4699   -2.5946   13.2724 H   0  0  0  0  0  0  0  0  0  0  0  0
   -0.0884   -1.3190   11.2144 H   0  0  0  0  0  0  0  0  0  0  0  0
    0.2043    0.8140    8.8181 H   0  0  0  0  0  0  0  0  0  0  0  0
    2.2549    0.3742    7.5193 H   0  0  0  0  0  0  0  0  0  0  0  0
    2.6880   -2.5335    5.2839 H   0  0  0  0  0  0  0  0  0  0  0  0
    3.6260   -2.5105    6.8304 H   0  0  0  0  0  0  0  0  0  0  0  0
    3.4246   -0.9957    5.8552 H   0  0  0  0  0  0  0  0  0  0  0  0
    0.8214   -3.6026    6.6282 H   0  0  0  0  0  0  0  0  0  0  0  0
   -1.2127   -3.1529    7.9400 H   0  0  0  0  0  0  0  0  0  0  0  0
   -3.1221    3.5979    6.1506 H   0  0  0  0  0  0  0  0  0  0  0  0
   -2.4309    5.8754    5.5828 H   0  0  0  0  0  0  0  0  0  0  0  0
   -4.5437    8.3108    3.8259 H   0  0  0  0  0  0  0  0  0  0  0  0
   -2.9659    8.0498    4.6462 H   0  0  0  0  0  0  0  0  0  0  0  0
   -3.1525    7.6037    2.9063 H   0  0  0  0  0  0  0  0  0  0  0  0
   -5.8744    6.2964    3.0294 H   0  0  0  0  0  0  0  0  0  0  0  0
   -6.5923    4.0368    3.6150 H   0  0  0  0  0  0  0  0  0  0  0  0
   -6.3656   -0.1272    4.4817 H   0  0  0  0  0  0  0  0  0  0  0  0
   -8.7276   -0.8036    4.6424 H   0  0  0  0  0  0  0  0  0  0  0  0
  -11.3005    0.8043    4.5831 H   0  0  0  0  0  0  0  0  0  0  0  0
  -10.9183   -0.4037    5.8765 H   0  0  0  0  0  0  0  0  0  0  0  0
  -11.3792    1.2760    6.3238 H   0  0  0  0  0  0  0  0  0  0  0  0
   -9.7032    3.0381    6.3449 H   0  0  0  0  0  0  0  0  0  0  0  0
   -7.3540    3.7016    6.1966 H   0  0  0  0  0  0  0  0  0  0  0  0
   -3.3544   -1.0376    2.7624 H   0  0  0  0  0  0  0  0  0  0  0  0
   -4.9757   -2.8119    2.3093 H   0  0  0  0  0  0  0  0  0  0  0  0
   -7.2329   -2.2628    1.4507 H   0  0  0  0  0  0  0  0  0  0  0  0
   -7.8662    0.0693    1.0449 H   0  0  0  0  0  0  0  0  0  0  0  0
   -5.6326    3.0561    1.6279 H   0  0  0  0  0  0  0  0  0  0  0  0
   -7.2883    2.5292    2.0290 H   0  0  0  0  0  0  0  0  0  0  0  0
   -6.9799    3.6251   -0.2640 H   0  0  0  0  0  0  0  0  0  0  0  0
   -7.7969    2.0233   -0.2922 H   0  0  0  0  0  0  0  0  0  0  0  0
   -6.0680    2.1484   -0.7751 H   0  0  0  0  0  0  0  0  0  0  0  0
    0.4779    0.2667   -6.9991 H   0  0  0  0  0  0  0  0  0  0  0  0
    1.3393    1.1961   -5.7426 H   0  0  0  0  0  0  0  0  0  0  0  0
   -1.1655    2.1804   -7.2332 H   0  0  0  0  0  0  0  0  0  0  0  0
   -0.2627    3.0742   -5.9384 H   0  0  0  0  0  0  0  0  0  0  0  0
   -1.0882    1.5222   -5.5634 H   0  0  0  0  0  0  0  0  0  0  0  0
    0.0063    1.6268   -9.2562 H   0  0  0  0  0  0  0  0  0  0  0  0
    1.1962    2.7736  -11.0744 H   0  0  0  0  0  0  0  0  0  0  0  0
    3.4248    3.7814  -10.6733 H   0  0  0  0  0  0  0  0  0  0  0  0
    4.4710    3.6315   -8.4528 H   0  0  0  0  0  0  0  0  0  0  0  0
    1.2790    3.3490    2.2349 H   0  0  0  0  0  0  0  0  0  0  0  0
    2.2165    4.2504    0.9968 H   0  0  0  0  0  0  0  0  0  0  0  0
    1.6569    5.7442    2.8479 H   0  0  0  0  0  0  0  0  0  0  0  0
    0.8220    6.2695    1.3370 H   0  0  0  0  0  0  0  0  0  0  0  0
   -0.1064    5.4063    2.6326 H   0  0  0  0  0  0  0  0  0  0  0  0
    2.2070    2.4099   -0.2684 H   0  0  0  0  0  0  0  0  0  0  0  0
    2.8803    1.7402   -1.7147 H   0  0  0  0  0  0  0  0  0  0  0  0
    5.0138    3.1189   -1.3550 H   0  0  0  0  0  0  0  0  0  0  0  0
    4.2998    3.7469    0.1722 H   0  0  0  0  0  0  0  0  0  0  0  0
    4.6432    1.9862    0.0001 H   0  0  0  0  0  0  0  0  0  0  0  0
    2.5737   -0.0410   -9.5069 H   0  0  0  0  0  0  0  0  0  0  0  0
    2.1338   -0.3885  -11.8879 H   0  0  0  0  0  0  0  0  0  0  0  0
    3.6470   -1.9670  -14.0071 H   0  0  0  0  0  0  0  0  0  0  0  0
    4.8377   -0.6944  -14.4839 H   0  0  0  0  0  0  0  0  0  0  0  0
    3.1142   -0.2489  -14.2227 H   0  0  0  0  0  0  0  0  0  0  0  0
    6.3521   -0.9214  -12.5928 H   0  0  0  0  0  0  0  0  0  0  0  0
    6.7925   -0.5758  -10.2092 H   0  0  0  0  0  0  0  0  0  0  0  0
    6.6323   -0.7486   -6.2401 H   0  0  0  0  0  0  0  0  0  0  0  0
    8.7125    0.3464   -5.5481 H   0  0  0  0  0  0  0  0  0  0  0  0
   10.0305    2.5141   -5.5679 H   0  0  0  0  0  0  0  0  0  0  0  0
    9.9885    3.5605   -7.0324 H   0  0  0  0  0  0  0  0  0  0  0  0
   10.7545    1.9307   -7.1202 H   0  0  0  0  0  0  0  0  0  0  0  0
    8.2444    3.2387   -8.7126 H   0  0  0  0  0  0  0  0  0  0  0  0
    6.1549    2.1586   -9.3956 H   0  0  0  0  0  0  0  0  0  0  0  0
   -0.2817   -5.9108   -4.4477 H   0  0  0  0  0  0  0  0  0  0  0  0
   -2.6441   -5.5895   -3.8707 H   0  0  0  0  0  0  0  0  0  0  0  0
   -4.4974   -2.3662   -4.3276 H   0  0  0  0  0  0  0  0  0  0  0  0
   -4.6700   -4.1449   -4.0978 H   0  0  0  0  0  0  0  0  0  0  0  0
   -4.1011   -3.1058   -2.7261 H   0  0  0  0  0  0  0  0  0  0  0  0
   -2.2705   -1.3642   -4.6666 H   0  0  0  0  0  0  0  0  0  0  0  0
    0.0912   -1.6881   -5.2478 H   0  0  0  0  0  0  0  0  0  0  0  0
    3.6388   -5.5492   -5.8032 H   0  0  0  0  0  0  0  0  0  0  0  0
    5.0330   -6.8508   -4.2729 H   0  0  0  0  0  0  0  0  0  0  0  0
    4.2159   -7.4624   -0.7118 H   0  0  0  0  0  0  0  0  0  0  0  0
    5.2748   -7.9361   -2.0851 H   0  0  0  0  0  0  0  0  0  0  0  0
    5.6137   -6.4081   -1.1763 H   0  0  0  0  0  0  0  0  0  0  0  0
    2.6579   -5.5147   -0.9341 H   0  0  0  0  0  0  0  0  0  0  0  0
    1.2561   -4.2068   -2.4522 H   0  0  0  0  0  0  0  0  0  0  0  0
    2.2553   -6.0798   -7.9519 H   0  0  0  0  0  0  0  0  0  0  0  0
   -3.2881   -3.1874   -7.5021 H   0  0  0  0  0  0  0  0  0  0  0  0
   -5.2657   -4.5959   -6.9566 H   0  0  0  0  0  0  0  0  0  0  0  0
   -2.8957   -8.1536   -7.4530 H   0  0  0  0  0  0  0  0  0  0  0  0
  1  2  2  3
  2  3  1  0
  3  4  2  0
  3  5  1  0
  5  6  2  0
  6  7  1  0
  7  8  2  0
  8  9  1  0
  8 10  1  0
 10 11  2  0
 11 12  1  0
 12 13  2  3
 13 14  1  0
 14 15  3  0
 13 16  1  0
 16 17  3  0
  1 18  1  0
 18 19  2  0
 19 20  1  0
 20 21  1  0
 21 22  2  0
 22 23  1  0
 23 24  2  0
 24 25  1  0
 24 26  1  0
 26 27  2  0
 20 28  1  0
 28 29  2  0
 29 30  1  0
 30 31  2  0
 31 32  1  0
 31 33  1  0
 33 34  2  0
 19 35  1  0
 35 36  1  0
 36 37  1  0
 37 38  2  0
 38 39  1  0
 39 40  1  0
 40 41  2  0
 41 42  1  0
 42 43  2  0
 43 44  1  0
 43 45  1  0
 45 46  2  0
 39 47  1  0
 47 48  2  0
 48 49  1  0
 49 50  2  0
 50 51  1  0
 50 52  1  0
 52 53  2  0
 38 54  1  0
 54 55  1  0
 37 56  1  0
 56 57  2  0
 57 58  1  0
 58 59  2  0
 59 60  1  0
 60 61  2  0
 61 62  1  0
 62 63  2  0
 63 64  1  0
 64 65  1  0
 57 66  1  0
 66 67  1  0
 67 68  1  0
 68 69  1  0
 69 70  1  0
 70 71  1  0
 71 72  2  0
 72 73  1  0
 73 74  1  0
 71 75  1  0
 75 76  1  0
 76 77  1  0
 77 78  1  0
 78 79  1  0
 79 80  1  0
 80 81  2  0
 81 82  1  0
 82 83  1  0
 81 84  1  0
 84 85  2  0
 85 86  1  0
 86 87  2  0
 79 88  2  0
 88 89  1  0
 89 90  1  0
 90 91  1  0
 91 92  1  0
 92 93  1  0
 93 94  1  0
 94 95  1  0
 95 96  1  0
 96 97  1  0
 97 98  1  0
 95 99  1  0
 99100  1  0
 92101  1  0
101102  1  0
 88103  1  0
103104  2  0
104105  1  0
105106  1  0
106107  2  0
107108  1  0
108109  2  0
109110  1  0
109111  1  0
111112  2  0
105113  1  0
113114  2  0
114115  1  0
115116  2  0
116117  1  0
116118  1  0
118119  2  0
104120  1  0
120121  1  0
121122  1  0
122123  2  0
123124  1  0
124125  1  0
125126  2  0
126127  1  0
127128  2  0
128129  1  0
128130  1  0
130131  2  0
124132  1  0
132133  2  0
133134  1  0
134135  2  0
135136  1  0
135137  1  0
137138  2  0
123139  1  0
139140  1  0
122141  1  0
141142  2  3
142143  1  0
143144  2  0
143145  1  0
145146  2  0
146147  1  0
147148  2  0
148149  1  0
148150  1  0
150151  2  0
151152  1  0
152153  2  3
153154  1  0
154155  3  0
153156  1  0
156157  3  0
 12  2  1  0
 55 18  1  0
 98 56  1  0
140103  1  0
152142  1  0
 11  5  1  0
 27 21  1  0
 34 28  1  0
 54 35  2  0
 63 58  1  0
 97 66  2  0
112106  1  0
119113  1  0
139120  2  0
151145  1  0
 46 40  1  0
 53 47  1  0
 96 68  2  0
131125  1  0
138132  1  0
 94 69  2  0
 74 70  2  0
 93 75  2  0
 91 76  2  0
 90 78  2  0
 87 80  1  0
  1158  1  0
  6159  1  0
  7160  1  0
 10161  1  0
 22162  1  0
 23163  1  0
 25164  1  0
 25165  1  0
 25166  1  0
 26167  1  0
 27168  1  0
 29169  1  0
 30170  1  0
 32171  1  0
 32172  1  0
 32173  1  0
 33174  1  0
 34175  1  0
 41176  1  0
 42177  1  0
 44178  1  0
 44179  1  0
 44180  1  0
 45181  1  0
 46182  1  0
 48183  1  0
 49184  1  0
 51185  1  0
 51186  1  0
 51187  1  0
 52188  1  0
 53189  1  0
 59190  1  0
 60191  1  0
 61192  1  0
 62193  1  0
 64194  1  0
 64195  1  0
 65196  1  0
 65197  1  0
 65198  1  0
 82199  1  0
 82200  1  0
 83201  1  0
 83202  1  0
 83203  1  0
 84204  1  0
 85205  1  0
 86206  1  0
 87207  1  0
 99208  1  0
 99209  1  0
100210  1  0
100211  1  0
100212  1  0
101213  1  0
101214  1  0
102215  1  0
102216  1  0
102217  1  0
107218  1  0
108219  1  0
110220  1  0
110221  1  0
110222  1  0
111223  1  0
112224  1  0
114225  1  0
115226  1  0
117227  1  0
117228  1  0
117229  1  0
118230  1  0
119231  1  0
126232  1  0
127233  1  0
129234  1  0
129235  1  0
129236  1  0
130237  1  0
131238  1  0
133239  1  0
134240  1  0
136241  1  0
136242  1  0
136243  1  0
137244  1  0
138245  1  0
141246  1  0
146247  1  0
147248  1  0
150249  1  0
M  END

