
     RDKit          3D

253278  0  0  0  0  0  0  0  0999 V2000
   -6.4888    7.6228    0.6939 C   0  0  0  0  0  0  0  0  0  0  0  0
   -5.7643    7.3528    1.8064 C   0  0  0  0  0  0  0  0  0  0  0  0
   -4.3733    6.8636    1.8260 C   0  0  0  0  0  0  0  0  0  0  0  0
   -3.6670    6.5364    0.8322 O   0  0  0  0  0  0  0  0  0  0  0  0
   -3.8726    6.9362    3.1785 C   0  0  0  0  0  0  0  0  0  0  0  0
   -2.5836    6.6544    3.6341 C   0  0  0  0  0  0  0  0  0  0  0  0
   -2.2838    6.8978    4.9799 C   0  0  0  0  0  0  0  0  0  0  0  0
   -3.2537    7.4519    5.8304 C   0  0  0  0  0  0  0  0  0  0  0  0
   -2.8417    7.8127    7.4994 Cl  0  0  0  0  0  0  0  0  0  0  0  0
   -4.5424    7.7387    5.3473 C   0  0  0  0  0  0  0  0  0  0  0  0
   -4.8576    7.4352    4.0097 C   0  0  0  0  0  0  0  0  0  0  0  0
   -6.1190    7.6420    3.2330 C   0  0  0  0  0  0  0  0  0  0  0  0
   -7.3625    7.8231    3.7535 C   0  0  0  0  0  0  0  0  0  0  0  0
   -7.6083    7.8494    5.1685 C   0  0  0  0  0  0  0  0  0  0  0  0
   -7.8176    7.8635    6.3054 N   0  0  0  0  0  0  0  0  0  0  0  0
   -8.5488    7.8950    2.9455 C   0  0  0  0  0  0  0  0  0  0  0  0
   -9.5181    7.9723    2.3078 N   0  0  0  0  0  0  0  0  0  0  0  0
   -6.0228    7.2828   -0.6635 C   0  0  0  0  0  0  0  0  0  0  0  0
   -5.6360    5.9985   -1.0935 C   0  0  0  0  0  0  0  0  0  0  0  0
   -6.0478    4.7586   -0.4567 N   0  0  0  0  0  0  0  0  0  0  0  0
   -5.4504    3.5139   -0.8448 C   0  0  0  0  0  0  0  0  0  0  0  0
   -4.3063    3.0484   -0.1854 C   0  0  0  0  0  0  0  0  0  0  0  0
   -3.6439    1.9100   -0.6523 C   0  0  0  0  0  0  0  0  0  0  0  0
   -4.1100    1.2359   -1.7920 C   0  0  0  0  0  0  0  0  0  0  0  0
   -3.3628    0.0448   -2.3143 C   0  0  0  0  0  0  0  0  0  0  0  0
   -5.2927    1.6683   -2.4135 C   0  0  0  0  0  0  0  0  0  0  0  0
   -5.9598    2.7998   -1.9408 C   0  0  0  0  0  0  0  0  0  0  0  0
   -7.2751    4.6780    0.2910 C   0  0  0  0  0  0  0  0  0  0  0  0
   -7.2830    4.0903    1.5653 C   0  0  0  0  0  0  0  0  0  0  0  0
   -8.4778    3.9677    2.2781 C   0  0  0  0  0  0  0  0  0  0  0  0
   -9.6841    4.4297    1.7276 C   0  0  0  0  0  0  0  0  0  0  0  0
  -10.9683    4.2489    2.4845 C   0  0  0  0  0  0  0  0  0  0  0  0
   -9.6769    5.0264    0.4546 C   0  0  0  0  0  0  0  0  0  0  0  0
   -8.4787    5.1488   -0.2585 C   0  0  0  0  0  0  0  0  0  0  0  0
   -4.7357    6.0972   -2.1682 C   0  0  0  0  0  0  0  0  0  0  0  0
   -3.5814    5.0720   -2.7913 S   0  0  0  0  0  0  0  0  0  0  0  0
   -2.7641    6.2378   -3.7217 C   0  0  0  0  0  0  0  0  0  0  0  0
   -3.4547    7.4730   -3.5889 C   0  0  0  0  0  0  0  0  0  0  0  0
   -3.3401    8.5904   -4.5123 N   0  0  0  0  0  0  0  0  0  0  0  0
   -3.7910    9.9053   -4.1040 C   0  0  0  0  0  0  0  0  0  0  0  0
   -4.7543   10.5935   -4.8660 C   0  0  0  0  0  0  0  0  0  0  0  0
   -5.2113   11.8521   -4.4619 C   0  0  0  0  0  0  0  0  0  0  0  0
   -4.7280   12.4354   -3.2845 C   0  0  0  0  0  0  0  0  0  0  0  0
   -5.2282   13.7856   -2.8630 C   0  0  0  0  0  0  0  0  0  0  0  0
   -3.7574   11.7600   -2.5283 C   0  0  0  0  0  0  0  0  0  0  0  0
   -3.3062   10.4981   -2.9283 C   0  0  0  0  0  0  0  0  0  0  0  0
   -3.1426    8.3479   -5.9295 C   0  0  0  0  0  0  0  0  0  0  0  0
   -2.5461    9.3356   -6.7370 C   0  0  0  0  0  0  0  0  0  0  0  0
   -2.4367    9.1605   -8.1162 C   0  0  0  0  0  0  0  0  0  0  0  0
   -2.9290    7.9971   -8.7230 C   0  0  0  0  0  0  0  0  0  0  0  0
   -2.8947    7.8594  -10.2172 C   0  0  0  0  0  0  0  0  0  0  0  0
   -3.5545    7.0217   -7.9350 C   0  0  0  0  0  0  0  0  0  0  0  0
   -3.6609    7.1933   -6.5522 C   0  0  0  0  0  0  0  0  0  0  0  0
   -4.5162    7.3446   -2.6648 C   0  0  0  0  0  0  0  0  0  0  0  0
   -5.3771    8.4416   -1.7253 S   0  0  0  0  0  0  0  0  0  0  0  0
   -1.3839    5.9590   -4.1957 C   0  0  0  0  0  0  0  0  0  0  0  0
   -0.2406    6.7703   -3.9627 C   0  0  0  0  0  0  0  0  0  0  0  0
   -0.2042    8.2314   -3.8350 C   0  0  0  0  0  0  0  0  0  0  0  0
   -0.1928    8.8427   -2.5732 C   0  0  0  0  0  0  0  0  0  0  0  0
    0.0418   10.2190   -2.4707 C   0  0  0  0  0  0  0  0  0  0  0  0
    0.2618   10.9868   -3.6198 C   0  0  0  0  0  0  0  0  0  0  0  0
    0.2767   10.3754   -4.8832 C   0  0  0  0  0  0  0  0  0  0  0  0
    0.5745   11.1915   -6.1159 C   0  0  0  0  0  0  0  0  0  0  0  0
    2.0758   11.3994   -6.2849 C   0  0  0  0  0  0  0  0  0  0  0  0
    0.0692    8.9919   -4.9805 C   0  0  0  0  0  0  0  0  0  0  0  0
    0.9330    6.0154   -3.8469 C   0  0  0  0  0  0  0  0  0  0  0  0
    2.3609    6.3445   -2.9634 S   0  0  0  0  0  0  0  0  0  0  0  0
    2.7443    4.6982   -2.8841 C   0  0  0  0  0  0  0  0  0  0  0  0
    3.4497    3.8836   -2.0433 C   0  0  0  0  0  0  0  0  0  0  0  0
    4.4695    4.1550   -1.1232 C   0  0  0  0  0  0  0  0  0  0  0  0
    4.9589    3.0905   -0.3112 C   0  0  0  0  0  0  0  0  0  0  0  0
    5.9443    3.3923    0.5703 N   0  0  0  0  0  0  0  0  0  0  0  0
    6.1341    5.0059    0.2433 S   0  0  0  0  0  0  0  0  0  0  0  0
    5.0411    5.3703   -0.9498 N   0  0  0  0  0  0  0  0  0  0  0  0
    4.3659    1.8262   -0.4305 C   0  0  0  0  0  0  0  0  0  0  0  0
    4.4737    0.7125    0.3528 C   0  0  0  0  0  0  0  0  0  0  0  0
    5.2306    0.2233    1.7973 S   0  0  0  0  0  0  0  0  0  0  0  0
    4.2810   -1.2038    1.8572 C   0  0  0  0  0  0  0  0  0  0  0  0
    4.2380   -2.3338    2.6945 C   0  0  0  0  0  0  0  0  0  0  0  0
    4.8910   -2.3938    4.0196 C   0  0  0  0  0  0  0  0  0  0  0  0
    6.2061   -1.9337    4.1954 C   0  0  0  0  0  0  0  0  0  0  0  0
    6.7605   -1.8527    5.4744 C   0  0  0  0  0  0  0  0  0  0  0  0
    6.0147   -2.2378    6.5920 C   0  0  0  0  0  0  0  0  0  0  0  0
    4.7141   -2.7353    6.4329 C   0  0  0  0  0  0  0  0  0  0  0  0
    3.9214   -3.1742    7.6362 C   0  0  0  0  0  0  0  0  0  0  0  0
    3.1298   -2.0128    8.2246 C   0  0  0  0  0  0  0  0  0  0  0  0
    4.1494   -2.7962    5.1474 C   0  0  0  0  0  0  0  0  0  0  0  0
    3.3323   -3.2977    2.1798 C   0  0  0  0  0  0  0  0  0  0  0  0
    2.5429   -2.6478    0.8101 S   0  0  0  0  0  0  0  0  0  0  0  0
    3.3856   -1.2183    0.8203 C   0  0  0  0  0  0  0  0  0  0  0  0
    3.4917   -0.1291   -0.0267 C   0  0  0  0  0  0  0  0  0  0  0  0
    2.6786    0.3878   -0.9809 N   0  0  0  0  0  0  0  0  0  0  0  0
    3.2896    1.5736   -1.3024 C   0  0  0  0  0  0  0  0  0  0  0  0
    2.8751    2.6096   -2.1833 C   0  0  0  0  0  0  0  0  0  0  0  0
    1.9004    2.6192   -3.1455 N   0  0  0  0  0  0  0  0  0  0  0  0
    1.8180    3.9240   -3.5008 C   0  0  0  0  0  0  0  0  0  0  0  0
    0.7779    4.6664   -4.0373 C   0  0  0  0  0  0  0  0  0  0  0  0
   -0.8367    4.3339   -4.2944 S   0  0  0  0  0  0  0  0  0  0  0  0
    1.5087    1.5085   -4.0293 C   0  0  0  0  0  0  0  0  0  0  0  0
    1.9425    1.7519   -5.4796 C   0  0  0  0  0  0  0  0  0  0  0  0
    1.2357    0.0920   -1.0111 C   0  0  0  0  0  0  0  0  0  0  0  0
    0.4992    0.8895    0.0623 C   0  0  0  0  0  0  0  0  0  0  0  0
    3.2986   -4.7581    2.4190 C   0  0  0  0  0  0  0  0  0  0  0  0
    4.4393   -5.5988    2.4964 C   0  0  0  0  0  0  0  0  0  0  0  0
    5.6104   -5.3426    3.2865 N   0  0  0  0  0  0  0  0  0  0  0  0
    6.8671   -5.2275    2.5829 C   0  0  0  0  0  0  0  0  0  0  0  0
    7.8947   -6.1611    2.8065 C   0  0  0  0  0  0  0  0  0  0  0  0
    9.1192   -6.0375    2.1469 C   0  0  0  0  0  0  0  0  0  0  0  0
    9.3282   -4.9925    1.2376 C   0  0  0  0  0  0  0  0  0  0  0  0
   10.6606   -4.8231    0.5705 C   0  0  0  0  0  0  0  0  0  0  0  0
    8.2943   -4.0764    0.9871 C   0  0  0  0  0  0  0  0  0  0  0  0
    7.0649   -4.2062    1.6418 C   0  0  0  0  0  0  0  0  0  0  0  0
    5.5782   -5.6628    4.7081 C   0  0  0  0  0  0  0  0  0  0  0  0
    4.4795   -6.3424    5.2860 C   0  0  0  0  0  0  0  0  0  0  0  0
    4.4601   -6.6522    6.6443 C   0  0  0  0  0  0  0  0  0  0  0  0
    5.5310   -6.2938    7.4674 C   0  0  0  0  0  0  0  0  0  0  0  0
    5.4644   -6.5705    8.9431 C   0  0  0  0  0  0  0  0  0  0  0  0
    6.6252   -5.6125    6.9144 C   0  0  0  0  0  0  0  0  0  0  0  0
    6.6491   -5.2986    5.5520 C   0  0  0  0  0  0  0  0  0  0  0  0
    4.1582   -6.8831    2.0327 C   0  0  0  0  0  0  0  0  0  0  0  0
    5.0877   -8.2401    1.7296 S   0  0  0  0  0  0  0  0  0  0  0  0
    3.7953   -9.1713    1.1153 C   0  0  0  0  0  0  0  0  0  0  0  0
    2.6458   -8.3632    1.0887 C   0  0  0  0  0  0  0  0  0  0  0  0
    1.4178   -8.7036    0.4211 N   0  0  0  0  0  0  0  0  0  0  0  0
    0.5863   -9.7517    0.9533 C   0  0  0  0  0  0  0  0  0  0  0  0
   -0.0942  -10.6254    0.0888 C   0  0  0  0  0  0  0  0  0  0  0  0
   -0.9373  -11.6117    0.6071 C   0  0  0  0  0  0  0  0  0  0  0  0
   -1.1036  -11.7411    1.9962 C   0  0  0  0  0  0  0  0  0  0  0  0
   -2.0184  -12.7895    2.5570 C   0  0  0  0  0  0  0  0  0  0  0  0
   -0.4259  -10.8676    2.8581 C   0  0  0  0  0  0  0  0  0  0  0  0
    0.4159   -9.8820    2.3406 C   0  0  0  0  0  0  0  0  0  0  0  0
    0.9145   -7.8233   -0.6085 C   0  0  0  0  0  0  0  0  0  0  0  0
   -0.4281   -7.4001   -0.5946 C   0  0  0  0  0  0  0  0  0  0  0  0
   -0.8944   -6.4817   -1.5371 C   0  0  0  0  0  0  0  0  0  0  0  0
   -0.0262   -5.9705   -2.5118 C   0  0  0  0  0  0  0  0  0  0  0  0
   -0.5419   -5.0049   -3.5357 C   0  0  0  0  0  0  0  0  0  0  0  0
    1.3089   -6.4004   -2.5424 C   0  0  0  0  0  0  0  0  0  0  0  0
    1.7780   -7.3150   -1.5960 C   0  0  0  0  0  0  0  0  0  0  0  0
    2.8947   -7.1062    1.6281 C   0  0  0  0  0  0  0  0  0  0  0  0
    2.0146   -5.6972    1.7874 S   0  0  0  0  0  0  0  0  0  0  0  0
    3.9984  -10.3528    0.2671 C   0  0  0  0  0  0  0  0  0  0  0  0
    3.5060  -11.5797    0.5164 C   0  0  0  0  0  0  0  0  0  0  0  0
    3.1636  -12.4953   -0.5647 C   0  0  0  0  0  0  0  0  0  0  0  0
    3.5458  -12.4057   -1.7630 O   0  0  0  0  0  0  0  0  0  0  0  0
    2.2193  -13.4646   -0.0535 C   0  0  0  0  0  0  0  0  0  0  0  0
    1.5218  -14.4337   -0.7640 C   0  0  0  0  0  0  0  0  0  0  0  0
    0.6089  -15.2398   -0.0797 C   0  0  0  0  0  0  0  0  0  0  0  0
    0.4104  -15.0738    1.3139 C   0  0  0  0  0  0  0  0  0  0  0  0
   -0.5068  -15.8567    2.0341 O   0  0  0  0  0  0  0  0  0  0  0  0
   -1.1525  -17.0271    1.5264 C   0  0  0  0  0  0  0  0  0  0  0  0
    1.1190  -14.0721    1.9977 C   0  0  0  0  0  0  0  0  0  0  0  0
    2.0233  -13.2576    1.2975 C   0  0  0  0  0  0  0  0  0  0  0  0
    2.8857  -12.1366    1.7588 C   0  0  0  0  0  0  0  0  0  0  0  0
    3.2739  -11.8914    3.0334 C   0  0  0  0  0  0  0  0  0  0  0  0
    2.6139  -12.4688    4.1801 C   0  0  0  0  0  0  0  0  0  0  0  0
    2.0899  -12.9244    5.1067 N   0  0  0  0  0  0  0  0  0  0  0  0
    4.4965  -11.1870    3.3402 C   0  0  0  0  0  0  0  0  0  0  0  0
    5.4684  -10.6296    3.6302 N   0  0  0  0  0  0  0  0  0  0  0  0
   -7.3854    8.2139    0.7548 H   0  0  0  0  0  0  0  0  0  0  0  0
   -1.8236    6.2715    2.9610 H   0  0  0  0  0  0  0  0  0  0  0  0
   -1.2871    6.6898    5.3511 H   0  0  0  0  0  0  0  0  0  0  0  0
   -5.2443    8.2239    6.0042 H   0  0  0  0  0  0  0  0  0  0  0  0
   -3.9182    3.5850    0.6722 H   0  0  0  0  0  0  0  0  0  0  0  0
   -2.7506    1.5726   -0.1432 H   0  0  0  0  0  0  0  0  0  0  0  0
   -3.6742   -0.8693   -1.7631 H   0  0  0  0  0  0  0  0  0  0  0  0
   -3.5658   -0.1035   -3.3986 H   0  0  0  0  0  0  0  0  0  0  0  0
   -2.2685    0.1919   -2.1888 H   0  0  0  0  0  0  0  0  0  0  0  0
   -5.6814    1.1435   -3.2781 H   0  0  0  0  0  0  0  0  0  0  0  0
   -6.8469    3.1551   -2.4528 H   0  0  0  0  0  0  0  0  0  0  0  0
   -6.3608    3.7318    2.0046 H   0  0  0  0  0  0  0  0  0  0  0  0
   -8.4714    3.5015    3.2565 H   0  0  0  0  0  0  0  0  0  0  0  0
  -11.1969    3.1660    2.5674 H   0  0  0  0  0  0  0  0  0  0  0  0
  -11.8170    4.7525    1.9766 H   0  0  0  0  0  0  0  0  0  0  0  0
  -10.8640    4.6755    3.5033 H   0  0  0  0  0  0  0  0  0  0  0  0
  -10.6002    5.3876    0.0136 H   0  0  0  0  0  0  0  0  0  0  0  0
   -8.4939    5.5943   -1.2471 H   0  0  0  0  0  0  0  0  0  0  0  0
   -5.1613   10.1519   -5.7668 H   0  0  0  0  0  0  0  0  0  0  0  0
   -5.9454   12.3653   -5.0681 H   0  0  0  0  0  0  0  0  0  0  0  0
   -4.9488   14.0093   -1.8125 H   0  0  0  0  0  0  0  0  0  0  0  0
   -4.7958   14.5634   -3.5258 H   0  0  0  0  0  0  0  0  0  0  0  0
   -6.3373   13.8162   -2.9386 H   0  0  0  0  0  0  0  0  0  0  0  0
   -3.3765   12.1958   -1.6114 H   0  0  0  0  0  0  0  0  0  0  0  0
   -2.6150    9.9668   -2.2943 H   0  0  0  0  0  0  0  0  0  0  0  0
   -2.1822   10.2563   -6.2953 H   0  0  0  0  0  0  0  0  0  0  0  0
   -1.9885    9.9415   -8.7172 H   0  0  0  0  0  0  0  0  0  0  0  0
   -2.9057    6.7893  -10.5183 H   0  0  0  0  0  0  0  0  0  0  0  0
   -3.7832    8.3633  -10.6549 H   0  0  0  0  0  0  0  0  0  0  0  0
   -1.9767    8.3254  -10.6337 H   0  0  0  0  0  0  0  0  0  0  0  0
   -3.9831    6.1359   -8.3945 H   0  0  0  0  0  0  0  0  0  0  0  0
   -4.1893    6.4432   -5.9792 H   0  0  0  0  0  0  0  0  0  0  0  0
   -0.3413    8.2545   -1.6750 H   0  0  0  0  0  0  0  0  0  0  0  0
    0.0401   10.6966   -1.4991 H   0  0  0  0  0  0  0  0  0  0  0  0
    0.4342   12.0538   -3.5272 H   0  0  0  0  0  0  0  0  0  0  0  0
    0.0632   12.1741   -6.0479 H   0  0  0  0  0  0  0  0  0  0  0  0
    0.1794   10.6775   -7.0221 H   0  0  0  0  0  0  0  0  0  0  0  0
    2.5815   10.4175   -6.4231 H   0  0  0  0  0  0  0  0  0  0  0  0
    2.2686   12.0361   -7.1818 H   0  0  0  0  0  0  0  0  0  0  0  0
    2.5030   11.9124   -5.3924 H   0  0  0  0  0  0  0  0  0  0  0  0
    0.1288    8.5018   -5.9451 H   0  0  0  0  0  0  0  0  0  0  0  0
    6.8049   -1.6323    3.3450 H   0  0  0  0  0  0  0  0  0  0  0  0
    7.7712   -1.4902    5.6015 H   0  0  0  0  0  0  0  0  0  0  0  0
    6.4625   -2.1710    7.5794 H   0  0  0  0  0  0  0  0  0  0  0  0
    3.2201   -3.9919    7.3588 H   0  0  0  0  0  0  0  0  0  0  0  0
    4.6041   -3.5757    8.4136 H   0  0  0  0  0  0  0  0  0  0  0  0
    3.8149   -1.1851    8.5111 H   0  0  0  0  0  0  0  0  0  0  0  0
    2.5903   -2.3554    9.1367 H   0  0  0  0  0  0  0  0  0  0  0  0
    2.3851   -1.6412    7.4893 H   0  0  0  0  0  0  0  0  0  0  0  0
    3.1262   -3.1360    5.0272 H   0  0  0  0  0  0  0  0  0  0  0  0
    2.0124    0.5700   -3.7154 H   0  0  0  0  0  0  0  0  0  0  0  0
    0.4031    1.3787   -3.9961 H   0  0  0  0  0  0  0  0  0  0  0  0
    1.3961    2.6119   -5.9113 H   0  0  0  0  0  0  0  0  0  0  0  0
    1.7117    0.8509   -6.0865 H   0  0  0  0  0  0  0  0  0  0  0  0
    3.0346    1.9497   -5.5194 H   0  0  0  0  0  0  0  0  0  0  0  0
    1.0613   -0.9889   -0.8420 H   0  0  0  0  0  0  0  0  0  0  0  0
    0.7696    0.3121   -1.9741 H   0  0  0  0  0  0  0  0  0  0  0  0
    0.5509    1.9794   -0.1702 H   0  0  0  0  0  0  0  0  0  0  0  0
    0.9350    0.7036    1.0664 H   0  0  0  0  0  0  0  0  0  0  0  0
   -0.5705    0.5844    0.0755 H   0  0  0  0  0  0  0  0  0  0  0  0
    7.7488   -6.9839    3.4954 H   0  0  0  0  0  0  0  0  0  0  0  0
    9.9078   -6.7501    2.3527 H   0  0  0  0  0  0  0  0  0  0  0  0
   11.2210   -5.7831    0.5477 H   0  0  0  0  0  0  0  0  0  0  0  0
   11.2600   -4.0772    1.1330 H   0  0  0  0  0  0  0  0  0  0  0  0
   10.5354   -4.4726   -0.4780 H   0  0  0  0  0  0  0  0  0  0  0  0
    8.4438   -3.2565    0.2942 H   0  0  0  0  0  0  0  0  0  0  0  0
    6.2757   -3.5006    1.4214 H   0  0  0  0  0  0  0  0  0  0  0  0
    3.6242   -6.6426    4.6980 H   0  0  0  0  0  0  0  0  0  0  0  0
    3.5964   -7.1580    7.0582 H   0  0  0  0  0  0  0  0  0  0  0  0
    6.4819   -6.6342    9.3841 H   0  0  0  0  0  0  0  0  0  0  0  0
    4.9436   -7.5335    9.1355 H   0  0  0  0  0  0  0  0  0  0  0  0
    4.8981   -5.7599    9.4476 H   0  0  0  0  0  0  0  0  0  0  0  0
    7.4479   -5.3012    7.5485 H   0  0  0  0  0  0  0  0  0  0  0  0
    7.4973   -4.7471    5.1652 H   0  0  0  0  0  0  0  0  0  0  0  0
    0.0291  -10.5397   -0.9856 H   0  0  0  0  0  0  0  0  0  0  0  0
   -1.4462  -12.2842   -0.0704 H   0  0  0  0  0  0  0  0  0  0  0  0
   -3.0150  -12.3453    2.7526 H   0  0  0  0  0  0  0  0  0  0  0  0
   -1.6044  -13.1926    3.5076 H   0  0  0  0  0  0  0  0  0  0  0  0
   -2.1372  -13.6336    1.8480 H   0  0  0  0  0  0  0  0  0  0  0  0
   -0.5442  -10.9517    3.9323 H   0  0  0  0  0  0  0  0  0  0  0  0
    0.9185   -9.2028    3.0190 H   0  0  0  0  0  0  0  0  0  0  0  0
   -1.1075   -7.7567    0.1691 H   0  0  0  0  0  0  0  0  0  0  0  0
   -1.9294   -6.1610   -1.5052 H   0  0  0  0  0  0  0  0  0  0  0  0
    0.2872   -4.4513   -4.0280 H   0  0  0  0  0  0  0  0  0  0  0  0
   -1.1187   -5.5569   -4.3094 H   0  0  0  0  0  0  0  0  0  0  0  0
   -1.2110   -4.2573   -3.0549 H   0  0  0  0  0  0  0  0  0  0  0  0
    1.9886   -6.0265   -3.2989 H   0  0  0  0  0  0  0  0  0  0  0  0
    2.8172   -7.6258   -1.6245 H   0  0  0  0  0  0  0  0  0  0  0  0
    4.3824  -10.1472   -0.7222 H   0  0  0  0  0  0  0  0  0  0  0  0
    1.6510  -14.5470   -1.8327 H   0  0  0  0  0  0  0  0  0  0  0  0
    0.0472  -15.9750   -0.6373 H   0  0  0  0  0  0  0  0  0  0  0  0
   -1.8116  -17.4572    2.3119 H   0  0  0  0  0  0  0  0  0  0  0  0
   -1.7749  -16.7682    0.6461 H   0  0  0  0  0  0  0  0  0  0  0  0
   -0.3873  -17.7812    1.2541 H   0  0  0  0  0  0  0  0  0  0  0  0
    0.9072  -13.9315    3.0471 H   0  0  0  0  0  0  0  0  0  0  0  0
  1  2  2  3
  2  3  1  0
  3  4  2  0
  3  5  1  0
  5  6  2  0
  6  7  1  0
  7  8  2  0
  8  9  1  0
  8 10  1  0
 10 11  2  0
 11 12  1  0
 12 13  2  3
 13 14  1  0
 14 15  3  0
 13 16  1  0
 16 17  3  0
  1 18  1  0
 18 19  2  0
 19 20  1  0
 20 21  1  0
 21 22  2  0
 22 23  1  0
 23 24  2  0
 24 25  1  0
 24 26  1  0
 26 27  2  0
 20 28  1  0
 28 29  2  0
 29 30  1  0
 30 31  2  0
 31 32  1  0
 31 33  1  0
 33 34  2  0
 19 35  1  0
 35 36  1  0
 36 37  1  0
 37 38  2  0
 38 39  1  0
 39 40  1  0
 40 41  2  0
 41 42  1  0
 42 43  2  0
 43 44  1  0
 43 45  1  0
 45 46  2  0
 39 47  1  0
 47 48  2  0
 48 49  1  0
 49 50  2  0
 50 51  1  0
 50 52  1  0
 52 53  2  0
 38 54  1  0
 54 55  1  0
 37 56  1  0
 56 57  2  0
 57 58  1  0
 58 59  2  0
 59 60  1  0
 60 61  2  0
 61 62  1  0
 62 63  1  0
 63 64  1  0
 62 65  2  0
 57 66  1  0
 66 67  1  0
 67 68  1  0
 68 69  1  0
 69 70  1  0
 70 71  1  0
 71 72  2  0
 72 73  1  0
 73 74  1  0
 71 75  1  0
 75 76  1  0
 76 77  1  0
 77 78  1  0
 78 79  1  0
 79 80  1  0
 80 81  2  0
 81 82  1  0
 82 83  2  0
 83 84  1  0
 84 85  1  0
 85 86  1  0
 84 87  2  0
 79 88  2  0
 88 89  1  0
 89 90  1  0
 90 91  1  0
 91 92  1  0
 92 93  1  0
 93 94  1  0
 94 95  1  0
 95 96  1  0
 96 97  1  0
 97 98  1  0
 95 99  1  0
 99100  1  0
 92101  1  0
101102  1  0
 88103  1  0
103104  2  0
104105  1  0
105106  1  0
106107  2  0
107108  1  0
108109  2  0
109110  1  0
109111  1  0
111112  2  0
105113  1  0
113114  2  0
114115  1  0
115116  2  0
116117  1  0
116118  1  0
118119  2  0
104120  1  0
120121  1  0
121122  1  0
122123  2  0
123124  1  0
124125  1  0
125126  2  0
126127  1  0
127128  2  0
128129  1  0
128130  1  0
130131  2  0
124132  1  0
132133  2  0
133134  1  0
134135  2  0
135136  1  0
135137  1  0
137138  2  0
123139  1  0
139140  1  0
122141  1  0
141142  2  3
142143  1  0
143144  2  0
143145  1  0
145146  2  0
146147  1  0
147148  2  0
148149  1  0
149150  1  0
148151  1  0
151152  2  0
152153  1  0
153154  2  3
154155  1  0
155156  3  0
154157  1  0
157158  3  0
 12  2  1  0
 55 18  1  0
 98 56  1  0
140103  1  0
153142  1  0
 11  5  1  0
 27 21  1  0
 34 28  1  0
 54 35  2  0
 65 58  1  0
 97 66  2  0
112106  1  0
119113  1  0
139120  2  0
152145  1  0
 46 40  1  0
 53 47  1  0
 96 68  2  0
131125  1  0
138132  1  0
 94 69  2  0
 74 70  2  0
 93 75  2  0
 91 76  2  0
 90 78  2  0
 87 80  1  0
  1159  1  0
  6160  1  0
  7161  1  0
 10162  1  0
 22163  1  0
 23164  1  0
 25165  1  0
 25166  1  0
 25167  1  0
 26168  1  0
 27169  1  0
 29170  1  0
 30171  1  0
 32172  1  0
 32173  1  0
 32174  1  0
 33175  1  0
 34176  1  0
 41177  1  0
 42178  1  0
 44179  1  0
 44180  1  0
 44181  1  0
 45182  1  0
 46183  1  0
 48184  1  0
 49185  1  0
 51186  1  0
 51187  1  0
 51188  1  0
 52189  1  0
 53190  1  0
 59191  1  0
 60192  1  0
 61193  1  0
 63194  1  0
 63195  1  0
 64196  1  0
 64197  1  0
 64198  1  0
 65199  1  0
 81200  1  0
 82201  1  0
 83202  1  0
 85203  1  0
 85204  1  0
 86205  1  0
 86206  1  0
 86207  1  0
 87208  1  0
 99209  1  0
 99210  1  0
100211  1  0
100212  1  0
100213  1  0
101214  1  0
101215  1  0
102216  1  0
102217  1  0
102218  1  0
107219  1  0
108220  1  0
110221  1  0
110222  1  0
110223  1  0
111224  1  0
112225  1  0
114226  1  0
115227  1  0
117228  1  0
117229  1  0
117230  1  0
118231  1  0
119232  1  0
126233  1  0
127234  1  0
129235  1  0
129236  1  0
129237  1  0
130238  1  0
131239  1  0
133240  1  0
134241  1  0
136242  1  0
136243  1  0
136244  1  0
137245  1  0
138246  1  0
141247  1  0
146248  1  0
147249  1  0
150250  1  0
150251  1  0
150252  1  0
151253  1  0
M  END

