
     RDKit          3D

264290  0  0  0  0  0  0  0  0999 V2000
   -1.6060   -5.5062    4.9481 C   0  0  0  0  0  0  0  0  0  0  0  0
   -0.4761   -4.9269    5.4873 C   0  0  0  0  0  0  0  0  0  0  0  0
    0.6263   -4.4252    4.6150 C   0  0  0  0  0  0  0  0  0  0  0  0
    0.7673   -4.6055    3.3611 O   0  0  0  0  0  0  0  0  0  0  0  0
    1.4453   -3.5221    5.3657 C   0  0  0  0  0  0  0  0  0  0  0  0
    2.5809   -2.8572    4.9103 C   0  0  0  0  0  0  0  0  0  0  0  0
    3.3293   -2.1432    5.8421 C   0  0  0  0  0  0  0  0  0  0  0  0
    2.9492   -2.0886    7.1640 C   0  0  0  0  0  0  0  0  0  0  0  0
    3.9036   -1.3106    8.4029 Cl  0  0  0  0  0  0  0  0  0  0  0  0
    1.7901   -2.7338    7.5931 C   0  0  0  0  0  0  0  0  0  0  0  0
    1.0139   -3.4463    6.6750 C   0  0  0  0  0  0  0  0  0  0  0  0
   -0.1374   -4.4167    6.8965 C   0  0  0  0  0  0  0  0  0  0  0  0
   -0.6444   -4.7849    8.1390 C   0  0  0  0  0  0  0  0  0  0  0  0
   -1.6232   -5.7698    8.3419 C   0  0  0  0  0  0  0  0  0  0  0  0
   -2.3001   -6.6946    8.6586 N   0  0  0  0  0  0  0  0  0  0  0  0
   -0.5393   -3.8395    9.2200 C   0  0  0  0  0  0  0  0  0  0  0  0
   -0.4277   -2.9707    9.9944 N   0  0  0  0  0  0  0  0  0  0  0  0
   -1.7972   -5.5722    3.4559 C   0  0  0  0  0  0  0  0  0  0  0  0
   -2.0692   -4.4474    2.6406 C   0  0  0  0  0  0  0  0  0  0  0  0
   -2.9217   -3.3766    3.0988 N   0  0  0  0  0  0  0  0  0  0  0  0
   -4.2196   -3.7981    3.5842 C   0  0  0  0  0  0  0  0  0  0  0  0
   -4.7304   -3.3056    4.7858 C   0  0  0  0  0  0  0  0  0  0  0  0
   -5.9772   -3.7398    5.2363 C   0  0  0  0  0  0  0  0  0  0  0  0
   -6.7171   -4.6295    4.4526 C   0  0  0  0  0  0  0  0  0  0  0  0
   -8.0261   -5.1368    4.9614 C   0  0  0  0  0  0  0  0  0  0  0  0
   -6.2167   -5.1045    3.2410 C   0  0  0  0  0  0  0  0  0  0  0  0
   -4.9704   -4.6746    2.7964 C   0  0  0  0  0  0  0  0  0  0  0  0
   -2.5369   -2.0065    3.2805 C   0  0  0  0  0  0  0  0  0  0  0  0
   -1.3067   -1.6479    3.8592 C   0  0  0  0  0  0  0  0  0  0  0  0
   -1.0521   -0.3350    4.2242 C   0  0  0  0  0  0  0  0  0  0  0  0
   -2.0155    0.6551    3.9841 C   0  0  0  0  0  0  0  0  0  0  0  0
   -1.7668    2.0779    4.3765 C   0  0  0  0  0  0  0  0  0  0  0  0
   -3.2207    0.3014    3.3803 C   0  0  0  0  0  0  0  0  0  0  0  0
   -3.4746   -1.0060    3.0215 C   0  0  0  0  0  0  0  0  0  0  0  0
   -1.8484   -4.7181    1.2866 C   0  0  0  0  0  0  0  0  0  0  0  0
   -2.1440   -3.9253   -0.2027 S   0  0  0  0  0  0  0  0  0  0  0  0
   -1.5117   -5.2000   -1.2520 C   0  0  0  0  0  0  0  0  0  0  0  0
   -1.1139   -6.2459   -0.3408 C   0  0  0  0  0  0  0  0  0  0  0  0
   -0.7776   -7.6067   -0.7672 N   0  0  0  0  0  0  0  0  0  0  0  0
   -1.8045   -8.6377   -0.7298 C   0  0  0  0  0  0  0  0  0  0  0  0
   -1.8089   -9.6732   -1.6843 C   0  0  0  0  0  0  0  0  0  0  0  0
   -2.8426  -10.6085   -1.7045 C   0  0  0  0  0  0  0  0  0  0  0  0
   -3.8578  -10.5278   -0.7221 C   0  0  0  0  0  0  0  0  0  0  0  0
   -4.9655  -11.5468   -0.6775 C   0  0  0  0  0  0  0  0  0  0  0  0
   -3.8407   -9.5302    0.2180 C   0  0  0  0  0  0  0  0  0  0  0  0
   -2.8552   -8.5857    0.2090 C   0  0  0  0  0  0  0  0  0  0  0  0
    0.6254   -7.9418   -0.9112 C   0  0  0  0  0  0  0  0  0  0  0  0
    1.1522   -9.1312   -0.3211 C   0  0  0  0  0  0  0  0  0  0  0  0
    2.4968   -9.4540   -0.5020 C   0  0  0  0  0  0  0  0  0  0  0  0
    3.3417   -8.6150   -1.2457 C   0  0  0  0  0  0  0  0  0  0  0  0
    4.7783   -8.9724   -1.5230 C   0  0  0  0  0  0  0  0  0  0  0  0
    2.8135   -7.4615   -1.8327 C   0  0  0  0  0  0  0  0  0  0  0  0
    1.4937   -7.1136   -1.6203 C   0  0  0  0  0  0  0  0  0  0  0  0
   -1.2978   -5.9318    1.0375 C   0  0  0  0  0  0  0  0  0  0  0  0
   -1.0772   -6.8185    2.4862 S   0  0  0  0  0  0  0  0  0  0  0  0
   -1.3518   -5.0650   -2.7495 C   0  0  0  0  0  0  0  0  0  0  0  0
   -2.3334   -5.0707   -3.7356 C   0  0  0  0  0  0  0  0  0  0  0  0
   -3.5320   -6.0410   -3.6740 C   0  0  0  0  0  0  0  0  0  0  0  0
   -3.0341   -7.4920   -3.9431 C   0  0  0  0  0  0  0  0  0  0  0  0
   -1.9841   -4.4404   -4.9702 C   0  0  0  0  0  0  0  0  0  0  0  0
   -2.9602   -3.4066   -6.0000 S   0  0  0  0  0  0  0  0  0  0  0  0
   -1.5727   -2.5008   -6.5436 C   0  0  0  0  0  0  0  0  0  0  0  0
   -1.1865   -1.3037   -7.1331 C   0  0  0  0  0  0  0  0  0  0  0  0
   -2.0167   -0.1269   -7.5615 C   0  0  0  0  0  0  0  0  0  0  0  0
   -3.3359   -0.1518   -7.6526 N   0  0  0  0  0  0  0  0  0  0  0  0
   -4.0758    1.0014   -7.8988 C   0  0  0  0  0  0  0  0  0  0  0  0
   -5.5840    0.9347   -7.8110 C   0  0  0  0  0  0  0  0  0  0  0  0
   -6.3776    2.0398   -7.5434 C   0  0  0  0  0  0  0  0  0  0  0  0
   -7.7098    1.7245   -7.4555 C   0  0  0  0  0  0  0  0  0  0  0  0
   -7.9805    0.4116   -7.6018 C   0  0  0  0  0  0  0  0  0  0  0  0
   -9.3774   -0.1260   -7.4623 C   0  0  0  0  0  0  0  0  0  0  0  0
   -9.8699    0.0306   -6.0112 C   0  0  0  0  0  0  0  0  0  0  0  0
   -6.5417   -0.4789   -7.8253 S   0  0  0  0  0  0  0  0  0  0  0  0
   -3.3565    2.2242   -8.0447 C   0  0  0  0  0  0  0  0  0  0  0  0
   -3.9328    3.5776   -8.3074 C   0  0  0  0  0  0  0  0  0  0  0  0
   -3.7703    4.6258   -7.4382 C   0  0  0  0  0  0  0  0  0  0  0  0
   -4.3311    5.8290   -7.9052 C   0  0  0  0  0  0  0  0  0  0  0  0
   -4.9433    5.6628   -9.1487 C   0  0  0  0  0  0  0  0  0  0  0  0
   -5.5102    6.8336   -9.9290 C   0  0  0  0  0  0  0  0  0  0  0  0
   -4.4345    7.6111  -10.6868 C   0  0  0  0  0  0  0  0  0  0  0  0
   -4.7264    4.0870   -9.7069 S   0  0  0  0  0  0  0  0  0  0  0  0
   -2.0602    2.2454   -7.8215 N   0  0  0  0  0  0  0  0  0  0  0  0
   -1.3131    1.1225   -7.5742 C   0  0  0  0  0  0  0  0  0  0  0  0
    0.0277    1.2323   -7.2217 C   0  0  0  0  0  0  0  0  0  0  0  0
    0.7137    2.3226   -6.6653 C   0  0  0  0  0  0  0  0  0  0  0  0
    0.2270    3.8076   -5.8844 S   0  0  0  0  0  0  0  0  0  0  0  0
    1.5945    3.7682   -4.8290 C   0  0  0  0  0  0  0  0  0  0  0  0
    1.8831    4.4095   -3.5612 C   0  0  0  0  0  0  0  0  0  0  0  0
    1.4013    5.8004   -3.2322 C   0  0  0  0  0  0  0  0  0  0  0  0
    2.0114    6.8170   -4.2266 C   0  0  0  0  0  0  0  0  0  0  0  0
    2.8259    3.6653   -2.7776 C   0  0  0  0  0  0  0  0  0  0  0  0
    3.2907    2.2966   -3.7412 S   0  0  0  0  0  0  0  0  0  0  0  0
    2.3063    2.6490   -5.0447 C   0  0  0  0  0  0  0  0  0  0  0  0
    1.7848    1.8308   -6.0585 C   0  0  0  0  0  0  0  0  0  0  0  0
    1.9201    0.4921   -6.2423 N   0  0  0  0  0  0  0  0  0  0  0  0
    3.2567   -0.1013   -6.1317 C   0  0  0  0  0  0  0  0  0  0  0  0
    4.0860    0.2053   -7.4238 C   0  0  0  0  0  0  0  0  0  0  0  0
    0.8348    0.0865   -6.9250 C   0  0  0  0  0  0  0  0  0  0  0  0
    0.1915   -1.1961   -6.9335 C   0  0  0  0  0  0  0  0  0  0  0  0
    0.6251   -2.2932   -6.2457 N   0  0  0  0  0  0  0  0  0  0  0  0
   -0.4911   -2.9373   -5.9026 C   0  0  0  0  0  0  0  0  0  0  0  0
   -0.7133   -3.9813   -4.9868 C   0  0  0  0  0  0  0  0  0  0  0  0
   -0.0054   -4.1680   -3.4400 S   0  0  0  0  0  0  0  0  0  0  0  0
    1.9335   -2.9684   -6.4602 C   0  0  0  0  0  0  0  0  0  0  0  0
    1.6769   -4.2723   -7.2383 C   0  0  0  0  0  0  0  0  0  0  0  0
    3.2426    3.6844   -1.3733 C   0  0  0  0  0  0  0  0  0  0  0  0
    2.4846    3.9769   -0.2134 C   0  0  0  0  0  0  0  0  0  0  0  0
    1.1692    4.6006   -0.1453 N   0  0  0  0  0  0  0  0  0  0  0  0
    0.9900    5.9443    0.3638 C   0  0  0  0  0  0  0  0  0  0  0  0
    1.8332    6.4903    1.3541 C   0  0  0  0  0  0  0  0  0  0  0  0
    1.5096    7.6815    1.9952 C   0  0  0  0  0  0  0  0  0  0  0  0
    0.3577    8.4065    1.6116 C   0  0  0  0  0  0  0  0  0  0  0  0
   -0.0160    9.6512    2.3550 C   0  0  0  0  0  0  0  0  0  0  0  0
   -0.4338    7.8995    0.5713 C   0  0  0  0  0  0  0  0  0  0  0  0
   -0.1165    6.7195   -0.0486 C   0  0  0  0  0  0  0  0  0  0  0  0
    0.0153    3.7224   -0.1390 C   0  0  0  0  0  0  0  0  0  0  0  0
   -1.0114    3.8855    0.8116 C   0  0  0  0  0  0  0  0  0  0  0  0
   -2.1234    3.0822    0.7856 C   0  0  0  0  0  0  0  0  0  0  0  0
   -2.2495    2.0537   -0.1621 C   0  0  0  0  0  0  0  0  0  0  0  0
   -3.4784    1.1971   -0.1890 C   0  0  0  0  0  0  0  0  0  0  0  0
   -1.2420    1.8951   -1.1343 C   0  0  0  0  0  0  0  0  0  0  0  0
   -0.1170    2.7102   -1.1150 C   0  0  0  0  0  0  0  0  0  0  0  0
    2.9853    3.3205    0.9216 C   0  0  0  0  0  0  0  0  0  0  0  0
    2.2135    2.7171    2.3408 S   0  0  0  0  0  0  0  0  0  0  0  0
    3.7957    2.3636    3.0311 C   0  0  0  0  0  0  0  0  0  0  0  0
    4.7000    2.1221    1.9873 C   0  0  0  0  0  0  0  0  0  0  0  0
    5.6789    1.0575    2.0471 N   0  0  0  0  0  0  0  0  0  0  0  0
    6.8162    1.2254    1.2145 C   0  0  0  0  0  0  0  0  0  0  0  0
    7.1289    0.2328    0.2740 C   0  0  0  0  0  0  0  0  0  0  0  0
    8.1722    0.3641   -0.5890 C   0  0  0  0  0  0  0  0  0  0  0  0
    8.9903    1.4979   -0.5681 C   0  0  0  0  0  0  0  0  0  0  0  0
   10.0946    1.5976   -1.5610 C   0  0  0  0  0  0  0  0  0  0  0  0
    8.7009    2.5410    0.3553 C   0  0  0  0  0  0  0  0  0  0  0  0
    7.6203    2.3932    1.2342 C   0  0  0  0  0  0  0  0  0  0  0  0
    5.2092   -0.2867    2.2946 C   0  0  0  0  0  0  0  0  0  0  0  0
    6.0560   -1.1862    2.9797 C   0  0  0  0  0  0  0  0  0  0  0  0
    5.8842   -2.5676    2.8741 C   0  0  0  0  0  0  0  0  0  0  0  0
    4.8480   -3.1068    2.0820 C   0  0  0  0  0  0  0  0  0  0  0  0
    4.6855   -4.5849    1.9388 C   0  0  0  0  0  0  0  0  0  0  0  0
    4.0084   -2.2205    1.3630 C   0  0  0  0  0  0  0  0  0  0  0  0
    4.1766   -0.8285    1.4961 C   0  0  0  0  0  0  0  0  0  0  0  0
    4.2330    2.7030    0.8156 C   0  0  0  0  0  0  0  0  0  0  0  0
    4.6425    2.6997   -0.8139 S   0  0  0  0  0  0  0  0  0  0  0  0
    4.1138    2.2275    4.5289 C   0  0  0  0  0  0  0  0  0  0  0  0
    3.7629    3.1581    5.5118 C   0  0  0  0  0  0  0  0  0  0  0  0
    3.0840    4.4995    5.4268 C   0  0  0  0  0  0  0  0  0  0  0  0
    3.0255    5.3204    4.4594 O   0  0  0  0  0  0  0  0  0  0  0  0
    2.7962    5.0010    6.6828 C   0  0  0  0  0  0  0  0  0  0  0  0
    2.0808    6.1877    6.8688 C   0  0  0  0  0  0  0  0  0  0  0  0
    1.7689    6.5304    8.1240 C   0  0  0  0  0  0  0  0  0  0  0  0
    1.0219    7.6711    8.3560 C   0  0  0  0  0  0  0  0  0  0  0  0
    0.6791    8.0253    9.6484 C   0  0  0  0  0  0  0  0  0  0  0  0
    1.1122    7.2261   10.7076 C   0  0  0  0  0  0  0  0  0  0  0  0
    0.8154    7.6074   11.9932 F   0  0  0  0  0  0  0  0  0  0  0  0
    1.8349    6.0720   10.4693 C   0  0  0  0  0  0  0  0  0  0  0  0
    2.1829    5.6973    9.1835 C   0  0  0  0  0  0  0  0  0  0  0  0
    2.9078    4.5049    8.9761 C   0  0  0  0  0  0  0  0  0  0  0  0
    3.2512    4.1568    7.6660 C   0  0  0  0  0  0  0  0  0  0  0  0
    3.9389    2.9935    7.0536 C   0  0  0  0  0  0  0  0  0  0  0  0
    4.7160    2.0944    7.7447 C   0  0  0  0  0  0  0  0  0  0  0  0
    5.5671    1.1411    7.1755 C   0  0  0  0  0  0  0  0  0  0  0  0
    6.2693    0.3494    6.6558 N   0  0  0  0  0  0  0  0  0  0  0  0
    4.7484    2.0889    9.2051 C   0  0  0  0  0  0  0  0  0  0  0  0
    4.7500    2.1164   10.3423 N   0  0  0  0  0  0  0  0  0  0  0  0
   -2.4197   -5.7658    5.6080 H   0  0  0  0  0  0  0  0  0  0  0  0
    2.8680   -2.9099    3.8742 H   0  0  0  0  0  0  0  0  0  0  0  0
    4.2344   -1.6674    5.5498 H   0  0  0  0  0  0  0  0  0  0  0  0
    1.5798   -2.7047    8.6405 H   0  0  0  0  0  0  0  0  0  0  0  0
   -4.1504   -2.6150    5.4007 H   0  0  0  0  0  0  0  0  0  0  0  0
   -6.3418   -3.3727    6.1779 H   0  0  0  0  0  0  0  0  0  0  0  0
   -8.5920   -5.6028    4.1498 H   0  0  0  0  0  0  0  0  0  0  0  0
   -8.5967   -4.2964    5.3888 H   0  0  0  0  0  0  0  0  0  0  0  0
   -7.7933   -5.8906    5.7482 H   0  0  0  0  0  0  0  0  0  0  0  0
   -6.7634   -5.8099    2.6269 H   0  0  0  0  0  0  0  0  0  0  0  0
   -4.5862   -5.0524    1.8499 H   0  0  0  0  0  0  0  0  0  0  0  0
   -0.5651   -2.3966    4.0977 H   0  0  0  0  0  0  0  0  0  0  0  0
   -0.1052   -0.0799    4.6968 H   0  0  0  0  0  0  0  0  0  0  0  0
   -1.0268    2.5350    3.6866 H   0  0  0  0  0  0  0  0  0  0  0  0
   -1.3888    2.1259    5.4225 H   0  0  0  0  0  0  0  0  0  0  0  0
   -2.7074    2.6686    4.3310 H   0  0  0  0  0  0  0  0  0  0  0  0
   -3.9813    1.0314    3.1809 H   0  0  0  0  0  0  0  0  0  0  0  0
   -4.4426   -1.2901    2.6200 H   0  0  0  0  0  0  0  0  0  0  0  0
   -1.0177   -9.6921   -2.4387 H   0  0  0  0  0  0  0  0  0  0  0  0
   -2.8343  -11.3857   -2.4661 H   0  0  0  0  0  0  0  0  0  0  0  0
   -5.0677  -11.8936    0.3976 H   0  0  0  0  0  0  0  0  0  0  0  0
   -5.9061  -11.0684   -0.9780 H   0  0  0  0  0  0  0  0  0  0  0  0
   -4.7428  -12.4178   -1.2964 H   0  0  0  0  0  0  0  0  0  0  0  0
   -4.6218   -9.4645    0.9893 H   0  0  0  0  0  0  0  0  0  0  0  0
   -2.9476   -7.8167    0.9769 H   0  0  0  0  0  0  0  0  0  0  0  0
    0.4998   -9.7673    0.2694 H   0  0  0  0  0  0  0  0  0  0  0  0
    2.8749  -10.3784   -0.0453 H   0  0  0  0  0  0  0  0  0  0  0  0
    5.4070   -8.0956   -1.3031 H   0  0  0  0  0  0  0  0  0  0  0  0
    4.8856   -9.2323   -2.6058 H   0  0  0  0  0  0  0  0  0  0  0  0
    5.1093   -9.8184   -0.9122 H   0  0  0  0  0  0  0  0  0  0  0  0
    3.4551   -6.8152   -2.4443 H   0  0  0  0  0  0  0  0  0  0  0  0
    1.1092   -6.1811   -2.0831 H   0  0  0  0  0  0  0  0  0  0  0  0
   -3.9707   -5.9867   -2.6639 H   0  0  0  0  0  0  0  0  0  0  0  0
   -4.2725   -5.7892   -4.4361 H   0  0  0  0  0  0  0  0  0  0  0  0
   -2.0075   -7.6650   -3.4959 H   0  0  0  0  0  0  0  0  0  0  0  0
   -3.7220   -8.2028   -3.4914 H   0  0  0  0  0  0  0  0  0  0  0  0
   -2.9497   -7.6689   -5.0312 H   0  0  0  0  0  0  0  0  0  0  0  0
   -6.0687    3.0371   -7.3647 H   0  0  0  0  0  0  0  0  0  0  0  0
   -8.4579    2.5135   -7.2594 H   0  0  0  0  0  0  0  0  0  0  0  0
   -9.4495   -1.1772   -7.7743 H   0  0  0  0  0  0  0  0  0  0  0  0
  -10.0301    0.4714   -8.0985 H   0  0  0  0  0  0  0  0  0  0  0  0
  -10.6281   -0.7265   -5.7767 H   0  0  0  0  0  0  0  0  0  0  0  0
  -10.3709    1.0379   -5.8709 H   0  0  0  0  0  0  0  0  0  0  0  0
   -9.0634   -0.0526   -5.2776 H   0  0  0  0  0  0  0  0  0  0  0  0
   -3.3017    4.5774   -6.4629 H   0  0  0  0  0  0  0  0  0  0  0  0
   -4.2945    6.7847   -7.3717 H   0  0  0  0  0  0  0  0  0  0  0  0
   -6.0343    7.5223   -9.2572 H   0  0  0  0  0  0  0  0  0  0  0  0
   -6.2867    6.4826  -10.6624 H   0  0  0  0  0  0  0  0  0  0  0  0
   -4.1493    8.5384  -10.1271 H   0  0  0  0  0  0  0  0  0  0  0  0
   -4.7846    7.9359  -11.6905 H   0  0  0  0  0  0  0  0  0  0  0  0
   -3.5159    7.0157  -10.8375 H   0  0  0  0  0  0  0  0  0  0  0  0
    0.3187    5.8073   -3.2732 H   0  0  0  0  0  0  0  0  0  0  0  0
    1.7656    6.0709   -2.2194 H   0  0  0  0  0  0  0  0  0  0  0  0
    2.2353    7.7686   -3.6917 H   0  0  0  0  0  0  0  0  0  0  0  0
    1.2842    6.9916   -5.0407 H   0  0  0  0  0  0  0  0  0  0  0  0
    2.9715    6.4368   -4.6751 H   0  0  0  0  0  0  0  0  0  0  0  0
    3.2736   -1.0642   -5.7583 H   0  0  0  0  0  0  0  0  0  0  0  0
    3.7826    0.3768   -5.2915 H   0  0  0  0  0  0  0  0  0  0  0  0
    4.3360    1.2826   -7.3760 H   0  0  0  0  0  0  0  0  0  0  0  0
    3.4592   -0.0450   -8.2799 H   0  0  0  0  0  0  0  0  0  0  0  0
    5.0072   -0.4439   -7.3537 H   0  0  0  0  0  0  0  0  0  0  0  0
    2.3429   -3.1505   -5.5011 H   0  0  0  0  0  0  0  0  0  0  0  0
    2.5069   -2.3758   -7.1689 H   0  0  0  0  0  0  0  0  0  0  0  0
    2.7201   -4.6740   -7.4663 H   0  0  0  0  0  0  0  0  0  0  0  0
    1.1549   -4.9878   -6.5890 H   0  0  0  0  0  0  0  0  0  0  0  0
    1.1204   -4.0341   -8.1650 H   0  0  0  0  0  0  0  0  0  0  0  0
    2.7265    5.9327    1.7219 H   0  0  0  0  0  0  0  0  0  0  0  0
    2.1507    8.0650    2.7990 H   0  0  0  0  0  0  0  0  0  0  0  0
    0.8056   10.3851    2.2680 H   0  0  0  0  0  0  0  0  0  0  0  0
   -0.9474   10.0830    1.9583 H   0  0  0  0  0  0  0  0  0  0  0  0
   -0.1654    9.3941    3.4336 H   0  0  0  0  0  0  0  0  0  0  0  0
   -1.3306    8.4342    0.2497 H   0  0  0  0  0  0  0  0  0  0  0  0
   -0.7675    6.2996   -0.8020 H   0  0  0  0  0  0  0  0  0  0  0  0
   -0.9253    4.6458    1.6054 H   0  0  0  0  0  0  0  0  0  0  0  0
   -2.8948    3.2470    1.5389 H   0  0  0  0  0  0  0  0  0  0  0  0
   -4.1545    1.5482   -0.9852 H   0  0  0  0  0  0  0  0  0  0  0  0
   -3.1756    0.1519   -0.3586 H   0  0  0  0  0  0  0  0  0  0  0  0
   -3.9963    1.2589    0.7853 H   0  0  0  0  0  0  0  0  0  0  0  0
   -1.3360    1.1138   -1.8902 H   0  0  0  0  0  0  0  0  0  0  0  0
    0.6737    2.5397   -1.8719 H   0  0  0  0  0  0  0  0  0  0  0  0
    6.5479   -0.6572    0.1470 H   0  0  0  0  0  0  0  0  0  0  0  0
    8.3517   -0.4664   -1.2802 H   0  0  0  0  0  0  0  0  0  0  0  0
   11.0141    1.9792   -1.0755 H   0  0  0  0  0  0  0  0  0  0  0  0
    9.7444    2.2620   -2.3880 H   0  0  0  0  0  0  0  0  0  0  0  0
   10.3064    0.5911   -1.9870 H   0  0  0  0  0  0  0  0  0  0  0  0
    9.3134    3.4479    0.4003 H   0  0  0  0  0  0  0  0  0  0  0  0
    7.3693    3.1943    1.9502 H   0  0  0  0  0  0  0  0  0  0  0  0
    6.9067   -0.7879    3.5104 H   0  0  0  0  0  0  0  0  0  0  0  0
    6.5424   -3.2257    3.4172 H   0  0  0  0  0  0  0  0  0  0  0  0
    5.2340   -5.1104    2.7268 H   0  0  0  0  0  0  0  0  0  0  0  0
    3.6162   -4.8349    2.0131 H   0  0  0  0  0  0  0  0  0  0  0  0
    5.0535   -4.9088    0.9305 H   0  0  0  0  0  0  0  0  0  0  0  0
    3.2039   -2.6149    0.7121 H   0  0  0  0  0  0  0  0  0  0  0  0
    3.5636   -0.1753    0.8212 H   0  0  0  0  0  0  0  0  0  0  0  0
    4.6930    1.3140    4.8227 H   0  0  0  0  0  0  0  0  0  0  0  0
    1.7798    6.7866    5.9606 H   0  0  0  0  0  0  0  0  0  0  0  0
    0.6590    8.2714    7.5166 H   0  0  0  0  0  0  0  0  0  0  0  0
    0.0937    8.9043    9.8263 H   0  0  0  0  0  0  0  0  0  0  0  0
    2.1702    5.4769   11.3066 H   0  0  0  0  0  0  0  0  0  0  0  0
    3.0647    3.8488    9.7793 H   0  0  0  0  0  0  0  0  0  0  0  0
  1  2  2  3
  2  3  1  0
  3  4  2  0
  3  5  1  0
  5  6  2  0
  6  7  1  0
  7  8  2  0
  8  9  1  0
  8 10  1  0
 10 11  2  0
 11 12  1  0
 12 13  2  3
 13 14  1  0
 14 15  3  0
 13 16  1  0
 16 17  3  0
  1 18  1  0
 18 19  2  0
 19 20  1  0
 20 21  1  0
 21 22  2  0
 22 23  1  0
 23 24  2  0
 24 25  1  0
 24 26  1  0
 26 27  2  0
 20 28  1  0
 28 29  2  0
 29 30  1  0
 30 31  2  0
 31 32  1  0
 31 33  1  0
 33 34  2  0
 19 35  1  0
 35 36  1  0
 36 37  1  0
 37 38  2  0
 38 39  1  0
 39 40  1  0
 40 41  2  0
 41 42  1  0
 42 43  2  0
 43 44  1  0
 43 45  1  0
 45 46  2  0
 39 47  1  0
 47 48  2  0
 48 49  1  0
 49 50  2  0
 50 51  1  0
 50 52  1  0
 52 53  2  0
 38 54  1  0
 54 55  1  0
 37 56  1  0
 56 57  2  0
 57 58  1  0
 58 59  1  0
 57 60  1  0
 60 61  1  0
 61 62  1  0
 62 63  1  0
 63 64  2  0
 64 65  1  0
 65 66  2  0
 66 67  1  0
 67 68  2  0
 68 69  1  0
 69 70  2  0
 70 71  1  0
 71 72  1  0
 70 73  1  0
 66 74  1  0
 74 75  1  0
 75 76  2  0
 76 77  1  0
 77 78  2  0
 78 79  1  0
 79 80  1  0
 78 81  1  0
 74 82  2  0
 82 83  1  0
 83 84  2  0
 84 85  1  0
 85 86  1  0
 86 87  1  0
 87 88  1  0
 88 89  1  0
 89 90  1  0
 88 91  2  0
 91 92  1  0
 92 93  1  0
 93 94  1  0
 94 95  1  0
 95 96  1  0
 96 97  1  0
 95 98  1  0
 98 99  2  0
 99100  1  0
100101  1  0
101102  1  0
102103  1  0
100104  1  0
104105  1  0
 91106  1  0
106107  2  0
107108  1  0
108109  1  0
109110  2  0
110111  1  0
111112  2  0
112113  1  0
112114  1  0
114115  2  0
108116  1  0
116117  2  0
117118  1  0
118119  2  0
119120  1  0
119121  1  0
121122  2  0
107123  1  0
123124  1  0
124125  1  0
125126  2  0
126127  1  0
127128  1  0
128129  2  0
129130  1  0
130131  2  0
131132  1  0
131133  1  0
133134  2  0
127135  1  0
135136  2  0
136137  1  0
137138  2  0
138139  1  0
138140  1  0
140141  2  0
126142  1  0
142143  1  0
125144  1  0
144145  2  3
145146  1  0
146147  2  0
146148  1  0
148149  2  0
149150  1  0
150151  2  0
151152  1  0
152153  2  0
153154  1  0
153155  1  0
155156  2  0
156157  1  0
157158  2  0
158159  1  0
159160  2  3
160161  1  0
161162  3  0
160163  1  0
163164  3  0
 12  2  1  0
 55 18  1  0
103 56  1  0
143106  1  0
159145  1  0
 11  5  1  0
 27 21  1  0
 34 28  1  0
 54 35  2  0
102 60  2  0
115109  1  0
122116  1  0
142123  2  0
158148  1  0
 46 40  1  0
 53 47  1  0
101 62  2  0
134128  1  0
141135  1  0
156150  1  0
 99 63  1  0
 83 64  1  0
 98 84  1  0
 73 67  1  0
 81 75  1  0
 94 85  2  0
 93 87  2  0
  1165  1  0
  6166  1  0
  7167  1  0
 10168  1  0
 22169  1  0
 23170  1  0
 25171  1  0
 25172  1  0
 25173  1  0
 26174  1  0
 27175  1  0
 29176  1  0
 30177  1  0
 32178  1  0
 32179  1  0
 32180  1  0
 33181  1  0
 34182  1  0
 41183  1  0
 42184  1  0
 44185  1  0
 44186  1  0
 44187  1  0
 45188  1  0
 46189  1  0
 48190  1  0
 49191  1  0
 51192  1  0
 51193  1  0
 51194  1  0
 52195  1  0
 53196  1  0
 58197  1  0
 58198  1  0
 59199  1  0
 59200  1  0
 59201  1  0
 68202  1  0
 69203  1  0
 71204  1  0
 71205  1  0
 72206  1  0
 72207  1  0
 72208  1  0
 76209  1  0
 77210  1  0
 79211  1  0
 79212  1  0
 80213  1  0
 80214  1  0
 80215  1  0
 89216  1  0
 89217  1  0
 90218  1  0
 90219  1  0
 90220  1  0
 96221  1  0
 96222  1  0
 97223  1  0
 97224  1  0
 97225  1  0
104226  1  0
104227  1  0
105228  1  0
105229  1  0
105230  1  0
110231  1  0
111232  1  0
113233  1  0
113234  1  0
113235  1  0
114236  1  0
115237  1  0
117238  1  0
118239  1  0
120240  1  0
120241  1  0
120242  1  0
121243  1  0
122244  1  0
129245  1  0
130246  1  0
132247  1  0
132248  1  0
132249  1  0
133250  1  0
134251  1  0
136252  1  0
137253  1  0
139254  1  0
139255  1  0
139256  1  0
140257  1  0
141258  1  0
144259  1  0
149260  1  0
151261  1  0
152262  1  0
155263  1  0
157264  1  0
M  END

