
     RDKit          3D

200220  0  0  0  0  0  0  0  0999 V2000
   -4.9224    6.1899    1.6613 C   0  0  0  0  0  0  0  0  0  0  0  0
   -5.0419    6.9221    0.5370 C   0  0  0  0  0  0  0  0  0  0  0  0
   -3.9726    7.1892   -0.4298 C   0  0  0  0  0  0  0  0  0  0  0  0
   -2.7440    7.3070   -0.1746 O   0  0  0  0  0  0  0  0  0  0  0  0
   -4.5817    7.4401   -1.7184 C   0  0  0  0  0  0  0  0  0  0  0  0
   -3.9603    7.4841   -2.9673 C   0  0  0  0  0  0  0  0  0  0  0  0
   -4.7697    7.5570   -4.1058 C   0  0  0  0  0  0  0  0  0  0  0  0
   -6.1745    7.5824   -3.9822 C   0  0  0  0  0  0  0  0  0  0  0  0
   -7.1795    7.6054   -5.4179 Cl  0  0  0  0  0  0  0  0  0  0  0  0
   -6.7765    7.5296   -2.7141 C   0  0  0  0  0  0  0  0  0  0  0  0
   -5.9598    7.4802   -1.5737 C   0  0  0  0  0  0  0  0  0  0  0  0
   -6.3148    7.3088   -0.1371 C   0  0  0  0  0  0  0  0  0  0  0  0
   -7.4895    7.6337    0.4585 C   0  0  0  0  0  0  0  0  0  0  0  0
   -8.6161    8.1274   -0.2907 C   0  0  0  0  0  0  0  0  0  0  0  0
   -9.5325    8.5181   -0.8769 N   0  0  0  0  0  0  0  0  0  0  0  0
   -7.6668    7.6163    1.8879 C   0  0  0  0  0  0  0  0  0  0  0  0
   -7.8273    7.6022    3.0318 N   0  0  0  0  0  0  0  0  0  0  0  0
   -3.6777    5.5110    2.0688 C   0  0  0  0  0  0  0  0  0  0  0  0
   -3.2984    5.2552    3.3969 C   0  0  0  0  0  0  0  0  0  0  0  0
   -4.1622    5.4446    4.5310 N   0  0  0  0  0  0  0  0  0  0  0  0
   -4.5489    6.7673    4.9694 C   0  0  0  0  0  0  0  0  0  0  0  0
   -3.7101    7.8724    4.7361 C   0  0  0  0  0  0  0  0  0  0  0  0
   -4.0758    9.1469    5.1769 C   0  0  0  0  0  0  0  0  0  0  0  0
   -5.2757    9.3380    5.8762 C   0  0  0  0  0  0  0  0  0  0  0  0
   -5.6807   10.7133    6.3148 C   0  0  0  0  0  0  0  0  0  0  0  0
   -6.1250    8.2457    6.0953 C   0  0  0  0  0  0  0  0  0  0  0  0
   -5.7674    6.9717    5.6433 C   0  0  0  0  0  0  0  0  0  0  0  0
   -4.6593    4.2608    5.1891 C   0  0  0  0  0  0  0  0  0  0  0  0
   -4.5123    4.1003    6.5747 C   0  0  0  0  0  0  0  0  0  0  0  0
   -4.9148    2.9107    7.1953 C   0  0  0  0  0  0  0  0  0  0  0  0
   -5.4604    1.8668    6.4315 C   0  0  0  0  0  0  0  0  0  0  0  0
   -5.9098    0.5917    7.0827 C   0  0  0  0  0  0  0  0  0  0  0  0
   -5.6281    2.0358    5.0534 C   0  0  0  0  0  0  0  0  0  0  0  0
   -5.2207    3.2184    4.4328 C   0  0  0  0  0  0  0  0  0  0  0  0
   -2.1734    4.4372    3.4467 C   0  0  0  0  0  0  0  0  0  0  0  0
   -1.3097    3.7352    4.7010 S   0  0  0  0  0  0  0  0  0  0  0  0
   -0.3631    2.7830    3.6582 C   0  0  0  0  0  0  0  0  0  0  0  0
   -0.7235    3.0192    2.3242 C   0  0  0  0  0  0  0  0  0  0  0  0
   -0.3394    2.1818    1.2186 N   0  0  0  0  0  0  0  0  0  0  0  0
    0.7260    2.6253    0.3574 C   0  0  0  0  0  0  0  0  0  0  0  0
    0.4482    3.0396   -0.9526 C   0  0  0  0  0  0  0  0  0  0  0  0
    1.4911    3.3880   -1.8181 C   0  0  0  0  0  0  0  0  0  0  0  0
    2.8225    3.3441   -1.3754 C   0  0  0  0  0  0  0  0  0  0  0  0
    3.9404    3.6684   -2.3222 C   0  0  0  0  0  0  0  0  0  0  0  0
    3.0973    2.9194   -0.0692 C   0  0  0  0  0  0  0  0  0  0  0  0
    2.0569    2.5581    0.7890 C   0  0  0  0  0  0  0  0  0  0  0  0
   -1.0747    0.9586    0.9341 C   0  0  0  0  0  0  0  0  0  0  0  0
   -2.2206    0.6109    1.6814 C   0  0  0  0  0  0  0  0  0  0  0  0
   -2.9196   -0.5674    1.4144 C   0  0  0  0  0  0  0  0  0  0  0  0
   -2.5053   -1.4205    0.3797 C   0  0  0  0  0  0  0  0  0  0  0  0
   -3.2476   -2.6945    0.1083 C   0  0  0  0  0  0  0  0  0  0  0  0
   -1.3597   -1.0993   -0.3581 C   0  0  0  0  0  0  0  0  0  0  0  0
   -0.6524    0.0755   -0.0856 C   0  0  0  0  0  0  0  0  0  0  0  0
   -1.7295    3.9742    2.2508 C   0  0  0  0  0  0  0  0  0  0  0  0
   -2.6855    4.5853    1.0220 S   0  0  0  0  0  0  0  0  0  0  0  0
    0.7901    2.0044    4.0910 C   0  0  0  0  0  0  0  0  0  0  0  0
    2.0161    2.5714    4.4705 C   0  0  0  0  0  0  0  0  0  0  0  0
    2.2667    4.0195    4.6386 C   0  0  0  0  0  0  0  0  0  0  0  0
    1.9860    4.9281    3.6045 C   0  0  0  0  0  0  0  0  0  0  0  0
    2.1759    6.2976    3.8002 C   0  0  0  0  0  0  0  0  0  0  0  0
    2.6462    6.7706    5.0270 C   0  0  0  0  0  0  0  0  0  0  0  0
    2.9447    5.8725    6.0629 C   0  0  0  0  0  0  0  0  0  0  0  0
    3.3773    6.3850    7.4098 C   0  0  0  0  0  0  0  0  0  0  0  0
    2.1703    6.6008    8.3138 C   0  0  0  0  0  0  0  0  0  0  0  0
    2.7550    4.4962    5.8617 C   0  0  0  0  0  0  0  0  0  0  0  0
    3.0274    1.6089    4.4835 C   0  0  0  0  0  0  0  0  0  0  0  0
    4.7023    1.7924    4.2621 S   0  0  0  0  0  0  0  0  0  0  0  0
    4.8817    0.1598    3.8369 C   0  0  0  0  0  0  0  0  0  0  0  0
    5.7157   -0.4887    2.9630 C   0  0  0  0  0  0  0  0  0  0  0  0
    6.7530    0.0451    2.1814 C   0  0  0  0  0  0  0  0  0  0  0  0
    7.1437   -0.6353    0.9872 C   0  0  0  0  0  0  0  0  0  0  0  0
    8.0790   -0.0353    0.2102 N   0  0  0  0  0  0  0  0  0  0  0  0
    8.3474    1.3329    1.1032 S   0  0  0  0  0  0  0  0  0  0  0  0
    7.3478    1.2387    2.4211 N   0  0  0  0  0  0  0  0  0  0  0  0
    6.5403   -1.8583    0.6878 C   0  0  0  0  0  0  0  0  0  0  0  0
    6.6077   -2.6680   -0.4135 C   0  0  0  0  0  0  0  0  0  0  0  0
    6.8766   -2.4042   -2.0717 S   0  0  0  0  0  0  0  0  0  0  0  0
    5.8395   -3.6961   -2.4960 C   0  0  0  0  0  0  0  0  0  0  0  0
    5.1742   -4.0044   -3.6892 C   0  0  0  0  0  0  0  0  0  0  0  0
    5.5140   -3.4022   -4.9980 C   0  0  0  0  0  0  0  0  0  0  0  0
    6.8508   -3.3739   -5.4282 C   0  0  0  0  0  0  0  0  0  0  0  0
    7.1843   -2.8147   -6.6659 C   0  0  0  0  0  0  0  0  0  0  0  0
    6.1905   -2.2564   -7.4736 C   0  0  0  0  0  0  0  0  0  0  0  0
    4.8527   -2.2574   -7.0501 C   0  0  0  0  0  0  0  0  0  0  0  0
    3.7841   -1.6363   -7.9171 C   0  0  0  0  0  0  0  0  0  0  0  0
    3.8607   -0.1114   -7.8795 C   0  0  0  0  0  0  0  0  0  0  0  0
    4.5213   -2.8259   -5.8088 C   0  0  0  0  0  0  0  0  0  0  0  0
    4.0574   -4.8306   -3.4299 C   0  0  0  0  0  0  0  0  0  0  0  0
    3.9124   -5.1156   -1.7606 S   0  0  0  0  0  0  0  0  0  0  0  0
    5.2879   -4.2596   -1.3711 C   0  0  0  0  0  0  0  0  0  0  0  0
    5.7255   -3.6814   -0.1967 C   0  0  0  0  0  0  0  0  0  0  0  0
    5.0925   -3.5918    0.9947 N   0  0  0  0  0  0  0  0  0  0  0  0
    5.5528   -2.4174    1.5067 C   0  0  0  0  0  0  0  0  0  0  0  0
    5.0236   -1.6451    2.5673 C   0  0  0  0  0  0  0  0  0  0  0  0
    3.7316   -1.6190    3.0340 N   0  0  0  0  0  0  0  0  0  0  0  0
    3.6893   -0.5042    3.8131 C   0  0  0  0  0  0  0  0  0  0  0  0
    2.6271    0.3342    4.1603 C   0  0  0  0  0  0  0  0  0  0  0  0
    0.9920    0.3506    3.7775 S   0  0  0  0  0  0  0  0  0  0  0  0
    2.5435   -2.2584    2.4401 C   0  0  0  0  0  0  0  0  0  0  0  0
    2.2121   -1.6576    1.0744 C   0  0  0  0  0  0  0  0  0  0  0  0
    4.6625   -4.7587    1.7826 C   0  0  0  0  0  0  0  0  0  0  0  0
    5.7641   -5.8106    1.8753 C   0  0  0  0  0  0  0  0  0  0  0  0
    3.0731   -5.3353   -4.3905 C   0  0  0  0  0  0  0  0  0  0  0  0
    3.3481   -5.9779   -5.5939 C   0  0  0  0  0  0  0  0  0  0  0  0
    2.2008   -6.5583   -6.1734 C   0  0  0  0  0  0  0  0  0  0  0  0
    2.2050   -7.3397   -7.3355 O   0  0  0  0  0  0  0  0  0  0  0  0
    3.4019   -7.7983   -7.9642 C   0  0  0  0  0  0  0  0  0  0  0  0
    3.0610   -8.8564   -9.0030 C   0  0  0  0  0  0  0  0  0  0  0  0
    1.0422   -6.3473   -5.4328 C   0  0  0  0  0  0  0  0  0  0  0  0
    1.4305   -5.4699   -4.0544 S   0  0  0  0  0  0  0  0  0  0  0  0
   -0.2836   -6.9203   -5.7017 C   0  0  0  0  0  0  0  0  0  0  0  0
   -0.8903   -7.7714   -4.8511 C   0  0  0  0  0  0  0  0  0  0  0  0
   -0.2233   -8.5195   -3.7736 C   0  0  0  0  0  0  0  0  0  0  0  0
    0.9658   -8.3730   -3.3797 O   0  0  0  0  0  0  0  0  0  0  0  0
   -1.1173   -9.5547   -3.3104 C   0  0  0  0  0  0  0  0  0  0  0  0
   -0.8548  -10.5602   -2.3815 C   0  0  0  0  0  0  0  0  0  0  0  0
   -1.8383  -11.5400   -2.1502 C   0  0  0  0  0  0  0  0  0  0  0  0
   -1.5646  -12.6766   -1.1977 C   0  0  0  0  0  0  0  0  0  0  0  0
   -2.7469  -13.1545   -0.6550 F   0  0  0  0  0  0  0  0  0  0  0  0
   -0.7497  -12.2545   -0.1629 F   0  0  0  0  0  0  0  0  0  0  0  0
   -0.9365  -13.6978   -1.8862 F   0  0  0  0  0  0  0  0  0  0  0  0
   -3.0321  -11.5133   -2.9076 C   0  0  0  0  0  0  0  0  0  0  0  0
   -3.2687  -10.4929   -3.8426 C   0  0  0  0  0  0  0  0  0  0  0  0
   -2.3044   -9.4889   -4.0154 C   0  0  0  0  0  0  0  0  0  0  0  0
   -2.2783   -8.3208   -4.9408 C   0  0  0  0  0  0  0  0  0  0  0  0
   -3.3552   -7.7203   -5.5141 C   0  0  0  0  0  0  0  0  0  0  0  0
   -4.6958   -8.2133   -5.3404 C   0  0  0  0  0  0  0  0  0  0  0  0
   -5.7813   -8.5871   -5.1891 N   0  0  0  0  0  0  0  0  0  0  0  0
   -3.2604   -6.4502   -6.1901 C   0  0  0  0  0  0  0  0  0  0  0  0
   -3.1933   -5.4284   -6.7313 N   0  0  0  0  0  0  0  0  0  0  0  0
   -5.7812    6.0004    2.2838 H   0  0  0  0  0  0  0  0  0  0  0  0
   -2.8821    7.4151   -3.0556 H   0  0  0  0  0  0  0  0  0  0  0  0
   -4.3108    7.5741   -5.0870 H   0  0  0  0  0  0  0  0  0  0  0  0
   -7.8540    7.4860   -2.6436 H   0  0  0  0  0  0  0  0  0  0  0  0
   -2.7648    7.7463    4.2255 H   0  0  0  0  0  0  0  0  0  0  0  0
   -3.4183    9.9846    4.9780 H   0  0  0  0  0  0  0  0  0  0  0  0
   -6.1416   11.2583    5.4644 H   0  0  0  0  0  0  0  0  0  0  0  0
   -6.4166   10.6613    7.1488 H   0  0  0  0  0  0  0  0  0  0  0  0
   -4.7959   11.2804    6.6746 H   0  0  0  0  0  0  0  0  0  0  0  0
   -7.0678    8.3754    6.6108 H   0  0  0  0  0  0  0  0  0  0  0  0
   -6.4511    6.1520    5.8125 H   0  0  0  0  0  0  0  0  0  0  0  0
   -4.0641    4.8862    7.1712 H   0  0  0  0  0  0  0  0  0  0  0  0
   -4.7898    2.8037    8.2668 H   0  0  0  0  0  0  0  0  0  0  0  0
   -5.4678    0.4742    8.0959 H   0  0  0  0  0  0  0  0  0  0  0  0
   -7.0177    0.5879    7.1690 H   0  0  0  0  0  0  0  0  0  0  0  0
   -5.5951   -0.2804    6.4675 H   0  0  0  0  0  0  0  0  0  0  0  0
   -6.0636    1.2461    4.4521 H   0  0  0  0  0  0  0  0  0  0  0  0
   -5.3409    3.3242    3.3632 H   0  0  0  0  0  0  0  0  0  0  0  0
   -0.5711    3.0699   -1.3069 H   0  0  0  0  0  0  0  0  0  0  0  0
    1.2580    3.6779   -2.8318 H   0  0  0  0  0  0  0  0  0  0  0  0
    4.8356    4.0333   -1.7707 H   0  0  0  0  0  0  0  0  0  0  0  0
    4.2184    2.7567   -2.8900 H   0  0  0  0  0  0  0  0  0  0  0  0
    3.6318    4.4601   -3.0390 H   0  0  0  0  0  0  0  0  0  0  0  0
    4.1170    2.8555    0.2846 H   0  0  0  0  0  0  0  0  0  0  0  0
    2.2969    2.2016    1.7767 H   0  0  0  0  0  0  0  0  0  0  0  0
   -2.5853    1.2437    2.4783 H   0  0  0  0  0  0  0  0  0  0  0  0
   -3.7862   -0.8125    2.0130 H   0  0  0  0  0  0  0  0  0  0  0  0
   -2.8010   -3.5155    0.7107 H   0  0  0  0  0  0  0  0  0  0  0  0
   -3.1895   -2.9592   -0.9686 H   0  0  0  0  0  0  0  0  0  0  0  0
   -4.3206   -2.5872    0.3800 H   0  0  0  0  0  0  0  0  0  0  0  0
   -1.0084   -1.7622   -1.1398 H   0  0  0  0  0  0  0  0  0  0  0  0
    0.2397    0.2728   -0.6604 H   0  0  0  0  0  0  0  0  0  0  0  0
    1.6151    4.5841    2.6480 H   0  0  0  0  0  0  0  0  0  0  0  0
    1.9439    6.9952    3.0051 H   0  0  0  0  0  0  0  0  0  0  0  0
    2.7680    7.8382    5.1725 H   0  0  0  0  0  0  0  0  0  0  0  0
    4.0715    5.6577    7.8876 H   0  0  0  0  0  0  0  0  0  0  0  0
    3.9266    7.3453    7.2960 H   0  0  0  0  0  0  0  0  0  0  0  0
    2.5101    6.9759    9.3054 H   0  0  0  0  0  0  0  0  0  0  0  0
    1.6247    5.6453    8.4693 H   0  0  0  0  0  0  0  0  0  0  0  0
    1.4822    7.3504    7.8670 H   0  0  0  0  0  0  0  0  0  0  0  0
    2.9502    3.7990    6.6696 H   0  0  0  0  0  0  0  0  0  0  0  0
    7.6330   -3.7972   -4.8153 H   0  0  0  0  0  0  0  0  0  0  0  0
    8.2162   -2.8178   -6.9977 H   0  0  0  0  0  0  0  0  0  0  0  0
    6.4646   -1.8209   -8.4251 H   0  0  0  0  0  0  0  0  0  0  0  0
    2.7705   -1.9538   -7.5807 H   0  0  0  0  0  0  0  0  0  0  0  0
    3.9120   -1.9819   -8.9671 H   0  0  0  0  0  0  0  0  0  0  0  0
    3.0256    0.3150   -8.4727 H   0  0  0  0  0  0  0  0  0  0  0  0
    4.8211    0.2371   -8.3168 H   0  0  0  0  0  0  0  0  0  0  0  0
    3.7764    0.2579   -6.8342 H   0  0  0  0  0  0  0  0  0  0  0  0
    3.4909   -2.8075   -5.4702 H   0  0  0  0  0  0  0  0  0  0  0  0
    1.6773   -2.1623    3.1206 H   0  0  0  0  0  0  0  0  0  0  0  0
    2.6654   -3.3420    2.3346 H   0  0  0  0  0  0  0  0  0  0  0  0
    3.0082   -1.8876    0.3389 H   0  0  0  0  0  0  0  0  0  0  0  0
    1.2584   -2.0926    0.7027 H   0  0  0  0  0  0  0  0  0  0  0  0
    2.0905   -0.5585    1.1546 H   0  0  0  0  0  0  0  0  0  0  0  0
    4.4284   -4.4580    2.8266 H   0  0  0  0  0  0  0  0  0  0  0  0
    3.7599   -5.2119    1.3192 H   0  0  0  0  0  0  0  0  0  0  0  0
    5.9632   -6.2616    0.8760 H   0  0  0  0  0  0  0  0  0  0  0  0
    6.7036   -5.3573    2.2619 H   0  0  0  0  0  0  0  0  0  0  0  0
    5.4479   -6.6208    2.5674 H   0  0  0  0  0  0  0  0  0  0  0  0
    4.3495   -6.0736   -5.9985 H   0  0  0  0  0  0  0  0  0  0  0  0
    3.9317   -6.9497   -8.4523 H   0  0  0  0  0  0  0  0  0  0  0  0
    4.0720   -8.2527   -7.2047 H   0  0  0  0  0  0  0  0  0  0  0  0
    3.9953   -9.2751   -9.4362 H   0  0  0  0  0  0  0  0  0  0  0  0
    2.4478   -8.4121   -9.8156 H   0  0  0  0  0  0  0  0  0  0  0  0
    2.4869   -9.6801   -8.5237 H   0  0  0  0  0  0  0  0  0  0  0  0
   -0.7546   -6.6394   -6.6299 H   0  0  0  0  0  0  0  0  0  0  0  0
    0.1024  -10.5910   -1.8701 H   0  0  0  0  0  0  0  0  0  0  0  0
   -3.7737  -12.2934   -2.7911 H   0  0  0  0  0  0  0  0  0  0  0  0
   -4.1666  -10.5343   -4.4382 H   0  0  0  0  0  0  0  0  0  0  0  0
  1  2  2  3
  2  3  1  0
  3  4  2  0
  3  5  1  0
  5  6  2  0
  6  7  1  0
  7  8  2  0
  8  9  1  0
  8 10  1  0
 10 11  2  0
 11 12  1  0
 12 13  2  3
 13 14  1  0
 14 15  3  0
 13 16  1  0
 16 17  3  0
  1 18  1  0
 18 19  2  0
 19 20  1  0
 20 21  1  0
 21 22  2  0
 22 23  1  0
 23 24  2  0
 24 25  1  0
 24 26  1  0
 26 27  2  0
 20 28  1  0
 28 29  2  0
 29 30  1  0
 30 31  2  0
 31 32  1  0
 31 33  1  0
 33 34  2  0
 19 35  1  0
 35 36  1  0
 36 37  1  0
 37 38  2  0
 38 39  1  0
 39 40  1  0
 40 41  2  0
 41 42  1  0
 42 43  2  0
 43 44  1  0
 43 45  1  0
 45 46  2  0
 39 47  1  0
 47 48  2  0
 48 49  1  0
 49 50  2  0
 50 51  1  0
 50 52  1  0
 52 53  2  0
 38 54  1  0
 54 55  1  0
 37 56  1  0
 56 57  2  0
 57 58  1  0
 58 59  2  0
 59 60  1  0
 60 61  2  0
 61 62  1  0
 62 63  1  0
 63 64  1  0
 62 65  2  0
 57 66  1  0
 66 67  1  0
 67 68  1  0
 68 69  1  0
 69 70  1  0
 70 71  1  0
 71 72  2  0
 72 73  1  0
 73 74  1  0
 71 75  1  0
 75 76  1  0
 76 77  1  0
 77 78  1  0
 78 79  1  0
 79 80  1  0
 80 81  2  0
 81 82  1  0
 82 83  2  0
 83 84  1  0
 84 85  1  0
 85 86  1  0
 84 87  2  0
 79 88  2  0
 88 89  1  0
 89 90  1  0
 90 91  1  0
 91 92  1  0
 92 93  1  0
 93 94  1  0
 94 95  1  0
 95 96  1  0
 96 97  1  0
 97 98  1  0
 95 99  1  0
 99100  1  0
 92101  1  0
101102  1  0
 88103  1  0
103104  2  0
104105  1  0
105106  1  0
106107  1  0
107108  1  0
105109  2  0
109110  1  0
109111  1  0
111112  2  3
112113  1  0
113114  2  0
113115  1  0
115116  2  0
116117  1  0
117118  1  0
118119  1  0
118120  1  0
118121  1  0
117122  2  0
122123  1  0
123124  2  0
124125  1  0
125126  2  3
126127  1  0
127128  3  0
126129  1  0
129130  3  0
 12  2  1  0
 55 18  1  0
 98 56  1  0
110103  1  0
125112  1  0
 11  5  1  0
 27 21  1  0
 34 28  1  0
 54 35  2  0
 65 58  1  0
 97 66  2  0
124115  1  0
 46 40  1  0
 53 47  1  0
 96 68  2  0
 94 69  2  0
 74 70  2  0
 93 75  2  0
 91 76  2  0
 90 78  2  0
 87 80  1  0
  1131  1  0
  6132  1  0
  7133  1  0
 10134  1  0
 22135  1  0
 23136  1  0
 25137  1  0
 25138  1  0
 25139  1  0
 26140  1  0
 27141  1  0
 29142  1  0
 30143  1  0
 32144  1  0
 32145  1  0
 32146  1  0
 33147  1  0
 34148  1  0
 41149  1  0
 42150  1  0
 44151  1  0
 44152  1  0
 44153  1  0
 45154  1  0
 46155  1  0
 48156  1  0
 49157  1  0
 51158  1  0
 51159  1  0
 51160  1  0
 52161  1  0
 53162  1  0
 59163  1  0
 60164  1  0
 61165  1  0
 63166  1  0
 63167  1  0
 64168  1  0
 64169  1  0
 64170  1  0
 65171  1  0
 81172  1  0
 82173  1  0
 83174  1  0
 85175  1  0
 85176  1  0
 86177  1  0
 86178  1  0
 86179  1  0
 87180  1  0
 99181  1  0
 99182  1  0
100183  1  0
100184  1  0
100185  1  0
101186  1  0
101187  1  0
102188  1  0
102189  1  0
102190  1  0
104191  1  0
107192  1  0
107193  1  0
108194  1  0
108195  1  0
108196  1  0
111197  1  0
116198  1  0
122199  1  0
123200  1  0
M  END

