
     RDKit          3D

284310  0  0  0  0  0  0  0  0999 V2000
   -7.4212    3.5379   -2.3215 C   0  0  0  0  0  0  0  0  0  0  0  0
   -7.6393    3.4185   -3.6436 C   0  0  0  0  0  0  0  0  0  0  0  0
   -6.5974    3.4901   -4.6774 C   0  0  0  0  0  0  0  0  0  0  0  0
   -5.3635    3.3081   -4.5083 O   0  0  0  0  0  0  0  0  0  0  0  0
   -7.2243    3.7921   -5.9404 C   0  0  0  0  0  0  0  0  0  0  0  0
   -6.6056    4.1422   -7.1417 C   0  0  0  0  0  0  0  0  0  0  0  0
   -7.4135    4.5316   -8.2196 C   0  0  0  0  0  0  0  0  0  0  0  0
   -8.8070    4.6006   -8.0634 C   0  0  0  0  0  0  0  0  0  0  0  0
   -9.8073    5.1398   -9.3927 Cl  0  0  0  0  0  0  0  0  0  0  0  0
   -9.4076    4.2577   -6.8376 C   0  0  0  0  0  0  0  0  0  0  0  0
   -8.5956    3.8311   -5.7729 C   0  0  0  0  0  0  0  0  0  0  0  0
   -8.9491    3.4842   -4.3638 C   0  0  0  0  0  0  0  0  0  0  0  0
  -10.1754    3.1816   -3.8769 C   0  0  0  0  0  0  0  0  0  0  0  0
  -11.3525    3.1847   -4.7020 C   0  0  0  0  0  0  0  0  0  0  0  0
  -12.3029    3.1764   -5.3655 N   0  0  0  0  0  0  0  0  0  0  0  0
  -10.3889    2.7081   -2.5316 C   0  0  0  0  0  0  0  0  0  0  0  0
  -10.5837    2.3400   -1.4506 N   0  0  0  0  0  0  0  0  0  0  0  0
   -6.1116    3.9492   -1.7995 C   0  0  0  0  0  0  0  0  0  0  0  0
   -5.2482    3.1897   -0.9974 C   0  0  0  0  0  0  0  0  0  0  0  0
   -5.6230    1.9820   -0.3218 N   0  0  0  0  0  0  0  0  0  0  0  0
   -5.8637    0.8047   -1.1088 C   0  0  0  0  0  0  0  0  0  0  0  0
   -7.1525    0.2545   -1.1944 C   0  0  0  0  0  0  0  0  0  0  0  0
   -7.3717   -0.9219   -1.9117 C   0  0  0  0  0  0  0  0  0  0  0  0
   -6.2969   -1.5686   -2.5457 C   0  0  0  0  0  0  0  0  0  0  0  0
   -6.5324   -2.8582   -3.2702 C   0  0  0  0  0  0  0  0  0  0  0  0
   -5.0070   -1.0228   -2.4570 C   0  0  0  0  0  0  0  0  0  0  0  0
   -4.7901    0.1632   -1.7509 C   0  0  0  0  0  0  0  0  0  0  0  0
   -6.0229    2.0190    1.0674 C   0  0  0  0  0  0  0  0  0  0  0  0
   -5.9732    0.8494    1.8588 C   0  0  0  0  0  0  0  0  0  0  0  0
   -6.4148    0.8689    3.1845 C   0  0  0  0  0  0  0  0  0  0  0  0
   -6.8857    2.0594    3.7582 C   0  0  0  0  0  0  0  0  0  0  0  0
   -7.3632    2.0612    5.1796 C   0  0  0  0  0  0  0  0  0  0  0  0
   -6.9310    3.2295    2.9787 C   0  0  0  0  0  0  0  0  0  0  0  0
   -6.5071    3.2041    1.6495 C   0  0  0  0  0  0  0  0  0  0  0  0
   -4.0278    3.8403   -0.8175 C   0  0  0  0  0  0  0  0  0  0  0  0
   -2.5415    3.3890   -0.1699 S   0  0  0  0  0  0  0  0  0  0  0  0
   -1.7663    4.8317   -0.6571 C   0  0  0  0  0  0  0  0  0  0  0  0
   -2.6858    5.6698   -1.3236 C   0  0  0  0  0  0  0  0  0  0  0  0
   -2.3879    7.0211   -1.7407 N   0  0  0  0  0  0  0  0  0  0  0  0
   -1.5083    7.8281   -0.9266 C   0  0  0  0  0  0  0  0  0  0  0  0
   -1.6144    7.8070    0.4799 C   0  0  0  0  0  0  0  0  0  0  0  0
   -0.6544    8.4327    1.2730 C   0  0  0  0  0  0  0  0  0  0  0  0
    0.4293    9.0938    0.6812 C   0  0  0  0  0  0  0  0  0  0  0  0
    1.4852    9.7006    1.5525 C   0  0  0  0  0  0  0  0  0  0  0  0
    0.5005    9.1838   -0.7215 C   0  0  0  0  0  0  0  0  0  0  0  0
   -0.4672    8.5602   -1.5198 C   0  0  0  0  0  0  0  0  0  0  0  0
   -3.1605    7.6508   -2.7718 C   0  0  0  0  0  0  0  0  0  0  0  0
   -3.1584    7.1403   -4.0827 C   0  0  0  0  0  0  0  0  0  0  0  0
   -4.0141    7.6837   -5.0508 C   0  0  0  0  0  0  0  0  0  0  0  0
   -4.8981    8.7215   -4.7126 C   0  0  0  0  0  0  0  0  0  0  0  0
   -5.8546    9.2824   -5.7262 C   0  0  0  0  0  0  0  0  0  0  0  0
   -4.8723    9.2509   -3.4112 C   0  0  0  0  0  0  0  0  0  0  0  0
   -4.0083    8.7219   -2.4478 C   0  0  0  0  0  0  0  0  0  0  0  0
   -3.9347    5.0611   -1.4043 C   0  0  0  0  0  0  0  0  0  0  0  0
   -5.3683    5.4306   -2.1881 S   0  0  0  0  0  0  0  0  0  0  0  0
   -0.3086    4.9814   -0.7367 C   0  0  0  0  0  0  0  0  0  0  0  0
    0.6081    4.8626    0.3096 C   0  0  0  0  0  0  0  0  0  0  0  0
    1.9174    4.8701   -0.1745 C   0  0  0  0  0  0  0  0  0  0  0  0
    3.3243    4.3054    0.5086 S   0  0  0  0  0  0  0  0  0  0  0  0
    4.1627    4.1634   -0.9753 C   0  0  0  0  0  0  0  0  0  0  0  0
    4.7770    2.9084   -1.3933 C   0  0  0  0  0  0  0  0  0  0  0  0
    5.3577    1.9547   -0.5329 C   0  0  0  0  0  0  0  0  0  0  0  0
    6.0994    2.3138    0.6036 O   0  0  0  0  0  0  0  0  0  0  0  0
    6.8241    3.5382    0.7136 C   0  0  0  0  0  0  0  0  0  0  0  0
    7.7237    3.4864    1.9328 C   0  0  0  0  0  0  0  0  0  0  0  0
    5.1465    0.5985   -0.8443 C   0  0  0  0  0  0  0  0  0  0  0  0
    4.2769    0.2512   -1.8856 C   0  0  0  0  0  0  0  0  0  0  0  0
    3.6402    1.2229   -2.6785 C   0  0  0  0  0  0  0  0  0  0  0  0
    2.4999    0.8600   -3.4115 O   0  0  0  0  0  0  0  0  0  0  0  0
    1.1958    1.4062   -3.1663 C   0  0  0  0  0  0  0  0  0  0  0  0
    0.5556    0.8257   -1.9141 C   0  0  0  0  0  0  0  0  0  0  0  0
    4.1397    2.5493   -2.5887 C   0  0  0  0  0  0  0  0  0  0  0  0
    3.7558    3.8549   -3.2967 C   0  0  0  0  0  0  0  0  0  0  0  0
    5.0435    4.4791   -3.8681 C   0  0  0  0  0  0  0  0  0  0  0  0
    5.2648    5.8728   -3.8279 C   0  0  0  0  0  0  0  0  0  0  0  0
    6.3916    6.4415   -4.4229 C   0  0  0  0  0  0  0  0  0  0  0  0
    7.2999    5.6348   -5.1214 C   0  0  0  0  0  0  0  0  0  0  0  0
    8.4896    6.2495   -5.8134 C   0  0  0  0  0  0  0  0  0  0  0  0
    8.3068    6.2524   -7.3290 C   0  0  0  0  0  0  0  0  0  0  0  0
    7.0885    4.2533   -5.1825 C   0  0  0  0  0  0  0  0  0  0  0  0
    5.9661    3.6808   -4.5776 C   0  0  0  0  0  0  0  0  0  0  0  0
    2.7956    3.8361   -4.4861 C   0  0  0  0  0  0  0  0  0  0  0  0
    2.0757    4.9962   -4.8323 C   0  0  0  0  0  0  0  0  0  0  0  0
    1.2141    5.0027   -5.9330 C   0  0  0  0  0  0  0  0  0  0  0  0
    1.1211    3.8820   -6.7631 C   0  0  0  0  0  0  0  0  0  0  0  0
    0.1321    3.8319   -7.9004 C   0  0  0  0  0  0  0  0  0  0  0  0
   -1.0374    2.9054   -7.5640 C   0  0  0  0  0  0  0  0  0  0  0  0
    1.9838    2.7958   -6.5423 C   0  0  0  0  0  0  0  0  0  0  0  0
    2.8450    2.7998   -5.4374 C   0  0  0  0  0  0  0  0  0  0  0  0
    3.3486    4.5990   -2.0221 C   0  0  0  0  0  0  0  0  0  0  0  0
    2.0682    4.9541   -1.5371 C   0  0  0  0  0  0  0  0  0  0  0  0
    0.5284    5.0394   -2.2082 S   0  0  0  0  0  0  0  0  0  0  0  0
    3.9155   -1.1379   -1.6955 C   0  0  0  0  0  0  0  0  0  0  0  0
    4.4936   -1.5894   -0.5341 C   0  0  0  0  0  0  0  0  0  0  0  0
    5.5222   -0.6185    0.0139 C   0  0  0  0  0  0  0  0  0  0  0  0
    5.3182   -0.3653    1.5125 C   0  0  0  0  0  0  0  0  0  0  0  0
    4.1203    0.2282    1.9663 C   0  0  0  0  0  0  0  0  0  0  0  0
    3.9150    0.4846    3.3277 C   0  0  0  0  0  0  0  0  0  0  0  0
    4.8966    0.1456    4.2689 C   0  0  0  0  0  0  0  0  0  0  0  0
    4.7113    0.4786    5.7275 C   0  0  0  0  0  0  0  0  0  0  0  0
    5.2518    1.8738    6.0313 C   0  0  0  0  0  0  0  0  0  0  0  0
    6.0861   -0.4530    3.8302 C   0  0  0  0  0  0  0  0  0  0  0  0
    6.2943   -0.7101    2.4731 C   0  0  0  0  0  0  0  0  0  0  0  0
    6.9354   -1.1020   -0.3662 C   0  0  0  0  0  0  0  0  0  0  0  0
    7.9851   -0.1828   -0.5727 C   0  0  0  0  0  0  0  0  0  0  0  0
    9.2191   -0.6089   -1.0692 C   0  0  0  0  0  0  0  0  0  0  0  0
    9.4463   -1.9649   -1.3418 C   0  0  0  0  0  0  0  0  0  0  0  0
   10.7288   -2.4026   -2.0076 C   0  0  0  0  0  0  0  0  0  0  0  0
   11.9173   -2.2799   -1.0606 C   0  0  0  0  0  0  0  0  0  0  0  0
    8.4562   -2.8985   -1.0218 C   0  0  0  0  0  0  0  0  0  0  0  0
    7.2238   -2.4740   -0.5141 C   0  0  0  0  0  0  0  0  0  0  0  0
    3.7529   -2.6177    0.0409 C   0  0  0  0  0  0  0  0  0  0  0  0
    2.6342   -2.9471   -0.6723 C   0  0  0  0  0  0  0  0  0  0  0  0
    2.4781   -1.9696   -2.0367 S   0  0  0  0  0  0  0  0  0  0  0  0
    1.6958   -3.7015    0.0115 C   0  0  0  0  0  0  0  0  0  0  0  0
    2.1273   -3.9743    1.3166 C   0  0  0  0  0  0  0  0  0  0  0  0
    3.6487   -3.2530    1.5907 S   0  0  0  0  0  0  0  0  0  0  0  0
    1.2591   -4.5310    2.3616 C   0  0  0  0  0  0  0  0  0  0  0  0
    1.6488   -5.3209    3.4533 C   0  0  0  0  0  0  0  0  0  0  0  0
    2.9717   -5.8364    3.6463 N   0  0  0  0  0  0  0  0  0  0  0  0
    3.4843   -6.8055    2.7161 C   0  0  0  0  0  0  0  0  0  0  0  0
    2.6756   -7.8724    2.2779 C   0  0  0  0  0  0  0  0  0  0  0  0
    3.1715   -8.8141    1.3718 C   0  0  0  0  0  0  0  0  0  0  0  0
    4.4728   -8.6853    0.8606 C   0  0  0  0  0  0  0  0  0  0  0  0
    5.0204   -9.6988   -0.0992 C   0  0  0  0  0  0  0  0  0  0  0  0
    5.2853   -7.6244    1.3049 C   0  0  0  0  0  0  0  0  0  0  0  0
    4.7925   -6.6940    2.2248 C   0  0  0  0  0  0  0  0  0  0  0  0
    3.6847   -5.5161    4.8594 C   0  0  0  0  0  0  0  0  0  0  0  0
    4.3844   -6.5109    5.5573 C   0  0  0  0  0  0  0  0  0  0  0  0
    5.0180   -6.2130    6.7685 C   0  0  0  0  0  0  0  0  0  0  0  0
    4.9729   -4.9100    7.2883 C   0  0  0  0  0  0  0  0  0  0  0  0
    5.5999   -4.6110    8.6195 C   0  0  0  0  0  0  0  0  0  0  0  0
    4.2714   -3.9113    6.5995 C   0  0  0  0  0  0  0  0  0  0  0  0
    3.6376   -4.2106    5.3895 C   0  0  0  0  0  0  0  0  0  0  0  0
    0.5442   -5.7225    4.1975 C   0  0  0  0  0  0  0  0  0  0  0  0
    0.2957   -6.8501    5.4032 S   0  0  0  0  0  0  0  0  0  0  0  0
   -1.4102   -6.7560    5.3546 C   0  0  0  0  0  0  0  0  0  0  0  0
   -1.7667   -5.8018    4.3759 C   0  0  0  0  0  0  0  0  0  0  0  0
   -3.0970   -5.3826    4.0473 N   0  0  0  0  0  0  0  0  0  0  0  0
   -3.6129   -4.2888    4.8306 C   0  0  0  0  0  0  0  0  0  0  0  0
   -3.6598   -2.9878    4.3019 C   0  0  0  0  0  0  0  0  0  0  0  0
   -4.1427   -1.9282    5.0728 C   0  0  0  0  0  0  0  0  0  0  0  0
   -4.5767   -2.1516    6.3907 C   0  0  0  0  0  0  0  0  0  0  0  0
   -5.1309   -1.0150    7.1985 C   0  0  0  0  0  0  0  0  0  0  0  0
   -4.4910   -3.4416    6.9351 C   0  0  0  0  0  0  0  0  0  0  0  0
   -3.9909   -4.4974    6.1685 C   0  0  0  0  0  0  0  0  0  0  0  0
   -3.6685   -5.7315    2.7523 C   0  0  0  0  0  0  0  0  0  0  0  0
   -3.0568   -6.7144    1.9371 C   0  0  0  0  0  0  0  0  0  0  0  0
   -3.5797   -7.0376    0.6829 C   0  0  0  0  0  0  0  0  0  0  0  0
   -4.7222   -6.3856    0.2048 C   0  0  0  0  0  0  0  0  0  0  0  0
   -5.2765   -6.7253   -1.1446 C   0  0  0  0  0  0  0  0  0  0  0  0
   -5.3767   -5.4568    1.0275 C   0  0  0  0  0  0  0  0  0  0  0  0
   -4.8616   -5.1399    2.2897 C   0  0  0  0  0  0  0  0  0  0  0  0
   -0.6510   -5.2695    3.7479 C   0  0  0  0  0  0  0  0  0  0  0  0
   -0.4368   -4.3346    2.3737 S   0  0  0  0  0  0  0  0  0  0  0  0
   -2.2622   -7.7783    6.0079 C   0  0  0  0  0  0  0  0  0  0  0  0
   -3.0664   -8.5480    5.2594 C   0  0  0  0  0  0  0  0  0  0  0  0
   -4.3610   -8.1324    4.7320 C   0  0  0  0  0  0  0  0  0  0  0  0
   -5.0341   -7.1418    5.1139 O   0  0  0  0  0  0  0  0  0  0  0  0
   -4.8380   -9.1558    3.8344 C   0  0  0  0  0  0  0  0  0  0  0  0
   -5.9693   -9.1100    3.0186 C   0  0  0  0  0  0  0  0  0  0  0  0
   -6.2055  -10.1825    2.1491 C   0  0  0  0  0  0  0  0  0  0  0  0
   -5.3034  -11.2579    2.0969 C   0  0  0  0  0  0  0  0  0  0  0  0
   -5.5925  -12.5801    0.9789 Cl  0  0  0  0  0  0  0  0  0  0  0  0
   -4.1645  -11.2769    2.9204 C   0  0  0  0  0  0  0  0  0  0  0  0
   -3.9516  -10.2156    3.8203 C   0  0  0  0  0  0  0  0  0  0  0  0
   -2.8138   -9.9394    4.7506 C   0  0  0  0  0  0  0  0  0  0  0  0
   -1.7754  -10.7649    5.0455 C   0  0  0  0  0  0  0  0  0  0  0  0
   -0.6643  -10.3605    5.8689 C   0  0  0  0  0  0  0  0  0  0  0  0
    0.2369  -10.0615    6.5293 N   0  0  0  0  0  0  0  0  0  0  0  0
   -1.7049  -12.1263    4.5888 C   0  0  0  0  0  0  0  0  0  0  0  0
   -1.6381  -13.2313    4.2420 N   0  0  0  0  0  0  0  0  0  0  0  0
   -8.2228    3.5158   -1.6072 H   0  0  0  0  0  0  0  0  0  0  0  0
   -5.5250    4.1337   -7.2436 H   0  0  0  0  0  0  0  0  0  0  0  0
   -6.9465    4.8164   -9.1530 H   0  0  0  0  0  0  0  0  0  0  0  0
  -10.4683    4.3999   -6.7277 H   0  0  0  0  0  0  0  0  0  0  0  0
   -7.9856    0.7511   -0.7077 H   0  0  0  0  0  0  0  0  0  0  0  0
   -8.3667   -1.3350   -1.9635 H   0  0  0  0  0  0  0  0  0  0  0  0
   -6.6771   -3.6804   -2.5382 H   0  0  0  0  0  0  0  0  0  0  0  0
   -7.4343   -2.7752   -3.9095 H   0  0  0  0  0  0  0  0  0  0  0  0
   -5.6688   -3.1178   -3.9230 H   0  0  0  0  0  0  0  0  0  0  0  0
   -4.1630   -1.5240   -2.9191 H   0  0  0  0  0  0  0  0  0  0  0  0
   -3.7910    0.5734   -1.6790 H   0  0  0  0  0  0  0  0  0  0  0  0
   -5.6060   -0.0759    1.4385 H   0  0  0  0  0  0  0  0  0  0  0  0
   -6.3938   -0.0496    3.7651 H   0  0  0  0  0  0  0  0  0  0  0  0
   -8.2644    1.4209    5.2700 H   0  0  0  0  0  0  0  0  0  0  0  0
   -7.6264    3.0833    5.5241 H   0  0  0  0  0  0  0  0  0  0  0  0
   -6.5656    1.6679    5.8434 H   0  0  0  0  0  0  0  0  0  0  0  0
   -7.2887    4.1610    3.3993 H   0  0  0  0  0  0  0  0  0  0  0  0
   -6.5690    4.1149    1.0649 H   0  0  0  0  0  0  0  0  0  0  0  0
   -2.4286    7.2666    0.9524 H   0  0  0  0  0  0  0  0  0  0  0  0
   -0.7430    8.3784    2.3493 H   0  0  0  0  0  0  0  0  0  0  0  0
    1.8413    8.9498    2.2890 H   0  0  0  0  0  0  0  0  0  0  0  0
    1.0696   10.5711    2.0985 H   0  0  0  0  0  0  0  0  0  0  0  0
    2.3612   10.0409    0.9593 H   0  0  0  0  0  0  0  0  0  0  0  0
    1.3194    9.7152   -1.1941 H   0  0  0  0  0  0  0  0  0  0  0  0
   -0.3818    8.6091   -2.5980 H   0  0  0  0  0  0  0  0  0  0  0  0
   -2.5068    6.3167   -4.3554 H   0  0  0  0  0  0  0  0  0  0  0  0
   -4.0069    7.2824   -6.0525 H   0  0  0  0  0  0  0  0  0  0  0  0
   -5.4875   10.2718   -6.0602 H   0  0  0  0  0  0  0  0  0  0  0  0
   -5.9401    8.6099   -6.6083 H   0  0  0  0  0  0  0  0  0  0  0  0
   -6.8600    9.3915   -5.2753 H   0  0  0  0  0  0  0  0  0  0  0  0
   -5.5388   10.0672   -3.1397 H   0  0  0  0  0  0  0  0  0  0  0  0
   -4.0346    9.1166   -1.4398 H   0  0  0  0  0  0  0  0  0  0  0  0
    0.3338    4.6690    1.3413 H   0  0  0  0  0  0  0  0  0  0  0  0
    7.4528    3.7026   -0.1898 H   0  0  0  0  0  0  0  0  0  0  0  0
    6.1375    4.3995    0.8241 H   0  0  0  0  0  0  0  0  0  0  0  0
    7.1284    3.2874    2.8519 H   0  0  0  0  0  0  0  0  0  0  0  0
    8.2535    4.4550    2.0510 H   0  0  0  0  0  0  0  0  0  0  0  0
    8.4784    2.6798    1.8000 H   0  0  0  0  0  0  0  0  0  0  0  0
    1.2532    2.4975   -3.0340 H   0  0  0  0  0  0  0  0  0  0  0  0
    0.5482    1.1892   -4.0480 H   0  0  0  0  0  0  0  0  0  0  0  0
    1.2446    0.9147   -1.0496 H   0  0  0  0  0  0  0  0  0  0  0  0
    0.2782   -0.2294   -2.0730 H   0  0  0  0  0  0  0  0  0  0  0  0
   -0.3714    1.3915   -1.6855 H   0  0  0  0  0  0  0  0  0  0  0  0
    4.5528    6.5289   -3.3434 H   0  0  0  0  0  0  0  0  0  0  0  0
    6.5353    7.5122   -4.3600 H   0  0  0  0  0  0  0  0  0  0  0  0
    9.4041    5.6794   -5.5448 H   0  0  0  0  0  0  0  0  0  0  0  0
    8.6483    7.3002   -5.4787 H   0  0  0  0  0  0  0  0  0  0  0  0
    7.4012    6.8317   -7.6060 H   0  0  0  0  0  0  0  0  0  0  0  0
    8.2117    5.2111   -7.7020 H   0  0  0  0  0  0  0  0  0  0  0  0
    9.2000    6.7129   -7.8045 H   0  0  0  0  0  0  0  0  0  0  0  0
    7.7805    3.6164   -5.7236 H   0  0  0  0  0  0  0  0  0  0  0  0
    5.8167    2.6148   -4.6668 H   0  0  0  0  0  0  0  0  0  0  0  0
    2.1736    5.8977   -4.2452 H   0  0  0  0  0  0  0  0  0  0  0  0
    0.6184    5.8878   -6.1337 H   0  0  0  0  0  0  0  0  0  0  0  0
   -0.2616    4.8503   -8.1163 H   0  0  0  0  0  0  0  0  0  0  0  0
    0.6361    3.4697   -8.8191 H   0  0  0  0  0  0  0  0  0  0  0  0
   -0.6755    1.8662   -7.4111 H   0  0  0  0  0  0  0  0  0  0  0  0
   -1.7614    2.9042   -8.4062 H   0  0  0  0  0  0  0  0  0  0  0  0
   -1.5534    3.2453   -6.6415 H   0  0  0  0  0  0  0  0  0  0  0  0
    1.9975    1.9532   -7.2241 H   0  0  0  0  0  0  0  0  0  0  0  0
    3.5465    1.9808   -5.3307 H   0  0  0  0  0  0  0  0  0  0  0  0
    3.3470    0.5104    1.2576 H   0  0  0  0  0  0  0  0  0  0  0  0
    2.9954    0.9607    3.6407 H   0  0  0  0  0  0  0  0  0  0  0  0
    3.6365    0.4209    6.0102 H   0  0  0  0  0  0  0  0  0  0  0  0
    5.2513   -0.2623    6.3579 H   0  0  0  0  0  0  0  0  0  0  0  0
    6.3111    1.9608    5.7043 H   0  0  0  0  0  0  0  0  0  0  0  0
    5.2086    2.0639    7.1250 H   0  0  0  0  0  0  0  0  0  0  0  0
    4.6397    2.6433    5.5099 H   0  0  0  0  0  0  0  0  0  0  0  0
    6.8583   -0.7133    4.5429 H   0  0  0  0  0  0  0  0  0  0  0  0
    7.2238   -1.1755    2.1869 H   0  0  0  0  0  0  0  0  0  0  0  0
    7.8469    0.8730   -0.4057 H   0  0  0  0  0  0  0  0  0  0  0  0
    9.9909    0.1245   -1.2728 H   0  0  0  0  0  0  0  0  0  0  0  0
   10.6467   -3.4542   -2.3617 H   0  0  0  0  0  0  0  0  0  0  0  0
   10.9088   -1.7703   -2.9072 H   0  0  0  0  0  0  0  0  0  0  0  0
   11.7319   -2.8467   -0.1274 H   0  0  0  0  0  0  0  0  0  0  0  0
   12.8256   -2.6887   -1.5537 H   0  0  0  0  0  0  0  0  0  0  0  0
   12.0996   -1.2108   -0.8171 H   0  0  0  0  0  0  0  0  0  0  0  0
    8.6209   -3.9559   -1.1928 H   0  0  0  0  0  0  0  0  0  0  0  0
    6.4850   -3.2308   -0.2816 H   0  0  0  0  0  0  0  0  0  0  0  0
    0.7111   -3.9343   -0.3674 H   0  0  0  0  0  0  0  0  0  0  0  0
    1.6675   -7.9887    2.6642 H   0  0  0  0  0  0  0  0  0  0  0  0
    2.5363   -9.6447    1.0663 H   0  0  0  0  0  0  0  0  0  0  0  0
    4.2182  -10.3714   -0.4724 H   0  0  0  0  0  0  0  0  0  0  0  0
    5.7893  -10.3129    0.4083 H   0  0  0  0  0  0  0  0  0  0  0  0
    5.4746   -9.1848   -0.9680 H   0  0  0  0  0  0  0  0  0  0  0  0
    6.3026   -7.5295    0.9412 H   0  0  0  0  0  0  0  0  0  0  0  0
    5.4264   -5.8766    2.5506 H   0  0  0  0  0  0  0  0  0  0  0  0
    4.4079   -7.5247    5.1879 H   0  0  0  0  0  0  0  0  0  0  0  0
    5.5243   -7.0050    7.3152 H   0  0  0  0  0  0  0  0  0  0  0  0
    5.8240   -3.5290    8.7243 H   0  0  0  0  0  0  0  0  0  0  0  0
    6.5525   -5.1733    8.7352 H   0  0  0  0  0  0  0  0  0  0  0  0
    4.9019   -4.9168    9.4235 H   0  0  0  0  0  0  0  0  0  0  0  0
    4.1971   -2.9063    7.0018 H   0  0  0  0  0  0  0  0  0  0  0  0
    3.1004   -3.4276    4.8616 H   0  0  0  0  0  0  0  0  0  0  0  0
   -3.3280   -2.8037    3.2892 H   0  0  0  0  0  0  0  0  0  0  0  0
   -4.1862   -0.9321    4.6429 H   0  0  0  0  0  0  0  0  0  0  0  0
   -4.3701   -0.2142    7.2930 H   0  0  0  0  0  0  0  0  0  0  0  0
   -6.0335   -0.6076    6.6969 H   0  0  0  0  0  0  0  0  0  0  0  0
   -5.4169   -1.3428    8.2193 H   0  0  0  0  0  0  0  0  0  0  0  0
   -4.8178   -3.6331    7.9534 H   0  0  0  0  0  0  0  0  0  0  0  0
   -3.9076   -5.4821    6.6213 H   0  0  0  0  0  0  0  0  0  0  0  0
   -2.1727   -7.2432    2.2698 H   0  0  0  0  0  0  0  0  0  0  0  0
   -3.0814   -7.7889    0.0802 H   0  0  0  0  0  0  0  0  0  0  0  0
   -4.4645   -7.0572   -1.8207 H   0  0  0  0  0  0  0  0  0  0  0  0
   -5.7572   -5.8322   -1.5988 H   0  0  0  0  0  0  0  0  0  0  0  0
   -6.0239   -7.5396   -1.0510 H   0  0  0  0  0  0  0  0  0  0  0  0
   -6.2810   -4.9636    0.6812 H   0  0  0  0  0  0  0  0  0  0  0  0
   -5.4012   -4.4269    2.8950 H   0  0  0  0  0  0  0  0  0  0  0  0
   -1.7259   -8.2744    6.8001 H   0  0  0  0  0  0  0  0  0  0  0  0
   -6.6393   -8.2585    3.0426 H   0  0  0  0  0  0  0  0  0  0  0  0
   -7.0711  -10.1650    1.5008 H   0  0  0  0  0  0  0  0  0  0  0  0
   -3.4724  -12.0937    2.8158 H   0  0  0  0  0  0  0  0  0  0  0  0
  1  2  2  3
  2  3  1  0
  3  4  2  0
  3  5  1  0
  5  6  2  0
  6  7  1  0
  7  8  2  0
  8  9  1  0
  8 10  1  0
 10 11  2  0
 11 12  1  0
 12 13  2  3
 13 14  1  0
 14 15  3  0
 13 16  1  0
 16 17  3  0
  1 18  1  0
 18 19  2  0
 19 20  1  0
 20 21  1  0
 21 22  2  0
 22 23  1  0
 23 24  2  0
 24 25  1  0
 24 26  1  0
 26 27  2  0
 20 28  1  0
 28 29  2  0
 29 30  1  0
 30 31  2  0
 31 32  1  0
 31 33  1  0
 33 34  2  0
 19 35  1  0
 35 36  1  0
 36 37  1  0
 37 38  2  0
 38 39  1  0
 39 40  1  0
 40 41  2  0
 41 42  1  0
 42 43  2  0
 43 44  1  0
 43 45  1  0
 45 46  2  0
 39 47  1  0
 47 48  2  0
 48 49  1  0
 49 50  2  0
 50 51  1  0
 50 52  1  0
 52 53  2  0
 38 54  1  0
 54 55  1  0
 37 56  1  0
 56 57  2  0
 57 58  1  0
 58 59  1  0
 59 60  1  0
 60 61  1  0
 61 62  2  0
 62 63  1  0
 63 64  1  0
 64 65  1  0
 62 66  1  0
 66 67  2  0
 67 68  1  0
 68 69  1  0
 69 70  1  0
 70 71  1  0
 68 72  2  0
 72 73  1  0
 73 74  1  0
 74 75  2  0
 75 76  1  0
 76 77  2  0
 77 78  1  0
 78 79  1  0
 77 80  1  0
 80 81  2  0
 73 82  1  0
 82 83  2  0
 83 84  1  0
 84 85  2  0
 85 86  1  0
 86 87  1  0
 85 88  1  0
 88 89  2  0
 73 90  1  0
 90 91  1  0
 91 92  1  0
 67 93  1  0
 93 94  2  0
 94 95  1  0
 95 96  1  0
 96 97  2  0
 97 98  1  0
 98 99  2  0
 99100  1  0
100101  1  0
 99102  1  0
102103  2  0
 95104  1  0
104105  2  0
105106  1  0
106107  2  0
107108  1  0
108109  1  0
107110  1  0
110111  2  0
 94112  1  0
112113  2  0
113114  1  0
113115  1  0
115116  2  0
116117  1  0
116118  1  0
118119  2  0
119120  1  0
120121  1  0
121122  2  0
122123  1  0
123124  2  0
124125  1  0
124126  1  0
126127  2  0
120128  1  0
128129  2  0
129130  1  0
130131  2  0
131132  1  0
131133  1  0
133134  2  0
119135  1  0
135136  1  0
136137  1  0
137138  2  0
138139  1  0
139140  1  0
140141  2  0
141142  1  0
142143  2  0
143144  1  0
143145  1  0
145146  2  0
139147  1  0
147148  2  0
148149  1  0
149150  2  0
150151  1  0
150152  1  0
152153  2  0
138154  1  0
154155  1  0
137156  1  0
156157  2  3
157158  1  0
158159  2  0
158160  1  0
160161  2  0
161162  1  0
162163  2  0
163164  1  0
163165  1  0
165166  2  0
166167  1  0
167168  2  3
168169  1  0
169170  3  0
168171  1  0
171172  3  0
 12  2  1  0
 55 18  1  0
 92 56  1  0
114 93  1  0
155118  1  0
167157  1  0
 11  5  1  0
 27 21  1  0
 34 28  1  0
 54 35  2  0
 91 58  2  0
103 96  1  0
111104  1  0
117112  1  0
127121  1  0
134128  1  0
154135  2  0
166160  1  0
 46 40  1  0
 53 47  1  0
 90 60  2  0
146140  1  0
153147  1  0
 72 61  1  0
 81 74  1  0
 89 82  1  0
 95 66  1  0
  1173  1  0
  6174  1  0
  7175  1  0
 10176  1  0
 22177  1  0
 23178  1  0
 25179  1  0
 25180  1  0
 25181  1  0
 26182  1  0
 27183  1  0
 29184  1  0
 30185  1  0
 32186  1  0
 32187  1  0
 32188  1  0
 33189  1  0
 34190  1  0
 41191  1  0
 42192  1  0
 44193  1  0
 44194  1  0
 44195  1  0
 45196  1  0
 46197  1  0
 48198  1  0
 49199  1  0
 51200  1  0
 51201  1  0
 51202  1  0
 52203  1  0
 53204  1  0
 57205  1  0
 64206  1  0
 64207  1  0
 65208  1  0
 65209  1  0
 65210  1  0
 70211  1  0
 70212  1  0
 71213  1  0
 71214  1  0
 71215  1  0
 75216  1  0
 76217  1  0
 78218  1  0
 78219  1  0
 79220  1  0
 79221  1  0
 79222  1  0
 80223  1  0
 81224  1  0
 83225  1  0
 84226  1  0
 86227  1  0
 86228  1  0
 87229  1  0
 87230  1  0
 87231  1  0
 88232  1  0
 89233  1  0
 97234  1  0
 98235  1  0
100236  1  0
100237  1  0
101238  1  0
101239  1  0
101240  1  0
102241  1  0
103242  1  0
105243  1  0
106244  1  0
108245  1  0
108246  1  0
109247  1  0
109248  1  0
109249  1  0
110250  1  0
111251  1  0
115252  1  0
122253  1  0
123254  1  0
125255  1  0
125256  1  0
125257  1  0
126258  1  0
127259  1  0
129260  1  0
130261  1  0
132262  1  0
132263  1  0
132264  1  0
133265  1  0
134266  1  0
141267  1  0
142268  1  0
144269  1  0
144270  1  0
144271  1  0
145272  1  0
146273  1  0
148274  1  0
149275  1  0
151276  1  0
151277  1  0
151278  1  0
152279  1  0
153280  1  0
156281  1  0
161282  1  0
162283  1  0
165284  1  0
M  END

