
     RDKit          3D

199220  0  0  0  0  0  0  0  0999 V2000
   -3.8816   -3.3107   -5.5024 C   0  0  0  0  0  0  0  0  0  0  0  0
   -4.8374   -2.7730   -6.2819 C   0  0  0  0  0  0  0  0  0  0  0  0
   -5.7779   -3.5971   -7.0428 C   0  0  0  0  0  0  0  0  0  0  0  0
   -6.0306   -4.8147   -6.8387 O   0  0  0  0  0  0  0  0  0  0  0  0
   -6.2844   -2.8035   -8.1414 C   0  0  0  0  0  0  0  0  0  0  0  0
   -7.0806   -3.2112   -9.2117 C   0  0  0  0  0  0  0  0  0  0  0  0
   -7.3583   -2.2858  -10.2257 C   0  0  0  0  0  0  0  0  0  0  0  0
   -6.8210   -0.9852  -10.1692 C   0  0  0  0  0  0  0  0  0  0  0  0
   -7.1449    0.1529  -11.4654 Cl  0  0  0  0  0  0  0  0  0  0  0  0
   -6.0162   -0.5959   -9.0815 C   0  0  0  0  0  0  0  0  0  0  0  0
   -5.7767   -1.5189   -8.0513 C   0  0  0  0  0  0  0  0  0  0  0  0
   -4.9790   -1.3827   -6.8041 C   0  0  0  0  0  0  0  0  0  0  0  0
   -4.8543   -0.2465   -6.0743 C   0  0  0  0  0  0  0  0  0  0  0  0
   -5.2728    1.0362   -6.5754 C   0  0  0  0  0  0  0  0  0  0  0  0
   -5.6148    2.0711   -6.9622 N   0  0  0  0  0  0  0  0  0  0  0  0
   -4.4746   -0.2741   -4.6846 C   0  0  0  0  0  0  0  0  0  0  0  0
   -4.1720   -0.2792   -3.5693 N   0  0  0  0  0  0  0  0  0  0  0  0
   -2.5920   -2.6776   -5.1555 C   0  0  0  0  0  0  0  0  0  0  0  0
   -1.7378   -3.1334   -4.1383 C   0  0  0  0  0  0  0  0  0  0  0  0
   -2.0762   -4.1477   -3.1810 N   0  0  0  0  0  0  0  0  0  0  0  0
   -3.1446   -3.8973   -2.2483 C   0  0  0  0  0  0  0  0  0  0  0  0
   -4.1065   -4.8861   -1.9910 C   0  0  0  0  0  0  0  0  0  0  0  0
   -5.1253   -4.6562   -1.0637 C   0  0  0  0  0  0  0  0  0  0  0  0
   -5.1892   -3.4394   -0.3690 C   0  0  0  0  0  0  0  0  0  0  0  0
   -6.2938   -3.1903    0.6146 C   0  0  0  0  0  0  0  0  0  0  0  0
   -4.2494   -2.4371   -0.6486 C   0  0  0  0  0  0  0  0  0  0  0  0
   -3.2291   -2.6663   -1.5767 C   0  0  0  0  0  0  0  0  0  0  0  0
   -1.3030   -5.3661   -3.1199 C   0  0  0  0  0  0  0  0  0  0  0  0
   -0.7875   -5.9415   -4.2947 C   0  0  0  0  0  0  0  0  0  0  0  0
   -0.0552   -7.1300   -4.2400 C   0  0  0  0  0  0  0  0  0  0  0  0
    0.1867   -7.7572   -3.0093 C   0  0  0  0  0  0  0  0  0  0  0  0
    0.9402   -9.0527   -2.9554 C   0  0  0  0  0  0  0  0  0  0  0  0
   -0.3271   -7.1887   -1.8353 C   0  0  0  0  0  0  0  0  0  0  0  0
   -1.0570   -5.9985   -1.8888 C   0  0  0  0  0  0  0  0  0  0  0  0
   -0.5310   -2.4462   -4.1351 C   0  0  0  0  0  0  0  0  0  0  0  0
    0.8189   -2.4564   -3.1428 S   0  0  0  0  0  0  0  0  0  0  0  0
    1.5853   -1.1806   -3.9754 C   0  0  0  0  0  0  0  0  0  0  0  0
    0.7596   -0.7358   -5.0188 C   0  0  0  0  0  0  0  0  0  0  0  0
    1.0686    0.3686   -5.8867 N   0  0  0  0  0  0  0  0  0  0  0  0
    2.3355    0.3702   -6.5725 C   0  0  0  0  0  0  0  0  0  0  0  0
    3.1550    1.5089   -6.5515 C   0  0  0  0  0  0  0  0  0  0  0  0
    4.3901    1.4991   -7.2073 C   0  0  0  0  0  0  0  0  0  0  0  0
    4.8124    0.3572   -7.9048 C   0  0  0  0  0  0  0  0  0  0  0  0
    6.1536    0.3331   -8.5752 C   0  0  0  0  0  0  0  0  0  0  0  0
    4.0001   -0.7860   -7.9125 C   0  0  0  0  0  0  0  0  0  0  0  0
    2.7701   -0.7784   -7.2517 C   0  0  0  0  0  0  0  0  0  0  0  0
    0.1114    1.4332   -6.0888 C   0  0  0  0  0  0  0  0  0  0  0  0
    0.0065    2.0718   -7.3374 C   0  0  0  0  0  0  0  0  0  0  0  0
   -0.9261    3.0936   -7.5362 C   0  0  0  0  0  0  0  0  0  0  0  0
   -1.7640    3.5017   -6.4900 C   0  0  0  0  0  0  0  0  0  0  0  0
   -2.7873    4.5741   -6.7135 C   0  0  0  0  0  0  0  0  0  0  0  0
   -1.6843    2.8491   -5.2506 C   0  0  0  0  0  0  0  0  0  0  0  0
   -0.7485    1.8312   -5.0485 C   0  0  0  0  0  0  0  0  0  0  0  0
   -0.4108   -1.4849   -5.0840 C   0  0  0  0  0  0  0  0  0  0  0  0
   -1.7830   -1.4591   -6.0474 S   0  0  0  0  0  0  0  0  0  0  0  0
    2.7496   -0.4611   -3.4490 C   0  0  0  0  0  0  0  0  0  0  0  0
    3.9865   -1.0374   -3.1208 C   0  0  0  0  0  0  0  0  0  0  0  0
    4.3328   -2.4427   -3.3765 C   0  0  0  0  0  0  0  0  0  0  0  0
    4.6062   -2.8752   -4.6802 C   0  0  0  0  0  0  0  0  0  0  0  0
    4.8790   -4.2222   -4.9294 C   0  0  0  0  0  0  0  0  0  0  0  0
    4.8628   -5.1469   -3.8794 C   0  0  0  0  0  0  0  0  0  0  0  0
    4.5928   -4.7243   -2.5677 C   0  0  0  0  0  0  0  0  0  0  0  0
    4.4974   -5.7292   -1.4515 C   0  0  0  0  0  0  0  0  0  0  0  0
    3.0815   -6.2867   -1.3549 C   0  0  0  0  0  0  0  0  0  0  0  0
    4.3279   -3.3674   -2.3221 C   0  0  0  0  0  0  0  0  0  0  0  0
    4.7507   -0.1754   -2.3320 C   0  0  0  0  0  0  0  0  0  0  0  0
    6.1593   -0.4138   -1.4175 S   0  0  0  0  0  0  0  0  0  0  0  0
    5.9589    1.0759   -0.6209 C   0  0  0  0  0  0  0  0  0  0  0  0
    6.2458    1.4701    0.6567 C   0  0  0  0  0  0  0  0  0  0  0  0
    6.9990    0.7882    1.6262 C   0  0  0  0  0  0  0  0  0  0  0  0
    6.7820    1.0834    3.0027 C   0  0  0  0  0  0  0  0  0  0  0  0
    7.4672    0.3439    3.9111 N   0  0  0  0  0  0  0  0  0  0  0  0
    8.3064   -0.6470    2.8850 S   0  0  0  0  0  0  0  0  0  0  0  0
    7.8639   -0.2191    1.3478 N   0  0  0  0  0  0  0  0  0  0  0  0
    5.8855    2.1011    3.3331 C   0  0  0  0  0  0  0  0  0  0  0  0
    5.4016    2.5211    4.5428 C   0  0  0  0  0  0  0  0  0  0  0  0
    5.1200    1.7526    6.0292 S   0  0  0  0  0  0  0  0  0  0  0  0
    3.7828    2.7648    6.3492 C   0  0  0  0  0  0  0  0  0  0  0  0
    2.7034    2.6377    7.2304 C   0  0  0  0  0  0  0  0  0  0  0  0
    2.5932    1.5931    8.2697 C   0  0  0  0  0  0  0  0  0  0  0  0
    2.2544    1.9457    9.5845 C   0  0  0  0  0  0  0  0  0  0  0  0
    2.1424    0.9621   10.5707 C   0  0  0  0  0  0  0  0  0  0  0  0
    2.3598   -0.3803   10.2512 C   0  0  0  0  0  0  0  0  0  0  0  0
    2.6720   -0.7523    8.9339 C   0  0  0  0  0  0  0  0  0  0  0  0
    2.8997   -2.1987    8.5799 C   0  0  0  0  0  0  0  0  0  0  0  0
    4.3884   -2.4915    8.4209 C   0  0  0  0  0  0  0  0  0  0  0  0
    2.7856    0.2400    7.9462 C   0  0  0  0  0  0  0  0  0  0  0  0
    1.6403    3.4769    6.8480 C   0  0  0  0  0  0  0  0  0  0  0  0
    2.0294    4.2757    5.3971 S   0  0  0  0  0  0  0  0  0  0  0  0
    3.5737    3.6425    5.3129 C   0  0  0  0  0  0  0  0  0  0  0  0
    4.4830    3.4883    4.2804 C   0  0  0  0  0  0  0  0  0  0  0  0
    4.3518    3.7406    2.9564 N   0  0  0  0  0  0  0  0  0  0  0  0
    5.1755    2.8238    2.3636 C   0  0  0  0  0  0  0  0  0  0  0  0
    5.2623    2.4160    1.0032 C   0  0  0  0  0  0  0  0  0  0  0  0
    4.3095    2.4983    0.0115 N   0  0  0  0  0  0  0  0  0  0  0  0
    4.7994    1.7045   -0.9825 C   0  0  0  0  0  0  0  0  0  0  0  0
    4.1355    1.0027   -1.9945 C   0  0  0  0  0  0  0  0  0  0  0  0
    2.6104    1.0555   -2.6942 S   0  0  0  0  0  0  0  0  0  0  0  0
    2.8672    2.7412    0.1927 C   0  0  0  0  0  0  0  0  0  0  0  0
    2.1993    1.5693    0.9081 C   0  0  0  0  0  0  0  0  0  0  0  0
    3.8869    5.0196    2.3998 C   0  0  0  0  0  0  0  0  0  0  0  0
    4.5325    6.2075    3.1104 C   0  0  0  0  0  0  0  0  0  0  0  0
    0.2521    3.2907    7.2658 C   0  0  0  0  0  0  0  0  0  0  0  0
   -0.8189    2.2843    6.4610 S   0  0  0  0  0  0  0  0  0  0  0  0
   -2.1764    2.7445    7.3394 C   0  0  0  0  0  0  0  0  0  0  0  0
   -1.7996    3.6585    8.3203 C   0  0  0  0  0  0  0  0  0  0  0  0
   -0.4216    3.9896    8.2631 C   0  0  0  0  0  0  0  0  0  0  0  0
    0.2324    4.9608    9.0306 O   0  0  0  0  0  0  0  0  0  0  0  0
   -0.0695    5.2806   10.3835 C   0  0  0  0  0  0  0  0  0  0  0  0
   -1.4945    5.8023   10.5439 C   0  0  0  0  0  0  0  0  0  0  0  0
   -2.5060    4.6643   10.5037 C   0  0  0  0  0  0  0  0  0  0  0  0
   -2.7543    4.2215    9.1764 O   0  0  0  0  0  0  0  0  0  0  0  0
   -3.5274    2.1957    7.1485 C   0  0  0  0  0  0  0  0  0  0  0  0
   -4.1806    2.2263    5.9680 C   0  0  0  0  0  0  0  0  0  0  0  0
   -3.6868    2.8442    4.7281 C   0  0  0  0  0  0  0  0  0  0  0  0
   -2.7448    3.6748    4.6229 O   0  0  0  0  0  0  0  0  0  0  0  0
   -4.5111    2.3923    3.6328 C   0  0  0  0  0  0  0  0  0  0  0  0
   -4.3418    2.6424    2.2714 C   0  0  0  0  0  0  0  0  0  0  0  0
   -5.2273    2.0382    1.3680 C   0  0  0  0  0  0  0  0  0  0  0  0
   -6.2368    1.1774    1.8350 C   0  0  0  0  0  0  0  0  0  0  0  0
   -7.3063    0.3898    0.6905 Cl  0  0  0  0  0  0  0  0  0  0  0  0
   -6.3858    0.9364    3.2121 C   0  0  0  0  0  0  0  0  0  0  0  0
   -5.5274    1.5888    4.1160 C   0  0  0  0  0  0  0  0  0  0  0  0
   -5.4599    1.5350    5.6060 C   0  0  0  0  0  0  0  0  0  0  0  0
   -6.4561    1.1453    6.4447 C   0  0  0  0  0  0  0  0  0  0  0  0
   -6.3828    1.3065    7.8722 C   0  0  0  0  0  0  0  0  0  0  0  0
   -6.3415    1.4319    9.0241 N   0  0  0  0  0  0  0  0  0  0  0  0
   -7.7324    0.6849    5.9629 C   0  0  0  0  0  0  0  0  0  0  0  0
   -8.7683    0.3263    5.5911 N   0  0  0  0  0  0  0  0  0  0  0  0
   -3.9884   -4.3506   -5.2165 H   0  0  0  0  0  0  0  0  0  0  0  0
   -7.4632   -4.2218   -9.2684 H   0  0  0  0  0  0  0  0  0  0  0  0
   -7.9717   -2.5843  -11.0680 H   0  0  0  0  0  0  0  0  0  0  0  0
   -5.5730    0.3896   -9.0718 H   0  0  0  0  0  0  0  0  0  0  0  0
   -4.0683   -5.8337   -2.5146 H   0  0  0  0  0  0  0  0  0  0  0  0
   -5.8628   -5.4295   -0.8837 H   0  0  0  0  0  0  0  0  0  0  0  0
   -7.1688   -2.7555    0.0873 H   0  0  0  0  0  0  0  0  0  0  0  0
   -6.6008   -4.1381    1.1053 H   0  0  0  0  0  0  0  0  0  0  0  0
   -5.9601   -2.4865    1.4077 H   0  0  0  0  0  0  0  0  0  0  0  0
   -4.3023   -1.4823   -0.1399 H   0  0  0  0  0  0  0  0  0  0  0  0
   -2.4964   -1.8903   -1.7593 H   0  0  0  0  0  0  0  0  0  0  0  0
   -0.9661   -5.4809   -5.2584 H   0  0  0  0  0  0  0  0  0  0  0  0
    0.3211   -7.5633   -5.1597 H   0  0  0  0  0  0  0  0  0  0  0  0
    1.4714   -9.1588   -1.9839 H   0  0  0  0  0  0  0  0  0  0  0  0
    0.2310   -9.8983   -3.0729 H   0  0  0  0  0  0  0  0  0  0  0  0
    1.6970   -9.0987   -3.7672 H   0  0  0  0  0  0  0  0  0  0  0  0
   -0.1564   -7.6609   -0.8748 H   0  0  0  0  0  0  0  0  0  0  0  0
   -1.4276   -5.5666   -0.9675 H   0  0  0  0  0  0  0  0  0  0  0  0
    2.8406    2.3951   -6.0151 H   0  0  0  0  0  0  0  0  0  0  0  0
    5.0159    2.3825   -7.1715 H   0  0  0  0  0  0  0  0  0  0  0  0
    6.1484   -0.3656   -9.4395 H   0  0  0  0  0  0  0  0  0  0  0  0
    6.4207    1.3426   -8.9511 H   0  0  0  0  0  0  0  0  0  0  0  0
    6.9253    0.0006   -7.8491 H   0  0  0  0  0  0  0  0  0  0  0  0
    4.3180   -1.6844   -8.4260 H   0  0  0  0  0  0  0  0  0  0  0  0
    2.1509   -1.6668   -7.2710 H   0  0  0  0  0  0  0  0  0  0  0  0
    0.6375    1.7691   -8.1622 H   0  0  0  0  0  0  0  0  0  0  0  0
   -0.9940    3.5653   -8.5097 H   0  0  0  0  0  0  0  0  0  0  0  0
   -2.9719    5.1417   -5.7760 H   0  0  0  0  0  0  0  0  0  0  0  0
   -3.7383    4.1144   -7.0506 H   0  0  0  0  0  0  0  0  0  0  0  0
   -2.4422    5.2928   -7.4875 H   0  0  0  0  0  0  0  0  0  0  0  0
   -2.3421    3.1331   -4.4389 H   0  0  0  0  0  0  0  0  0  0  0  0
   -0.6914    1.3575   -4.0755 H   0  0  0  0  0  0  0  0  0  0  0  0
    4.6109   -2.1703   -5.4996 H   0  0  0  0  0  0  0  0  0  0  0  0
    5.0894   -4.5531   -5.9379 H   0  0  0  0  0  0  0  0  0  0  0  0
    5.0498   -6.1927   -4.0903 H   0  0  0  0  0  0  0  0  0  0  0  0
    4.7695   -5.2554   -0.4833 H   0  0  0  0  0  0  0  0  0  0  0  0
    5.2106   -6.5652   -1.6253 H   0  0  0  0  0  0  0  0  0  0  0  0
    3.0277   -7.0327   -0.5337 H   0  0  0  0  0  0  0  0  0  0  0  0
    2.8045   -6.7836   -2.3086 H   0  0  0  0  0  0  0  0  0  0  0  0
    2.3572   -5.4682   -1.1459 H   0  0  0  0  0  0  0  0  0  0  0  0
    4.0851   -3.0360   -1.3192 H   0  0  0  0  0  0  0  0  0  0  0  0
    2.0949    2.9839    9.8484 H   0  0  0  0  0  0  0  0  0  0  0  0
    1.8849    1.2416   11.5837 H   0  0  0  0  0  0  0  0  0  0  0  0
    2.2807   -1.1292   11.0284 H   0  0  0  0  0  0  0  0  0  0  0  0
    2.4813   -2.8635    9.3667 H   0  0  0  0  0  0  0  0  0  0  0  0
    2.3731   -2.4385    7.6303 H   0  0  0  0  0  0  0  0  0  0  0  0
    4.9319   -2.2483    9.3597 H   0  0  0  0  0  0  0  0  0  0  0  0
    4.8121   -1.8917    7.5870 H   0  0  0  0  0  0  0  0  0  0  0  0
    4.5328   -3.5681    8.1910 H   0  0  0  0  0  0  0  0  0  0  0  0
    3.0080   -0.0472    6.9251 H   0  0  0  0  0  0  0  0  0  0  0  0
    2.6619    3.6557    0.7532 H   0  0  0  0  0  0  0  0  0  0  0  0
    2.3823    2.9175   -0.7875 H   0  0  0  0  0  0  0  0  0  0  0  0
    1.1038    1.7475    0.9788 H   0  0  0  0  0  0  0  0  0  0  0  0
    2.3758    0.6222    0.3541 H   0  0  0  0  0  0  0  0  0  0  0  0
    2.6079    1.4671    1.9359 H   0  0  0  0  0  0  0  0  0  0  0  0
    4.1704    5.0990    1.3295 H   0  0  0  0  0  0  0  0  0  0  0  0
    2.7843    5.0965    2.5040 H   0  0  0  0  0  0  0  0  0  0  0  0
    4.1676    6.2781    4.1556 H   0  0  0  0  0  0  0  0  0  0  0  0
    4.2599    7.1476    2.5871 H   0  0  0  0  0  0  0  0  0  0  0  0
    5.6376    6.1070    3.1119 H   0  0  0  0  0  0  0  0  0  0  0  0
    0.6332    6.0763   10.7089 H   0  0  0  0  0  0  0  0  0  0  0  0
    0.1095    4.3944   11.0300 H   0  0  0  0  0  0  0  0  0  0  0  0
   -1.5736    6.3041   11.5337 H   0  0  0  0  0  0  0  0  0  0  0  0
   -1.7279    6.5561    9.7590 H   0  0  0  0  0  0  0  0  0  0  0  0
   -2.1781    3.8101   11.1358 H   0  0  0  0  0  0  0  0  0  0  0  0
   -3.4665    5.0341   10.9198 H   0  0  0  0  0  0  0  0  0  0  0  0
   -3.9404    1.6954    8.0055 H   0  0  0  0  0  0  0  0  0  0  0  0
   -3.5436    3.2808    1.9160 H   0  0  0  0  0  0  0  0  0  0  0  0
   -5.1166    2.2189    0.3053 H   0  0  0  0  0  0  0  0  0  0  0  0
   -7.1288    0.2293    3.5388 H   0  0  0  0  0  0  0  0  0  0  0  0
  1  2  2  3
  2  3  1  0
  3  4  2  0
  3  5  1  0
  5  6  2  0
  6  7  1  0
  7  8  2  0
  8  9  1  0
  8 10  1  0
 10 11  2  0
 11 12  1  0
 12 13  2  3
 13 14  1  0
 14 15  3  0
 13 16  1  0
 16 17  3  0
  1 18  1  0
 18 19  2  0
 19 20  1  0
 20 21  1  0
 21 22  2  0
 22 23  1  0
 23 24  2  0
 24 25  1  0
 24 26  1  0
 26 27  2  0
 20 28  1  0
 28 29  2  0
 29 30  1  0
 30 31  2  0
 31 32  1  0
 31 33  1  0
 33 34  2  0
 19 35  1  0
 35 36  1  0
 36 37  1  0
 37 38  2  0
 38 39  1  0
 39 40  1  0
 40 41  2  0
 41 42  1  0
 42 43  2  0
 43 44  1  0
 43 45  1  0
 45 46  2  0
 39 47  1  0
 47 48  2  0
 48 49  1  0
 49 50  2  0
 50 51  1  0
 50 52  1  0
 52 53  2  0
 38 54  1  0
 54 55  1  0
 37 56  1  0
 56 57  2  0
 57 58  1  0
 58 59  2  0
 59 60  1  0
 60 61  2  0
 61 62  1  0
 62 63  1  0
 63 64  1  0
 62 65  2  0
 57 66  1  0
 66 67  1  0
 67 68  1  0
 68 69  1  0
 69 70  1  0
 70 71  1  0
 71 72  2  0
 72 73  1  0
 73 74  1  0
 71 75  1  0
 75 76  1  0
 76 77  1  0
 77 78  1  0
 78 79  1  0
 79 80  1  0
 80 81  2  0
 81 82  1  0
 82 83  2  0
 83 84  1  0
 84 85  1  0
 85 86  1  0
 84 87  2  0
 79 88  2  0
 88 89  1  0
 89 90  1  0
 90 91  1  0
 91 92  1  0
 92 93  1  0
 93 94  1  0
 94 95  1  0
 95 96  1  0
 96 97  1  0
 97 98  1  0
 95 99  1  0
 99100  1  0
 92101  1  0
101102  1  0
 88103  1  0
103104  1  0
104105  1  0
105106  2  0
106107  1  0
107108  1  0
108109  1  0
109110  1  0
110111  1  0
111112  1  0
105113  1  0
113114  2  3
114115  1  0
115116  2  0
115117  1  0
117118  2  0
118119  1  0
119120  2  0
120121  1  0
120122  1  0
122123  2  0
123124  1  0
124125  2  3
125126  1  0
126127  3  0
125128  1  0
128129  3  0
 12  2  1  0
 55 18  1  0
 98 56  1  0
107103  2  0
124114  1  0
 11  5  1  0
 27 21  1  0
 34 28  1  0
 54 35  2  0
 65 58  1  0
 97 66  2  0
112106  1  0
123117  1  0
 46 40  1  0
 53 47  1  0
 96 68  2  0
 94 69  2  0
 74 70  2  0
 93 75  2  0
 91 76  2  0
 90 78  2  0
 87 80  1  0
  1130  1  0
  6131  1  0
  7132  1  0
 10133  1  0
 22134  1  0
 23135  1  0
 25136  1  0
 25137  1  0
 25138  1  0
 26139  1  0
 27140  1  0
 29141  1  0
 30142  1  0
 32143  1  0
 32144  1  0
 32145  1  0
 33146  1  0
 34147  1  0
 41148  1  0
 42149  1  0
 44150  1  0
 44151  1  0
 44152  1  0
 45153  1  0
 46154  1  0
 48155  1  0
 49156  1  0
 51157  1  0
 51158  1  0
 51159  1  0
 52160  1  0
 53161  1  0
 59162  1  0
 60163  1  0
 61164  1  0
 63165  1  0
 63166  1  0
 64167  1  0
 64168  1  0
 64169  1  0
 65170  1  0
 81171  1  0
 82172  1  0
 83173  1  0
 85174  1  0
 85175  1  0
 86176  1  0
 86177  1  0
 86178  1  0
 87179  1  0
 99180  1  0
 99181  1  0
100182  1  0
100183  1  0
100184  1  0
101185  1  0
101186  1  0
102187  1  0
102188  1  0
102189  1  0
109190  1  0
109191  1  0
110192  1  0
110193  1  0
111194  1  0
111195  1  0
113196  1  0
118197  1  0
119198  1  0
122199  1  0
M  END

