
     RDKit          3D

236261  0  0  0  0  0  0  0  0999 V2000
   -6.3794   -4.0388    4.9333 C   0  0  0  0  0  0  0  0  0  0  0  0
   -6.0955   -3.9265    3.6146 C   0  0  0  0  0  0  0  0  0  0  0  0
   -5.4080   -2.7817    2.9981 C   0  0  0  0  0  0  0  0  0  0  0  0
   -4.8742   -1.8118    3.6019 O   0  0  0  0  0  0  0  0  0  0  0  0
   -5.3377   -2.9908    1.5776 C   0  0  0  0  0  0  0  0  0  0  0  0
   -4.7867   -2.1376    0.6204 C   0  0  0  0  0  0  0  0  0  0  0  0
   -4.7893   -2.5452   -0.7211 C   0  0  0  0  0  0  0  0  0  0  0  0
   -5.3120   -3.8026   -1.0706 C   0  0  0  0  0  0  0  0  0  0  0  0
   -5.2711   -4.3210   -2.7517 Cl  0  0  0  0  0  0  0  0  0  0  0  0
   -5.8520   -4.6526   -0.0852 C   0  0  0  0  0  0  0  0  0  0  0  0
   -5.8888   -4.2164    1.2546 C   0  0  0  0  0  0  0  0  0  0  0  0
   -6.4291   -4.8707    2.4903 C   0  0  0  0  0  0  0  0  0  0  0  0
   -7.2291   -5.9707    2.5416 C   0  0  0  0  0  0  0  0  0  0  0  0
   -7.6397   -6.6911    1.3669 C   0  0  0  0  0  0  0  0  0  0  0  0
   -7.9959   -7.2830    0.4387 N   0  0  0  0  0  0  0  0  0  0  0  0
   -7.8148   -6.4663    3.7566 C   0  0  0  0  0  0  0  0  0  0  0  0
   -8.2959   -6.8833    4.7257 N   0  0  0  0  0  0  0  0  0  0  0  0
   -6.2296   -2.9071    5.8640 C   0  0  0  0  0  0  0  0  0  0  0  0
   -6.7902   -1.6131    5.7068 C   0  0  0  0  0  0  0  0  0  0  0  0
   -7.8858   -1.2578    4.8160 N   0  0  0  0  0  0  0  0  0  0  0  0
   -8.4915    0.0394    4.9179 C   0  0  0  0  0  0  0  0  0  0  0  0
   -9.2407    0.3747    6.0551 C   0  0  0  0  0  0  0  0  0  0  0  0
   -9.9294    1.5883    6.1148 C   0  0  0  0  0  0  0  0  0  0  0  0
   -9.8740    2.4828    5.0377 C   0  0  0  0  0  0  0  0  0  0  0  0
  -10.7130    3.7203    5.0557 C   0  0  0  0  0  0  0  0  0  0  0  0
   -9.1193    2.1548    3.9001 C   0  0  0  0  0  0  0  0  0  0  0  0
   -8.4245    0.9434    3.8439 C   0  0  0  0  0  0  0  0  0  0  0  0
   -8.6766   -2.2429    4.1325 C   0  0  0  0  0  0  0  0  0  0  0  0
   -9.4340   -3.1744    4.8580 C   0  0  0  0  0  0  0  0  0  0  0  0
  -10.2771   -4.0670    4.1913 C   0  0  0  0  0  0  0  0  0  0  0  0
  -10.3755   -4.0398    2.7913 C   0  0  0  0  0  0  0  0  0  0  0  0
  -11.2537   -5.0124    2.0657 C   0  0  0  0  0  0  0  0  0  0  0  0
   -9.6124   -3.1117    2.0656 C   0  0  0  0  0  0  0  0  0  0  0  0
   -8.7748   -2.2164    2.7296 C   0  0  0  0  0  0  0  0  0  0  0  0
   -6.0415   -0.6781    6.4361 C   0  0  0  0  0  0  0  0  0  0  0  0
   -5.7496    0.9519    6.1944 S   0  0  0  0  0  0  0  0  0  0  0  0
   -4.3212    1.0284    7.1134 C   0  0  0  0  0  0  0  0  0  0  0  0
   -4.0668   -0.2671    7.6212 C   0  0  0  0  0  0  0  0  0  0  0  0
   -3.0808   -0.5966    8.6217 N   0  0  0  0  0  0  0  0  0  0  0  0
   -3.5124   -1.0514    9.9278 C   0  0  0  0  0  0  0  0  0  0  0  0
   -4.7360   -0.6218   10.4705 C   0  0  0  0  0  0  0  0  0  0  0  0
   -5.1545   -1.0686   11.7277 C   0  0  0  0  0  0  0  0  0  0  0  0
   -4.3579   -1.9576   12.4644 C   0  0  0  0  0  0  0  0  0  0  0  0
   -4.7945   -2.4052   13.8287 C   0  0  0  0  0  0  0  0  0  0  0  0
   -3.1252   -2.3706   11.9406 C   0  0  0  0  0  0  0  0  0  0  0  0
   -2.7112   -1.9310   10.6791 C   0  0  0  0  0  0  0  0  0  0  0  0
   -1.6812   -0.5305    8.3097 C   0  0  0  0  0  0  0  0  0  0  0  0
   -0.8248    0.2410    9.1106 C   0  0  0  0  0  0  0  0  0  0  0  0
    0.5379    0.3133    8.8196 C   0  0  0  0  0  0  0  0  0  0  0  0
    1.0668   -0.3956    7.7330 C   0  0  0  0  0  0  0  0  0  0  0  0
    2.5189   -0.2599    7.3857 C   0  0  0  0  0  0  0  0  0  0  0  0
    0.2116   -1.1700    6.9293 C   0  0  0  0  0  0  0  0  0  0  0  0
   -1.1545   -1.2462    7.2226 C   0  0  0  0  0  0  0  0  0  0  0  0
   -5.0347   -1.1838    7.1989 C   0  0  0  0  0  0  0  0  0  0  0  0
   -4.9403   -2.8405    6.9776 S   0  0  0  0  0  0  0  0  0  0  0  0
   -3.3089    2.0655    6.8290 C   0  0  0  0  0  0  0  0  0  0  0  0
   -3.5967    3.4236    6.5351 C   0  0  0  0  0  0  0  0  0  0  0  0
   -4.8954    4.0659    6.8041 C   0  0  0  0  0  0  0  0  0  0  0  0
   -5.4020    4.1022    8.1119 C   0  0  0  0  0  0  0  0  0  0  0  0
   -6.6428    4.6879    8.3672 C   0  0  0  0  0  0  0  0  0  0  0  0
   -7.3905    5.2348    7.3185 C   0  0  0  0  0  0  0  0  0  0  0  0
   -6.9008    5.1889    6.0019 C   0  0  0  0  0  0  0  0  0  0  0  0
   -7.6931    5.7803    4.8652 C   0  0  0  0  0  0  0  0  0  0  0  0
   -7.0108    7.0276    4.3049 C   0  0  0  0  0  0  0  0  0  0  0  0
   -5.6577    4.5920    5.7511 C   0  0  0  0  0  0  0  0  0  0  0  0
   -2.5739    4.0146    5.7694 C   0  0  0  0  0  0  0  0  0  0  0  0
   -2.4767    5.4458    4.8255 S   0  0  0  0  0  0  0  0  0  0  0  0
   -1.0839    4.8703    4.0301 C   0  0  0  0  0  0  0  0  0  0  0  0
   -0.3195    5.1343    2.9212 C   0  0  0  0  0  0  0  0  0  0  0  0
   -0.1739    6.2775    2.1272 C   0  0  0  0  0  0  0  0  0  0  0  0
    0.7703    6.2506    1.0536 C   0  0  0  0  0  0  0  0  0  0  0  0
    0.8771    7.3751    0.3064 N   0  0  0  0  0  0  0  0  0  0  0  0
   -0.2213    8.3346    1.0888 S   0  0  0  0  0  0  0  0  0  0  0  0
   -0.8560    7.4294    2.3214 N   0  0  0  0  0  0  0  0  0  0  0  0
    1.4568    5.0558    0.7889 C   0  0  0  0  0  0  0  0  0  0  0  0
    2.2051    4.6660   -0.2933 C   0  0  0  0  0  0  0  0  0  0  0  0
    2.8260    5.2992   -1.7473 S   0  0  0  0  0  0  0  0  0  0  0  0
    3.1906    3.7288   -2.3240 C   0  0  0  0  0  0  0  0  0  0  0  0
    3.7916    3.2284   -3.4898 C   0  0  0  0  0  0  0  0  0  0  0  0
    4.5848    4.0794   -4.4101 C   0  0  0  0  0  0  0  0  0  0  0  0
    5.9283    3.7621   -4.6799 C   0  0  0  0  0  0  0  0  0  0  0  0
    6.7151    4.6132   -5.4597 C   0  0  0  0  0  0  0  0  0  0  0  0
    6.1785    5.7986   -5.9627 C   0  0  0  0  0  0  0  0  0  0  0  0
    4.8417    6.1371   -5.6969 C   0  0  0  0  0  0  0  0  0  0  0  0
    4.2900    7.4556   -6.1640 C   0  0  0  0  0  0  0  0  0  0  0  0
    4.5225    8.5428   -5.1153 C   0  0  0  0  0  0  0  0  0  0  0  0
    4.0487    5.2744   -4.9216 C   0  0  0  0  0  0  0  0  0  0  0  0
    3.7637    1.8087   -3.4908 C   0  0  0  0  0  0  0  0  0  0  0  0
    3.0728    1.2505   -2.0349 S   0  0  0  0  0  0  0  0  0  0  0  0
    2.7996    2.7766   -1.4184 C   0  0  0  0  0  0  0  0  0  0  0  0
    2.2892    3.3123   -0.2453 C   0  0  0  0  0  0  0  0  0  0  0  0
    1.6884    2.7810    0.8443 N   0  0  0  0  0  0  0  0  0  0  0  0
    1.2227    3.8804    1.5252 C   0  0  0  0  0  0  0  0  0  0  0  0
    0.4177    3.9603    2.6895 C   0  0  0  0  0  0  0  0  0  0  0  0
    0.2213    3.0499    3.6982 N   0  0  0  0  0  0  0  0  0  0  0  0
   -0.7219    3.6427    4.4635 C   0  0  0  0  0  0  0  0  0  0  0  0
   -1.5415    3.1691    5.4614 C   0  0  0  0  0  0  0  0  0  0  0  0
   -1.8495    1.6541    6.0627 S   0  0  0  0  0  0  0  0  0  0  0  0
    1.1510    2.0398    4.2286 C   0  0  0  0  0  0  0  0  0  0  0  0
    2.5595    2.6147    4.3897 C   0  0  0  0  0  0  0  0  0  0  0  0
    1.2489    1.3859    0.9404 C   0  0  0  0  0  0  0  0  0  0  0  0
    2.4047    0.4661    1.3495 C   0  0  0  0  0  0  0  0  0  0  0  0
    4.2493    0.8813   -4.5360 C   0  0  0  0  0  0  0  0  0  0  0  0
    4.5246    1.1846   -5.8735 C   0  0  0  0  0  0  0  0  0  0  0  0
    5.0431    0.0897   -6.5876 C   0  0  0  0  0  0  0  0  0  0  0  0
    5.5218    0.1070   -7.9154 C   0  0  0  0  0  0  0  0  0  0  0  0
    5.5321    1.3461   -8.7169 C   0  0  0  0  0  0  0  0  0  0  0  0
    6.4239    2.3784   -8.4034 C   0  0  0  0  0  0  0  0  0  0  0  0
    6.4087    3.5693   -9.1314 C   0  0  0  0  0  0  0  0  0  0  0  0
    5.4894    3.7418  -10.1702 C   0  0  0  0  0  0  0  0  0  0  0  0
    4.5862    2.7088  -10.5000 C   0  0  0  0  0  0  0  0  0  0  0  0
    3.6367    2.8350  -11.5258 O   0  0  0  0  0  0  0  0  0  0  0  0
    3.3592    4.0474  -12.2237 C   0  0  0  0  0  0  0  0  0  0  0  0
    2.2288    3.8275  -13.2139 C   0  0  0  0  0  0  0  0  0  0  0  0
    4.6237    1.5101   -9.7757 C   0  0  0  0  0  0  0  0  0  0  0  0
    6.0944   -1.0816   -8.4030 C   0  0  0  0  0  0  0  0  0  0  0  0
    6.1657   -2.2473   -7.6313 C   0  0  0  0  0  0  0  0  0  0  0  0
    5.6509   -2.2789   -6.3222 C   0  0  0  0  0  0  0  0  0  0  0  0
    5.7651   -3.4781   -5.4729 C   0  0  0  0  0  0  0  0  0  0  0  0
    7.0067   -3.8397   -4.9320 C   0  0  0  0  0  0  0  0  0  0  0  0
    7.1233   -4.9957   -4.1542 C   0  0  0  0  0  0  0  0  0  0  0  0
    6.0051   -5.7990   -3.9193 C   0  0  0  0  0  0  0  0  0  0  0  0
    4.7527   -5.4485   -4.4653 C   0  0  0  0  0  0  0  0  0  0  0  0
    3.6030   -6.2332   -4.2797 O   0  0  0  0  0  0  0  0  0  0  0  0
    3.4527   -7.2914   -3.3312 C   0  0  0  0  0  0  0  0  0  0  0  0
    3.3243   -6.7340   -1.9212 C   0  0  0  0  0  0  0  0  0  0  0  0
    4.6443   -4.2859   -5.2402 C   0  0  0  0  0  0  0  0  0  0  0  0
    5.1077   -1.0820   -5.8276 C   0  0  0  0  0  0  0  0  0  0  0  0
    4.5782   -0.7533   -4.2676 S   0  0  0  0  0  0  0  0  0  0  0  0
    6.8859   -3.2753   -8.2511 C   0  0  0  0  0  0  0  0  0  0  0  0
    7.4347   -2.8928   -9.4746 C   0  0  0  0  0  0  0  0  0  0  0  0
    6.9654   -1.3105   -9.8306 S   0  0  0  0  0  0  0  0  0  0  0  0
    8.4881   -3.6419  -10.1791 C   0  0  0  0  0  0  0  0  0  0  0  0
    9.6518   -3.9637   -9.5758 C   0  0  0  0  0  0  0  0  0  0  0  0
   10.0541   -3.5379   -8.2146 C   0  0  0  0  0  0  0  0  0  0  0  0
    9.5900   -2.5713   -7.5521 O   0  0  0  0  0  0  0  0  0  0  0  0
   11.1409   -4.3885   -7.7985 C   0  0  0  0  0  0  0  0  0  0  0  0
   11.4820   -5.2204   -8.8174 C   0  0  0  0  0  0  0  0  0  0  0  0
   12.6541   -6.3295   -8.3013 S   0  0  0  0  0  0  0  0  0  0  0  0
   12.7026   -5.6867   -6.7240 C   0  0  0  0  0  0  0  0  0  0  0  0
   13.4491   -6.1376   -5.6336 C   0  0  0  0  0  0  0  0  0  0  0  0
   13.2873   -5.4816   -4.4022 C   0  0  0  0  0  0  0  0  0  0  0  0
   12.3882   -4.4042   -4.2745 C   0  0  0  0  0  0  0  0  0  0  0  0
   11.6360   -3.9692   -5.3813 C   0  0  0  0  0  0  0  0  0  0  0  0
   11.8080   -4.6240   -6.6032 C   0  0  0  0  0  0  0  0  0  0  0  0
   10.6586   -4.9911  -10.0164 C   0  0  0  0  0  0  0  0  0  0  0  0
   10.8681   -5.5359  -11.2363 C   0  0  0  0  0  0  0  0  0  0  0  0
   10.1615   -5.1080  -12.4118 C   0  0  0  0  0  0  0  0  0  0  0  0
    9.6165   -4.7689  -13.3773 N   0  0  0  0  0  0  0  0  0  0  0  0
   11.9149   -6.5048  -11.4489 C   0  0  0  0  0  0  0  0  0  0  0  0
   12.7546   -7.2829  -11.6253 N   0  0  0  0  0  0  0  0  0  0  0  0
   -6.7059   -4.9649    5.3729 H   0  0  0  0  0  0  0  0  0  0  0  0
   -4.3615   -1.1854    0.9052 H   0  0  0  0  0  0  0  0  0  0  0  0
   -4.3680   -1.8973   -1.4826 H   0  0  0  0  0  0  0  0  0  0  0  0
   -6.1940   -5.6251   -0.3869 H   0  0  0  0  0  0  0  0  0  0  0  0
   -9.3090   -0.3167    6.8844 H   0  0  0  0  0  0  0  0  0  0  0  0
  -10.5232    1.8196    6.9911 H   0  0  0  0  0  0  0  0  0  0  0  0
  -10.7012    4.1746    6.0675 H   0  0  0  0  0  0  0  0  0  0  0  0
  -10.3294    4.4685    4.3336 H   0  0  0  0  0  0  0  0  0  0  0  0
  -11.7561    3.4549    4.7824 H   0  0  0  0  0  0  0  0  0  0  0  0
   -9.0913    2.8262    3.0505 H   0  0  0  0  0  0  0  0  0  0  0  0
   -7.8462    0.7052    2.9616 H   0  0  0  0  0  0  0  0  0  0  0  0
   -9.3830   -3.1966    5.9405 H   0  0  0  0  0  0  0  0  0  0  0  0
  -10.8530   -4.7834    4.7654 H   0  0  0  0  0  0  0  0  0  0  0  0
  -11.8117   -4.4943    1.2571 H   0  0  0  0  0  0  0  0  0  0  0  0
  -11.9908   -5.4762    2.7547 H   0  0  0  0  0  0  0  0  0  0  0  0
  -10.6279   -5.8140    1.6201 H   0  0  0  0  0  0  0  0  0  0  0  0
   -9.6635   -3.0858    0.9866 H   0  0  0  0  0  0  0  0  0  0  0  0
   -8.1941   -1.5095    2.1556 H   0  0  0  0  0  0  0  0  0  0  0  0
   -5.3664    0.0716    9.9282 H   0  0  0  0  0  0  0  0  0  0  0  0
   -6.0978   -0.7154   12.1262 H   0  0  0  0  0  0  0  0  0  0  0  0
   -5.8986   -2.5100   13.8692 H   0  0  0  0  0  0  0  0  0  0  0  0
   -4.3503   -3.3919   14.0811 H   0  0  0  0  0  0  0  0  0  0  0  0
   -4.4708   -1.6586   14.5844 H   0  0  0  0  0  0  0  0  0  0  0  0
   -2.4839   -3.0371   12.5066 H   0  0  0  0  0  0  0  0  0  0  0  0
   -1.7632   -2.2867   10.2948 H   0  0  0  0  0  0  0  0  0  0  0  0
   -1.2204    0.7934    9.9528 H   0  0  0  0  0  0  0  0  0  0  0  0
    1.1802    0.9236    9.4424 H   0  0  0  0  0  0  0  0  0  0  0  0
    2.6640    0.6467    6.7654 H   0  0  0  0  0  0  0  0  0  0  0  0
    2.8799   -1.1471    6.8232 H   0  0  0  0  0  0  0  0  0  0  0  0
    3.1286   -0.1595    8.3061 H   0  0  0  0  0  0  0  0  0  0  0  0
    0.5987   -1.7061    6.0725 H   0  0  0  0  0  0  0  0  0  0  0  0
   -1.8072   -1.8492    6.5987 H   0  0  0  0  0  0  0  0  0  0  0  0
   -4.8287    3.6862    8.9325 H   0  0  0  0  0  0  0  0  0  0  0  0
   -7.0277    4.7167    9.3789 H   0  0  0  0  0  0  0  0  0  0  0  0
   -8.3486    5.6875    7.5314 H   0  0  0  0  0  0  0  0  0  0  0  0
   -7.7995    5.0270    4.0544 H   0  0  0  0  0  0  0  0  0  0  0  0
   -8.7139    6.0612    5.1993 H   0  0  0  0  0  0  0  0  0  0  0  0
   -7.6531    7.4795    3.5176 H   0  0  0  0  0  0  0  0  0  0  0  0
   -6.0308    6.7699    3.8508 H   0  0  0  0  0  0  0  0  0  0  0  0
   -6.8562    7.7731    5.1131 H   0  0  0  0  0  0  0  0  0  0  0  0
   -5.2936    4.5189    4.7313 H   0  0  0  0  0  0  0  0  0  0  0  0
    6.3745    2.8729   -4.2571 H   0  0  0  0  0  0  0  0  0  0  0  0
    7.7504    4.3659   -5.6502 H   0  0  0  0  0  0  0  0  0  0  0  0
    6.8100    6.4642   -6.5369 H   0  0  0  0  0  0  0  0  0  0  0  0
    4.7759    7.7586   -7.1184 H   0  0  0  0  0  0  0  0  0  0  0  0
    3.1997    7.3663   -6.3610 H   0  0  0  0  0  0  0  0  0  0  0  0
    4.0239    8.2702   -4.1598 H   0  0  0  0  0  0  0  0  0  0  0  0
    4.1026    9.5038   -5.4783 H   0  0  0  0  0  0  0  0  0  0  0  0
    5.6094    8.6759   -4.9320 H   0  0  0  0  0  0  0  0  0  0  0  0
    3.0214    5.5453   -4.6991 H   0  0  0  0  0  0  0  0  0  0  0  0
    0.8240    1.7101    5.2381 H   0  0  0  0  0  0  0  0  0  0  0  0
    1.1430    1.1223    3.6289 H   0  0  0  0  0  0  0  0  0  0  0  0
    2.5383    3.4472    5.1252 H   0  0  0  0  0  0  0  0  0  0  0  0
    2.9559    2.9944    3.4283 H   0  0  0  0  0  0  0  0  0  0  0  0
    3.2473    1.8284    4.7611 H   0  0  0  0  0  0  0  0  0  0  0  0
    0.8644    1.0495   -0.0468 H   0  0  0  0  0  0  0  0  0  0  0  0
    0.3874    1.2924    1.6285 H   0  0  0  0  0  0  0  0  0  0  0  0
    2.9019    0.8182    2.2699 H   0  0  0  0  0  0  0  0  0  0  0  0
    2.0209   -0.5649    1.5116 H   0  0  0  0  0  0  0  0  0  0  0  0
    3.1766    0.4311    0.5610 H   0  0  0  0  0  0  0  0  0  0  0  0
    4.3621    2.1552   -6.3154 H   0  0  0  0  0  0  0  0  0  0  0  0
    7.1321    2.2622   -7.5921 H   0  0  0  0  0  0  0  0  0  0  0  0
    7.1003    4.3620   -8.8825 H   0  0  0  0  0  0  0  0  0  0  0  0
    5.4802    4.6774  -10.7138 H   0  0  0  0  0  0  0  0  0  0  0  0
    3.0581    4.8375  -11.4973 H   0  0  0  0  0  0  0  0  0  0  0  0
    4.2662    4.3859  -12.7733 H   0  0  0  0  0  0  0  0  0  0  0  0
    2.5532    3.1243  -14.0109 H   0  0  0  0  0  0  0  0  0  0  0  0
    1.9337    4.7922  -13.6796 H   0  0  0  0  0  0  0  0  0  0  0  0
    1.3412    3.4031  -12.6955 H   0  0  0  0  0  0  0  0  0  0  0  0
    3.9223    0.7201  -10.0128 H   0  0  0  0  0  0  0  0  0  0  0  0
    7.8797   -3.2297   -5.1192 H   0  0  0  0  0  0  0  0  0  0  0  0
    8.0865   -5.2691   -3.7393 H   0  0  0  0  0  0  0  0  0  0  0  0
    6.1298   -6.6923   -3.3250 H   0  0  0  0  0  0  0  0  0  0  0  0
    2.5219   -7.8521   -3.5744 H   0  0  0  0  0  0  0  0  0  0  0  0
    4.2967   -8.0090   -3.3974 H   0  0  0  0  0  0  0  0  0  0  0  0
    2.4316   -6.0763   -1.8574 H   0  0  0  0  0  0  0  0  0  0  0  0
    3.2069   -7.5655   -1.1995 H   0  0  0  0  0  0  0  0  0  0  0  0
    4.2258   -6.1469   -1.6541 H   0  0  0  0  0  0  0  0  0  0  0  0
    3.6843   -4.0230   -5.6686 H   0  0  0  0  0  0  0  0  0  0  0  0
    7.1008   -4.2292   -7.7820 H   0  0  0  0  0  0  0  0  0  0  0  0
    8.2407   -4.0116  -11.1613 H   0  0  0  0  0  0  0  0  0  0  0  0
   14.1269   -6.9802   -5.7286 H   0  0  0  0  0  0  0  0  0  0  0  0
   13.8495   -5.8158   -3.5420 H   0  0  0  0  0  0  0  0  0  0  0  0
   12.2706   -3.9056   -3.3180 H   0  0  0  0  0  0  0  0  0  0  0  0
   10.9368   -3.1472   -5.2742 H   0  0  0  0  0  0  0  0  0  0  0  0
  1  2  2  3
  2  3  1  0
  3  4  2  0
  3  5  1  0
  5  6  2  0
  6  7  1  0
  7  8  2  0
  8  9  1  0
  8 10  1  0
 10 11  2  0
 11 12  1  0
 12 13  2  3
 13 14  1  0
 14 15  3  0
 13 16  1  0
 16 17  3  0
  1 18  1  0
 18 19  2  0
 19 20  1  0
 20 21  1  0
 21 22  2  0
 22 23  1  0
 23 24  2  0
 24 25  1  0
 24 26  1  0
 26 27  2  0
 20 28  1  0
 28 29  2  0
 29 30  1  0
 30 31  2  0
 31 32  1  0
 31 33  1  0
 33 34  2  0
 19 35  1  0
 35 36  1  0
 36 37  1  0
 37 38  2  0
 38 39  1  0
 39 40  1  0
 40 41  2  0
 41 42  1  0
 42 43  2  0
 43 44  1  0
 43 45  1  0
 45 46  2  0
 39 47  1  0
 47 48  2  0
 48 49  1  0
 49 50  2  0
 50 51  1  0
 50 52  1  0
 52 53  2  0
 38 54  1  0
 54 55  1  0
 37 56  1  0
 56 57  2  0
 57 58  1  0
 58 59  2  0
 59 60  1  0
 60 61  2  0
 61 62  1  0
 62 63  1  0
 63 64  1  0
 62 65  2  0
 57 66  1  0
 66 67  1  0
 67 68  1  0
 68 69  1  0
 69 70  1  0
 70 71  1  0
 71 72  2  0
 72 73  1  0
 73 74  1  0
 71 75  1  0
 75 76  1  0
 76 77  1  0
 77 78  1  0
 78 79  1  0
 79 80  1  0
 80 81  2  0
 81 82  1  0
 82 83  2  0
 83 84  1  0
 84 85  1  0
 85 86  1  0
 84 87  2  0
 79 88  2  0
 88 89  1  0
 89 90  1  0
 90 91  1  0
 91 92  1  0
 92 93  1  0
 93 94  1  0
 94 95  1  0
 95 96  1  0
 96 97  1  0
 97 98  1  0
 95 99  1  0
 99100  1  0
 92101  1  0
101102  1  0
 88103  1  0
103104  2  0
104105  1  0
105106  2  0
106107  1  0
107108  2  0
108109  1  0
109110  2  0
110111  1  0
111112  1  0
112113  1  0
113114  1  0
111115  2  0
106116  1  0
116117  2  0
117118  1  0
118119  1  0
119120  2  0
120121  1  0
121122  2  0
122123  1  0
123124  1  0
124125  1  0
125126  1  0
123127  2  0
118128  2  0
128129  1  0
117130  1  0
130131  2  0
131132  1  0
131133  1  0
133134  2  3
134135  1  0
135136  2  0
135137  1  0
137138  2  0
138139  1  0
139140  1  0
140141  2  0
141142  1  0
142143  2  0
143144  1  0
144145  2  0
138146  1  0
146147  2  3
147148  1  0
148149  3  0
147150  1  0
150151  3  0
 12  2  1  0
 55 18  1  0
 98 56  1  0
129103  1  0
146134  1  0
 11  5  1  0
 27 21  1  0
 34 28  1  0
 54 35  2  0
 65 58  1  0
 97 66  2  0
128105  1  0
145137  1  0
 46 40  1  0
 53 47  1  0
 96 68  2  0
115107  1  0
132116  1  0
145140  1  0
 94 69  2  0
127119  1  0
 74 70  2  0
 93 75  2  0
 91 76  2  0
 90 78  2  0
 87 80  1  0
  1152  1  0
  6153  1  0
  7154  1  0
 10155  1  0
 22156  1  0
 23157  1  0
 25158  1  0
 25159  1  0
 25160  1  0
 26161  1  0
 27162  1  0
 29163  1  0
 30164  1  0
 32165  1  0
 32166  1  0
 32167  1  0
 33168  1  0
 34169  1  0
 41170  1  0
 42171  1  0
 44172  1  0
 44173  1  0
 44174  1  0
 45175  1  0
 46176  1  0
 48177  1  0
 49178  1  0
 51179  1  0
 51180  1  0
 51181  1  0
 52182  1  0
 53183  1  0
 59184  1  0
 60185  1  0
 61186  1  0
 63187  1  0
 63188  1  0
 64189  1  0
 64190  1  0
 64191  1  0
 65192  1  0
 81193  1  0
 82194  1  0
 83195  1  0
 85196  1  0
 85197  1  0
 86198  1  0
 86199  1  0
 86200  1  0
 87201  1  0
 99202  1  0
 99203  1  0
100204  1  0
100205  1  0
100206  1  0
101207  1  0
101208  1  0
102209  1  0
102210  1  0
102211  1  0
104212  1  0
108213  1  0
109214  1  0
110215  1  0
113216  1  0
113217  1  0
114218  1  0
114219  1  0
114220  1  0
115221  1  0
120222  1  0
121223  1  0
122224  1  0
125225  1  0
125226  1  0
126227  1  0
126228  1  0
126229  1  0
127230  1  0
130231  1  0
133232  1  0
141233  1  0
142234  1  0
143235  1  0
144236  1  0
M  END

