
     RDKit          3D

249274  0  0  0  0  0  0  0  0999 V2000
    0.7266    8.2773    3.3262 C   0  0  0  0  0  0  0  0  0  0  0  0
    0.6311    7.9412    2.0221 C   0  0  0  0  0  0  0  0  0  0  0  0
   -0.0131    6.7190    1.5189 C   0  0  0  0  0  0  0  0  0  0  0  0
   -0.6171    5.8527    2.2067 O   0  0  0  0  0  0  0  0  0  0  0  0
    0.0595    6.7149    0.0802 C   0  0  0  0  0  0  0  0  0  0  0  0
   -0.4574    5.7577   -0.7935 C   0  0  0  0  0  0  0  0  0  0  0  0
   -0.3120    5.9647   -2.1698 C   0  0  0  0  0  0  0  0  0  0  0  0
    0.3334    7.1183   -2.6454 C   0  0  0  0  0  0  0  0  0  0  0  0
    0.5015    7.3688   -4.3743 Cl  0  0  0  0  0  0  0  0  0  0  0  0
    0.8296    8.0774   -1.7467 C   0  0  0  0  0  0  0  0  0  0  0  0
    0.6977    7.8611   -0.3631 C   0  0  0  0  0  0  0  0  0  0  0  0
    1.1110    8.6964    0.8117 C   0  0  0  0  0  0  0  0  0  0  0  0
    1.8661    9.8321    0.7790 C   0  0  0  0  0  0  0  0  0  0  0  0
    2.2673   10.5506    1.9583 C   0  0  0  0  0  0  0  0  0  0  0  0
    2.6015   11.1469    2.8919 N   0  0  0  0  0  0  0  0  0  0  0  0
    2.3596   10.4101   -0.4421 C   0  0  0  0  0  0  0  0  0  0  0  0
    2.7703   10.8924   -1.4097 N   0  0  0  0  0  0  0  0  0  0  0  0
    0.4263    7.3173    4.4008 C   0  0  0  0  0  0  0  0  0  0  0  0
    1.1404    6.1273    4.6522 C   0  0  0  0  0  0  0  0  0  0  0  0
    2.3927    5.7774    4.0106 N   0  0  0  0  0  0  0  0  0  0  0  0
    3.3483    6.7916    3.6434 C   0  0  0  0  0  0  0  0  0  0  0  0
    3.9332    6.7814    2.3662 C   0  0  0  0  0  0  0  0  0  0  0  0
    4.8404    7.7791    1.9961 C   0  0  0  0  0  0  0  0  0  0  0  0
    5.1688    8.8041    2.8971 C   0  0  0  0  0  0  0  0  0  0  0  0
    6.1579    9.8624    2.5097 C   0  0  0  0  0  0  0  0  0  0  0  0
    4.6078    8.7978    4.1843 C   0  0  0  0  0  0  0  0  0  0  0  0
    3.6980    7.8043    4.5520 C   0  0  0  0  0  0  0  0  0  0  0  0
    2.7707    4.4030    3.8240 C   0  0  0  0  0  0  0  0  0  0  0  0
    2.0704    3.5897    2.9213 C   0  0  0  0  0  0  0  0  0  0  0  0
    2.3965    2.2337    2.7990 C   0  0  0  0  0  0  0  0  0  0  0  0
    3.4306    1.6826    3.5729 C   0  0  0  0  0  0  0  0  0  0  0  0
    3.7499    0.2224    3.4588 C   0  0  0  0  0  0  0  0  0  0  0  0
    4.1511    2.5075    4.4514 C   0  0  0  0  0  0  0  0  0  0  0  0
    3.8261    3.8619    4.5721 C   0  0  0  0  0  0  0  0  0  0  0  0
    0.3836    5.2717    5.4717 C   0  0  0  0  0  0  0  0  0  0  0  0
    0.4479    3.6295    5.7829 S   0  0  0  0  0  0  0  0  0  0  0  0
   -1.1478    3.4867    6.3501 C   0  0  0  0  0  0  0  0  0  0  0  0
   -1.7322    4.7756    6.3533 C   0  0  0  0  0  0  0  0  0  0  0  0
   -3.0966    5.0832    6.7439 N   0  0  0  0  0  0  0  0  0  0  0  0
   -4.0801    4.0492    6.9088 C   0  0  0  0  0  0  0  0  0  0  0  0
   -4.2382    3.4226    8.1529 C   0  0  0  0  0  0  0  0  0  0  0  0
   -5.1735    2.3946    8.3062 C   0  0  0  0  0  0  0  0  0  0  0  0
   -5.9583    1.9834    7.2184 C   0  0  0  0  0  0  0  0  0  0  0  0
   -6.9252    0.8482    7.3853 C   0  0  0  0  0  0  0  0  0  0  0  0
   -5.8111    2.6262    5.9773 C   0  0  0  0  0  0  0  0  0  0  0  0
   -4.8894    3.6688    5.8309 C   0  0  0  0  0  0  0  0  0  0  0  0
   -3.4300    6.3822    7.2642 C   0  0  0  0  0  0  0  0  0  0  0  0
   -4.5720    7.0558    6.8025 C   0  0  0  0  0  0  0  0  0  0  0  0
   -4.9083    8.3099    7.3194 C   0  0  0  0  0  0  0  0  0  0  0  0
   -4.1199    8.8977    8.3203 C   0  0  0  0  0  0  0  0  0  0  0  0
   -4.4677   10.2547    8.8576 C   0  0  0  0  0  0  0  0  0  0  0  0
   -2.9709    8.2318    8.7734 C   0  0  0  0  0  0  0  0  0  0  0  0
   -2.6331    6.9776    8.2561 C   0  0  0  0  0  0  0  0  0  0  0  0
   -0.8424    5.7334    5.8413 C   0  0  0  0  0  0  0  0  0  0  0  0
   -1.0850    7.2553    5.1744 S   0  0  0  0  0  0  0  0  0  0  0  0
   -1.8779    2.2695    5.9893 C   0  0  0  0  0  0  0  0  0  0  0  0
   -1.8558    1.0320    6.6547 C   0  0  0  0  0  0  0  0  0  0  0  0
   -1.1358    0.7840    7.9083 C   0  0  0  0  0  0  0  0  0  0  0  0
    0.2421    0.5317    7.8835 C   0  0  0  0  0  0  0  0  0  0  0  0
    0.9362    0.3063    9.0730 C   0  0  0  0  0  0  0  0  0  0  0  0
    0.2585    0.3404   10.2955 C   0  0  0  0  0  0  0  0  0  0  0  0
   -1.1215    0.6012   10.3336 C   0  0  0  0  0  0  0  0  0  0  0  0
   -1.8578    0.6351   11.6467 C   0  0  0  0  0  0  0  0  0  0  0  0
   -2.6473   -0.6518   11.8636 C   0  0  0  0  0  0  0  0  0  0  0  0
   -1.8147    0.8113    9.1312 C   0  0  0  0  0  0  0  0  0  0  0  0
   -2.4040    0.0250    5.8514 C   0  0  0  0  0  0  0  0  0  0  0  0
   -2.4782   -1.6805    5.9796 S   0  0  0  0  0  0  0  0  0  0  0  0
   -3.0005   -1.8078    4.3650 C   0  0  0  0  0  0  0  0  0  0  0  0
   -3.3036   -2.7533    3.4233 C   0  0  0  0  0  0  0  0  0  0  0  0
   -3.5013   -4.1370    3.4951 C   0  0  0  0  0  0  0  0  0  0  0  0
   -3.8970   -4.8333    2.3087 C   0  0  0  0  0  0  0  0  0  0  0  0
   -4.0693   -6.1742    2.4187 N   0  0  0  0  0  0  0  0  0  0  0  0
   -3.7291   -6.3712    4.0268 S   0  0  0  0  0  0  0  0  0  0  0  0
   -3.3547   -4.8713    4.6255 N   0  0  0  0  0  0  0  0  0  0  0  0
   -4.0203   -4.1124    1.1068 C   0  0  0  0  0  0  0  0  0  0  0  0
   -4.0321   -4.5540   -0.1914 C   0  0  0  0  0  0  0  0  0  0  0  0
   -3.7806   -6.0572   -0.9379 S   0  0  0  0  0  0  0  0  0  0  0  0
   -3.1741   -5.3200   -2.3474 C   0  0  0  0  0  0  0  0  0  0  0  0
   -2.4586   -5.8367   -3.4321 C   0  0  0  0  0  0  0  0  0  0  0  0
   -2.3963   -7.2837   -3.7511 C   0  0  0  0  0  0  0  0  0  0  0  0
   -3.5786   -8.0432   -3.7292 C   0  0  0  0  0  0  0  0  0  0  0  0
   -3.5492   -9.4068   -4.0249 C   0  0  0  0  0  0  0  0  0  0  0  0
   -2.3399  -10.0324   -4.3294 C   0  0  0  0  0  0  0  0  0  0  0  0
   -1.1480   -9.2914   -4.3507 C   0  0  0  0  0  0  0  0  0  0  0  0
    0.1673   -9.9734   -4.6154 C   0  0  0  0  0  0  0  0  0  0  0  0
    0.8456  -10.3555   -3.3048 C   0  0  0  0  0  0  0  0  0  0  0  0
   -1.1825   -7.9197   -4.0548 C   0  0  0  0  0  0  0  0  0  0  0  0
   -1.8095   -4.7999   -4.1345 C   0  0  0  0  0  0  0  0  0  0  0  0
   -2.1281   -3.3056   -3.3886 S   0  0  0  0  0  0  0  0  0  0  0  0
   -3.1062   -3.9582   -2.1939 C   0  0  0  0  0  0  0  0  0  0  0  0
   -3.6094   -3.5156   -0.9699 C   0  0  0  0  0  0  0  0  0  0  0  0
   -3.3674   -2.3917   -0.2465 N   0  0  0  0  0  0  0  0  0  0  0  0
   -3.7121   -2.7483    1.0322 C   0  0  0  0  0  0  0  0  0  0  0  0
   -3.4788   -2.0380    2.2323 C   0  0  0  0  0  0  0  0  0  0  0  0
   -3.4226   -0.6863    2.4393 N   0  0  0  0  0  0  0  0  0  0  0  0
   -3.1004   -0.6035    3.7543 C   0  0  0  0  0  0  0  0  0  0  0  0
   -2.7969    0.4435    4.6046 C   0  0  0  0  0  0  0  0  0  0  0  0
   -2.4810    2.0631    4.4132 S   0  0  0  0  0  0  0  0  0  0  0  0
   -4.2255    0.3149    1.7127 C   0  0  0  0  0  0  0  0  0  0  0  0
   -3.4195    1.5556    1.3270 C   0  0  0  0  0  0  0  0  0  0  0  0
   -2.3821   -1.3716   -0.6250 C   0  0  0  0  0  0  0  0  0  0  0  0
   -0.9666   -1.8252   -0.2687 C   0  0  0  0  0  0  0  0  0  0  0  0
   -0.7573   -4.9505   -5.1421 C   0  0  0  0  0  0  0  0  0  0  0  0
   -0.8967   -4.7512   -6.5272 C   0  0  0  0  0  0  0  0  0  0  0  0
   -2.1310   -4.3345   -7.1438 N   0  0  0  0  0  0  0  0  0  0  0  0
   -2.1777   -3.1071   -7.8999 C   0  0  0  0  0  0  0  0  0  0  0  0
   -1.5109   -1.9594   -7.4341 C   0  0  0  0  0  0  0  0  0  0  0  0
   -1.4886   -0.7922   -8.2044 C   0  0  0  0  0  0  0  0  0  0  0  0
   -2.1513   -0.7477   -9.4408 C   0  0  0  0  0  0  0  0  0  0  0  0
   -2.0653    0.4836  -10.2965 C   0  0  0  0  0  0  0  0  0  0  0  0
   -2.8219   -1.8902   -9.9040 C   0  0  0  0  0  0  0  0  0  0  0  0
   -2.8457   -3.0583   -9.1327 C   0  0  0  0  0  0  0  0  0  0  0  0
   -3.3413   -5.0618   -6.8710 C   0  0  0  0  0  0  0  0  0  0  0  0
   -3.3794   -6.4541   -7.0338 C   0  0  0  0  0  0  0  0  0  0  0  0
   -4.5353   -7.1695   -6.7073 C   0  0  0  0  0  0  0  0  0  0  0  0
   -5.6521   -6.5056   -6.1765 C   0  0  0  0  0  0  0  0  0  0  0  0
   -6.8708   -7.2805   -5.7773 C   0  0  0  0  0  0  0  0  0  0  0  0
   -5.6235   -5.1086   -6.0405 C   0  0  0  0  0  0  0  0  0  0  0  0
   -4.4759   -4.3911   -6.3896 C   0  0  0  0  0  0  0  0  0  0  0  0
    0.3564   -4.6462   -7.1487 C   0  0  0  0  0  0  0  0  0  0  0  0
    0.8481   -4.0758   -8.6513 S   0  0  0  0  0  0  0  0  0  0  0  0
    2.4739   -3.8350   -8.2060 C   0  0  0  0  0  0  0  0  0  0  0  0
    2.6160   -4.1541   -6.8334 C   0  0  0  0  0  0  0  0  0  0  0  0
    3.6410   -3.5958   -5.9829 N   0  0  0  0  0  0  0  0  0  0  0  0
    4.3116   -4.4279   -5.0012 C   0  0  0  0  0  0  0  0  0  0  0  0
    4.4436   -5.8142   -5.2049 C   0  0  0  0  0  0  0  0  0  0  0  0
    5.1199   -6.6137   -4.2769 C   0  0  0  0  0  0  0  0  0  0  0  0
    5.6799   -6.0415   -3.1275 C   0  0  0  0  0  0  0  0  0  0  0  0
    6.4257   -6.9076   -2.1511 C   0  0  0  0  0  0  0  0  0  0  0  0
    5.5152   -4.6721   -2.8900 C   0  0  0  0  0  0  0  0  0  0  0  0
    4.8350   -3.8728   -3.8149 C   0  0  0  0  0  0  0  0  0  0  0  0
    3.8557   -2.1685   -6.0267 C   0  0  0  0  0  0  0  0  0  0  0  0
    2.7617   -1.2855   -6.1101 C   0  0  0  0  0  0  0  0  0  0  0  0
    2.9684    0.0893   -6.2295 C   0  0  0  0  0  0  0  0  0  0  0  0
    4.2709    0.6129   -6.2542 C   0  0  0  0  0  0  0  0  0  0  0  0
    4.4820    2.0865   -6.4254 C   0  0  0  0  0  0  0  0  0  0  0  0
    5.3653   -0.2640   -6.1731 C   0  0  0  0  0  0  0  0  0  0  0  0
    5.1579   -1.6397   -6.0468 C   0  0  0  0  0  0  0  0  0  0  0  0
    1.4239   -4.6551   -6.3056 C   0  0  0  0  0  0  0  0  0  0  0  0
    0.8898   -4.8351   -4.7308 S   0  0  0  0  0  0  0  0  0  0  0  0
    3.4012   -3.0035   -9.0023 C   0  0  0  0  0  0  0  0  0  0  0  0
    4.7302   -3.2140   -9.0657 C   0  0  0  0  0  0  0  0  0  0  0  0
    5.4456   -4.3514   -8.4827 C   0  0  0  0  0  0  0  0  0  0  0  0
    4.9690   -5.5006   -8.2754 O   0  0  0  0  0  0  0  0  0  0  0  0
    6.8189   -3.9559   -8.2420 C   0  0  0  0  0  0  0  0  0  0  0  0
    7.0154   -2.6815   -8.7467 C   0  0  0  0  0  0  0  0  0  0  0  0
    8.1925   -1.9852   -8.4375 C   0  0  0  0  0  0  0  0  0  0  0  0
    9.1921   -2.6300   -7.6876 C   0  0  0  0  0  0  0  0  0  0  0  0
   10.3418   -1.9743   -7.3908 F   0  0  0  0  0  0  0  0  0  0  0  0
    8.9908   -3.9390   -7.2125 C   0  0  0  0  0  0  0  0  0  0  0  0
    9.9509   -4.5434   -6.4729 F   0  0  0  0  0  0  0  0  0  0  0  0
    7.7836   -4.6043   -7.4659 C   0  0  0  0  0  0  0  0  0  0  0  0
    7.5442   -5.8309   -6.9363 F   0  0  0  0  0  0  0  0  0  0  0  0
    5.7759   -2.2104   -9.4188 C   0  0  0  0  0  0  0  0  0  0  0  0
    5.6869   -1.2068  -10.3311 C   0  0  0  0  0  0  0  0  0  0  0  0
    4.4805   -0.9491  -11.0697 C   0  0  0  0  0  0  0  0  0  0  0  0
    3.5213   -0.7381  -11.6834 N   0  0  0  0  0  0  0  0  0  0  0  0
    6.8503   -0.4884  -10.7757 C   0  0  0  0  0  0  0  0  0  0  0  0
    7.7897    0.0785  -11.1422 N   0  0  0  0  0  0  0  0  0  0  0  0
    1.0610    9.2420    3.6480 H   0  0  0  0  0  0  0  0  0  0  0  0
   -0.9681    4.8782   -0.4218 H   0  0  0  0  0  0  0  0  0  0  0  0
   -0.7057    5.2336   -2.8653 H   0  0  0  0  0  0  0  0  0  0  0  0
    1.2826    8.9618   -2.1563 H   0  0  0  0  0  0  0  0  0  0  0  0
    3.6680    6.0120    1.6512 H   0  0  0  0  0  0  0  0  0  0  0  0
    5.2748    7.7590    1.0034 H   0  0  0  0  0  0  0  0  0  0  0  0
    6.1530   10.0256    1.4123 H   0  0  0  0  0  0  0  0  0  0  0  0
    5.9065   10.8275    3.0006 H   0  0  0  0  0  0  0  0  0  0  0  0
    7.1748    9.5517    2.8260 H   0  0  0  0  0  0  0  0  0  0  0  0
    4.8675    9.5711    4.8973 H   0  0  0  0  0  0  0  0  0  0  0  0
    3.2636    7.8228    5.5430 H   0  0  0  0  0  0  0  0  0  0  0  0
    1.2653    4.0000    2.3268 H   0  0  0  0  0  0  0  0  0  0  0  0
    1.8368    1.6130    2.1107 H   0  0  0  0  0  0  0  0  0  0  0  0
    4.5386   -0.0767    4.1818 H   0  0  0  0  0  0  0  0  0  0  0  0
    2.8398   -0.3788    3.6665 H   0  0  0  0  0  0  0  0  0  0  0  0
    4.1073   -0.0000    2.4327 H   0  0  0  0  0  0  0  0  0  0  0  0
    4.9554    2.1029    5.0544 H   0  0  0  0  0  0  0  0  0  0  0  0
    4.3736    4.4826    5.2711 H   0  0  0  0  0  0  0  0  0  0  0  0
   -3.6277    3.7230    8.9949 H   0  0  0  0  0  0  0  0  0  0  0  0
   -5.2803    1.9124    9.2709 H   0  0  0  0  0  0  0  0  0  0  0  0
   -7.5965    1.0496    8.2456 H   0  0  0  0  0  0  0  0  0  0  0  0
   -6.3648   -0.0915    7.5760 H   0  0  0  0  0  0  0  0  0  0  0  0
   -7.5505    0.7101    6.4787 H   0  0  0  0  0  0  0  0  0  0  0  0
   -6.4008    2.3171    5.1227 H   0  0  0  0  0  0  0  0  0  0  0  0
   -4.7805    4.1565    4.8689 H   0  0  0  0  0  0  0  0  0  0  0  0
   -5.1941    6.6133    6.0340 H   0  0  0  0  0  0  0  0  0  0  0  0
   -5.7861    8.8210    6.9410 H   0  0  0  0  0  0  0  0  0  0  0  0
   -3.9606   11.0333    8.2502 H   0  0  0  0  0  0  0  0  0  0  0  0
   -4.1442   10.3526    9.9152 H   0  0  0  0  0  0  0  0  0  0  0  0
   -5.5651   10.4232    8.8177 H   0  0  0  0  0  0  0  0  0  0  0  0
   -2.3406    8.6796    9.5310 H   0  0  0  0  0  0  0  0  0  0  0  0
   -1.7552    6.4669    8.6318 H   0  0  0  0  0  0  0  0  0  0  0  0
    0.7756    0.5058    6.9409 H   0  0  0  0  0  0  0  0  0  0  0  0
    1.9997    0.1069    9.0493 H   0  0  0  0  0  0  0  0  0  0  0  0
    0.8110    0.1630   11.2097 H   0  0  0  0  0  0  0  0  0  0  0  0
   -2.5578    1.4995   11.6606 H   0  0  0  0  0  0  0  0  0  0  0  0
   -1.1443    0.7708   12.4892 H   0  0  0  0  0  0  0  0  0  0  0  0
   -3.1104   -0.6387   12.8722 H   0  0  0  0  0  0  0  0  0  0  0  0
   -3.4556   -0.7343   11.1087 H   0  0  0  0  0  0  0  0  0  0  0  0
   -1.9778   -1.5341   11.7911 H   0  0  0  0  0  0  0  0  0  0  0  0
   -2.8795    0.9945    9.1526 H   0  0  0  0  0  0  0  0  0  0  0  0
   -4.5287   -7.5736   -3.5042 H   0  0  0  0  0  0  0  0  0  0  0  0
   -4.4680   -9.9799   -4.0166 H   0  0  0  0  0  0  0  0  0  0  0  0
   -2.3320  -11.0923   -4.5362 H   0  0  0  0  0  0  0  0  0  0  0  0
    0.0105  -10.8890   -5.2247 H   0  0  0  0  0  0  0  0  0  0  0  0
    0.8346   -9.3005   -5.1931 H   0  0  0  0  0  0  0  0  0  0  0  0
    1.7935  -10.8942   -3.5169 H   0  0  0  0  0  0  0  0  0  0  0  0
    0.1858  -11.0199   -2.7085 H   0  0  0  0  0  0  0  0  0  0  0  0
    1.0827   -9.4461   -2.7106 H   0  0  0  0  0  0  0  0  0  0  0  0
   -0.2557   -7.3661   -4.0329 H   0  0  0  0  0  0  0  0  0  0  0  0
   -5.0903    0.6180    2.3448 H   0  0  0  0  0  0  0  0  0  0  0  0
   -4.6601   -0.1349    0.7962 H   0  0  0  0  0  0  0  0  0  0  0  0
   -2.3266    1.3852    1.4255 H   0  0  0  0  0  0  0  0  0  0  0  0
   -3.7166    2.4209    1.9554 H   0  0  0  0  0  0  0  0  0  0  0  0
   -3.6391    1.8296    0.2707 H   0  0  0  0  0  0  0  0  0  0  0  0
   -2.4515   -1.1530   -1.7075 H   0  0  0  0  0  0  0  0  0  0  0  0
   -2.5745   -0.4224   -0.1181 H   0  0  0  0  0  0  0  0  0  0  0  0
   -0.8772   -1.9720    0.8284 H   0  0  0  0  0  0  0  0  0  0  0  0
   -0.7171   -2.7800   -0.7811 H   0  0  0  0  0  0  0  0  0  0  0  0
   -0.2374   -1.0513   -0.5820 H   0  0  0  0  0  0  0  0  0  0  0  0
   -0.9930   -1.9745   -6.4830 H   0  0  0  0  0  0  0  0  0  0  0  0
   -0.9455    0.0715   -7.8409 H   0  0  0  0  0  0  0  0  0  0  0  0
   -2.0562    1.3965   -9.6646 H   0  0  0  0  0  0  0  0  0  0  0  0
   -2.9354    0.5505  -10.9835 H   0  0  0  0  0  0  0  0  0  0  0  0
   -1.1359    0.4502  -10.9026 H   0  0  0  0  0  0  0  0  0  0  0  0
   -3.3150   -1.8809  -10.8690 H   0  0  0  0  0  0  0  0  0  0  0  0
   -3.3505   -3.9362   -9.5143 H   0  0  0  0  0  0  0  0  0  0  0  0
   -2.5120   -6.9857   -7.4048 H   0  0  0  0  0  0  0  0  0  0  0  0
   -4.5481   -8.2459   -6.8388 H   0  0  0  0  0  0  0  0  0  0  0  0
   -7.4568   -6.7267   -5.0134 H   0  0  0  0  0  0  0  0  0  0  0  0
   -6.5769   -8.2575   -5.3413 H   0  0  0  0  0  0  0  0  0  0  0  0
   -7.5054   -7.4532   -6.6703 H   0  0  0  0  0  0  0  0  0  0  0  0
   -6.4892   -4.5766   -5.6618 H   0  0  0  0  0  0  0  0  0  0  0  0
   -4.4570   -3.3189   -6.2546 H   0  0  0  0  0  0  0  0  0  0  0  0
    4.0272   -6.2869   -6.0815 H   0  0  0  0  0  0  0  0  0  0  0  0
    5.2231   -7.6743   -4.4642 H   0  0  0  0  0  0  0  0  0  0  0  0
    6.9118   -6.2964   -1.3605 H   0  0  0  0  0  0  0  0  0  0  0  0
    5.7228   -7.6185   -1.6675 H   0  0  0  0  0  0  0  0  0  0  0  0
    7.2163   -7.4776   -2.6837 H   0  0  0  0  0  0  0  0  0  0  0  0
    5.9183   -4.2143   -1.9969 H   0  0  0  0  0  0  0  0  0  0  0  0
    4.7116   -2.8224   -3.5956 H   0  0  0  0  0  0  0  0  0  0  0  0
    1.7478   -1.6650   -6.1012 H   0  0  0  0  0  0  0  0  0  0  0  0
    2.1132    0.7496   -6.3102 H   0  0  0  0  0  0  0  0  0  0  0  0
    3.7837    2.6508   -5.7724 H   0  0  0  0  0  0  0  0  0  0  0  0
    5.5208    2.3741   -6.1588 H   0  0  0  0  0  0  0  0  0  0  0  0
    4.2942    2.3627   -7.4841 H   0  0  0  0  0  0  0  0  0  0  0  0
    6.3780    0.1196   -6.2125 H   0  0  0  0  0  0  0  0  0  0  0  0
    6.0132   -2.2975   -5.9924 H   0  0  0  0  0  0  0  0  0  0  0  0
    2.9699   -2.1029   -9.4150 H   0  0  0  0  0  0  0  0  0  0  0  0
    8.3415   -0.9568   -8.7242 H   0  0  0  0  0  0  0  0  0  0  0  0
  1  2  2  3
  2  3  1  0
  3  4  2  0
  3  5  1  0
  5  6  2  0
  6  7  1  0
  7  8  2  0
  8  9  1  0
  8 10  1  0
 10 11  2  0
 11 12  1  0
 12 13  2  3
 13 14  1  0
 14 15  3  0
 13 16  1  0
 16 17  3  0
  1 18  1  0
 18 19  2  0
 19 20  1  0
 20 21  1  0
 21 22  2  0
 22 23  1  0
 23 24  2  0
 24 25  1  0
 24 26  1  0
 26 27  2  0
 20 28  1  0
 28 29  2  0
 29 30  1  0
 30 31  2  0
 31 32  1  0
 31 33  1  0
 33 34  2  0
 19 35  1  0
 35 36  1  0
 36 37  1  0
 37 38  2  0
 38 39  1  0
 39 40  1  0
 40 41  2  0
 41 42  1  0
 42 43  2  0
 43 44  1  0
 43 45  1  0
 45 46  2  0
 39 47  1  0
 47 48  2  0
 48 49  1  0
 49 50  2  0
 50 51  1  0
 50 52  1  0
 52 53  2  0
 38 54  1  0
 54 55  1  0
 37 56  1  0
 56 57  2  0
 57 58  1  0
 58 59  2  0
 59 60  1  0
 60 61  2  0
 61 62  1  0
 62 63  1  0
 63 64  1  0
 62 65  2  0
 57 66  1  0
 66 67  1  0
 67 68  1  0
 68 69  1  0
 69 70  1  0
 70 71  1  0
 71 72  2  0
 72 73  1  0
 73 74  1  0
 71 75  1  0
 75 76  1  0
 76 77  1  0
 77 78  1  0
 78 79  1  0
 79 80  1  0
 80 81  2  0
 81 82  1  0
 82 83  2  0
 83 84  1  0
 84 85  1  0
 85 86  1  0
 84 87  2  0
 79 88  2  0
 88 89  1  0
 89 90  1  0
 90 91  1  0
 91 92  1  0
 92 93  1  0
 93 94  1  0
 94 95  1  0
 95 96  1  0
 96 97  1  0
 97 98  1  0
 95 99  1  0
 99100  1  0
 92101  1  0
101102  1  0
 88103  1  0
103104  2  0
104105  1  0
105106  1  0
106107  2  0
107108  1  0
108109  2  0
109110  1  0
109111  1  0
111112  2  0
105113  1  0
113114  2  0
114115  1  0
115116  2  0
116117  1  0
116118  1  0
118119  2  0
104120  1  0
120121  1  0
121122  1  0
122123  2  0
123124  1  0
124125  1  0
125126  2  0
126127  1  0
127128  2  0
128129  1  0
128130  1  0
130131  2  0
124132  1  0
132133  2  0
133134  1  0
134135  2  0
135136  1  0
135137  1  0
137138  2  0
123139  1  0
139140  1  0
122141  1  0
141142  2  3
142143  1  0
143144  2  0
143145  1  0
145146  2  0
146147  1  0
147148  2  0
148149  1  0
148150  1  0
150151  1  0
150152  2  0
152153  1  0
146154  1  0
154155  2  3
155156  1  0
156157  3  0
155158  1  0
158159  3  0
 12  2  1  0
 55 18  1  0
 98 56  1  0
140103  1  0
154142  1  0
 11  5  1  0
 27 21  1  0
 34 28  1  0
 54 35  2  0
 65 58  1  0
 97 66  2  0
112106  1  0
119113  1  0
139120  2  0
152145  1  0
 46 40  1  0
 53 47  1  0
 96 68  2  0
131125  1  0
138132  1  0
 94 69  2  0
 74 70  2  0
 93 75  2  0
 91 76  2  0
 90 78  2  0
 87 80  1  0
  1160  1  0
  6161  1  0
  7162  1  0
 10163  1  0
 22164  1  0
 23165  1  0
 25166  1  0
 25167  1  0
 25168  1  0
 26169  1  0
 27170  1  0
 29171  1  0
 30172  1  0
 32173  1  0
 32174  1  0
 32175  1  0
 33176  1  0
 34177  1  0
 41178  1  0
 42179  1  0
 44180  1  0
 44181  1  0
 44182  1  0
 45183  1  0
 46184  1  0
 48185  1  0
 49186  1  0
 51187  1  0
 51188  1  0
 51189  1  0
 52190  1  0
 53191  1  0
 59192  1  0
 60193  1  0
 61194  1  0
 63195  1  0
 63196  1  0
 64197  1  0
 64198  1  0
 64199  1  0
 65200  1  0
 81201  1  0
 82202  1  0
 83203  1  0
 85204  1  0
 85205  1  0
 86206  1  0
 86207  1  0
 86208  1  0
 87209  1  0
 99210  1  0
 99211  1  0
100212  1  0
100213  1  0
100214  1  0
101215  1  0
101216  1  0
102217  1  0
102218  1  0
102219  1  0
107220  1  0
108221  1  0
110222  1  0
110223  1  0
110224  1  0
111225  1  0
112226  1  0
114227  1  0
115228  1  0
117229  1  0
117230  1  0
117231  1  0
118232  1  0
119233  1  0
126234  1  0
127235  1  0
129236  1  0
129237  1  0
129238  1  0
130239  1  0
131240  1  0
133241  1  0
134242  1  0
136243  1  0
136244  1  0
136245  1  0
137246  1  0
138247  1  0
141248  1  0
147249  1  0
M  END

