
     RDKit          3D

207227  0  0  0  0  0  0  0  0999 V2000
   -7.1163   -0.2292    7.7783 C   0  0  0  0  0  0  0  0  0  0  0  0
   -8.0566   -0.9289    7.0882 C   0  0  0  0  0  0  0  0  0  0  0  0
   -9.3336   -1.3396    7.6985 C   0  0  0  0  0  0  0  0  0  0  0  0
   -9.6040   -1.3319    8.9335 O   0  0  0  0  0  0  0  0  0  0  0  0
  -10.2612   -1.6419    6.6309 C   0  0  0  0  0  0  0  0  0  0  0  0
  -11.6219   -1.9505    6.7280 C   0  0  0  0  0  0  0  0  0  0  0  0
  -12.3573   -2.0996    5.5397 C   0  0  0  0  0  0  0  0  0  0  0  0
  -11.7425   -1.9026    4.2910 C   0  0  0  0  0  0  0  0  0  0  0  0
  -12.6675   -2.0358    2.8078 Cl  0  0  0  0  0  0  0  0  0  0  0  0
  -10.3815   -1.5749    4.2276 C   0  0  0  0  0  0  0  0  0  0  0  0
   -9.6327   -1.4836    5.4182 C   0  0  0  0  0  0  0  0  0  0  0  0
   -8.1962   -1.1943    5.6180 C   0  0  0  0  0  0  0  0  0  0  0  0
   -7.2141   -1.5632    4.7644 C   0  0  0  0  0  0  0  0  0  0  0  0
   -5.8028   -1.5349    5.0865 C   0  0  0  0  0  0  0  0  0  0  0  0
   -4.6748   -1.4726    5.2601 N   0  0  0  0  0  0  0  0  0  0  0  0
   -7.4934   -2.1281    3.4837 C   0  0  0  0  0  0  0  0  0  0  0  0
   -7.7035   -2.5889    2.4281 N   0  0  0  0  0  0  0  0  0  0  0  0
   -6.0774    0.6143    7.1629 C   0  0  0  0  0  0  0  0  0  0  0  0
   -4.6924    0.6568    7.4147 C   0  0  0  0  0  0  0  0  0  0  0  0
   -3.9774   -0.2193    8.3457 N   0  0  0  0  0  0  0  0  0  0  0  0
   -2.5524   -0.2615    8.4270 C   0  0  0  0  0  0  0  0  0  0  0  0
   -1.7877   -0.7845    7.3571 C   0  0  0  0  0  0  0  0  0  0  0  0
   -0.4041   -0.8097    7.4297 C   0  0  0  0  0  0  0  0  0  0  0  0
    0.2560   -0.3688    8.5968 C   0  0  0  0  0  0  0  0  0  0  0  0
    1.7534   -0.3720    8.6403 C   0  0  0  0  0  0  0  0  0  0  0  0
   -0.5039    0.0322    9.6959 C   0  0  0  0  0  0  0  0  0  0  0  0
   -1.8952    0.0954    9.6143 C   0  0  0  0  0  0  0  0  0  0  0  0
   -4.6405   -1.1813    9.1623 C   0  0  0  0  0  0  0  0  0  0  0  0
   -4.4304   -2.5409    8.8946 C   0  0  0  0  0  0  0  0  0  0  0  0
   -4.8693   -3.5239    9.8042 C   0  0  0  0  0  0  0  0  0  0  0  0
   -5.5210   -3.1365   10.9799 C   0  0  0  0  0  0  0  0  0  0  0  0
   -5.8809   -4.1760   12.0016 C   0  0  0  0  0  0  0  0  0  0  0  0
   -5.7283   -1.7762   11.2524 C   0  0  0  0  0  0  0  0  0  0  0  0
   -5.2647   -0.8070   10.3577 C   0  0  0  0  0  0  0  0  0  0  0  0
   -4.0481    1.5286    6.4841 C   0  0  0  0  0  0  0  0  0  0  0  0
   -2.4782    1.8223    6.0281 S   0  0  0  0  0  0  0  0  0  0  0  0
   -2.7915    2.6874    4.5871 C   0  0  0  0  0  0  0  0  0  0  0  0
   -4.2142    2.8009    4.4839 C   0  0  0  0  0  0  0  0  0  0  0  0
   -4.9460    3.4872    3.4282 N   0  0  0  0  0  0  0  0  0  0  0  0
   -6.3763    3.4303    3.3911 C   0  0  0  0  0  0  0  0  0  0  0  0
   -7.0344    2.2551    2.9730 C   0  0  0  0  0  0  0  0  0  0  0  0
   -8.4204    2.1778    3.0356 C   0  0  0  0  0  0  0  0  0  0  0  0
   -9.1776    3.2870    3.4496 C   0  0  0  0  0  0  0  0  0  0  0  0
  -10.6658    3.1647    3.6015 C   0  0  0  0  0  0  0  0  0  0  0  0
   -8.5266    4.4711    3.7994 C   0  0  0  0  0  0  0  0  0  0  0  0
   -7.1270    4.5514    3.7663 C   0  0  0  0  0  0  0  0  0  0  0  0
   -4.3381    4.3756    2.4795 C   0  0  0  0  0  0  0  0  0  0  0  0
   -3.4569    5.3905    2.8680 C   0  0  0  0  0  0  0  0  0  0  0  0
   -2.9624    6.2864    1.9167 C   0  0  0  0  0  0  0  0  0  0  0  0
   -3.3724    6.1997    0.5773 C   0  0  0  0  0  0  0  0  0  0  0  0
   -2.8850    7.1717   -0.4437 C   0  0  0  0  0  0  0  0  0  0  0  0
   -4.2943    5.2201    0.2025 C   0  0  0  0  0  0  0  0  0  0  0  0
   -4.7707    4.3164    1.1435 C   0  0  0  0  0  0  0  0  0  0  0  0
   -4.8565    2.1389    5.5718 C   0  0  0  0  0  0  0  0  0  0  0  0
   -6.4274    1.6733    5.8877 S   0  0  0  0  0  0  0  0  0  0  0  0
   -1.7021    2.8888    3.5882 C   0  0  0  0  0  0  0  0  0  0  0  0
   -0.3231    2.8936    3.9223 C   0  0  0  0  0  0  0  0  0  0  0  0
    0.1730    3.7303    5.0440 C   0  0  0  0  0  0  0  0  0  0  0  0
    0.2851    5.1148    4.8298 C   0  0  0  0  0  0  0  0  0  0  0  0
    0.6646    5.9541    5.8763 C   0  0  0  0  0  0  0  0  0  0  0  0
    0.9060    5.4296    7.1435 C   0  0  0  0  0  0  0  0  0  0  0  0
    0.7941    4.0474    7.3703 C   0  0  0  0  0  0  0  0  0  0  0  0
    0.8817    3.5262    8.7700 C   0  0  0  0  0  0  0  0  0  0  0  0
   -0.5277    3.3835    9.3558 C   0  0  0  0  0  0  0  0  0  0  0  0
    0.4526    3.1929    6.3229 C   0  0  0  0  0  0  0  0  0  0  0  0
    0.4921    2.6096    2.8007 C   0  0  0  0  0  0  0  0  0  0  0  0
    2.0896    2.0320    2.6629 S   0  0  0  0  0  0  0  0  0  0  0  0
    1.9209    1.8194    1.0071 C   0  0  0  0  0  0  0  0  0  0  0  0
    2.5085    1.0947    0.0112 C   0  0  0  0  0  0  0  0  0  0  0  0
    3.5255    0.1093    0.0608 C   0  0  0  0  0  0  0  0  0  0  0  0
    3.6631   -0.7964   -1.0709 C   0  0  0  0  0  0  0  0  0  0  0  0
    4.6791   -1.7067   -1.0140 N   0  0  0  0  0  0  0  0  0  0  0  0
    5.2349   -1.3717    0.5183 S   0  0  0  0  0  0  0  0  0  0  0  0
    4.2991   -0.1321    1.1229 N   0  0  0  0  0  0  0  0  0  0  0  0
    2.8999   -0.5738   -2.2040 C   0  0  0  0  0  0  0  0  0  0  0  0
    2.9224   -1.1230   -3.4755 C   0  0  0  0  0  0  0  0  0  0  0  0
    3.5346   -2.4573   -4.2930 S   0  0  0  0  0  0  0  0  0  0  0  0
    2.8922   -1.8212   -5.8087 C   0  0  0  0  0  0  0  0  0  0  0  0
    3.5351   -2.0781   -7.0334 C   0  0  0  0  0  0  0  0  0  0  0  0
    2.7440   -2.8922   -8.0263 C   0  0  0  0  0  0  0  0  0  0  0  0
    3.3725   -3.9613   -8.7000 C   0  0  0  0  0  0  0  0  0  0  0  0
    2.6855   -4.6944   -9.6558 C   0  0  0  0  0  0  0  0  0  0  0  0
    1.4004   -4.3202  -10.0270 C   0  0  0  0  0  0  0  0  0  0  0  0
    0.7133   -3.3334   -9.3342 C   0  0  0  0  0  0  0  0  0  0  0  0
   -0.6973   -2.9939   -9.7409 C   0  0  0  0  0  0  0  0  0  0  0  0
   -0.7188   -2.0198  -10.9128 C   0  0  0  0  0  0  0  0  0  0  0  0
    1.3982   -2.5996   -8.3318 C   0  0  0  0  0  0  0  0  0  0  0  0
    4.1540   -0.9376   -7.5662 C   0  0  0  0  0  0  0  0  0  0  0  0
    3.5013    0.4093   -6.7419 S   0  0  0  0  0  0  0  0  0  0  0  0
    2.5244   -0.5159   -5.6566 C   0  0  0  0  0  0  0  0  0  0  0  0
    2.3088   -0.2374   -4.2866 C   0  0  0  0  0  0  0  0  0  0  0  0
    1.7513    0.7859   -3.5776 N   0  0  0  0  0  0  0  0  0  0  0  0
    1.9657    0.4769   -2.2712 C   0  0  0  0  0  0  0  0  0  0  0  0
    1.6498    1.2131   -1.0904 C   0  0  0  0  0  0  0  0  0  0  0  0
    0.4817    1.8075   -0.7313 N   0  0  0  0  0  0  0  0  0  0  0  0
    0.6820    2.1768    0.5552 C   0  0  0  0  0  0  0  0  0  0  0  0
   -0.1613    2.5170    1.6130 C   0  0  0  0  0  0  0  0  0  0  0  0
   -1.8139    2.5995    1.8915 S   0  0  0  0  0  0  0  0  0  0  0  0
   -0.8483    1.4388   -1.2527 C   0  0  0  0  0  0  0  0  0  0  0  0
   -1.2894    0.0968   -0.6287 C   0  0  0  0  0  0  0  0  0  0  0  0
    1.1100    1.9734   -4.1309 C   0  0  0  0  0  0  0  0  0  0  0  0
    2.0794    3.0112   -4.6742 C   0  0  0  0  0  0  0  0  0  0  0  0
    5.4205   -0.8865   -8.3479 C   0  0  0  0  0  0  0  0  0  0  0  0
    5.5601    0.0060   -9.4210 C   0  0  0  0  0  0  0  0  0  0  0  0
    6.7735    0.1375  -10.1476 C   0  0  0  0  0  0  0  0  0  0  0  0
    6.8818    0.9582  -11.2972 O   0  0  0  0  0  0  0  0  0  0  0  0
    5.7964    1.5254  -12.0086 C   0  0  0  0  0  0  0  0  0  0  0  0
    5.4160    2.8913  -11.4272 C   0  0  0  0  0  0  0  0  0  0  0  0
    7.8779   -0.6447   -9.7679 C   0  0  0  0  0  0  0  0  0  0  0  0
    7.7733   -1.4930   -8.6389 C   0  0  0  0  0  0  0  0  0  0  0  0
    6.5447   -1.6695   -7.9785 C   0  0  0  0  0  0  0  0  0  0  0  0
    6.4996   -2.5921   -6.9150 O   0  0  0  0  0  0  0  0  0  0  0  0
    6.9559   -3.9397   -7.0178 C   0  0  0  0  0  0  0  0  0  0  0  0
    7.3172   -4.4981   -5.6491 C   0  0  0  0  0  0  0  0  0  0  0  0
    9.0177   -0.8674  -10.7049 C   0  0  0  0  0  0  0  0  0  0  0  0
   10.2339   -1.1557  -10.2699 C   0  0  0  0  0  0  0  0  0  0  0  0
   11.2766   -1.9533  -10.9298 C   0  0  0  0  0  0  0  0  0  0  0  0
   11.2047   -2.5500  -12.0681 O   0  0  0  0  0  0  0  0  0  0  0  0
   12.4216   -2.0258  -10.0263 C   0  0  0  0  0  0  0  0  0  0  0  0
   13.6179   -2.7548  -10.0988 C   0  0  0  0  0  0  0  0  0  0  0  0
   14.5495   -2.6237   -9.0468 C   0  0  0  0  0  0  0  0  0  0  0  0
   14.3123   -1.7492   -7.9781 C   0  0  0  0  0  0  0  0  0  0  0  0
   15.4711   -1.5710   -6.7033 Cl  0  0  0  0  0  0  0  0  0  0  0  0
   13.0887   -1.0405   -7.9088 C   0  0  0  0  0  0  0  0  0  0  0  0
   12.1752   -1.1840   -8.9713 C   0  0  0  0  0  0  0  0  0  0  0  0
   10.9584   -0.3591   -9.2192 C   0  0  0  0  0  0  0  0  0  0  0  0
   11.0856    0.9591   -9.4720 C   0  0  0  0  0  0  0  0  0  0  0  0
    9.9550    1.7635   -9.8749 C   0  0  0  0  0  0  0  0  0  0  0  0
    9.0990    2.4426  -10.2843 N   0  0  0  0  0  0  0  0  0  0  0  0
   12.3687    1.5330   -9.7605 C   0  0  0  0  0  0  0  0  0  0  0  0
   13.3789    1.9990  -10.1367 N   0  0  0  0  0  0  0  0  0  0  0  0
   -7.2679   -0.0975    8.8424 H   0  0  0  0  0  0  0  0  0  0  0  0
  -12.1116   -2.0874    7.6731 H   0  0  0  0  0  0  0  0  0  0  0  0
  -13.4132   -2.3630    5.5711 H   0  0  0  0  0  0  0  0  0  0  0  0
   -9.9233   -1.3574    3.2715 H   0  0  0  0  0  0  0  0  0  0  0  0
   -2.2839   -1.1164    6.4579 H   0  0  0  0  0  0  0  0  0  0  0  0
    0.1678   -1.1466    6.5769 H   0  0  0  0  0  0  0  0  0  0  0  0
    2.1232    0.0877    9.5793 H   0  0  0  0  0  0  0  0  0  0  0  0
    2.1426    0.2103    7.7868 H   0  0  0  0  0  0  0  0  0  0  0  0
    2.1253   -1.4094    8.5729 H   0  0  0  0  0  0  0  0  0  0  0  0
   -0.0219    0.3411   10.6129 H   0  0  0  0  0  0  0  0  0  0  0  0
   -2.4778    0.4332   10.4645 H   0  0  0  0  0  0  0  0  0  0  0  0
   -3.8759   -2.8460    8.0137 H   0  0  0  0  0  0  0  0  0  0  0  0
   -4.6492   -4.5571    9.5994 H   0  0  0  0  0  0  0  0  0  0  0  0
   -5.0285   -4.3016   12.6973 H   0  0  0  0  0  0  0  0  0  0  0  0
   -6.7791   -3.8662   12.5668 H   0  0  0  0  0  0  0  0  0  0  0  0
   -6.0914   -5.1476   11.5070 H   0  0  0  0  0  0  0  0  0  0  0  0
   -6.1777   -1.4684   12.1792 H   0  0  0  0  0  0  0  0  0  0  0  0
   -5.3797    0.2408   10.5947 H   0  0  0  0  0  0  0  0  0  0  0  0
   -6.4549    1.3845    2.6958 H   0  0  0  0  0  0  0  0  0  0  0  0
   -8.9126    1.2498    2.7933 H   0  0  0  0  0  0  0  0  0  0  0  0
  -10.8861    2.7093    4.5826 H   0  0  0  0  0  0  0  0  0  0  0  0
  -11.0828    2.5240    2.8015 H   0  0  0  0  0  0  0  0  0  0  0  0
  -11.1523    4.1595    3.5447 H   0  0  0  0  0  0  0  0  0  0  0  0
   -9.0868    5.3374    4.1323 H   0  0  0  0  0  0  0  0  0  0  0  0
   -6.6294    5.4626    4.0591 H   0  0  0  0  0  0  0  0  0  0  0  0
   -3.1269    5.4768    3.8987 H   0  0  0  0  0  0  0  0  0  0  0  0
   -2.2660    7.0668    2.2205 H   0  0  0  0  0  0  0  0  0  0  0  0
   -1.8459    7.4849   -0.2203 H   0  0  0  0  0  0  0  0  0  0  0  0
   -3.5535    8.0607   -0.4541 H   0  0  0  0  0  0  0  0  0  0  0  0
   -2.9084    6.7069   -1.4604 H   0  0  0  0  0  0  0  0  0  0  0  0
   -4.6518    5.1461   -0.8161 H   0  0  0  0  0  0  0  0  0  0  0  0
   -5.4816    3.5533    0.8467 H   0  0  0  0  0  0  0  0  0  0  0  0
    0.0544    5.5401    3.8582 H   0  0  0  0  0  0  0  0  0  0  0  0
    0.7219    7.0279    5.7082 H   0  0  0  0  0  0  0  0  0  0  0  0
    1.1510    6.1051    7.9480 H   0  0  0  0  0  0  0  0  0  0  0  0
    1.4621    4.2176    9.4137 H   0  0  0  0  0  0  0  0  0  0  0  0
    1.3905    2.5475    8.7921 H   0  0  0  0  0  0  0  0  0  0  0  0
   -1.0960    2.6322    8.7683 H   0  0  0  0  0  0  0  0  0  0  0  0
   -1.0717    4.3482    9.2950 H   0  0  0  0  0  0  0  0  0  0  0  0
   -0.4693    3.0805   10.4104 H   0  0  0  0  0  0  0  0  0  0  0  0
    0.3626    2.1387    6.4741 H   0  0  0  0  0  0  0  0  0  0  0  0
    4.4311   -4.1340   -8.5732 H   0  0  0  0  0  0  0  0  0  0  0  0
    3.2089   -5.4844  -10.1856 H   0  0  0  0  0  0  0  0  0  0  0  0
    0.9321   -4.8295  -10.8364 H   0  0  0  0  0  0  0  0  0  0  0  0
   -1.2110   -3.9251  -10.0284 H   0  0  0  0  0  0  0  0  0  0  0  0
   -1.2418   -2.5584   -8.8838 H   0  0  0  0  0  0  0  0  0  0  0  0
   -1.7802   -1.8225  -11.1909 H   0  0  0  0  0  0  0  0  0  0  0  0
   -0.1886   -2.4290  -11.7919 H   0  0  0  0  0  0  0  0  0  0  0  0
   -0.2552   -1.0729  -10.5891 H   0  0  0  0  0  0  0  0  0  0  0  0
    0.9449   -1.7216   -7.8899 H   0  0  0  0  0  0  0  0  0  0  0  0
   -0.8410    1.2937   -2.3547 H   0  0  0  0  0  0  0  0  0  0  0  0
   -1.5749    2.2275   -1.0008 H   0  0  0  0  0  0  0  0  0  0  0  0
   -2.3062   -0.1677   -0.9916 H   0  0  0  0  0  0  0  0  0  0  0  0
   -1.3118    0.1516    0.4809 H   0  0  0  0  0  0  0  0  0  0  0  0
   -0.5904   -0.7049   -0.9524 H   0  0  0  0  0  0  0  0  0  0  0  0
    0.3984    1.6693   -4.9333 H   0  0  0  0  0  0  0  0  0  0  0  0
    0.5496    2.4936   -3.3389 H   0  0  0  0  0  0  0  0  0  0  0  0
    2.6739    3.4245   -3.8282 H   0  0  0  0  0  0  0  0  0  0  0  0
    1.4795    3.8162   -5.2012 H   0  0  0  0  0  0  0  0  0  0  0  0
    2.7410    2.5814   -5.4352 H   0  0  0  0  0  0  0  0  0  0  0  0
    4.7257    0.6648   -9.6785 H   0  0  0  0  0  0  0  0  0  0  0  0
    6.1031    1.6537  -13.0597 H   0  0  0  0  0  0  0  0  0  0  0  0
    4.9465    0.8108  -12.0375 H   0  0  0  0  0  0  0  0  0  0  0  0
    5.0314    2.7846  -10.3899 H   0  0  0  0  0  0  0  0  0  0  0  0
    6.3215    3.5137  -11.3967 H   0  0  0  0  0  0  0  0  0  0  0  0
    4.6419    3.3656  -12.0701 H   0  0  0  0  0  0  0  0  0  0  0  0
    8.5957   -2.1648   -8.3751 H   0  0  0  0  0  0  0  0  0  0  0  0
    6.1479   -4.5827   -7.4466 H   0  0  0  0  0  0  0  0  0  0  0  0
    7.7851   -4.0646   -7.7362 H   0  0  0  0  0  0  0  0  0  0  0  0
    6.3899   -4.8202   -5.1541 H   0  0  0  0  0  0  0  0  0  0  0  0
    7.8122   -3.7007   -5.0539 H   0  0  0  0  0  0  0  0  0  0  0  0
    7.9335   -5.4233   -5.7814 H   0  0  0  0  0  0  0  0  0  0  0  0
    8.7900   -0.9612  -11.7453 H   0  0  0  0  0  0  0  0  0  0  0  0
   13.8248   -3.4134  -10.9357 H   0  0  0  0  0  0  0  0  0  0  0  0
   15.4820   -3.1635   -9.0957 H   0  0  0  0  0  0  0  0  0  0  0  0
   12.8603   -0.3539   -7.1013 H   0  0  0  0  0  0  0  0  0  0  0  0
  1  2  2  3
  2  3  1  0
  3  4  2  0
  3  5  1  0
  5  6  2  0
  6  7  1  0
  7  8  2  0
  8  9  1  0
  8 10  1  0
 10 11  2  0
 11 12  1  0
 12 13  2  3
 13 14  1  0
 14 15  3  0
 13 16  1  0
 16 17  3  0
  1 18  1  0
 18 19  2  0
 19 20  1  0
 20 21  1  0
 21 22  2  0
 22 23  1  0
 23 24  2  0
 24 25  1  0
 24 26  1  0
 26 27  2  0
 20 28  1  0
 28 29  2  0
 29 30  1  0
 30 31  2  0
 31 32  1  0
 31 33  1  0
 33 34  2  0
 19 35  1  0
 35 36  1  0
 36 37  1  0
 37 38  2  0
 38 39  1  0
 39 40  1  0
 40 41  2  0
 41 42  1  0
 42 43  2  0
 43 44  1  0
 43 45  1  0
 45 46  2  0
 39 47  1  0
 47 48  2  0
 48 49  1  0
 49 50  2  0
 50 51  1  0
 50 52  1  0
 52 53  2  0
 38 54  1  0
 54 55  1  0
 37 56  1  0
 56 57  2  0
 57 58  1  0
 58 59  2  0
 59 60  1  0
 60 61  2  0
 61 62  1  0
 62 63  1  0
 63 64  1  0
 62 65  2  0
 57 66  1  0
 66 67  1  0
 67 68  1  0
 68 69  1  0
 69 70  1  0
 70 71  1  0
 71 72  2  0
 72 73  1  0
 73 74  1  0
 71 75  1  0
 75 76  1  0
 76 77  1  0
 77 78  1  0
 78 79  1  0
 79 80  1  0
 80 81  2  0
 81 82  1  0
 82 83  2  0
 83 84  1  0
 84 85  1  0
 85 86  1  0
 84 87  2  0
 79 88  2  0
 88 89  1  0
 89 90  1  0
 90 91  1  0
 91 92  1  0
 92 93  1  0
 93 94  1  0
 94 95  1  0
 95 96  1  0
 96 97  1  0
 97 98  1  0
 95 99  1  0
 99100  1  0
 92101  1  0
101102  1  0
 88103  1  0
103104  2  0
104105  1  0
105106  1  0
106107  1  0
107108  1  0
105109  2  0
109110  1  0
110111  2  0
111112  1  0
112113  1  0
113114  1  0
109115  1  0
115116  2  3
116117  1  0
117118  2  0
117119  1  0
119120  2  0
120121  1  0
121122  2  0
122123  1  0
122124  1  0
124125  2  0
125126  1  0
126127  2  3
127128  1  0
128129  3  0
127130  1  0
130131  3  0
 12  2  1  0
 55 18  1  0
 98 56  1  0
111103  1  0
126116  1  0
 11  5  1  0
 27 21  1  0
 34 28  1  0
 54 35  2  0
 65 58  1  0
 97 66  2  0
125119  1  0
 46 40  1  0
 53 47  1  0
 96 68  2  0
 94 69  2  0
 74 70  2  0
 93 75  2  0
 91 76  2  0
 90 78  2  0
 87 80  1  0
  1132  1  0
  6133  1  0
  7134  1  0
 10135  1  0
 22136  1  0
 23137  1  0
 25138  1  0
 25139  1  0
 25140  1  0
 26141  1  0
 27142  1  0
 29143  1  0
 30144  1  0
 32145  1  0
 32146  1  0
 32147  1  0
 33148  1  0
 34149  1  0
 41150  1  0
 42151  1  0
 44152  1  0
 44153  1  0
 44154  1  0
 45155  1  0
 46156  1  0
 48157  1  0
 49158  1  0
 51159  1  0
 51160  1  0
 51161  1  0
 52162  1  0
 53163  1  0
 59164  1  0
 60165  1  0
 61166  1  0
 63167  1  0
 63168  1  0
 64169  1  0
 64170  1  0
 64171  1  0
 65172  1  0
 81173  1  0
 82174  1  0
 83175  1  0
 85176  1  0
 85177  1  0
 86178  1  0
 86179  1  0
 86180  1  0
 87181  1  0
 99182  1  0
 99183  1  0
100184  1  0
100185  1  0
100186  1  0
101187  1  0
101188  1  0
102189  1  0
102190  1  0
102191  1  0
104192  1  0
107193  1  0
107194  1  0
108195  1  0
108196  1  0
108197  1  0
110198  1  0
113199  1  0
113200  1  0
114201  1  0
114202  1  0
114203  1  0
115204  1  0
120205  1  0
121206  1  0
124207  1  0
M  END

