
     RDKit          3D

211231  0  0  0  0  0  0  0  0999 V2000
   -6.1080    6.3488    0.1747 C   0  0  0  0  0  0  0  0  0  0  0  0
   -6.9153    5.2744    0.0929 C   0  0  0  0  0  0  0  0  0  0  0  0
   -6.4943    3.9068   -0.2451 C   0  0  0  0  0  0  0  0  0  0  0  0
   -5.3128    3.4729   -0.2875 O   0  0  0  0  0  0  0  0  0  0  0  0
   -7.6748    3.1102   -0.4841 C   0  0  0  0  0  0  0  0  0  0  0  0
   -7.7452    1.7786   -0.8934 C   0  0  0  0  0  0  0  0  0  0  0  0
   -9.0065    1.2126   -1.1097 C   0  0  0  0  0  0  0  0  0  0  0  0
  -10.1690    1.9840   -0.9330 C   0  0  0  0  0  0  0  0  0  0  0  0
  -11.7405    1.2686   -1.2378 Cl  0  0  0  0  0  0  0  0  0  0  0  0
  -10.0748    3.3249   -0.5215 C   0  0  0  0  0  0  0  0  0  0  0  0
   -8.8068    3.8792   -0.2698 C   0  0  0  0  0  0  0  0  0  0  0  0
   -8.4108    5.2401    0.2060 C   0  0  0  0  0  0  0  0  0  0  0  0
   -9.2164    6.1603    0.7956 C   0  0  0  0  0  0  0  0  0  0  0  0
  -10.6361    5.9784    0.9362 C   0  0  0  0  0  0  0  0  0  0  0  0
  -11.7788    5.8534    1.0611 N   0  0  0  0  0  0  0  0  0  0  0  0
   -8.7132    7.3398    1.4472 C   0  0  0  0  0  0  0  0  0  0  0  0
   -8.3230    8.2883    1.9813 N   0  0  0  0  0  0  0  0  0  0  0  0
   -4.6500    6.2792    0.0157 C   0  0  0  0  0  0  0  0  0  0  0  0
   -3.7024    6.4998    1.0325 C   0  0  0  0  0  0  0  0  0  0  0  0
   -4.0269    6.6400    2.4276 N   0  0  0  0  0  0  0  0  0  0  0  0
   -3.3616    7.6292    3.2419 C   0  0  0  0  0  0  0  0  0  0  0  0
   -3.0028    7.3329    4.5711 C   0  0  0  0  0  0  0  0  0  0  0  0
   -2.3750    8.2942    5.3654 C   0  0  0  0  0  0  0  0  0  0  0  0
   -2.0836    9.5639    4.8437 C   0  0  0  0  0  0  0  0  0  0  0  0
   -1.4559   10.6178    5.7061 C   0  0  0  0  0  0  0  0  0  0  0  0
   -2.4426    9.8638    3.5194 C   0  0  0  0  0  0  0  0  0  0  0  0
   -3.0704    8.9031    2.7232 C   0  0  0  0  0  0  0  0  0  0  0  0
   -5.0090    5.7607    3.0071 C   0  0  0  0  0  0  0  0  0  0  0  0
   -4.9219    4.3751    2.7993 C   0  0  0  0  0  0  0  0  0  0  0  0
   -5.9322    3.5272    3.2603 C   0  0  0  0  0  0  0  0  0  0  0  0
   -7.0444    4.0545    3.9332 C   0  0  0  0  0  0  0  0  0  0  0  0
   -8.1243    3.1354    4.4231 C   0  0  0  0  0  0  0  0  0  0  0  0
   -7.1089    5.4349    4.1833 C   0  0  0  0  0  0  0  0  0  0  0  0
   -6.0972    6.2833    3.7208 C   0  0  0  0  0  0  0  0  0  0  0  0
   -2.4058    6.3689    0.5369 C   0  0  0  0  0  0  0  0  0  0  0  0
   -0.8915    6.2437    1.2443 S   0  0  0  0  0  0  0  0  0  0  0  0
   -0.1007    5.8145   -0.2076 C   0  0  0  0  0  0  0  0  0  0  0  0
   -1.0512    5.7246   -1.2435 C   0  0  0  0  0  0  0  0  0  0  0  0
   -0.8259    5.0924   -2.5184 N   0  0  0  0  0  0  0  0  0  0  0  0
   -0.9694    5.8430   -3.7536 C   0  0  0  0  0  0  0  0  0  0  0  0
   -1.3139    7.2116   -3.7414 C   0  0  0  0  0  0  0  0  0  0  0  0
   -1.4300    7.9317   -4.9330 C   0  0  0  0  0  0  0  0  0  0  0  0
   -1.1800    7.3097   -6.1616 C   0  0  0  0  0  0  0  0  0  0  0  0
   -1.3133    8.0840   -7.4367 C   0  0  0  0  0  0  0  0  0  0  0  0
   -0.8552    5.9461   -6.1891 C   0  0  0  0  0  0  0  0  0  0  0  0
   -0.7407    5.2231   -4.9993 C   0  0  0  0  0  0  0  0  0  0  0  0
   -0.8755    3.6550   -2.5423 C   0  0  0  0  0  0  0  0  0  0  0  0
    0.3009    2.8929   -2.4857 C   0  0  0  0  0  0  0  0  0  0  0  0
    0.2428    1.4964   -2.4918 C   0  0  0  0  0  0  0  0  0  0  0  0
   -0.9964    0.8418   -2.5856 C   0  0  0  0  0  0  0  0  0  0  0  0
   -1.0691   -0.6561   -2.5476 C   0  0  0  0  0  0  0  0  0  0  0  0
   -2.1731    1.6022   -2.6538 C   0  0  0  0  0  0  0  0  0  0  0  0
   -2.1115    2.9975   -2.6436 C   0  0  0  0  0  0  0  0  0  0  0  0
   -2.3225    6.0600   -0.7838 C   0  0  0  0  0  0  0  0  0  0  0  0
   -3.8584    5.9500   -1.4537 S   0  0  0  0  0  0  0  0  0  0  0  0
    1.3044    5.3836   -0.2736 C   0  0  0  0  0  0  0  0  0  0  0  0
    2.2091    5.6317   -1.3255 C   0  0  0  0  0  0  0  0  0  0  0  0
    2.0232    6.6495   -2.3835 C   0  0  0  0  0  0  0  0  0  0  0  0
    1.6149    7.9463   -2.0323 C   0  0  0  0  0  0  0  0  0  0  0  0
    1.5072    8.9410   -3.0064 C   0  0  0  0  0  0  0  0  0  0  0  0
    1.7999    8.6531   -4.3402 C   0  0  0  0  0  0  0  0  0  0  0  0
    2.1813    7.3548   -4.7153 C   0  0  0  0  0  0  0  0  0  0  0  0
    2.5016    7.0443   -6.1532 C   0  0  0  0  0  0  0  0  0  0  0  0
    4.0027    7.1342   -6.4049 C   0  0  0  0  0  0  0  0  0  0  0  0
    2.3037    6.3593   -3.7299 C   0  0  0  0  0  0  0  0  0  0  0  0
    3.3465    4.8247   -1.1969 C   0  0  0  0  0  0  0  0  0  0  0  0
    4.5644    4.3702   -2.2930 S   0  0  0  0  0  0  0  0  0  0  0  0
    5.1400    3.1702   -1.2417 C   0  0  0  0  0  0  0  0  0  0  0  0
    5.7197    1.9444   -1.4255 C   0  0  0  0  0  0  0  0  0  0  0  0
    6.0846    1.3121   -2.6250 C   0  0  0  0  0  0  0  0  0  0  0  0
    6.2219   -0.1077   -2.6430 C   0  0  0  0  0  0  0  0  0  0  0  0
    6.5209   -0.6855   -3.8326 N   0  0  0  0  0  0  0  0  0  0  0  0
    6.5660    0.6655   -4.7915 S   0  0  0  0  0  0  0  0  0  0  0  0
    6.2324    1.9556   -3.8094 N   0  0  0  0  0  0  0  0  0  0  0  0
    6.0695   -0.8085   -1.4415 C   0  0  0  0  0  0  0  0  0  0  0  0
    6.1412   -2.1323   -1.1396 C   0  0  0  0  0  0  0  0  0  0  0  0
    5.8107   -3.5680   -1.9759 S   0  0  0  0  0  0  0  0  0  0  0  0
    5.4796   -4.3908   -0.5164 C   0  0  0  0  0  0  0  0  0  0  0  0
    4.7863   -5.5877   -0.2615 C   0  0  0  0  0  0  0  0  0  0  0  0
    4.2573   -6.3863   -1.3836 C   0  0  0  0  0  0  0  0  0  0  0  0
    2.8741   -6.4713   -1.6063 C   0  0  0  0  0  0  0  0  0  0  0  0
    2.3823   -7.1659   -2.7149 C   0  0  0  0  0  0  0  0  0  0  0  0
    3.2673   -7.7636   -3.6190 C   0  0  0  0  0  0  0  0  0  0  0  0
    4.6534   -7.6807   -3.4120 C   0  0  0  0  0  0  0  0  0  0  0  0
    5.6078   -8.2616   -4.4239 C   0  0  0  0  0  0  0  0  0  0  0  0
    5.9391   -7.2382   -5.5067 C   0  0  0  0  0  0  0  0  0  0  0  0
    5.1429   -6.9834   -2.2956 C   0  0  0  0  0  0  0  0  0  0  0  0
    4.4307   -5.7140    1.1179 C   0  0  0  0  0  0  0  0  0  0  0  0
    4.9038   -4.2598    1.8824 S   0  0  0  0  0  0  0  0  0  0  0  0
    5.6126   -3.5498    0.5599 C   0  0  0  0  0  0  0  0  0  0  0  0
    5.9579   -2.2499    0.2035 C   0  0  0  0  0  0  0  0  0  0  0  0
    5.7384   -1.0532    0.8160 N   0  0  0  0  0  0  0  0  0  0  0  0
    5.7576   -0.1716   -0.2359 C   0  0  0  0  0  0  0  0  0  0  0  0
    5.4432    1.2114   -0.2593 C   0  0  0  0  0  0  0  0  0  0  0  0
    4.5738    1.9061    0.5469 N   0  0  0  0  0  0  0  0  0  0  0  0
    4.4161    3.0947   -0.0903 C   0  0  0  0  0  0  0  0  0  0  0  0
    3.3775    4.0242   -0.0801 C   0  0  0  0  0  0  0  0  0  0  0  0
    1.9554    4.2202    0.7830 S   0  0  0  0  0  0  0  0  0  0  0  0
    3.6161    1.3549    1.5151 C   0  0  0  0  0  0  0  0  0  0  0  0
    2.4866    0.6043    0.8115 C   0  0  0  0  0  0  0  0  0  0  0  0
    6.2723   -0.7300    2.1484 C   0  0  0  0  0  0  0  0  0  0  0  0
    5.4481   -1.3443    3.2844 C   0  0  0  0  0  0  0  0  0  0  0  0
    3.5957   -6.7786    1.7853 C   0  0  0  0  0  0  0  0  0  0  0  0
    3.2829   -7.9788    1.1156 C   0  0  0  0  0  0  0  0  0  0  0  0
    2.2762   -8.8376    1.5914 C   0  0  0  0  0  0  0  0  0  0  0  0
    1.8686   -9.9742    0.8735 O   0  0  0  0  0  0  0  0  0  0  0  0
    2.5451  -10.5091   -0.2589 C   0  0  0  0  0  0  0  0  0  0  0  0
    1.8506  -11.7806   -0.7167 C   0  0  0  0  0  0  0  0  0  0  0  0
    1.6508   -8.5525    2.8179 C   0  0  0  0  0  0  0  0  0  0  0  0
    2.0738   -7.4576    3.5715 C   0  0  0  0  0  0  0  0  0  0  0  0
    3.0893   -6.6103    3.1044 C   0  0  0  0  0  0  0  0  0  0  0  0
    3.6158   -5.6113    3.9376 O   0  0  0  0  0  0  0  0  0  0  0  0
    3.4308   -5.5292    5.3502 C   0  0  0  0  0  0  0  0  0  0  0  0
    4.4614   -4.5825    5.9401 C   0  0  0  0  0  0  0  0  0  0  0  0
    0.4996   -9.3402    3.2989 C   0  0  0  0  0  0  0  0  0  0  0  0
    0.5638  -10.6274    3.6838 C   0  0  0  0  0  0  0  0  0  0  0  0
    1.7569  -11.4799    3.6258 C   0  0  0  0  0  0  0  0  0  0  0  0
    2.9369  -11.1053    3.3869 O   0  0  0  0  0  0  0  0  0  0  0  0
    1.3737  -12.8363    3.9448 C   0  0  0  0  0  0  0  0  0  0  0  0
    2.2118  -13.9364    4.0761 C   0  0  0  0  0  0  0  0  0  0  0  0
    1.6718  -15.1278    4.5657 C   0  0  0  0  0  0  0  0  0  0  0  0
    0.3305  -15.1752    4.9889 C   0  0  0  0  0  0  0  0  0  0  0  0
   -0.5008  -14.0344    4.8946 C   0  0  0  0  0  0  0  0  0  0  0  0
   -1.7784  -14.0045    5.4747 O   0  0  0  0  0  0  0  0  0  0  0  0
   -2.3973  -15.1095    6.1268 C   0  0  0  0  0  0  0  0  0  0  0  0
    0.0247  -12.8844    4.2611 C   0  0  0  0  0  0  0  0  0  0  0  0
   -0.5703  -11.5266    4.0816 C   0  0  0  0  0  0  0  0  0  0  0  0
   -1.8894  -11.2087    4.1141 C   0  0  0  0  0  0  0  0  0  0  0  0
   -2.3505   -9.8774    4.3999 C   0  0  0  0  0  0  0  0  0  0  0  0
   -2.7180   -8.8080    4.6587 N   0  0  0  0  0  0  0  0  0  0  0  0
   -2.9117  -12.1722    3.8164 C   0  0  0  0  0  0  0  0  0  0  0  0
   -3.7599  -12.9210    3.5489 N   0  0  0  0  0  0  0  0  0  0  0  0
   -6.4953    7.3304    0.3838 H   0  0  0  0  0  0  0  0  0  0  0  0
   -6.8480    1.1940   -1.0358 H   0  0  0  0  0  0  0  0  0  0  0  0
   -9.0836    0.1781   -1.4178 H   0  0  0  0  0  0  0  0  0  0  0  0
  -10.9806    3.8987   -0.4338 H   0  0  0  0  0  0  0  0  0  0  0  0
   -3.2072    6.3558    4.9888 H   0  0  0  0  0  0  0  0  0  0  0  0
   -2.1157    8.0467    6.3898 H   0  0  0  0  0  0  0  0  0  0  0  0
   -0.9859   10.1714    6.6084 H   0  0  0  0  0  0  0  0  0  0  0  0
   -2.2288   11.3473    6.0296 H   0  0  0  0  0  0  0  0  0  0  0  0
   -0.6655   11.1525    5.1373 H   0  0  0  0  0  0  0  0  0  0  0  0
   -2.2407   10.8466    3.1085 H   0  0  0  0  0  0  0  0  0  0  0  0
   -3.3541    9.1599    1.7093 H   0  0  0  0  0  0  0  0  0  0  0  0
   -4.0786    3.9570    2.2644 H   0  0  0  0  0  0  0  0  0  0  0  0
   -5.8564    2.4624    3.0746 H   0  0  0  0  0  0  0  0  0  0  0  0
   -9.0523    3.6961    4.6641 H   0  0  0  0  0  0  0  0  0  0  0  0
   -8.3704    2.3829    3.6444 H   0  0  0  0  0  0  0  0  0  0  0  0
   -7.7740    2.6109    5.3354 H   0  0  0  0  0  0  0  0  0  0  0  0
   -7.9477    5.8603    4.7218 H   0  0  0  0  0  0  0  0  0  0  0  0
   -6.1771    7.3504    3.8860 H   0  0  0  0  0  0  0  0  0  0  0  0
   -1.4866    7.7416   -2.8148 H   0  0  0  0  0  0  0  0  0  0  0  0
   -1.6973    8.9805   -4.8933 H   0  0  0  0  0  0  0  0  0  0  0  0
   -2.3601    8.0204   -7.7958 H   0  0  0  0  0  0  0  0  0  0  0  0
   -0.6324    7.6770   -8.2137 H   0  0  0  0  0  0  0  0  0  0  0  0
   -1.0479    9.1504   -7.2740 H   0  0  0  0  0  0  0  0  0  0  0  0
   -0.6748    5.4469   -7.1332 H   0  0  0  0  0  0  0  0  0  0  0  0
   -0.4561    4.1813   -5.0606 H   0  0  0  0  0  0  0  0  0  0  0  0
    1.2644    3.3763   -2.4514 H   0  0  0  0  0  0  0  0  0  0  0  0
    1.1616    0.9239   -2.4298 H   0  0  0  0  0  0  0  0  0  0  0  0
   -0.1286   -1.1088   -2.9301 H   0  0  0  0  0  0  0  0  0  0  0  0
   -1.9078   -1.0189   -3.1799 H   0  0  0  0  0  0  0  0  0  0  0  0
   -1.2308   -0.9930   -1.5021 H   0  0  0  0  0  0  0  0  0  0  0  0
   -3.1388    1.1139   -2.7143 H   0  0  0  0  0  0  0  0  0  0  0  0
   -3.0283    3.5646   -2.7223 H   0  0  0  0  0  0  0  0  0  0  0  0
    1.4058    8.1961   -1.0008 H   0  0  0  0  0  0  0  0  0  0  0  0
    1.1993    9.9393   -2.7242 H   0  0  0  0  0  0  0  0  0  0  0  0
    1.7171    9.4362   -5.0835 H   0  0  0  0  0  0  0  0  0  0  0  0
    2.1468    6.0226   -6.4077 H   0  0  0  0  0  0  0  0  0  0  0  0
    1.9754    7.7558   -6.8267 H   0  0  0  0  0  0  0  0  0  0  0  0
    4.3853    8.1393   -6.1274 H   0  0  0  0  0  0  0  0  0  0  0  0
    4.5388    6.3592   -5.8159 H   0  0  0  0  0  0  0  0  0  0  0  0
    4.2072    6.9653   -7.4804 H   0  0  0  0  0  0  0  0  0  0  0  0
    2.5851    5.3578   -4.0234 H   0  0  0  0  0  0  0  0  0  0  0  0
    2.1800   -5.9816   -0.9349 H   0  0  0  0  0  0  0  0  0  0  0  0
    1.3152   -7.2324   -2.8792 H   0  0  0  0  0  0  0  0  0  0  0  0
    2.8709   -8.2863   -4.4813 H   0  0  0  0  0  0  0  0  0  0  0  0
    5.1605   -9.1649   -4.8969 H   0  0  0  0  0  0  0  0  0  0  0  0
    6.5439   -8.5827   -3.9182 H   0  0  0  0  0  0  0  0  0  0  0  0
    6.7027   -7.6623   -6.1902 H   0  0  0  0  0  0  0  0  0  0  0  0
    5.0268   -6.9904   -6.0883 H   0  0  0  0  0  0  0  0  0  0  0  0
    6.3452   -6.3121   -5.0496 H   0  0  0  0  0  0  0  0  0  0  0  0
    6.2131   -6.8898   -2.1464 H   0  0  0  0  0  0  0  0  0  0  0  0
    4.1105    0.6881    2.2262 H   0  0  0  0  0  0  0  0  0  0  0  0
    3.1969    2.1691    2.1373 H   0  0  0  0  0  0  0  0  0  0  0  0
    1.9715    1.2718    0.0907 H   0  0  0  0  0  0  0  0  0  0  0  0
    2.8835   -0.2759    0.2680 H   0  0  0  0  0  0  0  0  0  0  0  0
    1.7495    0.2563    1.5650 H   0  0  0  0  0  0  0  0  0  0  0  0
    6.3224    0.3732    2.2883 H   0  0  0  0  0  0  0  0  0  0  0  0
    7.3240   -1.0884    2.2236 H   0  0  0  0  0  0  0  0  0  0  0  0
    5.4871   -0.6805    4.1745 H   0  0  0  0  0  0  0  0  0  0  0  0
    5.8789   -2.3215    3.5889 H   0  0  0  0  0  0  0  0  0  0  0  0
    4.3847   -1.4816    2.9867 H   0  0  0  0  0  0  0  0  0  0  0  0
    3.8046   -8.2444    0.2122 H   0  0  0  0  0  0  0  0  0  0  0  0
    3.5984  -10.7419    0.0083 H   0  0  0  0  0  0  0  0  0  0  0  0
    2.5379   -9.7713   -1.0903 H   0  0  0  0  0  0  0  0  0  0  0  0
    2.4127  -12.2353   -1.5597 H   0  0  0  0  0  0  0  0  0  0  0  0
    1.7921  -12.5049    0.1248 H   0  0  0  0  0  0  0  0  0  0  0  0
    0.8222  -11.5432   -1.0595 H   0  0  0  0  0  0  0  0  0  0  0  0
    1.6154   -7.2805    4.5376 H   0  0  0  0  0  0  0  0  0  0  0  0
    3.5664   -6.5320    5.8108 H   0  0  0  0  0  0  0  0  0  0  0  0
    2.4095   -5.1594    5.5766 H   0  0  0  0  0  0  0  0  0  0  0  0
    5.4870   -4.9340    5.6929 H   0  0  0  0  0  0  0  0  0  0  0  0
    4.3547   -4.5443    7.0468 H   0  0  0  0  0  0  0  0  0  0  0  0
    4.3213   -3.5620    5.5265 H   0  0  0  0  0  0  0  0  0  0  0  0
   -0.4237   -8.7940    3.3382 H   0  0  0  0  0  0  0  0  0  0  0  0
    3.2629  -13.8694    3.8341 H   0  0  0  0  0  0  0  0  0  0  0  0
    2.2977  -16.0042    4.6768 H   0  0  0  0  0  0  0  0  0  0  0  0
   -0.0346  -16.0911    5.4337 H   0  0  0  0  0  0  0  0  0  0  0  0
   -2.5155  -15.9504    5.4121 H   0  0  0  0  0  0  0  0  0  0  0  0
   -3.4035  -14.8045    6.4867 H   0  0  0  0  0  0  0  0  0  0  0  0
   -1.7921  -15.4279    7.0019 H   0  0  0  0  0  0  0  0  0  0  0  0
  1  2  2  3
  2  3  1  0
  3  4  2  0
  3  5  1  0
  5  6  2  0
  6  7  1  0
  7  8  2  0
  8  9  1  0
  8 10  1  0
 10 11  2  0
 11 12  1  0
 12 13  2  3
 13 14  1  0
 14 15  3  0
 13 16  1  0
 16 17  3  0
  1 18  1  0
 18 19  2  0
 19 20  1  0
 20 21  1  0
 21 22  2  0
 22 23  1  0
 23 24  2  0
 24 25  1  0
 24 26  1  0
 26 27  2  0
 20 28  1  0
 28 29  2  0
 29 30  1  0
 30 31  2  0
 31 32  1  0
 31 33  1  0
 33 34  2  0
 19 35  1  0
 35 36  1  0
 36 37  1  0
 37 38  2  0
 38 39  1  0
 39 40  1  0
 40 41  2  0
 41 42  1  0
 42 43  2  0
 43 44  1  0
 43 45  1  0
 45 46  2  0
 39 47  1  0
 47 48  2  0
 48 49  1  0
 49 50  2  0
 50 51  1  0
 50 52  1  0
 52 53  2  0
 38 54  1  0
 54 55  1  0
 37 56  1  0
 56 57  2  0
 57 58  1  0
 58 59  2  0
 59 60  1  0
 60 61  2  0
 61 62  1  0
 62 63  1  0
 63 64  1  0
 62 65  2  0
 57 66  1  0
 66 67  1  0
 67 68  1  0
 68 69  1  0
 69 70  1  0
 70 71  1  0
 71 72  2  0
 72 73  1  0
 73 74  1  0
 71 75  1  0
 75 76  1  0
 76 77  1  0
 77 78  1  0
 78 79  1  0
 79 80  1  0
 80 81  2  0
 81 82  1  0
 82 83  2  0
 83 84  1  0
 84 85  1  0
 85 86  1  0
 84 87  2  0
 79 88  2  0
 88 89  1  0
 89 90  1  0
 90 91  1  0
 91 92  1  0
 92 93  1  0
 93 94  1  0
 94 95  1  0
 95 96  1  0
 96 97  1  0
 97 98  1  0
 95 99  1  0
 99100  1  0
 92101  1  0
101102  1  0
 88103  1  0
103104  2  0
104105  1  0
105106  1  0
106107  1  0
107108  1  0
105109  2  0
109110  1  0
110111  2  0
111112  1  0
112113  1  0
113114  1  0
109115  1  0
115116  2  3
116117  1  0
117118  2  0
117119  1  0
119120  2  0
120121  1  0
121122  2  0
122123  1  0
123124  1  0
124125  1  0
123126  2  0
126127  1  0
127128  2  3
128129  1  0
129130  3  0
128131  1  0
131132  3  0
 12  2  1  0
 55 18  1  0
 98 56  1  0
111103  1  0
127116  1  0
 11  5  1  0
 27 21  1  0
 34 28  1  0
 54 35  2  0
 65 58  1  0
 97 66  2  0
126119  1  0
 46 40  1  0
 53 47  1  0
 96 68  2  0
 94 69  2  0
 74 70  2  0
 93 75  2  0
 91 76  2  0
 90 78  2  0
 87 80  1  0
  1133  1  0
  6134  1  0
  7135  1  0
 10136  1  0
 22137  1  0
 23138  1  0
 25139  1  0
 25140  1  0
 25141  1  0
 26142  1  0
 27143  1  0
 29144  1  0
 30145  1  0
 32146  1  0
 32147  1  0
 32148  1  0
 33149  1  0
 34150  1  0
 41151  1  0
 42152  1  0
 44153  1  0
 44154  1  0
 44155  1  0
 45156  1  0
 46157  1  0
 48158  1  0
 49159  1  0
 51160  1  0
 51161  1  0
 51162  1  0
 52163  1  0
 53164  1  0
 59165  1  0
 60166  1  0
 61167  1  0
 63168  1  0
 63169  1  0
 64170  1  0
 64171  1  0
 64172  1  0
 65173  1  0
 81174  1  0
 82175  1  0
 83176  1  0
 85177  1  0
 85178  1  0
 86179  1  0
 86180  1  0
 86181  1  0
 87182  1  0
 99183  1  0
 99184  1  0
100185  1  0
100186  1  0
100187  1  0
101188  1  0
101189  1  0
102190  1  0
102191  1  0
102192  1  0
104193  1  0
107194  1  0
107195  1  0
108196  1  0
108197  1  0
108198  1  0
110199  1  0
113200  1  0
113201  1  0
114202  1  0
114203  1  0
114204  1  0
115205  1  0
120206  1  0
121207  1  0
122208  1  0
125209  1  0
125210  1  0
125211  1  0
M  END

