
     RDKit          3D

224247  0  0  0  0  0  0  0  0999 V2000
    0.8915    1.8974    7.6720 C   0  0  0  0  0  0  0  0  0  0  0  0
    1.7900    1.6291    6.7038 C   0  0  0  0  0  0  0  0  0  0  0  0
    1.5818    0.6693    5.6108 C   0  0  0  0  0  0  0  0  0  0  0  0
    0.5321    0.0131    5.3778 O   0  0  0  0  0  0  0  0  0  0  0  0
    2.8169    0.5209    4.8886 C   0  0  0  0  0  0  0  0  0  0  0  0
    3.0762   -0.2945    3.7853 C   0  0  0  0  0  0  0  0  0  0  0  0
    4.3663   -0.3068    3.2506 C   0  0  0  0  0  0  0  0  0  0  0  0
    5.3794    0.4687    3.8372 C   0  0  0  0  0  0  0  0  0  0  0  0
    7.0041    0.4202    3.1723 Cl  0  0  0  0  0  0  0  0  0  0  0  0
    5.1062    1.2770    4.9513 C   0  0  0  0  0  0  0  0  0  0  0  0
    3.7986    1.3117    5.4676 C   0  0  0  0  0  0  0  0  0  0  0  0
    3.2087    2.1040    6.5891 C   0  0  0  0  0  0  0  0  0  0  0  0
    3.7652    3.1763    7.2146 C   0  0  0  0  0  0  0  0  0  0  0  0
    5.1358    3.5783    7.0069 C   0  0  0  0  0  0  0  0  0  0  0  0
    6.2333    3.9134    6.8443 N   0  0  0  0  0  0  0  0  0  0  0  0
    3.0045    4.0552    8.0723 C   0  0  0  0  0  0  0  0  0  0  0  0
    2.4059    4.7635    8.7645 N   0  0  0  0  0  0  0  0  0  0  0  0
   -0.5270    1.5288    7.5380 C   0  0  0  0  0  0  0  0  0  0  0  0
   -1.4261    2.1682    6.6759 C   0  0  0  0  0  0  0  0  0  0  0  0
   -1.1797    3.4424    6.0614 N   0  0  0  0  0  0  0  0  0  0  0  0
   -1.6490    4.6183    6.7475 C   0  0  0  0  0  0  0  0  0  0  0  0
   -1.3880    4.7984    8.1140 C   0  0  0  0  0  0  0  0  0  0  0  0
   -1.8999    5.9082    8.7928 C   0  0  0  0  0  0  0  0  0  0  0  0
   -2.6656    6.8638    8.1072 C   0  0  0  0  0  0  0  0  0  0  0  0
   -3.2547    8.0230    8.8538 C   0  0  0  0  0  0  0  0  0  0  0  0
   -2.9140    6.6945    6.7363 C   0  0  0  0  0  0  0  0  0  0  0  0
   -2.4047    5.5821    6.0568 C   0  0  0  0  0  0  0  0  0  0  0  0
   -0.3668    3.5422    4.8761 C   0  0  0  0  0  0  0  0  0  0  0  0
   -0.4420    2.5589    3.8753 C   0  0  0  0  0  0  0  0  0  0  0  0
    0.3828    2.6290    2.7462 C   0  0  0  0  0  0  0  0  0  0  0  0
    1.2912    3.6861    2.5990 C   0  0  0  0  0  0  0  0  0  0  0  0
    2.2151    3.7175    1.4168 C   0  0  0  0  0  0  0  0  0  0  0  0
    1.3719    4.6678    3.5983 C   0  0  0  0  0  0  0  0  0  0  0  0
    0.5428    4.6009    4.7221 C   0  0  0  0  0  0  0  0  0  0  0  0
   -2.5870    1.4215    6.5122 C   0  0  0  0  0  0  0  0  0  0  0  0
   -3.7986    1.4515    5.3546 S   0  0  0  0  0  0  0  0  0  0  0  0
   -4.4358   -0.0719    5.7730 C   0  0  0  0  0  0  0  0  0  0  0  0
   -3.6895   -0.6134    6.8380 C   0  0  0  0  0  0  0  0  0  0  0  0
   -3.9710   -1.8935    7.4406 N   0  0  0  0  0  0  0  0  0  0  0  0
   -5.3308   -2.3794    7.5148 C   0  0  0  0  0  0  0  0  0  0  0  0
   -6.3899   -1.5004    7.7986 C   0  0  0  0  0  0  0  0  0  0  0  0
   -7.7004   -1.9761    7.8938 C   0  0  0  0  0  0  0  0  0  0  0  0
   -7.9664   -3.3439    7.7460 C   0  0  0  0  0  0  0  0  0  0  0  0
   -9.3721   -3.8584    7.8488 C   0  0  0  0  0  0  0  0  0  0  0  0
   -6.9150   -4.2248    7.4498 C   0  0  0  0  0  0  0  0  0  0  0  0
   -5.6027   -3.7464    7.3427 C   0  0  0  0  0  0  0  0  0  0  0  0
   -3.0093   -2.5378    8.2901 C   0  0  0  0  0  0  0  0  0  0  0  0
   -3.1393   -2.4440    9.6817 C   0  0  0  0  0  0  0  0  0  0  0  0
   -2.2213   -3.0845   10.5197 C   0  0  0  0  0  0  0  0  0  0  0  0
   -1.1775   -3.8421    9.9683 C   0  0  0  0  0  0  0  0  0  0  0  0
   -0.1832   -4.5203   10.8596 C   0  0  0  0  0  0  0  0  0  0  0  0
   -1.0470   -3.9272    8.5702 C   0  0  0  0  0  0  0  0  0  0  0  0
   -1.9598   -3.2790    7.7324 C   0  0  0  0  0  0  0  0  0  0  0  0
   -2.6415    0.2514    7.2053 C   0  0  0  0  0  0  0  0  0  0  0  0
   -1.2081    0.0676    8.0857 S   0  0  0  0  0  0  0  0  0  0  0  0
   -5.1297   -0.8995    4.7876 C   0  0  0  0  0  0  0  0  0  0  0  0
   -6.3966   -0.6560    4.2387 C   0  0  0  0  0  0  0  0  0  0  0  0
   -6.6228   -1.4819    3.1360 C   0  0  0  0  0  0  0  0  0  0  0  0
   -7.8090   -1.4888    1.9123 S   0  0  0  0  0  0  0  0  0  0  0  0
   -6.9219   -2.6001    0.9821 C   0  0  0  0  0  0  0  0  0  0  0  0
   -6.7783   -2.7814   -0.3640 C   0  0  0  0  0  0  0  0  0  0  0  0
   -7.5019   -2.2669   -1.4463 C   0  0  0  0  0  0  0  0  0  0  0  0
   -8.7108   -1.6881   -1.4912 N   0  0  0  0  0  0  0  0  0  0  0  0
   -8.8678   -1.3382   -2.7681 N   0  0  0  0  0  0  0  0  0  0  0  0
  -10.1111   -0.7842   -3.2949 C   0  0  0  0  0  0  0  0  0  0  0  0
  -11.0631   -1.9144   -3.6616 C   0  0  0  0  0  0  0  0  0  0  0  0
   -7.8305   -1.6664   -3.5424 N   0  0  0  0  0  0  0  0  0  0  0  0
   -6.9605   -2.2436   -2.7048 C   0  0  0  0  0  0  0  0  0  0  0  0
   -5.7037   -2.7960   -2.9426 C   0  0  0  0  0  0  0  0  0  0  0  0
   -4.8794   -2.8766   -4.0404 C   0  0  0  0  0  0  0  0  0  0  0  0
   -4.6421   -2.0118   -5.4845 S   0  0  0  0  0  0  0  0  0  0  0  0
   -3.0277   -2.5654   -5.5897 C   0  0  0  0  0  0  0  0  0  0  0  0
   -1.9367   -2.0827   -6.3123 C   0  0  0  0  0  0  0  0  0  0  0  0
   -0.7282   -2.5602   -5.7708 C   0  0  0  0  0  0  0  0  0  0  0  0
   -1.0503   -3.5162   -4.3935 S   0  0  0  0  0  0  0  0  0  0  0  0
   -2.7056   -3.3675   -4.5276 C   0  0  0  0  0  0  0  0  0  0  0  0
   -3.7465   -3.5179   -3.6345 C   0  0  0  0  0  0  0  0  0  0  0  0
   -3.7718   -3.8451   -2.3277 N   0  0  0  0  0  0  0  0  0  0  0  0
   -2.8843   -4.8112   -1.6629 C   0  0  0  0  0  0  0  0  0  0  0  0
   -2.8886   -6.1554   -2.3959 C   0  0  0  0  0  0  0  0  0  0  0  0
   -4.9603   -3.3450   -1.8823 C   0  0  0  0  0  0  0  0  0  0  0  0
   -5.4628   -3.2330   -0.5558 C   0  0  0  0  0  0  0  0  0  0  0  0
   -4.7395   -3.1326    0.6053 N   0  0  0  0  0  0  0  0  0  0  0  0
   -5.7011   -2.8812    1.5440 C   0  0  0  0  0  0  0  0  0  0  0  0
   -5.5735   -2.2867    2.7969 C   0  0  0  0  0  0  0  0  0  0  0  0
   -4.3134   -2.0717    3.8743 S   0  0  0  0  0  0  0  0  0  0  0  0
   -3.4136   -2.4968    0.6757 C   0  0  0  0  0  0  0  0  0  0  0  0
   -3.5041   -0.9726    0.5162 C   0  0  0  0  0  0  0  0  0  0  0  0
    0.6023   -2.0009   -6.0603 C   0  0  0  0  0  0  0  0  0  0  0  0
    1.8244   -2.5268   -5.5922 C   0  0  0  0  0  0  0  0  0  0  0  0
    2.0418   -3.9240   -5.3071 N   0  0  0  0  0  0  0  0  0  0  0  0
    1.6530   -4.8914   -6.3028 C   0  0  0  0  0  0  0  0  0  0  0  0
    1.8947   -4.6407   -7.6655 C   0  0  0  0  0  0  0  0  0  0  0  0
    1.4965   -5.5676   -8.6333 C   0  0  0  0  0  0  0  0  0  0  0  0
    0.8619   -6.7581   -8.2499 C   0  0  0  0  0  0  0  0  0  0  0  0
    0.4602   -7.7650   -9.2855 C   0  0  0  0  0  0  0  0  0  0  0  0
    0.6604   -7.0296   -6.8887 C   0  0  0  0  0  0  0  0  0  0  0  0
    1.0505   -6.0988   -5.9219 C   0  0  0  0  0  0  0  0  0  0  0  0
    2.8637   -4.3237   -4.1945 C   0  0  0  0  0  0  0  0  0  0  0  0
    3.8839   -5.2846   -4.3583 C   0  0  0  0  0  0  0  0  0  0  0  0
    4.6678   -5.6790   -3.2714 C   0  0  0  0  0  0  0  0  0  0  0  0
    4.4407   -5.1296   -2.0019 C   0  0  0  0  0  0  0  0  0  0  0  0
    5.3134   -5.5324   -0.8519 C   0  0  0  0  0  0  0  0  0  0  0  0
    3.4491   -4.1485   -1.8402 C   0  0  0  0  0  0  0  0  0  0  0  0
    2.6646   -3.7512   -2.9284 C   0  0  0  0  0  0  0  0  0  0  0  0
    2.8532   -1.5974   -5.7416 C   0  0  0  0  0  0  0  0  0  0  0  0
    4.4671   -1.5779   -5.3385 S   0  0  0  0  0  0  0  0  0  0  0  0
    4.7710   -0.0166   -5.9769 C   0  0  0  0  0  0  0  0  0  0  0  0
    3.5655    0.4874   -6.4999 C   0  0  0  0  0  0  0  0  0  0  0  0
    3.4478    1.7201   -7.2320 N   0  0  0  0  0  0  0  0  0  0  0  0
    2.6271    2.7552   -6.6736 C   0  0  0  0  0  0  0  0  0  0  0  0
    1.2965    2.9032   -7.0869 C   0  0  0  0  0  0  0  0  0  0  0  0
    0.5038    3.9218   -6.5487 C   0  0  0  0  0  0  0  0  0  0  0  0
    1.0395    4.8151   -5.6064 C   0  0  0  0  0  0  0  0  0  0  0  0
    0.1958    5.9217   -5.0566 C   0  0  0  0  0  0  0  0  0  0  0  0
    2.3956    4.7071   -5.2488 C   0  0  0  0  0  0  0  0  0  0  0  0
    3.1798    3.6762   -5.7660 C   0  0  0  0  0  0  0  0  0  0  0  0
    4.0896    1.8920   -8.5247 C   0  0  0  0  0  0  0  0  0  0  0  0
    4.0947    3.1466   -9.1733 C   0  0  0  0  0  0  0  0  0  0  0  0
    4.7220    3.3087  -10.4173 C   0  0  0  0  0  0  0  0  0  0  0  0
    5.3526    2.2218  -11.0385 C   0  0  0  0  0  0  0  0  0  0  0  0
    5.9561    2.3711  -12.4062 C   0  0  0  0  0  0  0  0  0  0  0  0
    5.3414    0.9678  -10.4082 C   0  0  0  0  0  0  0  0  0  0  0  0
    4.7073    0.8004   -9.1739 C   0  0  0  0  0  0  0  0  0  0  0  0
    2.5159   -0.4276   -6.3387 C   0  0  0  0  0  0  0  0  0  0  0  0
    0.8772   -0.4367   -6.6944 S   0  0  0  0  0  0  0  0  0  0  0  0
    5.9684    0.8132   -5.7109 C   0  0  0  0  0  0  0  0  0  0  0  0
    7.1045    0.3667   -5.1322 C   0  0  0  0  0  0  0  0  0  0  0  0
    7.4770   -1.0352   -4.9604 C   0  0  0  0  0  0  0  0  0  0  0  0
    7.3651   -1.9378   -5.8339 O   0  0  0  0  0  0  0  0  0  0  0  0
    8.1390   -1.1807   -3.6748 C   0  0  0  0  0  0  0  0  0  0  0  0
    8.3299    0.0833   -3.1276 C   0  0  0  0  0  0  0  0  0  0  0  0
    8.7898    0.2115   -1.8077 C   0  0  0  0  0  0  0  0  0  0  0  0
    9.0854   -0.9496   -1.0796 C   0  0  0  0  0  0  0  0  0  0  0  0
    8.9162   -2.2228   -1.6519 C   0  0  0  0  0  0  0  0  0  0  0  0
    9.2994   -3.7608   -0.5828 Br  0  0  0  0  0  0  0  0  0  0  0  0
    8.4215   -2.3486   -2.9586 C   0  0  0  0  0  0  0  0  0  0  0  0
    8.1083   -3.9374   -3.6464 Cl  0  0  0  0  0  0  0  0  0  0  0  0
    7.8482    1.1205   -4.0814 C   0  0  0  0  0  0  0  0  0  0  0  0
    8.1352    2.4507   -4.0793 C   0  0  0  0  0  0  0  0  0  0  0  0
    7.8060    3.2970   -5.2004 C   0  0  0  0  0  0  0  0  0  0  0  0
    7.5452    3.9835   -6.0986 N   0  0  0  0  0  0  0  0  0  0  0  0
    8.8790    3.0822   -3.0177 C   0  0  0  0  0  0  0  0  0  0  0  0
    9.4654    3.6114   -2.1669 N   0  0  0  0  0  0  0  0  0  0  0  0
    1.1582    2.4326    8.5623 H   0  0  0  0  0  0  0  0  0  0  0  0
    2.2970   -0.8979    3.3362 H   0  0  0  0  0  0  0  0  0  0  0  0
    4.5801   -0.9269    2.3873 H   0  0  0  0  0  0  0  0  0  0  0  0
    5.9163    1.8286    5.3926 H   0  0  0  0  0  0  0  0  0  0  0  0
   -0.7842    4.0852    8.6624 H   0  0  0  0  0  0  0  0  0  0  0  0
   -1.6998    6.0246    9.8492 H   0  0  0  0  0  0  0  0  0  0  0  0
   -3.5948    8.8140    8.1505 H   0  0  0  0  0  0  0  0  0  0  0  0
   -2.4991    8.4699    9.5314 H   0  0  0  0  0  0  0  0  0  0  0  0
   -4.1226    7.6833    9.4572 H   0  0  0  0  0  0  0  0  0  0  0  0
   -3.5050    7.4228    6.1922 H   0  0  0  0  0  0  0  0  0  0  0  0
   -2.6095    5.4585    5.0024 H   0  0  0  0  0  0  0  0  0  0  0  0
   -1.1252    1.7288    3.9648 H   0  0  0  0  0  0  0  0  0  0  0  0
    0.3250    1.8463    2.0010 H   0  0  0  0  0  0  0  0  0  0  0  0
    1.6925    3.3465    0.5075 H   0  0  0  0  0  0  0  0  0  0  0  0
    2.5692    4.7510    1.2105 H   0  0  0  0  0  0  0  0  0  0  0  0
    3.0902    3.0654    1.6188 H   0  0  0  0  0  0  0  0  0  0  0  0
    2.0860    5.4807    3.5138 H   0  0  0  0  0  0  0  0  0  0  0  0
    0.6307    5.3610    5.4858 H   0  0  0  0  0  0  0  0  0  0  0  0
   -6.2101   -0.4474    7.9445 H   0  0  0  0  0  0  0  0  0  0  0  0
   -8.4978   -1.2768    8.1097 H   0  0  0  0  0  0  0  0  0  0  0  0
   -9.8228   -3.8917    6.8366 H   0  0  0  0  0  0  0  0  0  0  0  0
   -9.3872   -4.8833    8.2798 H   0  0  0  0  0  0  0  0  0  0  0  0
   -9.9896   -3.2035    8.5008 H   0  0  0  0  0  0  0  0  0  0  0  0
   -7.1118   -5.2779    7.3041 H   0  0  0  0  0  0  0  0  0  0  0  0
   -4.8065   -4.4412    7.1051 H   0  0  0  0  0  0  0  0  0  0  0  0
   -3.9530   -1.8723   10.1120 H   0  0  0  0  0  0  0  0  0  0  0  0
   -2.3355   -2.9968   11.5954 H   0  0  0  0  0  0  0  0  0  0  0  0
    0.1490   -5.4829   10.4122 H   0  0  0  0  0  0  0  0  0  0  0  0
   -0.6245   -4.7482   11.8496 H   0  0  0  0  0  0  0  0  0  0  0  0
    0.6945   -3.8566   10.9954 H   0  0  0  0  0  0  0  0  0  0  0  0
   -0.2485   -4.5045    8.1263 H   0  0  0  0  0  0  0  0  0  0  0  0
   -1.8662   -3.3656    6.6582 H   0  0  0  0  0  0  0  0  0  0  0  0
   -7.0649    0.1278    4.5555 H   0  0  0  0  0  0  0  0  0  0  0  0
  -10.5814   -0.1348   -2.5187 H   0  0  0  0  0  0  0  0  0  0  0  0
   -9.8957   -0.1648   -4.1915 H   0  0  0  0  0  0  0  0  0  0  0  0
  -12.0166   -1.4916   -4.0370 H   0  0  0  0  0  0  0  0  0  0  0  0
  -11.2708   -2.5421   -2.7726 H   0  0  0  0  0  0  0  0  0  0  0  0
  -10.6149   -2.5497   -4.4523 H   0  0  0  0  0  0  0  0  0  0  0  0
   -2.0109   -1.3260   -7.0865 H   0  0  0  0  0  0  0  0  0  0  0  0
   -3.2239   -4.9973   -0.6191 H   0  0  0  0  0  0  0  0  0  0  0  0
   -1.8435   -4.4081   -1.6385 H   0  0  0  0  0  0  0  0  0  0  0  0
   -2.1421   -6.1368   -3.2123 H   0  0  0  0  0  0  0  0  0  0  0  0
   -3.8908   -6.3604   -2.8210 H   0  0  0  0  0  0  0  0  0  0  0  0
   -2.6275   -6.9622   -1.6860 H   0  0  0  0  0  0  0  0  0  0  0  0
   -2.9099   -2.7537    1.6331 H   0  0  0  0  0  0  0  0  0  0  0  0
   -2.7492   -2.8445   -0.1236 H   0  0  0  0  0  0  0  0  0  0  0  0
   -2.4943   -0.5196    0.5716 H   0  0  0  0  0  0  0  0  0  0  0  0
   -3.9602   -0.7284   -0.4656 H   0  0  0  0  0  0  0  0  0  0  0  0
   -4.1215   -0.5255    1.3204 H   0  0  0  0  0  0  0  0  0  0  0  0
    2.3932   -3.7329   -7.9860 H   0  0  0  0  0  0  0  0  0  0  0  0
    1.6818   -5.3547   -9.6785 H   0  0  0  0  0  0  0  0  0  0  0  0
    1.2972   -8.4713   -9.4637 H   0  0  0  0  0  0  0  0  0  0  0  0
    0.2031   -7.2612  -10.2412 H   0  0  0  0  0  0  0  0  0  0  0  0
   -0.4337   -8.3386   -8.9553 H   0  0  0  0  0  0  0  0  0  0  0  0
    0.1995   -7.9597   -6.5709 H   0  0  0  0  0  0  0  0  0  0  0  0
    0.8814   -6.3095   -4.8732 H   0  0  0  0  0  0  0  0  0  0  0  0
    4.0866   -5.7119   -5.3319 H   0  0  0  0  0  0  0  0  0  0  0  0
    5.4518   -6.4174   -3.4221 H   0  0  0  0  0  0  0  0  0  0  0  0
    6.2814   -4.9882   -0.9049 H   0  0  0  0  0  0  0  0  0  0  0  0
    4.8254   -5.3024    0.1210 H   0  0  0  0  0  0  0  0  0  0  0  0
    5.5120   -6.6239   -0.8891 H   0  0  0  0  0  0  0  0  0  0  0  0
    3.2916   -3.6896   -0.8709 H   0  0  0  0  0  0  0  0  0  0  0  0
    1.8970   -2.9988   -2.7831 H   0  0  0  0  0  0  0  0  0  0  0  0
    0.8772    2.2321   -7.8285 H   0  0  0  0  0  0  0  0  0  0  0  0
   -0.5178    4.0231   -6.8769 H   0  0  0  0  0  0  0  0  0  0  0  0
    0.5855    6.2880   -4.0810 H   0  0  0  0  0  0  0  0  0  0  0  0
    0.1847    6.7692   -5.7739 H   0  0  0  0  0  0  0  0  0  0  0  0
   -0.8463    5.5757   -4.8906 H   0  0  0  0  0  0  0  0  0  0  0  0
    2.8454    5.4222   -4.5678 H   0  0  0  0  0  0  0  0  0  0  0  0
    4.2198    3.6001   -5.4686 H   0  0  0  0  0  0  0  0  0  0  0  0
    3.6222    4.0134   -8.7293 H   0  0  0  0  0  0  0  0  0  0  0  0
    4.7122    4.2814  -10.8983 H   0  0  0  0  0  0  0  0  0  0  0  0
    6.3606    3.3932  -12.5570 H   0  0  0  0  0  0  0  0  0  0  0  0
    5.1791    2.1765  -13.1735 H   0  0  0  0  0  0  0  0  0  0  0  0
    6.7893    1.6478  -12.5415 H   0  0  0  0  0  0  0  0  0  0  0  0
    5.8065    0.1078  -10.8773 H   0  0  0  0  0  0  0  0  0  0  0  0
    4.7021   -0.1907   -8.7414 H   0  0  0  0  0  0  0  0  0  0  0  0
    5.7712    1.8688   -5.7171 H   0  0  0  0  0  0  0  0  0  0  0  0
    8.8802    1.1668   -1.3165 H   0  0  0  0  0  0  0  0  0  0  0  0
    9.4302   -0.8635   -0.0573 H   0  0  0  0  0  0  0  0  0  0  0  0
  1  2  2  3
  2  3  1  0
  3  4  2  0
  3  5  1  0
  5  6  2  0
  6  7  1  0
  7  8  2  0
  8  9  1  0
  8 10  1  0
 10 11  2  0
 11 12  1  0
 12 13  2  3
 13 14  1  0
 14 15  3  0
 13 16  1  0
 16 17  3  0
  1 18  1  0
 18 19  2  0
 19 20  1  0
 20 21  1  0
 21 22  2  0
 22 23  1  0
 23 24  2  0
 24 25  1  0
 24 26  1  0
 26 27  2  0
 20 28  1  0
 28 29  2  0
 29 30  1  0
 30 31  2  0
 31 32  1  0
 31 33  1  0
 33 34  2  0
 19 35  1  0
 35 36  1  0
 36 37  1  0
 37 38  2  0
 38 39  1  0
 39 40  1  0
 40 41  2  0
 41 42  1  0
 42 43  2  0
 43 44  1  0
 43 45  1  0
 45 46  2  0
 39 47  1  0
 47 48  2  0
 48 49  1  0
 49 50  2  0
 50 51  1  0
 50 52  1  0
 52 53  2  0
 38 54  1  0
 54 55  1  0
 37 56  1  0
 56 57  2  0
 57 58  1  0
 58 59  1  0
 59 60  1  0
 60 61  1  0
 61 62  1  0
 62 63  2  0
 63 64  1  0
 64 65  1  0
 65 66  1  0
 64 67  1  0
 67 68  2  0
 68 69  1  0
 69 70  1  0
 70 71  1  0
 71 72  1  0
 72 73  1  0
 73 74  2  0
 74 75  1  0
 75 76  1  0
 76 77  1  0
 77 78  1  0
 78 79  1  0
 79 80  1  0
 78 81  1  0
 81 82  1  0
 82 83  1  0
 83 84  1  0
 84 85  1  0
 85 86  1  0
 83 87  1  0
 87 88  1  0
 74 89  1  0
 89 90  2  0
 90 91  1  0
 91 92  1  0
 92 93  2  0
 93 94  1  0
 94 95  2  0
 95 96  1  0
 95 97  1  0
 97 98  2  0
 91 99  1  0
 99100  2  0
100101  1  0
101102  2  0
102103  1  0
102104  1  0
104105  2  0
 90106  1  0
106107  1  0
107108  1  0
108109  2  0
109110  1  0
110111  1  0
111112  2  0
112113  1  0
113114  2  0
114115  1  0
114116  1  0
116117  2  0
110118  1  0
118119  2  0
119120  1  0
120121  2  0
121122  1  0
121123  1  0
123124  2  0
109125  1  0
125126  1  0
108127  1  0
127128  2  3
128129  1  0
129130  2  0
129131  1  0
131132  2  0
132133  1  0
133134  2  0
134135  1  0
135136  1  0
135137  2  0
137138  1  0
132139  1  0
139140  2  3
140141  1  0
141142  3  0
140143  1  0
143144  3  0
 12  2  1  0
 55 18  1  0
 86 56  1  0
126 89  1  0
139128  1  0
 11  5  1  0
 27 21  1  0
 34 28  1  0
 54 35  2  0
 85 58  2  0
 98 92  1  0
105 99  1  0
125106  2  0
137131  1  0
 46 40  1  0
 53 47  1  0
 84 60  2  0
117111  1  0
124118  1  0
 82 61  2  0
 68 62  1  0
 81 69  2  0
 77 70  2  0
 76 72  2  0
  1145  1  0
  6146  1  0
  7147  1  0
 10148  1  0
 22149  1  0
 23150  1  0
 25151  1  0
 25152  1  0
 25153  1  0
 26154  1  0
 27155  1  0
 29156  1  0
 30157  1  0
 32158  1  0
 32159  1  0
 32160  1  0
 33161  1  0
 34162  1  0
 41163  1  0
 42164  1  0
 44165  1  0
 44166  1  0
 44167  1  0
 45168  1  0
 46169  1  0
 48170  1  0
 49171  1  0
 51172  1  0
 51173  1  0
 51174  1  0
 52175  1  0
 53176  1  0
 57177  1  0
 65178  1  0
 65179  1  0
 66180  1  0
 66181  1  0
 66182  1  0
 73183  1  0
 79184  1  0
 79185  1  0
 80186  1  0
 80187  1  0
 80188  1  0
 87189  1  0
 87190  1  0
 88191  1  0
 88192  1  0
 88193  1  0
 93194  1  0
 94195  1  0
 96196  1  0
 96197  1  0
 96198  1  0
 97199  1  0
 98200  1  0
100201  1  0
101202  1  0
103203  1  0
103204  1  0
103205  1  0
104206  1  0
105207  1  0
112208  1  0
113209  1  0
115210  1  0
115211  1  0
115212  1  0
116213  1  0
117214  1  0
119215  1  0
120216  1  0
122217  1  0
122218  1  0
122219  1  0
123220  1  0
124221  1  0
127222  1  0
133223  1  0
134224  1  0
M  END

