
     RDKit          3D

262290  0  0  0  0  0  0  0  0999 V2000
    3.1926   -5.3710   -7.0184 C   0  0  0  0  0  0  0  0  0  0  0  0
    4.2609   -4.6117   -7.3319 C   0  0  0  0  0  0  0  0  0  0  0  0
    5.4167   -4.3462   -6.4579 C   0  0  0  0  0  0  0  0  0  0  0  0
    5.5561   -4.6966   -5.2580 O   0  0  0  0  0  0  0  0  0  0  0  0
    6.4554   -3.7371   -7.2552 C   0  0  0  0  0  0  0  0  0  0  0  0
    7.7190   -3.3275   -6.8360 C   0  0  0  0  0  0  0  0  0  0  0  0
    8.6027   -2.8140   -7.7914 C   0  0  0  0  0  0  0  0  0  0  0  0
    8.2265   -2.7544   -9.1440 C   0  0  0  0  0  0  0  0  0  0  0  0
    9.3645   -2.1489  -10.3341 Cl  0  0  0  0  0  0  0  0  0  0  0  0
    6.9473   -3.1778   -9.5438 C   0  0  0  0  0  0  0  0  0  0  0  0
    6.0422   -3.6370   -8.5714 C   0  0  0  0  0  0  0  0  0  0  0  0
    4.6261   -4.0939   -8.6897 C   0  0  0  0  0  0  0  0  0  0  0  0
    3.7800   -3.8584   -9.7276 C   0  0  0  0  0  0  0  0  0  0  0  0
    2.3619   -4.1123   -9.6553 C   0  0  0  0  0  0  0  0  0  0  0  0
    1.2222   -4.3038   -9.6018 N   0  0  0  0  0  0  0  0  0  0  0  0
    4.2028   -3.2041  -10.9392 C   0  0  0  0  0  0  0  0  0  0  0  0
    4.5277   -2.6802  -11.9199 N   0  0  0  0  0  0  0  0  0  0  0  0
    2.8430   -5.7653   -5.6441 C   0  0  0  0  0  0  0  0  0  0  0  0
    2.3098   -7.0077   -5.2676 C   0  0  0  0  0  0  0  0  0  0  0  0
    1.9546   -8.0460   -6.1889 N   0  0  0  0  0  0  0  0  0  0  0  0
    2.8067   -9.2005   -6.3469 C   0  0  0  0  0  0  0  0  0  0  0  0
    4.1999   -9.0949   -6.1888 C   0  0  0  0  0  0  0  0  0  0  0  0
    5.0257  -10.1992   -6.4183 C   0  0  0  0  0  0  0  0  0  0  0  0
    4.4719  -11.4333   -6.7880 C   0  0  0  0  0  0  0  0  0  0  0  0
    5.3592  -12.6014   -7.1091 C   0  0  0  0  0  0  0  0  0  0  0  0
    3.0825  -11.5478   -6.9302 C   0  0  0  0  0  0  0  0  0  0  0  0
    2.2565  -10.4461   -6.7017 C   0  0  0  0  0  0  0  0  0  0  0  0
    0.7821   -7.8612   -7.0077 C   0  0  0  0  0  0  0  0  0  0  0  0
   -0.4178   -7.3969   -6.4433 C   0  0  0  0  0  0  0  0  0  0  0  0
   -1.5447   -7.1931   -7.2408 C   0  0  0  0  0  0  0  0  0  0  0  0
   -1.4912   -7.4523   -8.6180 C   0  0  0  0  0  0  0  0  0  0  0  0
   -2.6871   -7.1984   -9.4844 C   0  0  0  0  0  0  0  0  0  0  0  0
   -0.2870   -7.8896   -9.1894 C   0  0  0  0  0  0  0  0  0  0  0  0
    0.8386   -8.0965   -8.3911 C   0  0  0  0  0  0  0  0  0  0  0  0
    1.9638   -7.0243   -3.9216 C   0  0  0  0  0  0  0  0  0  0  0  0
    1.1882   -8.1232   -2.9106 S   0  0  0  0  0  0  0  0  0  0  0  0
    1.1340   -7.0456   -1.5912 C   0  0  0  0  0  0  0  0  0  0  0  0
    1.7056   -5.8130   -1.9628 C   0  0  0  0  0  0  0  0  0  0  0  0
    1.5982   -4.5902   -1.2143 N   0  0  0  0  0  0  0  0  0  0  0  0
    0.3588   -3.8698   -1.3360 C   0  0  0  0  0  0  0  0  0  0  0  0
   -0.7022   -4.1458   -0.4679 C   0  0  0  0  0  0  0  0  0  0  0  0
   -1.9129   -3.4565   -0.5824 C   0  0  0  0  0  0  0  0  0  0  0  0
   -2.0843   -2.4942   -1.5833 C   0  0  0  0  0  0  0  0  0  0  0  0
   -3.4053   -1.8011   -1.7325 C   0  0  0  0  0  0  0  0  0  0  0  0
   -1.0295   -2.2286   -2.4685 C   0  0  0  0  0  0  0  0  0  0  0  0
    0.1829   -2.9139   -2.3482 C   0  0  0  0  0  0  0  0  0  0  0  0
    2.7834   -3.9697   -0.6543 C   0  0  0  0  0  0  0  0  0  0  0  0
    3.8937   -4.7560   -0.2907 C   0  0  0  0  0  0  0  0  0  0  0  0
    5.0424   -4.1664    0.2451 C   0  0  0  0  0  0  0  0  0  0  0  0
    5.1174   -2.7778    0.4074 C   0  0  0  0  0  0  0  0  0  0  0  0
    6.3497   -2.1512    0.9885 C   0  0  0  0  0  0  0  0  0  0  0  0
    4.0087   -1.9885    0.0807 C   0  0  0  0  0  0  0  0  0  0  0  0
    2.8578   -2.5759   -0.4495 C   0  0  0  0  0  0  0  0  0  0  0  0
    2.1643   -5.8535   -3.2690 C   0  0  0  0  0  0  0  0  0  0  0  0
    2.7871   -4.7034   -4.3133 S   0  0  0  0  0  0  0  0  0  0  0  0
    0.6363   -7.3805   -0.2511 C   0  0  0  0  0  0  0  0  0  0  0  0
   -0.6684   -7.8002    0.0772 C   0  0  0  0  0  0  0  0  0  0  0  0
   -1.7198   -8.0535   -0.9229 C   0  0  0  0  0  0  0  0  0  0  0  0
   -1.8139   -9.3075   -1.5379 C   0  0  0  0  0  0  0  0  0  0  0  0
   -2.7375   -9.5150   -2.5652 C   0  0  0  0  0  0  0  0  0  0  0  0
   -3.5507   -8.4648   -3.0033 C   0  0  0  0  0  0  0  0  0  0  0  0
   -3.4610   -7.2028   -2.3965 C   0  0  0  0  0  0  0  0  0  0  0  0
   -4.3192   -6.0622   -2.8784 C   0  0  0  0  0  0  0  0  0  0  0  0
   -5.7242   -6.1439   -2.2887 C   0  0  0  0  0  0  0  0  0  0  0  0
   -2.5690   -7.0185   -1.3299 C   0  0  0  0  0  0  0  0  0  0  0  0
   -0.8938   -7.6937    1.4574 C   0  0  0  0  0  0  0  0  0  0  0  0
   -2.3229   -7.4219    2.3494 S   0  0  0  0  0  0  0  0  0  0  0  0
   -1.4654   -6.8036    3.6850 C   0  0  0  0  0  0  0  0  0  0  0  0
   -1.7248   -5.7490    4.5343 C   0  0  0  0  0  0  0  0  0  0  0  0
   -2.9080   -5.2528    5.0938 C   0  0  0  0  0  0  0  0  0  0  0  0
   -2.8587   -4.0275    5.8358 C   0  0  0  0  0  0  0  0  0  0  0  0
   -4.0313   -3.5806    6.3514 N   0  0  0  0  0  0  0  0  0  0  0  0
   -5.0435   -4.7919    5.8490 S   0  0  0  0  0  0  0  0  0  0  0  0
   -4.1135   -5.8609    4.9863 N   0  0  0  0  0  0  0  0  0  0  0  0
   -1.6509   -3.3031    5.8744 C   0  0  0  0  0  0  0  0  0  0  0  0
   -1.4663   -1.9513    6.0420 C   0  0  0  0  0  0  0  0  0  0  0  0
   -2.4800   -0.6168    6.3280 S   0  0  0  0  0  0  0  0  0  0  0  0
   -1.4590    0.4193    5.4384 C   0  0  0  0  0  0  0  0  0  0  0  0
   -1.5881    1.7343    4.9842 C   0  0  0  0  0  0  0  0  0  0  0  0
   -2.2115    2.8108    5.7900 C   0  0  0  0  0  0  0  0  0  0  0  0
   -3.4807    2.6531    6.3678 C   0  0  0  0  0  0  0  0  0  0  0  0
   -3.9992    3.6362    7.2172 C   0  0  0  0  0  0  0  0  0  0  0  0
   -3.2401    4.7656    7.5274 C   0  0  0  0  0  0  0  0  0  0  0  0
   -1.9583    4.9315    6.9802 C   0  0  0  0  0  0  0  0  0  0  0  0
   -1.1108    6.1122    7.3723 C   0  0  0  0  0  0  0  0  0  0  0  0
   -0.1334    5.7299    8.4838 C   0  0  0  0  0  0  0  0  0  0  0  0
   -1.4526    3.9535    6.1100 C   0  0  0  0  0  0  0  0  0  0  0  0
   -0.7090    1.9644    3.9032 C   0  0  0  0  0  0  0  0  0  0  0  0
    0.2803    0.6097    3.6575 S   0  0  0  0  0  0  0  0  0  0  0  0
   -0.4293   -0.2863    4.8799 C   0  0  0  0  0  0  0  0  0  0  0  0
   -0.3866   -1.6174    5.2785 C   0  0  0  0  0  0  0  0  0  0  0  0
    0.2270   -2.6926    4.7293 N   0  0  0  0  0  0  0  0  0  0  0  0
   -0.5201   -3.7542    5.1715 C   0  0  0  0  0  0  0  0  0  0  0  0
   -0.5150   -5.0678    4.6661 C   0  0  0  0  0  0  0  0  0  0  0  0
    0.4924   -5.7265    4.0400 N   0  0  0  0  0  0  0  0  0  0  0  0
   -0.1187   -6.7573    3.4187 C   0  0  0  0  0  0  0  0  0  0  0  0
    0.1983   -7.2769    2.1798 C   0  0  0  0  0  0  0  0  0  0  0  0
    1.4646   -6.9194    1.1541 S   0  0  0  0  0  0  0  0  0  0  0  0
    1.9143   -5.7033    4.4151 C   0  0  0  0  0  0  0  0  0  0  0  0
    2.3036   -6.9706    5.1708 C   0  0  0  0  0  0  0  0  0  0  0  0
    1.0291   -2.6167    3.4971 C   0  0  0  0  0  0  0  0  0  0  0  0
    0.1277   -2.6640    2.2730 C   0  0  0  0  0  0  0  0  0  0  0  0
   -0.6879    3.1280    2.9965 C   0  0  0  0  0  0  0  0  0  0  0  0
   -1.7836    3.9038    2.5459 C   0  0  0  0  0  0  0  0  0  0  0  0
   -3.1890    3.6280    2.7779 N   0  0  0  0  0  0  0  0  0  0  0  0
   -3.7071    2.2751    2.7139 C   0  0  0  0  0  0  0  0  0  0  0  0
   -4.8140    1.8966    3.4947 C   0  0  0  0  0  0  0  0  0  0  0  0
   -5.1806    0.5524    3.6033 C   0  0  0  0  0  0  0  0  0  0  0  0
   -4.4533   -0.4352    2.9237 C   0  0  0  0  0  0  0  0  0  0  0  0
   -4.7889   -1.8867    3.0900 C   0  0  0  0  0  0  0  0  0  0  0  0
   -3.4236   -0.0523    2.0545 C   0  0  0  0  0  0  0  0  0  0  0  0
   -3.0656    1.2915    1.9377 C   0  0  0  0  0  0  0  0  0  0  0  0
   -4.0826    4.7450    2.9674 C   0  0  0  0  0  0  0  0  0  0  0  0
   -5.1718    4.9438    2.0992 C   0  0  0  0  0  0  0  0  0  0  0  0
   -5.9041    6.1374    2.1515 C   0  0  0  0  0  0  0  0  0  0  0  0
   -5.5739    7.1312    3.0839 C   0  0  0  0  0  0  0  0  0  0  0  0
   -6.2681    8.4622    3.0477 C   0  0  0  0  0  0  0  0  0  0  0  0
   -4.5332    6.9017    3.9920 C   0  0  0  0  0  0  0  0  0  0  0  0
   -3.7807    5.7312    3.9163 C   0  0  0  0  0  0  0  0  0  0  0  0
   -1.3341    4.9575    1.7500 C   0  0  0  0  0  0  0  0  0  0  0  0
   -2.0532    6.3203    1.0994 S   0  0  0  0  0  0  0  0  0  0  0  0
   -0.5941    7.0080    0.5535 C   0  0  0  0  0  0  0  0  0  0  0  0
    0.4579    6.1250    0.8383 C   0  0  0  0  0  0  0  0  0  0  0  0
    1.7499    6.1938    0.2145 N   0  0  0  0  0  0  0  0  0  0  0  0
    1.8204    5.6516   -1.1190 C   0  0  0  0  0  0  0  0  0  0  0  0
    1.1769    6.3074   -2.1801 C   0  0  0  0  0  0  0  0  0  0  0  0
    1.1020    5.7102   -3.4403 C   0  0  0  0  0  0  0  0  0  0  0  0
    1.6586    4.4402   -3.6541 C   0  0  0  0  0  0  0  0  0  0  0  0
    1.5584    3.7921   -5.0048 C   0  0  0  0  0  0  0  0  0  0  0  0
    2.3387    3.8008   -2.6054 C   0  0  0  0  0  0  0  0  0  0  0  0
    2.4116    4.3982   -1.3440 C   0  0  0  0  0  0  0  0  0  0  0  0
    2.9450    6.5302    0.9625 C   0  0  0  0  0  0  0  0  0  0  0  0
    2.8951    6.7306    2.3566 C   0  0  0  0  0  0  0  0  0  0  0  0
    4.0320    7.1178    3.0668 C   0  0  0  0  0  0  0  0  0  0  0  0
    5.2507    7.3063    2.4021 C   0  0  0  0  0  0  0  0  0  0  0  0
    6.4709    7.7513    3.1508 C   0  0  0  0  0  0  0  0  0  0  0  0
    5.3237    7.0731    1.0247 C   0  0  0  0  0  0  0  0  0  0  0  0
    4.1820    6.7022    0.3083 C   0  0  0  0  0  0  0  0  0  0  0  0
    0.0019    4.9999    1.5223 C   0  0  0  0  0  0  0  0  0  0  0  0
    0.7550    3.7316    2.3070 S   0  0  0  0  0  0  0  0  0  0  0  0
   -0.4472    8.4659    0.4670 C   0  0  0  0  0  0  0  0  0  0  0  0
   -0.5649    9.2320    1.5763 C   0  0  0  0  0  0  0  0  0  0  0  0
   -0.7379    8.7160    2.9444 C   0  0  0  0  0  0  0  0  0  0  0  0
   -0.2801    7.6350    3.4033 O   0  0  0  0  0  0  0  0  0  0  0  0
   -1.5675    9.6337    3.6841 C   0  0  0  0  0  0  0  0  0  0  0  0
   -2.2258    9.3633    4.9026 C   0  0  0  0  0  0  0  0  0  0  0  0
   -3.2101   10.2770    5.2189 C   0  0  0  0  0  0  0  0  0  0  0  0
   -3.5083   11.4221    4.4065 C   0  0  0  0  0  0  0  0  0  0  0  0
   -2.8351   11.7139    3.2248 C   0  0  0  0  0  0  0  0  0  0  0  0
   -1.8296   10.7676    2.8767 C   0  0  0  0  0  0  0  0  0  0  0  0
   -1.0743   10.6318    1.6000 C   0  0  0  0  0  0  0  0  0  0  0  0
   -0.7236   11.6266    0.7540 C   0  0  0  0  0  0  0  0  0  0  0  0
    0.2025   11.4016   -0.3292 C   0  0  0  0  0  0  0  0  0  0  0  0
    0.9474   11.2258   -1.1997 N   0  0  0  0  0  0  0  0  0  0  0  0
   -1.0920   12.9966    0.9976 C   0  0  0  0  0  0  0  0  0  0  0  0
   -1.3658   14.1012    1.1972 N   0  0  0  0  0  0  0  0  0  0  0  0
   -4.6390   11.7889    5.3211 C   0  0  0  0  0  0  0  0  0  0  0  0
   -4.3963   12.9714    6.3059 C   0  0  0  0  0  0  0  0  0  0  0  0
   -5.5042   12.8857    7.3286 C   0  0  0  0  0  0  0  0  0  0  0  0
   -5.2524   11.7977    8.0692 C   0  0  0  0  0  0  0  0  0  0  0  0
   -3.9784   11.1942    7.5279 C   0  0  0  0  0  0  0  0  0  0  0  0
   -3.2470   12.4764    7.1682 C   0  0  0  0  0  0  0  0  0  0  0  0
   -4.3486   10.6041    6.1370 C   0  0  0  0  0  0  0  0  0  0  0  0
    2.5612   -5.7631   -7.8016 H   0  0  0  0  0  0  0  0  0  0  0  0
    8.0139   -3.3993   -5.7968 H   0  0  0  0  0  0  0  0  0  0  0  0
    9.5794   -2.4678   -7.4858 H   0  0  0  0  0  0  0  0  0  0  0  0
    6.7065   -3.1712  -10.5912 H   0  0  0  0  0  0  0  0  0  0  0  0
    4.6554   -8.1503   -5.9258 H   0  0  0  0  0  0  0  0  0  0  0  0
    6.0971  -10.0870   -6.3169 H   0  0  0  0  0  0  0  0  0  0  0  0
    4.8891  -13.5523   -6.7774 H   0  0  0  0  0  0  0  0  0  0  0  0
    5.5280  -12.6464   -8.2065 H   0  0  0  0  0  0  0  0  0  0  0  0
    6.3420  -12.5067   -6.6025 H   0  0  0  0  0  0  0  0  0  0  0  0
    2.6391  -12.4894   -7.2292 H   0  0  0  0  0  0  0  0  0  0  0  0
    1.1873  -10.5618   -6.8223 H   0  0  0  0  0  0  0  0  0  0  0  0
   -0.4831   -7.2007   -5.3833 H   0  0  0  0  0  0  0  0  0  0  0  0
   -2.4550   -6.8307   -6.7788 H   0  0  0  0  0  0  0  0  0  0  0  0
   -3.6290   -7.3021   -8.9008 H   0  0  0  0  0  0  0  0  0  0  0  0
   -2.7209   -7.9284  -10.3223 H   0  0  0  0  0  0  0  0  0  0  0  0
   -2.6275   -6.1713   -9.9015 H   0  0  0  0  0  0  0  0  0  0  0  0
   -0.2188   -8.0698  -10.2544 H   0  0  0  0  0  0  0  0  0  0  0  0
    1.7613   -8.4253   -8.8509 H   0  0  0  0  0  0  0  0  0  0  0  0
   -0.5903   -4.8939    0.3003 H   0  0  0  0  0  0  0  0  0  0  0  0
   -2.7222   -3.6890    0.0989 H   0  0  0  0  0  0  0  0  0  0  0  0
   -3.7201   -1.3711   -0.7590 H   0  0  0  0  0  0  0  0  0  0  0  0
   -4.1728   -2.5327   -2.0659 H   0  0  0  0  0  0  0  0  0  0  0  0
   -3.3510   -0.9772   -2.4758 H   0  0  0  0  0  0  0  0  0  0  0  0
   -1.1429   -1.4899   -3.2503 H   0  0  0  0  0  0  0  0  0  0  0  0
    0.9883   -2.6915   -3.0347 H   0  0  0  0  0  0  0  0  0  0  0  0
    3.8728   -5.8325   -0.4064 H   0  0  0  0  0  0  0  0  0  0  0  0
    5.8784   -4.7958    0.5235 H   0  0  0  0  0  0  0  0  0  0  0  0
    6.2978   -2.1959    2.0954 H   0  0  0  0  0  0  0  0  0  0  0  0
    7.2591   -2.6875    0.6396 H   0  0  0  0  0  0  0  0  0  0  0  0
    6.4383   -1.0876    0.6758 H   0  0  0  0  0  0  0  0  0  0  0  0
    4.0340   -0.9159    0.2218 H   0  0  0  0  0  0  0  0  0  0  0  0
    2.0333   -1.9265   -0.7027 H   0  0  0  0  0  0  0  0  0  0  0  0
   -1.1699  -10.1207   -1.2299 H   0  0  0  0  0  0  0  0  0  0  0  0
   -2.8160  -10.4911   -3.0299 H   0  0  0  0  0  0  0  0  0  0  0  0
   -4.2459   -8.6348   -3.8161 H   0  0  0  0  0  0  0  0  0  0  0  0
   -4.3815   -6.0842   -3.9883 H   0  0  0  0  0  0  0  0  0  0  0  0
   -3.8620   -5.0905   -2.5938 H   0  0  0  0  0  0  0  0  0  0  0  0
   -5.6741   -6.1525   -1.1793 H   0  0  0  0  0  0  0  0  0  0  0  0
   -6.3123   -5.2612   -2.6177 H   0  0  0  0  0  0  0  0  0  0  0  0
   -6.2341   -7.0647   -2.6413 H   0  0  0  0  0  0  0  0  0  0  0  0
   -2.5248   -6.0674   -0.8288 H   0  0  0  0  0  0  0  0  0  0  0  0
   -4.0741    1.7699    6.1674 H   0  0  0  0  0  0  0  0  0  0  0  0
   -4.9866    3.5091    7.6451 H   0  0  0  0  0  0  0  0  0  0  0  0
   -3.6497    5.5055    8.2029 H   0  0  0  0  0  0  0  0  0  0  0  0
   -0.5419    6.4766    6.4892 H   0  0  0  0  0  0  0  0  0  0  0  0
   -1.7514    6.9526    7.7205 H   0  0  0  0  0  0  0  0  0  0  0  0
    0.6482    5.0495    8.0887 H   0  0  0  0  0  0  0  0  0  0  0  0
   -0.6727    5.2276    9.3139 H   0  0  0  0  0  0  0  0  0  0  0  0
    0.3542    6.6415    8.8848 H   0  0  0  0  0  0  0  0  0  0  0  0
   -0.4537    4.0680    5.7119 H   0  0  0  0  0  0  0  0  0  0  0  0
    2.1262   -4.8426    5.0854 H   0  0  0  0  0  0  0  0  0  0  0  0
    2.5466   -5.6117    3.5076 H   0  0  0  0  0  0  0  0  0  0  0  0
    1.6260   -7.1223    6.0378 H   0  0  0  0  0  0  0  0  0  0  0  0
    3.3512   -6.8753    5.5373 H   0  0  0  0  0  0  0  0  0  0  0  0
    2.2442   -7.8513    4.4928 H   0  0  0  0  0  0  0  0  0  0  0  0
    1.7655   -3.4244    3.4251 H   0  0  0  0  0  0  0  0  0  0  0  0
    1.6400   -1.6960    3.4813 H   0  0  0  0  0  0  0  0  0  0  0  0
    0.7333   -2.5265    1.3561 H   0  0  0  0  0  0  0  0  0  0  0  0
   -0.6638   -1.8849    2.3128 H   0  0  0  0  0  0  0  0  0  0  0  0
   -0.3660   -3.6539    2.2252 H   0  0  0  0  0  0  0  0  0  0  0  0
   -5.3513    2.6286    4.0807 H   0  0  0  0  0  0  0  0  0  0  0  0
   -6.0072    0.2809    4.2492 H   0  0  0  0  0  0  0  0  0  0  0  0
   -5.3776   -2.0613    4.0168 H   0  0  0  0  0  0  0  0  0  0  0  0
   -5.3792   -2.2323    2.2171 H   0  0  0  0  0  0  0  0  0  0  0  0
   -3.8548   -2.4865    3.1631 H   0  0  0  0  0  0  0  0  0  0  0  0
   -2.8752   -0.7964    1.4920 H   0  0  0  0  0  0  0  0  0  0  0  0
   -2.2477    1.5529    1.2826 H   0  0  0  0  0  0  0  0  0  0  0  0
   -5.4072    4.2097    1.3380 H   0  0  0  0  0  0  0  0  0  0  0  0
   -6.7024    6.3049    1.4394 H   0  0  0  0  0  0  0  0  0  0  0  0
   -5.9995    8.9923    2.1095 H   0  0  0  0  0  0  0  0  0  0  0  0
   -7.3672    8.3191    3.0887 H   0  0  0  0  0  0  0  0  0  0  0  0
   -5.9647    9.1022    3.9023 H   0  0  0  0  0  0  0  0  0  0  0  0
   -4.2778    7.6393    4.7305 H   0  0  0  0  0  0  0  0  0  0  0  0
   -2.9182    5.6208    4.5519 H   0  0  0  0  0  0  0  0  0  0  0  0
    0.7177    7.2739   -2.0258 H   0  0  0  0  0  0  0  0  0  0  0  0
    0.5874    6.2270   -4.2426 H   0  0  0  0  0  0  0  0  0  0  0  0
    0.5771    4.0243   -5.4745 H   0  0  0  0  0  0  0  0  0  0  0  0
    2.3691    4.1728   -5.6620 H   0  0  0  0  0  0  0  0  0  0  0  0
    1.6453    2.6863   -4.9247 H   0  0  0  0  0  0  0  0  0  0  0  0
    2.7875    2.8272   -2.7555 H   0  0  0  0  0  0  0  0  0  0  0  0
    2.8941    3.8717   -0.5321 H   0  0  0  0  0  0  0  0  0  0  0  0
    1.9802    6.5961    2.9067 H   0  0  0  0  0  0  0  0  0  0  0  0
    3.9558    7.2876    4.1330 H   0  0  0  0  0  0  0  0  0  0  0  0
    6.8409    8.7044    2.7176 H   0  0  0  0  0  0  0  0  0  0  0  0
    6.2570    7.9168    4.2296 H   0  0  0  0  0  0  0  0  0  0  0  0
    7.2682    6.9837    3.0639 H   0  0  0  0  0  0  0  0  0  0  0  0
    6.2612    7.2023    0.4978 H   0  0  0  0  0  0  0  0  0  0  0  0
    4.2693    6.5641   -0.7606 H   0  0  0  0  0  0  0  0  0  0  0  0
   -0.5306    8.9097   -0.5123 H   0  0  0  0  0  0  0  0  0  0  0  0
   -2.0651    8.4576    5.4722 H   0  0  0  0  0  0  0  0  0  0  0  0
   -3.1431   12.5287    2.5852 H   0  0  0  0  0  0  0  0  0  0  0  0
   -5.6337   11.7704    4.8220 H   0  0  0  0  0  0  0  0  0  0  0  0
   -4.2585   13.9671    5.8347 H   0  0  0  0  0  0  0  0  0  0  0  0
   -6.3098   13.5954    7.4902 H   0  0  0  0  0  0  0  0  0  0  0  0
   -5.8263   11.4678    8.9262 H   0  0  0  0  0  0  0  0  0  0  0  0
   -3.4447   10.5074    8.2186 H   0  0  0  0  0  0  0  0  0  0  0  0
   -2.2984   12.3190    6.6113 H   0  0  0  0  0  0  0  0  0  0  0  0
   -3.0410   13.1292    8.0504 H   0  0  0  0  0  0  0  0  0  0  0  0
   -5.1550    9.8371    6.1423 H   0  0  0  0  0  0  0  0  0  0  0  0
  1  2  2  3
  2  3  1  0
  3  4  2  0
  3  5  1  0
  5  6  2  0
  6  7  1  0
  7  8  2  0
  8  9  1  0
  8 10  1  0
 10 11  2  0
 11 12  1  0
 12 13  2  3
 13 14  1  0
 14 15  3  0
 13 16  1  0
 16 17  3  0
  1 18  1  0
 18 19  2  0
 19 20  1  0
 20 21  1  0
 21 22  2  0
 22 23  1  0
 23 24  2  0
 24 25  1  0
 24 26  1  0
 26 27  2  0
 20 28  1  0
 28 29  2  0
 29 30  1  0
 30 31  2  0
 31 32  1  0
 31 33  1  0
 33 34  2  0
 19 35  1  0
 35 36  1  0
 36 37  1  0
 37 38  2  0
 38 39  1  0
 39 40  1  0
 40 41  2  0
 41 42  1  0
 42 43  2  0
 43 44  1  0
 43 45  1  0
 45 46  2  0
 39 47  1  0
 47 48  2  0
 48 49  1  0
 49 50  2  0
 50 51  1  0
 50 52  1  0
 52 53  2  0
 38 54  1  0
 54 55  1  0
 37 56  1  0
 56 57  2  0
 57 58  1  0
 58 59  2  0
 59 60  1  0
 60 61  2  0
 61 62  1  0
 62 63  1  0
 63 64  1  0
 62 65  2  0
 57 66  1  0
 66 67  1  0
 67 68  1  0
 68 69  1  0
 69 70  1  0
 70 71  1  0
 71 72  2  0
 72 73  1  0
 73 74  1  0
 71 75  1  0
 75 76  1  0
 76 77  1  0
 77 78  1  0
 78 79  1  0
 79 80  1  0
 80 81  2  0
 81 82  1  0
 82 83  2  0
 83 84  1  0
 84 85  1  0
 85 86  1  0
 84 87  2  0
 79 88  2  0
 88 89  1  0
 89 90  1  0
 90 91  1  0
 91 92  1  0
 92 93  1  0
 93 94  1  0
 94 95  1  0
 95 96  1  0
 96 97  1  0
 97 98  1  0
 95 99  1  0
 99100  1  0
 92101  1  0
101102  1  0
 88103  1  0
103104  2  0
104105  1  0
105106  1  0
106107  2  0
107108  1  0
108109  2  0
109110  1  0
109111  1  0
111112  2  0
105113  1  0
113114  2  0
114115  1  0
115116  2  0
116117  1  0
116118  1  0
118119  2  0
104120  1  0
120121  1  0
121122  1  0
122123  2  0
123124  1  0
124125  1  0
125126  2  0
126127  1  0
127128  2  0
128129  1  0
128130  1  0
130131  2  0
124132  1  0
132133  2  0
133134  1  0
134135  2  0
135136  1  0
135137  1  0
137138  2  0
123139  1  0
139140  1  0
122141  1  0
141142  2  3
142143  1  0
143144  2  0
143145  1  0
145146  2  0
146147  1  0
147148  2  0
148149  1  0
149150  2  0
150151  1  0
151152  2  3
152153  1  0
153154  3  0
152155  1  0
155156  3  0
148157  1  0
157158  1  0
158159  1  0
159160  2  0
160161  1  0
161162  1  0
161163  1  0
 12  2  1  0
 55 18  1  0
 98 56  1  0
140103  1  0
151142  1  0
163157  1  0
 11  5  1  0
 27 21  1  0
 34 28  1  0
 54 35  2  0
 65 58  1  0
 97 66  2  0
112106  1  0
119113  1  0
139120  2  0
150145  1  0
162158  1  0
 46 40  1  0
 53 47  1  0
 96 68  2  0
131125  1  0
138132  1  0
163147  1  0
 94 69  2  0
 74 70  2  0
 93 75  2  0
 91 76  2  0
 90 78  2  0
 87 80  1  0
  1164  1  0
  6165  1  0
  7166  1  0
 10167  1  0
 22168  1  0
 23169  1  0
 25170  1  0
 25171  1  0
 25172  1  0
 26173  1  0
 27174  1  0
 29175  1  0
 30176  1  0
 32177  1  0
 32178  1  0
 32179  1  0
 33180  1  0
 34181  1  0
 41182  1  0
 42183  1  0
 44184  1  0
 44185  1  0
 44186  1  0
 45187  1  0
 46188  1  0
 48189  1  0
 49190  1  0
 51191  1  0
 51192  1  0
 51193  1  0
 52194  1  0
 53195  1  0
 59196  1  0
 60197  1  0
 61198  1  0
 63199  1  0
 63200  1  0
 64201  1  0
 64202  1  0
 64203  1  0
 65204  1  0
 81205  1  0
 82206  1  0
 83207  1  0
 85208  1  0
 85209  1  0
 86210  1  0
 86211  1  0
 86212  1  0
 87213  1  0
 99214  1  0
 99215  1  0
100216  1  0
100217  1  0
100218  1  0
101219  1  0
101220  1  0
102221  1  0
102222  1  0
102223  1  0
107224  1  0
108225  1  0
110226  1  0
110227  1  0
110228  1  0
111229  1  0
112230  1  0
114231  1  0
115232  1  0
117233  1  0
117234  1  0
117235  1  0
118236  1  0
119237  1  0
126238  1  0
127239  1  0
129240  1  0
129241  1  0
129242  1  0
130243  1  0
131244  1  0
133245  1  0
134246  1  0
136247  1  0
136248  1  0
136249  1  0
137250  1  0
138251  1  0
141252  1  0
146253  1  0
149254  1  0
157255  1  0
158256  1  0
159257  1  0
160258  1  0
161259  1  0
162260  1  0
162261  1  0
163262  1  0
M  END

