
     RDKit          3D

249274  0  0  0  0  0  0  0  0999 V2000
   -9.0177   -2.3339   -3.5228 C   0  0  0  0  0  0  0  0  0  0  0  0
   -9.8424   -2.2472   -4.5794 C   0  0  0  0  0  0  0  0  0  0  0  0
  -10.1970   -3.4057   -5.3963 C   0  0  0  0  0  0  0  0  0  0  0  0
  -10.0652   -4.6161   -5.0665 O   0  0  0  0  0  0  0  0  0  0  0  0
  -10.6257   -2.9297   -6.6947 C   0  0  0  0  0  0  0  0  0  0  0  0
  -10.9699   -3.6798   -7.8175 C   0  0  0  0  0  0  0  0  0  0  0  0
  -11.3385   -2.9974   -8.9890 C   0  0  0  0  0  0  0  0  0  0  0  0
  -11.3308   -1.5936   -9.0229 C   0  0  0  0  0  0  0  0  0  0  0  0
  -11.8234   -0.7563  -10.4861 Cl  0  0  0  0  0  0  0  0  0  0  0  0
  -10.9591   -0.8546   -7.8873 C   0  0  0  0  0  0  0  0  0  0  0  0
  -10.6106   -1.5424   -6.7084 C   0  0  0  0  0  0  0  0  0  0  0  0
  -10.2358   -1.0342   -5.3583 C   0  0  0  0  0  0  0  0  0  0  0  0
  -10.5381    0.1908   -4.8495 C   0  0  0  0  0  0  0  0  0  0  0  0
  -10.8416    1.3297   -5.6741 C   0  0  0  0  0  0  0  0  0  0  0  0
  -11.0713    2.2643   -6.3201 N   0  0  0  0  0  0  0  0  0  0  0  0
  -10.7448    0.3913   -3.4365 C   0  0  0  0  0  0  0  0  0  0  0  0
  -10.9438    0.5610   -2.3049 N   0  0  0  0  0  0  0  0  0  0  0  0
   -8.2385   -1.2009   -3.0210 C   0  0  0  0  0  0  0  0  0  0  0  0
   -7.2842   -0.4703   -3.7570 C   0  0  0  0  0  0  0  0  0  0  0  0
   -6.4820   -1.1003   -4.7711 N   0  0  0  0  0  0  0  0  0  0  0  0
   -5.1898   -1.6450   -4.4065 C   0  0  0  0  0  0  0  0  0  0  0  0
   -5.0339   -2.3595   -3.2032 C   0  0  0  0  0  0  0  0  0  0  0  0
   -3.7752   -2.8140   -2.8096 C   0  0  0  0  0  0  0  0  0  0  0  0
   -2.6487   -2.5681   -3.6104 C   0  0  0  0  0  0  0  0  0  0  0  0
   -1.3038   -3.0933   -3.1943 C   0  0  0  0  0  0  0  0  0  0  0  0
   -2.8033   -1.8903   -4.8291 C   0  0  0  0  0  0  0  0  0  0  0  0
   -4.0666   -1.4253   -5.2188 C   0  0  0  0  0  0  0  0  0  0  0  0
   -6.9479   -1.2063   -6.1226 C   0  0  0  0  0  0  0  0  0  0  0  0
   -7.0976   -2.4708   -6.7002 C   0  0  0  0  0  0  0  0  0  0  0  0
   -7.4555   -2.5962   -8.0440 C   0  0  0  0  0  0  0  0  0  0  0  0
   -7.6665   -1.4525   -8.8244 C   0  0  0  0  0  0  0  0  0  0  0  0
   -7.9737   -1.5948  -10.2890 C   0  0  0  0  0  0  0  0  0  0  0  0
   -7.5056   -0.1809   -8.2511 C   0  0  0  0  0  0  0  0  0  0  0  0
   -7.1633   -0.0586   -6.8972 C   0  0  0  0  0  0  0  0  0  0  0  0
   -6.7496    0.5411   -2.9608 C   0  0  0  0  0  0  0  0  0  0  0  0
   -5.4794    1.6159   -3.1672 S   0  0  0  0  0  0  0  0  0  0  0  0
   -5.3743    2.0523   -1.5207 C   0  0  0  0  0  0  0  0  0  0  0  0
   -6.3219    1.2876   -0.8031 C   0  0  0  0  0  0  0  0  0  0  0  0
   -6.2734    1.0551    0.6133 N   0  0  0  0  0  0  0  0  0  0  0  0
   -5.5957   -0.1422    1.0674 C   0  0  0  0  0  0  0  0  0  0  0  0
   -6.2091   -1.0074    1.9914 C   0  0  0  0  0  0  0  0  0  0  0  0
   -5.5773   -2.1967    2.3727 C   0  0  0  0  0  0  0  0  0  0  0  0
   -4.3215   -2.5348    1.8422 C   0  0  0  0  0  0  0  0  0  0  0  0
   -3.6775   -3.8465    2.1834 C   0  0  0  0  0  0  0  0  0  0  0  0
   -3.7136   -1.6807    0.9108 C   0  0  0  0  0  0  0  0  0  0  0  0
   -4.3443   -0.4956    0.5287 C   0  0  0  0  0  0  0  0  0  0  0  0
   -7.0354    1.8887    1.5124 C   0  0  0  0  0  0  0  0  0  0  0  0
   -6.6005    2.0933    2.8341 C   0  0  0  0  0  0  0  0  0  0  0  0
   -7.3145    2.9221    3.7014 C   0  0  0  0  0  0  0  0  0  0  0  0
   -8.4668    3.5877    3.2526 C   0  0  0  0  0  0  0  0  0  0  0  0
   -9.2527    4.4543    4.1873 C   0  0  0  0  0  0  0  0  0  0  0  0
   -8.9126    3.3874    1.9384 C   0  0  0  0  0  0  0  0  0  0  0  0
   -8.2016    2.5477    1.0730 C   0  0  0  0  0  0  0  0  0  0  0  0
   -7.0898    0.4933   -1.6516 C   0  0  0  0  0  0  0  0  0  0  0  0
   -8.1781   -0.7529   -1.3776 S   0  0  0  0  0  0  0  0  0  0  0  0
   -4.3742    2.9915   -0.9454 C   0  0  0  0  0  0  0  0  0  0  0  0
   -3.5859    3.9522   -1.6266 C   0  0  0  0  0  0  0  0  0  0  0  0
   -3.4916    4.0982   -3.0843 C   0  0  0  0  0  0  0  0  0  0  0  0
   -4.2280    5.0869   -3.7499 C   0  0  0  0  0  0  0  0  0  0  0  0
   -4.1568    5.1970   -5.1440 C   0  0  0  0  0  0  0  0  0  0  0  0
   -3.3485    4.3216   -5.8739 C   0  0  0  0  0  0  0  0  0  0  0  0
   -2.6034    3.3285   -5.2117 C   0  0  0  0  0  0  0  0  0  0  0  0
   -1.7217    2.3908   -5.9943 C   0  0  0  0  0  0  0  0  0  0  0  0
   -0.3616    3.0223   -6.2744 C   0  0  0  0  0  0  0  0  0  0  0  0
   -2.6696    3.2315   -3.8136 C   0  0  0  0  0  0  0  0  0  0  0  0
   -2.7772    4.6749   -0.7362 C   0  0  0  0  0  0  0  0  0  0  0  0
   -1.4990    5.8077   -0.9228 S   0  0  0  0  0  0  0  0  0  0  0  0
   -1.1617    5.7395    0.7475 C   0  0  0  0  0  0  0  0  0  0  0  0
   -0.1435    6.0361    1.6154 C   0  0  0  0  0  0  0  0  0  0  0  0
    0.9497    6.9075    1.5462 C   0  0  0  0  0  0  0  0  0  0  0  0
    1.9053    6.8850    2.6063 C   0  0  0  0  0  0  0  0  0  0  0  0
    2.9278    7.7814    2.5229 N   0  0  0  0  0  0  0  0  0  0  0  0
    2.5355    8.5293    1.0974 S   0  0  0  0  0  0  0  0  0  0  0  0
    1.1511    7.8021    0.5483 N   0  0  0  0  0  0  0  0  0  0  0  0
    1.7796    5.9354    3.6317 C   0  0  0  0  0  0  0  0  0  0  0  0
    2.7634    5.3696    4.4181 C   0  0  0  0  0  0  0  0  0  0  0  0
    4.4604    5.4494    4.4141 S   0  0  0  0  0  0  0  0  0  0  0  0
    4.6579    3.8184    4.8632 C   0  0  0  0  0  0  0  0  0  0  0  0
    5.7359    2.9390    4.6175 C   0  0  0  0  0  0  0  0  0  0  0  0
    7.0978    3.1728    5.1707 C   0  0  0  0  0  0  0  0  0  0  0  0
    7.6732    4.4581    5.1891 C   0  0  0  0  0  0  0  0  0  0  0  0
    8.8592    4.6943    5.8944 C   0  0  0  0  0  0  0  0  0  0  0  0
    9.4662    3.6626    6.6159 C   0  0  0  0  0  0  0  0  0  0  0  0
    8.9191    2.3737    6.6064 C   0  0  0  0  0  0  0  0  0  0  0  0
    9.5013    1.2862    7.4745 C   0  0  0  0  0  0  0  0  0  0  0  0
    8.7206    1.1533    8.7848 C   0  0  0  0  0  0  0  0  0  0  0  0
    7.7523    2.1290    5.8603 C   0  0  0  0  0  0  0  0  0  0  0  0
    5.2490    1.6461    4.3145 C   0  0  0  0  0  0  0  0  0  0  0  0
    3.5754    1.6224    4.5325 S   0  0  0  0  0  0  0  0  0  0  0  0
    3.4112    3.2331    4.9125 C   0  0  0  0  0  0  0  0  0  0  0  0
    2.3407    4.1064    4.7160 C   0  0  0  0  0  0  0  0  0  0  0  0
    1.0903    3.8571    4.2478 N   0  0  0  0  0  0  0  0  0  0  0  0
    0.7132    5.0202    3.6371 C   0  0  0  0  0  0  0  0  0  0  0  0
   -0.3518    5.2031    2.7216 C   0  0  0  0  0  0  0  0  0  0  0  0
   -1.5421    4.5318    2.6244 N   0  0  0  0  0  0  0  0  0  0  0  0
   -1.9673    4.8630    1.3908 C   0  0  0  0  0  0  0  0  0  0  0  0
   -2.8964    4.2858    0.5656 C   0  0  0  0  0  0  0  0  0  0  0  0
   -3.9941    3.0467    0.7158 S   0  0  0  0  0  0  0  0  0  0  0  0
   -2.4763    4.1255    3.6914 C   0  0  0  0  0  0  0  0  0  0  0  0
   -2.1867    4.7934    5.0401 C   0  0  0  0  0  0  0  0  0  0  0  0
    0.5399    2.5189    4.0218 C   0  0  0  0  0  0  0  0  0  0  0  0
    0.8614    2.0104    2.6136 C   0  0  0  0  0  0  0  0  0  0  0  0
    5.8793    0.5815    3.4990 C   0  0  0  0  0  0  0  0  0  0  0  0
    6.6638    0.7457    2.3292 C   0  0  0  0  0  0  0  0  0  0  0  0
    7.5373    1.8539    2.0157 N   0  0  0  0  0  0  0  0  0  0  0  0
    7.0480    3.2041    1.8413 C   0  0  0  0  0  0  0  0  0  0  0  0
    5.7381    3.4604    1.4014 C   0  0  0  0  0  0  0  0  0  0  0  0
    5.3389    4.7733    1.1164 C   0  0  0  0  0  0  0  0  0  0  0  0
    6.2421    5.8388    1.2681 C   0  0  0  0  0  0  0  0  0  0  0  0
    5.8360    7.2443    0.9455 C   0  0  0  0  0  0  0  0  0  0  0  0
    7.5291    5.5896    1.7623 C   0  0  0  0  0  0  0  0  0  0  0  0
    7.9260    4.2870    2.0446 C   0  0  0  0  0  0  0  0  0  0  0  0
    8.8655    1.5303    1.5374 C   0  0  0  0  0  0  0  0  0  0  0  0
    9.3328    2.0680    0.3202 C   0  0  0  0  0  0  0  0  0  0  0  0
   10.5610    1.6748   -0.2064 C   0  0  0  0  0  0  0  0  0  0  0  0
   11.3328    0.7077    0.4523 C   0  0  0  0  0  0  0  0  0  0  0  0
   12.6416    0.2736   -0.1405 C   0  0  0  0  0  0  0  0  0  0  0  0
   10.8774    0.1700    1.6677 C   0  0  0  0  0  0  0  0  0  0  0  0
    9.6535    0.5790    2.2095 C   0  0  0  0  0  0  0  0  0  0  0  0
    6.5959   -0.3961    1.5150 C   0  0  0  0  0  0  0  0  0  0  0  0
    7.0629   -0.7112   -0.0665 S   0  0  0  0  0  0  0  0  0  0  0  0
    6.3248   -2.2448   -0.1280 C   0  0  0  0  0  0  0  0  0  0  0  0
    5.6696   -2.4999    1.0969 C   0  0  0  0  0  0  0  0  0  0  0  0
    4.8340   -3.6463    1.3771 N   0  0  0  0  0  0  0  0  0  0  0  0
    4.8091   -4.1946    2.7104 C   0  0  0  0  0  0  0  0  0  0  0  0
    3.5857   -4.4409    3.3538 C   0  0  0  0  0  0  0  0  0  0  0  0
    3.5598   -4.8735    4.6818 C   0  0  0  0  0  0  0  0  0  0  0  0
    4.7594   -5.0819    5.3799 C   0  0  0  0  0  0  0  0  0  0  0  0
    4.7216   -5.4986    6.8202 C   0  0  0  0  0  0  0  0  0  0  0  0
    5.9818   -4.8593    4.7330 C   0  0  0  0  0  0  0  0  0  0  0  0
    6.0087   -4.4272    3.4060 C   0  0  0  0  0  0  0  0  0  0  0  0
    3.9906   -4.2153    0.3531 C   0  0  0  0  0  0  0  0  0  0  0  0
    3.1978   -3.3928   -0.4652 C   0  0  0  0  0  0  0  0  0  0  0  0
    2.3993   -3.9484   -1.4705 C   0  0  0  0  0  0  0  0  0  0  0  0
    2.3896   -5.3353   -1.6786 C   0  0  0  0  0  0  0  0  0  0  0  0
    1.5170   -5.9327   -2.7421 C   0  0  0  0  0  0  0  0  0  0  0  0
    3.1668   -6.1592   -0.8516 C   0  0  0  0  0  0  0  0  0  0  0  0
    3.9596   -5.6062    0.1590 C   0  0  0  0  0  0  0  0  0  0  0  0
    5.8678   -1.4367    1.9869 C   0  0  0  0  0  0  0  0  0  0  0  0
    5.1885   -0.9876    3.4449 S   0  0  0  0  0  0  0  0  0  0  0  0
    6.1931   -3.0129   -1.3702 C   0  0  0  0  0  0  0  0  0  0  0  0
    6.6411   -4.2724   -1.5209 C   0  0  0  0  0  0  0  0  0  0  0  0
    7.5747   -4.9451   -0.6139 C   0  0  0  0  0  0  0  0  0  0  0  0
    8.0424   -4.4664    0.4588 O   0  0  0  0  0  0  0  0  0  0  0  0
    7.9091   -6.2457   -1.1631 C   0  0  0  0  0  0  0  0  0  0  0  0
    8.7478   -7.2373   -0.6335 C   0  0  0  0  0  0  0  0  0  0  0  0
    9.7521   -6.9090    0.7794 Cl  0  0  0  0  0  0  0  0  0  0  0  0
    8.7773   -8.4968   -1.2713 C   0  0  0  0  0  0  0  0  0  0  0  0
    9.8594   -9.7590   -0.6730 Cl  0  0  0  0  0  0  0  0  0  0  0  0
    7.9007   -8.7637   -2.3440 C   0  0  0  0  0  0  0  0  0  0  0  0
    7.8327  -10.3794   -3.0448 Cl  0  0  0  0  0  0  0  0  0  0  0  0
    7.0615   -7.7446   -2.8544 C   0  0  0  0  0  0  0  0  0  0  0  0
    5.7084   -8.1942   -3.8914 Cl  0  0  0  0  0  0  0  0  0  0  0  0
    7.1800   -6.4443   -2.3234 C   0  0  0  0  0  0  0  0  0  0  0  0
    6.4508   -5.1929   -2.6843 C   0  0  0  0  0  0  0  0  0  0  0  0
    5.9927   -4.8666   -3.9192 C   0  0  0  0  0  0  0  0  0  0  0  0
    6.4740   -5.5318   -5.1007 C   0  0  0  0  0  0  0  0  0  0  0  0
    6.8461   -6.0696   -6.0572 N   0  0  0  0  0  0  0  0  0  0  0  0
    5.0546   -3.7983   -4.1462 C   0  0  0  0  0  0  0  0  0  0  0  0
    4.2929   -2.9464   -4.3377 N   0  0  0  0  0  0  0  0  0  0  0  0
   -8.8292   -3.3010   -3.0760 H   0  0  0  0  0  0  0  0  0  0  0  0
  -10.9770   -4.7630   -7.7850 H   0  0  0  0  0  0  0  0  0  0  0  0
  -11.6374   -3.5631   -9.8672 H   0  0  0  0  0  0  0  0  0  0  0  0
  -10.9414    0.2181   -7.9553 H   0  0  0  0  0  0  0  0  0  0  0  0
   -5.8812   -2.5642   -2.5692 H   0  0  0  0  0  0  0  0  0  0  0  0
   -3.6829   -3.3592   -1.8797 H   0  0  0  0  0  0  0  0  0  0  0  0
   -1.1794   -4.1217   -3.5867 H   0  0  0  0  0  0  0  0  0  0  0  0
   -0.4887   -2.4537   -3.5938 H   0  0  0  0  0  0  0  0  0  0  0  0
   -1.2076   -3.1182   -2.0862 H   0  0  0  0  0  0  0  0  0  0  0  0
   -1.9468   -1.7086   -5.4684 H   0  0  0  0  0  0  0  0  0  0  0  0
   -4.1587   -0.8731   -6.1460 H   0  0  0  0  0  0  0  0  0  0  0  0
   -6.9419   -3.3585   -6.1023 H   0  0  0  0  0  0  0  0  0  0  0  0
   -7.5629   -3.5871   -8.4733 H   0  0  0  0  0  0  0  0  0  0  0  0
   -8.5448   -0.7170  -10.6629 H   0  0  0  0  0  0  0  0  0  0  0  0
   -7.0196   -1.6811  -10.8532 H   0  0  0  0  0  0  0  0  0  0  0  0
   -8.5885   -2.5039  -10.4733 H   0  0  0  0  0  0  0  0  0  0  0  0
   -7.6367    0.7132   -8.8497 H   0  0  0  0  0  0  0  0  0  0  0  0
   -7.0300    0.9266   -6.4653 H   0  0  0  0  0  0  0  0  0  0  0  0
   -7.1826   -0.7734    2.4018 H   0  0  0  0  0  0  0  0  0  0  0  0
   -6.0732   -2.8620    3.0655 H   0  0  0  0  0  0  0  0  0  0  0  0
   -3.9609   -4.1690    3.2081 H   0  0  0  0  0  0  0  0  0  0  0  0
   -4.0038   -4.6206    1.4529 H   0  0  0  0  0  0  0  0  0  0  0  0
   -2.5685   -3.7559    2.1410 H   0  0  0  0  0  0  0  0  0  0  0  0
   -2.7598   -1.9342    0.4658 H   0  0  0  0  0  0  0  0  0  0  0  0
   -3.8545    0.1457   -0.1893 H   0  0  0  0  0  0  0  0  0  0  0  0
   -5.6910    1.6254    3.1866 H   0  0  0  0  0  0  0  0  0  0  0  0
   -6.9689    3.0524    4.7186 H   0  0  0  0  0  0  0  0  0  0  0  0
   -9.7290    5.2882    3.6283 H   0  0  0  0  0  0  0  0  0  0  0  0
  -10.0390    3.8455    4.6832 H   0  0  0  0  0  0  0  0  0  0  0  0
   -8.5912    4.8981    4.9597 H   0  0  0  0  0  0  0  0  0  0  0  0
   -9.8149    3.8787    1.5817 H   0  0  0  0  0  0  0  0  0  0  0  0
   -8.5749    2.4043    0.0668 H   0  0  0  0  0  0  0  0  0  0  0  0
   -4.8677    5.7649   -3.1943 H   0  0  0  0  0  0  0  0  0  0  0  0
   -4.7278    5.9631   -5.6574 H   0  0  0  0  0  0  0  0  0  0  0  0
   -3.3040    4.4150   -6.9514 H   0  0  0  0  0  0  0  0  0  0  0  0
   -2.2125    2.1216   -6.9536 H   0  0  0  0  0  0  0  0  0  0  0  0
   -1.5711    1.4476   -5.4320 H   0  0  0  0  0  0  0  0  0  0  0  0
   -0.4765    3.9575   -6.8631 H   0  0  0  0  0  0  0  0  0  0  0  0
    0.1543    3.2554   -5.3183 H   0  0  0  0  0  0  0  0  0  0  0  0
    0.2666    2.3122   -6.8547 H   0  0  0  0  0  0  0  0  0  0  0  0
   -2.1042    2.4676   -3.2998 H   0  0  0  0  0  0  0  0  0  0  0  0
    7.2040    5.2852    4.6830 H   0  0  0  0  0  0  0  0  0  0  0  0
    9.2871    5.6868    5.9165 H   0  0  0  0  0  0  0  0  0  0  0  0
   10.3597    3.8767    7.1939 H   0  0  0  0  0  0  0  0  0  0  0  0
   10.5701    1.5101    7.7163 H   0  0  0  0  0  0  0  0  0  0  0  0
    9.4768    0.3144    6.9314 H   0  0  0  0  0  0  0  0  0  0  0  0
    9.1994    0.3782    9.4197 H   0  0  0  0  0  0  0  0  0  0  0  0
    8.7228    2.1184    9.3348 H   0  0  0  0  0  0  0  0  0  0  0  0
    7.6713    0.8506    8.5766 H   0  0  0  0  0  0  0  0  0  0  0  0
    7.3110    1.1437    5.9045 H   0  0  0  0  0  0  0  0  0  0  0  0
   -3.5023    4.4424    3.4065 H   0  0  0  0  0  0  0  0  0  0  0  0
   -2.5448    3.0250    3.7742 H   0  0  0  0  0  0  0  0  0  0  0  0
   -1.2811    4.3677    5.5192 H   0  0  0  0  0  0  0  0  0  0  0  0
   -3.0505    4.6353    5.7207 H   0  0  0  0  0  0  0  0  0  0  0  0
   -2.0516    5.8859    4.8900 H   0  0  0  0  0  0  0  0  0  0  0  0
    0.9358    1.8191    4.7814 H   0  0  0  0  0  0  0  0  0  0  0  0
   -0.5382    2.4996    4.1922 H   0  0  0  0  0  0  0  0  0  0  0  0
    0.2495    2.5583    1.8668 H   0  0  0  0  0  0  0  0  0  0  0  0
    0.6370    0.9253    2.5424 H   0  0  0  0  0  0  0  0  0  0  0  0
    1.9306    2.1723    2.3578 H   0  0  0  0  0  0  0  0  0  0  0  0
    5.0342    2.6490    1.2541 H   0  0  0  0  0  0  0  0  0  0  0  0
    4.3262    4.9592    0.7752 H   0  0  0  0  0  0  0  0  0  0  0  0
    5.0314    7.2645    0.1739 H   0  0  0  0  0  0  0  0  0  0  0  0
    6.7040    7.8205    0.5504 H   0  0  0  0  0  0  0  0  0  0  0  0
    5.4806    7.7426    1.8739 H   0  0  0  0  0  0  0  0  0  0  0  0
    8.2213    6.4096    1.9268 H   0  0  0  0  0  0  0  0  0  0  0  0
    8.9258    4.1232    2.4321 H   0  0  0  0  0  0  0  0  0  0  0  0
    8.7321    2.7728   -0.2397 H   0  0  0  0  0  0  0  0  0  0  0  0
   10.9010    2.1007   -1.1412 H   0  0  0  0  0  0  0  0  0  0  0  0
   13.3789    1.0974   -0.0447 H   0  0  0  0  0  0  0  0  0  0  0  0
   12.5030    0.0351   -1.2148 H   0  0  0  0  0  0  0  0  0  0  0  0
   13.0366   -0.6301    0.3721 H   0  0  0  0  0  0  0  0  0  0  0  0
   11.4546   -0.5809    2.1926 H   0  0  0  0  0  0  0  0  0  0  0  0
    9.3039    0.1394    3.1369 H   0  0  0  0  0  0  0  0  0  0  0  0
    2.6514   -4.2593    2.8395 H   0  0  0  0  0  0  0  0  0  0  0  0
    2.6077   -5.0330    5.1737 H   0  0  0  0  0  0  0  0  0  0  0  0
    4.4332   -4.6281    7.4518 H   0  0  0  0  0  0  0  0  0  0  0  0
    3.9770   -6.3132    6.9575 H   0  0  0  0  0  0  0  0  0  0  0  0
    5.7102   -5.8741    7.1591 H   0  0  0  0  0  0  0  0  0  0  0  0
    6.9163   -5.0131    5.2565 H   0  0  0  0  0  0  0  0  0  0  0  0
    6.9647   -4.2571    2.9261 H   0  0  0  0  0  0  0  0  0  0  0  0
    3.2007   -2.3199   -0.3240 H   0  0  0  0  0  0  0  0  0  0  0  0
    1.7902   -3.2967   -2.0858 H   0  0  0  0  0  0  0  0  0  0  0  0
    1.4024   -5.2258   -3.5914 H   0  0  0  0  0  0  0  0  0  0  0  0
    0.5168   -6.1561   -2.3192 H   0  0  0  0  0  0  0  0  0  0  0  0
    1.9641   -6.8742   -3.1354 H   0  0  0  0  0  0  0  0  0  0  0  0
    3.1620   -7.2312   -0.9860 H   0  0  0  0  0  0  0  0  0  0  0  0
    4.5637   -6.2614    0.7793 H   0  0  0  0  0  0  0  0  0  0  0  0
    5.6853   -2.4947   -2.1621 H   0  0  0  0  0  0  0  0  0  0  0  0
  1  2  2  3
  2  3  1  0
  3  4  2  0
  3  5  1  0
  5  6  2  0
  6  7  1  0
  7  8  2  0
  8  9  1  0
  8 10  1  0
 10 11  2  0
 11 12  1  0
 12 13  2  3
 13 14  1  0
 14 15  3  0
 13 16  1  0
 16 17  3  0
  1 18  1  0
 18 19  2  0
 19 20  1  0
 20 21  1  0
 21 22  2  0
 22 23  1  0
 23 24  2  0
 24 25  1  0
 24 26  1  0
 26 27  2  0
 20 28  1  0
 28 29  2  0
 29 30  1  0
 30 31  2  0
 31 32  1  0
 31 33  1  0
 33 34  2  0
 19 35  1  0
 35 36  1  0
 36 37  1  0
 37 38  2  0
 38 39  1  0
 39 40  1  0
 40 41  2  0
 41 42  1  0
 42 43  2  0
 43 44  1  0
 43 45  1  0
 45 46  2  0
 39 47  1  0
 47 48  2  0
 48 49  1  0
 49 50  2  0
 50 51  1  0
 50 52  1  0
 52 53  2  0
 38 54  1  0
 54 55  1  0
 37 56  1  0
 56 57  2  0
 57 58  1  0
 58 59  2  0
 59 60  1  0
 60 61  2  0
 61 62  1  0
 62 63  1  0
 63 64  1  0
 62 65  2  0
 57 66  1  0
 66 67  1  0
 67 68  1  0
 68 69  1  0
 69 70  1  0
 70 71  1  0
 71 72  2  0
 72 73  1  0
 73 74  1  0
 71 75  1  0
 75 76  1  0
 76 77  1  0
 77 78  1  0
 78 79  1  0
 79 80  1  0
 80 81  2  0
 81 82  1  0
 82 83  2  0
 83 84  1  0
 84 85  1  0
 85 86  1  0
 84 87  2  0
 79 88  2  0
 88 89  1  0
 89 90  1  0
 90 91  1  0
 91 92  1  0
 92 93  1  0
 93 94  1  0
 94 95  1  0
 95 96  1  0
 96 97  1  0
 97 98  1  0
 95 99  1  0
 99100  1  0
 92101  1  0
101102  1  0
 88103  1  0
103104  2  0
104105  1  0
105106  1  0
106107  2  0
107108  1  0
108109  2  0
109110  1  0
109111  1  0
111112  2  0
105113  1  0
113114  2  0
114115  1  0
115116  2  0
116117  1  0
116118  1  0
118119  2  0
104120  1  0
120121  1  0
121122  1  0
122123  2  0
123124  1  0
124125  1  0
125126  2  0
126127  1  0
127128  2  0
128129  1  0
128130  1  0
130131  2  0
124132  1  0
132133  2  0
133134  1  0
134135  2  0
135136  1  0
135137  1  0
137138  2  0
123139  1  0
139140  1  0
122141  1  0
141142  2  3
142143  1  0
143144  2  0
143145  1  0
145146  2  0
146147  1  0
146148  1  0
148149  1  0
148150  2  0
150151  1  0
150152  1  0
152153  1  0
152154  2  0
154155  1  0
155156  2  3
156157  1  0
157158  3  0
156159  1  0
159160  3  0
 12  2  1  0
 55 18  1  0
 98 56  1  0
140103  1  0
155142  1  0
 11  5  1  0
 27 21  1  0
 34 28  1  0
 54 35  2  0
 65 58  1  0
 97 66  2  0
112106  1  0
119113  1  0
139120  2  0
154145  1  0
 46 40  1  0
 53 47  1  0
 96 68  2  0
131125  1  0
138132  1  0
 94 69  2  0
 74 70  2  0
 93 75  2  0
 91 76  2  0
 90 78  2  0
 87 80  1  0
  1161  1  0
  6162  1  0
  7163  1  0
 10164  1  0
 22165  1  0
 23166  1  0
 25167  1  0
 25168  1  0
 25169  1  0
 26170  1  0
 27171  1  0
 29172  1  0
 30173  1  0
 32174  1  0
 32175  1  0
 32176  1  0
 33177  1  0
 34178  1  0
 41179  1  0
 42180  1  0
 44181  1  0
 44182  1  0
 44183  1  0
 45184  1  0
 46185  1  0
 48186  1  0
 49187  1  0
 51188  1  0
 51189  1  0
 51190  1  0
 52191  1  0
 53192  1  0
 59193  1  0
 60194  1  0
 61195  1  0
 63196  1  0
 63197  1  0
 64198  1  0
 64199  1  0
 64200  1  0
 65201  1  0
 81202  1  0
 82203  1  0
 83204  1  0
 85205  1  0
 85206  1  0
 86207  1  0
 86208  1  0
 86209  1  0
 87210  1  0
 99211  1  0
 99212  1  0
100213  1  0
100214  1  0
100215  1  0
101216  1  0
101217  1  0
102218  1  0
102219  1  0
102220  1  0
107221  1  0
108222  1  0
110223  1  0
110224  1  0
110225  1  0
111226  1  0
112227  1  0
114228  1  0
115229  1  0
117230  1  0
117231  1  0
117232  1  0
118233  1  0
119234  1  0
126235  1  0
127236  1  0
129237  1  0
129238  1  0
129239  1  0
130240  1  0
131241  1  0
133242  1  0
134243  1  0
136244  1  0
136245  1  0
136246  1  0
137247  1  0
138248  1  0
141249  1  0
M  END

