
     RDKit          3D

244268  0  0  0  0  0  0  0  0999 V2000
   -1.0452    6.6208   -5.7763 C   0  0  0  0  0  0  0  0  0  0  0  0
   -0.1474    6.8153   -6.7542 C   0  0  0  0  0  0  0  0  0  0  0  0
   -0.3751    7.7593   -7.8416 C   0  0  0  0  0  0  0  0  0  0  0  0
   -1.4750    8.3214   -8.1104 O   0  0  0  0  0  0  0  0  0  0  0  0
    0.8955    8.0830   -8.4429 C   0  0  0  0  0  0  0  0  0  0  0  0
    1.1608    8.9885   -9.4796 C   0  0  0  0  0  0  0  0  0  0  0  0
    2.4784    9.1428   -9.9125 C   0  0  0  0  0  0  0  0  0  0  0  0
    3.5011    8.3576   -9.3331 C   0  0  0  0  0  0  0  0  0  0  0  0
    5.1343    8.4555   -9.9910 Cl  0  0  0  0  0  0  0  0  0  0  0  0
    3.2146    7.4603   -8.2939 C   0  0  0  0  0  0  0  0  0  0  0  0
    1.8911    7.3503   -7.8327 C   0  0  0  0  0  0  0  0  0  0  0  0
    1.2895    6.4200   -6.8228 C   0  0  0  0  0  0  0  0  0  0  0  0
    1.8088    5.2413   -6.4021 C   0  0  0  0  0  0  0  0  0  0  0  0
    3.2018    4.9147   -6.4962 C   0  0  0  0  0  0  0  0  0  0  0  0
    4.3236    4.6255   -6.5578 N   0  0  0  0  0  0  0  0  0  0  0  0
    0.9606    4.1854   -5.9136 C   0  0  0  0  0  0  0  0  0  0  0  0
    0.2872    3.3182   -5.5331 N   0  0  0  0  0  0  0  0  0  0  0  0
   -0.7591    6.2620   -4.3731 C   0  0  0  0  0  0  0  0  0  0  0  0
   -1.7491    5.9059   -3.4398 C   0  0  0  0  0  0  0  0  0  0  0  0
   -3.0992    5.5501   -3.7658 N   0  0  0  0  0  0  0  0  0  0  0  0
   -4.1501    6.2630   -3.0787 C   0  0  0  0  0  0  0  0  0  0  0  0
   -4.0673    7.6568   -2.9171 C   0  0  0  0  0  0  0  0  0  0  0  0
   -4.9520    8.3382   -2.0795 C   0  0  0  0  0  0  0  0  0  0  0  0
   -5.9368    7.6360   -1.3786 C   0  0  0  0  0  0  0  0  0  0  0  0
   -6.8718    8.3542   -0.4471 C   0  0  0  0  0  0  0  0  0  0  0  0
   -6.0679    6.2529   -1.5748 C   0  0  0  0  0  0  0  0  0  0  0  0
   -5.1812    5.5704   -2.4136 C   0  0  0  0  0  0  0  0  0  0  0  0
   -3.3688    4.2753   -4.3953 C   0  0  0  0  0  0  0  0  0  0  0  0
   -4.3764    4.1630   -5.3607 C   0  0  0  0  0  0  0  0  0  0  0  0
   -4.6814    2.9196   -5.9170 C   0  0  0  0  0  0  0  0  0  0  0  0
   -3.9890    1.7717   -5.5128 C   0  0  0  0  0  0  0  0  0  0  0  0
   -4.3686    0.4225   -6.0542 C   0  0  0  0  0  0  0  0  0  0  0  0
   -2.9938    1.8818   -4.5276 C   0  0  0  0  0  0  0  0  0  0  0  0
   -2.6856    3.1195   -3.9735 C   0  0  0  0  0  0  0  0  0  0  0  0
   -1.2629    5.9328   -2.1522 C   0  0  0  0  0  0  0  0  0  0  0  0
   -1.9406    5.6151   -0.6643 S   0  0  0  0  0  0  0  0  0  0  0  0
   -0.5104    5.8714    0.2255 C   0  0  0  0  0  0  0  0  0  0  0  0
    0.5219    6.2044   -0.6872 C   0  0  0  0  0  0  0  0  0  0  0  0
    1.8693    6.5225   -0.3332 N   0  0  0  0  0  0  0  0  0  0  0  0
    2.7697    5.4792    0.0695 C   0  0  0  0  0  0  0  0  0  0  0  0
    3.1898    4.5090   -0.8575 C   0  0  0  0  0  0  0  0  0  0  0  0
    4.2402    3.6475   -0.5445 C   0  0  0  0  0  0  0  0  0  0  0  0
    4.8606    3.7151    0.7220 C   0  0  0  0  0  0  0  0  0  0  0  0
    6.0092    2.8058    1.0549 C   0  0  0  0  0  0  0  0  0  0  0  0
    4.4247    4.6695    1.6484 C   0  0  0  0  0  0  0  0  0  0  0  0
    3.3899    5.5435    1.3271 C   0  0  0  0  0  0  0  0  0  0  0  0
    2.3913    7.7871   -0.7992 C   0  0  0  0  0  0  0  0  0  0  0  0
    1.6569    8.9688   -0.5927 C   0  0  0  0  0  0  0  0  0  0  0  0
    2.0364   10.1641   -1.2011 C   0  0  0  0  0  0  0  0  0  0  0  0
    3.1670   10.1996   -2.0346 C   0  0  0  0  0  0  0  0  0  0  0  0
    3.5097   11.4457   -2.8064 C   0  0  0  0  0  0  0  0  0  0  0  0
    3.9192    9.0282   -2.2290 C   0  0  0  0  0  0  0  0  0  0  0  0
    3.5476    7.8423   -1.5988 C   0  0  0  0  0  0  0  0  0  0  0  0
    0.0417    6.2562   -2.0070 C   0  0  0  0  0  0  0  0  0  0  0  0
    0.7011    6.5794   -3.5236 S   0  0  0  0  0  0  0  0  0  0  0  0
   -0.3620    5.2393    1.5366 C   0  0  0  0  0  0  0  0  0  0  0  0
    0.1253    5.7540    2.7646 C   0  0  0  0  0  0  0  0  0  0  0  0
    0.1393    7.2063    3.0735 C   0  0  0  0  0  0  0  0  0  0  0  0
   -1.0271    7.9453    2.8446 C   0  0  0  0  0  0  0  0  0  0  0  0
   -1.1080    9.2847    3.2343 C   0  0  0  0  0  0  0  0  0  0  0  0
   -0.0126    9.9072    3.8321 C   0  0  0  0  0  0  0  0  0  0  0  0
    1.1782    9.1835    4.0521 C   0  0  0  0  0  0  0  0  0  0  0  0
    2.3456    9.8760    4.7067 C   0  0  0  0  0  0  0  0  0  0  0  0
    2.3034    9.7070    6.2178 C   0  0  0  0  0  0  0  0  0  0  0  0
    1.2352    7.8222    3.7065 C   0  0  0  0  0  0  0  0  0  0  0  0
    0.0213    4.7797    3.7728 C   0  0  0  0  0  0  0  0  0  0  0  0
    0.6416    4.5535    5.3545 S   0  0  0  0  0  0  0  0  0  0  0  0
   -0.0904    3.0142    5.5022 C   0  0  0  0  0  0  0  0  0  0  0  0
    0.1164    1.8070    6.1591 C   0  0  0  0  0  0  0  0  0  0  0  0
    1.1421    1.3922    7.0277 C   0  0  0  0  0  0  0  0  0  0  0  0
    1.3792   -0.0172    7.1987 C   0  0  0  0  0  0  0  0  0  0  0  0
    2.4079   -0.3619    8.0097 N   0  0  0  0  0  0  0  0  0  0  0  0
    2.9631    1.1388    8.4375 S   0  0  0  0  0  0  0  0  0  0  0  0
    1.9847    2.2348    7.6713 N   0  0  0  0  0  0  0  0  0  0  0  0
    0.5094   -0.9326    6.5861 C   0  0  0  0  0  0  0  0  0  0  0  0
    0.4231   -2.3141    6.5703 C   0  0  0  0  0  0  0  0  0  0  0  0
    1.5540   -3.5823    6.4640 S   0  0  0  0  0  0  0  0  0  0  0  0
    0.4994   -4.5681    5.5453 C   0  0  0  0  0  0  0  0  0  0  0  0
    0.6748   -5.7134    4.7351 C   0  0  0  0  0  0  0  0  0  0  0  0
    1.8203   -6.6499    4.8322 C   0  0  0  0  0  0  0  0  0  0  0  0
    1.5854   -8.0309    4.8050 C   0  0  0  0  0  0  0  0  0  0  0  0
    2.6215   -8.9331    5.0799 C   0  0  0  0  0  0  0  0  0  0  0  0
    3.8944   -8.4664    5.3908 C   0  0  0  0  0  0  0  0  0  0  0  0
    4.1548   -7.0858    5.4231 C   0  0  0  0  0  0  0  0  0  0  0  0
    5.5331   -6.5859    5.7815 C   0  0  0  0  0  0  0  0  0  0  0  0
    6.5020   -6.7098    4.6068 C   0  0  0  0  0  0  0  0  0  0  0  0
    3.1256   -6.1869    5.1038 C   0  0  0  0  0  0  0  0  0  0  0  0
   -0.4333   -5.9095    3.8701 C   0  0  0  0  0  0  0  0  0  0  0  0
   -1.5517   -4.6556    4.1336 S   0  0  0  0  0  0  0  0  0  0  0  0
   -0.6758   -3.9052    5.3359 C   0  0  0  0  0  0  0  0  0  0  0  0
   -0.7086   -2.6349    5.8821 C   0  0  0  0  0  0  0  0  0  0  0  0
   -1.3668   -1.5398    5.4369 N   0  0  0  0  0  0  0  0  0  0  0  0
   -0.5595   -0.5081    5.8016 C   0  0  0  0  0  0  0  0  0  0  0  0
   -0.6411    0.8635    5.4573 C   0  0  0  0  0  0  0  0  0  0  0  0
   -1.0897    1.3757    4.2815 N   0  0  0  0  0  0  0  0  0  0  0  0
   -0.7810    2.6956    4.3780 C   0  0  0  0  0  0  0  0  0  0  0  0
   -0.6527    3.6499    3.3969 C   0  0  0  0  0  0  0  0  0  0  0  0
   -1.0076    3.7014    1.7782 S   0  0  0  0  0  0  0  0  0  0  0  0
   -1.1388    0.6575    2.9975 C   0  0  0  0  0  0  0  0  0  0  0  0
    0.2675    0.5663    2.3870 C   0  0  0  0  0  0  0  0  0  0  0  0
   -2.8105   -1.5503    5.1156 C   0  0  0  0  0  0  0  0  0  0  0  0
   -3.5727   -0.4612    5.8683 C   0  0  0  0  0  0  0  0  0  0  0  0
   -0.3776   -6.5517    2.5420 C   0  0  0  0  0  0  0  0  0  0  0  0
    0.0268   -5.8251    1.4139 C   0  0  0  0  0  0  0  0  0  0  0  0
    1.0289   -4.7968    1.4033 N   0  0  0  0  0  0  0  0  0  0  0  0
    2.4152   -5.2206    1.5008 C   0  0  0  0  0  0  0  0  0  0  0  0
    2.7900   -6.5498    1.1927 C   0  0  0  0  0  0  0  0  0  0  0  0
    4.1270   -6.8750    1.0019 C   0  0  0  0  0  0  0  0  0  0  0  0
    5.1286   -5.9262    1.2262 C   0  0  0  0  0  0  0  0  0  0  0  0
    6.5540   -6.2614    0.9160 C   0  0  0  0  0  0  0  0  0  0  0  0
    4.7749   -4.6270    1.6396 C   0  0  0  0  0  0  0  0  0  0  0  0
    3.4260   -4.2882    1.8031 C   0  0  0  0  0  0  0  0  0  0  0  0
    0.6864   -3.5641    0.7017 C   0  0  0  0  0  0  0  0  0  0  0  0
    1.5210   -3.0381   -0.3117 C   0  0  0  0  0  0  0  0  0  0  0  0
    1.1302   -1.9228   -1.0548 C   0  0  0  0  0  0  0  0  0  0  0  0
   -0.0984   -1.3022   -0.8089 C   0  0  0  0  0  0  0  0  0  0  0  0
   -0.5013   -0.0934   -1.6067 C   0  0  0  0  0  0  0  0  0  0  0  0
   -0.9617   -1.8497    0.1497 C   0  0  0  0  0  0  0  0  0  0  0  0
   -0.5664   -2.9547    0.9127 C   0  0  0  0  0  0  0  0  0  0  0  0
   -0.5293   -6.3202    0.2386 C   0  0  0  0  0  0  0  0  0  0  0  0
   -0.5416   -5.7543   -1.3344 S   0  0  0  0  0  0  0  0  0  0  0  0
   -1.5160   -7.0022   -1.9105 C   0  0  0  0  0  0  0  0  0  0  0  0
   -1.8609   -7.8682   -0.8494 C   0  0  0  0  0  0  0  0  0  0  0  0
   -2.4205   -9.1740   -1.0599 N   0  0  0  0  0  0  0  0  0  0  0  0
   -3.5104   -9.6531   -0.2670 C   0  0  0  0  0  0  0  0  0  0  0  0
   -3.5409  -10.9885    0.1766 C   0  0  0  0  0  0  0  0  0  0  0  0
   -4.6030  -11.4480    0.9592 C   0  0  0  0  0  0  0  0  0  0  0  0
   -5.6482  -10.5841    1.3067 C   0  0  0  0  0  0  0  0  0  0  0  0
   -6.7955  -11.1031    2.1216 C   0  0  0  0  0  0  0  0  0  0  0  0
   -5.6352   -9.2586    0.8409 C   0  0  0  0  0  0  0  0  0  0  0  0
   -4.5704   -8.7970    0.0726 C   0  0  0  0  0  0  0  0  0  0  0  0
   -1.8300   -9.9987   -2.0825 C   0  0  0  0  0  0  0  0  0  0  0  0
   -0.4361  -10.1421   -2.1469 C   0  0  0  0  0  0  0  0  0  0  0  0
    0.1599  -10.8160   -3.2110 C   0  0  0  0  0  0  0  0  0  0  0  0
   -0.6311  -11.3408   -4.2433 C   0  0  0  0  0  0  0  0  0  0  0  0
    0.0276  -12.0251   -5.4015 C   0  0  0  0  0  0  0  0  0  0  0  0
   -2.0294  -11.2196   -4.1718 C   0  0  0  0  0  0  0  0  0  0  0  0
   -2.6239  -10.5513   -3.0989 C   0  0  0  0  0  0  0  0  0  0  0  0
   -1.2958   -7.4297    0.3581 C   0  0  0  0  0  0  0  0  0  0  0  0
   -1.4293   -7.7940    2.0050 S   0  0  0  0  0  0  0  0  0  0  0  0
   -2.1642   -6.9038   -3.2191 C   0  0  0  0  0  0  0  0  0  0  0  0
   -1.4514   -6.8604   -4.3549 C   0  0  0  0  0  0  0  0  0  0  0  0
    0.2748   -7.3450   -4.4782 S   0  0  0  0  0  0  0  0  0  0  0  0
    0.3368   -6.6168   -6.1356 C   0  0  0  0  0  0  0  0  0  0  0  0
    1.0259   -7.4989   -7.3376 S   0  0  0  0  0  0  0  0  0  0  0  0
   -0.8374   -5.8700   -6.4587 N   0  0  0  0  0  0  0  0  0  0  0  0
   -0.9285   -4.9132   -7.5592 C   0  0  0  0  0  0  0  0  0  0  0  0
   -1.2143   -3.4887   -7.0536 C   0  0  0  0  0  0  0  0  0  0  0  0
   -1.8957   -6.1582   -5.5548 C   0  0  0  0  0  0  0  0  0  0  0  0
   -3.1104   -5.9009   -5.8232 O   0  0  0  0  0  0  0  0  0  0  0  0
   -2.0742    6.8930   -5.9919 H   0  0  0  0  0  0  0  0  0  0  0  0
    0.3570    9.5725   -9.9332 H   0  0  0  0  0  0  0  0  0  0  0  0
    2.7133    9.8218  -10.7272 H   0  0  0  0  0  0  0  0  0  0  0  0
    4.0212    6.8850   -7.8800 H   0  0  0  0  0  0  0  0  0  0  0  0
   -3.2768    8.2195   -3.4104 H   0  0  0  0  0  0  0  0  0  0  0  0
   -4.8404    9.3987   -1.9544 H   0  0  0  0  0  0  0  0  0  0  0  0
   -7.8352    8.5370   -0.9583 H   0  0  0  0  0  0  0  0  0  0  0  0
   -7.0427    7.7470    0.4589 H   0  0  0  0  0  0  0  0  0  0  0  0
   -6.4428    9.3255   -0.1357 H   0  0  0  0  0  0  0  0  0  0  0  0
   -6.8285    5.6886   -1.0501 H   0  0  0  0  0  0  0  0  0  0  0  0
   -5.2577    4.4949   -2.4919 H   0  0  0  0  0  0  0  0  0  0  0  0
   -4.9207    5.0391   -5.6783 H   0  0  0  0  0  0  0  0  0  0  0  0
   -5.4656    2.8535   -6.6631 H   0  0  0  0  0  0  0  0  0  0  0  0
   -5.1836   -0.0159   -5.4400 H   0  0  0  0  0  0  0  0  0  0  0  0
   -3.4971   -0.2699   -6.0365 H   0  0  0  0  0  0  0  0  0  0  0  0
   -4.7190    0.5096   -7.1039 H   0  0  0  0  0  0  0  0  0  0  0  0
   -2.4659    1.0055   -4.1779 H   0  0  0  0  0  0  0  0  0  0  0  0
   -1.9319    3.1790   -3.2055 H   0  0  0  0  0  0  0  0  0  0  0  0
    2.7190    4.4104   -1.8237 H   0  0  0  0  0  0  0  0  0  0  0  0
    4.6080    2.9475   -1.2934 H   0  0  0  0  0  0  0  0  0  0  0  0
    6.7731    3.3624    1.6399 H   0  0  0  0  0  0  0  0  0  0  0  0
    5.6535    1.9412    1.6517 H   0  0  0  0  0  0  0  0  0  0  0  0
    6.5019    2.4290    0.1335 H   0  0  0  0  0  0  0  0  0  0  0  0
    4.9252    4.7779    2.5993 H   0  0  0  0  0  0  0  0  0  0  0  0
    3.1025    6.3091    2.0332 H   0  0  0  0  0  0  0  0  0  0  0  0
    0.7544    8.9554    0.0019 H   0  0  0  0  0  0  0  0  0  0  0  0
    1.4307   11.0510   -1.0728 H   0  0  0  0  0  0  0  0  0  0  0  0
    4.6115   11.5284   -2.9495 H   0  0  0  0  0  0  0  0  0  0  0  0
    3.1595   12.3514   -2.2708 H   0  0  0  0  0  0  0  0  0  0  0  0
    3.0198   11.3960   -3.8032 H   0  0  0  0  0  0  0  0  0  0  0  0
    4.7799    9.0358   -2.8890 H   0  0  0  0  0  0  0  0  0  0  0  0
    4.1276    6.9549   -1.7972 H   0  0  0  0  0  0  0  0  0  0  0  0
   -1.9006    7.4808    2.4056 H   0  0  0  0  0  0  0  0  0  0  0  0
   -2.0302    9.8366    3.0961 H   0  0  0  0  0  0  0  0  0  0  0  0
   -0.0915   10.9386    4.1370 H   0  0  0  0  0  0  0  0  0  0  0  0
    3.3035    9.4678    4.3075 H   0  0  0  0  0  0  0  0  0  0  0  0
    2.3264   10.9612    4.4659 H   0  0  0  0  0  0  0  0  0  0  0  0
    2.4723    8.6443    6.4954 H   0  0  0  0  0  0  0  0  0  0  0  0
    3.1083   10.3170    6.6850 H   0  0  0  0  0  0  0  0  0  0  0  0
    1.3263   10.0480    6.6253 H   0  0  0  0  0  0  0  0  0  0  0  0
    2.1266    7.2494    3.9358 H   0  0  0  0  0  0  0  0  0  0  0  0
    0.5930   -8.4247    4.6291 H   0  0  0  0  0  0  0  0  0  0  0  0
    2.4315   -9.9958    5.0686 H   0  0  0  0  0  0  0  0  0  0  0  0
    4.6819   -9.1733    5.6192 H   0  0  0  0  0  0  0  0  0  0  0  0
    5.9183   -7.1644    6.6459 H   0  0  0  0  0  0  0  0  0  0  0  0
    5.4787   -5.5273    6.1178 H   0  0  0  0  0  0  0  0  0  0  0  0
    6.8893   -5.7079    4.3228 H   0  0  0  0  0  0  0  0  0  0  0  0
    7.3720   -7.3388    4.8972 H   0  0  0  0  0  0  0  0  0  0  0  0
    6.0301   -7.1801    3.7175 H   0  0  0  0  0  0  0  0  0  0  0  0
    3.3360   -5.1276    5.0882 H   0  0  0  0  0  0  0  0  0  0  0  0
   -1.8399    1.1618    2.3016 H   0  0  0  0  0  0  0  0  0  0  0  0
   -1.5028   -0.3616    3.1144 H   0  0  0  0  0  0  0  0  0  0  0  0
    0.8540   -0.2124    2.9222 H   0  0  0  0  0  0  0  0  0  0  0  0
    0.1974    0.2929    1.3226 H   0  0  0  0  0  0  0  0  0  0  0  0
    0.8210    1.5225    2.4542 H   0  0  0  0  0  0  0  0  0  0  0  0
   -2.9931   -1.4902    4.0289 H   0  0  0  0  0  0  0  0  0  0  0  0
   -3.2457   -2.5245    5.4403 H   0  0  0  0  0  0  0  0  0  0  0  0
   -3.2369   -0.4072    6.9237 H   0  0  0  0  0  0  0  0  0  0  0  0
   -4.6529   -0.6816    5.8417 H   0  0  0  0  0  0  0  0  0  0  0  0
   -3.4278    0.5214    5.3626 H   0  0  0  0  0  0  0  0  0  0  0  0
    2.0569   -7.3159    0.9696 H   0  0  0  0  0  0  0  0  0  0  0  0
    4.3644   -7.8719    0.6412 H   0  0  0  0  0  0  0  0  0  0  0  0
    6.8867   -5.6594    0.0424 H   0  0  0  0  0  0  0  0  0  0  0  0
    7.2070   -6.0383    1.7847 H   0  0  0  0  0  0  0  0  0  0  0  0
    6.6641   -7.3396    0.6590 H   0  0  0  0  0  0  0  0  0  0  0  0
    5.5317   -3.8690    1.8077 H   0  0  0  0  0  0  0  0  0  0  0  0
    3.1829   -3.2629    2.0482 H   0  0  0  0  0  0  0  0  0  0  0  0
    2.4810   -3.4705   -0.5319 H   0  0  0  0  0  0  0  0  0  0  0  0
    1.8040   -1.5284   -1.8016 H   0  0  0  0  0  0  0  0  0  0  0  0
    0.3922    0.5214   -1.8548 H   0  0  0  0  0  0  0  0  0  0  0  0
   -1.2010    0.5425   -1.0368 H   0  0  0  0  0  0  0  0  0  0  0  0
   -0.9884   -0.4182   -2.5502 H   0  0  0  0  0  0  0  0  0  0  0  0
   -1.9217   -1.3812    0.3319 H   0  0  0  0  0  0  0  0  0  0  0  0
   -1.2434   -3.3169    1.6729 H   0  0  0  0  0  0  0  0  0  0  0  0
   -2.7368  -11.6672   -0.0689 H   0  0  0  0  0  0  0  0  0  0  0  0
   -4.6084  -12.4769    1.3011 H   0  0  0  0  0  0  0  0  0  0  0  0
   -6.4376  -11.8496    2.8625 H   0  0  0  0  0  0  0  0  0  0  0  0
   -7.2987  -10.2893    2.6799 H   0  0  0  0  0  0  0  0  0  0  0  0
   -7.5323  -11.5933    1.4550 H   0  0  0  0  0  0  0  0  0  0  0  0
   -6.4413   -8.5882    1.0852 H   0  0  0  0  0  0  0  0  0  0  0  0
   -4.5789   -7.7754   -0.2637 H   0  0  0  0  0  0  0  0  0  0  0  0
    0.1786   -9.7003   -1.3751 H   0  0  0  0  0  0  0  0  0  0  0  0
    1.2351  -10.8973   -3.2453 H   0  0  0  0  0  0  0  0  0  0  0  0
   -0.7085  -12.2685   -6.1941 H   0  0  0  0  0  0  0  0  0  0  0  0
    0.7916  -11.3537   -5.8359 H   0  0  0  0  0  0  0  0  0  0  0  0
    0.5165  -12.9609   -5.0594 H   0  0  0  0  0  0  0  0  0  0  0  0
   -2.6542  -11.5964   -4.9729 H   0  0  0  0  0  0  0  0  0  0  0  0
   -3.6925  -10.4058   -3.0985 H   0  0  0  0  0  0  0  0  0  0  0  0
   -3.1523   -6.4779   -3.2124 H   0  0  0  0  0  0  0  0  0  0  0  0
   -1.7308   -5.2092   -8.2789 H   0  0  0  0  0  0  0  0  0  0  0  0
    0.0198   -4.8806   -8.1613 H   0  0  0  0  0  0  0  0  0  0  0  0
   -1.6797   -3.4908   -6.0479 H   0  0  0  0  0  0  0  0  0  0  0  0
   -1.9340   -2.9861   -7.7437 H   0  0  0  0  0  0  0  0  0  0  0  0
   -0.2647   -2.8939   -6.9719 H   0  0  0  0  0  0  0  0  0  0  0  0
  1  2  2  3
  2  3  1  0
  3  4  2  0
  3  5  1  0
  5  6  2  0
  6  7  1  0
  7  8  2  0
  8  9  1  0
  8 10  1  0
 10 11  2  0
 11 12  1  0
 12 13  2  3
 13 14  1  0
 14 15  3  0
 13 16  1  0
 16 17  3  0
  1 18  1  0
 18 19  2  0
 19 20  1  0
 20 21  1  0
 21 22  2  0
 22 23  1  0
 23 24  2  0
 24 25  1  0
 24 26  1  0
 26 27  2  0
 20 28  1  0
 28 29  2  0
 29 30  1  0
 30 31  2  0
 31 32  1  0
 31 33  1  0
 33 34  2  0
 19 35  1  0
 35 36  1  0
 36 37  1  0
 37 38  2  0
 38 39  1  0
 39 40  1  0
 40 41  2  0
 41 42  1  0
 42 43  2  0
 43 44  1  0
 43 45  1  0
 45 46  2  0
 39 47  1  0
 47 48  2  0
 48 49  1  0
 49 50  2  0
 50 51  1  0
 50 52  1  0
 52 53  2  0
 38 54  1  0
 54 55  1  0
 37 56  1  0
 56 57  2  0
 57 58  1  0
 58 59  2  0
 59 60  1  0
 60 61  2  0
 61 62  1  0
 62 63  1  0
 63 64  1  0
 62 65  2  0
 57 66  1  0
 66 67  1  0
 67 68  1  0
 68 69  1  0
 69 70  1  0
 70 71  1  0
 71 72  2  0
 72 73  1  0
 73 74  1  0
 71 75  1  0
 75 76  1  0
 76 77  1  0
 77 78  1  0
 78 79  1  0
 79 80  1  0
 80 81  2  0
 81 82  1  0
 82 83  2  0
 83 84  1  0
 84 85  1  0
 85 86  1  0
 84 87  2  0
 79 88  2  0
 88 89  1  0
 89 90  1  0
 90 91  1  0
 91 92  1  0
 92 93  1  0
 93 94  1  0
 94 95  1  0
 95 96  1  0
 96 97  1  0
 97 98  1  0
 95 99  1  0
 99100  1  0
 92101  1  0
101102  1  0
 88103  1  0
103104  2  0
104105  1  0
105106  1  0
106107  2  0
107108  1  0
108109  2  0
109110  1  0
109111  1  0
111112  2  0
105113  1  0
113114  2  0
114115  1  0
115116  2  0
116117  1  0
116118  1  0
118119  2  0
104120  1  0
120121  1  0
121122  1  0
122123  2  0
123124  1  0
124125  1  0
125126  2  0
126127  1  0
127128  2  0
128129  1  0
128130  1  0
130131  2  0
124132  1  0
132133  2  0
133134  1  0
134135  2  0
135136  1  0
135137  1  0
137138  2  0
123139  1  0
139140  1  0
122141  1  0
141142  2  3
142143  1  0
143144  1  0
144145  2  0
144146  1  0
146147  1  0
147148  1  0
146149  1  0
149150  2  0
 12  2  1  0
 55 18  1  0
 98 56  1  0
140103  1  0
149142  1  0
 11  5  1  0
 27 21  1  0
 34 28  1  0
 54 35  2  0
 65 58  1  0
 97 66  2  0
112106  1  0
119113  1  0
139120  2  0
 46 40  1  0
 53 47  1  0
 96 68  2  0
131125  1  0
138132  1  0
 94 69  2  0
 74 70  2  0
 93 75  2  0
 91 76  2  0
 90 78  2  0
 87 80  1  0
  1151  1  0
  6152  1  0
  7153  1  0
 10154  1  0
 22155  1  0
 23156  1  0
 25157  1  0
 25158  1  0
 25159  1  0
 26160  1  0
 27161  1  0
 29162  1  0
 30163  1  0
 32164  1  0
 32165  1  0
 32166  1  0
 33167  1  0
 34168  1  0
 41169  1  0
 42170  1  0
 44171  1  0
 44172  1  0
 44173  1  0
 45174  1  0
 46175  1  0
 48176  1  0
 49177  1  0
 51178  1  0
 51179  1  0
 51180  1  0
 52181  1  0
 53182  1  0
 59183  1  0
 60184  1  0
 61185  1  0
 63186  1  0
 63187  1  0
 64188  1  0
 64189  1  0
 64190  1  0
 65191  1  0
 81192  1  0
 82193  1  0
 83194  1  0
 85195  1  0
 85196  1  0
 86197  1  0
 86198  1  0
 86199  1  0
 87200  1  0
 99201  1  0
 99202  1  0
100203  1  0
100204  1  0
100205  1  0
101206  1  0
101207  1  0
102208  1  0
102209  1  0
102210  1  0
107211  1  0
108212  1  0
110213  1  0
110214  1  0
110215  1  0
111216  1  0
112217  1  0
114218  1  0
115219  1  0
117220  1  0
117221  1  0
117222  1  0
118223  1  0
119224  1  0
126225  1  0
127226  1  0
129227  1  0
129228  1  0
129229  1  0
130230  1  0
131231  1  0
133232  1  0
134233  1  0
136234  1  0
136235  1  0
136236  1  0
137237  1  0
138238  1  0
141239  1  0
147240  1  0
147241  1  0
148242  1  0
148243  1  0
148244  1  0
M  END

