
     RDKit          3D

198217  0  0  0  0  0  0  0  0999 V2000
    9.1096   -5.3025   -1.1616 C   0  0  0  0  0  0  0  0  0  0  0  0
   10.2857   -5.6462   -0.5965 C   0  0  0  0  0  0  0  0  0  0  0  0
   11.1779   -4.7365    0.1225 C   0  0  0  0  0  0  0  0  0  0  0  0
   11.2122   -3.4797    0.0051 O   0  0  0  0  0  0  0  0  0  0  0  0
   12.0691   -5.5227    0.9395 C   0  0  0  0  0  0  0  0  0  0  0  0
   13.0036   -5.0692    1.8701 C   0  0  0  0  0  0  0  0  0  0  0  0
   13.7006   -6.0116    2.6319 C   0  0  0  0  0  0  0  0  0  0  0  0
   13.4301   -7.3858    2.4741 C   0  0  0  0  0  0  0  0  0  0  0  0
   14.2886   -8.5614    3.4589 Cl  0  0  0  0  0  0  0  0  0  0  0  0
   12.4797   -7.8215    1.5351 C   0  0  0  0  0  0  0  0  0  0  0  0
   11.8232   -6.8682    0.7354 C   0  0  0  0  0  0  0  0  0  0  0  0
   10.7885   -7.0283   -0.3265 C   0  0  0  0  0  0  0  0  0  0  0  0
   10.4988   -8.1515   -1.0334 C   0  0  0  0  0  0  0  0  0  0  0  0
    9.7224   -8.1144   -2.2518 C   0  0  0  0  0  0  0  0  0  0  0  0
    9.1011   -8.0713   -3.2323 N   0  0  0  0  0  0  0  0  0  0  0  0
   11.0668   -9.4301   -0.7043 C   0  0  0  0  0  0  0  0  0  0  0  0
   11.5229  -10.4683   -0.4605 N   0  0  0  0  0  0  0  0  0  0  0  0
    8.4817   -3.9770   -1.0389 C   0  0  0  0  0  0  0  0  0  0  0  0
    7.5821   -3.4415   -1.9919 C   0  0  0  0  0  0  0  0  0  0  0  0
    7.6691   -3.6682   -3.4279 N   0  0  0  0  0  0  0  0  0  0  0  0
    8.8725   -4.1850   -4.0314 C   0  0  0  0  0  0  0  0  0  0  0  0
   10.1356   -3.6561   -3.6905 C   0  0  0  0  0  0  0  0  0  0  0  0
   11.2928   -4.1140   -4.3266 C   0  0  0  0  0  0  0  0  0  0  0  0
   11.2094   -5.0714   -5.3441 C   0  0  0  0  0  0  0  0  0  0  0  0
   12.4445   -5.4759   -6.0915 C   0  0  0  0  0  0  0  0  0  0  0  0
    9.9506   -5.5820   -5.7118 C   0  0  0  0  0  0  0  0  0  0  0  0
    8.7992   -5.1487   -5.0511 C   0  0  0  0  0  0  0  0  0  0  0  0
    6.7938   -2.9453   -4.3137 C   0  0  0  0  0  0  0  0  0  0  0  0
    6.9368   -1.5629   -4.4912 C   0  0  0  0  0  0  0  0  0  0  0  0
    6.0260   -0.8468   -5.2770 C   0  0  0  0  0  0  0  0  0  0  0  0
    4.9624   -1.5173   -5.9017 C   0  0  0  0  0  0  0  0  0  0  0  0
    3.9604   -0.7393   -6.7043 C   0  0  0  0  0  0  0  0  0  0  0  0
    4.8431   -2.9068   -5.7552 C   0  0  0  0  0  0  0  0  0  0  0  0
    5.7428   -3.6150   -4.9612 C   0  0  0  0  0  0  0  0  0  0  0  0
    6.6881   -2.5481   -1.3636 C   0  0  0  0  0  0  0  0  0  0  0  0
    5.2383   -1.7950   -1.7679 S   0  0  0  0  0  0  0  0  0  0  0  0
    4.9558   -1.1001   -0.2400 C   0  0  0  0  0  0  0  0  0  0  0  0
    6.0357   -1.4562    0.6049 C   0  0  0  0  0  0  0  0  0  0  0  0
    6.3990   -0.7688    1.8199 N   0  0  0  0  0  0  0  0  0  0  0  0
    5.7202   -1.0927    3.0500 C   0  0  0  0  0  0  0  0  0  0  0  0
    5.4072   -2.4218    3.3629 C   0  0  0  0  0  0  0  0  0  0  0  0
    4.6845   -2.7208    4.5266 C   0  0  0  0  0  0  0  0  0  0  0  0
    4.2904   -1.6923    5.3929 C   0  0  0  0  0  0  0  0  0  0  0  0
    3.4574   -2.0066    6.6084 C   0  0  0  0  0  0  0  0  0  0  0  0
    4.6074   -0.3650    5.0860 C   0  0  0  0  0  0  0  0  0  0  0  0
    5.3149   -0.0643    3.9173 C   0  0  0  0  0  0  0  0  0  0  0  0
    7.5438    0.1333    1.8081 C   0  0  0  0  0  0  0  0  0  0  0  0
    8.3088    0.3424    2.9802 C   0  0  0  0  0  0  0  0  0  0  0  0
    9.3952    1.2274    2.9702 C   0  0  0  0  0  0  0  0  0  0  0  0
    9.7659    1.8862    1.7920 C   0  0  0  0  0  0  0  0  0  0  0  0
   10.9313    2.8417    1.7720 C   0  0  0  0  0  0  0  0  0  0  0  0
    9.0364    1.6553    0.6212 C   0  0  0  0  0  0  0  0  0  0  0  0
    7.9354    0.7903    0.6285 C   0  0  0  0  0  0  0  0  0  0  0  0
    6.9390   -2.2933   -0.0567 C   0  0  0  0  0  0  0  0  0  0  0  0
    8.2132   -3.2302    0.4701 S   0  0  0  0  0  0  0  0  0  0  0  0
    3.6697   -0.4537    0.1206 C   0  0  0  0  0  0  0  0  0  0  0  0
    2.9987   -0.6035    1.3458 C   0  0  0  0  0  0  0  0  0  0  0  0
    1.7129   -0.0867    1.2965 C   0  0  0  0  0  0  0  0  0  0  0  0
    0.4713    0.0055    2.4549 S   0  0  0  0  0  0  0  0  0  0  0  0
   -0.5679    0.6942    1.3012 C   0  0  0  0  0  0  0  0  0  0  0  0
   -1.8885    1.2588    1.2934 C   0  0  0  0  0  0  0  0  0  0  0  0
   -2.8570    1.3137    2.3097 C   0  0  0  0  0  0  0  0  0  0  0  0
   -4.0914    1.8906    1.9726 C   0  0  0  0  0  0  0  0  0  0  0  0
   -5.3403    2.0131    2.8510 C   0  0  0  0  0  0  0  0  0  0  0  0
   -5.8514    0.6282    3.2817 C   0  0  0  0  0  0  0  0  0  0  0  0
   -5.9884   -0.3895    2.3126 C   0  0  0  0  0  0  0  0  0  0  0  0
   -6.5372   -1.6298    2.6386 C   0  0  0  0  0  0  0  0  0  0  0  0
   -6.9730   -1.8919    3.9463 C   0  0  0  0  0  0  0  0  0  0  0  0
   -7.5685   -3.2319    4.2914 C   0  0  0  0  0  0  0  0  0  0  0  0
   -6.4737   -4.2585    4.5644 C   0  0  0  0  0  0  0  0  0  0  0  0
   -6.8200   -0.8994    4.9253 C   0  0  0  0  0  0  0  0  0  0  0  0
   -6.2806    0.3442    4.5974 C   0  0  0  0  0  0  0  0  0  0  0  0
   -5.1088    3.0013    4.0291 C   0  0  0  0  0  0  0  0  0  0  0  0
   -4.5610    4.3739    3.6147 C   0  0  0  0  0  0  0  0  0  0  0  0
   -6.2863    2.6003    1.8328 C   0  0  0  0  0  0  0  0  0  0  0  0
   -5.6863    2.7960    0.6247 C   0  0  0  0  0  0  0  0  0  0  0  0
   -4.3214    2.3655    0.6751 C   0  0  0  0  0  0  0  0  0  0  0  0
   -3.3590    2.3098   -0.3363 C   0  0  0  0  0  0  0  0  0  0  0  0
   -2.1182    1.7424   -0.0028 C   0  0  0  0  0  0  0  0  0  0  0  0
   -0.9385    1.4692   -0.9369 C   0  0  0  0  0  0  0  0  0  0  0  0
   -1.3947    0.4155   -1.9921 C   0  0  0  0  0  0  0  0  0  0  0  0
   -0.2994   -0.0538   -2.9492 C   0  0  0  0  0  0  0  0  0  0  0  0
   -0.3954    2.7933   -1.5013 C   0  0  0  0  0  0  0  0  0  0  0  0
    0.4192    3.6242   -0.7027 C   0  0  0  0  0  0  0  0  0  0  0  0
    0.9031    4.8417   -1.1874 C   0  0  0  0  0  0  0  0  0  0  0  0
    0.5389    5.2933   -2.4646 C   0  0  0  0  0  0  0  0  0  0  0  0
    1.1200    6.5738   -3.0102 C   0  0  0  0  0  0  0  0  0  0  0  0
    2.4407    6.3003   -3.7220 C   0  0  0  0  0  0  0  0  0  0  0  0
   -0.3135    4.5050   -3.2482 C   0  0  0  0  0  0  0  0  0  0  0  0
   -0.7870    3.2774   -2.7658 C   0  0  0  0  0  0  0  0  0  0  0  0
    0.0060    0.8290    0.0649 C   0  0  0  0  0  0  0  0  0  0  0  0
    1.3284    0.4017    0.0811 C   0  0  0  0  0  0  0  0  0  0  0  0
    2.6034    0.2750   -1.0110 S   0  0  0  0  0  0  0  0  0  0  0  0
   -6.7740    3.1776   -0.6208 S   0  0  0  0  0  0  0  0  0  0  0  0
   -8.0604    3.1199    0.4804 C   0  0  0  0  0  0  0  0  0  0  0  0
   -9.4274    3.2691    0.3194 C   0  0  0  0  0  0  0  0  0  0  0  0
  -10.0916    3.0603    1.5425 C   0  0  0  0  0  0  0  0  0  0  0  0
   -8.9720    2.6683    2.7772 S   0  0  0  0  0  0  0  0  0  0  0  0
   -7.6547    2.7925    1.7437 C   0  0  0  0  0  0  0  0  0  0  0  0
  -11.5436    3.2257    1.7015 C   0  0  0  0  0  0  0  0  0  0  0  0
  -12.2534    3.4130    2.8911 C   0  0  0  0  0  0  0  0  0  0  0  0
  -13.6170    3.6921    2.6860 C   0  0  0  0  0  0  0  0  0  0  0  0
  -14.7440    4.0501    4.0428 S   0  0  0  0  0  0  0  0  0  0  0  0
  -14.9220    2.3018    4.5292 C   0  0  0  0  0  0  0  0  0  0  0  0
  -15.8701    2.1857    5.7235 C   0  0  0  0  0  0  0  0  0  0  0  0
  -13.9706    3.7509    1.3349 C   0  0  0  0  0  0  0  0  0  0  0  0
  -12.6046    3.4042    0.4234 S   0  0  0  0  0  0  0  0  0  0  0  0
  -15.2815    4.1207    0.7480 C   0  0  0  0  0  0  0  0  0  0  0  0
  -15.3556    4.8971   -0.3498 C   0  0  0  0  0  0  0  0  0  0  0  0
  -16.2421    4.6003   -1.4792 C   0  0  0  0  0  0  0  0  0  0  0  0
  -17.3102    3.9326   -1.4326 O   0  0  0  0  0  0  0  0  0  0  0  0
  -15.5843    5.0554   -2.6962 C   0  0  0  0  0  0  0  0  0  0  0  0
  -15.8947    4.7401   -4.0241 C   0  0  0  0  0  0  0  0  0  0  0  0
  -14.9873    5.0906   -5.0371 C   0  0  0  0  0  0  0  0  0  0  0  0
  -13.7793    5.7382   -4.7056 C   0  0  0  0  0  0  0  0  0  0  0  0
  -12.6247    6.1466   -5.9733 Cl  0  0  0  0  0  0  0  0  0  0  0  0
  -13.4732    6.0293   -3.3683 C   0  0  0  0  0  0  0  0  0  0  0  0
  -14.3979    5.6900   -2.3687 C   0  0  0  0  0  0  0  0  0  0  0  0
  -14.2725    5.7589   -0.8913 C   0  0  0  0  0  0  0  0  0  0  0  0
  -13.4808    6.5763   -0.1644 C   0  0  0  0  0  0  0  0  0  0  0  0
  -12.4100    7.3571   -0.7274 C   0  0  0  0  0  0  0  0  0  0  0  0
  -11.5263    7.9763   -1.1532 N   0  0  0  0  0  0  0  0  0  0  0  0
  -13.7933    6.8425    1.2232 C   0  0  0  0  0  0  0  0  0  0  0  0
  -14.0817    7.0715    2.3261 N   0  0  0  0  0  0  0  0  0  0  0  0
    8.4812   -6.0522   -1.6023 H   0  0  0  0  0  0  0  0  0  0  0  0
   13.1739   -4.0091    2.0157 H   0  0  0  0  0  0  0  0  0  0  0  0
   14.4335   -5.6768    3.3497 H   0  0  0  0  0  0  0  0  0  0  0  0
   12.2606   -8.8703    1.4842 H   0  0  0  0  0  0  0  0  0  0  0  0
   10.2186   -2.8808   -2.9445 H   0  0  0  0  0  0  0  0  0  0  0  0
   12.2556   -3.6948   -4.0479 H   0  0  0  0  0  0  0  0  0  0  0  0
   13.3413   -5.3992   -5.4416 H   0  0  0  0  0  0  0  0  0  0  0  0
   12.5874   -4.8065   -6.9695 H   0  0  0  0  0  0  0  0  0  0  0  0
   12.3643   -6.5256   -6.4513 H   0  0  0  0  0  0  0  0  0  0  0  0
    9.8654   -6.3004   -6.5158 H   0  0  0  0  0  0  0  0  0  0  0  0
    7.8355   -5.5668   -5.3401 H   0  0  0  0  0  0  0  0  0  0  0  0
    7.7414   -1.0337   -3.9903 H   0  0  0  0  0  0  0  0  0  0  0  0
    6.1282    0.2270   -5.3674 H   0  0  0  0  0  0  0  0  0  0  0  0
    4.4737   -0.2027   -7.5311 H   0  0  0  0  0  0  0  0  0  0  0  0
    3.1893   -1.4014   -7.1546 H   0  0  0  0  0  0  0  0  0  0  0  0
    3.4437    0.0029   -6.0598 H   0  0  0  0  0  0  0  0  0  0  0  0
    4.0284   -3.4393   -6.2370 H   0  0  0  0  0  0  0  0  0  0  0  0
    5.6307   -4.6814   -4.8398 H   0  0  0  0  0  0  0  0  0  0  0  0
    5.7095   -3.2317    2.7093 H   0  0  0  0  0  0  0  0  0  0  0  0
    4.4227   -3.7466    4.7382 H   0  0  0  0  0  0  0  0  0  0  0  0
    3.8485   -2.9204    7.1190 H   0  0  0  0  0  0  0  0  0  0  0  0
    2.4135   -2.1995    6.2930 H   0  0  0  0  0  0  0  0  0  0  0  0
    3.4641   -1.1742    7.3394 H   0  0  0  0  0  0  0  0  0  0  0  0
    4.2891    0.4456    5.7332 H   0  0  0  0  0  0  0  0  0  0  0  0
    5.5246    0.9700    3.6780 H   0  0  0  0  0  0  0  0  0  0  0  0
    8.0725   -0.1685    3.9044 H   0  0  0  0  0  0  0  0  0  0  0  0
    9.9552    1.3878    3.8879 H   0  0  0  0  0  0  0  0  0  0  0  0
   11.2641    3.0852    2.8048 H   0  0  0  0  0  0  0  0  0  0  0  0
   10.6439    3.7914    1.2802 H   0  0  0  0  0  0  0  0  0  0  0  0
   11.7854    2.3909    1.2233 H   0  0  0  0  0  0  0  0  0  0  0  0
    9.3125    2.1545   -0.3055 H   0  0  0  0  0  0  0  0  0  0  0  0
    7.3859    0.6501   -0.2945 H   0  0  0  0  0  0  0  0  0  0  0  0
    3.3567   -1.1608    2.1873 H   0  0  0  0  0  0  0  0  0  0  0  0
   -2.6656    0.9074    3.2959 H   0  0  0  0  0  0  0  0  0  0  0  0
   -5.6840   -0.2229    1.2803 H   0  0  0  0  0  0  0  0  0  0  0  0
   -6.6314   -2.3881    1.8735 H   0  0  0  0  0  0  0  0  0  0  0  0
   -8.2077   -3.5853    3.4557 H   0  0  0  0  0  0  0  0  0  0  0  0
   -8.2203   -3.1554    5.1863 H   0  0  0  0  0  0  0  0  0  0  0  0
   -6.9325   -5.2440    4.7831 H   0  0  0  0  0  0  0  0  0  0  0  0
   -5.8561   -3.9481    5.4334 H   0  0  0  0  0  0  0  0  0  0  0  0
   -5.8189   -4.3697    3.6728 H   0  0  0  0  0  0  0  0  0  0  0  0
   -7.1386   -1.0879    5.9392 H   0  0  0  0  0  0  0  0  0  0  0  0
   -6.1991    1.0695    5.3961 H   0  0  0  0  0  0  0  0  0  0  0  0
   -4.3852    2.5556    4.7454 H   0  0  0  0  0  0  0  0  0  0  0  0
   -6.0707    3.1737    4.5597 H   0  0  0  0  0  0  0  0  0  0  0  0
   -5.2357    4.8793    2.8996 H   0  0  0  0  0  0  0  0  0  0  0  0
   -4.4635    5.0105    4.5169 H   0  0  0  0  0  0  0  0  0  0  0  0
   -3.5505    4.2595    3.1647 H   0  0  0  0  0  0  0  0  0  0  0  0
   -3.5716    2.6552   -1.3405 H   0  0  0  0  0  0  0  0  0  0  0  0
   -2.2488    0.8077   -2.5874 H   0  0  0  0  0  0  0  0  0  0  0  0
   -1.7933   -0.4834   -1.4652 H   0  0  0  0  0  0  0  0  0  0  0  0
    0.3695   -0.7747   -2.4377 H   0  0  0  0  0  0  0  0  0  0  0  0
    0.2961    0.7891   -3.3404 H   0  0  0  0  0  0  0  0  0  0  0  0
   -0.7669   -0.5917   -3.8040 H   0  0  0  0  0  0  0  0  0  0  0  0
    0.6914    3.3309    0.3000 H   0  0  0  0  0  0  0  0  0  0  0  0
    1.5573    5.4397   -0.5630 H   0  0  0  0  0  0  0  0  0  0  0  0
    0.4093    7.0356   -3.7273 H   0  0  0  0  0  0  0  0  0  0  0  0
    1.2872    7.3016   -2.1911 H   0  0  0  0  0  0  0  0  0  0  0  0
    2.8528    7.2484   -4.1262 H   0  0  0  0  0  0  0  0  0  0  0  0
    3.1813    5.8754   -3.0104 H   0  0  0  0  0  0  0  0  0  0  0  0
    2.2927    5.5924   -4.5676 H   0  0  0  0  0  0  0  0  0  0  0  0
   -0.6161    4.8402   -4.2336 H   0  0  0  0  0  0  0  0  0  0  0  0
   -1.4603    2.7206   -3.4006 H   0  0  0  0  0  0  0  0  0  0  0  0
   -9.9091    3.5282   -0.6184 H   0  0  0  0  0  0  0  0  0  0  0  0
  -11.8039    3.3816    3.8724 H   0  0  0  0  0  0  0  0  0  0  0  0
  -15.3277    1.7332    3.6683 H   0  0  0  0  0  0  0  0  0  0  0  0
  -13.9370    1.8775    4.8138 H   0  0  0  0  0  0  0  0  0  0  0  0
  -16.8656    2.6050    5.4761 H   0  0  0  0  0  0  0  0  0  0  0  0
  -15.9764    1.1140    5.9862 H   0  0  0  0  0  0  0  0  0  0  0  0
  -15.4470    2.7158    6.6010 H   0  0  0  0  0  0  0  0  0  0  0  0
  -16.1302    3.5239    1.0448 H   0  0  0  0  0  0  0  0  0  0  0  0
  -16.7924    4.1857   -4.2753 H   0  0  0  0  0  0  0  0  0  0  0  0
  -15.2093    4.8472   -6.0650 H   0  0  0  0  0  0  0  0  0  0  0  0
  -12.5176    6.4701   -3.1388 H   0  0  0  0  0  0  0  0  0  0  0  0
  1  2  2  3
  2  3  1  0
  3  4  2  0
  3  5  1  0
  5  6  2  0
  6  7  1  0
  7  8  2  0
  8  9  1  0
  8 10  1  0
 10 11  2  0
 11 12  1  0
 12 13  2  3
 13 14  1  0
 14 15  3  0
 13 16  1  0
 16 17  3  0
  1 18  1  0
 18 19  2  0
 19 20  1  0
 20 21  1  0
 21 22  2  0
 22 23  1  0
 23 24  2  0
 24 25  1  0
 24 26  1  0
 26 27  2  0
 20 28  1  0
 28 29  2  0
 29 30  1  0
 30 31  2  0
 31 32  1  0
 31 33  1  0
 33 34  2  0
 19 35  1  0
 35 36  1  0
 36 37  1  0
 37 38  2  0
 38 39  1  0
 39 40  1  0
 40 41  2  0
 41 42  1  0
 42 43  2  0
 43 44  1  0
 43 45  1  0
 45 46  2  0
 39 47  1  0
 47 48  2  0
 48 49  1  0
 49 50  2  0
 50 51  1  0
 50 52  1  0
 52 53  2  0
 38 54  1  0
 54 55  1  0
 37 56  1  0
 56 57  2  0
 57 58  1  0
 58 59  1  0
 59 60  1  0
 60 61  1  0
 61 62  2  0
 62 63  1  0
 63 64  1  0
 64 65  1  0
 65 66  2  0
 66 67  1  0
 67 68  2  0
 68 69  1  0
 69 70  1  0
 68 71  1  0
 71 72  2  0
 64 73  1  0
 73 74  1  0
 64 75  1  0
 75 76  2  0
 76 77  1  0
 77 78  1  0
 78 79  2  0
 79 80  1  0
 80 81  1  0
 81 82  1  0
 80 83  1  0
 83 84  2  0
 84 85  1  0
 85 86  2  0
 86 87  1  0
 87 88  1  0
 86 89  1  0
 89 90  2  0
 80 91  1  0
 91 92  1  0
 92 93  1  0
 76 94  1  0
 94 95  1  0
 95 96  1  0
 96 97  2  0
 97 98  1  0
 98 99  1  0
 97100  1  0
100101  2  0
101102  1  0
102103  1  0
103104  1  0
104105  1  0
102106  2  0
106107  1  0
106108  1  0
108109  2  3
109110  1  0
110111  2  0
110112  1  0
112113  2  0
113114  1  0
114115  2  0
115116  1  0
115117  1  0
117118  2  0
118119  1  0
119120  2  3
120121  1  0
121122  3  0
120123  1  0
123124  3  0
 12  2  1  0
 55 18  1  0
 93 56  1  0
 99 95  2  0
107100  1  0
119109  1  0
 11  5  1  0
 27 21  1  0
 34 28  1  0
 54 35  2  0
 92 58  2  0
118112  1  0
 46 40  1  0
 53 47  1  0
 91 60  2  0
 79 61  1  0
 90 83  1  0
 77 63  2  0
 72 65  1  0
 99 75  1  0
  1125  1  0
  6126  1  0
  7127  1  0
 10128  1  0
 22129  1  0
 23130  1  0
 25131  1  0
 25132  1  0
 25133  1  0
 26134  1  0
 27135  1  0
 29136  1  0
 30137  1  0
 32138  1  0
 32139  1  0
 32140  1  0
 33141  1  0
 34142  1  0
 41143  1  0
 42144  1  0
 44145  1  0
 44146  1  0
 44147  1  0
 45148  1  0
 46149  1  0
 48150  1  0
 49151  1  0
 51152  1  0
 51153  1  0
 51154  1  0
 52155  1  0
 53156  1  0
 57157  1  0
 62158  1  0
 66159  1  0
 67160  1  0
 69161  1  0
 69162  1  0
 70163  1  0
 70164  1  0
 70165  1  0
 71166  1  0
 72167  1  0
 73168  1  0
 73169  1  0
 74170  1  0
 74171  1  0
 74172  1  0
 78173  1  0
 81174  1  0
 81175  1  0
 82176  1  0
 82177  1  0
 82178  1  0
 84179  1  0
 85180  1  0
 87181  1  0
 87182  1  0
 88183  1  0
 88184  1  0
 88185  1  0
 89186  1  0
 90187  1  0
 96188  1  0
101189  1  0
104190  1  0
104191  1  0
105192  1  0
105193  1  0
105194  1  0
108195  1  0
113196  1  0
114197  1  0
117198  1  0
M  END

