
     RDKit          3D

230254  0  0  0  0  0  0  0  0999 V2000
   -5.9069   -0.7959    3.7787 C   0  0  0  0  0  0  0  0  0  0  0  0
   -6.2676    0.1739    4.6413 C   0  0  0  0  0  0  0  0  0  0  0  0
   -5.4887    0.6200    5.8018 C   0  0  0  0  0  0  0  0  0  0  0  0
   -4.6606   -0.0673    6.4565 O   0  0  0  0  0  0  0  0  0  0  0  0
   -5.8993    1.9634    6.1386 C   0  0  0  0  0  0  0  0  0  0  0  0
   -5.3108    2.8435    7.0457 C   0  0  0  0  0  0  0  0  0  0  0  0
   -5.7928    4.1574    7.1044 C   0  0  0  0  0  0  0  0  0  0  0  0
   -6.8253    4.5712    6.2438 C   0  0  0  0  0  0  0  0  0  0  0  0
   -7.3610    6.2443    6.2691 Cl  0  0  0  0  0  0  0  0  0  0  0  0
   -7.4073    3.6653    5.3416 C   0  0  0  0  0  0  0  0  0  0  0  0
   -6.9443    2.3397    5.3137 C   0  0  0  0  0  0  0  0  0  0  0  0
   -7.3306    1.1987    4.4336 C   0  0  0  0  0  0  0  0  0  0  0  0
   -8.5036    1.0400    3.7713 C   0  0  0  0  0  0  0  0  0  0  0  0
   -8.8790   -0.2167    3.1664 C   0  0  0  0  0  0  0  0  0  0  0  0
   -9.1917   -1.2226    2.6812 N   0  0  0  0  0  0  0  0  0  0  0  0
   -9.5177    2.0669    3.7446 C   0  0  0  0  0  0  0  0  0  0  0  0
  -10.3416    2.8821    3.7163 N   0  0  0  0  0  0  0  0  0  0  0  0
   -4.5776   -1.4260    3.8007 C   0  0  0  0  0  0  0  0  0  0  0  0
   -4.2975   -2.7651    3.4811 C   0  0  0  0  0  0  0  0  0  0  0  0
   -5.2891   -3.7611    3.1952 N   0  0  0  0  0  0  0  0  0  0  0  0
   -5.3509   -4.3357    1.8719 C   0  0  0  0  0  0  0  0  0  0  0  0
   -5.1492   -3.5317    0.7348 C   0  0  0  0  0  0  0  0  0  0  0  0
   -5.1921   -4.0895   -0.5449 C   0  0  0  0  0  0  0  0  0  0  0  0
   -5.4407   -5.4597   -0.7119 C   0  0  0  0  0  0  0  0  0  0  0  0
   -5.4737   -6.0476   -2.0902 C   0  0  0  0  0  0  0  0  0  0  0  0
   -5.6332   -6.2702    0.4178 C   0  0  0  0  0  0  0  0  0  0  0  0
   -5.5900   -5.7138    1.7002 C   0  0  0  0  0  0  0  0  0  0  0  0
   -6.1413   -4.2283    4.2601 C   0  0  0  0  0  0  0  0  0  0  0  0
   -7.4998   -4.4966    4.0183 C   0  0  0  0  0  0  0  0  0  0  0  0
   -8.3137   -5.0003    5.0365 C   0  0  0  0  0  0  0  0  0  0  0  0
   -7.7805   -5.2436    6.3131 C   0  0  0  0  0  0  0  0  0  0  0  0
   -8.6319   -5.8169    7.4054 C   0  0  0  0  0  0  0  0  0  0  0  0
   -6.4327   -4.9534    6.5650 C   0  0  0  0  0  0  0  0  0  0  0  0
   -5.6177   -4.4510    5.5470 C   0  0  0  0  0  0  0  0  0  0  0  0
   -2.9245   -2.9910    3.4053 C   0  0  0  0  0  0  0  0  0  0  0  0
   -1.9535   -4.3191    3.0761 S   0  0  0  0  0  0  0  0  0  0  0  0
   -0.4998   -3.4371    3.2207 C   0  0  0  0  0  0  0  0  0  0  0  0
   -0.7872   -2.0896    3.4848 C   0  0  0  0  0  0  0  0  0  0  0  0
    0.1673   -1.0110    3.4761 N   0  0  0  0  0  0  0  0  0  0  0  0
    0.1588   -0.0890    4.5939 C   0  0  0  0  0  0  0  0  0  0  0  0
   -0.1387   -0.5597    5.8904 C   0  0  0  0  0  0  0  0  0  0  0  0
   -0.1906    0.3196    6.9731 C   0  0  0  0  0  0  0  0  0  0  0  0
    0.0359    1.6883    6.7835 C   0  0  0  0  0  0  0  0  0  0  0  0
    0.0115    2.6246    7.9540 C   0  0  0  0  0  0  0  0  0  0  0  0
    0.3360    2.1677    5.5032 C   0  0  0  0  0  0  0  0  0  0  0  0
    0.3756    1.2923    4.4121 C   0  0  0  0  0  0  0  0  0  0  0  0
    0.8499   -0.6897    2.2374 C   0  0  0  0  0  0  0  0  0  0  0  0
    2.1508   -0.1506    2.2541 C   0  0  0  0  0  0  0  0  0  0  0  0
    2.7671    0.2635    1.0687 C   0  0  0  0  0  0  0  0  0  0  0  0
    2.0933    0.1554   -0.1575 C   0  0  0  0  0  0  0  0  0  0  0  0
    2.7272    0.6272   -1.4314 C   0  0  0  0  0  0  0  0  0  0  0  0
    0.8187   -0.4274   -0.1880 C   0  0  0  0  0  0  0  0  0  0  0  0
    0.2027   -0.8481    0.9951 C   0  0  0  0  0  0  0  0  0  0  0  0
   -2.1547   -1.8911    3.6079 C   0  0  0  0  0  0  0  0  0  0  0  0
   -3.1165   -0.5495    3.8832 S   0  0  0  0  0  0  0  0  0  0  0  0
    0.8384   -4.0068    3.0467 C   0  0  0  0  0  0  0  0  0  0  0  0
    1.8866   -3.9890    3.9897 C   0  0  0  0  0  0  0  0  0  0  0  0
    1.7075   -3.6689    5.4326 C   0  0  0  0  0  0  0  0  0  0  0  0
    0.7034   -4.3789    6.1192 C   0  0  0  0  0  0  0  0  0  0  0  0
    0.5049   -4.1997    7.4865 C   0  0  0  0  0  0  0  0  0  0  0  0
    1.3130   -3.3201    8.2011 C   0  0  0  0  0  0  0  0  0  0  0  0
    2.3108   -2.6002    7.5443 C   0  0  0  0  0  0  0  0  0  0  0  0
    2.5020   -2.7221    6.1509 C   0  0  0  0  0  0  0  0  0  0  0  0
    3.5803   -1.8843    5.4820 C   0  0  0  0  0  0  0  0  0  0  0  0
    3.6075   -0.4231    5.9343 C   0  0  0  0  0  0  0  0  0  0  0  0
    3.0663   -4.4825    3.4075 C   0  0  0  0  0  0  0  0  0  0  0  0
    4.6901   -4.4298    3.8759 S   0  0  0  0  0  0  0  0  0  0  0  0
    5.2448   -4.8173    2.3205 C   0  0  0  0  0  0  0  0  0  0  0  0
    6.2777   -4.2803    1.5932 C   0  0  0  0  0  0  0  0  0  0  0  0
    7.2467   -3.3630    2.0427 C   0  0  0  0  0  0  0  0  0  0  0  0
    7.8150   -2.4396    1.1102 C   0  0  0  0  0  0  0  0  0  0  0  0
    8.6552   -1.4967    1.6052 N   0  0  0  0  0  0  0  0  0  0  0  0
    8.6152   -1.9059    3.2109 S   0  0  0  0  0  0  0  0  0  0  0  0
    7.5944   -3.2017    3.3448 N   0  0  0  0  0  0  0  0  0  0  0  0
    7.4667   -2.5473   -0.2380 C   0  0  0  0  0  0  0  0  0  0  0  0
    7.6754   -1.7040   -1.2999 C   0  0  0  0  0  0  0  0  0  0  0  0
    7.8585   -0.0190   -1.4350 S   0  0  0  0  0  0  0  0  0  0  0  0
    7.0328    0.0021   -2.9256 C   0  0  0  0  0  0  0  0  0  0  0  0
    6.4072    1.0356   -3.6299 C   0  0  0  0  0  0  0  0  0  0  0  0
    6.6563    2.4655   -3.3615 C   0  0  0  0  0  0  0  0  0  0  0  0
    7.4762    3.2435   -4.2152 C   0  0  0  0  0  0  0  0  0  0  0  0
    8.1944    2.6372   -5.4005 C   0  0  0  0  0  0  0  0  0  0  0  0
    9.5235    2.0210   -4.9772 C   0  0  0  0  0  0  0  0  0  0  0  0
    7.6613    4.6095   -3.9330 C   0  0  0  0  0  0  0  0  0  0  0  0
    7.0328    5.1963   -2.8331 C   0  0  0  0  0  0  0  0  0  0  0  0
    6.2339    4.4256   -1.9908 C   0  0  0  0  0  0  0  0  0  0  0  0
    6.0552    3.0650   -2.2463 C   0  0  0  0  0  0  0  0  0  0  0  0
    5.4170    0.5274   -4.5031 C   0  0  0  0  0  0  0  0  0  0  0  0
    5.3545   -1.1699   -4.3634 S   0  0  0  0  0  0  0  0  0  0  0  0
    6.6025   -1.2570   -3.2556 C   0  0  0  0  0  0  0  0  0  0  0  0
    6.9736   -2.2254   -2.3441 C   0  0  0  0  0  0  0  0  0  0  0  0
    6.3412   -3.3797   -2.0334 N   0  0  0  0  0  0  0  0  0  0  0  0
    6.5880   -3.5342   -0.7008 C   0  0  0  0  0  0  0  0  0  0  0  0
    5.8631   -4.3037    0.2457 C   0  0  0  0  0  0  0  0  0  0  0  0
    4.5560   -4.7195    0.1623 N   0  0  0  0  0  0  0  0  0  0  0  0
    4.2056   -4.9961    1.4472 C   0  0  0  0  0  0  0  0  0  0  0  0
    2.9699   -4.8237    2.0790 C   0  0  0  0  0  0  0  0  0  0  0  0
    1.3991   -4.5662    1.5500 S   0  0  0  0  0  0  0  0  0  0  0  0
    3.5806   -4.4195   -0.8980 C   0  0  0  0  0  0  0  0  0  0  0  0
    3.2056   -2.9395   -0.9048 C   0  0  0  0  0  0  0  0  0  0  0  0
    6.1485   -4.4697   -2.9988 C   0  0  0  0  0  0  0  0  0  0  0  0
    7.4299   -4.7440   -3.7857 C   0  0  0  0  0  0  0  0  0  0  0  0
    4.4190    1.2971   -5.2728 C   0  0  0  0  0  0  0  0  0  0  0  0
    3.1796    0.7982   -5.6778 C   0  0  0  0  0  0  0  0  0  0  0  0
    2.3917    1.7450   -6.3472 C   0  0  0  0  0  0  0  0  0  0  0  0
    1.0606    1.5688   -6.7813 C   0  0  0  0  0  0  0  0  0  0  0  0
    0.2345    0.4206   -6.3443 C   0  0  0  0  0  0  0  0  0  0  0  0
    0.0134    0.2136   -4.9723 C   0  0  0  0  0  0  0  0  0  0  0  0
   -0.9483   -0.7077   -4.5458 C   0  0  0  0  0  0  0  0  0  0  0  0
   -1.7137   -1.4176   -5.4776 C   0  0  0  0  0  0  0  0  0  0  0  0
   -2.7521   -2.2365   -5.0044 O   0  0  0  0  0  0  0  0  0  0  0  0
   -3.7687   -2.8054   -5.8288 C   0  0  0  0  0  0  0  0  0  0  0  0
   -4.8410   -3.4249   -4.9451 C   0  0  0  0  0  0  0  0  0  0  0  0
   -1.4431   -1.2639   -6.8516 C   0  0  0  0  0  0  0  0  0  0  0  0
   -0.4735   -0.3478   -7.2795 C   0  0  0  0  0  0  0  0  0  0  0  0
    0.4593    2.6635   -7.4354 C   0  0  0  0  0  0  0  0  0  0  0  0
    1.0912    3.9065   -7.5661 C   0  0  0  0  0  0  0  0  0  0  0  0
    2.3938    4.1009   -7.0570 C   0  0  0  0  0  0  0  0  0  0  0  0
    2.9398    5.4571   -6.8744 C   0  0  0  0  0  0  0  0  0  0  0  0
    3.4350    6.1864   -7.9631 C   0  0  0  0  0  0  0  0  0  0  0  0
    3.8574    7.5085   -7.7823 C   0  0  0  0  0  0  0  0  0  0  0  0
    3.7689    8.1213   -6.5234 C   0  0  0  0  0  0  0  0  0  0  0  0
    4.1484    9.4692   -6.4096 O   0  0  0  0  0  0  0  0  0  0  0  0
    4.0813   10.2543   -5.2182 C   0  0  0  0  0  0  0  0  0  0  0  0
    5.2705    9.9610   -4.3097 C   0  0  0  0  0  0  0  0  0  0  0  0
    3.2798    7.3776   -5.4323 C   0  0  0  0  0  0  0  0  0  0  0  0
    2.8693    6.0559   -5.6095 C   0  0  0  0  0  0  0  0  0  0  0  0
    3.0246    2.9845   -6.4835 C   0  0  0  0  0  0  0  0  0  0  0  0
    4.5385    2.9113   -5.7535 S   0  0  0  0  0  0  0  0  0  0  0  0
    0.2389    4.9160   -8.0490 C   0  0  0  0  0  0  0  0  0  0  0  0
   -1.0657    4.4716   -8.2500 C   0  0  0  0  0  0  0  0  0  0  0  0
   -1.1530    2.8317   -7.8699 S   0  0  0  0  0  0  0  0  0  0  0  0
   -2.2636    5.3241   -8.3174 C   0  0  0  0  0  0  0  0  0  0  0  0
   -3.0418    5.4539   -7.2292 C   0  0  0  0  0  0  0  0  0  0  0  0
   -4.4767    5.1116   -7.2856 C   0  0  0  0  0  0  0  0  0  0  0  0
   -5.2573    5.3069   -8.2548 O   0  0  0  0  0  0  0  0  0  0  0  0
   -4.7989    4.3957   -6.0627 C   0  0  0  0  0  0  0  0  0  0  0  0
   -5.8900    3.6672   -5.6008 C   0  0  0  0  0  0  0  0  0  0  0  0
   -5.6045    3.0663   -4.3674 C   0  0  0  0  0  0  0  0  0  0  0  0
   -4.0139    3.4507   -3.8909 S   0  0  0  0  0  0  0  0  0  0  0  0
   -3.7154    4.3774   -5.2550 C   0  0  0  0  0  0  0  0  0  0  0  0
   -2.5984    5.1223   -5.8415 C   0  0  0  0  0  0  0  0  0  0  0  0
   -1.5472    5.6458   -5.1808 C   0  0  0  0  0  0  0  0  0  0  0  0
   -0.7775    6.7350   -5.7318 C   0  0  0  0  0  0  0  0  0  0  0  0
   -0.1615    7.6137   -6.1571 N   0  0  0  0  0  0  0  0  0  0  0  0
   -1.2294    5.2378   -3.8376 C   0  0  0  0  0  0  0  0  0  0  0  0
   -0.9644    4.9174   -2.7571 N   0  0  0  0  0  0  0  0  0  0  0  0
   -6.5086   -1.0245    2.9189 H   0  0  0  0  0  0  0  0  0  0  0  0
   -4.4799    2.5376    7.6666 H   0  0  0  0  0  0  0  0  0  0  0  0
   -5.3373    4.8650    7.7879 H   0  0  0  0  0  0  0  0  0  0  0  0
   -8.1560    4.0217    4.6547 H   0  0  0  0  0  0  0  0  0  0  0  0
   -4.9609   -2.4697    0.8416 H   0  0  0  0  0  0  0  0  0  0  0  0
   -5.0334   -3.4548   -1.4090 H   0  0  0  0  0  0  0  0  0  0  0  0
   -6.2070   -5.4912   -2.7150 H   0  0  0  0  0  0  0  0  0  0  0  0
   -5.7743   -7.1164   -2.0714 H   0  0  0  0  0  0  0  0  0  0  0  0
   -4.4681   -5.9715   -2.5537 H   0  0  0  0  0  0  0  0  0  0  0  0
   -5.8138   -7.3321    0.3060 H   0  0  0  0  0  0  0  0  0  0  0  0
   -5.7243   -6.3629    2.5585 H   0  0  0  0  0  0  0  0  0  0  0  0
   -7.9249   -4.3159    3.0394 H   0  0  0  0  0  0  0  0  0  0  0  0
   -9.3543   -5.2086    4.8253 H   0  0  0  0  0  0  0  0  0  0  0  0
   -9.6703   -6.0033    7.0576 H   0  0  0  0  0  0  0  0  0  0  0  0
   -8.6662   -5.1128    8.2639 H   0  0  0  0  0  0  0  0  0  0  0  0
   -8.1985   -6.7809    7.7466 H   0  0  0  0  0  0  0  0  0  0  0  0
   -6.0086   -5.1325    7.5466 H   0  0  0  0  0  0  0  0  0  0  0  0
   -4.5721   -4.2563    5.7549 H   0  0  0  0  0  0  0  0  0  0  0  0
   -0.3324   -1.6092    6.0641 H   0  0  0  0  0  0  0  0  0  0  0  0
   -0.4097   -0.0712    7.9590 H   0  0  0  0  0  0  0  0  0  0  0  0
   -0.3488    3.6313    7.6426 H   0  0  0  0  0  0  0  0  0  0  0  0
   -0.6689    2.2507    8.7489 H   0  0  0  0  0  0  0  0  0  0  0  0
    1.0358    2.7236    8.3719 H   0  0  0  0  0  0  0  0  0  0  0  0
    0.5264    3.2197    5.3437 H   0  0  0  0  0  0  0  0  0  0  0  0
    0.5630    1.7010    3.4302 H   0  0  0  0  0  0  0  0  0  0  0  0
    2.6724   -0.0129    3.1890 H   0  0  0  0  0  0  0  0  0  0  0  0
    3.7618    0.6909    1.1119 H   0  0  0  0  0  0  0  0  0  0  0  0
    2.0053    1.2352   -2.0176 H   0  0  0  0  0  0  0  0  0  0  0  0
    3.6119    1.2545   -1.2209 H   0  0  0  0  0  0  0  0  0  0  0  0
    3.0475   -0.2433   -2.0414 H   0  0  0  0  0  0  0  0  0  0  0  0
    0.2986   -0.5449   -1.1319 H   0  0  0  0  0  0  0  0  0  0  0  0
   -0.7968   -1.2564    0.9435 H   0  0  0  0  0  0  0  0  0  0  0  0
    0.0854   -5.0985    5.5955 H   0  0  0  0  0  0  0  0  0  0  0  0
   -0.2642   -4.7586    7.9988 H   0  0  0  0  0  0  0  0  0  0  0  0
    1.1720   -3.1995    9.2680 H   0  0  0  0  0  0  0  0  0  0  0  0
    2.9343   -1.9399    8.1350 H   0  0  0  0  0  0  0  0  0  0  0  0
    3.4441   -1.8864    4.3816 H   0  0  0  0  0  0  0  0  0  0  0  0
    4.5682   -2.3294    5.7150 H   0  0  0  0  0  0  0  0  0  0  0  0
    4.2647    0.1602    5.2595 H   0  0  0  0  0  0  0  0  0  0  0  0
    2.5957    0.0188    5.9070 H   0  0  0  0  0  0  0  0  0  0  0  0
    4.0163   -0.3314    6.9615 H   0  0  0  0  0  0  0  0  0  0  0  0
    8.3872    3.4165   -6.1694 H   0  0  0  0  0  0  0  0  0  0  0  0
    7.5656    1.8624   -5.8866 H   0  0  0  0  0  0  0  0  0  0  0  0
    9.3567    1.2087   -4.2388 H   0  0  0  0  0  0  0  0  0  0  0  0
   10.0331    1.5940   -5.8661 H   0  0  0  0  0  0  0  0  0  0  0  0
   10.1806    2.7966   -4.5267 H   0  0  0  0  0  0  0  0  0  0  0  0
    8.2947    5.2183   -4.5665 H   0  0  0  0  0  0  0  0  0  0  0  0
    7.1707    6.2503   -2.6320 H   0  0  0  0  0  0  0  0  0  0  0  0
    5.7561    4.8833   -1.1330 H   0  0  0  0  0  0  0  0  0  0  0  0
    5.4535    2.4776   -1.5699 H   0  0  0  0  0  0  0  0  0  0  0  0
    3.9329   -4.7166   -1.8876 H   0  0  0  0  0  0  0  0  0  0  0  0
    2.6701   -5.0339   -0.7611 H   0  0  0  0  0  0  0  0  0  0  0  0
    2.8839   -2.6151    0.1058 H   0  0  0  0  0  0  0  0  0  0  0  0
    2.3739   -2.7714   -1.6213 H   0  0  0  0  0  0  0  0  0  0  0  0
    4.0693   -2.3105   -1.2076 H   0  0  0  0  0  0  0  0  0  0  0  0
    5.3338   -4.2032   -3.7086 H   0  0  0  0  0  0  0  0  0  0  0  0
    5.8888   -5.4126   -2.4693 H   0  0  0  0  0  0  0  0  0  0  0  0
    7.6611   -3.8893   -4.4566 H   0  0  0  0  0  0  0  0  0  0  0  0
    8.2791   -4.9053   -3.0866 H   0  0  0  0  0  0  0  0  0  0  0  0
    7.3003   -5.6525   -4.4087 H   0  0  0  0  0  0  0  0  0  0  0  0
    2.8453   -0.2079   -5.4613 H   0  0  0  0  0  0  0  0  0  0  0  0
    0.5373    0.8093   -4.2354 H   0  0  0  0  0  0  0  0  0  0  0  0
   -1.1366   -0.8248   -3.4836 H   0  0  0  0  0  0  0  0  0  0  0  0
   -4.2371   -2.0155   -6.4548 H   0  0  0  0  0  0  0  0  0  0  0  0
   -3.3307   -3.5867   -6.4847 H   0  0  0  0  0  0  0  0  0  0  0  0
   -5.6575   -3.8428   -5.5717 H   0  0  0  0  0  0  0  0  0  0  0  0
   -4.3996   -4.2412   -4.3393 H   0  0  0  0  0  0  0  0  0  0  0  0
   -5.2650   -2.6567   -4.2625 H   0  0  0  0  0  0  0  0  0  0  0  0
   -1.9974   -1.8252   -7.5931 H   0  0  0  0  0  0  0  0  0  0  0  0
   -0.3114   -0.2013   -8.3394 H   0  0  0  0  0  0  0  0  0  0  0  0
    3.4786    5.7417   -8.9491 H   0  0  0  0  0  0  0  0  0  0  0  0
    4.2316    8.0713   -8.6273 H   0  0  0  0  0  0  0  0  0  0  0  0
    4.1141   11.3257   -5.5053 H   0  0  0  0  0  0  0  0  0  0  0  0
    3.1200   10.0882   -4.6855 H   0  0  0  0  0  0  0  0  0  0  0  0
    6.2153   10.1473   -4.8653 H   0  0  0  0  0  0  0  0  0  0  0  0
    5.2358   10.6289   -3.4242 H   0  0  0  0  0  0  0  0  0  0  0  0
    5.2567    8.9066   -3.9656 H   0  0  0  0  0  0  0  0  0  0  0  0
    3.1849    7.8138   -4.4480 H   0  0  0  0  0  0  0  0  0  0  0  0
    2.4620    5.5078   -4.7697 H   0  0  0  0  0  0  0  0  0  0  0  0
    0.5278    5.9550   -8.1457 H   0  0  0  0  0  0  0  0  0  0  0  0
   -2.7108    5.4377   -9.3005 H   0  0  0  0  0  0  0  0  0  0  0  0
   -6.8232    3.5560   -6.1341 H   0  0  0  0  0  0  0  0  0  0  0  0
   -6.2922    2.4422   -3.8114 H   0  0  0  0  0  0  0  0  0  0  0  0
  1  2  2  3
  2  3  1  0
  3  4  2  0
  3  5  1  0
  5  6  2  0
  6  7  1  0
  7  8  2  0
  8  9  1  0
  8 10  1  0
 10 11  2  0
 11 12  1  0
 12 13  2  3
 13 14  1  0
 14 15  3  0
 13 16  1  0
 16 17  3  0
  1 18  1  0
 18 19  2  0
 19 20  1  0
 20 21  1  0
 21 22  2  0
 22 23  1  0
 23 24  2  0
 24 25  1  0
 24 26  1  0
 26 27  2  0
 20 28  1  0
 28 29  2  0
 29 30  1  0
 30 31  2  0
 31 32  1  0
 31 33  1  0
 33 34  2  0
 19 35  1  0
 35 36  1  0
 36 37  1  0
 37 38  2  0
 38 39  1  0
 39 40  1  0
 40 41  2  0
 41 42  1  0
 42 43  2  0
 43 44  1  0
 43 45  1  0
 45 46  2  0
 39 47  1  0
 47 48  2  0
 48 49  1  0
 49 50  2  0
 50 51  1  0
 50 52  1  0
 52 53  2  0
 38 54  1  0
 54 55  1  0
 37 56  1  0
 56 57  2  0
 57 58  1  0
 58 59  2  0
 59 60  1  0
 60 61  2  0
 61 62  1  0
 62 63  2  0
 63 64  1  0
 64 65  1  0
 57 66  1  0
 66 67  1  0
 67 68  1  0
 68 69  1  0
 69 70  1  0
 70 71  1  0
 71 72  2  0
 72 73  1  0
 73 74  1  0
 71 75  1  0
 75 76  1  0
 76 77  1  0
 77 78  1  0
 78 79  1  0
 79 80  1  0
 80 81  2  0
 81 82  1  0
 82 83  1  0
 81 84  1  0
 84 85  2  0
 85 86  1  0
 86 87  2  0
 79 88  2  0
 88 89  1  0
 89 90  1  0
 90 91  1  0
 91 92  1  0
 92 93  1  0
 93 94  1  0
 94 95  1  0
 95 96  1  0
 96 97  1  0
 97 98  1  0
 95 99  1  0
 99100  1  0
 92101  1  0
101102  1  0
 88103  1  0
103104  2  0
104105  1  0
105106  2  0
106107  1  0
107108  2  0
108109  1  0
109110  2  0
110111  1  0
111112  1  0
112113  1  0
110114  1  0
114115  2  0
106116  1  0
116117  2  0
117118  1  0
118119  1  0
119120  2  0
120121  1  0
121122  2  0
122123  1  0
123124  1  0
124125  1  0
122126  1  0
126127  2  0
118128  2  0
128129  1  0
117130  1  0
130131  2  0
131132  1  0
131133  1  0
133134  2  3
134135  1  0
135136  2  0
135137  1  0
137138  1  0
138139  2  0
139140  1  0
140141  1  0
141142  1  0
142143  2  3
143144  1  0
144145  3  0
143146  1  0
146147  3  0
 12  2  1  0
 55 18  1  0
 98 56  1  0
129103  1  0
142134  1  0
 11  5  1  0
 27 21  1  0
 34 28  1  0
 54 35  2  0
 63 58  1  0
 97 66  2  0
128105  1  0
141137  2  0
 46 40  1  0
 53 47  1  0
 96 68  2  0
115107  1  0
132116  1  0
 94 69  2  0
127119  1  0
 74 70  2  0
 93 75  2  0
 91 76  2  0
 90 78  2  0
 87 80  1  0
  1148  1  0
  6149  1  0
  7150  1  0
 10151  1  0
 22152  1  0
 23153  1  0
 25154  1  0
 25155  1  0
 25156  1  0
 26157  1  0
 27158  1  0
 29159  1  0
 30160  1  0
 32161  1  0
 32162  1  0
 32163  1  0
 33164  1  0
 34165  1  0
 41166  1  0
 42167  1  0
 44168  1  0
 44169  1  0
 44170  1  0
 45171  1  0
 46172  1  0
 48173  1  0
 49174  1  0
 51175  1  0
 51176  1  0
 51177  1  0
 52178  1  0
 53179  1  0
 59180  1  0
 60181  1  0
 61182  1  0
 62183  1  0
 64184  1  0
 64185  1  0
 65186  1  0
 65187  1  0
 65188  1  0
 82189  1  0
 82190  1  0
 83191  1  0
 83192  1  0
 83193  1  0
 84194  1  0
 85195  1  0
 86196  1  0
 87197  1  0
 99198  1  0
 99199  1  0
100200  1  0
100201  1  0
100202  1  0
101203  1  0
101204  1  0
102205  1  0
102206  1  0
102207  1  0
104208  1  0
108209  1  0
109210  1  0
112211  1  0
112212  1  0
113213  1  0
113214  1  0
113215  1  0
114216  1  0
115217  1  0
120218  1  0
121219  1  0
124220  1  0
124221  1  0
125222  1  0
125223  1  0
125224  1  0
126225  1  0
127226  1  0
130227  1  0
133228  1  0
138229  1  0
139230  1  0
M  END

