
     RDKit          3D

190211  0  0  0  0  0  0  0  0999 V2000
   -2.9103   -1.8826   -9.2491 C   0  0  0  0  0  0  0  0  0  0  0  0
   -2.5860   -2.5061  -10.3909 C   0  0  0  0  0  0  0  0  0  0  0  0
   -1.3203   -2.3867  -11.1206 C   0  0  0  0  0  0  0  0  0  0  0  0
   -0.2697   -1.8189  -10.7130 O   0  0  0  0  0  0  0  0  0  0  0  0
   -1.5367   -2.8854  -12.4704 C   0  0  0  0  0  0  0  0  0  0  0  0
   -0.6641   -2.8458  -13.5556 C   0  0  0  0  0  0  0  0  0  0  0  0
   -1.1369   -3.2774  -14.8041 C   0  0  0  0  0  0  0  0  0  0  0  0
   -2.4750   -3.6917  -14.9585 C   0  0  0  0  0  0  0  0  0  0  0  0
   -3.0793   -4.1421  -16.5406 Cl  0  0  0  0  0  0  0  0  0  0  0  0
   -3.3381   -3.7272  -13.8451 C   0  0  0  0  0  0  0  0  0  0  0  0
   -2.8385   -3.3388  -12.5913 C   0  0  0  0  0  0  0  0  0  0  0  0
   -3.5243   -3.2560  -11.2764 C   0  0  0  0  0  0  0  0  0  0  0  0
   -4.5781   -4.0161  -10.8686 C   0  0  0  0  0  0  0  0  0  0  0  0
   -4.9432   -4.1404   -9.4800 C   0  0  0  0  0  0  0  0  0  0  0  0
   -5.2361   -4.2523   -8.3657 N   0  0  0  0  0  0  0  0  0  0  0  0
   -5.3023   -4.8787  -11.7634 C   0  0  0  0  0  0  0  0  0  0  0  0
   -5.8910   -5.5836  -12.4676 N   0  0  0  0  0  0  0  0  0  0  0  0
   -1.9305   -1.4312   -8.2599 C   0  0  0  0  0  0  0  0  0  0  0  0
   -1.3131   -0.1655   -8.1554 C   0  0  0  0  0  0  0  0  0  0  0  0
   -1.4755    0.9186   -9.0843 N   0  0  0  0  0  0  0  0  0  0  0  0
   -0.3864    1.3248   -9.9496 C   0  0  0  0  0  0  0  0  0  0  0  0
   -0.6466    2.1283  -11.0769 C   0  0  0  0  0  0  0  0  0  0  0  0
    0.4056    2.6580  -11.8311 C   0  0  0  0  0  0  0  0  0  0  0  0
    1.7364    2.3798  -11.4899 C   0  0  0  0  0  0  0  0  0  0  0  0
    2.8704    3.0467  -12.2094 C   0  0  0  0  0  0  0  0  0  0  0  0
    2.0000    1.5242  -10.4107 C   0  0  0  0  0  0  0  0  0  0  0  0
    0.9511    0.9886   -9.6566 C   0  0  0  0  0  0  0  0  0  0  0  0
   -2.5235    1.8639   -8.7956 C   0  0  0  0  0  0  0  0  0  0  0  0
   -3.8709    1.4717   -8.8314 C   0  0  0  0  0  0  0  0  0  0  0  0
   -4.8816    2.3808   -8.5073 C   0  0  0  0  0  0  0  0  0  0  0  0
   -4.5620    3.6993   -8.1577 C   0  0  0  0  0  0  0  0  0  0  0  0
   -5.6508    4.6555   -7.7669 C   0  0  0  0  0  0  0  0  0  0  0  0
   -3.2177    4.0957   -8.1212 C   0  0  0  0  0  0  0  0  0  0  0  0
   -2.2079    3.1858   -8.4437 C   0  0  0  0  0  0  0  0  0  0  0  0
   -0.7148   -0.0096   -6.9005 C   0  0  0  0  0  0  0  0  0  0  0  0
    0.0673    1.2486   -6.0995 S   0  0  0  0  0  0  0  0  0  0  0  0
    0.2069    0.3949   -4.6268 C   0  0  0  0  0  0  0  0  0  0  0  0
   -0.3766   -0.8738   -4.7690 C   0  0  0  0  0  0  0  0  0  0  0  0
   -0.5309   -1.8350   -3.7077 N   0  0  0  0  0  0  0  0  0  0  0  0
    0.6328   -2.3495   -3.0193 C   0  0  0  0  0  0  0  0  0  0  0  0
    1.8368   -2.5580   -3.7129 C   0  0  0  0  0  0  0  0  0  0  0  0
    2.9786   -2.9968   -3.0370 C   0  0  0  0  0  0  0  0  0  0  0  0
    2.9382   -3.2349   -1.6555 C   0  0  0  0  0  0  0  0  0  0  0  0
    4.1534   -3.7515   -0.9407 C   0  0  0  0  0  0  0  0  0  0  0  0
    1.7365   -3.0521   -0.9610 C   0  0  0  0  0  0  0  0  0  0  0  0
    0.5940   -2.6197   -1.6373 C   0  0  0  0  0  0  0  0  0  0  0  0
   -1.8639   -2.2324   -3.3210 C   0  0  0  0  0  0  0  0  0  0  0  0
   -2.8941   -1.2811   -3.2445 C   0  0  0  0  0  0  0  0  0  0  0  0
   -4.1860   -1.6590   -2.8638 C   0  0  0  0  0  0  0  0  0  0  0  0
   -4.4718   -2.9995   -2.5632 C   0  0  0  0  0  0  0  0  0  0  0  0
   -5.8497   -3.3897   -2.1123 C   0  0  0  0  0  0  0  0  0  0  0  0
   -3.4435   -3.9532   -2.6299 C   0  0  0  0  0  0  0  0  0  0  0  0
   -2.1536   -3.5747   -3.0157 C   0  0  0  0  0  0  0  0  0  0  0  0
   -0.8633   -1.0598   -6.0541 C   0  0  0  0  0  0  0  0  0  0  0  0
   -1.7448   -2.2723   -6.7910 S   0  0  0  0  0  0  0  0  0  0  0  0
    0.7599    0.9358   -3.3754 C   0  0  0  0  0  0  0  0  0  0  0  0
    2.0450    1.4846   -3.1995 C   0  0  0  0  0  0  0  0  0  0  0  0
    2.9915    1.7389   -4.2988 C   0  0  0  0  0  0  0  0  0  0  0  0
    3.4342    0.6844   -5.1061 C   0  0  0  0  0  0  0  0  0  0  0  0
    4.2218    0.9381   -6.2300 C   0  0  0  0  0  0  0  0  0  0  0  0
    4.5797    2.2501   -6.5504 C   0  0  0  0  0  0  0  0  0  0  0  0
    4.1651    3.3149   -5.7385 C   0  0  0  0  0  0  0  0  0  0  0  0
    4.4971    4.7330   -6.1246 C   0  0  0  0  0  0  0  0  0  0  0  0
    3.4744    5.2611   -7.1275 C   0  0  0  0  0  0  0  0  0  0  0  0
    3.3639    3.0529   -4.6115 C   0  0  0  0  0  0  0  0  0  0  0  0
    2.3336    1.6405   -1.8375 C   0  0  0  0  0  0  0  0  0  0  0  0
    3.7284    2.0868   -0.9526 S   0  0  0  0  0  0  0  0  0  0  0  0
    2.9605    1.6928    0.5177 C   0  0  0  0  0  0  0  0  0  0  0  0
    3.1694    1.7631    1.8670 C   0  0  0  0  0  0  0  0  0  0  0  0
    4.2113    2.3285    2.6085 C   0  0  0  0  0  0  0  0  0  0  0  0
    4.0716    2.4218    4.0271 C   0  0  0  0  0  0  0  0  0  0  0  0
    5.1009    2.9784    4.7093 N   0  0  0  0  0  0  0  0  0  0  0  0
    6.1167    3.3321    3.4493 S   0  0  0  0  0  0  0  0  0  0  0  0
    5.3502    2.8268    2.0670 N   0  0  0  0  0  0  0  0  0  0  0  0
    2.9116    1.9138    4.6256 C   0  0  0  0  0  0  0  0  0  0  0  0
    2.5752    1.7432    5.9422 C   0  0  0  0  0  0  0  0  0  0  0  0
    3.2001    2.0158    7.5007 S   0  0  0  0  0  0  0  0  0  0  0  0
    1.9127    1.1448    8.2122 C   0  0  0  0  0  0  0  0  0  0  0  0
    1.5099    0.8800    9.5327 C   0  0  0  0  0  0  0  0  0  0  0  0
    2.2290    1.3458   10.7406 C   0  0  0  0  0  0  0  0  0  0  0  0
    1.5141    1.9069   11.8154 C   0  0  0  0  0  0  0  0  0  0  0  0
    2.1836    2.3310   12.9639 C   0  0  0  0  0  0  0  0  0  0  0  0
    3.5701    2.2034   13.0568 C   0  0  0  0  0  0  0  0  0  0  0  0
    4.3016    1.6539   11.9927 C   0  0  0  0  0  0  0  0  0  0  0  0
    5.8018    1.5821   12.0747 C   0  0  0  0  0  0  0  0  0  0  0  0
    6.4223    2.9520   11.8333 C   0  0  0  0  0  0  0  0  0  0  0  0
    3.6270    1.2301   10.8345 C   0  0  0  0  0  0  0  0  0  0  0  0
    0.2797    0.1811    9.5394 C   0  0  0  0  0  0  0  0  0  0  0  0
   -0.2494   -0.0944    7.9432 S   0  0  0  0  0  0  0  0  0  0  0  0
    1.0662    0.6592    7.2496 C   0  0  0  0  0  0  0  0  0  0  0  0
    1.4444    1.0020    5.9601 C   0  0  0  0  0  0  0  0  0  0  0  0
    1.0127    0.6338    4.7277 N   0  0  0  0  0  0  0  0  0  0  0  0
    1.8901    1.2804    3.8856 C   0  0  0  0  0  0  0  0  0  0  0  0
    1.9858    1.2787    2.4631 C   0  0  0  0  0  0  0  0  0  0  0  0
    1.0421    1.0010    1.5011 N   0  0  0  0  0  0  0  0  0  0  0  0
    1.6952    1.2463    0.3380 C   0  0  0  0  0  0  0  0  0  0  0  0
    1.3265    1.2423   -0.9958 C   0  0  0  0  0  0  0  0  0  0  0  0
    0.0111    0.7090   -1.8627 S   0  0  0  0  0  0  0  0  0  0  0  0
   -0.4171    0.9284    1.6256 C   0  0  0  0  0  0  0  0  0  0  0  0
   -0.9377   -0.4728    1.2852 C   0  0  0  0  0  0  0  0  0  0  0  0
    0.3046   -0.6344    4.4960 C   0  0  0  0  0  0  0  0  0  0  0  0
    1.2682   -1.7325    4.0534 C   0  0  0  0  0  0  0  0  0  0  0  0
   -0.4772   -0.3129   10.7048 C   0  0  0  0  0  0  0  0  0  0  0  0
   -1.8123    0.0897   10.8884 C   0  0  0  0  0  0  0  0  0  0  0  0
   -2.3596    1.0308   10.0788 F   0  0  0  0  0  0  0  0  0  0  0  0
   -2.6134   -0.5039   11.8762 C   0  0  0  0  0  0  0  0  0  0  0  0
   -3.9211   -0.1458   11.9591 F   0  0  0  0  0  0  0  0  0  0  0  0
   -2.0971   -1.5135   12.7126 C   0  0  0  0  0  0  0  0  0  0  0  0
   -0.7603   -1.9048   12.5523 C   0  0  0  0  0  0  0  0  0  0  0  0
    0.0561   -1.2960   11.5531 C   0  0  0  0  0  0  0  0  0  0  0  0
    1.3293   -1.7562   11.4507 N   0  0  0  0  0  0  0  0  0  0  0  0
    1.3319   -2.8985   12.6429 S   0  0  0  0  0  0  0  0  0  0  0  0
   -0.1806   -2.8781   13.3030 N   0  0  0  0  0  0  0  0  0  0  0  0
   -3.0007   -2.2694   13.6055 C   0  0  0  0  0  0  0  0  0  0  0  0
   -3.7628   -1.7038   14.5521 C   0  0  0  0  0  0  0  0  0  0  0  0
   -3.7430   -0.3191   15.0542 C   0  0  0  0  0  0  0  0  0  0  0  0
   -2.9181    0.5808   14.7288 O   0  0  0  0  0  0  0  0  0  0  0  0
   -4.7699   -0.1962   16.0858 C   0  0  0  0  0  0  0  0  0  0  0  0
   -5.1416    0.9130   16.8435 C   0  0  0  0  0  0  0  0  0  0  0  0
   -6.1798    0.7628   17.7757 C   0  0  0  0  0  0  0  0  0  0  0  0
   -6.8234   -0.4839   17.9354 C   0  0  0  0  0  0  0  0  0  0  0  0
   -6.4324   -1.5909   17.1655 C   0  0  0  0  0  0  0  0  0  0  0  0
   -5.4018   -1.4196   16.2423 C   0  0  0  0  0  0  0  0  0  0  0  0
   -4.8093   -2.3845   15.3254 C   0  0  0  0  0  0  0  0  0  0  0  0
   -5.1766   -3.5821   15.1823 O   0  0  0  0  0  0  0  0  0  0  0  0
   -3.9326   -1.8940   -8.9161 H   0  0  0  0  0  0  0  0  0  0  0  0
    0.3544   -2.4934  -13.4404 H   0  0  0  0  0  0  0  0  0  0  0  0
   -0.4790   -3.2513  -15.6627 H   0  0  0  0  0  0  0  0  0  0  0  0
   -4.3741   -3.9866  -13.9863 H   0  0  0  0  0  0  0  0  0  0  0  0
   -1.6632    2.3737  -11.3462 H   0  0  0  0  0  0  0  0  0  0  0  0
    0.1733    3.3069  -12.6666 H   0  0  0  0  0  0  0  0  0  0  0  0
    3.6232    2.2928  -12.5204 H   0  0  0  0  0  0  0  0  0  0  0  0
    3.3581    3.7827  -11.5349 H   0  0  0  0  0  0  0  0  0  0  0  0
    2.5143    3.5854  -13.1135 H   0  0  0  0  0  0  0  0  0  0  0  0
    3.0214    1.2938  -10.1368 H   0  0  0  0  0  0  0  0  0  0  0  0
    1.1959    0.3450   -8.8224 H   0  0  0  0  0  0  0  0  0  0  0  0
   -4.1441    0.4721   -9.1221 H   0  0  0  0  0  0  0  0  0  0  0  0
   -5.9088    2.0569   -8.5341 H   0  0  0  0  0  0  0  0  0  0  0  0
   -5.9995    4.4211   -6.7386 H   0  0  0  0  0  0  0  0  0  0  0  0
   -5.2878    5.7038   -7.7933 H   0  0  0  0  0  0  0  0  0  0  0  0
   -6.5068    4.5650   -8.4704 H   0  0  0  0  0  0  0  0  0  0  0  0
   -2.9496    5.1045   -7.8398 H   0  0  0  0  0  0  0  0  0  0  0  0
   -1.1773    3.5086   -8.4000 H   0  0  0  0  0  0  0  0  0  0  0  0
    1.8879   -2.3912   -4.7792 H   0  0  0  0  0  0  0  0  0  0  0  0
    3.8968   -3.1492   -3.5925 H   0  0  0  0  0  0  0  0  0  0  0  0
    5.0812   -3.3785   -1.4242 H   0  0  0  0  0  0  0  0  0  0  0  0
    4.1568   -3.4098    0.1164 H   0  0  0  0  0  0  0  0  0  0  0  0
    4.1509   -4.8626   -0.9625 H   0  0  0  0  0  0  0  0  0  0  0  0
    1.6792   -3.2419    0.1050 H   0  0  0  0  0  0  0  0  0  0  0  0
   -0.3168   -2.4690   -1.0753 H   0  0  0  0  0  0  0  0  0  0  0  0
   -2.6937   -0.2392   -3.4569 H   0  0  0  0  0  0  0  0  0  0  0  0
   -4.9599   -0.9069   -2.8004 H   0  0  0  0  0  0  0  0  0  0  0  0
   -5.9635   -3.1722   -1.0302 H   0  0  0  0  0  0  0  0  0  0  0  0
   -6.6178   -2.8182   -2.6771 H   0  0  0  0  0  0  0  0  0  0  0  0
   -6.0300   -4.4703   -2.2806 H   0  0  0  0  0  0  0  0  0  0  0  0
   -3.6406   -4.9853   -2.3822 H   0  0  0  0  0  0  0  0  0  0  0  0
   -1.3783   -4.3287   -3.0767 H   0  0  0  0  0  0  0  0  0  0  0  0
    3.1528   -0.3363   -4.8777 H   0  0  0  0  0  0  0  0  0  0  0  0
    4.5358    0.1176   -6.8659 H   0  0  0  0  0  0  0  0  0  0  0  0
    5.1714    2.4320   -7.4380 H   0  0  0  0  0  0  0  0  0  0  0  0
    5.5082    4.7670   -6.5879 H   0  0  0  0  0  0  0  0  0  0  0  0
    4.5217    5.3845   -5.2301 H   0  0  0  0  0  0  0  0  0  0  0  0
    3.5465    4.7012   -8.0814 H   0  0  0  0  0  0  0  0  0  0  0  0
    3.6733    6.3328   -7.3304 H   0  0  0  0  0  0  0  0  0  0  0  0
    2.4442    5.1602   -6.7199 H   0  0  0  0  0  0  0  0  0  0  0  0
    3.0005    3.8777   -4.0050 H   0  0  0  0  0  0  0  0  0  0  0  0
    0.4433    2.0396   11.7562 H   0  0  0  0  0  0  0  0  0  0  0  0
    1.6265    2.7685   13.7820 H   0  0  0  0  0  0  0  0  0  0  0  0
    4.0760    2.5434   13.9490 H   0  0  0  0  0  0  0  0  0  0  0  0
    6.1000    1.2135   13.0820 H   0  0  0  0  0  0  0  0  0  0  0  0
    6.2025    0.8592   11.3289 H   0  0  0  0  0  0  0  0  0  0  0  0
    7.5301    2.8766   11.8735 H   0  0  0  0  0  0  0  0  0  0  0  0
    6.1234    3.3365   10.8325 H   0  0  0  0  0  0  0  0  0  0  0  0
    6.0875    3.6726   12.6137 H   0  0  0  0  0  0  0  0  0  0  0  0
    4.1872    0.7976   10.0140 H   0  0  0  0  0  0  0  0  0  0  0  0
   -0.7381    1.2509    2.6346 H   0  0  0  0  0  0  0  0  0  0  0  0
   -0.8871    1.6584    0.9284 H   0  0  0  0  0  0  0  0  0  0  0  0
   -0.2190   -1.2559    1.6081 H   0  0  0  0  0  0  0  0  0  0  0  0
   -1.9143   -0.6422    1.7872 H   0  0  0  0  0  0  0  0  0  0  0  0
   -1.1022   -0.5882    0.2016 H   0  0  0  0  0  0  0  0  0  0  0  0
   -0.5250   -0.5214    3.7953 H   0  0  0  0  0  0  0  0  0  0  0  0
   -0.1913   -0.9822    5.4223 H   0  0  0  0  0  0  0  0  0  0  0  0
    0.7185   -2.6866    3.9177 H   0  0  0  0  0  0  0  0  0  0  0  0
    1.7582   -1.4718    3.0932 H   0  0  0  0  0  0  0  0  0  0  0  0
    2.0522   -1.8784    4.8258 H   0  0  0  0  0  0  0  0  0  0  0  0
   -3.0937   -3.3379   13.4363 H   0  0  0  0  0  0  0  0  0  0  0  0
   -4.6305    1.8614   16.7264 H   0  0  0  0  0  0  0  0  0  0  0  0
   -6.4954    1.6081   18.3672 H   0  0  0  0  0  0  0  0  0  0  0  0
   -7.6223   -0.5883   18.6550 H   0  0  0  0  0  0  0  0  0  0  0  0
   -6.9228   -2.5489   17.2758 H   0  0  0  0  0  0  0  0  0  0  0  0
  1  2  2  3
  2  3  1  0
  3  4  2  0
  3  5  1  0
  5  6  2  0
  6  7  1  0
  7  8  2  0
  8  9  1  0
  8 10  1  0
 10 11  2  0
 11 12  1  0
 12 13  2  3
 13 14  1  0
 14 15  3  0
 13 16  1  0
 16 17  3  0
  1 18  1  0
 18 19  2  0
 19 20  1  0
 20 21  1  0
 21 22  2  0
 22 23  1  0
 23 24  2  0
 24 25  1  0
 24 26  1  0
 26 27  2  0
 20 28  1  0
 28 29  2  0
 29 30  1  0
 30 31  2  0
 31 32  1  0
 31 33  1  0
 33 34  2  0
 19 35  1  0
 35 36  1  0
 36 37  1  0
 37 38  2  0
 38 39  1  0
 39 40  1  0
 40 41  2  0
 41 42  1  0
 42 43  2  0
 43 44  1  0
 43 45  1  0
 45 46  2  0
 39 47  1  0
 47 48  2  0
 48 49  1  0
 49 50  2  0
 50 51  1  0
 50 52  1  0
 52 53  2  0
 38 54  1  0
 54 55  1  0
 37 56  1  0
 56 57  2  0
 57 58  1  0
 58 59  2  0
 59 60  1  0
 60 61  2  0
 61 62  1  0
 62 63  1  0
 63 64  1  0
 62 65  2  0
 57 66  1  0
 66 67  1  0
 67 68  1  0
 68 69  1  0
 69 70  1  0
 70 71  1  0
 71 72  2  0
 72 73  1  0
 73 74  1  0
 71 75  1  0
 75 76  1  0
 76 77  1  0
 77 78  1  0
 78 79  1  0
 79 80  1  0
 80 81  2  0
 81 82  1  0
 82 83  2  0
 83 84  1  0
 84 85  1  0
 85 86  1  0
 84 87  2  0
 79 88  2  0
 88 89  1  0
 89 90  1  0
 90 91  1  0
 91 92  1  0
 92 93  1  0
 93 94  1  0
 94 95  1  0
 95 96  1  0
 96 97  1  0
 97 98  1  0
 95 99  1  0
 99100  1  0
 92101  1  0
101102  1  0
 88103  1  0
103104  2  0
104105  1  0
104106  1  0
106107  1  0
106108  2  0
108109  1  0
109110  1  0
110111  2  0
111112  1  0
112113  1  0
108114  1  0
114115  2  3
115116  1  0
116117  2  0
116118  1  0
118119  2  0
119120  1  0
120121  2  0
121122  1  0
122123  2  0
123124  1  0
124125  2  0
 12  2  1  0
 55 18  1  0
 98 56  1  0
110103  1  0
124115  1  0
 11  5  1  0
 27 21  1  0
 34 28  1  0
 54 35  2  0
 65 58  1  0
 97 66  2  0
113109  2  0
123118  1  0
 46 40  1  0
 53 47  1  0
 96 68  2  0
 94 69  2  0
 74 70  2  0
 93 75  2  0
 91 76  2  0
 90 78  2  0
 87 80  1  0
  1126  1  0
  6127  1  0
  7128  1  0
 10129  1  0
 22130  1  0
 23131  1  0
 25132  1  0
 25133  1  0
 25134  1  0
 26135  1  0
 27136  1  0
 29137  1  0
 30138  1  0
 32139  1  0
 32140  1  0
 32141  1  0
 33142  1  0
 34143  1  0
 41144  1  0
 42145  1  0
 44146  1  0
 44147  1  0
 44148  1  0
 45149  1  0
 46150  1  0
 48151  1  0
 49152  1  0
 51153  1  0
 51154  1  0
 51155  1  0
 52156  1  0
 53157  1  0
 59158  1  0
 60159  1  0
 61160  1  0
 63161  1  0
 63162  1  0
 64163  1  0
 64164  1  0
 64165  1  0
 65166  1  0
 81167  1  0
 82168  1  0
 83169  1  0
 85170  1  0
 85171  1  0
 86172  1  0
 86173  1  0
 86174  1  0
 87175  1  0
 99176  1  0
 99177  1  0
100178  1  0
100179  1  0
100180  1  0
101181  1  0
101182  1  0
102183  1  0
102184  1  0
102185  1  0
114186  1  0
119187  1  0
120188  1  0
121189  1  0
122190  1  0
M  END

