
     RDKit          3D

211233  0  0  0  0  0  0  0  0999 V2000
    4.6483    2.8846    5.0875 C   0  0  0  0  0  0  0  0  0  0  0  0
    4.3454    4.1663    5.3655 C   0  0  0  0  0  0  0  0  0  0  0  0
    3.7785    5.1386    4.4214 C   0  0  0  0  0  0  0  0  0  0  0  0
    3.7300    5.0359    3.1651 O   0  0  0  0  0  0  0  0  0  0  0  0
    3.1780    6.2122    5.1810 C   0  0  0  0  0  0  0  0  0  0  0  0
    2.4585    7.3052    4.6994 C   0  0  0  0  0  0  0  0  0  0  0  0
    1.9067    8.1997    5.6245 C   0  0  0  0  0  0  0  0  0  0  0  0
    2.0634    7.9795    7.0036 C   0  0  0  0  0  0  0  0  0  0  0  0
    1.3509    9.1004    8.1479 Cl  0  0  0  0  0  0  0  0  0  0  0  0
    2.7860    6.8675    7.4683 C   0  0  0  0  0  0  0  0  0  0  0  0
    3.3612    5.9875    6.5355 C   0  0  0  0  0  0  0  0  0  0  0  0
    4.1810    4.7553    6.7291 C   0  0  0  0  0  0  0  0  0  0  0  0
    4.8293    4.3694    7.8598 C   0  0  0  0  0  0  0  0  0  0  0  0
    5.8372    3.3388    7.8489 C   0  0  0  0  0  0  0  0  0  0  0  0
    6.6521    2.5148    7.8459 N   0  0  0  0  0  0  0  0  0  0  0  0
    4.6500    5.0260    9.1245 C   0  0  0  0  0  0  0  0  0  0  0  0
    4.5199    5.5458   10.1539 N   0  0  0  0  0  0  0  0  0  0  0  0
    4.6538    2.3256    3.7269 C   0  0  0  0  0  0  0  0  0  0  0  0
    3.8924    1.2234    3.3097 C   0  0  0  0  0  0  0  0  0  0  0  0
    2.9063    0.5453    4.1117 N   0  0  0  0  0  0  0  0  0  0  0  0
    1.9063    1.2966    4.8386 C   0  0  0  0  0  0  0  0  0  0  0  0
    1.4283    0.8376    6.0797 C   0  0  0  0  0  0  0  0  0  0  0  0
    0.4720    1.5718    6.7900 C   0  0  0  0  0  0  0  0  0  0  0  0
   -0.0320    2.7683    6.2634 C   0  0  0  0  0  0  0  0  0  0  0  0
   -1.0364    3.5728    7.0338 C   0  0  0  0  0  0  0  0  0  0  0  0
    0.4531    3.2433    5.0357 C   0  0  0  0  0  0  0  0  0  0  0  0
    1.4049    2.5067    4.3233 C   0  0  0  0  0  0  0  0  0  0  0  0
    2.8919   -0.8969    4.1073 C   0  0  0  0  0  0  0  0  0  0  0  0
    4.0904   -1.6152    4.2579 C   0  0  0  0  0  0  0  0  0  0  0  0
    4.0986   -3.0075    4.1546 C   0  0  0  0  0  0  0  0  0  0  0  0
    2.9075   -3.7038    3.9016 C   0  0  0  0  0  0  0  0  0  0  0  0
    2.9312   -5.1882    3.6993 C   0  0  0  0  0  0  0  0  0  0  0  0
    1.7081   -2.9891    3.7465 C   0  0  0  0  0  0  0  0  0  0  0  0
    1.6986   -1.5969    3.8592 C   0  0  0  0  0  0  0  0  0  0  0  0
    4.1743    0.8973    1.9867 C   0  0  0  0  0  0  0  0  0  0  0  0
    3.4864   -0.1559    0.8784 S   0  0  0  0  0  0  0  0  0  0  0  0
    4.4666    0.3745   -0.4081 C   0  0  0  0  0  0  0  0  0  0  0  0
    5.3111    1.4031    0.0292 C   0  0  0  0  0  0  0  0  0  0  0  0
    6.1238    2.2095   -0.8387 N   0  0  0  0  0  0  0  0  0  0  0  0
    5.4873    2.9193   -1.9207 C   0  0  0  0  0  0  0  0  0  0  0  0
    6.0643    2.9324   -3.2015 C   0  0  0  0  0  0  0  0  0  0  0  0
    5.4151    3.5717   -4.2621 C   0  0  0  0  0  0  0  0  0  0  0  0
    4.1871    4.2195   -4.0552 C   0  0  0  0  0  0  0  0  0  0  0  0
    3.4663    4.8570   -5.2062 C   0  0  0  0  0  0  0  0  0  0  0  0
    3.6028    4.1982   -2.7794 C   0  0  0  0  0  0  0  0  0  0  0  0
    4.2511    3.5587   -1.7181 C   0  0  0  0  0  0  0  0  0  0  0  0
    7.5407    2.3171   -0.5920 C   0  0  0  0  0  0  0  0  0  0  0  0
    8.2032    3.5442   -0.7654 C   0  0  0  0  0  0  0  0  0  0  0  0
    9.5732    3.6503   -0.5120 C   0  0  0  0  0  0  0  0  0  0  0  0
   10.3048    2.5267   -0.0965 C   0  0  0  0  0  0  0  0  0  0  0  0
   11.7653    2.6511    0.2184 C   0  0  0  0  0  0  0  0  0  0  0  0
    9.6434    1.3056    0.0956 C   0  0  0  0  0  0  0  0  0  0  0  0
    8.2735    1.1991   -0.1546 C   0  0  0  0  0  0  0  0  0  0  0  0
    5.1182    1.6655    1.3847 C   0  0  0  0  0  0  0  0  0  0  0  0
    5.6768    2.8329    2.4556 S   0  0  0  0  0  0  0  0  0  0  0  0
    4.3572   -0.1340   -1.7747 C   0  0  0  0  0  0  0  0  0  0  0  0
    5.0755   -1.2109   -2.3217 C   0  0  0  0  0  0  0  0  0  0  0  0
    6.2133   -1.9030   -1.6826 C   0  0  0  0  0  0  0  0  0  0  0  0
    7.4138   -2.0625   -2.3932 C   0  0  0  0  0  0  0  0  0  0  0  0
    8.4950   -2.7247   -1.8113 C   0  0  0  0  0  0  0  0  0  0  0  0
    8.3867   -3.2411   -0.5186 C   0  0  0  0  0  0  0  0  0  0  0  0
    7.1944   -3.0884    0.2055 C   0  0  0  0  0  0  0  0  0  0  0  0
    7.0621   -3.6676    1.5890 C   0  0  0  0  0  0  0  0  0  0  0  0
    6.2591   -4.9650    1.5585 C   0  0  0  0  0  0  0  0  0  0  0  0
    6.1096   -2.4234   -0.3839 C   0  0  0  0  0  0  0  0  0  0  0  0
    4.5380   -1.5914   -3.5536 C   0  0  0  0  0  0  0  0  0  0  0  0
    4.6414   -3.0474   -4.4252 S   0  0  0  0  0  0  0  0  0  0  0  0
    3.3447   -2.6051   -5.4289 C   0  0  0  0  0  0  0  0  0  0  0  0
    2.3538   -3.3059   -6.0691 C   0  0  0  0  0  0  0  0  0  0  0  0
    2.1136   -4.6943   -6.0835 C   0  0  0  0  0  0  0  0  0  0  0  0
    0.7864   -5.1658   -6.3419 C   0  0  0  0  0  0  0  0  0  0  0  0
    0.5755   -6.4996   -6.2419 N   0  0  0  0  0  0  0  0  0  0  0  0
    2.1018   -6.9911   -5.8184 S   0  0  0  0  0  0  0  0  0  0  0  0
    3.0371   -5.6259   -5.7426 N   0  0  0  0  0  0  0  0  0  0  0  0
   -0.2076   -4.2332   -6.6709 C   0  0  0  0  0  0  0  0  0  0  0  0
   -1.5659   -4.3468   -6.8658 C   0  0  0  0  0  0  0  0  0  0  0  0
   -2.7398   -5.3070   -6.0974 S   0  0  0  0  0  0  0  0  0  0  0  0
   -3.8780   -4.0374   -6.0834 C   0  0  0  0  0  0  0  0  0  0  0  0
   -4.9942   -3.8088   -5.2648 C   0  0  0  0  0  0  0  0  0  0  0  0
   -5.7113   -4.8804   -4.5505 C   0  0  0  0  0  0  0  0  0  0  0  0
   -7.0742   -5.1009   -4.8088 C   0  0  0  0  0  0  0  0  0  0  0  0
   -7.7698   -6.1011   -4.1236 C   0  0  0  0  0  0  0  0  0  0  0  0
   -7.1136   -6.8810   -3.1686 C   0  0  0  0  0  0  0  0  0  0  0  0
   -5.7548   -6.6622   -2.8871 C   0  0  0  0  0  0  0  0  0  0  0  0
   -5.0384   -7.5207   -1.8785 C   0  0  0  0  0  0  0  0  0  0  0  0
   -4.4989   -8.7901   -2.5306 C   0  0  0  0  0  0  0  0  0  0  0  0
   -5.0535   -5.6707   -3.5947 C   0  0  0  0  0  0  0  0  0  0  0  0
   -5.2813   -2.4234   -5.1596 C   0  0  0  0  0  0  0  0  0  0  0  0
   -4.1588   -1.5633   -6.1012 S   0  0  0  0  0  0  0  0  0  0  0  0
   -3.3392   -2.9088   -6.6443 C   0  0  0  0  0  0  0  0  0  0  0  0
   -2.0309   -3.0720   -7.0705 C   0  0  0  0  0  0  0  0  0  0  0  0
   -1.0433   -2.1495   -7.0280 N   0  0  0  0  0  0  0  0  0  0  0  0
    0.0648   -2.8664   -6.7124 C   0  0  0  0  0  0  0  0  0  0  0  0
    1.3033   -2.3910   -6.2378 C   0  0  0  0  0  0  0  0  0  0  0  0
    1.5360   -1.2410   -5.5237 N   0  0  0  0  0  0  0  0  0  0  0  0
    2.8095   -1.3969   -5.0747 C   0  0  0  0  0  0  0  0  0  0  0  0
    3.4746   -0.8373   -3.9838 C   0  0  0  0  0  0  0  0  0  0  0  0
    3.0937    0.3088   -2.8193 S   0  0  0  0  0  0  0  0  0  0  0  0
    0.5196   -0.4422   -4.8173 C   0  0  0  0  0  0  0  0  0  0  0  0
   -0.0580   -1.2174   -3.6322 C   0  0  0  0  0  0  0  0  0  0  0  0
   -1.0643   -0.8819   -7.7694 C   0  0  0  0  0  0  0  0  0  0  0  0
   -1.2657   -1.1243   -9.2645 C   0  0  0  0  0  0  0  0  0  0  0  0
   -6.0918   -1.7327   -4.1270 C   0  0  0  0  0  0  0  0  0  0  0  0
   -6.5822   -2.2847   -2.9395 C   0  0  0  0  0  0  0  0  0  0  0  0
   -6.9653   -1.3245   -1.9853 C   0  0  0  0  0  0  0  0  0  0  0  0
   -7.3895   -1.5893   -0.6642 C   0  0  0  0  0  0  0  0  0  0  0  0
   -7.6260   -2.9995   -0.1674 C   0  0  0  0  0  0  0  0  0  0  0  0
   -8.9441   -3.5501   -0.7049 C   0  0  0  0  0  0  0  0  0  0  0  0
   -7.5780   -0.4721    0.1712 C   0  0  0  0  0  0  0  0  0  0  0  0
   -7.3584    0.8431   -0.2595 C   0  0  0  0  0  0  0  0  0  0  0  0
   -6.9616    1.1089   -1.5900 C   0  0  0  0  0  0  0  0  0  0  0  0
   -6.7200    2.5172   -2.0896 C   0  0  0  0  0  0  0  0  0  0  0  0
   -8.0272    3.1660   -2.5286 C   0  0  0  0  0  0  0  0  0  0  0  0
   -6.7855   -0.0095   -2.4264 C   0  0  0  0  0  0  0  0  0  0  0  0
   -6.1668   -0.0486   -3.9875 S   0  0  0  0  0  0  0  0  0  0  0  0
   -7.5052    1.7895    0.7697 C   0  0  0  0  0  0  0  0  0  0  0  0
   -7.7918    1.2101    1.9980 C   0  0  0  0  0  0  0  0  0  0  0  0
   -7.9496   -0.4584    1.8135 S   0  0  0  0  0  0  0  0  0  0  0  0
   -7.8871    1.9469    3.2648 C   0  0  0  0  0  0  0  0  0  0  0  0
   -7.0471    1.7611    4.2987 C   0  0  0  0  0  0  0  0  0  0  0  0
   -6.0002    0.7304    4.3871 C   0  0  0  0  0  0  0  0  0  0  0  0
   -5.4794    0.1008    3.4294 O   0  0  0  0  0  0  0  0  0  0  0  0
   -5.5979    0.6092    5.7676 C   0  0  0  0  0  0  0  0  0  0  0  0
   -4.7344   -0.3297    6.3306 C   0  0  0  0  0  0  0  0  0  0  0  0
   -4.5416   -0.3100    7.7166 C   0  0  0  0  0  0  0  0  0  0  0  0
   -5.2159    0.6333    8.5121 C   0  0  0  0  0  0  0  0  0  0  0  0
   -4.9847    0.6273   10.2501 Cl  0  0  0  0  0  0  0  0  0  0  0  0
   -6.0886    1.5658    7.9233 C   0  0  0  0  0  0  0  0  0  0  0  0
   -6.2561    1.5586    6.5292 C   0  0  0  0  0  0  0  0  0  0  0  0
   -7.1006    2.4112    5.6462 C   0  0  0  0  0  0  0  0  0  0  0  0
   -7.5592    3.6607    5.9308 C   0  0  0  0  0  0  0  0  0  0  0  0
   -8.1152    4.5287    4.9259 C   0  0  0  0  0  0  0  0  0  0  0  0
   -8.5674    5.2377    4.1229 N   0  0  0  0  0  0  0  0  0  0  0  0
   -7.4178    4.2647    7.2312 C   0  0  0  0  0  0  0  0  0  0  0  0
   -7.3064    4.7695    8.2675 N   0  0  0  0  0  0  0  0  0  0  0  0
    4.7390    2.1691    5.8892 H   0  0  0  0  0  0  0  0  0  0  0  0
    2.3174    7.4573    3.6371 H   0  0  0  0  0  0  0  0  0  0  0  0
    1.3485    9.0576    5.2714 H   0  0  0  0  0  0  0  0  0  0  0  0
    2.8588    6.7093    8.5293 H   0  0  0  0  0  0  0  0  0  0  0  0
    1.8024   -0.0850    6.5031 H   0  0  0  0  0  0  0  0  0  0  0  0
    0.1245    1.2041    7.7484 H   0  0  0  0  0  0  0  0  0  0  0  0
   -1.6420    2.9166    7.6959 H   0  0  0  0  0  0  0  0  0  0  0  0
   -0.5077    4.3258    7.6549 H   0  0  0  0  0  0  0  0  0  0  0  0
   -1.7314    4.0962    6.3429 H   0  0  0  0  0  0  0  0  0  0  0  0
    0.0920    4.1793    4.6289 H   0  0  0  0  0  0  0  0  0  0  0  0
    1.7469    2.8830    3.3663 H   0  0  0  0  0  0  0  0  0  0  0  0
    5.0202   -1.0895    4.4409 H   0  0  0  0  0  0  0  0  0  0  0  0
    5.0363   -3.5421    4.2610 H   0  0  0  0  0  0  0  0  0  0  0  0
    3.0298   -5.4115    2.6157 H   0  0  0  0  0  0  0  0  0  0  0  0
    3.7871   -5.6479    4.2404 H   0  0  0  0  0  0  0  0  0  0  0  0
    1.9946   -5.6478    4.0807 H   0  0  0  0  0  0  0  0  0  0  0  0
    0.7859   -3.5107    3.5176 H   0  0  0  0  0  0  0  0  0  0  0  0
    0.7697   -1.0558    3.7161 H   0  0  0  0  0  0  0  0  0  0  0  0
    7.0028    2.4244   -3.3819 H   0  0  0  0  0  0  0  0  0  0  0  0
    5.8648    3.5550   -5.2479 H   0  0  0  0  0  0  0  0  0  0  0  0
    2.7930    5.6670   -4.8543 H   0  0  0  0  0  0  0  0  0  0  0  0
    4.1893    5.3016   -5.9234 H   0  0  0  0  0  0  0  0  0  0  0  0
    2.8612    4.0920   -5.7364 H   0  0  0  0  0  0  0  0  0  0  0  0
    2.6450    4.6733   -2.6071 H   0  0  0  0  0  0  0  0  0  0  0  0
    3.7860    3.5554   -0.7373 H   0  0  0  0  0  0  0  0  0  0  0  0
    7.6535    4.4231   -1.0830 H   0  0  0  0  0  0  0  0  0  0  0  0
   10.0637    4.6075   -0.6397 H   0  0  0  0  0  0  0  0  0  0  0  0
   12.2429    3.4196   -0.4278 H   0  0  0  0  0  0  0  0  0  0  0  0
   12.2901    1.6864    0.0450 H   0  0  0  0  0  0  0  0  0  0  0  0
   11.8907    2.9452    1.2825 H   0  0  0  0  0  0  0  0  0  0  0  0
   10.1878    0.4329    0.4355 H   0  0  0  0  0  0  0  0  0  0  0  0
    7.7862    0.2421   -0.0184 H   0  0  0  0  0  0  0  0  0  0  0  0
    7.5142   -1.6621   -3.3966 H   0  0  0  0  0  0  0  0  0  0  0  0
    9.4196   -2.8400   -2.3632 H   0  0  0  0  0  0  0  0  0  0  0  0
    9.2310   -3.7642   -0.0878 H   0  0  0  0  0  0  0  0  0  0  0  0
    6.5537   -2.9342    2.2480 H   0  0  0  0  0  0  0  0  0  0  0  0
    8.0636   -3.8694    2.0259 H   0  0  0  0  0  0  0  0  0  0  0  0
    6.7479   -5.7069    0.8915 H   0  0  0  0  0  0  0  0  0  0  0  0
    6.2019   -5.3884    2.5838 H   0  0  0  0  0  0  0  0  0  0  0  0
    5.2260   -4.7752    1.1979 H   0  0  0  0  0  0  0  0  0  0  0  0
    5.1792   -2.3371    0.1605 H   0  0  0  0  0  0  0  0  0  0  0  0
   -7.5948   -4.4982   -5.5413 H   0  0  0  0  0  0  0  0  0  0  0  0
   -8.8169   -6.2738   -4.3348 H   0  0  0  0  0  0  0  0  0  0  0  0
   -7.6604   -7.6547   -2.6449 H   0  0  0  0  0  0  0  0  0  0  0  0
   -4.1926   -6.9537   -1.4268 H   0  0  0  0  0  0  0  0  0  0  0  0
   -5.7289   -7.7964   -1.0509 H   0  0  0  0  0  0  0  0  0  0  0  0
   -3.8965   -9.3587   -1.7944 H   0  0  0  0  0  0  0  0  0  0  0  0
   -5.3384   -9.4291   -2.8800 H   0  0  0  0  0  0  0  0  0  0  0  0
   -3.8503   -8.5365   -3.3971 H   0  0  0  0  0  0  0  0  0  0  0  0
   -4.0044   -5.4990   -3.3805 H   0  0  0  0  0  0  0  0  0  0  0  0
    0.9552    0.5131   -4.4729 H   0  0  0  0  0  0  0  0  0  0  0  0
   -0.3126   -0.1533   -5.4732 H   0  0  0  0  0  0  0  0  0  0  0  0
   -0.6477   -2.0876   -3.9885 H   0  0  0  0  0  0  0  0  0  0  0  0
    0.7528   -1.5851   -2.9656 H   0  0  0  0  0  0  0  0  0  0  0  0
   -0.7288   -0.5587   -3.0411 H   0  0  0  0  0  0  0  0  0  0  0  0
   -0.1008   -0.3395   -7.6521 H   0  0  0  0  0  0  0  0  0  0  0  0
   -1.8818   -0.2362   -7.3889 H   0  0  0  0  0  0  0  0  0  0  0  0
   -0.4354   -1.7439   -9.6607 H   0  0  0  0  0  0  0  0  0  0  0  0
   -1.2767   -0.1550   -9.8031 H   0  0  0  0  0  0  0  0  0  0  0  0
   -2.2298   -1.6446   -9.4487 H   0  0  0  0  0  0  0  0  0  0  0  0
   -6.5716   -3.3385   -2.7207 H   0  0  0  0  0  0  0  0  0  0  0  0
   -7.6555   -3.0334    0.9407 H   0  0  0  0  0  0  0  0  0  0  0  0
   -6.7859   -3.6592   -0.4702 H   0  0  0  0  0  0  0  0  0  0  0  0
   -8.9322   -3.5767   -1.8176 H   0  0  0  0  0  0  0  0  0  0  0  0
   -9.1041   -4.5824   -0.3271 H   0  0  0  0  0  0  0  0  0  0  0  0
   -9.7900   -2.9126   -0.3638 H   0  0  0  0  0  0  0  0  0  0  0  0
   -6.2403    3.1351   -1.3010 H   0  0  0  0  0  0  0  0  0  0  0  0
   -6.0110    2.5169   -2.9414 H   0  0  0  0  0  0  0  0  0  0  0  0
   -8.4677    2.5957   -3.3704 H   0  0  0  0  0  0  0  0  0  0  0  0
   -8.7478    3.1910   -1.6862 H   0  0  0  0  0  0  0  0  0  0  0  0
   -7.8320    4.2050   -2.8653 H   0  0  0  0  0  0  0  0  0  0  0  0
   -7.3534    2.8528    0.6529 H   0  0  0  0  0  0  0  0  0  0  0  0
   -8.6736    2.6824    3.3178 H   0  0  0  0  0  0  0  0  0  0  0  0
   -4.2363   -1.0664    5.7135 H   0  0  0  0  0  0  0  0  0  0  0  0
   -3.8801   -1.0343    8.1730 H   0  0  0  0  0  0  0  0  0  0  0  0
   -6.6362    2.2399    8.5599 H   0  0  0  0  0  0  0  0  0  0  0  0
  1  2  2  3
  2  3  1  0
  3  4  2  0
  3  5  1  0
  5  6  2  0
  6  7  1  0
  7  8  2  0
  8  9  1  0
  8 10  1  0
 10 11  2  0
 11 12  1  0
 12 13  2  3
 13 14  1  0
 14 15  3  0
 13 16  1  0
 16 17  3  0
  1 18  1  0
 18 19  2  0
 19 20  1  0
 20 21  1  0
 21 22  2  0
 22 23  1  0
 23 24  2  0
 24 25  1  0
 24 26  1  0
 26 27  2  0
 20 28  1  0
 28 29  2  0
 29 30  1  0
 30 31  2  0
 31 32  1  0
 31 33  1  0
 33 34  2  0
 19 35  1  0
 35 36  1  0
 36 37  1  0
 37 38  2  0
 38 39  1  0
 39 40  1  0
 40 41  2  0
 41 42  1  0
 42 43  2  0
 43 44  1  0
 43 45  1  0
 45 46  2  0
 39 47  1  0
 47 48  2  0
 48 49  1  0
 49 50  2  0
 50 51  1  0
 50 52  1  0
 52 53  2  0
 38 54  1  0
 54 55  1  0
 37 56  1  0
 56 57  2  0
 57 58  1  0
 58 59  2  0
 59 60  1  0
 60 61  2  0
 61 62  1  0
 62 63  1  0
 63 64  1  0
 62 65  2  0
 57 66  1  0
 66 67  1  0
 67 68  1  0
 68 69  1  0
 69 70  1  0
 70 71  1  0
 71 72  2  0
 72 73  1  0
 73 74  1  0
 71 75  1  0
 75 76  1  0
 76 77  1  0
 77 78  1  0
 78 79  1  0
 79 80  1  0
 80 81  2  0
 81 82  1  0
 82 83  2  0
 83 84  1  0
 84 85  1  0
 85 86  1  0
 84 87  2  0
 79 88  2  0
 88 89  1  0
 89 90  1  0
 90 91  1  0
 91 92  1  0
 92 93  1  0
 93 94  1  0
 94 95  1  0
 95 96  1  0
 96 97  1  0
 97 98  1  0
 95 99  1  0
 99100  1  0
 92101  1  0
101102  1  0
 88103  1  0
103104  2  0
104105  1  0
105106  2  0
106107  1  0
107108  1  0
106109  1  0
109110  2  0
110111  1  0
111112  1  0
112113  1  0
111114  2  0
114115  1  0
110116  1  0
116117  2  0
117118  1  0
117119  1  0
119120  2  3
120121  1  0
121122  2  0
121123  1  0
123124  2  0
124125  1  0
125126  2  0
126127  1  0
126128  1  0
128129  2  0
129130  1  0
130131  2  3
131132  1  0
132133  3  0
131134  1  0
134135  3  0
 12  2  1  0
 55 18  1  0
 98 56  1  0
115103  1  0
130120  1  0
 11  5  1  0
 27 21  1  0
 34 28  1  0
 54 35  2  0
 65 58  1  0
 97 66  2  0
114105  1  0
129123  1  0
 46 40  1  0
 53 47  1  0
 96 68  2  0
118109  1  0
 94 69  2  0
 74 70  2  0
 93 75  2  0
 91 76  2  0
 90 78  2  0
 87 80  1  0
  1136  1  0
  6137  1  0
  7138  1  0
 10139  1  0
 22140  1  0
 23141  1  0
 25142  1  0
 25143  1  0
 25144  1  0
 26145  1  0
 27146  1  0
 29147  1  0
 30148  1  0
 32149  1  0
 32150  1  0
 32151  1  0
 33152  1  0
 34153  1  0
 41154  1  0
 42155  1  0
 44156  1  0
 44157  1  0
 44158  1  0
 45159  1  0
 46160  1  0
 48161  1  0
 49162  1  0
 51163  1  0
 51164  1  0
 51165  1  0
 52166  1  0
 53167  1  0
 59168  1  0
 60169  1  0
 61170  1  0
 63171  1  0
 63172  1  0
 64173  1  0
 64174  1  0
 64175  1  0
 65176  1  0
 81177  1  0
 82178  1  0
 83179  1  0
 85180  1  0
 85181  1  0
 86182  1  0
 86183  1  0
 86184  1  0
 87185  1  0
 99186  1  0
 99187  1  0
100188  1  0
100189  1  0
100190  1  0
101191  1  0
101192  1  0
102193  1  0
102194  1  0
102195  1  0
104196  1  0
107197  1  0
107198  1  0
108199  1  0
108200  1  0
108201  1  0
112202  1  0
112203  1  0
113204  1  0
113205  1  0
113206  1  0
116207  1  0
119208  1  0
124209  1  0
125210  1  0
128211  1  0
M  END

