
     RDKit          3D

249274  0  0  0  0  0  0  0  0999 V2000
    2.6576    4.5557    9.1167 C   0  0  0  0  0  0  0  0  0  0  0  0
    2.1928    4.6885   10.3812 C   0  0  0  0  0  0  0  0  0  0  0  0
    1.9379    6.0127   10.9568 C   0  0  0  0  0  0  0  0  0  0  0  0
    2.3637    7.1146   10.5097 O   0  0  0  0  0  0  0  0  0  0  0  0
    1.0539    5.8667   12.0868 C   0  0  0  0  0  0  0  0  0  0  0  0
    0.5855    6.8607   12.9342 C   0  0  0  0  0  0  0  0  0  0  0  0
   -0.1674    6.4882   14.0542 C   0  0  0  0  0  0  0  0  0  0  0  0
   -0.4428    5.1343   14.3027 C   0  0  0  0  0  0  0  0  0  0  0  0
   -1.3543    4.6847   15.7322 Cl  0  0  0  0  0  0  0  0  0  0  0  0
    0.0295    4.1396   13.4302 C   0  0  0  0  0  0  0  0  0  0  0  0
    0.7756    4.5270   12.2983 C   0  0  0  0  0  0  0  0  0  0  0  0
    1.5371    3.7107   11.3030 C   0  0  0  0  0  0  0  0  0  0  0  0
    1.9557    2.4459   11.5527 C   0  0  0  0  0  0  0  0  0  0  0  0
    3.3144    2.0467   11.2976 C   0  0  0  0  0  0  0  0  0  0  0  0
    4.4032    1.6982   11.0953 N   0  0  0  0  0  0  0  0  0  0  0  0
    1.0760    1.4601   12.1306 C   0  0  0  0  0  0  0  0  0  0  0  0
    0.3619    0.6631   12.5727 N   0  0  0  0  0  0  0  0  0  0  0  0
    2.6542    3.3671    8.2114 C   0  0  0  0  0  0  0  0  0  0  0  0
    3.1536    3.4001    6.8890 C   0  0  0  0  0  0  0  0  0  0  0  0
    3.4446    4.6042    6.1579 N   0  0  0  0  0  0  0  0  0  0  0  0
    2.4350    5.6377    6.0305 C   0  0  0  0  0  0  0  0  0  0  0  0
    2.7942    6.9856    5.8592 C   0  0  0  0  0  0  0  0  0  0  0  0
    1.8146    7.9819    5.7690 C   0  0  0  0  0  0  0  0  0  0  0  0
    0.4598    7.6466    5.8565 C   0  0  0  0  0  0  0  0  0  0  0  0
   -0.5880    8.7229    5.8093 C   0  0  0  0  0  0  0  0  0  0  0  0
    0.0898    6.3079    6.0477 C   0  0  0  0  0  0  0  0  0  0  0  0
    1.0681    5.3106    6.1137 C   0  0  0  0  0  0  0  0  0  0  0  0
    4.7342    4.7319    5.5295 C   0  0  0  0  0  0  0  0  0  0  0  0
    5.9015    4.5158    6.2738 C   0  0  0  0  0  0  0  0  0  0  0  0
    7.1568    4.6664    5.6766 C   0  0  0  0  0  0  0  0  0  0  0  0
    7.2574    5.0066    4.3168 C   0  0  0  0  0  0  0  0  0  0  0  0
    8.5959    5.2015    3.6698 C   0  0  0  0  0  0  0  0  0  0  0  0
    6.0838    5.2054    3.5700 C   0  0  0  0  0  0  0  0  0  0  0  0
    4.8343    5.0884    4.1761 C   0  0  0  0  0  0  0  0  0  0  0  0
    3.1204    2.1374    6.2977 C   0  0  0  0  0  0  0  0  0  0  0  0
    3.5713    1.4889    4.8260 S   0  0  0  0  0  0  0  0  0  0  0  0
    3.0925   -0.1229    5.1654 C   0  0  0  0  0  0  0  0  0  0  0  0
    2.5469   -0.1106    6.4846 C   0  0  0  0  0  0  0  0  0  0  0  0
    1.9447   -1.1991    7.2028 N   0  0  0  0  0  0  0  0  0  0  0  0
    2.7922   -2.0488    8.0272 C   0  0  0  0  0  0  0  0  0  0  0  0
    2.2520   -3.1293    8.7508 C   0  0  0  0  0  0  0  0  0  0  0  0
    3.0658   -3.9715    9.5095 C   0  0  0  0  0  0  0  0  0  0  0  0
    4.4465   -3.7513    9.5735 C   0  0  0  0  0  0  0  0  0  0  0  0
    5.3306   -4.6889   10.3462 C   0  0  0  0  0  0  0  0  0  0  0  0
    5.0076   -2.6901    8.8515 C   0  0  0  0  0  0  0  0  0  0  0  0
    4.1924   -1.8518    8.0886 C   0  0  0  0  0  0  0  0  0  0  0  0
    0.5204   -1.0275    7.4556 C   0  0  0  0  0  0  0  0  0  0  0  0
   -0.0120   -1.0421    8.7602 C   0  0  0  0  0  0  0  0  0  0  0  0
   -1.3606   -0.7561    8.9866 C   0  0  0  0  0  0  0  0  0  0  0  0
   -2.1968   -0.4037    7.9156 C   0  0  0  0  0  0  0  0  0  0  0  0
   -3.6276   -0.0360    8.1699 C   0  0  0  0  0  0  0  0  0  0  0  0
   -1.6627   -0.3251    6.6260 C   0  0  0  0  0  0  0  0  0  0  0  0
   -0.3208   -0.6129    6.4034 C   0  0  0  0  0  0  0  0  0  0  0  0
    2.5878    1.1630    7.0516 C   0  0  0  0  0  0  0  0  0  0  0  0
    2.0908    1.7924    8.5205 S   0  0  0  0  0  0  0  0  0  0  0  0
    3.4124   -1.2378    4.2137 C   0  0  0  0  0  0  0  0  0  0  0  0
    3.1882   -2.6409    4.3009 C   0  0  0  0  0  0  0  0  0  0  0  0
    2.1315   -3.3324    5.0546 C   0  0  0  0  0  0  0  0  0  0  0  0
    2.5216   -4.3626    5.9267 C   0  0  0  0  0  0  0  0  0  0  0  0
    1.5710   -5.2017    6.5141 C   0  0  0  0  0  0  0  0  0  0  0  0
    0.2159   -5.0143    6.2455 C   0  0  0  0  0  0  0  0  0  0  0  0
   -0.1884   -4.0329    5.3428 C   0  0  0  0  0  0  0  0  0  0  0  0
    0.7590   -3.2160    4.6988 C   0  0  0  0  0  0  0  0  0  0  0  0
    0.2851   -2.3466    3.5526 C   0  0  0  0  0  0  0  0  0  0  0  0
    0.1773   -3.1476    2.2537 C   0  0  0  0  0  0  0  0  0  0  0  0
    3.8056   -3.3268    3.2465 C   0  0  0  0  0  0  0  0  0  0  0  0
    3.6056   -4.9292    2.6870 S   0  0  0  0  0  0  0  0  0  0  0  0
    4.3050   -4.5418    1.1959 C   0  0  0  0  0  0  0  0  0  0  0  0
    4.1183   -5.0071   -0.0692 C   0  0  0  0  0  0  0  0  0  0  0  0
    3.7402   -6.2624   -0.5422 C   0  0  0  0  0  0  0  0  0  0  0  0
    3.5295   -6.4285   -1.9409 C   0  0  0  0  0  0  0  0  0  0  0  0
    3.1563   -7.6610   -2.3628 N   0  0  0  0  0  0  0  0  0  0  0  0
    3.1450   -8.4623   -0.9168 S   0  0  0  0  0  0  0  0  0  0  0  0
    3.5671   -7.3547    0.2407 N   0  0  0  0  0  0  0  0  0  0  0  0
    3.6255   -5.3096   -2.7808 C   0  0  0  0  0  0  0  0  0  0  0  0
    3.0859   -5.1289   -4.0252 C   0  0  0  0  0  0  0  0  0  0  0  0
    1.9479   -6.0165   -4.9174 S   0  0  0  0  0  0  0  0  0  0  0  0
    1.3275   -4.6110   -5.6356 C   0  0  0  0  0  0  0  0  0  0  0  0
    0.1791   -4.3743   -6.4022 C   0  0  0  0  0  0  0  0  0  0  0  0
   -0.7402   -5.4646   -6.7718 C   0  0  0  0  0  0  0  0  0  0  0  0
   -0.7650   -6.0178   -8.0780 C   0  0  0  0  0  0  0  0  0  0  0  0
    0.0603   -5.4516   -9.2140 C   0  0  0  0  0  0  0  0  0  0  0  0
   -0.7806   -4.5581  -10.1141 C   0  0  0  0  0  0  0  0  0  0  0  0
   -1.5425   -7.1661   -8.3202 C   0  0  0  0  0  0  0  0  0  0  0  0
   -2.2363   -7.7886   -7.2792 C   0  0  0  0  0  0  0  0  0  0  0  0
   -2.1793   -7.2631   -5.9901 C   0  0  0  0  0  0  0  0  0  0  0  0
   -1.4450   -6.1040   -5.7396 C   0  0  0  0  0  0  0  0  0  0  0  0
   -0.0357   -2.9896   -6.5677 C   0  0  0  0  0  0  0  0  0  0  0  0
    1.1491   -2.1428   -5.6803 S   0  0  0  0  0  0  0  0  0  0  0  0
    1.9669   -3.5009   -5.1541 C   0  0  0  0  0  0  0  0  0  0  0  0
    2.9590   -3.7844   -4.2132 C   0  0  0  0  0  0  0  0  0  0  0  0
    3.4143   -3.0602   -3.1458 N   0  0  0  0  0  0  0  0  0  0  0  0
    3.9016   -4.0206   -2.2809 C   0  0  0  0  0  0  0  0  0  0  0  0
    4.2730   -3.8979   -0.9117 C   0  0  0  0  0  0  0  0  0  0  0  0
    4.6534   -2.7996   -0.1845 N   0  0  0  0  0  0  0  0  0  0  0  0
    4.6251   -3.2249    1.1018 C   0  0  0  0  0  0  0  0  0  0  0  0
    4.3803   -2.5366    2.2893 C   0  0  0  0  0  0  0  0  0  0  0  0
    4.2159   -0.9369    2.7294 S   0  0  0  0  0  0  0  0  0  0  0  0
    5.3871   -1.6183   -0.6535 C   0  0  0  0  0  0  0  0  0  0  0  0
    6.8391   -1.6379   -0.1621 C   0  0  0  0  0  0  0  0  0  0  0  0
    2.8990   -1.7350   -2.7783 C   0  0  0  0  0  0  0  0  0  0  0  0
    3.5644   -0.6274   -3.5970 C   0  0  0  0  0  0  0  0  0  0  0  0
   -1.1797   -2.2716   -7.1594 C   0  0  0  0  0  0  0  0  0  0  0  0
   -2.4022   -2.1553   -6.4729 C   0  0  0  0  0  0  0  0  0  0  0  0
   -3.2872   -3.2675   -6.2396 N   0  0  0  0  0  0  0  0  0  0  0  0
   -3.9039   -3.3689   -4.9399 C   0  0  0  0  0  0  0  0  0  0  0  0
   -5.3036   -3.3876   -4.8135 C   0  0  0  0  0  0  0  0  0  0  0  0
   -5.8959   -3.4315   -3.5527 C   0  0  0  0  0  0  0  0  0  0  0  0
   -5.1045   -3.4560   -2.3968 C   0  0  0  0  0  0  0  0  0  0  0  0
   -5.7546   -3.4610   -1.0484 C   0  0  0  0  0  0  0  0  0  0  0  0
   -3.7076   -3.4072   -2.5201 C   0  0  0  0  0  0  0  0  0  0  0  0
   -3.1108   -3.3676   -3.7817 C   0  0  0  0  0  0  0  0  0  0  0  0
   -3.8292   -3.9964   -7.3782 C   0  0  0  0  0  0  0  0  0  0  0  0
   -3.8090   -3.4434   -8.6816 C   0  0  0  0  0  0  0  0  0  0  0  0
   -4.3157   -4.1531   -9.7702 C   0  0  0  0  0  0  0  0  0  0  0  0
   -4.8502   -5.4308   -9.5881 C   0  0  0  0  0  0  0  0  0  0  0  0
   -5.4037   -6.1850  -10.7612 C   0  0  0  0  0  0  0  0  0  0  0  0
   -4.9203   -5.9728   -8.2968 C   0  0  0  0  0  0  0  0  0  0  0  0
   -4.4143   -5.2619   -7.2070 C   0  0  0  0  0  0  0  0  0  0  0  0
   -2.8984   -0.8507   -6.5120 C   0  0  0  0  0  0  0  0  0  0  0  0
   -4.0863   -0.0520   -5.6430 S   0  0  0  0  0  0  0  0  0  0  0  0
   -3.6790    1.4841   -6.2717 C   0  0  0  0  0  0  0  0  0  0  0  0
   -2.6586    1.3442   -7.2350 C   0  0  0  0  0  0  0  0  0  0  0  0
   -2.2209    2.3889   -8.1360 N   0  0  0  0  0  0  0  0  0  0  0  0
   -0.8719    2.4015   -8.6384 C   0  0  0  0  0  0  0  0  0  0  0  0
   -0.6296    2.2993  -10.0177 C   0  0  0  0  0  0  0  0  0  0  0  0
    0.6788    2.2360  -10.4993 C   0  0  0  0  0  0  0  0  0  0  0  0
    1.7623    2.2512   -9.6086 C   0  0  0  0  0  0  0  0  0  0  0  0
    3.1757    2.1766  -10.1210 C   0  0  0  0  0  0  0  0  0  0  0  0
    1.5203    2.3884   -8.2307 C   0  0  0  0  0  0  0  0  0  0  0  0
    0.2107    2.4740   -7.7525 C   0  0  0  0  0  0  0  0  0  0  0  0
   -3.1979    3.2408   -8.7694 C   0  0  0  0  0  0  0  0  0  0  0  0
   -4.4159    2.7128   -9.2357 C   0  0  0  0  0  0  0  0  0  0  0  0
   -5.3756    3.5480   -9.8066 C   0  0  0  0  0  0  0  0  0  0  0  0
   -5.1248    4.9203   -9.9570 C   0  0  0  0  0  0  0  0  0  0  0  0
   -6.1750    5.8243  -10.5378 C   0  0  0  0  0  0  0  0  0  0  0  0
   -3.9035    5.4478   -9.4995 C   0  0  0  0  0  0  0  0  0  0  0  0
   -2.9481    4.6156   -8.9133 C   0  0  0  0  0  0  0  0  0  0  0  0
   -2.2106    0.0203   -7.2808 C   0  0  0  0  0  0  0  0  0  0  0  0
   -0.8736   -0.7657   -7.9059 S   0  0  0  0  0  0  0  0  0  0  0  0
   -4.2047    2.7671   -5.7624 C   0  0  0  0  0  0  0  0  0  0  0  0
   -4.3624    3.0736   -4.4638 C   0  0  0  0  0  0  0  0  0  0  0  0
   -5.1669    4.2073   -4.0149 C   0  0  0  0  0  0  0  0  0  0  0  0
   -5.5217    5.1788   -4.7355 O   0  0  0  0  0  0  0  0  0  0  0  0
   -5.5873    3.9613   -2.6429 C   0  0  0  0  0  0  0  0  0  0  0  0
   -6.5893    4.6136   -1.9213 C   0  0  0  0  0  0  0  0  0  0  0  0
   -7.2860    6.1144   -2.5130 Cl  0  0  0  0  0  0  0  0  0  0  0  0
   -7.0762    4.0025   -0.7513 C   0  0  0  0  0  0  0  0  0  0  0  0
   -8.3835    4.7730    0.1480 Cl  0  0  0  0  0  0  0  0  0  0  0  0
   -6.5939    2.7336   -0.3624 C   0  0  0  0  0  0  0  0  0  0  0  0
   -7.3527    1.9011    1.0002 Cl  0  0  0  0  0  0  0  0  0  0  0  0
   -5.5807    2.0899   -1.1061 C   0  0  0  0  0  0  0  0  0  0  0  0
   -5.2376    0.3889   -0.7991 Cl  0  0  0  0  0  0  0  0  0  0  0  0
   -5.0290    2.7677   -2.2122 C   0  0  0  0  0  0  0  0  0  0  0  0
   -4.0573    2.2877   -3.2329 C   0  0  0  0  0  0  0  0  0  0  0  0
   -2.8609    1.7163   -2.9418 C   0  0  0  0  0  0  0  0  0  0  0  0
   -1.7938    1.6187   -3.8901 C   0  0  0  0  0  0  0  0  0  0  0  0
   -0.9126    1.5256   -4.6342 N   0  0  0  0  0  0  0  0  0  0  0  0
   -2.4714    1.3708   -1.6000 C   0  0  0  0  0  0  0  0  0  0  0  0
   -2.1342    1.0951   -0.5276 N   0  0  0  0  0  0  0  0  0  0  0  0
    3.0657    5.4521    8.6621 H   0  0  0  0  0  0  0  0  0  0  0  0
    0.8178    7.9067   12.7617 H   0  0  0  0  0  0  0  0  0  0  0  0
   -0.5238    7.2487   14.7389 H   0  0  0  0  0  0  0  0  0  0  0  0
   -0.1667    3.1063   13.6697 H   0  0  0  0  0  0  0  0  0  0  0  0
    3.8359    7.2774    5.8208 H   0  0  0  0  0  0  0  0  0  0  0  0
    2.1186    9.0132    5.6398 H   0  0  0  0  0  0  0  0  0  0  0  0
   -0.3166    9.4986    5.0621 H   0  0  0  0  0  0  0  0  0  0  0  0
   -1.5793    8.3029    5.5263 H   0  0  0  0  0  0  0  0  0  0  0  0
   -0.6712    9.1962    6.8096 H   0  0  0  0  0  0  0  0  0  0  0  0
   -0.9523    6.0362    6.1456 H   0  0  0  0  0  0  0  0  0  0  0  0
    0.7464    4.2885    6.2499 H   0  0  0  0  0  0  0  0  0  0  0  0
    5.8386    4.2563    7.3222 H   0  0  0  0  0  0  0  0  0  0  0  0
    8.0451    4.5392    6.2825 H   0  0  0  0  0  0  0  0  0  0  0  0
    8.7474    6.2800    3.4563 H   0  0  0  0  0  0  0  0  0  0  0  0
    9.4169    4.8437    4.3235 H   0  0  0  0  0  0  0  0  0  0  0  0
    8.6360    4.6363    2.7141 H   0  0  0  0  0  0  0  0  0  0  0  0
    6.1446    5.4761    2.5208 H   0  0  0  0  0  0  0  0  0  0  0  0
    3.9364    5.2560    3.5923 H   0  0  0  0  0  0  0  0  0  0  0  0
    1.1981   -3.3680    8.6951 H   0  0  0  0  0  0  0  0  0  0  0  0
    2.6221   -4.8124   10.0319 H   0  0  0  0  0  0  0  0  0  0  0  0
    4.7784   -5.1390   11.1962 H   0  0  0  0  0  0  0  0  0  0  0  0
    5.6864   -5.4949    9.6731 H   0  0  0  0  0  0  0  0  0  0  0  0
    6.2083   -4.1440   10.7552 H   0  0  0  0  0  0  0  0  0  0  0  0
    6.0730   -2.5224    8.8703 H   0  0  0  0  0  0  0  0  0  0  0  0
    4.6685   -1.0521    7.5383 H   0  0  0  0  0  0  0  0  0  0  0  0
    0.6243   -1.2196    9.6174 H   0  0  0  0  0  0  0  0  0  0  0  0
   -1.7444   -0.7726    9.9989 H   0  0  0  0  0  0  0  0  0  0  0  0
   -4.2272   -0.1015    7.2386 H   0  0  0  0  0  0  0  0  0  0  0  0
   -4.0736   -0.7252    8.9201 H   0  0  0  0  0  0  0  0  0  0  0  0
   -3.6776    1.0032    8.5568 H   0  0  0  0  0  0  0  0  0  0  0  0
   -2.2803   -0.0055    5.7944 H   0  0  0  0  0  0  0  0  0  0  0  0
    0.0858   -0.4496    5.4204 H   0  0  0  0  0  0  0  0  0  0  0  0
    3.5697   -4.5236    6.1478 H   0  0  0  0  0  0  0  0  0  0  0  0
    1.8844   -5.9904    7.1852 H   0  0  0  0  0  0  0  0  0  0  0  0
   -0.5216   -5.6588    6.7081 H   0  0  0  0  0  0  0  0  0  0  0  0
   -1.2415   -3.9373    5.1048 H   0  0  0  0  0  0  0  0  0  0  0  0
    0.9497   -1.4824    3.3800 H   0  0  0  0  0  0  0  0  0  0  0  0
   -0.7204   -1.9283    3.7815 H   0  0  0  0  0  0  0  0  0  0  0  0
    1.1519   -3.6082    1.9960 H   0  0  0  0  0  0  0  0  0  0  0  0
   -0.1080   -2.4705    1.4191 H   0  0  0  0  0  0  0  0  0  0  0  0
   -0.5925   -3.9416    2.3483 H   0  0  0  0  0  0  0  0  0  0  0  0
    0.9339   -4.8807   -8.8383 H   0  0  0  0  0  0  0  0  0  0  0  0
    0.4719   -6.2849   -9.8229 H   0  0  0  0  0  0  0  0  0  0  0  0
   -0.1644   -4.2091  -10.9667 H   0  0  0  0  0  0  0  0  0  0  0  0
   -1.6544   -5.1175  -10.5117 H   0  0  0  0  0  0  0  0  0  0  0  0
   -1.1299   -3.6662   -9.5542 H   0  0  0  0  0  0  0  0  0  0  0  0
   -1.5838   -7.6014   -9.3129 H   0  0  0  0  0  0  0  0  0  0  0  0
   -2.8144   -8.6826   -7.4733 H   0  0  0  0  0  0  0  0  0  0  0  0
   -2.7148   -7.7498   -5.1850 H   0  0  0  0  0  0  0  0  0  0  0  0
   -1.4046   -5.7203   -4.7294 H   0  0  0  0  0  0  0  0  0  0  0  0
    5.4264   -1.6105   -1.7619 H   0  0  0  0  0  0  0  0  0  0  0  0
    4.8840   -0.6956   -0.2946 H   0  0  0  0  0  0  0  0  0  0  0  0
    7.3948   -0.7835   -0.6049 H   0  0  0  0  0  0  0  0  0  0  0  0
    7.3340   -2.5833   -0.4723 H   0  0  0  0  0  0  0  0  0  0  0  0
    6.8773   -1.5465    0.9404 H   0  0  0  0  0  0  0  0  0  0  0  0
    3.0285   -1.5345   -1.7016 H   0  0  0  0  0  0  0  0  0  0  0  0
    1.7992   -1.7002   -2.9346 H   0  0  0  0  0  0  0  0  0  0  0  0
    3.1586   -0.5965   -4.6241 H   0  0  0  0  0  0  0  0  0  0  0  0
    4.6569   -0.7750   -3.6755 H   0  0  0  0  0  0  0  0  0  0  0  0
    3.3690    0.3604   -3.1204 H   0  0  0  0  0  0  0  0  0  0  0  0
   -5.9371   -3.3426   -5.6902 H   0  0  0  0  0  0  0  0  0  0  0  0
   -6.9768   -3.4442   -3.4731 H   0  0  0  0  0  0  0  0  0  0  0  0
   -5.0671   -3.8559   -0.2694 H   0  0  0  0  0  0  0  0  0  0  0  0
   -6.0519   -2.4282   -0.7822 H   0  0  0  0  0  0  0  0  0  0  0  0
   -6.6652   -4.1023   -1.0600 H   0  0  0  0  0  0  0  0  0  0  0  0
   -3.0826   -3.4017   -1.6373 H   0  0  0  0  0  0  0  0  0  0  0  0
   -2.0299   -3.3329   -3.8630 H   0  0  0  0  0  0  0  0  0  0  0  0
   -3.4093   -2.4577   -8.8692 H   0  0  0  0  0  0  0  0  0  0  0  0
   -4.2787   -3.7101  -10.7562 H   0  0  0  0  0  0  0  0  0  0  0  0
   -4.8234   -5.9546  -11.6808 H   0  0  0  0  0  0  0  0  0  0  0  0
   -6.4610   -5.8879  -10.9181 H   0  0  0  0  0  0  0  0  0  0  0  0
   -5.3547   -7.2821  -10.5906 H   0  0  0  0  0  0  0  0  0  0  0  0
   -5.3501   -6.9544   -8.1427 H   0  0  0  0  0  0  0  0  0  0  0  0
   -4.4736   -5.7139   -6.2241 H   0  0  0  0  0  0  0  0  0  0  0  0
   -1.4553    2.2418  -10.7126 H   0  0  0  0  0  0  0  0  0  0  0  0
    0.8422    2.1541  -11.5645 H   0  0  0  0  0  0  0  0  0  0  0  0
    3.2076    1.7238  -11.1312 H   0  0  0  0  0  0  0  0  0  0  0  0
    3.7981    1.5544   -9.4445 H   0  0  0  0  0  0  0  0  0  0  0  0
    3.6040    3.1983  -10.1673 H   0  0  0  0  0  0  0  0  0  0  0  0
    2.3459    2.4287   -7.5278 H   0  0  0  0  0  0  0  0  0  0  0  0
    0.0371    2.5986   -6.6990 H   0  0  0  0  0  0  0  0  0  0  0  0
   -4.6205    1.6552   -9.1407 H   0  0  0  0  0  0  0  0  0  0  0  0
   -6.3198    3.1238  -10.1291 H   0  0  0  0  0  0  0  0  0  0  0  0
   -6.8305    6.2049   -9.7288 H   0  0  0  0  0  0  0  0  0  0  0  0
   -5.7022    6.6791  -11.0574 H   0  0  0  0  0  0  0  0  0  0  0  0
   -6.7904    5.2731  -11.2755 H   0  0  0  0  0  0  0  0  0  0  0  0
   -3.7002    6.5060   -9.5912 H   0  0  0  0  0  0  0  0  0  0  0  0
   -2.0235    5.0386   -8.5505 H   0  0  0  0  0  0  0  0  0  0  0  0
   -4.5036    3.5048   -6.4906 H   0  0  0  0  0  0  0  0  0  0  0  0
  1  2  2  3
  2  3  1  0
  3  4  2  0
  3  5  1  0
  5  6  2  0
  6  7  1  0
  7  8  2  0
  8  9  1  0
  8 10  1  0
 10 11  2  0
 11 12  1  0
 12 13  2  3
 13 14  1  0
 14 15  3  0
 13 16  1  0
 16 17  3  0
  1 18  1  0
 18 19  2  0
 19 20  1  0
 20 21  1  0
 21 22  2  0
 22 23  1  0
 23 24  2  0
 24 25  1  0
 24 26  1  0
 26 27  2  0
 20 28  1  0
 28 29  2  0
 29 30  1  0
 30 31  2  0
 31 32  1  0
 31 33  1  0
 33 34  2  0
 19 35  1  0
 35 36  1  0
 36 37  1  0
 37 38  2  0
 38 39  1  0
 39 40  1  0
 40 41  2  0
 41 42  1  0
 42 43  2  0
 43 44  1  0
 43 45  1  0
 45 46  2  0
 39 47  1  0
 47 48  2  0
 48 49  1  0
 49 50  2  0
 50 51  1  0
 50 52  1  0
 52 53  2  0
 38 54  1  0
 54 55  1  0
 37 56  1  0
 56 57  2  0
 57 58  1  0
 58 59  2  0
 59 60  1  0
 60 61  2  0
 61 62  1  0
 62 63  2  0
 63 64  1  0
 64 65  1  0
 57 66  1  0
 66 67  1  0
 67 68  1  0
 68 69  1  0
 69 70  1  0
 70 71  1  0
 71 72  2  0
 72 73  1  0
 73 74  1  0
 71 75  1  0
 75 76  1  0
 76 77  1  0
 77 78  1  0
 78 79  1  0
 79 80  1  0
 80 81  2  0
 81 82  1  0
 82 83  1  0
 81 84  1  0
 84 85  2  0
 85 86  1  0
 86 87  2  0
 79 88  2  0
 88 89  1  0
 89 90  1  0
 90 91  1  0
 91 92  1  0
 92 93  1  0
 93 94  1  0
 94 95  1  0
 95 96  1  0
 96 97  1  0
 97 98  1  0
 95 99  1  0
 99100  1  0
 92101  1  0
101102  1  0
 88103  1  0
103104  2  0
104105  1  0
105106  1  0
106107  2  0
107108  1  0
108109  2  0
109110  1  0
109111  1  0
111112  2  0
105113  1  0
113114  2  0
114115  1  0
115116  2  0
116117  1  0
116118  1  0
118119  2  0
104120  1  0
120121  1  0
121122  1  0
122123  2  0
123124  1  0
124125  1  0
125126  2  0
126127  1  0
127128  2  0
128129  1  0
128130  1  0
130131  2  0
124132  1  0
132133  2  0
133134  1  0
134135  2  0
135136  1  0
135137  1  0
137138  2  0
123139  1  0
139140  1  0
122141  1  0
141142  2  3
142143  1  0
143144  2  0
143145  1  0
145146  2  0
146147  1  0
146148  1  0
148149  1  0
148150  2  0
150151  1  0
150152  1  0
152153  1  0
152154  2  0
154155  1  0
155156  2  3
156157  1  0
157158  3  0
156159  1  0
159160  3  0
 12  2  1  0
 55 18  1  0
 98 56  1  0
140103  1  0
155142  1  0
 11  5  1  0
 27 21  1  0
 34 28  1  0
 54 35  2  0
 63 58  1  0
 97 66  2  0
112106  1  0
119113  1  0
139120  2  0
154145  1  0
 46 40  1  0
 53 47  1  0
 96 68  2  0
131125  1  0
138132  1  0
 94 69  2  0
 74 70  2  0
 93 75  2  0
 91 76  2  0
 90 78  2  0
 87 80  1  0
  1161  1  0
  6162  1  0
  7163  1  0
 10164  1  0
 22165  1  0
 23166  1  0
 25167  1  0
 25168  1  0
 25169  1  0
 26170  1  0
 27171  1  0
 29172  1  0
 30173  1  0
 32174  1  0
 32175  1  0
 32176  1  0
 33177  1  0
 34178  1  0
 41179  1  0
 42180  1  0
 44181  1  0
 44182  1  0
 44183  1  0
 45184  1  0
 46185  1  0
 48186  1  0
 49187  1  0
 51188  1  0
 51189  1  0
 51190  1  0
 52191  1  0
 53192  1  0
 59193  1  0
 60194  1  0
 61195  1  0
 62196  1  0
 64197  1  0
 64198  1  0
 65199  1  0
 65200  1  0
 65201  1  0
 82202  1  0
 82203  1  0
 83204  1  0
 83205  1  0
 83206  1  0
 84207  1  0
 85208  1  0
 86209  1  0
 87210  1  0
 99211  1  0
 99212  1  0
100213  1  0
100214  1  0
100215  1  0
101216  1  0
101217  1  0
102218  1  0
102219  1  0
102220  1  0
107221  1  0
108222  1  0
110223  1  0
110224  1  0
110225  1  0
111226  1  0
112227  1  0
114228  1  0
115229  1  0
117230  1  0
117231  1  0
117232  1  0
118233  1  0
119234  1  0
126235  1  0
127236  1  0
129237  1  0
129238  1  0
129239  1  0
130240  1  0
131241  1  0
133242  1  0
134243  1  0
136244  1  0
136245  1  0
136246  1  0
137247  1  0
138248  1  0
141249  1  0
M  END

