
     RDKit          3D

169188  0  0  0  0  0  0  0  0999 V2000
    5.6176   -4.5639    8.6414 C   0  0  0  0  0  0  0  0  0  0  0  0
    6.6138   -5.4372    8.4006 C   0  0  0  0  0  0  0  0  0  0  0  0
    7.1306   -5.8096    7.0763 C   0  0  0  0  0  0  0  0  0  0  0  0
    6.6624   -5.4573    5.9571 O   0  0  0  0  0  0  0  0  0  0  0  0
    8.3881   -6.4987    7.2589 C   0  0  0  0  0  0  0  0  0  0  0  0
    9.2555   -6.9739    6.2756 C   0  0  0  0  0  0  0  0  0  0  0  0
   10.4571   -7.5744    6.6775 C   0  0  0  0  0  0  0  0  0  0  0  0
   10.7794   -7.6620    8.0449 C   0  0  0  0  0  0  0  0  0  0  0  0
   12.3049   -8.3819    8.5357 Cl  0  0  0  0  0  0  0  0  0  0  0  0
    9.9023   -7.1625    9.0205 C   0  0  0  0  0  0  0  0  0  0  0  0
    8.6828   -6.5911    8.6092 C   0  0  0  0  0  0  0  0  0  0  0  0
    7.5664   -6.0113    9.4053 C   0  0  0  0  0  0  0  0  0  0  0  0
    7.3291   -6.1987   10.7305 C   0  0  0  0  0  0  0  0  0  0  0  0
    6.0907   -5.8156   11.3581 C   0  0  0  0  0  0  0  0  0  0  0  0
    5.0988   -5.5041   11.8694 N   0  0  0  0  0  0  0  0  0  0  0  0
    8.2313   -6.9128   11.5899 C   0  0  0  0  0  0  0  0  0  0  0  0
    8.9369   -7.4953   12.3023 N   0  0  0  0  0  0  0  0  0  0  0  0
    4.6106   -4.1544    7.6398 C   0  0  0  0  0  0  0  0  0  0  0  0
    3.9024   -5.1272    6.8921 C   0  0  0  0  0  0  0  0  0  0  0  0
    2.8600   -4.6972    6.0656 C   0  0  0  0  0  0  0  0  0  0  0  0
    2.0435   -5.4556    5.2897 N   0  0  0  0  0  0  0  0  0  0  0  0
    2.1256   -6.9024    5.0526 C   0  0  0  0  0  0  0  0  0  0  0  0
    3.0748   -7.1902    3.8987 C   0  0  0  0  0  0  0  0  0  0  0  0
    1.2167   -4.5706    4.6759 C   0  0  0  0  0  0  0  0  0  0  0  0
    1.4981   -3.2778    5.0673 C   0  0  0  0  0  0  0  0  0  0  0  0
    2.5406   -3.3611    5.9637 C   0  0  0  0  0  0  0  0  0  0  0  0
    3.2057   -2.3785    6.6926 C   0  0  0  0  0  0  0  0  0  0  0  0
    4.2438   -2.7880    7.5470 C   0  0  0  0  0  0  0  0  0  0  0  0
    0.8118   -2.1849    4.5533 C   0  0  0  0  0  0  0  0  0  0  0  0
   -0.2083   -2.4336    3.6198 C   0  0  0  0  0  0  0  0  0  0  0  0
   -0.5284   -3.7532    3.2205 C   0  0  0  0  0  0  0  0  0  0  0  0
    0.1966   -4.8397    3.7559 C   0  0  0  0  0  0  0  0  0  0  0  0
   -1.6285   -3.9764    2.2542 C   0  0  0  0  0  0  0  0  0  0  0  0
   -1.6361   -4.8877    1.1762 C   0  0  0  0  0  0  0  0  0  0  0  0
   -0.5068   -5.7481    0.7847 C   0  0  0  0  0  0  0  0  0  0  0  0
   -0.5358   -7.1166    1.0854 C   0  0  0  0  0  0  0  0  0  0  0  0
    0.5454   -7.9332    0.7440 C   0  0  0  0  0  0  0  0  0  0  0  0
    1.6507   -7.3961    0.0736 C   0  0  0  0  0  0  0  0  0  0  0  0
    1.6813   -6.0287   -0.2492 C   0  0  0  0  0  0  0  0  0  0  0  0
    2.8429   -5.4658   -1.0245 C   0  0  0  0  0  0  0  0  0  0  0  0
    2.6562   -5.7015   -2.5194 C   0  0  0  0  0  0  0  0  0  0  0  0
    0.5990   -5.2062    0.1096 C   0  0  0  0  0  0  0  0  0  0  0  0
   -2.7912   -4.7475    0.4044 C   0  0  0  0  0  0  0  0  0  0  0  0
   -3.1669   -5.2247   -1.1929 S   0  0  0  0  0  0  0  0  0  0  0  0
   -4.5131   -4.1921   -1.2142 C   0  0  0  0  0  0  0  0  0  0  0  0
   -5.2721   -3.5614   -2.1535 C   0  0  0  0  0  0  0  0  0  0  0  0
   -5.3841   -3.8039   -3.5219 C   0  0  0  0  0  0  0  0  0  0  0  0
   -6.1109   -2.8800   -4.3197 C   0  0  0  0  0  0  0  0  0  0  0  0
   -6.1567   -3.1244   -5.6541 N   0  0  0  0  0  0  0  0  0  0  0  0
   -5.2767   -4.5252   -5.7147 S   0  0  0  0  0  0  0  0  0  0  0  0
   -4.8091   -4.8526   -4.1576 N   0  0  0  0  0  0  0  0  0  0  0  0
   -6.6487   -1.7386   -3.7139 C   0  0  0  0  0  0  0  0  0  0  0  0
   -7.0194   -0.5674   -4.3181 C   0  0  0  0  0  0  0  0  0  0  0  0
   -6.6090    0.0868   -5.8333 S   0  0  0  0  0  0  0  0  0  0  0  0
   -6.5399    1.6648   -5.2103 C   0  0  0  0  0  0  0  0  0  0  0  0
   -5.9413    2.8417   -5.6937 C   0  0  0  0  0  0  0  0  0  0  0  0
   -5.3358    2.9791   -7.0368 C   0  0  0  0  0  0  0  0  0  0  0  0
   -4.4338    2.0159   -7.5218 C   0  0  0  0  0  0  0  0  0  0  0  0
   -3.7970    2.2026   -8.7497 C   0  0  0  0  0  0  0  0  0  0  0  0
   -4.0511    3.3498   -9.5053 C   0  0  0  0  0  0  0  0  0  0  0  0
   -4.9668    4.3066   -9.0510 C   0  0  0  0  0  0  0  0  0  0  0  0
   -5.2573    5.5329   -9.8748 C   0  0  0  0  0  0  0  0  0  0  0  0
   -4.4516    6.7257   -9.3738 C   0  0  0  0  0  0  0  0  0  0  0  0
   -5.5929    4.1266   -7.8053 C   0  0  0  0  0  0  0  0  0  0  0  0
   -5.8103    3.8024   -4.6661 C   0  0  0  0  0  0  0  0  0  0  0  0
   -6.3805    3.1324   -3.2134 S   0  0  0  0  0  0  0  0  0  0  0  0
   -6.8262    1.6606   -3.8663 C   0  0  0  0  0  0  0  0  0  0  0  0
   -7.0527    0.3834   -3.3425 C   0  0  0  0  0  0  0  0  0  0  0  0
   -6.7580   -0.1228   -2.1138 N   0  0  0  0  0  0  0  0  0  0  0  0
   -6.5052   -1.4602   -2.3348 C   0  0  0  0  0  0  0  0  0  0  0  0
   -5.8532   -2.4448   -1.5133 C   0  0  0  0  0  0  0  0  0  0  0  0
   -5.5061   -2.4512   -0.1778 N   0  0  0  0  0  0  0  0  0  0  0  0
   -4.6541   -3.4949   -0.0682 C   0  0  0  0  0  0  0  0  0  0  0  0
   -3.6728   -3.8020    0.8608 C   0  0  0  0  0  0  0  0  0  0  0  0
   -3.0497   -3.0295    2.2058 S   0  0  0  0  0  0  0  0  0  0  0  0
   -6.2122   -1.9212    0.9971 C   0  0  0  0  0  0  0  0  0  0  0  0
   -7.7181   -2.1729    0.9095 C   0  0  0  0  0  0  0  0  0  0  0  0
   -6.5127    0.7078   -0.9294 C   0  0  0  0  0  0  0  0  0  0  0  0
   -5.0187    0.8957   -0.6686 C   0  0  0  0  0  0  0  0  0  0  0  0
   -4.8512    4.9224   -4.6224 C   0  0  0  0  0  0  0  0  0  0  0  0
   -3.5107    4.6855   -4.9969 C   0  0  0  0  0  0  0  0  0  0  0  0
   -2.5146    5.5291   -4.4957 C   0  0  0  0  0  0  0  0  0  0  0  0
   -1.1817    5.2784   -4.4816 N   0  0  0  0  0  0  0  0  0  0  0  0
   -0.4972    4.1162   -5.0581 C   0  0  0  0  0  0  0  0  0  0  0  0
   -0.5294    2.9364   -4.0887 C   0  0  0  0  0  0  0  0  0  0  0  0
   -0.6769    6.1443   -3.5685 C   0  0  0  0  0  0  0  0  0  0  0  0
   -1.6631    6.9675   -3.0543 C   0  0  0  0  0  0  0  0  0  0  0  0
   -2.8367    6.5857   -3.6652 C   0  0  0  0  0  0  0  0  0  0  0  0
   -4.1587    6.9036   -3.3541 C   0  0  0  0  0  0  0  0  0  0  0  0
   -5.1726    6.0700   -3.8522 C   0  0  0  0  0  0  0  0  0  0  0  0
   -1.4480    7.7595   -1.9223 C   0  0  0  0  0  0  0  0  0  0  0  0
   -0.1956    7.6798   -1.2859 C   0  0  0  0  0  0  0  0  0  0  0  0
    0.8021    6.8040   -1.7837 C   0  0  0  0  0  0  0  0  0  0  0  0
    0.5826    6.0779   -2.9697 C   0  0  0  0  0  0  0  0  0  0  0  0
    2.1144    6.6897   -1.1464 C   0  0  0  0  0  0  0  0  0  0  0  0
    2.4224    6.0985    0.0295 C   0  0  0  0  0  0  0  0  0  0  0  0
    3.7994    6.1447    0.5323 C   0  0  0  0  0  0  0  0  0  0  0  0
    4.7979    6.6120   -0.0833 O   0  0  0  0  0  0  0  0  0  0  0  0
    3.8445    5.5810    1.8585 C   0  0  0  0  0  0  0  0  0  0  0  0
    4.9672    5.3495    2.6503 C   0  0  0  0  0  0  0  0  0  0  0  0
    4.8024    4.6627    3.8589 C   0  0  0  0  0  0  0  0  0  0  0  0
    3.5314    4.2028    4.2401 C   0  0  0  0  0  0  0  0  0  0  0  0
    3.3460    3.2833    5.7257 Cl  0  0  0  0  0  0  0  0  0  0  0  0
    2.4138    4.4369    3.4194 C   0  0  0  0  0  0  0  0  0  0  0  0
    2.5742    5.1760    2.2291 C   0  0  0  0  0  0  0  0  0  0  0  0
    1.6009    5.4586    1.1246 C   0  0  0  0  0  0  0  0  0  0  0  0
    0.2886    5.1141    1.1384 C   0  0  0  0  0  0  0  0  0  0  0  0
   -0.4287    4.9083    2.3679 C   0  0  0  0  0  0  0  0  0  0  0  0
   -1.0180    4.7445    3.3528 N   0  0  0  0  0  0  0  0  0  0  0  0
   -0.4705    4.8002   -0.0375 C   0  0  0  0  0  0  0  0  0  0  0  0
   -1.1241    4.5266   -0.9559 N   0  0  0  0  0  0  0  0  0  0  0  0
    5.5364   -4.1012    9.6142 H   0  0  0  0  0  0  0  0  0  0  0  0
    9.0124   -6.8808    5.2246 H   0  0  0  0  0  0  0  0  0  0  0  0
   11.1419   -7.9530    5.9310 H   0  0  0  0  0  0  0  0  0  0  0  0
   10.2031   -7.1968   10.0530 H   0  0  0  0  0  0  0  0  0  0  0  0
    4.1415   -6.1790    6.9874 H   0  0  0  0  0  0  0  0  0  0  0  0
    1.1225   -7.3114    4.8154 H   0  0  0  0  0  0  0  0  0  0  0  0
    2.4737   -7.4216    5.9670 H   0  0  0  0  0  0  0  0  0  0  0  0
    3.0851   -8.2803    3.6821 H   0  0  0  0  0  0  0  0  0  0  0  0
    4.1052   -6.8718    4.1610 H   0  0  0  0  0  0  0  0  0  0  0  0
    2.7473   -6.6457    2.9856 H   0  0  0  0  0  0  0  0  0  0  0  0
    2.9225   -1.3360    6.6225 H   0  0  0  0  0  0  0  0  0  0  0  0
    4.7651   -2.0429    8.1344 H   0  0  0  0  0  0  0  0  0  0  0  0
    1.0565   -1.1718    4.8438 H   0  0  0  0  0  0  0  0  0  0  0  0
   -0.7371   -1.5904    3.1965 H   0  0  0  0  0  0  0  0  0  0  0  0
   -0.0434   -5.8557    3.4833 H   0  0  0  0  0  0  0  0  0  0  0  0
   -1.3856   -7.5443    1.6068 H   0  0  0  0  0  0  0  0  0  0  0  0
    0.5240   -8.9881    0.9880 H   0  0  0  0  0  0  0  0  0  0  0  0
    2.4747   -8.0466   -0.1980 H   0  0  0  0  0  0  0  0  0  0  0  0
    2.9368   -4.3738   -0.8350 H   0  0  0  0  0  0  0  0  0  0  0  0
    3.7938   -5.9418   -0.6949 H   0  0  0  0  0  0  0  0  0  0  0  0
    2.6746   -6.7907   -2.7421 H   0  0  0  0  0  0  0  0  0  0  0  0
    1.6912   -5.2714   -2.8628 H   0  0  0  0  0  0  0  0  0  0  0  0
    3.4804   -5.2115   -3.0787 H   0  0  0  0  0  0  0  0  0  0  0  0
    0.6101   -4.1545   -0.1491 H   0  0  0  0  0  0  0  0  0  0  0  0
   -4.1953    1.1378   -6.9335 H   0  0  0  0  0  0  0  0  0  0  0  0
   -3.0939    1.4623   -9.1142 H   0  0  0  0  0  0  0  0  0  0  0  0
   -3.5452    3.4834  -10.4514 H   0  0  0  0  0  0  0  0  0  0  0  0
   -6.3407    5.7714   -9.8176 H   0  0  0  0  0  0  0  0  0  0  0  0
   -5.0174    5.3482  -10.9448 H   0  0  0  0  0  0  0  0  0  0  0  0
   -3.3726    6.5881   -9.5929 H   0  0  0  0  0  0  0  0  0  0  0  0
   -4.7952    7.6420   -9.8958 H   0  0  0  0  0  0  0  0  0  0  0  0
   -4.5988    6.8694   -8.2835 H   0  0  0  0  0  0  0  0  0  0  0  0
   -6.2822    4.8763   -7.4362 H   0  0  0  0  0  0  0  0  0  0  0  0
   -5.9428   -0.8697    1.1949 H   0  0  0  0  0  0  0  0  0  0  0  0
   -5.8708   -2.4479    1.9146 H   0  0  0  0  0  0  0  0  0  0  0  0
   -8.1789   -1.6157    0.0730 H   0  0  0  0  0  0  0  0  0  0  0  0
   -8.2085   -1.8657    1.8573 H   0  0  0  0  0  0  0  0  0  0  0  0
   -7.8982   -3.2554    0.7505 H   0  0  0  0  0  0  0  0  0  0  0  0
   -7.0716    0.3254   -0.0690 H   0  0  0  0  0  0  0  0  0  0  0  0
   -6.9757    1.7058   -1.0576 H   0  0  0  0  0  0  0  0  0  0  0  0
   -4.8750    1.3999    0.3112 H   0  0  0  0  0  0  0  0  0  0  0  0
   -4.4879   -0.0782   -0.6470 H   0  0  0  0  0  0  0  0  0  0  0  0
   -4.5660    1.5286   -1.4562 H   0  0  0  0  0  0  0  0  0  0  0  0
   -3.2371    3.7723   -5.5081 H   0  0  0  0  0  0  0  0  0  0  0  0
   -0.9733    3.8242   -6.0194 H   0  0  0  0  0  0  0  0  0  0  0  0
    0.5581    4.3731   -5.2891 H   0  0  0  0  0  0  0  0  0  0  0  0
   -0.0656    3.2206   -3.1236 H   0  0  0  0  0  0  0  0  0  0  0  0
    0.0458    2.0828   -4.5153 H   0  0  0  0  0  0  0  0  0  0  0  0
   -1.5725    2.6100   -3.9074 H   0  0  0  0  0  0  0  0  0  0  0  0
   -4.3950    7.7104   -2.6731 H   0  0  0  0  0  0  0  0  0  0  0  0
   -6.1930    6.2422   -3.5375 H   0  0  0  0  0  0  0  0  0  0  0  0
   -2.2406    8.3654   -1.5048 H   0  0  0  0  0  0  0  0  0  0  0  0
   -0.0151    8.2532   -0.3823 H   0  0  0  0  0  0  0  0  0  0  0  0
    1.3464    5.4118   -3.3512 H   0  0  0  0  0  0  0  0  0  0  0  0
    2.9304    7.0703   -1.7470 H   0  0  0  0  0  0  0  0  0  0  0  0
    5.9515    5.6733    2.3297 H   0  0  0  0  0  0  0  0  0  0  0  0
    5.6661    4.4679    4.4855 H   0  0  0  0  0  0  0  0  0  0  0  0
    1.4697    4.0062    3.7057 H   0  0  0  0  0  0  0  0  0  0  0  0
  1  2  2  3
  2  3  1  0
  3  4  2  0
  3  5  1  0
  5  6  2  0
  6  7  1  0
  7  8  2  0
  8  9  1  0
  8 10  1  0
 10 11  2  0
 11 12  1  0
 12 13  2  3
 13 14  1  0
 14 15  3  0
 13 16  1  0
 16 17  3  0
  1 18  1  0
 18 19  2  0
 19 20  1  0
 20 21  1  0
 21 22  1  0
 22 23  1  0
 21 24  1  0
 24 25  2  0
 25 26  1  0
 26 27  1  0
 27 28  2  0
 25 29  1  0
 29 30  2  0
 30 31  1  0
 31 32  2  0
 31 33  1  0
 33 34  2  0
 34 35  1  0
 35 36  2  0
 36 37  1  0
 37 38  2  0
 38 39  1  0
 39 40  1  0
 40 41  1  0
 39 42  2  0
 34 43  1  0
 43 44  1  0
 44 45  1  0
 45 46  1  0
 46 47  1  0
 47 48  1  0
 48 49  2  0
 49 50  1  0
 50 51  1  0
 48 52  1  0
 52 53  1  0
 53 54  1  0
 54 55  1  0
 55 56  1  0
 56 57  1  0
 57 58  2  0
 58 59  1  0
 59 60  2  0
 60 61  1  0
 61 62  1  0
 62 63  1  0
 61 64  2  0
 56 65  2  0
 65 66  1  0
 66 67  1  0
 67 68  1  0
 68 69  1  0
 69 70  1  0
 70 71  1  0
 71 72  1  0
 72 73  1  0
 73 74  1  0
 74 75  1  0
 72 76  1  0
 76 77  1  0
 69 78  1  0
 78 79  1  0
 65 80  1  0
 80 81  2  0
 81 82  1  0
 82 83  1  0
 83 84  1  0
 84 85  1  0
 83 86  1  0
 86 87  2  0
 87 88  1  0
 88 89  1  0
 89 90  2  0
 87 91  1  0
 91 92  2  0
 92 93  1  0
 93 94  2  0
 93 95  1  0
 95 96  2  3
 96 97  1  0
 97 98  2  0
 97 99  1  0
 99100  2  0
100101  1  0
101102  2  0
102103  1  0
102104  1  0
104105  2  0
105106  1  0
106107  2  3
107108  1  0
108109  3  0
107110  1  0
110111  3  0
 12  2  1  0
 28 18  1  0
 75 33  1  0
 90 80  1  0
106 96  1  0
 11  5  1  0
 26 20  2  0
 42 35  1  0
 74 43  2  0
 88 82  2  0
105 99  1  0
 32 24  1  0
 73 45  2  0
 94 86  1  0
 71 46  2  0
 51 47  2  0
 70 52  2  0
 68 53  2  0
 67 55  2  0
 64 57  1  0
  1112  1  0
  6113  1  0
  7114  1  0
 10115  1  0
 19116  1  0
 22117  1  0
 22118  1  0
 23119  1  0
 23120  1  0
 23121  1  0
 27122  1  0
 28123  1  0
 29124  1  0
 30125  1  0
 32126  1  0
 36127  1  0
 37128  1  0
 38129  1  0
 40130  1  0
 40131  1  0
 41132  1  0
 41133  1  0
 41134  1  0
 42135  1  0
 58136  1  0
 59137  1  0
 60138  1  0
 62139  1  0
 62140  1  0
 63141  1  0
 63142  1  0
 63143  1  0
 64144  1  0
 76145  1  0
 76146  1  0
 77147  1  0
 77148  1  0
 77149  1  0
 78150  1  0
 78151  1  0
 79152  1  0
 79153  1  0
 79154  1  0
 81155  1  0
 84156  1  0
 84157  1  0
 85158  1  0
 85159  1  0
 85160  1  0
 89161  1  0
 90162  1  0
 91163  1  0
 92164  1  0
 94165  1  0
 95166  1  0
100167  1  0
101168  1  0
104169  1  0
M  END

