
     RDKit          3D

141156  0  0  0  0  0  0  0  0999 V2000
   -8.6923    3.5974   -1.8545 C   0  0  0  0  0  0  0  0  0  0  0  0
   -8.4605    2.9158   -0.7113 C   0  0  0  0  0  0  0  0  0  0  0  0
   -7.1353    2.4744   -0.2434 C   0  0  0  0  0  0  0  0  0  0  0  0
   -6.0768    2.4135   -0.9249 O   0  0  0  0  0  0  0  0  0  0  0  0
   -7.2380    2.1211    1.1497 C   0  0  0  0  0  0  0  0  0  0  0  0
   -6.2098    1.7397    2.0116 C   0  0  0  0  0  0  0  0  0  0  0  0
   -6.5263    1.4798    3.3484 C   0  0  0  0  0  0  0  0  0  0  0  0
   -7.8509    1.6164    3.8035 C   0  0  0  0  0  0  0  0  0  0  0  0
   -8.2274    1.3147    5.4902 Cl  0  0  0  0  0  0  0  0  0  0  0  0
   -8.8722    2.0096    2.9191 C   0  0  0  0  0  0  0  0  0  0  0  0
   -8.5517    2.2495    1.5703 C   0  0  0  0  0  0  0  0  0  0  0  0
   -9.4118    2.6569    0.4183 C   0  0  0  0  0  0  0  0  0  0  0  0
  -10.7663    2.6241    0.3554 C   0  0  0  0  0  0  0  0  0  0  0  0
  -11.5955    2.3207    1.4941 C   0  0  0  0  0  0  0  0  0  0  0  0
  -12.2778    2.0838    2.3966 N   0  0  0  0  0  0  0  0  0  0  0  0
  -11.4832    2.7640   -0.8839 C   0  0  0  0  0  0  0  0  0  0  0  0
  -12.0697    2.8674   -1.8778 N   0  0  0  0  0  0  0  0  0  0  0  0
   -7.6085    3.8739   -2.8121 C   0  0  0  0  0  0  0  0  0  0  0  0
   -7.3127    2.9492   -3.8215 C   0  0  0  0  0  0  0  0  0  0  0  0
   -8.1562    1.9127   -4.0652 F   0  0  0  0  0  0  0  0  0  0  0  0
   -6.0999    3.0293   -4.5135 C   0  0  0  0  0  0  0  0  0  0  0  0
   -5.8010    2.0714   -5.4280 F   0  0  0  0  0  0  0  0  0  0  0  0
   -5.1596    4.0287   -4.1916 C   0  0  0  0  0  0  0  0  0  0  0  0
   -5.5061    5.0102   -3.2417 C   0  0  0  0  0  0  0  0  0  0  0  0
   -4.6103    5.9490   -2.8426 F   0  0  0  0  0  0  0  0  0  0  0  0
   -6.7345    4.9446   -2.5764 C   0  0  0  0  0  0  0  0  0  0  0  0
   -7.0100    5.8461   -1.5998 F   0  0  0  0  0  0  0  0  0  0  0  0
   -3.7581    3.8772   -4.6449 C   0  0  0  0  0  0  0  0  0  0  0  0
   -2.8311    4.9024   -4.9432 C   0  0  0  0  0  0  0  0  0  0  0  0
   -3.1965    6.3096   -5.2179 C   0  0  0  0  0  0  0  0  0  0  0  0
   -4.2495    6.5944   -6.1038 C   0  0  0  0  0  0  0  0  0  0  0  0
   -4.6283    7.9152   -6.3470 C   0  0  0  0  0  0  0  0  0  0  0  0
   -3.9730    8.9635   -5.6985 C   0  0  0  0  0  0  0  0  0  0  0  0
   -2.9317    8.6943   -4.7942 C   0  0  0  0  0  0  0  0  0  0  0  0
   -2.2232    9.8236   -4.0944 C   0  0  0  0  0  0  0  0  0  0  0  0
   -0.9888   10.2526   -4.8808 C   0  0  0  0  0  0  0  0  0  0  0  0
   -2.5346    7.3658   -4.5677 C   0  0  0  0  0  0  0  0  0  0  0  0
   -1.5181    4.4074   -4.9523 C   0  0  0  0  0  0  0  0  0  0  0  0
    0.0048    5.1645   -4.8981 S   0  0  0  0  0  0  0  0  0  0  0  0
    0.7884    3.6854   -4.5898 C   0  0  0  0  0  0  0  0  0  0  0  0
    1.8979    3.3279   -3.8686 C   0  0  0  0  0  0  0  0  0  0  0  0
    2.8448    4.1417   -3.2273 C   0  0  0  0  0  0  0  0  0  0  0  0
    3.6435    3.5848   -2.1811 C   0  0  0  0  0  0  0  0  0  0  0  0
    4.4977    4.4216   -1.5449 N   0  0  0  0  0  0  0  0  0  0  0  0
    4.1607    5.8284   -2.3532 S   0  0  0  0  0  0  0  0  0  0  0  0
    2.9971    5.4662   -3.4734 N   0  0  0  0  0  0  0  0  0  0  0  0
    3.4917    2.2292   -1.8782 C   0  0  0  0  0  0  0  0  0  0  0  0
    4.1052    1.4133   -0.9716 C   0  0  0  0  0  0  0  0  0  0  0  0
    5.1558    1.5072    0.3636 S   0  0  0  0  0  0  0  0  0  0  0  0
    4.9584   -0.1649    0.6627 C   0  0  0  0  0  0  0  0  0  0  0  0
    5.3051   -0.9978    1.7299 C   0  0  0  0  0  0  0  0  0  0  0  0
    6.0577   -0.5766    2.9200 C   0  0  0  0  0  0  0  0  0  0  0  0
    5.3941   -0.4069    4.1425 C   0  0  0  0  0  0  0  0  0  0  0  0
    6.1115   -0.0578    5.2874 C   0  0  0  0  0  0  0  0  0  0  0  0
    7.5008    0.0967    5.2237 C   0  0  0  0  0  0  0  0  0  0  0  0
    8.1780   -0.0712    4.0044 C   0  0  0  0  0  0  0  0  0  0  0  0
    9.6834    0.0280    3.9476 C   0  0  0  0  0  0  0  0  0  0  0  0
   10.3073   -1.3360    3.6719 C   0  0  0  0  0  0  0  0  0  0  0  0
    7.4446   -0.3815    2.8455 C   0  0  0  0  0  0  0  0  0  0  0  0
    4.6928   -2.2534    1.5906 C   0  0  0  0  0  0  0  0  0  0  0  0
    3.7417   -2.3023    0.1835 S   0  0  0  0  0  0  0  0  0  0  0  0
    4.1185   -0.7396   -0.2614 C   0  0  0  0  0  0  0  0  0  0  0  0
    3.6255    0.1642   -1.1794 C   0  0  0  0  0  0  0  0  0  0  0  0
    2.7033    0.0947   -2.1707 N   0  0  0  0  0  0  0  0  0  0  0  0
    2.5833    1.4042   -2.5570 C   0  0  0  0  0  0  0  0  0  0  0  0
    1.6890    1.9910   -3.4858 C   0  0  0  0  0  0  0  0  0  0  0  0
    0.4181    1.5892   -3.8119 N   0  0  0  0  0  0  0  0  0  0  0  0
   -0.0864    2.6418   -4.5096 C   0  0  0  0  0  0  0  0  0  0  0  0
   -1.4010    3.0627   -4.7077 C   0  0  0  0  0  0  0  0  0  0  0  0
   -2.9154    2.4127   -4.4214 S   0  0  0  0  0  0  0  0  0  0  0  0
   -0.4135    0.6285   -3.0675 C   0  0  0  0  0  0  0  0  0  0  0  0
   -0.8348    1.1998   -1.7129 C   0  0  0  0  0  0  0  0  0  0  0  0
    2.5421   -1.0712   -3.0631 C   0  0  0  0  0  0  0  0  0  0  0  0
    1.7737   -2.2214   -2.4029 C   0  0  0  0  0  0  0  0  0  0  0  0
    4.7924   -3.3969    2.4902 C   0  0  0  0  0  0  0  0  0  0  0  0
    5.8234   -4.3272    2.4198 C   0  0  0  0  0  0  0  0  0  0  0  0
    5.4462   -5.6068    2.8522 C   0  0  0  0  0  0  0  0  0  0  0  0
    6.5074   -7.0439    2.6563 S   0  0  0  0  0  0  0  0  0  0  0  0
    6.0112   -7.3751    0.9221 C   0  0  0  0  0  0  0  0  0  0  0  0
    5.5351   -8.8122    0.7804 C   0  0  0  0  0  0  0  0  0  0  0  0
    4.1221   -5.6825    3.2704 C   0  0  0  0  0  0  0  0  0  0  0  0
    3.4252   -4.1662    3.0905 S   0  0  0  0  0  0  0  0  0  0  0  0
    3.3718   -6.9129    3.5618 C   0  0  0  0  0  0  0  0  0  0  0  0
    2.3856   -7.3704    2.7651 C   0  0  0  0  0  0  0  0  0  0  0  0
    1.9505   -6.7593    1.5029 C   0  0  0  0  0  0  0  0  0  0  0  0
    2.6126   -5.9635    0.7790 O   0  0  0  0  0  0  0  0  0  0  0  0
    0.6177   -7.2341    1.2019 C   0  0  0  0  0  0  0  0  0  0  0  0
   -0.2451   -6.7902    0.1963 C   0  0  0  0  0  0  0  0  0  0  0  0
   -1.5491   -7.3012    0.1708 C   0  0  0  0  0  0  0  0  0  0  0  0
   -1.9749   -8.2087    1.1574 C   0  0  0  0  0  0  0  0  0  0  0  0
   -3.6318   -8.7832    1.1482 Cl  0  0  0  0  0  0  0  0  0  0  0  0
   -1.0895   -8.6395    2.1627 C   0  0  0  0  0  0  0  0  0  0  0  0
    0.2305   -8.1614    2.1542 C   0  0  0  0  0  0  0  0  0  0  0  0
    1.3609   -8.4049    3.0973 C   0  0  0  0  0  0  0  0  0  0  0  0
    1.5205   -9.4829    3.9095 C   0  0  0  0  0  0  0  0  0  0  0  0
    2.7604   -9.7627    4.5902 C   0  0  0  0  0  0  0  0  0  0  0  0
    3.7524   -9.9980    5.1400 N   0  0  0  0  0  0  0  0  0  0  0  0
    0.5165  -10.5116    4.0193 C   0  0  0  0  0  0  0  0  0  0  0  0
   -0.2856  -11.3449    4.1069 N   0  0  0  0  0  0  0  0  0  0  0  0
   -9.6544    4.0386   -2.0626 H   0  0  0  0  0  0  0  0  0  0  0  0
   -5.1912    1.6502    1.6577 H   0  0  0  0  0  0  0  0  0  0  0  0
   -5.7430    1.1814    4.0329 H   0  0  0  0  0  0  0  0  0  0  0  0
   -9.8666    2.1365    3.3110 H   0  0  0  0  0  0  0  0  0  0  0  0
   -4.7723    5.7905   -6.6127 H   0  0  0  0  0  0  0  0  0  0  0  0
   -5.4391    8.1252   -7.0345 H   0  0  0  0  0  0  0  0  0  0  0  0
   -4.2756    9.9831   -5.9005 H   0  0  0  0  0  0  0  0  0  0  0  0
   -1.9130    9.5023   -3.0773 H   0  0  0  0  0  0  0  0  0  0  0  0
   -2.9035   10.6961   -3.9773 H   0  0  0  0  0  0  0  0  0  0  0  0
   -1.2830   10.6225   -5.8872 H   0  0  0  0  0  0  0  0  0  0  0  0
   -0.2874    9.3931   -4.9953 H   0  0  0  0  0  0  0  0  0  0  0  0
   -0.4692   11.0705   -4.3377 H   0  0  0  0  0  0  0  0  0  0  0  0
   -1.7424    7.1603   -3.8577 H   0  0  0  0  0  0  0  0  0  0  0  0
    4.3220   -0.5496    4.2093 H   0  0  0  0  0  0  0  0  0  0  0  0
    5.5973    0.0711    6.2317 H   0  0  0  0  0  0  0  0  0  0  0  0
    8.0455    0.3405    6.1262 H   0  0  0  0  0  0  0  0  0  0  0  0
   10.0874    0.4250    4.9065 H   0  0  0  0  0  0  0  0  0  0  0  0
    9.9772    0.7390    3.1479 H   0  0  0  0  0  0  0  0  0  0  0  0
   11.4161   -1.2695    3.7522 H   0  0  0  0  0  0  0  0  0  0  0  0
   10.0602   -1.6700    2.6435 H   0  0  0  0  0  0  0  0  0  0  0  0
    9.9318   -2.0902    4.3978 H   0  0  0  0  0  0  0  0  0  0  0  0
    7.9517   -0.5195    1.8968 H   0  0  0  0  0  0  0  0  0  0  0  0
   -1.3034    0.3526   -3.6638 H   0  0  0  0  0  0  0  0  0  0  0  0
    0.1104   -0.3114   -2.9032 H   0  0  0  0  0  0  0  0  0  0  0  0
   -1.3994    2.1430   -1.8482 H   0  0  0  0  0  0  0  0  0  0  0  0
    0.0640    1.3978   -1.0925 H   0  0  0  0  0  0  0  0  0  0  0  0
   -1.4785    0.4611   -1.1895 H   0  0  0  0  0  0  0  0  0  0  0  0
    3.5462   -1.4327   -3.3771 H   0  0  0  0  0  0  0  0  0  0  0  0
    2.0276   -0.7692   -4.0014 H   0  0  0  0  0  0  0  0  0  0  0  0
    1.2691   -1.8886   -1.4686 H   0  0  0  0  0  0  0  0  0  0  0  0
    0.9982   -2.6075   -3.1004 H   0  0  0  0  0  0  0  0  0  0  0  0
    2.4554   -3.0618   -2.1713 H   0  0  0  0  0  0  0  0  0  0  0  0
    6.7697   -4.1276    1.9328 H   0  0  0  0  0  0  0  0  0  0  0  0
    5.2064   -6.6887    0.5786 H   0  0  0  0  0  0  0  0  0  0  0  0
    6.8975   -7.2218    0.2693 H   0  0  0  0  0  0  0  0  0  0  0  0
    4.7231   -9.0321    1.5069 H   0  0  0  0  0  0  0  0  0  0  0  0
    5.1552   -8.9812   -0.2496 H   0  0  0  0  0  0  0  0  0  0  0  0
    6.3828   -9.5074    0.9651 H   0  0  0  0  0  0  0  0  0  0  0  0
    3.5766   -7.3736    4.5118 H   0  0  0  0  0  0  0  0  0  0  0  0
    0.0809   -6.0597   -0.5317 H   0  0  0  0  0  0  0  0  0  0  0  0
   -2.2347   -6.9694   -0.5953 H   0  0  0  0  0  0  0  0  0  0  0  0
   -1.4523   -9.2870    2.9427 H   0  0  0  0  0  0  0  0  0  0  0  0
  1  2  2  3
  2  3  1  0
  3  4  2  0
  3  5  1  0
  5  6  2  0
  6  7  1  0
  7  8  2  0
  8  9  1  0
  8 10  1  0
 10 11  2  0
 11 12  1  0
 12 13  2  3
 13 14  1  0
 14 15  3  0
 13 16  1  0
 16 17  3  0
  1 18  1  0
 18 19  2  0
 19 20  1  0
 19 21  1  0
 21 22  1  0
 21 23  2  0
 23 24  1  0
 24 25  1  0
 24 26  2  0
 26 27  1  0
 23 28  1  0
 28 29  2  0
 29 30  1  0
 30 31  2  0
 31 32  1  0
 32 33  2  0
 33 34  1  0
 34 35  1  0
 35 36  1  0
 34 37  2  0
 29 38  1  0
 38 39  1  0
 39 40  1  0
 40 41  1  0
 41 42  1  0
 42 43  1  0
 43 44  2  0
 44 45  1  0
 45 46  1  0
 43 47  1  0
 47 48  1  0
 48 49  1  0
 49 50  1  0
 50 51  1  0
 51 52  1  0
 52 53  2  0
 53 54  1  0
 54 55  2  0
 55 56  1  0
 56 57  1  0
 57 58  1  0
 56 59  2  0
 51 60  2  0
 60 61  1  0
 61 62  1  0
 62 63  1  0
 63 64  1  0
 64 65  1  0
 65 66  1  0
 66 67  1  0
 67 68  1  0
 68 69  1  0
 69 70  1  0
 67 71  1  0
 71 72  1  0
 64 73  1  0
 73 74  1  0
 60 75  1  0
 75 76  2  0
 76 77  1  0
 77 78  1  0
 78 79  1  0
 79 80  1  0
 77 81  2  0
 81 82  1  0
 81 83  1  0
 83 84  2  3
 84 85  1  0
 85 86  2  0
 85 87  1  0
 87 88  2  0
 88 89  1  0
 89 90  2  0
 90 91  1  0
 90 92  1  0
 92 93  2  0
 93 94  1  0
 94 95  2  3
 95 96  1  0
 96 97  3  0
 95 98  1  0
 98 99  3  0
 12  2  1  0
 26 18  1  0
 70 28  1  0
 82 75  1  0
 94 84  1  0
 11  5  1  0
 37 30  1  0
 69 38  2  0
 93 87  1  0
 68 40  2  0
 66 41  2  0
 46 42  2  0
 65 47  2  0
 63 48  2  0
 62 50  2  0
 59 52  1  0
  1100  1  0
  6101  1  0
  7102  1  0
 10103  1  0
 31104  1  0
 32105  1  0
 33106  1  0
 35107  1  0
 35108  1  0
 36109  1  0
 36110  1  0
 36111  1  0
 37112  1  0
 53113  1  0
 54114  1  0
 55115  1  0
 57116  1  0
 57117  1  0
 58118  1  0
 58119  1  0
 58120  1  0
 59121  1  0
 71122  1  0
 71123  1  0
 72124  1  0
 72125  1  0
 72126  1  0
 73127  1  0
 73128  1  0
 74129  1  0
 74130  1  0
 74131  1  0
 76132  1  0
 79133  1  0
 79134  1  0
 80135  1  0
 80136  1  0
 80137  1  0
 83138  1  0
 88139  1  0
 89140  1  0
 92141  1  0
M  END

