
     RDKit          3D

160176  0  0  0  0  0  0  0  0999 V2000
    3.2051    7.8236    2.4376 C   0  0  0  0  0  0  0  0  0  0  0  0
    2.2430    7.3743    3.2670 C   0  0  0  0  0  0  0  0  0  0  0  0
    1.0853    6.5614    2.8699 C   0  0  0  0  0  0  0  0  0  0  0  0
    0.7662    6.2457    1.6926 O   0  0  0  0  0  0  0  0  0  0  0  0
    0.2223    6.3925    4.0147 C   0  0  0  0  0  0  0  0  0  0  0  0
   -0.9860    5.6991    4.0773 C   0  0  0  0  0  0  0  0  0  0  0  0
   -1.7031    5.7140    5.2792 C   0  0  0  0  0  0  0  0  0  0  0  0
   -1.2125    6.4300    6.3827 C   0  0  0  0  0  0  0  0  0  0  0  0
   -2.1307    6.4605    7.8754 Cl  0  0  0  0  0  0  0  0  0  0  0  0
    0.0044    7.1274    6.2980 C   0  0  0  0  0  0  0  0  0  0  0  0
    0.7374    7.0845    5.0978 C   0  0  0  0  0  0  0  0  0  0  0  0
    2.0479    7.7049    4.7206 C   0  0  0  0  0  0  0  0  0  0  0  0
    2.9627    8.2499    5.5722 C   0  0  0  0  0  0  0  0  0  0  0  0
    2.7198    8.4187    6.9816 C   0  0  0  0  0  0  0  0  0  0  0  0
    2.5460    8.5554    8.1186 N   0  0  0  0  0  0  0  0  0  0  0  0
    4.2927    8.6090    5.1641 C   0  0  0  0  0  0  0  0  0  0  0  0
    5.3728    8.9021    4.8549 N   0  0  0  0  0  0  0  0  0  0  0  0
    3.5271    7.1996    1.1374 C   0  0  0  0  0  0  0  0  0  0  0  0
    4.2267    7.8147    0.1039 C   0  0  0  0  0  0  0  0  0  0  0  0
    4.6255    6.9275   -0.9141 C   0  0  0  0  0  0  0  0  0  0  0  0
    5.6953    7.4596   -2.2562 S   0  0  0  0  0  0  0  0  0  0  0  0
    7.2529    7.2347   -1.3291 C   0  0  0  0  0  0  0  0  0  0  0  0
    7.7750    5.8093   -1.4561 C   0  0  0  0  0  0  0  0  0  0  0  0
    4.2340    5.6046   -0.6859 C   0  0  0  0  0  0  0  0  0  0  0  0
    3.4696    5.5545    0.8042 S   0  0  0  0  0  0  0  0  0  0  0  0
    4.5769    4.3932   -1.4539 C   0  0  0  0  0  0  0  0  0  0  0  0
    4.5701    4.2040   -2.8528 C   0  0  0  0  0  0  0  0  0  0  0  0
    4.0020    5.1586   -3.8256 C   0  0  0  0  0  0  0  0  0  0  0  0
    4.6937    5.4689   -5.0083 C   0  0  0  0  0  0  0  0  0  0  0  0
    4.1661    6.4010   -5.9043 C   0  0  0  0  0  0  0  0  0  0  0  0
    2.9428    7.0237   -5.6352 C   0  0  0  0  0  0  0  0  0  0  0  0
    2.2277    6.7028   -4.4704 C   0  0  0  0  0  0  0  0  0  0  0  0
    0.8969    7.3507   -4.1772 C   0  0  0  0  0  0  0  0  0  0  0  0
    0.9962    8.3056   -2.9938 C   0  0  0  0  0  0  0  0  0  0  0  0
    2.7614    5.7635   -3.5745 C   0  0  0  0  0  0  0  0  0  0  0  0
    4.9072    2.8841   -3.1788 C   0  0  0  0  0  0  0  0  0  0  0  0
    4.7218    1.9758   -4.6056 S   0  0  0  0  0  0  0  0  0  0  0  0
    4.9833    0.5107   -3.7753 C   0  0  0  0  0  0  0  0  0  0  0  0
    4.4966   -0.7552   -3.9529 C   0  0  0  0  0  0  0  0  0  0  0  0
    3.8880   -1.3053   -5.0868 C   0  0  0  0  0  0  0  0  0  0  0  0
    3.1194   -2.4891   -4.9484 C   0  0  0  0  0  0  0  0  0  0  0  0
    2.4990   -2.9546   -6.0629 N   0  0  0  0  0  0  0  0  0  0  0  0
    2.9921   -1.8197   -7.1563 S   0  0  0  0  0  0  0  0  0  0  0  0
    3.9372   -0.7476   -6.3205 N   0  0  0  0  0  0  0  0  0  0  0  0
    3.0210   -3.0804   -3.6889 C   0  0  0  0  0  0  0  0  0  0  0  0
    2.2244   -4.1009   -3.2559 C   0  0  0  0  0  0  0  0  0  0  0  0
    0.8508   -4.9412   -3.8012 S   0  0  0  0  0  0  0  0  0  0  0  0
    0.4777   -5.4136   -2.1988 C   0  0  0  0  0  0  0  0  0  0  0  0
   -0.6895   -5.9038   -1.6192 C   0  0  0  0  0  0  0  0  0  0  0  0
   -1.7544   -6.5819   -2.3739 C   0  0  0  0  0  0  0  0  0  0  0  0
   -3.0698   -6.0931   -2.3776 C   0  0  0  0  0  0  0  0  0  0  0  0
   -4.0729   -6.7981   -3.0522 C   0  0  0  0  0  0  0  0  0  0  0  0
   -3.7772   -8.0104   -3.6865 C   0  0  0  0  0  0  0  0  0  0  0  0
   -2.4649   -8.5009   -3.6903 C   0  0  0  0  0  0  0  0  0  0  0  0
   -2.1369   -9.8397   -4.2958 C   0  0  0  0  0  0  0  0  0  0  0  0
   -2.0633  -10.9214   -3.2238 C   0  0  0  0  0  0  0  0  0  0  0  0
   -1.4553   -7.7743   -3.0466 C   0  0  0  0  0  0  0  0  0  0  0  0
   -0.6773   -5.7215   -0.2271 C   0  0  0  0  0  0  0  0  0  0  0  0
    0.7571   -4.9354    0.2505 S   0  0  0  0  0  0  0  0  0  0  0  0
    1.3810   -4.9026   -1.3037 C   0  0  0  0  0  0  0  0  0  0  0  0
    2.3812   -4.1743   -1.9194 C   0  0  0  0  0  0  0  0  0  0  0  0
    3.2929   -3.3058   -1.4353 N   0  0  0  0  0  0  0  0  0  0  0  0
    3.6540   -2.5611   -2.5387 C   0  0  0  0  0  0  0  0  0  0  0  0
    4.3772   -1.3242   -2.6653 C   0  0  0  0  0  0  0  0  0  0  0  0
    4.7577   -0.3981   -1.7164 N   0  0  0  0  0  0  0  0  0  0  0  0
    5.1186    0.6981   -2.4362 C   0  0  0  0  0  0  0  0  0  0  0  0
    5.1090    2.0532   -2.1051 C   0  0  0  0  0  0  0  0  0  0  0  0
    4.9045    2.9153   -0.6900 S   0  0  0  0  0  0  0  0  0  0  0  0
    4.4907   -0.3626   -0.2762 C   0  0  0  0  0  0  0  0  0  0  0  0
    2.9988   -0.1839    0.0051 C   0  0  0  0  0  0  0  0  0  0  0  0
    4.0029   -3.5811   -0.1759 C   0  0  0  0  0  0  0  0  0  0  0  0
    5.5056   -3.7661   -0.3997 C   0  0  0  0  0  0  0  0  0  0  0  0
   -1.8225   -5.9436    0.6686 C   0  0  0  0  0  0  0  0  0  0  0  0
   -2.4868   -4.8357    1.1921 C   0  0  0  0  0  0  0  0  0  0  0  0
   -2.1758   -3.5352    1.0621 N   0  0  0  0  0  0  0  0  0  0  0  0
   -3.1435   -2.8879    1.7056 N   0  0  0  0  0  0  0  0  0  0  0  0
   -3.2592   -1.4327    1.7235 C   0  0  0  0  0  0  0  0  0  0  0  0
   -2.0066   -0.7902    2.3064 C   0  0  0  0  0  0  0  0  0  0  0  0
   -4.0636   -3.7024    2.2105 N   0  0  0  0  0  0  0  0  0  0  0  0
   -3.6533   -4.9401    1.8800 C   0  0  0  0  0  0  0  0  0  0  0  0
   -4.2879   -6.1647    2.0953 C   0  0  0  0  0  0  0  0  0  0  0  0
   -3.6241   -7.3308    1.6321 C   0  0  0  0  0  0  0  0  0  0  0  0
   -2.3905   -7.2257    0.9152 C   0  0  0  0  0  0  0  0  0  0  0  0
   -1.7883   -8.4064    0.4479 O   0  0  0  0  0  0  0  0  0  0  0  0
   -0.3868   -8.6648    0.5004 C   0  0  0  0  0  0  0  0  0  0  0  0
   -4.2313   -8.5707    1.8515 O   0  0  0  0  0  0  0  0  0  0  0  0
   -3.5561   -9.7026    2.4025 C   0  0  0  0  0  0  0  0  0  0  0  0
   -5.5429   -6.2589    2.8772 C   0  0  0  0  0  0  0  0  0  0  0  0
   -6.5945   -5.4325    2.7087 C   0  0  0  0  0  0  0  0  0  0  0  0
   -7.4643   -5.0323    3.8134 C   0  0  0  0  0  0  0  0  0  0  0  0
   -7.6274   -5.6608    4.8938 O   0  0  0  0  0  0  0  0  0  0  0  0
   -8.0028   -3.7176    3.5018 C   0  0  0  0  0  0  0  0  0  0  0  0
   -8.7034   -2.8494    4.3384 C   0  0  0  0  0  0  0  0  0  0  0  0
   -9.0011   -1.5574    3.8720 C   0  0  0  0  0  0  0  0  0  0  0  0
   -9.6991   -0.5768    4.7624 C   0  0  0  0  0  0  0  0  0  0  0  0
   -8.5425   -1.1544    2.5954 C   0  0  0  0  0  0  0  0  0  0  0  0
   -7.8251   -2.0408    1.7791 C   0  0  0  0  0  0  0  0  0  0  0  0
   -7.5868   -3.3387    2.2385 C   0  0  0  0  0  0  0  0  0  0  0  0
   -6.8239   -4.4474    1.6172 C   0  0  0  0  0  0  0  0  0  0  0  0
   -6.6808   -4.6888    0.2952 C   0  0  0  0  0  0  0  0  0  0  0  0
   -6.3189   -5.9987   -0.1882 C   0  0  0  0  0  0  0  0  0  0  0  0
   -6.0359   -7.0537   -0.5652 N   0  0  0  0  0  0  0  0  0  0  0  0
   -7.0646   -3.7325   -0.7123 C   0  0  0  0  0  0  0  0  0  0  0  0
   -7.3733   -2.9699   -1.5278 N   0  0  0  0  0  0  0  0  0  0  0  0
    3.8184    8.6631    2.7168 H   0  0  0  0  0  0  0  0  0  0  0  0
   -1.3678    5.1633    3.2167 H   0  0  0  0  0  0  0  0  0  0  0  0
   -2.6436    5.1857    5.3471 H   0  0  0  0  0  0  0  0  0  0  0  0
    0.3230    7.7033    7.1481 H   0  0  0  0  0  0  0  0  0  0  0  0
    4.5046    8.8606    0.1115 H   0  0  0  0  0  0  0  0  0  0  0  0
    7.1202    7.4906   -0.2545 H   0  0  0  0  0  0  0  0  0  0  0  0
    8.0101    7.9241   -1.7519 H   0  0  0  0  0  0  0  0  0  0  0  0
    8.7896    5.7467   -1.0115 H   0  0  0  0  0  0  0  0  0  0  0  0
    7.8332    5.5040   -2.5253 H   0  0  0  0  0  0  0  0  0  0  0  0
    7.1191    5.1039   -0.9030 H   0  0  0  0  0  0  0  0  0  0  0  0
    5.6499    5.0101   -5.2251 H   0  0  0  0  0  0  0  0  0  0  0  0
    4.7047    6.6439   -6.8106 H   0  0  0  0  0  0  0  0  0  0  0  0
    2.5425    7.7418   -6.3414 H   0  0  0  0  0  0  0  0  0  0  0  0
    0.1484    6.5578   -3.9533 H   0  0  0  0  0  0  0  0  0  0  0  0
    0.5329    7.9161   -5.0601 H   0  0  0  0  0  0  0  0  0  0  0  0
    1.7313    9.1143   -3.2076 H   0  0  0  0  0  0  0  0  0  0  0  0
    0.0045    8.7693   -2.8077 H   0  0  0  0  0  0  0  0  0  0  0  0
    1.3058    7.7643   -2.0730 H   0  0  0  0  0  0  0  0  0  0  0  0
    2.2012    5.4926   -2.6845 H   0  0  0  0  0  0  0  0  0  0  0  0
   -3.3137   -5.1734   -1.8614 H   0  0  0  0  0  0  0  0  0  0  0  0
   -5.0842   -6.4135   -3.0658 H   0  0  0  0  0  0  0  0  0  0  0  0
   -4.5698   -8.5691   -4.1707 H   0  0  0  0  0  0  0  0  0  0  0  0
   -1.1570   -9.7755   -4.8186 H   0  0  0  0  0  0  0  0  0  0  0  0
   -2.8973  -10.1245   -5.0560 H   0  0  0  0  0  0  0  0  0  0  0  0
   -1.4003  -10.6004   -2.3900 H   0  0  0  0  0  0  0  0  0  0  0  0
   -1.6466  -11.8574   -3.6542 H   0  0  0  0  0  0  0  0  0  0  0  0
   -3.0756  -11.1324   -2.8140 H   0  0  0  0  0  0  0  0  0  0  0  0
   -0.4408   -8.1600   -3.0284 H   0  0  0  0  0  0  0  0  0  0  0  0
    5.0436    0.4662    0.1987 H   0  0  0  0  0  0  0  0  0  0  0  0
    4.9408   -1.2182    0.2299 H   0  0  0  0  0  0  0  0  0  0  0  0
    2.4079   -1.0134   -0.4226 H   0  0  0  0  0  0  0  0  0  0  0  0
    2.6482    0.7698   -0.4459 H   0  0  0  0  0  0  0  0  0  0  0  0
    2.8272   -0.1417    1.0991 H   0  0  0  0  0  0  0  0  0  0  0  0
    3.6427   -4.5428    0.2525 H   0  0  0  0  0  0  0  0  0  0  0  0
    3.7385   -2.8465    0.6057 H   0  0  0  0  0  0  0  0  0  0  0  0
    5.6765   -4.6405   -1.0602 H   0  0  0  0  0  0  0  0  0  0  0  0
    5.9685   -2.8799   -0.8740 H   0  0  0  0  0  0  0  0  0  0  0  0
    6.0029   -3.9532    0.5733 H   0  0  0  0  0  0  0  0  0  0  0  0
   -4.1398   -1.1289    2.3341 H   0  0  0  0  0  0  0  0  0  0  0  0
   -3.4186   -1.0730    0.6815 H   0  0  0  0  0  0  0  0  0  0  0  0
   -1.1094   -1.1300    1.7485 H   0  0  0  0  0  0  0  0  0  0  0  0
   -1.9004   -1.0669    3.3755 H   0  0  0  0  0  0  0  0  0  0  0  0
   -2.0796    0.3136    2.2269 H   0  0  0  0  0  0  0  0  0  0  0  0
   -0.2134   -9.7599    0.4478 H   0  0  0  0  0  0  0  0  0  0  0  0
    0.0400   -8.2795    1.4531 H   0  0  0  0  0  0  0  0  0  0  0  0
    0.1291   -8.2166   -0.3707 H   0  0  0  0  0  0  0  0  0  0  0  0
   -2.4807   -9.5125    2.5673 H   0  0  0  0  0  0  0  0  0  0  0  0
   -4.0218   -9.9627    3.3765 H   0  0  0  0  0  0  0  0  0  0  0  0
   -3.6705  -10.5656    1.7131 H   0  0  0  0  0  0  0  0  0  0  0  0
   -5.5230   -6.9118    3.7411 H   0  0  0  0  0  0  0  0  0  0  0  0
   -8.9827   -3.1620    5.3363 H   0  0  0  0  0  0  0  0  0  0  0  0
   -8.9445    0.0181    5.3169 H   0  0  0  0  0  0  0  0  0  0  0  0
  -10.3560   -1.0969    5.4847 H   0  0  0  0  0  0  0  0  0  0  0  0
  -10.3302    0.1077    4.1607 H   0  0  0  0  0  0  0  0  0  0  0  0
   -8.7233   -0.1453    2.2482 H   0  0  0  0  0  0  0  0  0  0  0  0
   -7.4392   -1.6933    0.8324 H   0  0  0  0  0  0  0  0  0  0  0  0
  1  2  2  3
  2  3  1  0
  3  4  2  0
  3  5  1  0
  5  6  2  0
  6  7  1  0
  7  8  2  0
  8  9  1  0
  8 10  1  0
 10 11  2  0
 11 12  1  0
 12 13  2  3
 13 14  1  0
 14 15  3  0
 13 16  1  0
 16 17  3  0
  1 18  1  0
 18 19  2  0
 19 20  1  0
 20 21  1  0
 21 22  1  0
 22 23  1  0
 20 24  2  0
 24 25  1  0
 24 26  1  0
 26 27  2  0
 27 28  1  0
 28 29  2  0
 29 30  1  0
 30 31  2  0
 31 32  1  0
 32 33  1  0
 33 34  1  0
 32 35  2  0
 27 36  1  0
 36 37  1  0
 37 38  1  0
 38 39  1  0
 39 40  1  0
 40 41  1  0
 41 42  2  0
 42 43  1  0
 43 44  1  0
 41 45  1  0
 45 46  1  0
 46 47  1  0
 47 48  1  0
 48 49  1  0
 49 50  1  0
 50 51  2  0
 51 52  1  0
 52 53  2  0
 53 54  1  0
 54 55  1  0
 55 56  1  0
 54 57  2  0
 49 58  2  0
 58 59  1  0
 59 60  1  0
 60 61  1  0
 61 62  1  0
 62 63  1  0
 63 64  1  0
 64 65  1  0
 65 66  1  0
 66 67  1  0
 67 68  1  0
 65 69  1  0
 69 70  1  0
 62 71  1  0
 71 72  1  0
 58 73  1  0
 73 74  1  0
 74 75  2  0
 75 76  1  0
 76 77  1  0
 77 78  1  0
 76 79  1  0
 79 80  2  0
 80 81  1  0
 81 82  2  0
 82 83  1  0
 83 84  1  0
 84 85  1  0
 82 86  1  0
 86 87  1  0
 81 88  1  0
 88 89  2  3
 89 90  1  0
 90 91  2  0
 90 92  1  0
 92 93  2  0
 93 94  1  0
 94 95  1  0
 94 96  2  0
 96 97  1  0
 97 98  2  0
 98 99  1  0
 99100  2  3
100101  1  0
101102  3  0
100103  1  0
103104  3  0
 12  2  1  0
 25 18  1  0
 68 26  1  0
 83 73  2  0
 99 89  1  0
 11  5  1  0
 35 28  1  0
 67 36  2  0
 80 74  1  0
 98 92  1  0
 66 38  2  0
 64 39  2  0
 44 40  2  0
 63 45  2  0
 61 46  2  0
 60 48  2  0
 57 50  1  0
  1105  1  0
  6106  1  0
  7107  1  0
 10108  1  0
 19109  1  0
 22110  1  0
 22111  1  0
 23112  1  0
 23113  1  0
 23114  1  0
 29115  1  0
 30116  1  0
 31117  1  0
 33118  1  0
 33119  1  0
 34120  1  0
 34121  1  0
 34122  1  0
 35123  1  0
 51124  1  0
 52125  1  0
 53126  1  0
 55127  1  0
 55128  1  0
 56129  1  0
 56130  1  0
 56131  1  0
 57132  1  0
 69133  1  0
 69134  1  0
 70135  1  0
 70136  1  0
 70137  1  0
 71138  1  0
 71139  1  0
 72140  1  0
 72141  1  0
 72142  1  0
 77143  1  0
 77144  1  0
 78145  1  0
 78146  1  0
 78147  1  0
 85148  1  0
 85149  1  0
 85150  1  0
 87151  1  0
 87152  1  0
 87153  1  0
 88154  1  0
 93155  1  0
 95156  1  0
 95157  1  0
 95158  1  0
 96159  1  0
 97160  1  0
M  END

