
     RDKit          3D

165181  0  0  0  0  0  0  0  0999 V2000
    4.9732   -4.5669    8.8144 C   0  0  0  0  0  0  0  0  0  0  0  0
    5.8719   -4.4744    7.8098 C   0  0  0  0  0  0  0  0  0  0  0  0
    5.6794   -4.9589    6.4336 C   0  0  0  0  0  0  0  0  0  0  0  0
    4.6770   -5.5731    5.9850 O   0  0  0  0  0  0  0  0  0  0  0  0
    6.9290   -4.8270    5.7216 C   0  0  0  0  0  0  0  0  0  0  0  0
    7.1975   -5.1669    4.3959 C   0  0  0  0  0  0  0  0  0  0  0  0
    8.5047   -5.0179    3.9157 C   0  0  0  0  0  0  0  0  0  0  0  0
    9.5218   -4.5639    4.7733 C   0  0  0  0  0  0  0  0  0  0  0  0
   11.1635   -4.4209    4.1735 Cl  0  0  0  0  0  0  0  0  0  0  0  0
    9.2314   -4.2301    6.1071 C   0  0  0  0  0  0  0  0  0  0  0  0
    7.9064   -4.3416    6.5709 C   0  0  0  0  0  0  0  0  0  0  0  0
    7.3026   -4.0259    7.8987 C   0  0  0  0  0  0  0  0  0  0  0  0
    7.8556   -3.2590    8.8788 C   0  0  0  0  0  0  0  0  0  0  0  0
    9.2014   -2.7524    8.8101 C   0  0  0  0  0  0  0  0  0  0  0  0
   10.2804   -2.3355    8.7724 N   0  0  0  0  0  0  0  0  0  0  0  0
    7.1015   -2.7805   10.0087 C   0  0  0  0  0  0  0  0  0  0  0  0
    6.5041   -2.3893   10.9187 N   0  0  0  0  0  0  0  0  0  0  0  0
    3.5114   -4.6854    8.6146 C   0  0  0  0  0  0  0  0  0  0  0  0
    2.5855   -5.0722    9.5788 C   0  0  0  0  0  0  0  0  0  0  0  0
    1.2429   -4.9082    9.1853 C   0  0  0  0  0  0  0  0  0  0  0  0
   -0.1031   -5.3278   10.2921 S   0  0  0  0  0  0  0  0  0  0  0  0
    0.1361   -7.1541   10.3557 C   0  0  0  0  0  0  0  0  0  0  0  0
    0.7002   -7.7937    9.0865 C   0  0  0  0  0  0  0  0  0  0  0  0
    1.0928   -4.3216    7.9167 C   0  0  0  0  0  0  0  0  0  0  0  0
    2.6467   -4.0270    7.3428 S   0  0  0  0  0  0  0  0  0  0  0  0
   -0.0918   -3.7418    7.2324 C   0  0  0  0  0  0  0  0  0  0  0  0
   -1.3566   -4.3145    6.9363 C   0  0  0  0  0  0  0  0  0  0  0  0
   -1.9172   -5.5693    7.4536 C   0  0  0  0  0  0  0  0  0  0  0  0
   -2.7578   -5.5344    8.5734 C   0  0  0  0  0  0  0  0  0  0  0  0
   -3.4294   -6.6859    8.9848 C   0  0  0  0  0  0  0  0  0  0  0  0
   -3.2877   -7.8765    8.2652 C   0  0  0  0  0  0  0  0  0  0  0  0
   -2.4883   -7.9127    7.1144 C   0  0  0  0  0  0  0  0  0  0  0  0
   -2.4083   -9.1745    6.2954 C   0  0  0  0  0  0  0  0  0  0  0  0
   -3.6347   -9.3215    5.3955 C   0  0  0  0  0  0  0  0  0  0  0  0
   -1.8181   -6.7493    6.7000 C   0  0  0  0  0  0  0  0  0  0  0  0
   -2.0066   -3.6172    5.9050 C   0  0  0  0  0  0  0  0  0  0  0  0
   -3.1975   -4.1305    4.8074 S   0  0  0  0  0  0  0  0  0  0  0  0
   -2.8324   -2.8829    3.7207 C   0  0  0  0  0  0  0  0  0  0  0  0
   -2.7952   -2.8545    2.3529 C   0  0  0  0  0  0  0  0  0  0  0  0
   -3.3030   -3.7803    1.4241 C   0  0  0  0  0  0  0  0  0  0  0  0
   -2.7955   -3.7685    0.0912 C   0  0  0  0  0  0  0  0  0  0  0  0
   -3.3272   -4.6680   -0.7760 N   0  0  0  0  0  0  0  0  0  0  0  0
   -4.3874   -5.4418    0.2334 S   0  0  0  0  0  0  0  0  0  0  0  0
   -4.2429   -4.7157    1.7170 N   0  0  0  0  0  0  0  0  0  0  0  0
   -1.8212   -2.8266   -0.2473 C   0  0  0  0  0  0  0  0  0  0  0  0
   -1.3167   -2.4488   -1.4602 C   0  0  0  0  0  0  0  0  0  0  0  0
   -1.6629   -2.7932   -3.0815 S   0  0  0  0  0  0  0  0  0  0  0  0
   -0.9319   -1.3348   -3.5698 C   0  0  0  0  0  0  0  0  0  0  0  0
   -0.9017   -0.6725   -4.7873 C   0  0  0  0  0  0  0  0  0  0  0  0
   -1.3984   -1.2691   -6.0396 C   0  0  0  0  0  0  0  0  0  0  0  0
   -2.4191   -0.6418   -6.7687 C   0  0  0  0  0  0  0  0  0  0  0  0
   -2.8174   -1.1594   -8.0063 C   0  0  0  0  0  0  0  0  0  0  0  0
   -2.1911   -2.2953   -8.5292 C   0  0  0  0  0  0  0  0  0  0  0  0
   -1.1573   -2.9234   -7.8170 C   0  0  0  0  0  0  0  0  0  0  0  0
   -0.4361   -4.1081   -8.4045 C   0  0  0  0  0  0  0  0  0  0  0  0
   -1.0346   -5.4171   -7.9030 C   0  0  0  0  0  0  0  0  0  0  0  0
   -0.7849   -2.4227   -6.5581 C   0  0  0  0  0  0  0  0  0  0  0  0
   -0.3894    0.6373   -4.6535 C   0  0  0  0  0  0  0  0  0  0  0  0
   -0.0211    0.9263   -3.0143 S   0  0  0  0  0  0  0  0  0  0  0  0
   -0.4993   -0.5975   -2.4972 C   0  0  0  0  0  0  0  0  0  0  0  0
   -0.7066   -1.2431   -1.2840 C   0  0  0  0  0  0  0  0  0  0  0  0
   -0.7803   -0.8105   -0.0004 N   0  0  0  0  0  0  0  0  0  0  0  0
   -1.3799   -1.8555    0.6585 C   0  0  0  0  0  0  0  0  0  0  0  0
   -1.7950   -1.9380    2.0079 C   0  0  0  0  0  0  0  0  0  0  0  0
   -1.1250   -1.5101    3.1256 N   0  0  0  0  0  0  0  0  0  0  0  0
   -1.7911   -2.1048    4.1553 C   0  0  0  0  0  0  0  0  0  0  0  0
   -1.3334   -2.5300    5.4051 C   0  0  0  0  0  0  0  0  0  0  0  0
    0.1227   -2.4075    6.2011 S   0  0  0  0  0  0  0  0  0  0  0  0
    0.2705   -1.0437    3.1842 C   0  0  0  0  0  0  0  0  0  0  0  0
    0.3917    0.2617    3.9837 C   0  0  0  0  0  0  0  0  0  0  0  0
   -0.8853    0.6041    0.3885 C   0  0  0  0  0  0  0  0  0  0  0  0
   -2.3290    1.0917    0.2398 C   0  0  0  0  0  0  0  0  0  0  0  0
   -0.2951    1.6310   -5.7546 C   0  0  0  0  0  0  0  0  0  0  0  0
    0.2074    1.2333   -7.0075 C   0  0  0  0  0  0  0  0  0  0  0  0
    0.8646    0.0495   -7.1351 F   0  0  0  0  0  0  0  0  0  0  0  0
    0.0516    2.0424   -8.1365 C   0  0  0  0  0  0  0  0  0  0  0  0
    0.4711    1.5670   -9.3416 F   0  0  0  0  0  0  0  0  0  0  0  0
   -0.5521    3.3046   -8.0320 C   0  0  0  0  0  0  0  0  0  0  0  0
   -1.0277    3.7281   -6.7760 C   0  0  0  0  0  0  0  0  0  0  0  0
   -1.6694    4.9172   -6.6489 N   0  0  0  0  0  0  0  0  0  0  0  0
   -2.1006    5.3888   -5.4513 C   0  0  0  0  0  0  0  0  0  0  0  0
   -2.9895    6.5657   -5.4710 C   0  0  0  0  0  0  0  0  0  0  0  0
   -2.8342    7.8631   -6.5344 S   0  0  0  0  0  0  0  0  0  0  0  0
   -4.2748    8.6217   -6.1064 C   0  0  0  0  0  0  0  0  0  0  0  0
   -4.7923    9.9011   -6.6872 C   0  0  0  0  0  0  0  0  0  0  0  0
   -4.7223   11.0423   -5.6749 C   0  0  0  0  0  0  0  0  0  0  0  0
   -4.9131    7.8494   -5.1420 C   0  0  0  0  0  0  0  0  0  0  0  0
   -4.2071    6.6926   -4.8025 C   0  0  0  0  0  0  0  0  0  0  0  0
   -4.6923    5.7668   -3.9401 F   0  0  0  0  0  0  0  0  0  0  0  0
   -6.1149    8.1677   -4.6037 F   0  0  0  0  0  0  0  0  0  0  0  0
   -1.7757    4.6630   -4.2806 C   0  0  0  0  0  0  0  0  0  0  0  0
   -1.2115    3.4274   -4.4200 N   0  0  0  0  0  0  0  0  0  0  0  0
   -0.8503    2.9209   -5.6322 C   0  0  0  0  0  0  0  0  0  0  0  0
   -1.9074    5.2263   -2.9075 C   0  0  0  0  0  0  0  0  0  0  0  0
   -1.9977    6.8607   -2.4725 S   0  0  0  0  0  0  0  0  0  0  0  0
   -1.8811    6.6371   -0.8091 C   0  0  0  0  0  0  0  0  0  0  0  0
   -1.9009    7.7246    0.2239 C   0  0  0  0  0  0  0  0  0  0  0  0
   -0.6815    8.6334    0.0775 C   0  0  0  0  0  0  0  0  0  0  0  0
   -1.7365    5.2799   -0.5686 C   0  0  0  0  0  0  0  0  0  0  0  0
   -1.5199    4.7580    0.6661 F   0  0  0  0  0  0  0  0  0  0  0  0
   -1.7398    4.5037   -1.7275 C   0  0  0  0  0  0  0  0  0  0  0  0
   -1.5117    3.1724   -1.6991 F   0  0  0  0  0  0  0  0  0  0  0  0
   -0.6479    4.2026   -9.2147 C   0  0  0  0  0  0  0  0  0  0  0  0
    0.4066    4.5548   -9.9744 C   0  0  0  0  0  0  0  0  0  0  0  0
    1.7388    4.0873   -9.6613 C   0  0  0  0  0  0  0  0  0  0  0  0
    2.8015    3.7161   -9.3927 N   0  0  0  0  0  0  0  0  0  0  0  0
    0.2802    5.5374  -11.0674 C   0  0  0  0  0  0  0  0  0  0  0  0
   -0.7443    6.2690  -11.1742 O   0  0  0  0  0  0  0  0  0  0  0  0
    1.3408    5.6808  -11.9646 O   0  0  0  0  0  0  0  0  0  0  0  0
    1.5680    6.8764  -12.7086 C   0  0  0  0  0  0  0  0  0  0  0  0
    2.2229    7.9141  -11.8054 C   0  0  0  0  0  0  0  0  0  0  0  0
    5.2968   -4.5001    9.8362 H   0  0  0  0  0  0  0  0  0  0  0  0
    6.4125   -5.5382    3.7479 H   0  0  0  0  0  0  0  0  0  0  0  0
    8.7284   -5.2703    2.8863 H   0  0  0  0  0  0  0  0  0  0  0  0
   10.0433   -3.9237    6.7451 H   0  0  0  0  0  0  0  0  0  0  0  0
    2.8761   -5.4574   10.5489 H   0  0  0  0  0  0  0  0  0  0  0  0
   -0.8507   -7.6097   10.5699 H   0  0  0  0  0  0  0  0  0  0  0  0
    0.8091   -7.3919   11.2067 H   0  0  0  0  0  0  0  0  0  0  0  0
    0.5313   -8.8906    9.1169 H   0  0  0  0  0  0  0  0  0  0  0  0
    0.2186   -7.3812    8.1846 H   0  0  0  0  0  0  0  0  0  0  0  0
    1.7963   -7.6234    9.0186 H   0  0  0  0  0  0  0  0  0  0  0  0
   -2.9049   -4.6081    9.1134 H   0  0  0  0  0  0  0  0  0  0  0  0
   -4.0735   -6.6562    9.8538 H   0  0  0  0  0  0  0  0  0  0  0  0
   -3.8247   -8.7609    8.5929 H   0  0  0  0  0  0  0  0  0  0  0  0
   -1.4891   -9.1713    5.6665 H   0  0  0  0  0  0  0  0  0  0  0  0
   -2.3416  -10.0579    6.9727 H   0  0  0  0  0  0  0  0  0  0  0  0
   -4.5567   -9.4035    6.0108 H   0  0  0  0  0  0  0  0  0  0  0  0
   -3.7232   -8.4432    4.7209 H   0  0  0  0  0  0  0  0  0  0  0  0
   -3.5346  -10.2353    4.7762 H   0  0  0  0  0  0  0  0  0  0  0  0
   -1.2258   -6.7560    5.7913 H   0  0  0  0  0  0  0  0  0  0  0  0
   -2.8884    0.2599   -6.3917 H   0  0  0  0  0  0  0  0  0  0  0  0
   -3.5956   -0.6626   -8.5689 H   0  0  0  0  0  0  0  0  0  0  0  0
   -2.4970   -2.6683   -9.4947 H   0  0  0  0  0  0  0  0  0  0  0  0
   -0.4916   -4.0795   -9.5136 H   0  0  0  0  0  0  0  0  0  0  0  0
    0.6403   -4.0684   -8.1297 H   0  0  0  0  0  0  0  0  0  0  0  0
   -0.4958   -6.2700   -8.3692 H   0  0  0  0  0  0  0  0  0  0  0  0
   -0.9285   -5.4890   -6.8004 H   0  0  0  0  0  0  0  0  0  0  0  0
   -2.1087   -5.4789   -8.1776 H   0  0  0  0  0  0  0  0  0  0  0  0
    0.0205   -2.8959   -6.0056 H   0  0  0  0  0  0  0  0  0  0  0  0
    0.9139   -1.8242    3.6380 H   0  0  0  0  0  0  0  0  0  0  0  0
    0.6902   -0.8895    2.1708 H   0  0  0  0  0  0  0  0  0  0  0  0
    0.1313    0.1030    5.0455 H   0  0  0  0  0  0  0  0  0  0  0  0
    1.4347    0.6316    3.9298 H   0  0  0  0  0  0  0  0  0  0  0  0
   -0.2882    1.0367    3.5856 H   0  0  0  0  0  0  0  0  0  0  0  0
   -0.5873    0.7470    1.4294 H   0  0  0  0  0  0  0  0  0  0  0  0
   -0.2030    1.2269   -0.2245 H   0  0  0  0  0  0  0  0  0  0  0  0
   -2.4045    2.1418    0.5888 H   0  0  0  0  0  0  0  0  0  0  0  0
   -2.6370    1.0315   -0.8225 H   0  0  0  0  0  0  0  0  0  0  0  0
   -3.0139    0.4643    0.8457 H   0  0  0  0  0  0  0  0  0  0  0  0
   -5.8435    9.7516   -7.0092 H   0  0  0  0  0  0  0  0  0  0  0  0
   -4.1960   10.1735   -7.5856 H   0  0  0  0  0  0  0  0  0  0  0  0
   -5.3455   10.8163   -4.7855 H   0  0  0  0  0  0  0  0  0  0  0  0
   -5.1047   11.9721   -6.1437 H   0  0  0  0  0  0  0  0  0  0  0  0
   -3.6707   11.2115   -5.3585 H   0  0  0  0  0  0  0  0  0  0  0  0
   -1.9080    7.2744    1.2422 H   0  0  0  0  0  0  0  0  0  0  0  0
   -2.8304    8.3279    0.1149 H   0  0  0  0  0  0  0  0  0  0  0  0
    0.2450    8.0269    0.0811 H   0  0  0  0  0  0  0  0  0  0  0  0
   -0.7403    9.2076   -0.8701 H   0  0  0  0  0  0  0  0  0  0  0  0
   -0.6437    9.3355    0.9348 H   0  0  0  0  0  0  0  0  0  0  0  0
   -1.6058    4.6691   -9.4143 H   0  0  0  0  0  0  0  0  0  0  0  0
    0.6157    7.2653  -13.1412 H   0  0  0  0  0  0  0  0  0  0  0  0
    2.2516    6.6440  -13.5508 H   0  0  0  0  0  0  0  0  0  0  0  0
    1.6048    8.0709  -10.8947 H   0  0  0  0  0  0  0  0  0  0  0  0
    2.3296    8.8841  -12.3454 H   0  0  0  0  0  0  0  0  0  0  0  0
    3.2272    7.5607  -11.4923 H   0  0  0  0  0  0  0  0  0  0  0  0
  1  2  2  3
  2  3  1  0
  3  4  2  0
  3  5  1  0
  5  6  2  0
  6  7  1  0
  7  8  2  0
  8  9  1  0
  8 10  1  0
 10 11  2  0
 11 12  1  0
 12 13  2  3
 13 14  1  0
 14 15  3  0
 13 16  1  0
 16 17  3  0
  1 18  1  0
 18 19  2  0
 19 20  1  0
 20 21  1  0
 21 22  1  0
 22 23  1  0
 20 24  2  0
 24 25  1  0
 24 26  1  0
 26 27  2  0
 27 28  1  0
 28 29  2  0
 29 30  1  0
 30 31  2  0
 31 32  1  0
 32 33  1  0
 33 34  1  0
 32 35  2  0
 27 36  1  0
 36 37  1  0
 37 38  1  0
 38 39  1  0
 39 40  1  0
 40 41  1  0
 41 42  2  0
 42 43  1  0
 43 44  1  0
 41 45  1  0
 45 46  1  0
 46 47  1  0
 47 48  1  0
 48 49  1  0
 49 50  1  0
 50 51  2  0
 51 52  1  0
 52 53  2  0
 53 54  1  0
 54 55  1  0
 55 56  1  0
 54 57  2  0
 49 58  2  0
 58 59  1  0
 59 60  1  0
 60 61  1  0
 61 62  1  0
 62 63  1  0
 63 64  1  0
 64 65  1  0
 65 66  1  0
 66 67  1  0
 67 68  1  0
 65 69  1  0
 69 70  1  0
 62 71  1  0
 71 72  1  0
 58 73  1  0
 73 74  2  0
 74 75  1  0
 74 76  1  0
 76 77  1  0
 76 78  2  0
 78 79  1  0
 79 80  2  0
 80 81  1  0
 81 82  1  0
 82 83  1  0
 83 84  1  0
 84 85  1  0
 85 86  1  0
 84 87  2  0
 87 88  1  0
 88 89  1  0
 87 90  1  0
 81 91  2  0
 91 92  1  0
 92 93  2  0
 91 94  1  0
 94 95  1  0
 95 96  1  0
 96 97  1  0
 97 98  1  0
 96 99  2  0
 99100  1  0
 99101  1  0
101102  1  0
 78103  1  0
103104  2  3
104105  1  0
105106  3  0
104107  1  0
107108  2  0
107109  1  0
109110  1  0
110111  1  0
 12  2  1  0
 25 18  1  0
 68 26  1  0
 93 73  1  0
101 94  2  0
 11  5  1  0
 35 28  1  0
 67 36  2  0
 93 79  1  0
 66 38  2  0
 88 82  2  0
 64 39  2  0
 44 40  2  0
 63 45  2  0
 61 46  2  0
 60 48  2  0
 57 50  1  0
  1112  1  0
  6113  1  0
  7114  1  0
 10115  1  0
 19116  1  0
 22117  1  0
 22118  1  0
 23119  1  0
 23120  1  0
 23121  1  0
 29122  1  0
 30123  1  0
 31124  1  0
 33125  1  0
 33126  1  0
 34127  1  0
 34128  1  0
 34129  1  0
 35130  1  0
 51131  1  0
 52132  1  0
 53133  1  0
 55134  1  0
 55135  1  0
 56136  1  0
 56137  1  0
 56138  1  0
 57139  1  0
 69140  1  0
 69141  1  0
 70142  1  0
 70143  1  0
 70144  1  0
 71145  1  0
 71146  1  0
 72147  1  0
 72148  1  0
 72149  1  0
 85150  1  0
 85151  1  0
 86152  1  0
 86153  1  0
 86154  1  0
 97155  1  0
 97156  1  0
 98157  1  0
 98158  1  0
 98159  1  0
103160  1  0
110161  1  0
110162  1  0
111163  1  0
111164  1  0
111165  1  0
M  END

