
     RDKit          3D

131145  0  0  0  0  0  0  0  0999 V2000
   -7.1702    4.7349    6.7477 C   0  0  0  0  0  0  0  0  0  0  0  0
   -6.7694    5.9176    7.1345 C   0  0  0  0  0  0  0  0  0  0  0  0
   -5.3983    6.4527    7.1396 C   0  0  0  0  0  0  0  0  0  0  0  0
   -4.4001    5.6813    6.9344 O   0  0  0  0  0  0  0  0  0  0  0  0
   -5.3929    7.8294    7.3866 C   0  0  0  0  0  0  0  0  0  0  0  0
   -4.4016    8.8113    7.5442 C   0  0  0  0  0  0  0  0  0  0  0  0
   -4.6542   10.1051    7.8310 C   0  0  0  0  0  0  0  0  0  0  0  0
   -5.9784   10.5380    7.9878 C   0  0  0  0  0  0  0  0  0  0  0  0
   -6.3754   12.1611    8.3800 Cl  0  0  0  0  0  0  0  0  0  0  0  0
   -6.9609    9.5564    7.8316 C   0  0  0  0  0  0  0  0  0  0  0  0
   -6.6900    8.2668    7.5483 C   0  0  0  0  0  0  0  0  0  0  0  0
   -7.6337    7.0486    7.3971 C   0  0  0  0  0  0  0  0  0  0  0  0
   -8.8582    7.2272    7.6651 C   0  0  0  0  0  0  0  0  0  0  0  0
  -10.0909    7.4054    7.9350 C   0  0  0  0  0  0  0  0  0  0  0  0
  -11.2873    7.5730    8.1938 N   0  0  0  0  0  0  0  0  0  0  0  0
   -8.8753    5.6873    8.6451 C   0  0  0  0  0  0  0  0  0  0  0  0
   -8.8894    4.7289    9.2584 N   0  0  0  0  0  0  0  0  0  0  0  0
   -6.2064    3.7528    6.2180 C   0  0  0  0  0  0  0  0  0  0  0  0
   -5.5024    3.9364    5.0238 C   0  0  0  0  0  0  0  0  0  0  0  0
   -4.6966    2.9815    4.6095 C   0  0  0  0  0  0  0  0  0  0  0  0
   -3.7569    3.0823    3.0401 S   0  0  0  0  0  0  0  0  0  0  0  0
   -4.7372    2.3537    1.6989 C   0  0  0  0  0  0  0  0  0  0  0  0
   -5.9644    3.2262    1.4857 C   0  0  0  0  0  0  0  0  0  0  0  0
   -4.6004    1.8408    5.4066 C   0  0  0  0  0  0  0  0  0  0  0  0
   -5.6654    2.2188    6.6790 S   0  0  0  0  0  0  0  0  0  0  0  0
   -3.7664    0.6839    5.0811 C   0  0  0  0  0  0  0  0  0  0  0  0
   -3.4923   -0.4440    5.7787 C   0  0  0  0  0  0  0  0  0  0  0  0
   -4.1409   -0.7269    7.1202 C   0  0  0  0  0  0  0  0  0  0  0  0
   -5.5067   -1.3026    6.9436 C   0  0  0  0  0  0  0  0  0  0  0  0
   -2.6710   -1.2240    5.1596 C   0  0  0  0  0  0  0  0  0  0  0  0
   -1.8653   -3.0936    5.7382 Se  0  0  0  0  0  2  0  0  0  0  0  0
   -0.8720   -3.1318    4.0489 C   0  0  0  0  0  0  0  0  0  0  0  0
   -0.0152   -3.8937    3.3572 C   0  0  0  0  0  0  0  0  0  0  0  0
    0.6354   -5.0951    3.6450 C   0  0  0  0  0  0  0  0  0  0  0  0
    1.5204   -5.5837    2.7641 C   0  0  0  0  0  0  0  0  0  0  0  0
    2.1201   -6.7441    3.1040 N   0  0  0  0  0  0  0  0  0  0  0  0
    1.4712   -7.1337    4.5896 S   0  0  0  0  0  0  0  0  0  0  0  0
    0.4484   -5.8321    4.7788 N   0  0  0  0  0  0  0  0  0  0  0  0
    1.7247   -4.8486    1.5906 C   0  0  0  0  0  0  0  0  0  0  0  0
    2.5164   -5.0989    0.5315 C   0  0  0  0  0  0  0  0  0  0  0  0
    3.7853   -6.4249   -0.1132 Se  0  0  0  0  0  2  0  0  0  0  0  0
    3.9861   -5.2221   -1.8922 C   0  0  0  0  0  0  0  0  0  0  0  0
    4.7015   -5.3535   -2.9662 C   0  0  0  0  0  0  0  0  0  0  0  0
    5.5958   -6.5574   -3.2317 C   0  0  0  0  0  0  0  0  0  0  0  0
    6.8135   -6.5711   -2.3719 C   0  0  0  0  0  0  0  0  0  0  0  0
    4.5747   -4.3972   -3.8540 C   0  0  0  0  0  0  0  0  0  0  0  0
    3.4033   -3.3453   -3.0559 S   0  0  0  0  0  0  0  0  0  0  0  0
    3.1862   -4.3153   -1.5722 C   0  0  0  0  0  0  0  0  0  0  0  0
    2.4358   -4.1728   -0.4329 C   0  0  0  0  0  0  0  0  0  0  0  0
    1.4897   -3.2372    0.0572 N   0  0  0  0  0  0  0  0  0  0  0  0
    1.0959   -3.6554    1.2519 C   0  0  0  0  0  0  0  0  0  0  0  0
    0.1904   -3.1568    2.1952 C   0  0  0  0  0  0  0  0  0  0  0  0
   -0.4981   -2.0491    2.2401 N   0  0  0  0  0  0  0  0  0  0  0  0
   -1.2236   -1.9878    3.4495 C   0  0  0  0  0  0  0  0  0  0  0  0
   -2.0956   -1.1404    4.0707 C   0  0  0  0  0  0  0  0  0  0  0  0
   -2.8219    0.4669    3.6555 S   0  0  0  0  0  0  0  0  0  0  0  0
   -0.5672   -0.9182    1.3248 C   0  0  0  0  0  0  0  0  0  0  0  0
   -1.7138   -0.9326    0.3797 C   0  0  0  0  0  0  0  0  0  0  0  0
    1.0229   -2.1803   -0.7911 C   0  0  0  0  0  0  0  0  0  0  0  0
   -0.0886   -2.7391   -1.7124 C   0  0  0  0  0  0  0  0  0  0  0  0
    4.9807   -3.9485   -5.1974 C   0  0  0  0  0  0  0  0  0  0  0  0
    4.2097   -4.0776   -6.3355 C   0  0  0  0  0  0  0  0  0  0  0  0
    4.5758   -3.4292   -7.4245 C   0  0  0  0  0  0  0  0  0  0  0  0
    3.6041   -3.4002   -8.9678 S   0  0  0  0  0  0  0  0  0  0  0  0
    2.0244   -4.2079   -8.7789 C   0  0  0  0  0  0  0  0  0  0  0  0
    2.2446   -5.7053   -8.6073 C   0  0  0  0  0  0  0  0  0  0  0  0
    5.7181   -2.6636   -7.3569 C   0  0  0  0  0  0  0  0  0  0  0  0
    6.2261   -2.9078   -5.7302 S   0  0  0  0  0  0  0  0  0  0  0  0
    6.2711   -1.8234   -8.4016 C   0  0  0  0  0  0  0  0  0  0  0  0
    7.0323   -0.7828   -8.1079 C   0  0  0  0  0  0  0  0  0  0  0  0
    7.8104    0.3131   -8.4751 C   0  0  0  0  0  0  0  0  0  0  0  0
    9.0160   -0.0336   -8.9937 O   0  0  0  0  0  0  0  0  0  0  0  0
    7.4500    1.6371   -8.3512 C   0  0  0  0  0  0  0  0  0  0  0  0
    8.0876    2.8574   -8.5768 C   0  0  0  0  0  0  0  0  0  0  0  0
    7.5070    4.0721   -8.2646 C   0  0  0  0  0  0  0  0  0  0  0  0
    8.1467    5.2575   -8.4634 C   0  0  0  0  0  0  0  0  0  0  0  0
    7.5377    6.4474   -8.1060 C   0  0  0  0  0  0  0  0  0  0  0  0
    6.2515    6.3699   -7.5388 C   0  0  0  0  0  0  0  0  0  0  0  0
    5.6706    7.5360   -7.1872 F   0  0  0  0  0  0  0  0  0  0  0  0
    5.6247    5.1980   -7.3466 C   0  0  0  0  0  0  0  0  0  0  0  0
    6.2405    4.0131   -7.7048 C   0  0  0  0  0  0  0  0  0  0  0  0
    5.6135    2.7991   -7.4883 C   0  0  0  0  0  0  0  0  0  0  0  0
    6.2136    1.6087   -7.8136 C   0  0  0  0  0  0  0  0  0  0  0  0
    5.7615    0.1563   -7.5810 C   0  0  0  0  0  0  0  0  0  0  0  0
    4.7669    0.0613   -6.8225 C   0  0  0  0  0  0  0  0  0  0  0  0
    3.9556   -0.5935   -5.9309 C   0  0  0  0  0  0  0  0  0  0  0  0
    3.3074   -1.1306   -5.2287 N   0  0  0  0  0  0  0  0  0  0  0  0
    3.7143    0.9578   -7.6634 C   0  0  0  0  0  0  0  0  0  0  0  0
    2.8485    1.6767   -8.3262 N   0  0  0  0  0  0  0  0  0  0  0  0
   -8.1775    4.4263    6.7571 H   0  0  0  0  0  0  0  0  0  0  0  0
   -3.3463    8.5035    7.4345 H   0  0  0  0  0  0  0  0  0  0  0  0
   -3.8784   10.8647    7.9602 H   0  0  0  0  0  0  0  0  0  0  0  0
   -7.9897    9.9117    7.9176 H   0  0  0  0  0  0  0  0  0  0  0  0
   -5.6593    4.8922    4.4699 H   0  0  0  0  0  0  0  0  0  0  0  0
   -4.1428    2.4357    0.7710 H   0  0  0  0  0  0  0  0  0  0  0  0
   -4.9937    1.2980    1.8505 H   0  0  0  0  0  0  0  0  0  0  0  0
   -5.9052    4.1236    2.1357 H   0  0  0  0  0  0  0  0  0  0  0  0
   -6.8418    2.6324    1.7638 H   0  0  0  0  0  0  0  0  0  0  0  0
   -6.0651    3.5766    0.4513 H   0  0  0  0  0  0  0  0  0  0  0  0
   -3.5427   -1.4014    7.7375 H   0  0  0  0  0  0  0  0  0  0  0  0
   -4.2423    0.2298    7.6834 H   0  0  0  0  0  0  0  0  0  0  0  0
   -5.7056   -2.1202    7.6694 H   0  0  0  0  0  0  0  0  0  0  0  0
   -6.3328   -0.5893    6.8728 H   0  0  0  0  0  0  0  0  0  0  0  0
   -5.5009   -1.8318    5.9404 H   0  0  0  0  0  0  0  0  0  0  0  0
    5.8898   -6.5711   -4.2896 H   0  0  0  0  0  0  0  0  0  0  0  0
    4.9538   -7.4421   -3.0501 H   0  0  0  0  0  0  0  0  0  0  0  0
    6.4853   -6.6094   -1.3120 H   0  0  0  0  0  0  0  0  0  0  0  0
    7.3889   -7.4943   -2.6358 H   0  0  0  0  0  0  0  0  0  0  0  0
    7.4461   -5.6912   -2.4925 H   0  0  0  0  0  0  0  0  0  0  0  0
   -0.8541    0.0308    1.9830 H   0  0  0  0  0  0  0  0  0  0  0  0
    0.4116   -0.5439    1.0802 H   0  0  0  0  0  0  0  0  0  0  0  0
   -2.1243   -1.9757    0.3452 H   0  0  0  0  0  0  0  0  0  0  0  0
   -2.6013   -0.3266    0.7116 H   0  0  0  0  0  0  0  0  0  0  0  0
   -1.4527   -0.5018   -0.5980 H   0  0  0  0  0  0  0  0  0  0  0  0
    1.9322   -1.9733   -1.5088 H   0  0  0  0  0  0  0  0  0  0  0  0
    0.8093   -1.2144   -0.5531 H   0  0  0  0  0  0  0  0  0  0  0  0
   -0.5782   -1.9146   -2.1834 H   0  0  0  0  0  0  0  0  0  0  0  0
   -0.8061   -3.3332   -1.1238 H   0  0  0  0  0  0  0  0  0  0  0  0
    0.3993   -3.4662   -2.3969 H   0  0  0  0  0  0  0  0  0  0  0  0
    3.3081   -4.7359   -6.2750 H   0  0  0  0  0  0  0  0  0  0  0  0
    1.4541   -3.8197   -7.8924 H   0  0  0  0  0  0  0  0  0  0  0  0
    1.4524   -4.0400   -9.7105 H   0  0  0  0  0  0  0  0  0  0  0  0
    1.9773   -6.0725   -7.6333 H   0  0  0  0  0  0  0  0  0  0  0  0
    1.6378   -6.2515   -9.3773 H   0  0  0  0  0  0  0  0  0  0  0  0
    3.2851   -6.0035   -8.8164 H   0  0  0  0  0  0  0  0  0  0  0  0
    6.0511   -2.0619   -9.4493 H   0  0  0  0  0  0  0  0  0  0  0  0
    9.0670    2.8482   -9.0079 H   0  0  0  0  0  0  0  0  0  0  0  0
    9.1245    5.2867   -8.8913 H   0  0  0  0  0  0  0  0  0  0  0  0
    8.0098    7.3788   -8.2466 H   0  0  0  0  0  0  0  0  0  0  0  0
    4.6449    5.1459   -6.9150 H   0  0  0  0  0  0  0  0  0  0  0  0
    4.6604    2.8548   -6.9976 H   0  0  0  0  0  0  0  0  0  0  0  0
  1  2  2  3
  2  3  1  0
  3  4  2  0
  3  5  1  0
  5  6  2  0
  6  7  1  0
  7  8  2  0
  8  9  1  0
  8 10  1  0
 10 11  2  0
 11 12  1  0
 12 13  2  3
 13 14  1  0
 14 15  3  0
 13 16  1  0
 16 17  3  0
  1 18  1  0
 18 19  2  0
 19 20  1  0
 20 21  1  0
 21 22  1  0
 22 23  1  0
 20 24  2  0
 24 25  1  0
 24 26  1  0
 26 27  2  0
 27 28  1  0
 28 29  1  0
 27 30  1  0
 30 31  1  0
 31 32  1  0
 32 33  1  0
 33 34  1  0
 34 35  1  0
 35 36  2  0
 36 37  1  0
 37 38  1  0
 35 39  1  0
 39 40  1  0
 40 41  1  0
 41 42  1  0
 42 43  1  0
 43 44  1  0
 44 45  1  0
 43 46  2  0
 46 47  1  0
 47 48  1  0
 48 49  1  0
 49 50  1  0
 50 51  1  0
 51 52  1  0
 52 53  1  0
 53 54  1  0
 54 55  1  0
 55 56  1  0
 53 57  1  0
 57 58  1  0
 50 59  1  0
 59 60  1  0
 46 61  1  0
 61 62  2  0
 62 63  1  0
 63 64  1  0
 64 65  1  0
 65 66  1  0
 63 67  2  0
 67 68  1  0
 67 69  1  0
 69 70  2  3
 70 71  1  0
 71 72  2  0
 71 73  1  0
 73 74  2  0
 74 75  1  0
 75 76  2  0
 76 77  1  0
 77 78  2  0
 78 79  1  0
 78 80  1  0
 80 81  2  0
 81 82  1  0
 82 83  2  0
 83 84  1  0
 84 85  2  3
 85 86  1  0
 86 87  3  0
 85 88  1  0
 88 89  3  0
 12  2  1  0
 25 18  1  0
 56 26  1  0
 68 61  1  0
 84 70  1  0
 11  5  1  0
 55 30  2  0
 83 73  1  0
 54 32  2  0
 81 75  1  0
 52 33  2  0
 38 34  2  0
 51 39  2  0
 49 40  2  0
 48 42  2  0
  1 90  1  0
  6 91  1  0
  7 92  1  0
 10 93  1  0
 19 94  1  0
 22 95  1  0
 22 96  1  0
 23 97  1  0
 23 98  1  0
 23 99  1  0
 28100  1  0
 28101  1  0
 29102  1  0
 29103  1  0
 29104  1  0
 44105  1  0
 44106  1  0
 45107  1  0
 45108  1  0
 45109  1  0
 57110  1  0
 57111  1  0
 58112  1  0
 58113  1  0
 58114  1  0
 59115  1  0
 59116  1  0
 60117  1  0
 60118  1  0
 60119  1  0
 62120  1  0
 65121  1  0
 65122  1  0
 66123  1  0
 66124  1  0
 66125  1  0
 69126  1  0
 74127  1  0
 76128  1  0
 77129  1  0
 80130  1  0
 82131  1  0
M  END

