
     RDKit          3D

145160  0  0  0  0  0  0  0  0999 V2000
    3.9743    0.5153    8.5046 C   0  0  0  0  0  0  0  0  0  0  0  0
    4.9591    0.2134    7.6372 C   0  0  0  0  0  0  0  0  0  0  0  0
    4.8285   -0.6536    6.4549 C   0  0  0  0  0  0  0  0  0  0  0  0
    3.9080   -1.4867    6.2306 O   0  0  0  0  0  0  0  0  0  0  0  0
    5.9394   -0.3844    5.5684 C   0  0  0  0  0  0  0  0  0  0  0  0
    6.1641   -0.8871    4.2869 C   0  0  0  0  0  0  0  0  0  0  0  0
    7.2604   -0.3969    3.5601 C   0  0  0  0  0  0  0  0  0  0  0  0
    8.0846    0.5993    4.1094 C   0  0  0  0  0  0  0  0  0  0  0  0
    9.4169    1.2438    3.1662 Cl  0  0  0  0  0  0  0  0  0  0  0  0
    7.8438    1.0873    5.4061 C   0  0  0  0  0  0  0  0  0  0  0  0
    6.7747    0.5559    6.1478 C   0  0  0  0  0  0  0  0  0  0  0  0
    6.2870    0.8860    7.5161 C   0  0  0  0  0  0  0  0  0  0  0  0
    7.0173    1.4189    8.5271 C   0  0  0  0  0  0  0  0  0  0  0  0
    6.5653    1.4053    9.8951 C   0  0  0  0  0  0  0  0  0  0  0  0
    6.2307    1.3916   11.0052 N   0  0  0  0  0  0  0  0  0  0  0  0
    8.3676    1.8816    8.3384 C   0  0  0  0  0  0  0  0  0  0  0  0
    9.4564    2.2535    8.2032 N   0  0  0  0  0  0  0  0  0  0  0  0
    2.6324   -0.0722    8.3981 C   0  0  0  0  0  0  0  0  0  0  0  0
    2.2538   -1.3012    8.9184 C   0  0  0  0  0  0  0  0  0  0  0  0
    1.0400   -1.7640    8.3946 C   0  0  0  0  0  0  0  0  0  0  0  0
    0.3708   -3.3831    8.7838 S   0  0  0  0  0  0  0  0  0  0  0  0
    1.4809   -4.2710    7.6377 C   0  0  0  0  0  0  0  0  0  0  0  0
    0.9221   -5.6565    7.3514 C   0  0  0  0  0  0  0  0  0  0  0  0
    0.4471   -0.8832    7.4887 C   0  0  0  0  0  0  0  0  0  0  0  0
    1.4692    0.4349    7.2952 S   0  0  0  0  0  0  0  0  0  0  0  0
   -0.5704   -1.2444    6.4997 C   0  0  0  0  0  0  0  0  0  0  0  0
   -1.8818   -0.7350    6.4148 C   0  0  0  0  0  0  0  0  0  0  0  0
   -2.5406    0.0793    7.4577 C   0  0  0  0  0  0  0  0  0  0  0  0
   -2.4816   -0.3231    8.8036 C   0  0  0  0  0  0  0  0  0  0  0  0
   -3.1304    0.4211    9.7930 C   0  0  0  0  0  0  0  0  0  0  0  0
   -3.8449    1.5708    9.4503 C   0  0  0  0  0  0  0  0  0  0  0  0
   -3.9079    1.9925    8.1110 C   0  0  0  0  0  0  0  0  0  0  0  0
   -4.6363    3.2607    7.7547 C   0  0  0  0  0  0  0  0  0  0  0  0
   -3.7842    4.4835    8.0897 C   0  0  0  0  0  0  0  0  0  0  0  0
   -3.2491    1.2443    7.1195 C   0  0  0  0  0  0  0  0  0  0  0  0
   -2.4793   -1.1229    5.2095 C   0  0  0  0  0  0  0  0  0  0  0  0
   -3.9829   -0.8072    4.4541 S   0  0  0  0  0  0  0  0  0  0  0  0
   -3.5060   -1.6865    3.0778 C   0  0  0  0  0  0  0  0  0  0  0  0
   -3.9622   -2.0448    1.8435 C   0  0  0  0  0  0  0  0  0  0  0  0
   -5.1823   -1.8046    1.2134 C   0  0  0  0  0  0  0  0  0  0  0  0
   -5.3636   -2.2690   -0.1189 C   0  0  0  0  0  0  0  0  0  0  0  0
   -6.5500   -1.9849   -0.7108 N   0  0  0  0  0  0  0  0  0  0  0  0
   -7.2911   -1.1701    0.5259 S   0  0  0  0  0  0  0  0  0  0  0  0
   -6.2132   -1.1307    1.7815 N   0  0  0  0  0  0  0  0  0  0  0  0
   -4.3037   -2.9209   -0.7593 C   0  0  0  0  0  0  0  0  0  0  0  0
   -4.1110   -3.1316   -2.0967 C   0  0  0  0  0  0  0  0  0  0  0  0
   -4.8589   -2.5372   -3.4993 S   0  0  0  0  0  0  0  0  0  0  0  0
   -3.4107   -2.6590   -4.3779 C   0  0  0  0  0  0  0  0  0  0  0  0
   -3.0263   -2.2062   -5.6421 C   0  0  0  0  0  0  0  0  0  0  0  0
   -3.9470   -1.6311   -6.6396 C   0  0  0  0  0  0  0  0  0  0  0  0
   -4.7400   -0.5176   -6.3285 C   0  0  0  0  0  0  0  0  0  0  0  0
   -5.6127    0.0117   -7.2858 C   0  0  0  0  0  0  0  0  0  0  0  0
   -5.7034   -0.5763   -8.5511 C   0  0  0  0  0  0  0  0  0  0  0  0
   -4.9287   -1.7036   -8.8660 C   0  0  0  0  0  0  0  0  0  0  0  0
   -5.0416   -2.3521  -10.2176 C   0  0  0  0  0  0  0  0  0  0  0  0
   -3.9542   -1.8429  -11.1575 C   0  0  0  0  0  0  0  0  0  0  0  0
   -4.0285   -2.2087   -7.9153 C   0  0  0  0  0  0  0  0  0  0  0  0
   -1.6421   -2.3373   -5.8272 C   0  0  0  0  0  0  0  0  0  0  0  0
   -0.9339   -2.9543   -4.4110 S   0  0  0  0  0  0  0  0  0  0  0  0
   -2.3878   -3.1112   -3.5872 C   0  0  0  0  0  0  0  0  0  0  0  0
   -2.7827   -3.3692   -2.2744 C   0  0  0  0  0  0  0  0  0  0  0  0
   -2.0907   -3.3690   -1.1042 N   0  0  0  0  0  0  0  0  0  0  0  0
   -3.0502   -3.1242   -0.1434 C   0  0  0  0  0  0  0  0  0  0  0  0
   -2.9094   -2.7551    1.2308 C   0  0  0  0  0  0  0  0  0  0  0  0
   -1.8757   -2.9301    2.1260 N   0  0  0  0  0  0  0  0  0  0  0  0
   -2.2690   -2.2096    3.1990 C   0  0  0  0  0  0  0  0  0  0  0  0
   -1.6837   -1.8994    4.4092 C   0  0  0  0  0  0  0  0  0  0  0  0
   -0.1795   -2.1201    5.0954 S   0  0  0  0  0  0  0  0  0  0  0  0
   -0.8427   -3.9746    2.2081 C   0  0  0  0  0  0  0  0  0  0  0  0
   -1.3603   -5.3467    1.7641 C   0  0  0  0  0  0  0  0  0  0  0  0
   -0.6328   -3.2165   -1.0255 C   0  0  0  0  0  0  0  0  0  0  0  0
   -0.2408   -1.7662   -0.7565 C   0  0  0  0  0  0  0  0  0  0  0  0
   -0.8608   -1.6685   -6.8668 C   0  0  0  0  0  0  0  0  0  0  0  0
    0.0460   -2.2784   -7.7188 C   0  0  0  0  0  0  0  0  0  0  0  0
    0.8815   -1.3655   -8.3800 C   0  0  0  0  0  0  0  0  0  0  0  0
    2.2131   -1.9036   -9.4615 S   0  0  0  0  0  0  0  0  0  0  0  0
    3.4553   -2.0449   -8.1263 C   0  0  0  0  0  0  0  0  0  0  0  0
    3.6817   -3.5049   -7.7613 C   0  0  0  0  0  0  0  0  0  0  0  0
    0.6383   -0.0266   -8.0550 C   0  0  0  0  0  0  0  0  0  0  0  0
   -0.5863   -0.0143   -6.8969 S   0  0  0  0  0  0  0  0  0  0  0  0
    1.5681    1.0871   -8.3470 C   0  0  0  0  0  0  0  0  0  0  0  0
    1.2801    2.4023   -8.2715 C   0  0  0  0  0  0  0  0  0  0  0  0
   -0.0246    3.0019   -7.9798 C   0  0  0  0  0  0  0  0  0  0  0  0
   -1.1461    2.5126   -8.2737 O   0  0  0  0  0  0  0  0  0  0  0  0
    0.1940    4.3293   -7.4321 C   0  0  0  0  0  0  0  0  0  0  0  0
    1.5479    4.6202   -7.4832 C   0  0  0  0  0  0  0  0  0  0  0  0
    2.0378    5.7881   -6.8784 C   0  0  0  0  0  0  0  0  0  0  0  0
    1.1311    6.6771   -6.2861 C   0  0  0  0  0  0  0  0  0  0  0  0
   -0.2477    6.3988   -6.2719 C   0  0  0  0  0  0  0  0  0  0  0  0
   -1.4287    7.6559   -5.4319 Br  0  0  0  0  0  0  0  0  0  0  0  0
   -0.7310    5.2054   -6.8499 C   0  0  0  0  0  0  0  0  0  0  0  0
   -2.4463    4.8030   -6.7872 Cl  0  0  0  0  0  0  0  0  0  0  0  0
    2.2760    3.5082   -8.1522 C   0  0  0  0  0  0  0  0  0  0  0  0
    3.4958    3.5771   -8.7434 C   0  0  0  0  0  0  0  0  0  0  0  0
    4.3292    4.7511   -8.6642 C   0  0  0  0  0  0  0  0  0  0  0  0
    5.0086    5.6876   -8.6016 N   0  0  0  0  0  0  0  0  0  0  0  0
    3.9958    2.5312   -9.5984 C   0  0  0  0  0  0  0  0  0  0  0  0
    4.4027    1.6991  -10.2911 N   0  0  0  0  0  0  0  0  0  0  0  0
    4.1005    1.2955    9.2372 H   0  0  0  0  0  0  0  0  0  0  0  0
    5.5034   -1.6253    3.8519 H   0  0  0  0  0  0  0  0  0  0  0  0
    7.4468   -0.7692    2.5598 H   0  0  0  0  0  0  0  0  0  0  0  0
    8.4580    1.8854    5.7837 H   0  0  0  0  0  0  0  0  0  0  0  0
    2.8789   -1.8844    9.5814 H   0  0  0  0  0  0  0  0  0  0  0  0
    1.5901   -3.7222    6.6803 H   0  0  0  0  0  0  0  0  0  0  0  0
    2.4852   -4.3684    8.1072 H   0  0  0  0  0  0  0  0  0  0  0  0
    1.6185   -6.2107    6.6887 H   0  0  0  0  0  0  0  0  0  0  0  0
   -0.0641   -5.5756    6.8457 H   0  0  0  0  0  0  0  0  0  0  0  0
    0.8000   -6.2268    8.2990 H   0  0  0  0  0  0  0  0  0  0  0  0
   -1.9518   -1.2235    9.0872 H   0  0  0  0  0  0  0  0  0  0  0  0
   -3.0828    0.1008   10.8273 H   0  0  0  0  0  0  0  0  0  0  0  0
   -4.3440    2.1364   10.2282 H   0  0  0  0  0  0  0  0  0  0  0  0
   -4.8835    3.2780    6.6707 H   0  0  0  0  0  0  0  0  0  0  0  0
   -5.5955    3.3174    8.3115 H   0  0  0  0  0  0  0  0  0  0  0  0
   -2.8028    4.4248    7.5760 H   0  0  0  0  0  0  0  0  0  0  0  0
   -4.3063    5.4049    7.7574 H   0  0  0  0  0  0  0  0  0  0  0  0
   -3.6182    4.5472    9.1859 H   0  0  0  0  0  0  0  0  0  0  0  0
   -3.2756    1.5799    6.0902 H   0  0  0  0  0  0  0  0  0  0  0  0
   -4.6789   -0.0536   -5.3541 H   0  0  0  0  0  0  0  0  0  0  0  0
   -6.2201    0.8742   -7.0489 H   0  0  0  0  0  0  0  0  0  0  0  0
   -6.3862   -0.1605   -9.2817 H   0  0  0  0  0  0  0  0  0  0  0  0
   -4.9420   -3.4576  -10.1156 H   0  0  0  0  0  0  0  0  0  0  0  0
   -6.0395   -2.1503  -10.6644 H   0  0  0  0  0  0  0  0  0  0  0  0
   -2.9523   -2.1539  -10.7894 H   0  0  0  0  0  0  0  0  0  0  0  0
   -4.1080   -2.2702  -12.1683 H   0  0  0  0  0  0  0  0  0  0  0  0
   -3.9921   -0.7357  -11.2275 H   0  0  0  0  0  0  0  0  0  0  0  0
   -3.4165   -3.0695   -8.1568 H   0  0  0  0  0  0  0  0  0  0  0  0
    0.0912   -3.6545    1.7185 H   0  0  0  0  0  0  0  0  0  0  0  0
   -0.5393   -4.1145    3.2659 H   0  0  0  0  0  0  0  0  0  0  0  0
   -0.5735   -6.1129    1.9297 H   0  0  0  0  0  0  0  0  0  0  0  0
   -2.2552   -5.6225    2.3609 H   0  0  0  0  0  0  0  0  0  0  0  0
   -1.6386   -5.3587    0.6950 H   0  0  0  0  0  0  0  0  0  0  0  0
   -0.1975   -3.9173   -0.3109 H   0  0  0  0  0  0  0  0  0  0  0  0
   -0.1582   -3.5469   -1.9683 H   0  0  0  0  0  0  0  0  0  0  0  0
   -0.5666   -1.4530    0.2538 H   0  0  0  0  0  0  0  0  0  0  0  0
   -0.7097   -1.1010   -1.5089 H   0  0  0  0  0  0  0  0  0  0  0  0
    0.8607   -1.6566   -0.8207 H   0  0  0  0  0  0  0  0  0  0  0  0
    0.1489   -3.3514   -7.8119 H   0  0  0  0  0  0  0  0  0  0  0  0
    4.4075   -1.6021   -8.4864 H   0  0  0  0  0  0  0  0  0  0  0  0
    3.1482   -1.4870   -7.2190 H   0  0  0  0  0  0  0  0  0  0  0  0
    2.7246   -3.9825   -7.4618 H   0  0  0  0  0  0  0  0  0  0  0  0
    4.1070   -4.0516   -8.6296 H   0  0  0  0  0  0  0  0  0  0  0  0
    4.3977   -3.5697   -6.9162 H   0  0  0  0  0  0  0  0  0  0  0  0
    2.5898    0.7900   -8.4929 H   0  0  0  0  0  0  0  0  0  0  0  0
    3.0926    6.0069   -6.8200 H   0  0  0  0  0  0  0  0  0  0  0  0
    1.5033    7.5799   -5.8178 H   0  0  0  0  0  0  0  0  0  0  0  0
  1  2  2  3
  2  3  1  0
  3  4  2  0
  3  5  1  0
  5  6  2  0
  6  7  1  0
  7  8  2  0
  8  9  1  0
  8 10  1  0
 10 11  2  0
 11 12  1  0
 12 13  2  3
 13 14  1  0
 14 15  3  0
 13 16  1  0
 16 17  3  0
  1 18  1  0
 18 19  2  0
 19 20  1  0
 20 21  1  0
 21 22  1  0
 22 23  1  0
 20 24  2  0
 24 25  1  0
 24 26  1  0
 26 27  2  0
 27 28  1  0
 28 29  2  0
 29 30  1  0
 30 31  2  0
 31 32  1  0
 32 33  1  0
 33 34  1  0
 32 35  2  0
 27 36  1  0
 36 37  1  0
 37 38  1  0
 38 39  1  0
 39 40  1  0
 40 41  1  0
 41 42  2  0
 42 43  1  0
 43 44  1  0
 41 45  1  0
 45 46  1  0
 46 47  1  0
 47 48  1  0
 48 49  1  0
 49 50  1  0
 50 51  2  0
 51 52  1  0
 52 53  2  0
 53 54  1  0
 54 55  1  0
 55 56  1  0
 54 57  2  0
 49 58  2  0
 58 59  1  0
 59 60  1  0
 60 61  1  0
 61 62  1  0
 62 63  1  0
 63 64  1  0
 64 65  1  0
 65 66  1  0
 66 67  1  0
 67 68  1  0
 65 69  1  0
 69 70  1  0
 62 71  1  0
 71 72  1  0
 58 73  1  0
 73 74  2  0
 74 75  1  0
 75 76  1  0
 76 77  1  0
 77 78  1  0
 75 79  2  0
 79 80  1  0
 79 81  1  0
 81 82  2  3
 82 83  1  0
 83 84  2  0
 83 85  1  0
 85 86  2  0
 86 87  1  0
 87 88  2  0
 88 89  1  0
 89 90  1  0
 89 91  2  0
 91 92  1  0
 86 93  1  0
 93 94  2  3
 94 95  1  0
 95 96  3  0
 94 97  1  0
 97 98  3  0
 12  2  1  0
 25 18  1  0
 68 26  1  0
 80 73  1  0
 93 82  1  0
 11  5  1  0
 35 28  1  0
 67 36  2  0
 91 85  1  0
 66 38  2  0
 64 39  2  0
 44 40  2  0
 63 45  2  0
 61 46  2  0
 60 48  2  0
 57 50  1  0
  1 99  1  0
  6100  1  0
  7101  1  0
 10102  1  0
 19103  1  0
 22104  1  0
 22105  1  0
 23106  1  0
 23107  1  0
 23108  1  0
 29109  1  0
 30110  1  0
 31111  1  0
 33112  1  0
 33113  1  0
 34114  1  0
 34115  1  0
 34116  1  0
 35117  1  0
 51118  1  0
 52119  1  0
 53120  1  0
 55121  1  0
 55122  1  0
 56123  1  0
 56124  1  0
 56125  1  0
 57126  1  0
 69127  1  0
 69128  1  0
 70129  1  0
 70130  1  0
 70131  1  0
 71132  1  0
 71133  1  0
 72134  1  0
 72135  1  0
 72136  1  0
 74137  1  0
 77138  1  0
 77139  1  0
 78140  1  0
 78141  1  0
 78142  1  0
 81143  1  0
 87144  1  0
 88145  1  0
M  END

