
     RDKit          3D

145160  0  0  0  0  0  0  0  0999 V2000
   -7.3811   -6.7404    6.0842 C   0  0  0  0  0  0  0  0  0  0  0  0
   -7.4398   -5.7586    7.0040 C   0  0  0  0  0  0  0  0  0  0  0  0
   -6.3677   -4.7997    7.3108 C   0  0  0  0  0  0  0  0  0  0  0  0
   -5.3265   -4.5912    6.6343 O   0  0  0  0  0  0  0  0  0  0  0  0
   -6.6314   -4.2187    8.6117 C   0  0  0  0  0  0  0  0  0  0  0  0
   -5.8151   -3.3621    9.3514 C   0  0  0  0  0  0  0  0  0  0  0  0
   -6.2064   -3.0289   10.6529 C   0  0  0  0  0  0  0  0  0  0  0  0
   -7.3879   -3.5658   11.1969 C   0  0  0  0  0  0  0  0  0  0  0  0
   -7.8358   -3.1961   12.8488 Cl  0  0  0  0  0  0  0  0  0  0  0  0
   -8.1890   -4.4368   10.4366 C   0  0  0  0  0  0  0  0  0  0  0  0
   -7.8093   -4.7370    9.1172 C   0  0  0  0  0  0  0  0  0  0  0  0
   -8.4361   -5.6353    8.1089 C   0  0  0  0  0  0  0  0  0  0  0  0
   -9.7331   -6.0301    8.0724 C   0  0  0  0  0  0  0  0  0  0  0  0
  -10.3178   -6.6096    6.8847 C   0  0  0  0  0  0  0  0  0  0  0  0
  -10.8103   -7.0525    5.9332 N   0  0  0  0  0  0  0  0  0  0  0  0
  -10.6807   -5.6671    9.0909 C   0  0  0  0  0  0  0  0  0  0  0  0
  -11.4567   -5.3689    9.8939 N   0  0  0  0  0  0  0  0  0  0  0  0
   -6.3219   -6.8281    5.0723 C   0  0  0  0  0  0  0  0  0  0  0  0
   -5.3970   -7.8578    4.9689 C   0  0  0  0  0  0  0  0  0  0  0  0
   -4.4391   -7.6275    3.9698 C   0  0  0  0  0  0  0  0  0  0  0  0
   -2.9909   -8.6657    3.7555 S   0  0  0  0  0  0  0  0  0  0  0  0
   -2.0723   -7.8187    5.0893 C   0  0  0  0  0  0  0  0  0  0  0  0
   -0.6013   -8.1970    5.0371 C   0  0  0  0  0  0  0  0  0  0  0  0
   -4.6521   -6.4515    3.2573 C   0  0  0  0  0  0  0  0  0  0  0  0
   -5.9820   -5.6635    3.9073 S   0  0  0  0  0  0  0  0  0  0  0  0
   -3.7628   -5.8727    2.2482 C   0  0  0  0  0  0  0  0  0  0  0  0
   -3.9262   -5.9497    0.8555 C   0  0  0  0  0  0  0  0  0  0  0  0
   -4.9892   -6.7007    0.1619 C   0  0  0  0  0  0  0  0  0  0  0  0
   -4.6466   -7.6837   -0.7795 C   0  0  0  0  0  0  0  0  0  0  0  0
   -5.6449   -8.4281   -1.4114 C   0  0  0  0  0  0  0  0  0  0  0  0
   -6.9919   -8.1936   -1.1153 C   0  0  0  0  0  0  0  0  0  0  0  0
   -7.3494   -7.1898   -0.2008 C   0  0  0  0  0  0  0  0  0  0  0  0
   -8.7946   -6.9551    0.1434 C   0  0  0  0  0  0  0  0  0  0  0  0
   -9.1897   -7.7544    1.3819 C   0  0  0  0  0  0  0  0  0  0  0  0
   -6.3413   -6.4499    0.4372 C   0  0  0  0  0  0  0  0  0  0  0  0
   -2.9872   -5.1520    0.2036 C   0  0  0  0  0  0  0  0  0  0  0  0
   -2.9413   -4.5346   -1.3772 S   0  0  0  0  0  0  0  0  0  0  0  0
   -1.7231   -3.4307   -0.9588 C   0  0  0  0  0  0  0  0  0  0  0  0
   -1.4079   -2.1734   -1.3908 C   0  0  0  0  0  0  0  0  0  0  0  0
   -1.9212   -1.4515   -2.4750 C   0  0  0  0  0  0  0  0  0  0  0  0
   -1.7405   -0.0396   -2.5042 C   0  0  0  0  0  0  0  0  0  0  0  0
   -2.2471    0.6235   -3.5736 N   0  0  0  0  0  0  0  0  0  0  0  0
   -2.9188   -0.6455   -4.3978 S   0  0  0  0  0  0  0  0  0  0  0  0
   -2.6119   -2.0059   -3.5020 N   0  0  0  0  0  0  0  0  0  0  0  0
   -1.0274    0.5718   -1.4644 C   0  0  0  0  0  0  0  0  0  0  0  0
   -0.4496    1.8072   -1.4215 C   0  0  0  0  0  0  0  0  0  0  0  0
   -0.1949    3.0104   -2.5842 S   0  0  0  0  0  0  0  0  0  0  0  0
    1.2468    3.4964   -1.8317 C   0  0  0  0  0  0  0  0  0  0  0  0
    2.2810    4.3337   -2.2542 C   0  0  0  0  0  0  0  0  0  0  0  0
    2.1780    5.2718   -3.3909 C   0  0  0  0  0  0  0  0  0  0  0  0
    1.7397    4.8314   -4.6501 C   0  0  0  0  0  0  0  0  0  0  0  0
    1.6597    5.7268   -5.7187 C   0  0  0  0  0  0  0  0  0  0  0  0
    2.0248    7.0654   -5.5436 C   0  0  0  0  0  0  0  0  0  0  0  0
    2.4879    7.5134   -4.2963 C   0  0  0  0  0  0  0  0  0  0  0  0
    2.8828    8.9531   -4.1002 C   0  0  0  0  0  0  0  0  0  0  0  0
    1.7483    9.7536   -3.4703 C   0  0  0  0  0  0  0  0  0  0  0  0
    2.5451    6.6158   -3.2185 C   0  0  0  0  0  0  0  0  0  0  0  0
    3.4300    4.1515   -1.4601 C   0  0  0  0  0  0  0  0  0  0  0  0
    3.1194    2.9687   -0.2684 S   0  0  0  0  0  0  0  0  0  0  0  0
    1.5281    2.7099   -0.7406 C   0  0  0  0  0  0  0  0  0  0  0  0
    0.5421    1.7499   -0.4895 C   0  0  0  0  0  0  0  0  0  0  0  0
    0.5744    0.5525    0.1561 N   0  0  0  0  0  0  0  0  0  0  0  0
   -0.4474   -0.1643   -0.4195 C   0  0  0  0  0  0  0  0  0  0  0  0
   -0.7532   -1.5483   -0.3177 C   0  0  0  0  0  0  0  0  0  0  0  0
   -0.8053   -2.3452    0.8009 N   0  0  0  0  0  0  0  0  0  0  0  0
   -1.3843   -3.4936    0.3620 C   0  0  0  0  0  0  0  0  0  0  0  0
   -2.1213   -4.4735    1.0282 C   0  0  0  0  0  0  0  0  0  0  0  0
   -2.4889   -4.8115    2.6298 S   0  0  0  0  0  0  0  0  0  0  0  0
   -0.8292   -1.9027    2.2025 C   0  0  0  0  0  0  0  0  0  0  0  0
   -2.1718   -1.2598    2.5453 C   0  0  0  0  0  0  0  0  0  0  0  0
    1.7294    0.0403    0.9024 C   0  0  0  0  0  0  0  0  0  0  0  0
    1.8646    0.7532    2.2510 C   0  0  0  0  0  0  0  0  0  0  0  0
    4.7829    4.6291   -1.7989 C   0  0  0  0  0  0  0  0  0  0  0  0
    5.8233    4.8790   -0.9091 C   0  0  0  0  0  0  0  0  0  0  0  0
    7.0164    5.2594   -1.5506 C   0  0  0  0  0  0  0  0  0  0  0  0
    8.5114    5.6641   -0.6452 S   0  0  0  0  0  0  0  0  0  0  0  0
    8.0012    7.3799   -0.2496 C   0  0  0  0  0  0  0  0  0  0  0  0
    8.3587    8.3302   -1.3825 C   0  0  0  0  0  0  0  0  0  0  0  0
    6.9351    5.2270   -2.9414 C   0  0  0  0  0  0  0  0  0  0  0  0
    5.3634    4.8137   -3.3658 S   0  0  0  0  0  0  0  0  0  0  0  0
    7.9993    5.5393   -3.9110 C   0  0  0  0  0  0  0  0  0  0  0  0
    8.3471    4.6925   -4.9011 C   0  0  0  0  0  0  0  0  0  0  0  0
    7.8502    3.3183   -5.0531 C   0  0  0  0  0  0  0  0  0  0  0  0
    7.3315    2.6039   -4.1551 O   0  0  0  0  0  0  0  0  0  0  0  0
    8.0966    2.8889   -6.4112 C   0  0  0  0  0  0  0  0  0  0  0  0
    7.7077    1.6934   -7.0151 C   0  0  0  0  0  0  0  0  0  0  0  0
    8.0008    1.5067   -8.3703 C   0  0  0  0  0  0  0  0  0  0  0  0
    8.6533    2.5176   -9.1014 C   0  0  0  0  0  0  0  0  0  0  0  0
    8.9898    2.2785  -10.8068 Cl  0  0  0  0  0  0  0  0  0  0  0  0
    9.0418    3.7141   -8.4679 C   0  0  0  0  0  0  0  0  0  0  0  0
    8.7781    3.8805   -7.0974 C   0  0  0  0  0  0  0  0  0  0  0  0
    9.0794    5.0164   -6.1706 C   0  0  0  0  0  0  0  0  0  0  0  0
    9.9650    6.0285   -6.3799 C   0  0  0  0  0  0  0  0  0  0  0  0
   10.6427    6.2216   -7.6362 C   0  0  0  0  0  0  0  0  0  0  0  0
   11.1910    6.3933   -8.6433 N   0  0  0  0  0  0  0  0  0  0  0  0
   10.3671    6.9378   -5.3384 C   0  0  0  0  0  0  0  0  0  0  0  0
   10.7112    7.6779   -4.5144 N   0  0  0  0  0  0  0  0  0  0  0  0
   -8.0619   -7.5742    6.1396 H   0  0  0  0  0  0  0  0  0  0  0  0
   -4.8852   -2.9839    8.9365 H   0  0  0  0  0  0  0  0  0  0  0  0
   -5.5817   -2.3766   11.2504 H   0  0  0  0  0  0  0  0  0  0  0  0
   -9.0492   -4.8904   10.8976 H   0  0  0  0  0  0  0  0  0  0  0  0
   -5.3646   -8.7069    5.6428 H   0  0  0  0  0  0  0  0  0  0  0  0
   -2.5001   -8.1122    6.0743 H   0  0  0  0  0  0  0  0  0  0  0  0
   -2.1632   -6.7157    4.9863 H   0  0  0  0  0  0  0  0  0  0  0  0
   -0.0588   -7.6946    5.8658 H   0  0  0  0  0  0  0  0  0  0  0  0
   -0.4865   -9.2956    5.1465 H   0  0  0  0  0  0  0  0  0  0  0  0
   -0.1628   -7.8719    4.0713 H   0  0  0  0  0  0  0  0  0  0  0  0
   -3.6087   -7.8854   -1.0150 H   0  0  0  0  0  0  0  0  0  0  0  0
   -5.3781   -9.1986   -2.1259 H   0  0  0  0  0  0  0  0  0  0  0  0
   -7.7564   -8.7837   -1.6065 H   0  0  0  0  0  0  0  0  0  0  0  0
   -9.4415   -7.2556   -0.7101 H   0  0  0  0  0  0  0  0  0  0  0  0
   -8.9735   -5.8742    0.3301 H   0  0  0  0  0  0  0  0  0  0  0  0
   -8.6323   -7.3873    2.2681 H   0  0  0  0  0  0  0  0  0  0  0  0
  -10.2781   -7.6352    1.5697 H   0  0  0  0  0  0  0  0  0  0  0  0
   -8.9742   -8.8323    1.2312 H   0  0  0  0  0  0  0  0  0  0  0  0
   -6.6086   -5.6678    1.1352 H   0  0  0  0  0  0  0  0  0  0  0  0
    1.4806    3.7937   -4.8112 H   0  0  0  0  0  0  0  0  0  0  0  0
    1.3274    5.3824   -6.6906 H   0  0  0  0  0  0  0  0  0  0  0  0
    1.9569    7.7451   -6.3830 H   0  0  0  0  0  0  0  0  0  0  0  0
    3.7802    9.0105   -3.4485 H   0  0  0  0  0  0  0  0  0  0  0  0
    3.1546    9.4168   -5.0749 H   0  0  0  0  0  0  0  0  0  0  0  0
    1.5219    9.3648   -2.4556 H   0  0  0  0  0  0  0  0  0  0  0  0
    0.8342    9.6924   -4.0998 H   0  0  0  0  0  0  0  0  0  0  0  0
    2.0507   10.8194   -3.3843 H   0  0  0  0  0  0  0  0  0  0  0  0
    2.8841    6.9637   -2.2494 H   0  0  0  0  0  0  0  0  0  0  0  0
   -0.6290   -2.7614    2.8753 H   0  0  0  0  0  0  0  0  0  0  0  0
   -0.0369   -1.1783    2.4069 H   0  0  0  0  0  0  0  0  0  0  0  0
   -3.0057   -1.9673    2.3697 H   0  0  0  0  0  0  0  0  0  0  0  0
   -2.1736   -0.9606    3.6156 H   0  0  0  0  0  0  0  0  0  0  0  0
   -2.3356   -0.3570    1.9227 H   0  0  0  0  0  0  0  0  0  0  0  0
    2.6551    0.1914    0.3086 H   0  0  0  0  0  0  0  0  0  0  0  0
    1.6533   -1.0557    1.0509 H   0  0  0  0  0  0  0  0  0  0  0  0
    0.8988    0.7798    2.7926 H   0  0  0  0  0  0  0  0  0  0  0  0
    2.6164    0.2301    2.8794 H   0  0  0  0  0  0  0  0  0  0  0  0
    2.1956    1.8005    2.1092 H   0  0  0  0  0  0  0  0  0  0  0  0
    5.7199    4.8084    0.1676 H   0  0  0  0  0  0  0  0  0  0  0  0
    8.5402    7.6942    0.6686 H   0  0  0  0  0  0  0  0  0  0  0  0
    6.9126    7.4342   -0.0379 H   0  0  0  0  0  0  0  0  0  0  0  0
    8.1784    9.3779   -1.0592 H   0  0  0  0  0  0  0  0  0  0  0  0
    9.4305    8.2238   -1.6585 H   0  0  0  0  0  0  0  0  0  0  0  0
    7.7267    8.1241   -2.2711 H   0  0  0  0  0  0  0  0  0  0  0  0
    8.3801    6.5423   -3.8819 H   0  0  0  0  0  0  0  0  0  0  0  0
    7.1912    0.9274   -6.4478 H   0  0  0  0  0  0  0  0  0  0  0  0
    7.6998    0.5860   -8.8588 H   0  0  0  0  0  0  0  0  0  0  0  0
    9.5006    4.4829   -9.0631 H   0  0  0  0  0  0  0  0  0  0  0  0
  1  2  2  3
  2  3  1  0
  3  4  2  0
  3  5  1  0
  5  6  2  0
  6  7  1  0
  7  8  2  0
  8  9  1  0
  8 10  1  0
 10 11  2  0
 11 12  1  0
 12 13  2  3
 13 14  1  0
 14 15  3  0
 13 16  1  0
 16 17  3  0
  1 18  1  0
 18 19  2  0
 19 20  1  0
 20 21  1  0
 21 22  1  0
 22 23  1  0
 20 24  2  0
 24 25  1  0
 24 26  1  0
 26 27  2  0
 27 28  1  0
 28 29  2  0
 29 30  1  0
 30 31  2  0
 31 32  1  0
 32 33  1  0
 33 34  1  0
 32 35  2  0
 27 36  1  0
 36 37  1  0
 37 38  1  0
 38 39  1  0
 39 40  1  0
 40 41  1  0
 41 42  2  0
 42 43  1  0
 43 44  1  0
 41 45  1  0
 45 46  1  0
 46 47  1  0
 47 48  1  0
 48 49  1  0
 49 50  1  0
 50 51  2  0
 51 52  1  0
 52 53  2  0
 53 54  1  0
 54 55  1  0
 55 56  1  0
 54 57  2  0
 49 58  2  0
 58 59  1  0
 59 60  1  0
 60 61  1  0
 61 62  1  0
 62 63  1  0
 63 64  1  0
 64 65  1  0
 65 66  1  0
 66 67  1  0
 67 68  1  0
 65 69  1  0
 69 70  1  0
 62 71  1  0
 71 72  1  0
 58 73  1  0
 73 74  2  0
 74 75  1  0
 75 76  1  0
 76 77  1  0
 77 78  1  0
 75 79  2  0
 79 80  1  0
 79 81  1  0
 81 82  2  3
 82 83  1  0
 83 84  2  0
 83 85  1  0
 85 86  2  0
 86 87  1  0
 87 88  2  0
 88 89  1  0
 88 90  1  0
 90 91  2  0
 91 92  1  0
 92 93  2  3
 93 94  1  0
 94 95  3  0
 93 96  1  0
 96 97  3  0
 12  2  1  0
 25 18  1  0
 68 26  1  0
 80 73  1  0
 92 82  1  0
 11  5  1  0
 35 28  1  0
 67 36  2  0
 91 85  1  0
 66 38  2  0
 64 39  2  0
 44 40  2  0
 63 45  2  0
 61 46  2  0
 60 48  2  0
 57 50  1  0
  1 98  1  0
  6 99  1  0
  7100  1  0
 10101  1  0
 19102  1  0
 22103  1  0
 22104  1  0
 23105  1  0
 23106  1  0
 23107  1  0
 29108  1  0
 30109  1  0
 31110  1  0
 33111  1  0
 33112  1  0
 34113  1  0
 34114  1  0
 34115  1  0
 35116  1  0
 51117  1  0
 52118  1  0
 53119  1  0
 55120  1  0
 55121  1  0
 56122  1  0
 56123  1  0
 56124  1  0
 57125  1  0
 69126  1  0
 69127  1  0
 70128  1  0
 70129  1  0
 70130  1  0
 71131  1  0
 71132  1  0
 72133  1  0
 72134  1  0
 72135  1  0
 74136  1  0
 77137  1  0
 77138  1  0
 78139  1  0
 78140  1  0
 78141  1  0
 81142  1  0
 86143  1  0
 87144  1  0
 90145  1  0
M  END

