
     RDKit          3D

145160  0  0  0  0  0  0  0  0999 V2000
   -4.8458    4.3240   -6.8629 C   0  0  0  0  0  0  0  0  0  0  0  0
   -5.8837    4.8461   -6.1824 C   0  0  0  0  0  0  0  0  0  0  0  0
   -6.1907    4.5874   -4.7682 C   0  0  0  0  0  0  0  0  0  0  0  0
   -5.3954    4.1516   -3.8897 O   0  0  0  0  0  0  0  0  0  0  0  0
   -7.5920    4.8738   -4.5530 C   0  0  0  0  0  0  0  0  0  0  0  0
   -8.3530    4.6217   -3.4129 C   0  0  0  0  0  0  0  0  0  0  0  0
   -9.7298    4.8699   -3.4663 C   0  0  0  0  0  0  0  0  0  0  0  0
  -10.3267    5.3381   -4.6557 C   0  0  0  0  0  0  0  0  0  0  0  0
  -12.0615    5.5897   -4.7252 Cl  0  0  0  0  0  0  0  0  0  0  0  0
   -9.5386    5.5721   -5.7976 C   0  0  0  0  0  0  0  0  0  0  0  0
   -8.1513    5.3622   -5.7226 C   0  0  0  0  0  0  0  0  0  0  0  0
   -7.1002    5.4872   -6.7662 C   0  0  0  0  0  0  0  0  0  0  0  0
   -7.1515    6.2538   -7.8848 C   0  0  0  0  0  0  0  0  0  0  0  0
   -5.9946    6.4750   -8.7150 C   0  0  0  0  0  0  0  0  0  0  0  0
   -5.0643    6.6604   -9.3822 N   0  0  0  0  0  0  0  0  0  0  0  0
   -8.3169    7.0252   -8.2329 C   0  0  0  0  0  0  0  0  0  0  0  0
   -9.2433    7.6565   -8.5193 N   0  0  0  0  0  0  0  0  0  0  0  0
   -3.7815    3.5588   -6.2065 C   0  0  0  0  0  0  0  0  0  0  0  0
   -2.8018    4.0662   -5.3671 C   0  0  0  0  0  0  0  0  0  0  0  0
   -1.9408    3.0803   -4.8646 C   0  0  0  0  0  0  0  0  0  0  0  0
   -0.5625    3.5253   -3.8002 S   0  0  0  0  0  0  0  0  0  0  0  0
   -1.5302    3.5055   -2.2457 C   0  0  0  0  0  0  0  0  0  0  0  0
   -1.5275    2.1182   -1.6267 C   0  0  0  0  0  0  0  0  0  0  0  0
   -2.2561    1.7831   -5.3052 C   0  0  0  0  0  0  0  0  0  0  0  0
   -3.5805    1.9005   -6.3386 S   0  0  0  0  0  0  0  0  0  0  0  0
   -1.5333    0.5185   -5.0244 C   0  0  0  0  0  0  0  0  0  0  0  0
   -2.0464   -0.7889   -5.1771 C   0  0  0  0  0  0  0  0  0  0  0  0
   -3.4766   -1.1215   -5.2877 C   0  0  0  0  0  0  0  0  0  0  0  0
   -3.9554   -1.8610   -6.3753 C   0  0  0  0  0  0  0  0  0  0  0  0
   -5.3236   -2.1196   -6.5010 C   0  0  0  0  0  0  0  0  0  0  0  0
   -6.2148   -1.6665   -5.5269 C   0  0  0  0  0  0  0  0  0  0  0  0
   -5.7421   -0.9532   -4.4110 C   0  0  0  0  0  0  0  0  0  0  0  0
   -6.7036   -0.4577   -3.3593 C   0  0  0  0  0  0  0  0  0  0  0  0
   -7.0619    1.0079   -3.5959 C   0  0  0  0  0  0  0  0  0  0  0  0
   -4.3702   -0.6782   -4.2946 C   0  0  0  0  0  0  0  0  0  0  0  0
   -1.0582   -1.7502   -4.9473 C   0  0  0  0  0  0  0  0  0  0  0  0
   -1.0948   -3.4432   -4.7927 S   0  0  0  0  0  0  0  0  0  0  0  0
    0.5265   -3.4825   -4.2830 C   0  0  0  0  0  0  0  0  0  0  0  0
    1.2280   -4.3128   -3.4592 C   0  0  0  0  0  0  0  0  0  0  0  0
    0.8625   -5.5686   -2.9577 C   0  0  0  0  0  0  0  0  0  0  0  0
    1.5556   -6.0853   -1.8251 C   0  0  0  0  0  0  0  0  0  0  0  0
    1.1073   -7.2625   -1.3088 N   0  0  0  0  0  0  0  0  0  0  0  0
   -0.1532   -7.5583   -2.3419 S   0  0  0  0  0  0  0  0  0  0  0  0
   -0.1936   -6.2937   -3.4143 N   0  0  0  0  0  0  0  0  0  0  0  0
    2.6099   -5.3433   -1.2866 C   0  0  0  0  0  0  0  0  0  0  0  0
    3.2954   -5.5036   -0.1086 C   0  0  0  0  0  0  0  0  0  0  0  0
    2.8381   -6.2086    1.3581 S   0  0  0  0  0  0  0  0  0  0  0  0
    3.6031   -4.9803    2.2499 C   0  0  0  0  0  0  0  0  0  0  0  0
    3.3700   -4.5284    3.5492 C   0  0  0  0  0  0  0  0  0  0  0  0
    2.8043   -5.3557    4.6344 C   0  0  0  0  0  0  0  0  0  0  0  0
    1.5967   -6.0570    4.4720 C   0  0  0  0  0  0  0  0  0  0  0  0
    1.0923   -6.8390    5.5163 C   0  0  0  0  0  0  0  0  0  0  0  0
    1.7854   -6.9210    6.7295 C   0  0  0  0  0  0  0  0  0  0  0  0
    2.9929   -6.2257    6.9037 C   0  0  0  0  0  0  0  0  0  0  0  0
    3.7261   -6.2814    8.2177 C   0  0  0  0  0  0  0  0  0  0  0  0
    3.3654   -5.0755    9.0814 C   0  0  0  0  0  0  0  0  0  0  0  0
    3.4894   -5.4376    5.8567 C   0  0  0  0  0  0  0  0  0  0  0  0
    3.7319   -3.1736    3.6919 C   0  0  0  0  0  0  0  0  0  0  0  0
    4.3454   -2.5901    2.2171 S   0  0  0  0  0  0  0  0  0  0  0  0
    4.1857   -4.0533    1.4174 C   0  0  0  0  0  0  0  0  0  0  0  0
    4.0232   -4.3567    0.0712 C   0  0  0  0  0  0  0  0  0  0  0  0
    3.8966   -3.5006   -0.9684 N   0  0  0  0  0  0  0  0  0  0  0  0
    2.9732   -4.0840   -1.7881 C   0  0  0  0  0  0  0  0  0  0  0  0
    2.2111   -3.5138   -2.8493 C   0  0  0  0  0  0  0  0  0  0  0  0
    2.0556   -2.1899   -3.2153 N   0  0  0  0  0  0  0  0  0  0  0  0
    1.0524   -2.2319   -4.1366 C   0  0  0  0  0  0  0  0  0  0  0  0
    0.1552   -1.2528   -4.5535 C   0  0  0  0  0  0  0  0  0  0  0  0
    0.0941    0.4183   -4.5317 S   0  0  0  0  0  0  0  0  0  0  0  0
    2.3169   -1.0095   -2.3810 C   0  0  0  0  0  0  0  0  0  0  0  0
    3.2606   -0.0227   -3.0758 C   0  0  0  0  0  0  0  0  0  0  0  0
    4.9776   -2.5861   -1.3615 C   0  0  0  0  0  0  0  0  0  0  0  0
    6.2921   -3.3401   -1.6084 C   0  0  0  0  0  0  0  0  0  0  0  0
    3.2344   -2.2812    4.7503 C   0  0  0  0  0  0  0  0  0  0  0  0
    1.9518   -2.3321    5.2849 C   0  0  0  0  0  0  0  0  0  0  0  0
    1.6631   -1.2719    6.1464 C   0  0  0  0  0  0  0  0  0  0  0  0
    0.0854   -1.1499    7.0042 S   0  0  0  0  0  0  0  0  0  0  0  0
   -0.7045   -0.0299    5.7972 C   0  0  0  0  0  0  0  0  0  0  0  0
   -1.1245   -0.7707    4.5327 C   0  0  0  0  0  0  0  0  0  0  0  0
    2.7072   -0.3566    6.2802 C   0  0  0  0  0  0  0  0  0  0  0  0
    4.0061   -0.9097    5.3456 S   0  0  0  0  0  0  0  0  0  0  0  0
    2.7182    0.7691    7.2302 C   0  0  0  0  0  0  0  0  0  0  0  0
    3.5150    1.8510    7.1707 C   0  0  0  0  0  0  0  0  0  0  0  0
    3.8414    2.6386    8.3605 C   0  0  0  0  0  0  0  0  0  0  0  0
    3.2016    2.6433    9.4491 O   0  0  0  0  0  0  0  0  0  0  0  0
    5.0667    3.3593    8.0965 C   0  0  0  0  0  0  0  0  0  0  0  0
    5.8231    4.1374    8.9739 C   0  0  0  0  0  0  0  0  0  0  0  0
    5.4097    4.3702   10.2432 F   0  0  0  0  0  0  0  0  0  0  0  0
    7.0345    4.6713    8.5128 C   0  0  0  0  0  0  0  0  0  0  0  0
    7.4740    4.4098    7.2038 C   0  0  0  0  0  0  0  0  0  0  0  0
    6.6927    3.6315    6.3344 C   0  0  0  0  0  0  0  0  0  0  0  0
    5.4659    3.1235    6.7909 C   0  0  0  0  0  0  0  0  0  0  0  0
    4.4416    2.3048    6.0916 C   0  0  0  0  0  0  0  0  0  0  0  0
    4.1611    2.3525    4.7644 C   0  0  0  0  0  0  0  0  0  0  0  0
    5.0380    2.9863    3.8147 C   0  0  0  0  0  0  0  0  0  0  0  0
    5.7339    3.4904    3.0381 N   0  0  0  0  0  0  0  0  0  0  0  0
    2.8882    1.9268    4.2331 C   0  0  0  0  0  0  0  0  0  0  0  0
    1.8738    1.5869    3.7911 N   0  0  0  0  0  0  0  0  0  0  0  0
   -4.8438    4.3250   -7.9398 H   0  0  0  0  0  0  0  0  0  0  0  0
   -7.8945    4.2213   -2.5147 H   0  0  0  0  0  0  0  0  0  0  0  0
  -10.3435    4.6668   -2.5972 H   0  0  0  0  0  0  0  0  0  0  0  0
  -10.0201    5.8683   -6.7150 H   0  0  0  0  0  0  0  0  0  0  0  0
   -2.7164    5.1213   -5.1329 H   0  0  0  0  0  0  0  0  0  0  0  0
   -1.0455    4.2150   -1.5379 H   0  0  0  0  0  0  0  0  0  0  0  0
   -2.5726    3.8507   -2.4221 H   0  0  0  0  0  0  0  0  0  0  0  0
   -0.4839    1.7491   -1.4934 H   0  0  0  0  0  0  0  0  0  0  0  0
   -2.0837    1.4031   -2.2716 H   0  0  0  0  0  0  0  0  0  0  0  0
   -2.0219    2.1540   -0.6327 H   0  0  0  0  0  0  0  0  0  0  0  0
   -3.2736   -2.2137   -7.1378 H   0  0  0  0  0  0  0  0  0  0  0  0
   -5.6949   -2.6746   -7.3542 H   0  0  0  0  0  0  0  0  0  0  0  0
   -7.2746   -1.8661   -5.6361 H   0  0  0  0  0  0  0  0  0  0  0  0
   -6.2481   -0.5676   -2.3499 H   0  0  0  0  0  0  0  0  0  0  0  0
   -7.6360   -1.0675   -3.3678 H   0  0  0  0  0  0  0  0  0  0  0  0
   -6.1558    1.6374   -3.4933 H   0  0  0  0  0  0  0  0  0  0  0  0
   -7.8135    1.3301   -2.8411 H   0  0  0  0  0  0  0  0  0  0  0  0
   -7.4861    1.1453   -4.6142 H   0  0  0  0  0  0  0  0  0  0  0  0
   -4.0006   -0.1149   -3.4415 H   0  0  0  0  0  0  0  0  0  0  0  0
    1.0334   -5.9854    3.5524 H   0  0  0  0  0  0  0  0  0  0  0  0
    0.1659   -7.3826    5.3857 H   0  0  0  0  0  0  0  0  0  0  0  0
    1.3780   -7.5279    7.5326 H   0  0  0  0  0  0  0  0  0  0  0  0
    4.8219   -6.2934    8.0388 H   0  0  0  0  0  0  0  0  0  0  0  0
    3.4763   -7.2145    8.7661 H   0  0  0  0  0  0  0  0  0  0  0  0
    3.9802   -5.0890   10.0100 H   0  0  0  0  0  0  0  0  0  0  0  0
    2.2904   -5.1160    9.3606 H   0  0  0  0  0  0  0  0  0  0  0  0
    3.5725   -4.1329    8.5307 H   0  0  0  0  0  0  0  0  0  0  0  0
    4.4191   -4.8949    5.9906 H   0  0  0  0  0  0  0  0  0  0  0  0
    2.7230   -1.2957   -1.3945 H   0  0  0  0  0  0  0  0  0  0  0  0
    1.3635   -0.4929   -2.1363 H   0  0  0  0  0  0  0  0  0  0  0  0
    2.6990    0.6771   -3.7220 H   0  0  0  0  0  0  0  0  0  0  0  0
    3.9959   -0.5553   -3.7207 H   0  0  0  0  0  0  0  0  0  0  0  0
    3.8086    0.5700   -2.3176 H   0  0  0  0  0  0  0  0  0  0  0  0
    4.7344   -2.0834   -2.3102 H   0  0  0  0  0  0  0  0  0  0  0  0
    5.1401   -1.8174   -0.5699 H   0  0  0  0  0  0  0  0  0  0  0  0
    7.0567   -2.6250   -1.9744 H   0  0  0  0  0  0  0  0  0  0  0  0
    6.6548   -3.7926   -0.6646 H   0  0  0  0  0  0  0  0  0  0  0  0
    6.1352   -4.1284   -2.3800 H   0  0  0  0  0  0  0  0  0  0  0  0
    1.2241   -3.0903    5.0327 H   0  0  0  0  0  0  0  0  0  0  0  0
   -0.0263    0.8114    5.5413 H   0  0  0  0  0  0  0  0  0  0  0  0
   -1.6093    0.3979    6.2738 H   0  0  0  0  0  0  0  0  0  0  0  0
   -1.7344   -1.6644    4.7896 H   0  0  0  0  0  0  0  0  0  0  0  0
   -1.7339   -0.1008    3.8942 H   0  0  0  0  0  0  0  0  0  0  0  0
   -0.2373   -1.0942    3.9498 H   0  0  0  0  0  0  0  0  0  0  0  0
    2.1172    0.6419    8.1194 H   0  0  0  0  0  0  0  0  0  0  0  0
    7.6444    5.2759    9.1725 H   0  0  0  0  0  0  0  0  0  0  0  0
    8.4229    4.8094    6.8589 H   0  0  0  0  0  0  0  0  0  0  0  0
    7.0690    3.4096    5.3453 H   0  0  0  0  0  0  0  0  0  0  0  0
  1  2  2  3
  2  3  1  0
  3  4  2  0
  3  5  1  0
  5  6  2  0
  6  7  1  0
  7  8  2  0
  8  9  1  0
  8 10  1  0
 10 11  2  0
 11 12  1  0
 12 13  2  3
 13 14  1  0
 14 15  3  0
 13 16  1  0
 16 17  3  0
  1 18  1  0
 18 19  2  0
 19 20  1  0
 20 21  1  0
 21 22  1  0
 22 23  1  0
 20 24  2  0
 24 25  1  0
 24 26  1  0
 26 27  2  0
 27 28  1  0
 28 29  2  0
 29 30  1  0
 30 31  2  0
 31 32  1  0
 32 33  1  0
 33 34  1  0
 32 35  2  0
 27 36  1  0
 36 37  1  0
 37 38  1  0
 38 39  1  0
 39 40  1  0
 40 41  1  0
 41 42  2  0
 42 43  1  0
 43 44  1  0
 41 45  1  0
 45 46  1  0
 46 47  1  0
 47 48  1  0
 48 49  1  0
 49 50  1  0
 50 51  2  0
 51 52  1  0
 52 53  2  0
 53 54  1  0
 54 55  1  0
 55 56  1  0
 54 57  2  0
 49 58  2  0
 58 59  1  0
 59 60  1  0
 60 61  1  0
 61 62  1  0
 62 63  1  0
 63 64  1  0
 64 65  1  0
 65 66  1  0
 66 67  1  0
 67 68  1  0
 65 69  1  0
 69 70  1  0
 62 71  1  0
 71 72  1  0
 58 73  1  0
 73 74  2  0
 74 75  1  0
 75 76  1  0
 76 77  1  0
 77 78  1  0
 75 79  2  0
 79 80  1  0
 79 81  1  0
 81 82  2  3
 82 83  1  0
 83 84  2  0
 83 85  1  0
 85 86  2  0
 86 87  1  0
 86 88  1  0
 88 89  2  0
 89 90  1  0
 90 91  2  0
 91 92  1  0
 92 93  2  3
 93 94  1  0
 94 95  3  0
 93 96  1  0
 96 97  3  0
 12  2  1  0
 25 18  1  0
 68 26  1  0
 80 73  1  0
 92 82  1  0
 11  5  1  0
 35 28  1  0
 67 36  2  0
 91 85  1  0
 66 38  2  0
 64 39  2  0
 44 40  2  0
 63 45  2  0
 61 46  2  0
 60 48  2  0
 57 50  1  0
  1 98  1  0
  6 99  1  0
  7100  1  0
 10101  1  0
 19102  1  0
 22103  1  0
 22104  1  0
 23105  1  0
 23106  1  0
 23107  1  0
 29108  1  0
 30109  1  0
 31110  1  0
 33111  1  0
 33112  1  0
 34113  1  0
 34114  1  0
 34115  1  0
 35116  1  0
 51117  1  0
 52118  1  0
 53119  1  0
 55120  1  0
 55121  1  0
 56122  1  0
 56123  1  0
 56124  1  0
 57125  1  0
 69126  1  0
 69127  1  0
 70128  1  0
 70129  1  0
 70130  1  0
 71131  1  0
 71132  1  0
 72133  1  0
 72134  1  0
 72135  1  0
 74136  1  0
 77137  1  0
 77138  1  0
 78139  1  0
 78140  1  0
 78141  1  0
 81142  1  0
 88143  1  0
 89144  1  0
 90145  1  0
M  END

