
     RDKit          3D

165183  0  0  0  0  0  0  0  0999 V2000
   -8.4767    0.5747   -6.0550 C   0  0  0  0  0  0  0  0  0  0  0  0
   -9.1740   -0.1647   -5.1708 C   0  0  0  0  0  0  0  0  0  0  0  0
   -9.7797   -1.4802   -5.4215 C   0  0  0  0  0  0  0  0  0  0  0  0
   -9.6919   -2.1603   -6.4784 O   0  0  0  0  0  0  0  0  0  0  0  0
  -10.6735   -1.7856   -4.3251 C   0  0  0  0  0  0  0  0  0  0  0  0
  -11.5119   -2.8907   -4.1777 C   0  0  0  0  0  0  0  0  0  0  0  0
  -12.3791   -2.9307   -3.0777 C   0  0  0  0  0  0  0  0  0  0  0  0
  -12.4196   -1.8573   -2.1664 C   0  0  0  0  0  0  0  0  0  0  0  0
  -13.5436   -1.8970   -0.8212 Cl  0  0  0  0  0  0  0  0  0  0  0  0
  -11.5739   -0.7482   -2.3404 C   0  0  0  0  0  0  0  0  0  0  0  0
  -10.6713   -0.7396   -3.4175 C   0  0  0  0  0  0  0  0  0  0  0  0
   -9.6764    0.2880   -3.8365 C   0  0  0  0  0  0  0  0  0  0  0  0
   -9.1244    1.2496   -3.0465 C   0  0  0  0  0  0  0  0  0  0  0  0
   -9.5205    1.4441   -1.6762 C   0  0  0  0  0  0  0  0  0  0  0  0
   -9.8162    1.5971   -0.5703 N   0  0  0  0  0  0  0  0  0  0  0  0
   -7.9742    2.0214   -3.4482 C   0  0  0  0  0  0  0  0  0  0  0  0
   -7.0486    2.6433   -3.7619 N   0  0  0  0  0  0  0  0  0  0  0  0
   -7.7147    0.0437   -7.2052 C   0  0  0  0  0  0  0  0  0  0  0  0
   -6.9401   -1.4763   -7.2424 S   0  0  0  0  0  0  0  0  0  0  0  0
   -5.9795   -1.1111   -8.5620 C   0  0  0  0  0  0  0  0  0  0  0  0
   -4.6799   -1.4324   -8.8427 C   0  0  0  0  0  0  0  0  0  0  0  0
   -4.0937   -0.2933   -9.3191 C   0  0  0  0  0  0  0  0  0  0  0  0
   -4.9865    0.7322   -9.4100 N   0  0  0  0  0  0  0  0  0  0  0  0
   -4.6741    2.1585   -9.5445 C   0  0  0  0  0  0  0  0  0  0  0  0
   -5.5081    2.7796  -10.6600 C   0  0  0  0  0  0  0  0  0  0  0  0
   -6.1345    0.2068   -8.8995 C   0  0  0  0  0  0  0  0  0  0  0  0
   -7.1236    0.8762   -8.1649 C   0  0  0  0  0  0  0  0  0  0  0  0
   -2.7173   -0.2121   -9.0709 C   0  0  0  0  0  0  0  0  0  0  0  0
   -2.2544   -1.3341   -8.3723 C   0  0  0  0  0  0  0  0  0  0  0  0
   -3.5650   -2.3468   -7.9973 S   0  0  0  0  0  0  0  0  0  0  0  0
   -1.0339   -1.3406   -7.5653 C   0  0  0  0  0  0  0  0  0  0  0  0
    0.2054   -1.9230   -7.9003 C   0  0  0  0  0  0  0  0  0  0  0  0
    0.5504   -2.5194   -9.2056 C   0  0  0  0  0  0  0  0  0  0  0  0
   -0.3068   -3.4366   -9.8361 C   0  0  0  0  0  0  0  0  0  0  0  0
    0.0299   -3.9731  -11.0826 C   0  0  0  0  0  0  0  0  0  0  0  0
    1.2193   -3.5972  -11.7126 C   0  0  0  0  0  0  0  0  0  0  0  0
    2.0964   -2.6985  -11.0853 C   0  0  0  0  0  0  0  0  0  0  0  0
    3.3556   -2.2544  -11.7758 C   0  0  0  0  0  0  0  0  0  0  0  0
    3.1242   -0.9449  -12.5248 C   0  0  0  0  0  0  0  0  0  0  0  0
    1.7536   -2.1617   -9.8348 C   0  0  0  0  0  0  0  0  0  0  0  0
    1.0811   -1.8611   -6.8119 C   0  0  0  0  0  0  0  0  0  0  0  0
    2.6060   -2.5659   -6.4896 S   0  0  0  0  0  0  0  0  0  0  0  0
    2.5242   -2.0543   -4.8724 C   0  0  0  0  0  0  0  0  0  0  0  0
    3.2544   -2.1073   -3.7218 C   0  0  0  0  0  0  0  0  0  0  0  0
    4.5325   -2.6078   -3.4549 C   0  0  0  0  0  0  0  0  0  0  0  0
    5.0545   -2.4824   -2.1329 C   0  0  0  0  0  0  0  0  0  0  0  0
    6.2889   -2.9954   -1.9067 N   0  0  0  0  0  0  0  0  0  0  0  0
    6.6377   -3.5559   -3.4256 S   0  0  0  0  0  0  0  0  0  0  0  0
    5.3247   -3.2103   -4.3753 N   0  0  0  0  0  0  0  0  0  0  0  0
    4.2529   -1.8940   -1.1487 C   0  0  0  0  0  0  0  0  0  0  0  0
    4.3991   -1.8399    0.2082 C   0  0  0  0  0  0  0  0  0  0  0  0
    5.4973   -2.3111    1.4186 S   0  0  0  0  0  0  0  0  0  0  0  0
    4.3856   -1.8802    2.6474 C   0  0  0  0  0  0  0  0  0  0  0  0
    4.4278   -1.8375    4.0517 C   0  0  0  0  0  0  0  0  0  0  0  0
    5.5623   -2.2975    4.8839 C   0  0  0  0  0  0  0  0  0  0  0  0
    6.8892   -2.0138    4.5175 C   0  0  0  0  0  0  0  0  0  0  0  0
    7.9504   -2.4597    5.3113 C   0  0  0  0  0  0  0  0  0  0  0  0
    7.7012   -3.1850    6.4762 C   0  0  0  0  0  0  0  0  0  0  0  0
    6.3833   -3.4794    6.8565 C   0  0  0  0  0  0  0  0  0  0  0  0
    6.1119   -4.1704    8.1653 C   0  0  0  0  0  0  0  0  0  0  0  0
    5.9262   -3.1526    9.2877 C   0  0  0  0  0  0  0  0  0  0  0  0
    5.3185   -3.0274    6.0603 C   0  0  0  0  0  0  0  0  0  0  0  0
    3.2154   -1.3190    4.5634 C   0  0  0  0  0  0  0  0  0  0  0  0
    2.1492   -0.9545    3.2889 S   0  0  0  0  0  0  0  0  0  0  0  0
    3.2039   -1.4466    2.0973 C   0  0  0  0  0  0  0  0  0  0  0  0
    3.2216   -1.4113    0.7134 C   0  0  0  0  0  0  0  0  0  0  0  0
    2.2765   -1.1900   -0.2351 N   0  0  0  0  0  0  0  0  0  0  0  0
    2.9499   -1.4249   -1.4108 C   0  0  0  0  0  0  0  0  0  0  0  0
    2.4705   -1.4619   -2.7499 C   0  0  0  0  0  0  0  0  0  0  0  0
    1.3304   -0.9315   -3.3061 N   0  0  0  0  0  0  0  0  0  0  0  0
    1.3902   -1.3703   -4.5888 C   0  0  0  0  0  0  0  0  0  0  0  0
    0.5686   -1.2468   -5.6959 C   0  0  0  0  0  0  0  0  0  0  0  0
   -1.0080   -0.7673   -5.9645 S   0  0  0  0  0  0  0  0  0  0  0  0
    0.6825    0.3354   -2.9269 C   0  0  0  0  0  0  0  0  0  0  0  0
   -0.8314    0.1781   -2.7439 C   0  0  0  0  0  0  0  0  0  0  0  0
    0.8343   -1.3060    0.0238 C   0  0  0  0  0  0  0  0  0  0  0  0
    0.3346   -2.7167   -0.2707 C   0  0  0  0  0  0  0  0  0  0  0  0
    2.9560   -0.7817    5.9147 C   0  0  0  0  0  0  0  0  0  0  0  0
    3.6664    0.3567    6.3445 C   0  0  0  0  0  0  0  0  0  0  0  0
    4.9577    0.5778    5.8372 O   0  0  0  0  0  0  0  0  0  0  0  0
    6.0636    1.0923    6.5908 C   0  0  0  0  0  0  0  0  0  0  0  0
    6.3312    0.2502    7.8357 C   0  0  0  0  0  0  0  0  0  0  0  0
    3.0431    1.2657    7.2292 C   0  0  0  0  0  0  0  0  0  0  0  0
    3.5706    2.5448    7.4281 O   0  0  0  0  0  0  0  0  0  0  0  0
    3.5747    3.5097    6.3776 C   0  0  0  0  0  0  0  0  0  0  0  0
    4.2234    4.7949    6.8637 C   0  0  0  0  0  0  0  0  0  0  0  0
    1.8261    0.9304    7.8498 C   0  0  0  0  0  0  0  0  0  0  0  0
    1.2144   -0.3034    7.5584 C   0  0  0  0  0  0  0  0  0  0  0  0
    1.7687   -1.1468    6.5739 C   0  0  0  0  0  0  0  0  0  0  0  0
    1.1154   -2.2960    6.2406 N   0  0  0  0  0  0  0  0  0  0  0  0
   -0.0459   -2.6511    6.8471 C   0  0  0  0  0  0  0  0  0  0  0  0
   -0.5991   -1.8138    7.8158 C   0  0  0  0  0  0  0  0  0  0  0  0
    0.0329   -0.6551    8.1367 N   0  0  0  0  0  0  0  0  0  0  0  0
    1.0608    2.0000    8.5245 C   0  0  0  0  0  0  0  0  0  0  0  0
    0.6404    1.9623    9.8014 C   0  0  0  0  0  0  0  0  0  0  0  0
    0.8590    0.8624   10.7427 C   0  0  0  0  0  0  0  0  0  0  0  0
    1.7252   -0.0492   10.6405 O   0  0  0  0  0  0  0  0  0  0  0  0
   -0.0928    0.9967   11.8229 C   0  0  0  0  0  0  0  0  0  0  0  0
   -0.3259    0.1210   12.8812 C   0  0  0  0  0  0  0  0  0  0  0  0
   -1.3623    0.4154   13.7779 C   0  0  0  0  0  0  0  0  0  0  0  0
   -2.1605    1.5578   13.5828 C   0  0  0  0  0  0  0  0  0  0  0  0
   -3.4869    1.8981   14.6836 Cl  0  0  0  0  0  0  0  0  0  0  0  0
   -1.9105    2.4280   12.5104 C   0  0  0  0  0  0  0  0  0  0  0  0
   -0.8433    2.1484   11.6409 C   0  0  0  0  0  0  0  0  0  0  0  0
   -0.3518    2.8818   10.4376 C   0  0  0  0  0  0  0  0  0  0  0  0
   -0.6187    4.1713   10.0943 C   0  0  0  0  0  0  0  0  0  0  0  0
    0.1391    4.8757    9.0929 C   0  0  0  0  0  0  0  0  0  0  0  0
    0.7485    5.4545    8.2958 N   0  0  0  0  0  0  0  0  0  0  0  0
   -1.5714    4.9812   10.8012 C   0  0  0  0  0  0  0  0  0  0  0  0
   -2.3420    5.6455   11.3528 N   0  0  0  0  0  0  0  0  0  0  0  0
   -8.3936    1.6391   -5.8961 H   0  0  0  0  0  0  0  0  0  0  0  0
  -11.5110   -3.6945   -4.9017 H   0  0  0  0  0  0  0  0  0  0  0  0
  -13.0369   -3.7823   -2.9433 H   0  0  0  0  0  0  0  0  0  0  0  0
  -11.6647    0.0852   -1.6630 H   0  0  0  0  0  0  0  0  0  0  0  0
   -3.6036    2.3030   -9.8060 H   0  0  0  0  0  0  0  0  0  0  0  0
   -4.8713    2.6838   -8.5834 H   0  0  0  0  0  0  0  0  0  0  0  0
   -6.5904    2.7255  -10.4120 H   0  0  0  0  0  0  0  0  0  0  0  0
   -5.2274    3.8460  -10.7929 H   0  0  0  0  0  0  0  0  0  0  0  0
   -5.3230    2.2371  -11.6161 H   0  0  0  0  0  0  0  0  0  0  0  0
   -7.2646    1.9500   -8.1800 H   0  0  0  0  0  0  0  0  0  0  0  0
   -2.1224    0.6830   -9.1988 H   0  0  0  0  0  0  0  0  0  0  0  0
   -1.2263   -3.7512   -9.3608 H   0  0  0  0  0  0  0  0  0  0  0  0
   -0.6329   -4.6843  -11.5623 H   0  0  0  0  0  0  0  0  0  0  0  0
    1.4598   -4.0109  -12.6854 H   0  0  0  0  0  0  0  0  0  0  0  0
    4.1660   -2.1093  -11.0298 H   0  0  0  0  0  0  0  0  0  0  0  0
    3.7003   -3.0309  -12.4925 H   0  0  0  0  0  0  0  0  0  0  0  0
    4.0682   -0.6187  -13.0100 H   0  0  0  0  0  0  0  0  0  0  0  0
    2.7916   -0.1525  -11.8214 H   0  0  0  0  0  0  0  0  0  0  0  0
    2.3509   -1.0837  -13.3095 H   0  0  0  0  0  0  0  0  0  0  0  0
    2.4104   -1.4438   -9.3643 H   0  0  0  0  0  0  0  0  0  0  0  0
    7.1042   -1.4317    3.6310 H   0  0  0  0  0  0  0  0  0  0  0  0
    8.9693   -2.2303    5.0250 H   0  0  0  0  0  0  0  0  0  0  0  0
    8.5333   -3.5052    7.0908 H   0  0  0  0  0  0  0  0  0  0  0  0
    5.1947   -4.7909    8.0838 H   0  0  0  0  0  0  0  0  0  0  0  0
    6.9533   -4.8495    8.4248 H   0  0  0  0  0  0  0  0  0  0  0  0
    6.8509   -2.5495    9.4143 H   0  0  0  0  0  0  0  0  0  0  0  0
    5.0776   -2.4717    9.0561 H   0  0  0  0  0  0  0  0  0  0  0  0
    5.7095   -3.6811   10.2404 H   0  0  0  0  0  0  0  0  0  0  0  0
    4.3029   -3.2502    6.3605 H   0  0  0  0  0  0  0  0  0  0  0  0
    1.1488    0.7527   -2.0120 H   0  0  0  0  0  0  0  0  0  0  0  0
    0.8722    1.0956   -3.7177 H   0  0  0  0  0  0  0  0  0  0  0  0
   -1.1116   -0.8887   -2.6149 H   0  0  0  0  0  0  0  0  0  0  0  0
   -1.1679    0.7468   -1.8545 H   0  0  0  0  0  0  0  0  0  0  0  0
   -1.3735    0.5978   -3.6116 H   0  0  0  0  0  0  0  0  0  0  0  0
    0.6044   -1.0693    1.0781 H   0  0  0  0  0  0  0  0  0  0  0  0
    0.2586   -0.5762   -0.5440 H   0  0  0  0  0  0  0  0  0  0  0  0
    0.8866   -3.4547    0.3491 H   0  0  0  0  0  0  0  0  0  0  0  0
   -0.7463   -2.7874   -0.0337 H   0  0  0  0  0  0  0  0  0  0  0  0
    0.4770   -2.9632   -1.3446 H   0  0  0  0  0  0  0  0  0  0  0  0
    6.9670    1.0625    5.9458 H   0  0  0  0  0  0  0  0  0  0  0  0
    5.9092    2.1467    6.8842 H   0  0  0  0  0  0  0  0  0  0  0  0
    7.2254    0.6370    8.3689 H   0  0  0  0  0  0  0  0  0  0  0  0
    6.5265   -0.7979    7.5421 H   0  0  0  0  0  0  0  0  0  0  0  0
    5.4650    0.2851    8.5269 H   0  0  0  0  0  0  0  0  0  0  0  0
    4.1358    3.1258    5.4989 H   0  0  0  0  0  0  0  0  0  0  0  0
    2.5316    3.7249    6.0650 H   0  0  0  0  0  0  0  0  0  0  0  0
    5.2636    4.5969    7.1991 H   0  0  0  0  0  0  0  0  0  0  0  0
    4.2536    5.5336    6.0362 H   0  0  0  0  0  0  0  0  0  0  0  0
    3.6446    5.2235    7.7096 H   0  0  0  0  0  0  0  0  0  0  0  0
   -0.5409   -3.5737    6.5717 H   0  0  0  0  0  0  0  0  0  0  0  0
   -1.5278   -2.0780    8.3048 H   0  0  0  0  0  0  0  0  0  0  0  0
    0.7595    2.8093    7.8736 H   0  0  0  0  0  0  0  0  0  0  0  0
    0.2729   -0.7720   13.0083 H   0  0  0  0  0  0  0  0  0  0  0  0
   -1.5633   -0.2545   14.6064 H   0  0  0  0  0  0  0  0  0  0  0  0
   -2.5631    3.2701   12.3665 H   0  0  0  0  0  0  0  0  0  0  0  0
  1  2  2  3
  2  3  1  0
  3  4  2  0
  3  5  1  0
  5  6  2  0
  6  7  1  0
  7  8  2  0
  8  9  1  0
  8 10  1  0
 10 11  2  0
 11 12  1  0
 12 13  2  3
 13 14  1  0
 14 15  3  0
 13 16  1  0
 16 17  3  0
  1 18  1  0
 18 19  1  0
 19 20  1  0
 20 21  1  0
 21 22  2  0
 22 23  1  0
 23 24  1  0
 24 25  1  0
 23 26  1  0
 26 27  1  0
 22 28  1  0
 28 29  2  0
 29 30  1  0
 29 31  1  0
 31 32  2  0
 32 33  1  0
 33 34  2  0
 34 35  1  0
 35 36  2  0
 36 37  1  0
 37 38  1  0
 38 39  1  0
 37 40  2  0
 32 41  1  0
 41 42  1  0
 42 43  1  0
 43 44  1  0
 44 45  1  0
 45 46  1  0
 46 47  2  0
 47 48  1  0
 48 49  1  0
 46 50  1  0
 50 51  1  0
 51 52  1  0
 52 53  1  0
 53 54  1  0
 54 55  1  0
 55 56  2  0
 56 57  1  0
 57 58  2  0
 58 59  1  0
 59 60  1  0
 60 61  1  0
 59 62  2  0
 54 63  2  0
 63 64  1  0
 64 65  1  0
 65 66  1  0
 66 67  1  0
 67 68  1  0
 68 69  1  0
 69 70  1  0
 70 71  1  0
 71 72  1  0
 72 73  1  0
 70 74  1  0
 74 75  1  0
 67 76  1  0
 76 77  1  0
 63 78  1  0
 78 79  2  0
 79 80  1  0
 80 81  1  0
 81 82  1  0
 79 83  1  0
 83 84  1  0
 84 85  1  0
 85 86  1  0
 83 87  2  0
 87 88  1  0
 88 89  2  0
 89 90  1  0
 90 91  2  0
 91 92  1  0
 92 93  2  0
 87 94  1  0
 94 95  2  3
 95 96  1  0
 96 97  2  0
 96 98  1  0
 98 99  2  0
 99100  1  0
100101  2  0
101102  1  0
101103  1  0
103104  2  0
104105  1  0
105106  2  3
106107  1  0
107108  3  0
106109  1  0
109110  3  0
 12  2  1  0
 27 18  2  0
 73 31  1  0
 89 78  1  0
105 95  1  0
 11  5  1  0
 26 20  2  0
 40 33  1  0
 72 41  2  0
 93 88  1  0
104 98  1  0
 30 21  1  0
 71 43  2  0
 69 44  2  0
 49 45  2  0
 68 50  2  0
 66 51  2  0
 65 53  2  0
 62 55  1  0
  1111  1  0
  6112  1  0
  7113  1  0
 10114  1  0
 24115  1  0
 24116  1  0
 25117  1  0
 25118  1  0
 25119  1  0
 27120  1  0
 28121  1  0
 34122  1  0
 35123  1  0
 36124  1  0
 38125  1  0
 38126  1  0
 39127  1  0
 39128  1  0
 39129  1  0
 40130  1  0
 56131  1  0
 57132  1  0
 58133  1  0
 60134  1  0
 60135  1  0
 61136  1  0
 61137  1  0
 61138  1  0
 62139  1  0
 74140  1  0
 74141  1  0
 75142  1  0
 75143  1  0
 75144  1  0
 76145  1  0
 76146  1  0
 77147  1  0
 77148  1  0
 77149  1  0
 81150  1  0
 81151  1  0
 82152  1  0
 82153  1  0
 82154  1  0
 85155  1  0
 85156  1  0
 86157  1  0
 86158  1  0
 86159  1  0
 91160  1  0
 92161  1  0
 94162  1  0
 99163  1  0
100164  1  0
103165  1  0
M  END

