
     RDKit          3D

178196  0  0  0  0  0  0  0  0999 V2000
    6.5157    7.1570   -0.0817 C   0  0  0  0  0  0  0  0  0  0  0  0
    7.6583    6.4873   -0.3584 C   0  0  0  0  0  0  0  0  0  0  0  0
    8.2860    5.3920    0.3968 C   0  0  0  0  0  0  0  0  0  0  0  0
    8.3696    5.2880    1.6487 O   0  0  0  0  0  0  0  0  0  0  0  0
    9.0034    4.5479   -0.5375 C   0  0  0  0  0  0  0  0  0  0  0  0
    9.5841    3.2975   -0.3135 C   0  0  0  0  0  0  0  0  0  0  0  0
   10.1491    2.6172   -1.4014 C   0  0  0  0  0  0  0  0  0  0  0  0
   10.0990    3.1801   -2.6914 C   0  0  0  0  0  0  0  0  0  0  0  0
   10.7466    2.2873   -4.0573 Cl  0  0  0  0  0  0  0  0  0  0  0  0
    9.5035    4.4377   -2.8920 C   0  0  0  0  0  0  0  0  0  0  0  0
    8.9831    5.1293   -1.7878 C   0  0  0  0  0  0  0  0  0  0  0  0
    8.3019    6.4474   -1.7097 C   0  0  0  0  0  0  0  0  0  0  0  0
    8.4558    7.4856   -2.5663 C   0  0  0  0  0  0  0  0  0  0  0  0
    7.9588    8.8091   -2.2734 C   0  0  0  0  0  0  0  0  0  0  0  0
    7.5685    9.8786   -2.0390 N   0  0  0  0  0  0  0  0  0  0  0  0
    9.2823    7.3878   -3.7408 C   0  0  0  0  0  0  0  0  0  0  0  0
    9.9505    7.3287   -4.6818 N   0  0  0  0  0  0  0  0  0  0  0  0
    5.6102    7.0056    1.0832 C   0  0  0  0  0  0  0  0  0  0  0  0
    5.7033    5.8743    2.3576 S   0  0  0  0  0  0  0  0  0  0  0  0
    4.2314    6.2978    3.0198 C   0  0  0  0  0  0  0  0  0  0  0  0
    3.2558    5.6279    3.7023 C   0  0  0  0  0  0  0  0  0  0  0  0
    2.0681    6.1621    3.2937 C   0  0  0  0  0  0  0  0  0  0  0  0
    2.2519    7.1598    2.3870 N   0  0  0  0  0  0  0  0  0  0  0  0
    1.2285    7.7998    1.5571 C   0  0  0  0  0  0  0  0  0  0  0  0
    0.7239    9.0651    2.2350 C   0  0  0  0  0  0  0  0  0  0  0  0
    3.6017    7.2132    2.2326 C   0  0  0  0  0  0  0  0  0  0  0  0
    4.3548    7.6458    1.1381 C   0  0  0  0  0  0  0  0  0  0  0  0
    0.9656    5.3178    3.4518 C   0  0  0  0  0  0  0  0  0  0  0  0
    1.3606    4.0695    3.9634 C   0  0  0  0  0  0  0  0  0  0  0  0
    3.0549    4.0367    4.1786 S   0  0  0  0  0  0  0  0  0  0  0  0
    0.5085    2.8736    4.0117 C   0  0  0  0  0  0  0  0  0  0  0  0
    0.9435    1.5881    4.3356 C   0  0  0  0  0  0  0  0  0  0  0  0
   -0.0415    0.6245    4.1274 C   0  0  0  0  0  0  0  0  0  0  0  0
    0.1539   -0.7474    4.2684 O   0  0  0  0  0  0  0  0  0  0  0  0
   -0.9439   -1.6788    4.3311 C   0  0  0  0  0  0  0  0  0  0  0  0
   -0.4557   -3.0133    3.7558 C   0  0  0  0  0  0  0  0  0  0  0  0
   -0.8924   -4.2559    4.2742 C   0  0  0  0  0  0  0  0  0  0  0  0
   -0.6468   -5.4437    3.5852 C   0  0  0  0  0  0  0  0  0  0  0  0
    0.0277   -5.4244    2.3575 C   0  0  0  0  0  0  0  0  0  0  0  0
    0.2252   -6.7020    1.5805 C   0  0  0  0  0  0  0  0  0  0  0  0
    1.5492   -7.3621    1.9439 C   0  0  0  0  0  0  0  0  0  0  0  0
    0.5102   -4.2071    1.8561 C   0  0  0  0  0  0  0  0  0  0  0  0
    0.2667   -3.0144    2.5430 C   0  0  0  0  0  0  0  0  0  0  0  0
   -1.3061   -1.8064    5.8133 C   0  0  0  0  0  0  0  0  0  0  0  0
   -0.2898   -2.1464    6.7257 C   0  0  0  0  0  0  0  0  0  0  0  0
   -0.5575   -2.2706    8.0889 C   0  0  0  0  0  0  0  0  0  0  0  0
   -1.8535   -2.0577    8.5755 C   0  0  0  0  0  0  0  0  0  0  0  0
   -2.1290   -2.1325   10.0518 C   0  0  0  0  0  0  0  0  0  0  0  0
   -1.7642   -0.8169   10.7296 C   0  0  0  0  0  0  0  0  0  0  0  0
   -2.8758   -1.7007    7.6824 C   0  0  0  0  0  0  0  0  0  0  0  0
   -2.6111   -1.5858    6.3129 C   0  0  0  0  0  0  0  0  0  0  0  0
   -2.1304   -1.1704    3.4743 C   0  0  0  0  0  0  0  0  0  0  0  0
   -2.3007    0.2108    3.2210 C   0  0  0  0  0  0  0  0  0  0  0  0
   -1.2419    1.1224    3.6739 C   0  0  0  0  0  0  0  0  0  0  0  0
   -1.0986    2.7883    3.4779 S   0  0  0  0  0  0  0  0  0  0  0  0
   -3.3579    0.6605    2.4108 C   0  0  0  0  0  0  0  0  0  0  0  0
   -4.2030   -0.2616    1.7580 C   0  0  0  0  0  0  0  0  0  0  0  0
   -4.0312   -1.6395    2.0295 C   0  0  0  0  0  0  0  0  0  0  0  0
   -3.0608   -2.0722    2.9315 C   0  0  0  0  0  0  0  0  0  0  0  0
   -4.7900   -2.6107    1.2436 C   0  0  0  0  0  0  0  0  0  0  0  0
   -4.2799   -4.1330    0.7673 S   0  0  0  0  0  0  0  0  0  0  0  0
   -5.3215   -4.2672   -0.5551 C   0  0  0  0  0  0  0  0  0  0  0  0
   -6.1089   -3.1112   -0.6142 C   0  0  0  0  0  0  0  0  0  0  0  0
   -5.7551   -2.1868    0.3703 C   0  0  0  0  0  0  0  0  0  0  0  0
   -6.1494   -0.8484    0.3921 O   0  0  0  0  0  0  0  0  0  0  0  0
   -5.1644    0.1799    0.6208 C   0  0  0  0  0  0  0  0  0  0  0  0
   -4.4223    0.3501   -0.7202 C   0  0  0  0  0  0  0  0  0  0  0  0
   -5.1711    0.3052   -1.9160 C   0  0  0  0  0  0  0  0  0  0  0  0
   -4.5478    0.3637   -3.1641 C   0  0  0  0  0  0  0  0  0  0  0  0
   -3.1567    0.4994   -3.2502 C   0  0  0  0  0  0  0  0  0  0  0  0
   -2.4848    0.5708   -4.5951 C   0  0  0  0  0  0  0  0  0  0  0  0
   -2.4363    2.0108   -5.0964 C   0  0  0  0  0  0  0  0  0  0  0  0
   -2.4039    0.6141   -2.0729 C   0  0  0  0  0  0  0  0  0  0  0  0
   -3.0223    0.5394   -0.8218 C   0  0  0  0  0  0  0  0  0  0  0  0
   -5.9165    1.4429    1.0347 C   0  0  0  0  0  0  0  0  0  0  0  0
   -6.8407    1.3657    2.0939 C   0  0  0  0  0  0  0  0  0  0  0  0
   -7.5836    2.4839    2.4807 C   0  0  0  0  0  0  0  0  0  0  0  0
   -7.4255    3.7048    1.8102 C   0  0  0  0  0  0  0  0  0  0  0  0
   -8.2447    4.9041    2.2054 C   0  0  0  0  0  0  0  0  0  0  0  0
   -7.4400    5.8413    3.1018 C   0  0  0  0  0  0  0  0  0  0  0  0
   -6.4760    3.8057    0.7817 C   0  0  0  0  0  0  0  0  0  0  0  0
   -5.7210    2.6931    0.4017 C   0  0  0  0  0  0  0  0  0  0  0  0
   -5.0056   -5.1244   -1.7054 C   0  0  0  0  0  0  0  0  0  0  0  0
   -5.0522   -4.5530   -3.3177 S   0  0  0  0  0  0  0  0  0  0  0  0
   -4.0609   -5.7679   -3.8980 C   0  0  0  0  0  0  0  0  0  0  0  0
   -3.0989   -5.8251   -4.8688 C   0  0  0  0  0  0  0  0  0  0  0  0
   -2.1246   -6.6495   -4.4020 C   0  0  0  0  0  0  0  0  0  0  0  0
   -2.4116   -7.1212   -3.1614 N   0  0  0  0  0  0  0  0  0  0  0  0
   -1.4912   -7.7800   -2.2295 C   0  0  0  0  0  0  0  0  0  0  0  0
   -1.7160   -9.2850   -2.2539 C   0  0  0  0  0  0  0  0  0  0  0  0
   -3.6138   -6.5526   -2.8725 C   0  0  0  0  0  0  0  0  0  0  0  0
   -4.1462   -6.2327   -1.6237 C   0  0  0  0  0  0  0  0  0  0  0  0
   -0.8974   -6.5215   -5.0451 C   0  0  0  0  0  0  0  0  0  0  0  0
   -0.9641   -5.5264   -6.0243 C   0  0  0  0  0  0  0  0  0  0  0  0
   -2.5019   -4.7821   -6.0336 S   0  0  0  0  0  0  0  0  0  0  0  0
    0.1625   -5.1178   -6.8653 C   0  0  0  0  0  0  0  0  0  0  0  0
    0.9723   -4.0879   -6.5702 C   0  0  0  0  0  0  0  0  0  0  0  0
    0.8828   -3.1867   -5.4161 C   0  0  0  0  0  0  0  0  0  0  0  0
    0.0490   -3.2460   -4.4745 O   0  0  0  0  0  0  0  0  0  0  0  0
    1.9584   -2.2224   -5.5278 C   0  0  0  0  0  0  0  0  0  0  0  0
    2.3328   -1.2375   -4.6137 C   0  0  0  0  0  0  0  0  0  0  0  0
    3.4817   -0.4825   -4.8771 C   0  0  0  0  0  0  0  0  0  0  0  0
    4.2392   -0.7286   -6.0339 C   0  0  0  0  0  0  0  0  0  0  0  0
    3.8452   -1.7215   -6.9659 C   0  0  0  0  0  0  0  0  0  0  0  0
    4.5728   -1.9651   -8.1419 O   0  0  0  0  0  0  0  0  0  0  0  0
    5.7821   -1.3075   -8.5041 C   0  0  0  0  0  0  0  0  0  0  0  0
    2.6821   -2.4687   -6.6890 C   0  0  0  0  0  0  0  0  0  0  0  0
    2.1064   -3.6406   -7.4137 C   0  0  0  0  0  0  0  0  0  0  0  0
    2.8810   -4.5118   -8.0830 C   0  0  0  0  0  0  0  0  0  0  0  0
    3.4100   -5.6665   -7.3977 C   0  0  0  0  0  0  0  0  0  0  0  0
    3.8747   -6.5439   -6.8054 N   0  0  0  0  0  0  0  0  0  0  0  0
    3.4095   -4.1870   -9.3784 C   0  0  0  0  0  0  0  0  0  0  0  0
    3.8262   -3.9346  -10.4279 N   0  0  0  0  0  0  0  0  0  0  0  0
    6.1233    7.8027   -0.8487 H   0  0  0  0  0  0  0  0  0  0  0  0
    9.5830    2.8537    0.6767 H   0  0  0  0  0  0  0  0  0  0  0  0
   10.5888    1.6405   -1.2495 H   0  0  0  0  0  0  0  0  0  0  0  0
    9.4191    4.8192   -3.8955 H   0  0  0  0  0  0  0  0  0  0  0  0
    0.3787    7.1055    1.3866 H   0  0  0  0  0  0  0  0  0  0  0  0
    1.6395    8.0582    0.5596 H   0  0  0  0  0  0  0  0  0  0  0  0
    1.5305    9.8269    2.2708 H   0  0  0  0  0  0  0  0  0  0  0  0
   -0.1408    9.4741    1.6730 H   0  0  0  0  0  0  0  0  0  0  0  0
    0.3932    8.8332    3.2686 H   0  0  0  0  0  0  0  0  0  0  0  0
    3.9721    8.2795    0.3530 H   0  0  0  0  0  0  0  0  0  0  0  0
   -0.0230    5.5264    3.0704 H   0  0  0  0  0  0  0  0  0  0  0  0
    1.9464    1.3512    4.6570 H   0  0  0  0  0  0  0  0  0  0  0  0
   -1.4888   -4.3078    5.1768 H   0  0  0  0  0  0  0  0  0  0  0  0
   -1.0172   -6.3772    3.9898 H   0  0  0  0  0  0  0  0  0  0  0  0
    0.2052   -6.4923    0.4906 H   0  0  0  0  0  0  0  0  0  0  0  0
   -0.6069   -7.4091    1.7934 H   0  0  0  0  0  0  0  0  0  0  0  0
    2.3986   -6.7147    1.6440 H   0  0  0  0  0  0  0  0  0  0  0  0
    1.6364   -8.3331    1.4140 H   0  0  0  0  0  0  0  0  0  0  0  0
    1.5984   -7.5526    3.0387 H   0  0  0  0  0  0  0  0  0  0  0  0
    1.0458   -4.1750    0.9151 H   0  0  0  0  0  0  0  0  0  0  0  0
    0.5913   -2.0823    2.1000 H   0  0  0  0  0  0  0  0  0  0  0  0
    0.7237   -2.3196    6.3764 H   0  0  0  0  0  0  0  0  0  0  0  0
    0.2486   -2.5247    8.7659 H   0  0  0  0  0  0  0  0  0  0  0  0
   -3.2045   -2.3553   10.2346 H   0  0  0  0  0  0  0  0  0  0  0  0
   -1.5418   -2.9597   10.5073 H   0  0  0  0  0  0  0  0  0  0  0  0
   -0.6722   -0.6392   10.6620 H   0  0  0  0  0  0  0  0  0  0  0  0
   -2.0531   -0.8577   11.8026 H   0  0  0  0  0  0  0  0  0  0  0  0
   -2.3055    0.0298   10.2540 H   0  0  0  0  0  0  0  0  0  0  0  0
   -3.8788   -1.5111    8.0431 H   0  0  0  0  0  0  0  0  0  0  0  0
   -3.4300   -1.3106    5.6627 H   0  0  0  0  0  0  0  0  0  0  0  0
   -3.4491    1.7141    2.1798 H   0  0  0  0  0  0  0  0  0  0  0  0
   -2.9872   -3.1313    3.1376 H   0  0  0  0  0  0  0  0  0  0  0  0
   -6.7606   -2.8633   -1.4439 H   0  0  0  0  0  0  0  0  0  0  0  0
   -6.2460    0.1974   -1.8840 H   0  0  0  0  0  0  0  0  0  0  0  0
   -5.1511    0.3008   -4.0630 H   0  0  0  0  0  0  0  0  0  0  0  0
   -3.0330   -0.0596   -5.3300 H   0  0  0  0  0  0  0  0  0  0  0  0
   -1.4497    0.1711   -4.5273 H   0  0  0  0  0  0  0  0  0  0  0  0
   -1.9155    2.0449   -6.0774 H   0  0  0  0  0  0  0  0  0  0  0  0
   -3.4668    2.4079   -5.2293 H   0  0  0  0  0  0  0  0  0  0  0  0
   -1.8828    2.6520   -4.3785 H   0  0  0  0  0  0  0  0  0  0  0  0
   -1.3264    0.7522   -2.1252 H   0  0  0  0  0  0  0  0  0  0  0  0
   -2.3908    0.6129    0.0481 H   0  0  0  0  0  0  0  0  0  0  0  0
   -6.9895    0.4295    2.6186 H   0  0  0  0  0  0  0  0  0  0  0  0
   -8.2890    2.3931    3.2957 H   0  0  0  0  0  0  0  0  0  0  0  0
   -9.1666    4.5894    2.7457 H   0  0  0  0  0  0  0  0  0  0  0  0
   -8.5678    5.4559    1.2925 H   0  0  0  0  0  0  0  0  0  0  0  0
   -7.1100    5.3134    4.0216 H   0  0  0  0  0  0  0  0  0  0  0  0
   -8.0736    6.7043    3.3982 H   0  0  0  0  0  0  0  0  0  0  0  0
   -6.5519    6.2257    2.5558 H   0  0  0  0  0  0  0  0  0  0  0  0
   -6.3219    4.7488    0.2723 H   0  0  0  0  0  0  0  0  0  0  0  0
   -4.9950    2.8208   -0.3911 H   0  0  0  0  0  0  0  0  0  0  0  0
   -1.6416   -7.4026   -1.1975 H   0  0  0  0  0  0  0  0  0  0  0  0
   -0.4393   -7.5630   -2.5011 H   0  0  0  0  0  0  0  0  0  0  0  0
   -2.7711   -9.5171   -1.9851 H   0  0  0  0  0  0  0  0  0  0  0  0
   -1.5075   -9.6858   -3.2670 H   0  0  0  0  0  0  0  0  0  0  0  0
   -1.0362   -9.7746   -1.5245 H   0  0  0  0  0  0  0  0  0  0  0  0
   -3.7891   -6.6441   -0.6933 H   0  0  0  0  0  0  0  0  0  0  0  0
    0.0077   -7.0476   -4.7687 H   0  0  0  0  0  0  0  0  0  0  0  0
    0.3415   -5.6912   -7.7684 H   0  0  0  0  0  0  0  0  0  0  0  0
    1.7629   -1.0703   -3.7074 H   0  0  0  0  0  0  0  0  0  0  0  0
    3.7982    0.2858   -4.1788 H   0  0  0  0  0  0  0  0  0  0  0  0
    5.1245   -0.1372   -6.2021 H   0  0  0  0  0  0  0  0  0  0  0  0
    6.5829   -1.5582   -7.7721 H   0  0  0  0  0  0  0  0  0  0  0  0
    5.6223   -0.2083   -8.5415 H   0  0  0  0  0  0  0  0  0  0  0  0
    6.0885   -1.6531   -9.5145 H   0  0  0  0  0  0  0  0  0  0  0  0
  1  2  2  3
  2  3  1  0
  3  4  2  0
  3  5  1  0
  5  6  2  0
  6  7  1  0
  7  8  2  0
  8  9  1  0
  8 10  1  0
 10 11  2  0
 11 12  1  0
 12 13  2  3
 13 14  1  0
 14 15  3  0
 13 16  1  0
 16 17  3  0
  1 18  1  0
 18 19  1  0
 19 20  1  0
 20 21  1  0
 21 22  2  0
 22 23  1  0
 23 24  1  0
 24 25  1  0
 23 26  1  0
 26 27  1  0
 22 28  1  0
 28 29  2  0
 29 30  1  0
 29 31  1  0
 31 32  2  0
 32 33  1  0
 33 34  1  0
 34 35  1  0
 35 36  1  0
 36 37  2  0
 37 38  1  0
 38 39  2  0
 39 40  1  0
 40 41  1  0
 39 42  1  0
 42 43  2  0
 35 44  1  0
 44 45  2  0
 45 46  1  0
 46 47  2  0
 47 48  1  0
 48 49  1  0
 47 50  1  0
 50 51  2  0
 35 52  1  0
 52 53  2  0
 53 54  1  0
 54 55  1  0
 53 56  1  0
 56 57  2  0
 57 58  1  0
 58 59  2  0
 58 60  1  0
 60 61  1  0
 61 62  1  0
 62 63  2  0
 63 64  1  0
 64 65  1  0
 65 66  1  0
 66 67  1  0
 67 68  2  0
 68 69  1  0
 69 70  2  0
 70 71  1  0
 71 72  1  0
 70 73  1  0
 73 74  2  0
 66 75  1  0
 75 76  2  0
 76 77  1  0
 77 78  2  0
 78 79  1  0
 79 80  1  0
 78 81  1  0
 81 82  2  0
 62 83  1  0
 83 84  1  0
 84 85  1  0
 85 86  1  0
 86 87  2  0
 87 88  1  0
 88 89  1  0
 89 90  1  0
 88 91  1  0
 91 92  1  0
 87 93  1  0
 93 94  2  0
 94 95  1  0
 94 96  1  0
 96 97  2  3
 97 98  1  0
 98 99  2  0
 98100  1  0
100101  2  0
101102  1  0
102103  2  0
103104  1  0
104105  1  0
105106  1  0
104107  2  0
107108  1  0
108109  2  3
109110  1  0
110111  3  0
109112  1  0
112113  3  0
 12  2  1  0
 27 18  2  0
 55 31  1  0
 66 57  1  0
 74 67  1  0
 82 75  1  0
 92 83  2  0
108 97  1  0
 11  5  1  0
 26 20  2  0
 54 33  2  0
 64 60  2  0
 91 85  2  0
107100  1  0
 30 21  1  0
 43 36  1  0
 51 44  1  0
 59 52  1  0
 95 86  1  0
  1114  1  0
  6115  1  0
  7116  1  0
 10117  1  0
 24118  1  0
 24119  1  0
 25120  1  0
 25121  1  0
 25122  1  0
 27123  1  0
 28124  1  0
 32125  1  0
 37126  1  0
 38127  1  0
 40128  1  0
 40129  1  0
 41130  1  0
 41131  1  0
 41132  1  0
 42133  1  0
 43134  1  0
 45135  1  0
 46136  1  0
 48137  1  0
 48138  1  0
 49139  1  0
 49140  1  0
 49141  1  0
 50142  1  0
 51143  1  0
 56144  1  0
 59145  1  0
 63146  1  0
 68147  1  0
 69148  1  0
 71149  1  0
 71150  1  0
 72151  1  0
 72152  1  0
 72153  1  0
 73154  1  0
 74155  1  0
 76156  1  0
 77157  1  0
 79158  1  0
 79159  1  0
 80160  1  0
 80161  1  0
 80162  1  0
 81163  1  0
 82164  1  0
 89165  1  0
 89166  1  0
 90167  1  0
 90168  1  0
 90169  1  0
 92170  1  0
 93171  1  0
 96172  1  0
101173  1  0
102174  1  0
103175  1  0
106176  1  0
106177  1  0
106178  1  0
M  END

