
     RDKit          3D

145162  0  0  0  0  0  0  0  0999 V2000
   -7.6366    1.6948   -2.7485 C   0  0  0  0  0  0  0  0  0  0  0  0
   -8.1447    1.4866   -1.5149 C   0  0  0  0  0  0  0  0  0  0  0  0
   -8.2563    0.2050   -0.8027 C   0  0  0  0  0  0  0  0  0  0  0  0
   -8.4789   -0.9232   -1.3168 O   0  0  0  0  0  0  0  0  0  0  0  0
   -8.2320    0.4764    0.6194 C   0  0  0  0  0  0  0  0  0  0  0  0
   -8.1047   -0.4291    1.6714 C   0  0  0  0  0  0  0  0  0  0  0  0
   -7.9661    0.0775    2.9721 C   0  0  0  0  0  0  0  0  0  0  0  0
   -7.9333    1.4671    3.1933 C   0  0  0  0  0  0  0  0  0  0  0  0
   -7.7038    2.0892    4.8178 Cl  0  0  0  0  0  0  0  0  0  0  0  0
   -8.0629    2.3603    2.1167 C   0  0  0  0  0  0  0  0  0  0  0  0
   -8.2470    1.8446    0.8257 C   0  0  0  0  0  0  0  0  0  0  0  0
   -8.3624    2.5418   -0.4823 C   0  0  0  0  0  0  0  0  0  0  0  0
   -8.8217    3.8021   -0.6855 C   0  0  0  0  0  0  0  0  0  0  0  0
   -9.1728    4.2831   -1.9972 C   0  0  0  0  0  0  0  0  0  0  0  0
   -9.4729    4.6788   -3.0442 N   0  0  0  0  0  0  0  0  0  0  0  0
   -9.2202    4.6560    0.4031 C   0  0  0  0  0  0  0  0  0  0  0  0
   -9.5697    5.3376    1.2693 N   0  0  0  0  0  0  0  0  0  0  0  0
   -6.9888    0.6794   -3.6065 C   0  0  0  0  0  0  0  0  0  0  0  0
   -6.4941    0.9114   -4.8866 C   0  0  0  0  0  0  0  0  0  0  0  0
   -6.4941    2.0432   -5.8105 C   0  0  0  0  0  0  0  0  0  0  0  0
   -7.1687    3.0991   -5.6915 O   0  0  0  0  0  0  0  0  0  0  0  0
   -5.5847    1.7827   -6.8878 N   0  0  0  0  0  0  0  0  0  0  0  0
   -5.1862    2.7132   -7.9338 C   0  0  0  0  0  0  0  0  0  0  0  0
   -4.9995    0.5095   -6.5858 C   0  0  0  0  0  0  0  0  0  0  0  0
   -4.0914   -0.0375   -7.2646 O   0  0  0  0  0  0  0  0  0  0  0  0
   -5.5895   -0.0147   -5.3603 C   0  0  0  0  0  0  0  0  0  0  0  0
   -5.3184   -1.0690   -4.5067 C   0  0  0  0  0  0  0  0  0  0  0  0
   -6.2135   -0.7499   -3.1096 S   0  0  0  0  0  0  0  0  0  0  0  0
   -4.2109   -2.0274   -4.5746 C   0  0  0  0  0  0  0  0  0  0  0  0
   -4.2899   -3.3709   -4.1660 C   0  0  0  0  0  0  0  0  0  0  0  0
   -5.5582   -4.0942   -3.9423 C   0  0  0  0  0  0  0  0  0  0  0  0
   -5.7979   -4.7749   -2.7391 C   0  0  0  0  0  0  0  0  0  0  0  0
   -7.0099   -5.4393   -2.5383 C   0  0  0  0  0  0  0  0  0  0  0  0
   -7.9899   -5.4326   -3.5359 C   0  0  0  0  0  0  0  0  0  0  0  0
   -7.7676   -4.7478   -4.7400 C   0  0  0  0  0  0  0  0  0  0  0  0
   -8.8021   -4.7679   -5.8353 C   0  0  0  0  0  0  0  0  0  0  0  0
   -8.4655   -5.8279   -6.8811 C   0  0  0  0  0  0  0  0  0  0  0  0
   -6.5493   -4.0796   -4.9363 C   0  0  0  0  0  0  0  0  0  0  0  0
   -3.0150   -3.9132   -3.9778 C   0  0  0  0  0  0  0  0  0  0  0  0
   -2.4559   -5.3551   -3.2683 S   0  0  0  0  0  0  0  0  0  0  0  0
   -0.8449   -4.8218   -3.3410 C   0  0  0  0  0  0  0  0  0  0  0  0
    0.2621   -5.0385   -2.5654 C   0  0  0  0  0  0  0  0  0  0  0  0
    0.4505   -5.9378   -1.5033 C   0  0  0  0  0  0  0  0  0  0  0  0
    1.5141   -5.7023   -0.5806 C   0  0  0  0  0  0  0  0  0  0  0  0
    1.6281   -6.5591    0.4639 N   0  0  0  0  0  0  0  0  0  0  0  0
    0.3457   -7.5588    0.1424 S   0  0  0  0  0  0  0  0  0  0  0  0
   -0.3654   -6.9892   -1.2423 N   0  0  0  0  0  0  0  0  0  0  0  0
    2.3609   -4.6140   -0.8034 C   0  0  0  0  0  0  0  0  0  0  0  0
    3.4216   -4.1185   -0.1055 C   0  0  0  0  0  0  0  0  0  0  0  0
    4.0964   -4.2615    1.4445 S   0  0  0  0  0  0  0  0  0  0  0  0
    5.0331   -2.8563    1.1850 C   0  0  0  0  0  0  0  0  0  0  0  0
    5.7357   -2.0271    2.0627 C   0  0  0  0  0  0  0  0  0  0  0  0
    5.9132   -2.3207    3.4904 C   0  0  0  0  0  0  0  0  0  0  0  0
    7.1473   -2.7872    3.9616 C   0  0  0  0  0  0  0  0  0  0  0  0
    7.3257   -3.0382    5.3243 C   0  0  0  0  0  0  0  0  0  0  0  0
    6.2713   -2.8337    6.2200 C   0  0  0  0  0  0  0  0  0  0  0  0
    5.0240   -2.3873    5.7551 C   0  0  0  0  0  0  0  0  0  0  0  0
    3.8989   -2.1356    6.7213 C   0  0  0  0  0  0  0  0  0  0  0  0
    3.9098   -0.6846    7.1943 C   0  0  0  0  0  0  0  0  0  0  0  0
    4.8540   -2.1221    4.3870 C   0  0  0  0  0  0  0  0  0  0  0  0
    6.0221   -0.7874    1.4625 C   0  0  0  0  0  0  0  0  0  0  0  0
    5.4058   -0.7616   -0.1234 S   0  0  0  0  0  0  0  0  0  0  0  0
    4.8053   -2.3200   -0.0599 C   0  0  0  0  0  0  0  0  0  0  0  0
    3.8832   -3.0466   -0.7942 C   0  0  0  0  0  0  0  0  0  0  0  0
    3.1853   -2.7917   -1.9312 N   0  0  0  0  0  0  0  0  0  0  0  0
    2.1964   -3.7415   -1.8856 C   0  0  0  0  0  0  0  0  0  0  0  0
    1.0651   -3.8968   -2.7235 C   0  0  0  0  0  0  0  0  0  0  0  0
    0.4107   -2.9405   -3.4607 N   0  0  0  0  0  0  0  0  0  0  0  0
   -0.7370   -3.5600   -3.8457 C   0  0  0  0  0  0  0  0  0  0  0  0
   -1.9780   -3.0475   -4.2156 C   0  0  0  0  0  0  0  0  0  0  0  0
   -2.5807   -1.5436   -4.6514 S   0  0  0  0  0  0  0  0  0  0  0  0
    0.5321   -1.4856   -3.3078 C   0  0  0  0  0  0  0  0  0  0  0  0
   -0.0784   -1.0217   -1.9865 C   0  0  0  0  0  0  0  0  0  0  0  0
    3.8305   -2.3595   -3.1822 C   0  0  0  0  0  0  0  0  0  0  0  0
    4.2013   -0.8761   -3.1751 C   0  0  0  0  0  0  0  0  0  0  0  0
    6.5549    0.4040    2.1363 C   0  0  0  0  0  0  0  0  0  0  0  0
    6.0290    1.6875    2.0928 C   0  0  0  0  0  0  0  0  0  0  0  0
    4.7694    2.2786    1.6529 C   0  0  0  0  0  0  0  0  0  0  0  0
    3.8525    1.6843    1.0273 O   0  0  0  0  0  0  0  0  0  0  0  0
    4.6660    3.6205    2.1443 N   0  0  0  0  0  0  0  0  0  0  0  0
    3.4245    4.3699    2.2855 C   0  0  0  0  0  0  0  0  0  0  0  0
    5.8352    3.8009    2.9528 C   0  0  0  0  0  0  0  0  0  0  0  0
    6.0427    4.8052    3.6838 O   0  0  0  0  0  0  0  0  0  0  0  0
    6.6735    2.6093    2.8780 C   0  0  0  0  0  0  0  0  0  0  0  0
    7.7748    2.1300    3.5741 C   0  0  0  0  0  0  0  0  0  0  0  0
    7.8701    0.4758    3.2086 S   0  0  0  0  0  0  0  0  0  0  0  0
    8.5540    2.8222    4.6092 C   0  0  0  0  0  0  0  0  0  0  0  0
    9.0636    4.0608    4.4632 C   0  0  0  0  0  0  0  0  0  0  0  0
    9.2361    4.7756    3.1897 C   0  0  0  0  0  0  0  0  0  0  0  0
    8.7832    4.4195    2.0707 O   0  0  0  0  0  0  0  0  0  0  0  0
   10.1382    5.8939    3.4054 C   0  0  0  0  0  0  0  0  0  0  0  0
   10.5285    5.9089    4.7363 C   0  0  0  0  0  0  0  0  0  0  0  0
   11.5092    6.8167    5.1632 C   0  0  0  0  0  0  0  0  0  0  0  0
   12.0297    7.7427    4.2470 C   0  0  0  0  0  0  0  0  0  0  0  0
   11.5959    7.7526    2.9110 C   0  0  0  0  0  0  0  0  0  0  0  0
   12.3484    9.0466    1.7140 Br  0  0  0  0  0  0  0  0  0  0  0  0
   10.6465    6.8094    2.4711 C   0  0  0  0  0  0  0  0  0  0  0  0
   10.1143    6.7801    0.7929 Cl  0  0  0  0  0  0  0  0  0  0  0  0
    9.8090    4.8452    5.4920 C   0  0  0  0  0  0  0  0  0  0  0  0
    9.6429    4.7746    6.8389 C   0  0  0  0  0  0  0  0  0  0  0  0
    8.7002    3.8714    7.4470 C   0  0  0  0  0  0  0  0  0  0  0  0
    7.9400    3.1482    7.9381 N   0  0  0  0  0  0  0  0  0  0  0  0
   10.2774    5.6905    7.7493 C   0  0  0  0  0  0  0  0  0  0  0  0
   10.7781    6.4213    8.4928 N   0  0  0  0  0  0  0  0  0  0  0  0
   -7.5402    2.7081   -3.1013 H   0  0  0  0  0  0  0  0  0  0  0  0
   -8.0848   -1.4960    1.4883 H   0  0  0  0  0  0  0  0  0  0  0  0
   -7.8527   -0.6072    3.8040 H   0  0  0  0  0  0  0  0  0  0  0  0
   -7.9733    3.4190    2.2946 H   0  0  0  0  0  0  0  0  0  0  0  0
   -4.5753    3.5300   -7.4921 H   0  0  0  0  0  0  0  0  0  0  0  0
   -6.0896    3.1488   -8.4102 H   0  0  0  0  0  0  0  0  0  0  0  0
   -4.5880    2.1885   -8.7099 H   0  0  0  0  0  0  0  0  0  0  0  0
   -5.0567   -4.7740   -1.9501 H   0  0  0  0  0  0  0  0  0  0  0  0
   -7.1928   -5.9568   -1.6066 H   0  0  0  0  0  0  0  0  0  0  0  0
   -8.9206   -5.9603   -3.3677 H   0  0  0  0  0  0  0  0  0  0  0  0
   -9.8091   -4.9827   -5.4143 H   0  0  0  0  0  0  0  0  0  0  0  0
   -8.8532   -3.7686   -6.3227 H   0  0  0  0  0  0  0  0  0  0  0  0
   -9.2378   -5.8218   -7.6788 H   0  0  0  0  0  0  0  0  0  0  0  0
   -8.4409   -6.8343   -6.4126 H   0  0  0  0  0  0  0  0  0  0  0  0
   -7.4757   -5.6150   -7.3431 H   0  0  0  0  0  0  0  0  0  0  0  0
   -6.3672   -3.5602   -5.8701 H   0  0  0  0  0  0  0  0  0  0  0  0
    7.9727   -2.9416    3.2774 H   0  0  0  0  0  0  0  0  0  0  0  0
    8.2837   -3.3844    5.6891 H   0  0  0  0  0  0  0  0  0  0  0  0
    6.4282   -3.0192    7.2749 H   0  0  0  0  0  0  0  0  0  0  0  0
    2.9236   -2.3579    6.2369 H   0  0  0  0  0  0  0  0  0  0  0  0
    3.9912   -2.8079    7.6031 H   0  0  0  0  0  0  0  0  0  0  0  0
    4.8681   -0.4542    7.7066 H   0  0  0  0  0  0  0  0  0  0  0  0
    3.7779    0.0041    6.3328 H   0  0  0  0  0  0  0  0  0  0  0  0
    3.0781   -0.5215    7.9106 H   0  0  0  0  0  0  0  0  0  0  0  0
    3.9033   -1.7544    4.0205 H   0  0  0  0  0  0  0  0  0  0  0  0
    0.0406   -0.9671   -4.1565 H   0  0  0  0  0  0  0  0  0  0  0  0
    1.5762   -1.1600   -3.3455 H   0  0  0  0  0  0  0  0  0  0  0  0
    0.0249    0.0782   -1.8891 H   0  0  0  0  0  0  0  0  0  0  0  0
    0.4421   -1.5034   -1.1332 H   0  0  0  0  0  0  0  0  0  0  0  0
   -1.1560   -1.2856   -1.9432 H   0  0  0  0  0  0  0  0  0  0  0  0
    4.7501   -2.9650   -3.3532 H   0  0  0  0  0  0  0  0  0  0  0  0
    3.1677   -2.5667   -4.0502 H   0  0  0  0  0  0  0  0  0  0  0  0
    4.0800   -0.4574   -4.1964 H   0  0  0  0  0  0  0  0  0  0  0  0
    5.2680   -0.7489   -2.8946 H   0  0  0  0  0  0  0  0  0  0  0  0
    3.5620   -0.2985   -2.4764 H   0  0  0  0  0  0  0  0  0  0  0  0
    3.6459    5.4528    2.3852 H   0  0  0  0  0  0  0  0  0  0  0  0
    2.8812    4.0209    3.1890 H   0  0  0  0  0  0  0  0  0  0  0  0
    2.7856    4.2182    1.3911 H   0  0  0  0  0  0  0  0  0  0  0  0
    8.7620    2.2557    5.5030 H   0  0  0  0  0  0  0  0  0  0  0  0
   11.9049    6.8080    6.1635 H   0  0  0  0  0  0  0  0  0  0  0  0
   12.7811    8.4479    4.5774 H   0  0  0  0  0  0  0  0  0  0  0  0
  1  2  2  3
  2  3  1  0
  3  4  2  0
  3  5  1  0
  5  6  2  0
  6  7  1  0
  7  8  2  0
  8  9  1  0
  8 10  1  0
 10 11  2  0
 11 12  1  0
 12 13  2  3
 13 14  1  0
 14 15  3  0
 13 16  1  0
 16 17  3  0
  1 18  1  0
 18 19  2  0
 19 20  1  0
 20 21  2  0
 20 22  1  0
 22 23  1  0
 22 24  1  0
 24 25  2  0
 24 26  1  0
 26 27  2  0
 27 28  1  0
 27 29  1  0
 29 30  2  0
 30 31  1  0
 31 32  2  0
 32 33  1  0
 33 34  2  0
 34 35  1  0
 35 36  1  0
 36 37  1  0
 35 38  2  0
 30 39  1  0
 39 40  1  0
 40 41  1  0
 41 42  1  0
 42 43  1  0
 43 44  1  0
 44 45  2  0
 45 46  1  0
 46 47  1  0
 44 48  1  0
 48 49  1  0
 49 50  1  0
 50 51  1  0
 51 52  1  0
 52 53  1  0
 53 54  2  0
 54 55  1  0
 55 56  2  0
 56 57  1  0
 57 58  1  0
 58 59  1  0
 57 60  2  0
 52 61  2  0
 61 62  1  0
 62 63  1  0
 63 64  1  0
 64 65  1  0
 65 66  1  0
 66 67  1  0
 67 68  1  0
 68 69  1  0
 69 70  1  0
 70 71  1  0
 68 72  1  0
 72 73  1  0
 65 74  1  0
 74 75  1  0
 61 76  1  0
 76 77  2  0
 77 78  1  0
 78 79  2  0
 78 80  1  0
 80 81  1  0
 80 82  1  0
 82 83  2  0
 82 84  1  0
 84 85  2  0
 85 86  1  0
 85 87  1  0
 87 88  2  3
 88 89  1  0
 89 90  2  0
 89 91  1  0
 91 92  2  0
 92 93  1  0
 93 94  2  0
 94 95  1  0
 95 96  1  0
 95 97  2  0
 97 98  1  0
 92 99  1  0
 99100  2  3
100101  1  0
101102  3  0
100103  1  0
103104  3  0
 12  2  1  0
 28 18  1  0
 71 29  1  0
 86 76  1  0
 99 88  1  0
 11  5  1  0
 26 19  1  0
 38 31  1  0
 70 39  2  0
 84 77  1  0
 97 91  1  0
 69 41  2  0
 67 42  2  0
 47 43  2  0
 66 48  2  0
 64 49  2  0
 63 51  2  0
 60 53  1  0
  1105  1  0
  6106  1  0
  7107  1  0
 10108  1  0
 23109  1  0
 23110  1  0
 23111  1  0
 32112  1  0
 33113  1  0
 34114  1  0
 36115  1  0
 36116  1  0
 37117  1  0
 37118  1  0
 37119  1  0
 38120  1  0
 54121  1  0
 55122  1  0
 56123  1  0
 58124  1  0
 58125  1  0
 59126  1  0
 59127  1  0
 59128  1  0
 60129  1  0
 72130  1  0
 72131  1  0
 73132  1  0
 73133  1  0
 73134  1  0
 74135  1  0
 74136  1  0
 75137  1  0
 75138  1  0
 75139  1  0
 81140  1  0
 81141  1  0
 81142  1  0
 87143  1  0
 93144  1  0
 94145  1  0
M  END

