
     RDKit          3D

155173  0  0  0  0  0  0  0  0999 V2000
    0.6294    3.5497   -7.4040 C   0  0  0  0  0  0  0  0  0  0  0  0
   -0.3569    2.6751   -7.6938 C   0  0  0  0  0  0  0  0  0  0  0  0
   -1.4128    2.2227   -6.7539 C   0  0  0  0  0  0  0  0  0  0  0  0
   -1.4834    2.4444   -5.5187 O   0  0  0  0  0  0  0  0  0  0  0  0
   -2.3714    1.4630   -7.5086 C   0  0  0  0  0  0  0  0  0  0  0  0
   -1.9780    1.3831   -8.8163 C   0  0  0  0  0  0  0  0  0  0  0  0
   -2.7453    0.0537   -9.5763 S   0  0  0  0  0  0  0  0  0  0  0  0
   -3.6369   -0.3318   -8.1887 C   0  0  0  0  0  0  0  0  0  0  0  0
   -4.4406   -1.4123   -7.8361 C   0  0  0  0  0  0  0  0  0  0  0  0
   -4.7360   -1.3893   -6.4673 C   0  0  0  0  0  0  0  0  0  0  0  0
   -3.9626   -0.0551   -5.7259 S   0  0  0  0  0  0  0  0  0  0  0  0
   -3.3047    0.5004   -7.1608 C   0  0  0  0  0  0  0  0  0  0  0  0
   -0.6939    2.0789   -9.0328 C   0  0  0  0  0  0  0  0  0  0  0  0
    0.0422    2.0545  -10.1684 C   0  0  0  0  0  0  0  0  0  0  0  0
   -0.4802    1.4736  -11.3766 C   0  0  0  0  0  0  0  0  0  0  0  0
   -0.8881    1.0041  -12.3516 N   0  0  0  0  0  0  0  0  0  0  0  0
    1.4007    2.4969  -10.2230 C   0  0  0  0  0  0  0  0  0  0  0  0
    2.4920    2.8897  -10.2935 N   0  0  0  0  0  0  0  0  0  0  0  0
    0.8863    3.9963   -6.0210 C   0  0  0  0  0  0  0  0  0  0  0  0
    1.3402    3.0837   -5.0357 C   0  0  0  0  0  0  0  0  0  0  0  0
    1.8719    1.8246   -5.3654 O   0  0  0  0  0  0  0  0  0  0  0  0
    2.6767    1.5517   -6.5121 C   0  0  0  0  0  0  0  0  0  0  0  0
    3.5525    0.3415   -6.2412 C   0  0  0  0  0  0  0  0  0  0  0  0
    1.1799    3.4078   -3.6719 C   0  0  0  0  0  0  0  0  0  0  0  0
    1.5038    2.4972   -2.6593 O   0  0  0  0  0  0  0  0  0  0  0  0
    2.7394    1.7879   -2.5823 C   0  0  0  0  0  0  0  0  0  0  0  0
    2.8974    1.2281   -1.1795 C   0  0  0  0  0  0  0  0  0  0  0  0
    0.6597    4.6613   -3.2945 C   0  0  0  0  0  0  0  0  0  0  0  0
    0.3537    5.6154   -4.2739 C   0  0  0  0  0  0  0  0  0  0  0  0
    0.4687    5.2867   -5.6407 C   0  0  0  0  0  0  0  0  0  0  0  0
    0.0884    6.2022   -6.5769 N   0  0  0  0  0  0  0  0  0  0  0  0
   -0.3694    7.4301   -6.2222 C   0  0  0  0  0  0  0  0  0  0  0  0
   -0.4708    7.7591   -4.8705 C   0  0  0  0  0  0  0  0  0  0  0  0
   -0.1147    6.8483   -3.9275 N   0  0  0  0  0  0  0  0  0  0  0  0
    0.3619    4.9141   -1.8768 C   0  0  0  0  0  0  0  0  0  0  0  0
    1.2111    5.5139   -0.9165 C   0  0  0  0  0  0  0  0  0  0  0  0
    2.4785    6.2413   -1.1935 C   0  0  0  0  0  0  0  0  0  0  0  0
    2.7723    7.4178   -0.4810 C   0  0  0  0  0  0  0  0  0  0  0  0
    3.9042    8.1736   -0.7923 C   0  0  0  0  0  0  0  0  0  0  0  0
    4.7548    7.7707   -1.8212 C   0  0  0  0  0  0  0  0  0  0  0  0
    4.4947    6.5916   -2.5308 C   0  0  0  0  0  0  0  0  0  0  0  0
    5.3566    6.2032   -3.7005 C   0  0  0  0  0  0  0  0  0  0  0  0
    4.8206    6.8258   -4.9846 C   0  0  0  0  0  0  0  0  0  0  0  0
    3.3690    5.8219   -2.2002 C   0  0  0  0  0  0  0  0  0  0  0  0
    0.6748    5.3477    0.3692 C   0  0  0  0  0  0  0  0  0  0  0  0
    1.3798    5.4088    1.9301 S   0  0  0  0  0  0  0  0  0  0  0  0
    0.0411    4.6158    2.6082 C   0  0  0  0  0  0  0  0  0  0  0  0
   -0.2412    3.8651    3.7190 C   0  0  0  0  0  0  0  0  0  0  0  0
    0.4210    3.6968    4.9369 C   0  0  0  0  0  0  0  0  0  0  0  0
   -0.0537    2.6936    5.8377 C   0  0  0  0  0  0  0  0  0  0  0  0
    0.6398    2.5322    6.9921 N   0  0  0  0  0  0  0  0  0  0  0  0
    1.8017    3.6946    6.7849 S   0  0  0  0  0  0  0  0  0  0  0  0
    1.5126    4.4024    5.3131 N   0  0  0  0  0  0  0  0  0  0  0  0
   -1.1322    1.8797    5.4503 C   0  0  0  0  0  0  0  0  0  0  0  0
   -1.4753    0.6333    5.9079 C   0  0  0  0  0  0  0  0  0  0  0  0
   -0.6362   -0.4773    6.8827 S   0  0  0  0  0  0  0  0  0  0  0  0
   -1.2721   -1.8030    6.0376 C   0  0  0  0  0  0  0  0  0  0  0  0
   -0.8404   -3.1326    5.9548 C   0  0  0  0  0  0  0  0  0  0  0  0
    0.2428   -3.6396    6.8053 C   0  0  0  0  0  0  0  0  0  0  0  0
   -0.0538   -4.2718    8.0208 C   0  0  0  0  0  0  0  0  0  0  0  0
    0.9768   -4.6471    8.8873 C   0  0  0  0  0  0  0  0  0  0  0  0
    2.3025   -4.3247    8.5780 C   0  0  0  0  0  0  0  0  0  0  0  0
    2.6061   -3.6478    7.3867 C   0  0  0  0  0  0  0  0  0  0  0  0
    4.0239   -3.2403    7.0769 C   0  0  0  0  0  0  0  0  0  0  0  0
    4.7153   -4.3032    6.2309 C   0  0  0  0  0  0  0  0  0  0  0  0
    1.5731   -3.3160    6.4951 C   0  0  0  0  0  0  0  0  0  0  0  0
   -1.3640   -3.7767    4.8092 C   0  0  0  0  0  0  0  0  0  0  0  0
   -2.3484   -2.6599    3.9708 S   0  0  0  0  0  0  0  0  0  0  0  0
   -2.0823   -1.3815    5.0162 C   0  0  0  0  0  0  0  0  0  0  0  0
   -2.1658    0.0103    4.9038 C   0  0  0  0  0  0  0  0  0  0  0  0
   -2.2858    0.8019    3.7984 N   0  0  0  0  0  0  0  0  0  0  0  0
   -1.7272    1.9949    4.1790 C   0  0  0  0  0  0  0  0  0  0  0  0
   -1.3514    3.0829    3.3602 C   0  0  0  0  0  0  0  0  0  0  0  0
   -1.8086    3.4050    2.1153 N   0  0  0  0  0  0  0  0  0  0  0  0
   -0.8925    4.2991    1.6801 C   0  0  0  0  0  0  0  0  0  0  0  0
   -0.5360    4.6963    0.4086 C   0  0  0  0  0  0  0  0  0  0  0  0
   -0.9943    4.2154   -1.1219 S   0  0  0  0  0  0  0  0  0  0  0  0
   -3.2240    3.4631    1.7185 C   0  0  0  0  0  0  0  0  0  0  0  0
   -3.8364    4.8257    2.0472 C   0  0  0  0  0  0  0  0  0  0  0  0
   -2.3223    0.2654    2.4221 C   0  0  0  0  0  0  0  0  0  0  0  0
   -0.9176   -0.1152    1.9464 C   0  0  0  0  0  0  0  0  0  0  0  0
   -0.9167   -5.0614    4.1994 C   0  0  0  0  0  0  0  0  0  0  0  0
   -0.7497   -6.2338    4.9649 C   0  0  0  0  0  0  0  0  0  0  0  0
   -1.0315   -6.2437    6.2863 F   0  0  0  0  0  0  0  0  0  0  0  0
   -0.3597   -7.4328    4.3518 C   0  0  0  0  0  0  0  0  0  0  0  0
   -0.1860   -8.5391    5.1127 F   0  0  0  0  0  0  0  0  0  0  0  0
   -0.2069   -7.5048    2.9575 C   0  0  0  0  0  0  0  0  0  0  0  0
   -0.3366   -6.3377    2.1974 C   0  0  0  0  0  0  0  0  0  0  0  0
   -0.1068   -6.3570    0.8609 F   0  0  0  0  0  0  0  0  0  0  0  0
   -0.6785   -5.1304    2.8107 C   0  0  0  0  0  0  0  0  0  0  0  0
   -0.7716   -4.0304    2.0272 F   0  0  0  0  0  0  0  0  0  0  0  0
    0.1303   -8.7877    2.3096 C   0  0  0  0  0  0  0  0  0  0  0  0
   -0.5111   -9.2547    1.2223 C   0  0  0  0  0  0  0  0  0  0  0  0
    0.1446  -10.1003    0.2034 C   0  0  0  0  0  0  0  0  0  0  0  0
    1.2534  -10.6923    0.3130 O   0  0  0  0  0  0  0  0  0  0  0  0
   -0.6075   -9.9347   -1.0215 C   0  0  0  0  0  0  0  0  0  0  0  0
   -1.6799   -9.1221   -0.8042 C   0  0  0  0  0  0  0  0  0  0  0  0
   -2.5694   -8.8585   -2.2356 S   0  0  0  0  0  0  0  0  0  0  0  0
   -1.4910   -9.8141   -3.1340 C   0  0  0  0  0  0  0  0  0  0  0  0
   -1.4035  -10.1547   -4.4783 C   0  0  0  0  0  0  0  0  0  0  0  0
   -0.2927  -10.9753   -4.7166 C   0  0  0  0  0  0  0  0  0  0  0  0
    0.5593  -11.2404   -3.2565 S   0  0  0  0  0  0  0  0  0  0  0  0
   -0.4997  -10.3215   -2.3434 C   0  0  0  0  0  0  0  0  0  0  0  0
   -1.7750   -8.7320    0.6087 C   0  0  0  0  0  0  0  0  0  0  0  0
   -2.8966   -8.3099    1.2258 C   0  0  0  0  0  0  0  0  0  0  0  0
   -3.0851   -8.4842    2.6379 C   0  0  0  0  0  0  0  0  0  0  0  0
   -3.2542   -8.6454    3.7720 N   0  0  0  0  0  0  0  0  0  0  0  0
   -4.0579   -7.9046    0.4750 C   0  0  0  0  0  0  0  0  0  0  0  0
   -5.0013   -7.5866   -0.1196 N   0  0  0  0  0  0  0  0  0  0  0  0
    1.2484    3.9707   -8.1797 H   0  0  0  0  0  0  0  0  0  0  0  0
   -4.7530   -2.1980   -8.5131 H   0  0  0  0  0  0  0  0  0  0  0  0
   -5.3308   -2.1312   -5.9477 H   0  0  0  0  0  0  0  0  0  0  0  0
    2.0305    1.3257   -7.3853 H   0  0  0  0  0  0  0  0  0  0  0  0
    3.3218    2.4223   -6.7553 H   0  0  0  0  0  0  0  0  0  0  0  0
    2.9277   -0.5175   -5.9086 H   0  0  0  0  0  0  0  0  0  0  0  0
    4.0961    0.0543   -7.1679 H   0  0  0  0  0  0  0  0  0  0  0  0
    4.2940    0.5808   -5.4456 H   0  0  0  0  0  0  0  0  0  0  0  0
    3.5869    2.4800   -2.7948 H   0  0  0  0  0  0  0  0  0  0  0  0
    2.7572    0.9432   -3.3043 H   0  0  0  0  0  0  0  0  0  0  0  0
    2.0956    0.4820   -0.9854 H   0  0  0  0  0  0  0  0  0  0  0  0
    3.8830    0.7311   -1.0758 H   0  0  0  0  0  0  0  0  0  0  0  0
    2.8207    2.0477   -0.4315 H   0  0  0  0  0  0  0  0  0  0  0  0
   -0.6674    8.1395   -6.9831 H   0  0  0  0  0  0  0  0  0  0  0  0
   -0.8464    8.7272   -4.5707 H   0  0  0  0  0  0  0  0  0  0  0  0
    2.1014    7.7766    0.2838 H   0  0  0  0  0  0  0  0  0  0  0  0
    4.1002    9.0930   -0.2598 H   0  0  0  0  0  0  0  0  0  0  0  0
    5.6147    8.3820   -2.0666 H   0  0  0  0  0  0  0  0  0  0  0  0
    5.3842    5.0977   -3.8089 H   0  0  0  0  0  0  0  0  0  0  0  0
    6.4040    6.5407   -3.5355 H   0  0  0  0  0  0  0  0  0  0  0  0
    4.8167    7.9354   -4.8987 H   0  0  0  0  0  0  0  0  0  0  0  0
    5.4657    6.5370   -5.8411 H   0  0  0  0  0  0  0  0  0  0  0  0
    3.7841    6.4718   -5.1786 H   0  0  0  0  0  0  0  0  0  0  0  0
    3.1881    4.9141   -2.7541 H   0  0  0  0  0  0  0  0  0  0  0  0
   -1.0818   -4.4698    8.2980 H   0  0  0  0  0  0  0  0  0  0  0  0
    0.7475   -5.1287    9.8286 H   0  0  0  0  0  0  0  0  0  0  0  0
    3.0881   -4.5687    9.2800 H   0  0  0  0  0  0  0  0  0  0  0  0
    4.0297   -2.2728    6.5266 H   0  0  0  0  0  0  0  0  0  0  0  0
    4.5981   -3.0888    8.0190 H   0  0  0  0  0  0  0  0  0  0  0  0
    5.7503   -3.9725    5.9912 H   0  0  0  0  0  0  0  0  0  0  0  0
    4.1628   -4.4626    5.2824 H   0  0  0  0  0  0  0  0  0  0  0  0
    4.7698   -5.2643    6.7875 H   0  0  0  0  0  0  0  0  0  0  0  0
    1.7924   -2.7806    5.5782 H   0  0  0  0  0  0  0  0  0  0  0  0
   -3.3131    3.2788    0.6285 H   0  0  0  0  0  0  0  0  0  0  0  0
   -3.8265    2.7083    2.2636 H   0  0  0  0  0  0  0  0  0  0  0  0
   -4.8913    4.8428    1.7093 H   0  0  0  0  0  0  0  0  0  0  0  0
   -3.2778    5.6385    1.5300 H   0  0  0  0  0  0  0  0  0  0  0  0
   -3.8077    4.9965    3.1433 H   0  0  0  0  0  0  0  0  0  0  0  0
   -2.7300    0.9796    1.6995 H   0  0  0  0  0  0  0  0  0  0  0  0
   -3.0016   -0.6048    2.3611 H   0  0  0  0  0  0  0  0  0  0  0  0
   -0.4729   -0.8897    2.6050 H   0  0  0  0  0  0  0  0  0  0  0  0
   -0.9614   -0.4972    0.9086 H   0  0  0  0  0  0  0  0  0  0  0  0
   -0.2605    0.7774    1.9656 H   0  0  0  0  0  0  0  0  0  0  0  0
    1.0615   -9.2557    2.6084 H   0  0  0  0  0  0  0  0  0  0  0  0
   -2.1021   -9.8347   -5.2413 H   0  0  0  0  0  0  0  0  0  0  0  0
   -0.0128  -11.3670   -5.6895 H   0  0  0  0  0  0  0  0  0  0  0  0
  1  2  2  3
  2  3  1  0
  3  4  2  0
  3  5  1  0
  5  6  2  0
  6  7  1  0
  7  8  1  0
  8  9  1  0
  9 10  2  0
 10 11  1  0
 11 12  1  0
  6 13  1  0
 13 14  2  3
 14 15  1  0
 15 16  3  0
 14 17  1  0
 17 18  3  0
  1 19  1  0
 19 20  2  0
 20 21  1  0
 21 22  1  0
 22 23  1  0
 20 24  1  0
 24 25  1  0
 25 26  1  0
 26 27  1  0
 24 28  2  0
 28 29  1  0
 29 30  2  0
 30 31  1  0
 31 32  2  0
 32 33  1  0
 33 34  2  0
 28 35  1  0
 35 36  2  0
 36 37  1  0
 37 38  2  0
 38 39  1  0
 39 40  2  0
 40 41  1  0
 41 42  1  0
 42 43  1  0
 41 44  2  0
 36 45  1  0
 45 46  1  0
 46 47  1  0
 47 48  1  0
 48 49  1  0
 49 50  1  0
 50 51  2  0
 51 52  1  0
 52 53  1  0
 50 54  1  0
 54 55  1  0
 55 56  1  0
 56 57  1  0
 57 58  1  0
 58 59  1  0
 59 60  2  0
 60 61  1  0
 61 62  2  0
 62 63  1  0
 63 64  1  0
 64 65  1  0
 63 66  2  0
 58 67  2  0
 67 68  1  0
 68 69  1  0
 69 70  1  0
 70 71  1  0
 71 72  1  0
 72 73  1  0
 73 74  1  0
 74 75  1  0
 75 76  1  0
 76 77  1  0
 74 78  1  0
 78 79  1  0
 71 80  1  0
 80 81  1  0
 67 82  1  0
 82 83  2  0
 83 84  1  0
 83 85  1  0
 85 86  1  0
 85 87  2  0
 87 88  1  0
 88 89  1  0
 88 90  2  0
 90 91  1  0
 87 92  1  0
 92 93  2  3
 93 94  1  0
 94 95  2  0
 94 96  1  0
 96 97  2  0
 97 98  1  0
 98 99  1  0
 99100  1  0
100101  2  0
101102  1  0
102103  1  0
 97104  1  0
104105  2  3
105106  1  0
106107  3  0
105108  1  0
108109  3  0
 13  2  1  0
 30 19  1  0
 77 35  1  0
 90 82  1  0
104 93  1  0
 12  5  1  0
 34 29  1  0
 44 37  1  0
 76 45  2  0
103 96  1  0
 12  8  2  0
 75 47  2  0
103 99  2  0
 73 48  2  0
 53 49  2  0
 72 54  2  0
 70 55  2  0
 69 57  2  0
 66 59  1  0
  1110  1  0
  9111  1  0
 10112  1  0
 22113  1  0
 22114  1  0
 23115  1  0
 23116  1  0
 23117  1  0
 26118  1  0
 26119  1  0
 27120  1  0
 27121  1  0
 27122  1  0
 32123  1  0
 33124  1  0
 38125  1  0
 39126  1  0
 40127  1  0
 42128  1  0
 42129  1  0
 43130  1  0
 43131  1  0
 43132  1  0
 44133  1  0
 60134  1  0
 61135  1  0
 62136  1  0
 64137  1  0
 64138  1  0
 65139  1  0
 65140  1  0
 65141  1  0
 66142  1  0
 78143  1  0
 78144  1  0
 79145  1  0
 79146  1  0
 79147  1  0
 80148  1  0
 80149  1  0
 81150  1  0
 81151  1  0
 81152  1  0
 92153  1  0
100154  1  0
101155  1  0
M  END

