
     RDKit          3D

228252  0  0  0  0  0  0  0  0999 V2000
    6.1450   -4.8786   -1.6381 C   0  0  0  0  0  0  0  0  0  0  0  0
    6.9538   -5.9027   -1.3030 C   0  0  0  0  0  0  0  0  0  0  0  0
    6.7272   -6.9010   -0.2494 C   0  0  0  0  0  0  0  0  0  0  0  0
    5.6491   -7.1280    0.3601 O   0  0  0  0  0  0  0  0  0  0  0  0
    7.9975   -7.5248    0.0650 C   0  0  0  0  0  0  0  0  0  0  0  0
    8.2582   -8.4988    1.0244 C   0  0  0  0  0  0  0  0  0  0  0  0
    9.5769   -8.9604    1.1763 C   0  0  0  0  0  0  0  0  0  0  0  0
    9.8833   -9.9524    2.1187 C   0  0  0  0  0  0  0  0  0  0  0  0
   11.1998  -10.4087    2.2584 C   0  0  0  0  0  0  0  0  0  0  0  0
   12.2208   -9.8692    1.4708 C   0  0  0  0  0  0  0  0  0  0  0  0
   13.4941  -10.3084    1.6171 F   0  0  0  0  0  0  0  0  0  0  0  0
   11.9342   -8.8756    0.5344 C   0  0  0  0  0  0  0  0  0  0  0  0
   10.6166   -8.4177    0.3709 C   0  0  0  0  0  0  0  0  0  0  0  0
   10.3192   -7.4319   -0.5892 C   0  0  0  0  0  0  0  0  0  0  0  0
    8.9901   -7.0022   -0.7445 C   0  0  0  0  0  0  0  0  0  0  0  0
    8.3897   -6.0267   -1.6997 C   0  0  0  0  0  0  0  0  0  0  0  0
    8.9485   -5.5566   -2.8439 C   0  0  0  0  0  0  0  0  0  0  0  0
    8.1586   -4.9412   -3.8824 C   0  0  0  0  0  0  0  0  0  0  0  0
    7.5330   -4.4489   -4.7183 N   0  0  0  0  0  0  0  0  0  0  0  0
   10.3526   -5.6679   -3.1393 C   0  0  0  0  0  0  0  0  0  0  0  0
   11.4877   -5.7190   -3.3849 N   0  0  0  0  0  0  0  0  0  0  0  0
    4.7125   -4.7434   -1.3204 C   0  0  0  0  0  0  0  0  0  0  0  0
    4.0282   -3.5412   -1.4082 C   0  0  0  0  0  0  0  0  0  0  0  0
    2.7208   -3.8430   -1.0980 C   0  0  0  0  0  0  0  0  0  0  0  0
    1.5721   -3.0281   -1.0274 C   0  0  0  0  0  0  0  0  0  0  0  0
    1.6016   -1.5862   -1.3624 C   0  0  0  0  0  0  0  0  0  0  0  0
    0.9125   -0.5714   -0.6976 C   0  0  0  0  0  0  0  0  0  0  0  0
    1.1370    0.6974   -1.2447 C   0  0  0  0  0  0  0  0  0  0  0  0
    0.5824    1.8240   -0.7397 F   0  0  0  0  0  0  0  0  0  0  0  0
    1.9907    0.6941   -2.3399 C   0  0  0  0  0  0  0  0  0  0  0  0
    2.3695    1.8785   -3.1797 C   0  0  0  0  0  0  0  0  0  0  0  0
    1.6670    1.8144   -4.5296 C   0  0  0  0  0  0  0  0  0  0  0  0
    2.4426   -0.8914   -2.6418 S   0  0  0  0  0  0  0  0  0  0  0  0
    0.3989   -3.6819   -0.6056 C   0  0  0  0  0  0  0  0  0  0  0  0
    0.3683   -5.0408   -0.3247 C   0  0  0  0  0  0  0  0  0  0  0  0
    1.5043   -5.8671   -0.4567 C   0  0  0  0  0  0  0  0  0  0  0  0
    1.4428   -7.3339   -0.2840 C   0  0  0  0  0  0  0  0  0  0  0  0
    2.6967   -8.3176    0.2703 S   0  0  0  0  0  0  0  0  0  0  0  0
    1.8873   -9.7816    0.0743 C   0  0  0  0  0  0  0  0  0  0  0  0
    2.4901  -11.1393    0.2700 C   0  0  0  0  0  0  0  0  0  0  0  0
    2.9398  -11.7259   -1.0661 C   0  0  0  0  0  0  0  0  0  0  0  0
    0.6308   -9.5176   -0.4546 C   0  0  0  0  0  0  0  0  0  0  0  0
    0.3813   -8.1576   -0.6598 C   0  0  0  0  0  0  0  0  0  0  0  0
   -0.2480  -10.4905   -0.8079 F   0  0  0  0  0  0  0  0  0  0  0  0
    2.6932   -5.2036   -0.8255 C   0  0  0  0  0  0  0  0  0  0  0  0
    3.8936   -5.7221   -0.9810 O   0  0  0  0  0  0  0  0  0  0  0  0
   -0.9121   -5.3181    0.1238 C   0  0  0  0  0  0  0  0  0  0  0  0
   -1.5723   -4.0974    0.0718 C   0  0  0  0  0  0  0  0  0  0  0  0
   -0.7785   -3.1465   -0.3860 O   0  0  0  0  0  0  0  0  0  0  0  0
   -2.9218   -3.8414    0.5828 C   0  0  0  0  0  0  0  0  0  0  0  0
   -3.2537   -3.9958    1.9284 C   0  0  0  0  0  0  0  0  0  0  0  0
   -4.3089   -3.1588    2.3175 C   0  0  0  0  0  0  0  0  0  0  0  0
   -4.4672   -2.4308    3.6423 C   0  0  0  0  0  0  0  0  0  0  0  0
   -3.2692   -2.5206    4.5987 C   0  0  0  0  0  0  0  0  0  0  0  0
   -1.9741   -2.1978    4.1444 C   0  0  0  0  0  0  0  0  0  0  0  0
   -0.8919   -2.1763    5.0292 C   0  0  0  0  0  0  0  0  0  0  0  0
   -1.0758   -2.4776    6.3897 C   0  0  0  0  0  0  0  0  0  0  0  0
    0.0645   -2.3694    7.3607 C   0  0  0  0  0  0  0  0  0  0  0  0
    0.0214   -1.0299    8.0928 C   0  0  0  0  0  0  0  0  0  0  0  0
   -2.3585   -2.7957    6.8493 C   0  0  0  0  0  0  0  0  0  0  0  0
   -3.4416   -2.8088    5.9697 C   0  0  0  0  0  0  0  0  0  0  0  0
   -5.7854   -2.9228    4.2767 C   0  0  0  0  0  0  0  0  0  0  0  0
   -6.7510   -2.0217    4.7766 C   0  0  0  0  0  0  0  0  0  0  0  0
   -8.0048   -2.4776    5.1932 C   0  0  0  0  0  0  0  0  0  0  0  0
   -8.3101   -3.8452    5.1648 C   0  0  0  0  0  0  0  0  0  0  0  0
   -9.6959   -4.3196    5.5071 C   0  0  0  0  0  0  0  0  0  0  0  0
  -10.5656   -4.4026    4.2558 C   0  0  0  0  0  0  0  0  0  0  0  0
   -7.3315   -4.7565    4.7416 C   0  0  0  0  0  0  0  0  0  0  0  0
   -6.0759   -4.3010    4.3259 C   0  0  0  0  0  0  0  0  0  0  0  0
   -4.6527   -1.0364    3.0713 C   0  0  0  0  0  0  0  0  0  0  0  0
   -5.2114   -1.1280    1.8037 C   0  0  0  0  0  0  0  0  0  0  0  0
   -4.8853   -2.4376    1.2833 C   0  0  0  0  0  0  0  0  0  0  0  0
   -3.9646   -2.7027   -0.1000 S   0  0  0  0  0  0  0  0  0  0  0  0
   -5.6991   -0.0025    1.1301 C   0  0  0  0  0  0  0  0  0  0  0  0
   -5.4154    1.2443    1.7083 C   0  0  0  0  0  0  0  0  0  0  0  0
   -5.8432    2.6250    1.2674 C   0  0  0  0  0  0  0  0  0  0  0  0
   -6.1685    2.7188   -0.2265 C   0  0  0  0  0  0  0  0  0  0  0  0
   -7.4060    3.2269   -0.6786 C   0  0  0  0  0  0  0  0  0  0  0  0
   -7.7161    3.2595   -2.0334 C   0  0  0  0  0  0  0  0  0  0  0  0
   -6.7991    2.7994   -2.9814 C   0  0  0  0  0  0  0  0  0  0  0  0
   -7.1445    2.8882   -4.4409 C   0  0  0  0  0  0  0  0  0  0  0  0
   -6.7677    4.2602   -4.9980 C   0  0  0  0  0  0  0  0  0  0  0  0
   -5.5571    2.3060   -2.5548 C   0  0  0  0  0  0  0  0  0  0  0  0
   -5.2422    2.2710   -1.1901 C   0  0  0  0  0  0  0  0  0  0  0  0
   -6.9980    3.0996    2.1701 C   0  0  0  0  0  0  0  0  0  0  0  0
   -7.9930    2.2023    2.6200 C   0  0  0  0  0  0  0  0  0  0  0  0
   -8.9764    2.6192    3.5220 C   0  0  0  0  0  0  0  0  0  0  0  0
   -9.0302    3.9527    3.9496 C   0  0  0  0  0  0  0  0  0  0  0  0
  -10.0364    4.3895    4.9776 C   0  0  0  0  0  0  0  0  0  0  0  0
   -9.4148    4.3577    6.3723 C   0  0  0  0  0  0  0  0  0  0  0  0
   -8.0864    4.8673    3.4575 C   0  0  0  0  0  0  0  0  0  0  0  0
   -7.0939    4.4520    2.5679 C   0  0  0  0  0  0  0  0  0  0  0  0
   -4.5800    3.3468    1.6848 C   0  0  0  0  0  0  0  0  0  0  0  0
   -3.8972    2.6607    2.6727 C   0  0  0  0  0  0  0  0  0  0  0  0
   -4.4900    1.3319    2.7447 C   0  0  0  0  0  0  0  0  0  0  0  0
   -4.1490    0.2042    3.5114 C   0  0  0  0  0  0  0  0  0  0  0  0
   -2.2550    3.0493    2.5302 S   0  0  0  0  0  0  0  0  0  0  0  0
   -2.4532    4.1861    1.2835 C   0  0  0  0  0  0  0  0  0  0  0  0
   -3.7938    4.2067    0.9121 C   0  0  0  0  0  0  0  0  0  0  0  0
   -1.3874    4.6605    0.3932 C   0  0  0  0  0  0  0  0  0  0  0  0
   -0.2187    5.3262    0.7591 C   0  0  0  0  0  0  0  0  0  0  0  0
    0.4365    5.5595   -0.4408 C   0  0  0  0  0  0  0  0  0  0  0  0
    1.6550    6.2127   -0.7363 C   0  0  0  0  0  0  0  0  0  0  0  0
    2.4107    6.9951    0.2658 C   0  0  0  0  0  0  0  0  0  0  0  0
    1.8492    7.8094    1.2450 C   0  0  0  0  0  0  0  0  0  0  0  0
    2.7969    8.5612    1.9487 C   0  0  0  0  0  0  0  0  0  0  0  0
    2.4573    9.4314    2.9284 F   0  0  0  0  0  0  0  0  0  0  0  0
    4.1028    8.3559    1.5235 C   0  0  0  0  0  0  0  0  0  0  0  0
    5.3300    9.0564    2.0386 C   0  0  0  0  0  0  0  0  0  0  0  0
    5.8451   10.0744    1.0292 C   0  0  0  0  0  0  0  0  0  0  0  0
    4.0800    7.2422    0.2627 S   0  0  0  0  0  0  0  0  0  0  0  0
    2.0459    6.1751   -2.0907 C   0  0  0  0  0  0  0  0  0  0  0  0
    1.2553    5.5998   -3.0754 C   0  0  0  0  0  0  0  0  0  0  0  0
    0.0051    5.0096   -2.7879 C   0  0  0  0  0  0  0  0  0  0  0  0
   -0.8447    4.3656   -3.8119 C   0  0  0  0  0  0  0  0  0  0  0  0
   -1.6302    2.8881   -3.6187 S   0  0  0  0  0  0  0  0  0  0  0  0
   -2.1543    2.7470   -5.2104 C   0  0  0  0  0  0  0  0  0  0  0  0
   -2.8191    1.5276   -5.7891 C   0  0  0  0  0  0  0  0  0  0  0  0
   -4.0876    1.8757   -6.5580 C   0  0  0  0  0  0  0  0  0  0  0  0
   -1.7491    3.8809   -5.9007 C   0  0  0  0  0  0  0  0  0  0  0  0
   -1.0375    4.7938   -5.1206 C   0  0  0  0  0  0  0  0  0  0  0  0
   -1.9941    4.0823   -7.2186 F   0  0  0  0  0  0  0  0  0  0  0  0
   -0.3528    4.9944   -1.4312 C   0  0  0  0  0  0  0  0  0  0  0  0
   -1.4381    4.4869   -0.9108 O   0  0  0  0  0  0  0  0  0  0  0  0
    1.9401    5.7652   -4.2642 C   0  0  0  0  0  0  0  0  0  0  0  0
    3.1092    6.4353   -3.9243 C   0  0  0  0  0  0  0  0  0  0  0  0
    3.1364    6.6736   -2.6255 O   0  0  0  0  0  0  0  0  0  0  0  0
    4.1361    6.9546   -4.8490 C   0  0  0  0  0  0  0  0  0  0  0  0
    5.0485    6.2119   -5.5081 C   0  0  0  0  0  0  0  0  0  0  0  0
    6.3460    6.7610   -5.9007 C   0  0  0  0  0  0  0  0  0  0  0  0
    6.6104    7.9794   -6.1005 O   0  0  0  0  0  0  0  0  0  0  0  0
    7.3061    5.6752   -5.9233 C   0  0  0  0  0  0  0  0  0  0  0  0
    8.6756    5.7293   -6.1826 C   0  0  0  0  0  0  0  0  0  0  0  0
    9.4160    4.5372   -6.1278 C   0  0  0  0  0  0  0  0  0  0  0  0
   10.7889    4.5403   -6.4134 C   0  0  0  0  0  0  0  0  0  0  0  0
   11.5160    3.3464   -6.3746 C   0  0  0  0  0  0  0  0  0  0  0  0
   10.8861    2.1475   -6.0341 C   0  0  0  0  0  0  0  0  0  0  0  0
   11.6022    0.9962   -5.9855 F   0  0  0  0  0  0  0  0  0  0  0  0
    9.5192    2.1284   -5.7412 C   0  0  0  0  0  0  0  0  0  0  0  0
    8.7714    3.3146   -5.7896 C   0  0  0  0  0  0  0  0  0  0  0  0
    7.3849    3.2956   -5.5271 C   0  0  0  0  0  0  0  0  0  0  0  0
    6.6582    4.4897   -5.6246 C   0  0  0  0  0  0  0  0  0  0  0  0
    5.1918    4.7275   -5.5393 C   0  0  0  0  0  0  0  0  0  0  0  0
    4.2920    3.8973   -6.1119 C   0  0  0  0  0  0  0  0  0  0  0  0
    4.5131    2.4751   -6.2171 C   0  0  0  0  0  0  0  0  0  0  0  0
    4.6695    1.3351   -6.2966 N   0  0  0  0  0  0  0  0  0  0  0  0
    3.2246    4.4170   -6.9325 C   0  0  0  0  0  0  0  0  0  0  0  0
    2.3848    4.8262   -7.6140 N   0  0  0  0  0  0  0  0  0  0  0  0
    6.5646   -4.0416   -2.1767 H   0  0  0  0  0  0  0  0  0  0  0  0
    7.4588   -8.8957    1.6370 H   0  0  0  0  0  0  0  0  0  0  0  0
    9.1081  -10.3799    2.7433 H   0  0  0  0  0  0  0  0  0  0  0  0
   11.4305  -11.1803    2.9810 H   0  0  0  0  0  0  0  0  0  0  0  0
   12.7346   -8.4685   -0.0742 H   0  0  0  0  0  0  0  0  0  0  0  0
   11.1163   -7.0229   -1.1802 H   0  0  0  0  0  0  0  0  0  0  0  0
    4.4508   -2.5813   -1.6618 H   0  0  0  0  0  0  0  0  0  0  0  0
    0.2848   -0.7409    0.1640 H   0  0  0  0  0  0  0  0  0  0  0  0
    2.0890    2.8198   -2.6593 H   0  0  0  0  0  0  0  0  0  0  0  0
    3.4695    1.8883   -3.3351 H   0  0  0  0  0  0  0  0  0  0  0  0
    2.1086    1.0186   -5.1617 H   0  0  0  0  0  0  0  0  0  0  0  0
    0.5949    1.5930   -4.3941 H   0  0  0  0  0  0  0  0  0  0  0  0
    1.7643    2.7861   -5.0551 H   0  0  0  0  0  0  0  0  0  0  0  0
    3.3621  -11.0641    0.9543 H   0  0  0  0  0  0  0  0  0  0  0  0
    1.7434  -11.8148    0.7394 H   0  0  0  0  0  0  0  0  0  0  0  0
    3.6848  -11.0560   -1.5446 H   0  0  0  0  0  0  0  0  0  0  0  0
    2.0692  -11.8532   -1.7458 H   0  0  0  0  0  0  0  0  0  0  0  0
    3.4053  -12.7234   -0.9011 H   0  0  0  0  0  0  0  0  0  0  0  0
   -0.5226   -7.8004   -1.1319 H   0  0  0  0  0  0  0  0  0  0  0  0
   -1.3023   -6.2584    0.4998 H   0  0  0  0  0  0  0  0  0  0  0  0
   -2.6013   -4.5015    2.6301 H   0  0  0  0  0  0  0  0  0  0  0  0
   -1.8074   -1.9264    3.1099 H   0  0  0  0  0  0  0  0  0  0  0  0
    0.0893   -1.9055    4.6572 H   0  0  0  0  0  0  0  0  0  0  0  0
    1.0375   -2.4690    6.8334 H   0  0  0  0  0  0  0  0  0  0  0  0
    0.0034   -3.1947    8.1054 H   0  0  0  0  0  0  0  0  0  0  0  0
    0.0042   -0.1855    7.3685 H   0  0  0  0  0  0  0  0  0  0  0  0
   -0.8824   -0.9726    8.7379 H   0  0  0  0  0  0  0  0  0  0  0  0
    0.9201   -0.9297    8.7375 H   0  0  0  0  0  0  0  0  0  0  0  0
   -2.5231   -3.0033    7.8972 H   0  0  0  0  0  0  0  0  0  0  0  0
   -4.4162   -3.0263    6.3888 H   0  0  0  0  0  0  0  0  0  0  0  0
   -6.5543   -0.9593    4.8100 H   0  0  0  0  0  0  0  0  0  0  0  0
   -8.7462   -1.7552    5.5171 H   0  0  0  0  0  0  0  0  0  0  0  0
   -9.6498   -5.3165    5.9901 H   0  0  0  0  0  0  0  0  0  0  0  0
  -10.1741   -3.6240    6.2342 H   0  0  0  0  0  0  0  0  0  0  0  0
  -10.6361   -3.4077    3.7656 H   0  0  0  0  0  0  0  0  0  0  0  0
  -10.1302   -5.1292    3.5347 H   0  0  0  0  0  0  0  0  0  0  0  0
  -11.5881   -4.7400    4.5334 H   0  0  0  0  0  0  0  0  0  0  0  0
   -7.5508   -5.8170    4.7140 H   0  0  0  0  0  0  0  0  0  0  0  0
   -5.3453   -5.0281    3.9965 H   0  0  0  0  0  0  0  0  0  0  0  0
   -6.2188   -0.0895    0.1876 H   0  0  0  0  0  0  0  0  0  0  0  0
   -8.1528    3.5998    0.0114 H   0  0  0  0  0  0  0  0  0  0  0  0
   -8.6761    3.6474   -2.3463 H   0  0  0  0  0  0  0  0  0  0  0  0
   -6.6258    2.0857   -5.0032 H   0  0  0  0  0  0  0  0  0  0  0  0
   -8.2325    2.7187   -4.5843 H   0  0  0  0  0  0  0  0  0  0  0  0
   -7.3620    5.0563   -4.4939 H   0  0  0  0  0  0  0  0  0  0  0  0
   -6.9712    4.2963   -6.0886 H   0  0  0  0  0  0  0  0  0  0  0  0
   -5.6881    4.4698   -4.8223 H   0  0  0  0  0  0  0  0  0  0  0  0
   -4.8310    1.9569   -3.2801 H   0  0  0  0  0  0  0  0  0  0  0  0
   -4.2729    1.8901   -0.8865 H   0  0  0  0  0  0  0  0  0  0  0  0
   -7.9927    1.1703    2.2948 H   0  0  0  0  0  0  0  0  0  0  0  0
   -9.6941    1.8961    3.8874 H   0  0  0  0  0  0  0  0  0  0  0  0
  -10.9281    3.7226    4.9603 H   0  0  0  0  0  0  0  0  0  0  0  0
  -10.3843    5.4211    4.7538 H   0  0  0  0  0  0  0  0  0  0  0  0
   -9.0954    3.3275    6.6345 H   0  0  0  0  0  0  0  0  0  0  0  0
  -10.1596    4.6976    7.1173 H   0  0  0  0  0  0  0  0  0  0  0  0
   -8.5328    5.0324    6.4223 H   0  0  0  0  0  0  0  0  0  0  0  0
   -8.1151    5.9009    3.7792 H   0  0  0  0  0  0  0  0  0  0  0  0
   -6.3819    5.1841    2.2139 H   0  0  0  0  0  0  0  0  0  0  0  0
   -3.4938    0.2829    4.3689 H   0  0  0  0  0  0  0  0  0  0  0  0
   -4.1391    4.6900    0.0092 H   0  0  0  0  0  0  0  0  0  0  0  0
    0.0948    5.5990    1.7595 H   0  0  0  0  0  0  0  0  0  0  0  0
    0.7850    7.9118    1.4098 H   0  0  0  0  0  0  0  0  0  0  0  0
    5.1027    9.5792    2.9917 H   0  0  0  0  0  0  0  0  0  0  0  0
    6.1222    8.3033    2.2340 H   0  0  0  0  0  0  0  0  0  0  0  0
    6.0697    9.5787    0.0593 H   0  0  0  0  0  0  0  0  0  0  0  0
    6.7863   10.5228    1.4105 H   0  0  0  0  0  0  0  0  0  0  0  0
    5.0982   10.8828    0.8693 H   0  0  0  0  0  0  0  0  0  0  0  0
   -2.1125    1.0094   -6.4751 H   0  0  0  0  0  0  0  0  0  0  0  0
   -3.0692    0.8200   -4.9745 H   0  0  0  0  0  0  0  0  0  0  0  0
   -4.7251    0.9727   -6.6615 H   0  0  0  0  0  0  0  0  0  0  0  0
   -3.8367    2.2623   -7.5674 H   0  0  0  0  0  0  0  0  0  0  0  0
   -4.6523    2.6585   -6.0147 H   0  0  0  0  0  0  0  0  0  0  0  0
   -0.6682    5.7312   -5.5069 H   0  0  0  0  0  0  0  0  0  0  0  0
    1.5996    5.5071   -5.2487 H   0  0  0  0  0  0  0  0  0  0  0  0
    4.3096    8.0213   -4.7888 H   0  0  0  0  0  0  0  0  0  0  0  0
    9.1438    6.6703   -6.4365 H   0  0  0  0  0  0  0  0  0  0  0  0
   11.2956    5.4613   -6.6774 H   0  0  0  0  0  0  0  0  0  0  0  0
   12.5757    3.3538   -6.6106 H   0  0  0  0  0  0  0  0  0  0  0  0
    9.0474    1.1851   -5.4891 H   0  0  0  0  0  0  0  0  0  0  0  0
    6.9048    2.3692   -5.2583 H   0  0  0  0  0  0  0  0  0  0  0  0
  1  2  2  3
  2  3  1  0
  3  4  2  0
  3  5  1  0
  5  6  2  0
  6  7  1  0
  7  8  2  0
  8  9  1  0
  9 10  2  0
 10 11  1  0
 10 12  1  0
 12 13  2  0
 13 14  1  0
 14 15  2  0
 15 16  1  0
 16 17  2  3
 17 18  1  0
 18 19  3  0
 17 20  1  0
 20 21  3  0
  1 22  1  0
 22 23  2  0
 23 24  1  0
 24 25  2  0
 25 26  1  0
 26 27  2  0
 27 28  1  0
 28 29  1  0
 28 30  2  0
 30 31  1  0
 31 32  1  0
 30 33  1  0
 25 34  1  0
 34 35  2  0
 35 36  1  0
 36 37  1  0
 37 38  1  0
 38 39  1  0
 39 40  1  0
 40 41  1  0
 39 42  2  0
 42 43  1  0
 42 44  1  0
 36 45  2  0
 45 46  1  0
 35 47  1  0
 47 48  2  0
 48 49  1  0
 48 50  1  0
 50 51  2  0
 51 52  1  0
 52 53  1  0
 53 54  1  0
 54 55  2  0
 55 56  1  0
 56 57  2  0
 57 58  1  0
 58 59  1  0
 57 60  1  0
 60 61  2  0
 53 62  1  0
 62 63  2  0
 63 64  1  0
 64 65  2  0
 65 66  1  0
 66 67  1  0
 65 68  1  0
 68 69  2  0
 53 70  1  0
 70 71  2  0
 71 72  1  0
 72 73  1  0
 71 74  1  0
 74 75  2  0
 75 76  1  0
 76 77  1  0
 77 78  2  0
 78 79  1  0
 79 80  2  0
 80 81  1  0
 81 82  1  0
 80 83  1  0
 83 84  2  0
 76 85  1  0
 85 86  2  0
 86 87  1  0
 87 88  2  0
 88 89  1  0
 89 90  1  0
 88 91  1  0
 91 92  2  0
 76 93  1  0
 93 94  2  0
 94 95  1  0
 95 96  2  0
 94 97  1  0
 97 98  1  0
 98 99  2  0
 98100  1  0
100101  2  0
101102  1  0
102103  2  0
103104  1  0
104105  2  0
105106  1  0
106107  1  0
106108  2  0
108109  1  0
109110  1  0
108111  1  0
103112  1  0
112113  2  0
113114  1  0
114115  1  0
115116  1  0
116117  1  0
117118  1  0
118119  1  0
117120  2  0
120121  1  0
120122  1  0
114123  2  0
123124  1  0
113125  1  0
125126  2  0
126127  1  0
126128  1  0
128129  2  3
129130  1  0
130131  2  0
130132  1  0
132133  2  0
133134  1  0
134135  2  0
135136  1  0
136137  2  0
137138  1  0
137139  1  0
139140  2  0
140141  1  0
141142  2  0
142143  1  0
143144  2  3
144145  1  0
145146  3  0
144147  1  0
147148  3  0
 16  2  1  0
 46 22  1  0
 73 50  1  0
 95 75  1  0
124100  1  0
143129  1  0
 15  5  1  0
 45 24  1  0
 72 52  2  0
 84 77  1  0
 92 85  1  0
 99 93  1  0
123102  1  0
142132  1  0
 13  7  1  0
 33 26  1  0
 49 34  1  0
 61 54  1  0
 69 62  1  0
 96 70  1  0
111104  1  0
127112  1  0
140134  1  0
 43 37  2  0
121115  2  0
  1149  1  0
  6150  1  0
  8151  1  0
  9152  1  0
 12153  1  0
 14154  1  0
 23155  1  0
 27156  1  0
 31157  1  0
 31158  1  0
 32159  1  0
 32160  1  0
 32161  1  0
 40162  1  0
 40163  1  0
 41164  1  0
 41165  1  0
 41166  1  0
 43167  1  0
 47168  1  0
 51169  1  0
 55170  1  0
 56171  1  0
 58172  1  0
 58173  1  0
 59174  1  0
 59175  1  0
 59176  1  0
 60177  1  0
 61178  1  0
 63179  1  0
 64180  1  0
 66181  1  0
 66182  1  0
 67183  1  0
 67184  1  0
 67185  1  0
 68186  1  0
 69187  1  0
 74188  1  0
 78189  1  0
 79190  1  0
 81191  1  0
 81192  1  0
 82193  1  0
 82194  1  0
 82195  1  0
 83196  1  0
 84197  1  0
 86198  1  0
 87199  1  0
 89200  1  0
 89201  1  0
 90202  1  0
 90203  1  0
 90204  1  0
 91205  1  0
 92206  1  0
 96207  1  0
 99208  1  0
101209  1  0
105210  1  0
109211  1  0
109212  1  0
110213  1  0
110214  1  0
110215  1  0
118216  1  0
118217  1  0
119218  1  0
119219  1  0
119220  1  0
121221  1  0
125222  1  0
128223  1  0
133224  1  0
135225  1  0
136226  1  0
139227  1  0
141228  1  0
M  END

