
     RDKit          3D

225250  0  0  0  0  0  0  0  0999 V2000
    4.1074   -1.9867    4.6187 C   0  0  0  0  0  0  0  0  0  0  0  0
    4.9220   -1.2524    3.8265 C   0  0  0  0  0  0  0  0  0  0  0  0
    4.7219   -1.0183    2.3892 C   0  0  0  0  0  0  0  0  0  0  0  0
    3.8165   -1.5055    1.6638 O   0  0  0  0  0  0  0  0  0  0  0  0
    5.8362   -0.2662    1.8768 C   0  0  0  0  0  0  0  0  0  0  0  0
    5.9997    0.2086    0.5797 C   0  0  0  0  0  0  0  0  0  0  0  0
    7.1568    0.9338    0.2695 C   0  0  0  0  0  0  0  0  0  0  0  0
    7.3530    1.4415   -1.0234 C   0  0  0  0  0  0  0  0  0  0  0  0
    8.5016    2.1761   -1.3230 C   0  0  0  0  0  0  0  0  0  0  0  0
    9.4704    2.3968   -0.3426 C   0  0  0  0  0  0  0  0  0  0  0  0
   10.5854    3.1077   -0.6439 F   0  0  0  0  0  0  0  0  0  0  0  0
    9.2934    1.8896    0.9487 C   0  0  0  0  0  0  0  0  0  0  0  0
    8.1367    1.1614    1.2710 C   0  0  0  0  0  0  0  0  0  0  0  0
    7.9382    0.6703    2.5788 C   0  0  0  0  0  0  0  0  0  0  0  0
    6.7660   -0.0552    2.8755 C   0  0  0  0  0  0  0  0  0  0  0  0
    6.2658   -0.6520    4.1591 C   0  0  0  0  0  0  0  0  0  0  0  0
    6.8923   -0.6206    5.3694 C   0  0  0  0  0  0  0  0  0  0  0  0
    8.2361   -0.1366    5.5399 C   0  0  0  0  0  0  0  0  0  0  0  0
    9.3180    0.2364    5.6994 N   0  0  0  0  0  0  0  0  0  0  0  0
    6.2952   -1.0915    6.5863 C   0  0  0  0  0  0  0  0  0  0  0  0
    5.8392   -1.4807    7.5817 N   0  0  0  0  0  0  0  0  0  0  0  0
    2.7952   -2.5203    4.2099 C   0  0  0  0  0  0  0  0  0  0  0  0
    2.2827   -3.7468    4.6244 C   0  0  0  0  0  0  0  0  0  0  0  0
    1.0854   -3.8764    3.9477 C   0  0  0  0  0  0  0  0  0  0  0  0
    0.1668   -4.9516    3.8777 C   0  0  0  0  0  0  0  0  0  0  0  0
    0.1963   -6.1122    4.7951 C   0  0  0  0  0  0  0  0  0  0  0  0
    0.3563   -5.9170    6.1774 C   0  0  0  0  0  0  0  0  0  0  0  0
    0.2198   -6.9864    7.0681 C   0  0  0  0  0  0  0  0  0  0  0  0
    0.3449   -6.7623    8.4001 F   0  0  0  0  0  0  0  0  0  0  0  0
   -0.0740   -8.2745    6.5881 C   0  0  0  0  0  0  0  0  0  0  0  0
   -0.3134   -9.4095    7.5558 C   0  0  0  0  0  0  0  0  0  0  0  0
   -1.7158   -9.3271    8.1561 C   0  0  0  0  0  0  0  0  0  0  0  0
   -0.2065   -8.4759    5.2012 C   0  0  0  0  0  0  0  0  0  0  0  0
   -0.4974   -9.7063    4.7030 F   0  0  0  0  0  0  0  0  0  0  0  0
   -0.0596   -7.4058    4.3124 C   0  0  0  0  0  0  0  0  0  0  0  0
   -0.8510   -4.8013    2.9139 C   0  0  0  0  0  0  0  0  0  0  0  0
   -1.0008   -3.6337    2.1888 C   0  0  0  0  0  0  0  0  0  0  0  0
   -0.1548   -2.5252    2.3318 C   0  0  0  0  0  0  0  0  0  0  0  0
   -0.4570   -1.2388    1.6581 C   0  0  0  0  0  0  0  0  0  0  0  0
    0.4885   -0.5904    0.8497 C   0  0  0  0  0  0  0  0  0  0  0  0
    0.1217    0.5438    0.1085 C   0  0  0  0  0  0  0  0  0  0  0  0
   -1.1915    1.0467    0.1766 C   0  0  0  0  0  0  0  0  0  0  0  0
   -1.6046    2.2537   -0.6375 C   0  0  0  0  0  0  0  0  0  0  0  0
   -1.9359    3.4421    0.2617 C   0  0  0  0  0  0  0  0  0  0  0  0
   -2.1321    0.3974    0.9927 C   0  0  0  0  0  0  0  0  0  0  0  0
   -1.7584   -0.7156    1.7427 C   0  0  0  0  0  0  0  0  0  0  0  0
   -3.4232    0.8140    1.0431 F   0  0  0  0  0  0  0  0  0  0  0  0
    1.0364    1.1246   -0.7060 F   0  0  0  0  0  0  0  0  0  0  0  0
    0.9385   -2.7191    3.1908 C   0  0  0  0  0  0  0  0  0  0  0  0
    1.9576   -1.9156    3.3848 O   0  0  0  0  0  0  0  0  0  0  0  0
   -2.0471   -3.8361    1.3276 C   0  0  0  0  0  0  0  0  0  0  0  0
   -2.4620   -5.1348    1.5756 C   0  0  0  0  0  0  0  0  0  0  0  0
   -1.7511   -5.6876    2.5402 O   0  0  0  0  0  0  0  0  0  0  0  0
   -3.5100   -5.7909    0.7904 C   0  0  0  0  0  0  0  0  0  0  0  0
   -4.8658   -5.4572    0.9692 C   0  0  0  0  0  0  0  0  0  0  0  0
   -5.3642   -4.8561    2.2157 C   0  0  0  0  0  0  0  0  0  0  0  0
   -5.3695   -5.6085    3.3985 C   0  0  0  0  0  0  0  0  0  0  0  0
   -5.7704   -5.0215    4.6005 C   0  0  0  0  0  0  0  0  0  0  0  0
   -6.1573   -3.6784    4.6315 C   0  0  0  0  0  0  0  0  0  0  0  0
   -6.1164   -2.9018    3.4609 C   0  0  0  0  0  0  0  0  0  0  0  0
   -6.5373   -1.4583    3.4778 C   0  0  0  0  0  0  0  0  0  0  0  0
   -7.9834   -1.3182    3.0109 C   0  0  0  0  0  0  0  0  0  0  0  0
   -5.7194   -3.4986    2.2563 C   0  0  0  0  0  0  0  0  0  0  0  0
   -5.5558   -5.3882   -0.2529 C   0  0  0  0  0  0  0  0  0  0  0  0
   -6.9526   -4.5206   -0.6730 S   0  0  0  0  0  0  0  0  0  0  0  0
   -6.5169   -4.4422   -2.3097 C   0  0  0  0  0  0  0  0  0  0  0  0
   -6.6478   -3.4168   -3.2076 C   0  0  0  0  0  0  0  0  0  0  0  0
   -7.4737   -2.2848   -3.1298 C   0  0  0  0  0  0  0  0  0  0  0  0
   -7.1464   -1.1291   -3.9034 C   0  0  0  0  0  0  0  0  0  0  0  0
   -7.9100   -0.0250   -3.7226 N   0  0  0  0  0  0  0  0  0  0  0  0
   -8.9644   -0.5992   -2.5796 S   0  0  0  0  0  0  0  0  0  0  0  0
   -8.5202   -2.1682   -2.2753 N   0  0  0  0  0  0  0  0  0  0  0  0
   -6.0372   -1.1822   -4.7490 C   0  0  0  0  0  0  0  0  0  0  0  0
   -5.3434   -0.1930   -5.3960 C   0  0  0  0  0  0  0  0  0  0  0  0
   -5.2152    1.4941   -5.2438 S   0  0  0  0  0  0  0  0  0  0  0  0
   -3.5917    1.4615   -5.7778 C   0  0  0  0  0  0  0  0  0  0  0  0
   -2.5770    2.4253   -5.6803 C   0  0  0  0  0  0  0  0  0  0  0  0
   -2.7681    3.7334   -6.3680 C   0  0  0  0  0  0  0  0  0  0  0  0
   -3.5007    3.7568   -7.5757 C   0  0  0  0  0  0  0  0  0  0  0  0
   -3.5928    4.9215   -8.3337 C   0  0  0  0  0  0  0  0  0  0  0  0
   -2.9431    6.0779   -7.9158 C   0  0  0  0  0  0  0  0  0  0  0  0
   -2.2232    6.0862   -6.7123 C   0  0  0  0  0  0  0  0  0  0  0  0
   -1.4390    7.3072   -6.3330 C   0  0  0  0  0  0  0  0  0  0  0  0
   -0.0622    7.2820   -6.9877 C   0  0  0  0  0  0  0  0  0  0  0  0
   -2.1569    4.9199   -5.9254 C   0  0  0  0  0  0  0  0  0  0  0  0
   -1.3122    1.7829   -5.6054 C   0  0  0  0  0  0  0  0  0  0  0  0
   -1.5200    0.0977   -5.8307 S   0  0  0  0  0  0  0  0  0  0  0  0
   -3.1769    0.1765   -5.9873 C   0  0  0  0  0  0  0  0  0  0  0  0
   -4.1910   -0.7545   -5.8376 C   0  0  0  0  0  0  0  0  0  0  0  0
   -4.1277   -2.0859   -5.6140 N   0  0  0  0  0  0  0  0  0  0  0  0
   -5.2392   -2.3342   -4.8618 C   0  0  0  0  0  0  0  0  0  0  0  0
   -5.4937   -3.4452   -4.0084 C   0  0  0  0  0  0  0  0  0  0  0  0
   -4.6322   -4.4140   -3.5553 N   0  0  0  0  0  0  0  0  0  0  0  0
   -5.2952   -5.0215   -2.5321 C   0  0  0  0  0  0  0  0  0  0  0  0
   -4.7851   -5.6144   -1.3664 C   0  0  0  0  0  0  0  0  0  0  0  0
   -3.2342   -5.9781   -0.8670 S   0  0  0  0  0  0  0  0  0  0  0  0
   -3.1836   -4.5492   -3.7992 C   0  0  0  0  0  0  0  0  0  0  0  0
   -2.8655   -5.9034   -4.4404 C   0  0  0  0  0  0  0  0  0  0  0  0
   -3.5906   -3.0040   -6.6353 C   0  0  0  0  0  0  0  0  0  0  0  0
   -4.2226   -2.7545   -8.0074 C   0  0  0  0  0  0  0  0  0  0  0  0
   -0.0949    2.3063   -4.9299 C   0  0  0  0  0  0  0  0  0  0  0  0
    1.0859    1.5815   -4.7869 C   0  0  0  0  0  0  0  0  0  0  0  0
    1.8453    2.3083   -3.8988 C   0  0  0  0  0  0  0  0  0  0  0  0
    3.0138    1.9467   -3.2006 C   0  0  0  0  0  0  0  0  0  0  0  0
    3.6655    0.6387   -3.3681 C   0  0  0  0  0  0  0  0  0  0  0  0
    3.6262   -0.2941   -2.3265 C   0  0  0  0  0  0  0  0  0  0  0  0
    4.2716   -1.5237   -2.4509 C   0  0  0  0  0  0  0  0  0  0  0  0
    4.2089   -2.4076   -1.4195 F   0  0  0  0  0  0  0  0  0  0  0  0
    4.9885   -1.8320   -3.6204 C   0  0  0  0  0  0  0  0  0  0  0  0
    5.6926   -3.1597   -3.7439 C   0  0  0  0  0  0  0  0  0  0  0  0
    4.7454   -4.2378   -4.2631 C   0  0  0  0  0  0  0  0  0  0  0  0
    5.0091   -0.9015   -4.6779 C   0  0  0  0  0  0  0  0  0  0  0  0
    5.6865   -1.1696   -5.8220 F   0  0  0  0  0  0  0  0  0  0  0  0
    4.3500    0.3284   -4.5502 C   0  0  0  0  0  0  0  0  0  0  0  0
    3.4223    2.8404   -2.2003 C   0  0  0  0  0  0  0  0  0  0  0  0
    2.7522    4.0234   -1.9472 C   0  0  0  0  0  0  0  0  0  0  0  0
    1.5525    4.3697   -2.6027 C   0  0  0  0  0  0  0  0  0  0  0  0
    0.7236    5.4975   -2.1209 C   0  0  0  0  0  0  0  0  0  0  0  0
    0.4011    5.5917   -0.7571 C   0  0  0  0  0  0  0  0  0  0  0  0
   -0.3107    6.6840   -0.2634 C   0  0  0  0  0  0  0  0  0  0  0  0
   -0.6846    7.7310   -1.1226 C   0  0  0  0  0  0  0  0  0  0  0  0
   -1.4783    8.8985   -0.5902 C   0  0  0  0  0  0  0  0  0  0  0  0
   -2.9603    8.5470   -0.5142 C   0  0  0  0  0  0  0  0  0  0  0  0
   -0.3453    7.6506   -2.4861 C   0  0  0  0  0  0  0  0  0  0  0  0
    0.3396    6.5331   -2.9835 C   0  0  0  0  0  0  0  0  0  0  0  0
   -0.6571    8.6703   -3.3249 F   0  0  0  0  0  0  0  0  0  0  0  0
   -0.6331    6.7229    1.0546 F   0  0  0  0  0  0  0  0  0  0  0  0
    1.1131    3.4445   -3.5799 C   0  0  0  0  0  0  0  0  0  0  0  0
   -0.0384    3.4185   -4.2125 O   0  0  0  0  0  0  0  0  0  0  0  0
    3.3990    4.6209   -0.8849 C   0  0  0  0  0  0  0  0  0  0  0  0
    4.3916    3.7198   -0.5293 C   0  0  0  0  0  0  0  0  0  0  0  0
    4.3964    2.6764   -1.3373 O   0  0  0  0  0  0  0  0  0  0  0  0
    5.2325    3.8335    0.6676 C   0  0  0  0  0  0  0  0  0  0  0  0
    4.8764    3.2664    1.8389 C   0  0  0  0  0  0  0  0  0  0  0  0
    3.6461    2.4915    2.0417 C   0  0  0  0  0  0  0  0  0  0  0  0
    2.7733    2.2309    1.1749 O   0  0  0  0  0  0  0  0  0  0  0  0
    3.5710    2.0802    3.4164 C   0  0  0  0  0  0  0  0  0  0  0  0
    2.5464    1.3588    4.0254 C   0  0  0  0  0  0  0  0  0  0  0  0
    2.6451    1.0803    5.3966 C   0  0  0  0  0  0  0  0  0  0  0  0
    1.6347    0.3626    6.0518 C   0  0  0  0  0  0  0  0  0  0  0  0
    1.7305    0.1070    7.4224 C   0  0  0  0  0  0  0  0  0  0  0  0
    2.8367    0.5626    8.1468 C   0  0  0  0  0  0  0  0  0  0  0  0
    2.9231    0.3206    9.4790 F   0  0  0  0  0  0  0  0  0  0  0  0
    3.8554    1.2742    7.5080 C   0  0  0  0  0  0  0  0  0  0  0  0
    3.7728    1.5399    6.1314 C   0  0  0  0  0  0  0  0  0  0  0  0
    4.7931    2.2646    5.4817 C   0  0  0  0  0  0  0  0  0  0  0  0
    4.6867    2.5252    4.1018 C   0  0  0  0  0  0  0  0  0  0  0  0
    5.5886    3.2731    3.1641 C   0  0  0  0  0  0  0  0  0  0  0  0
    6.8119    3.7984    3.4566 C   0  0  0  0  0  0  0  0  0  0  0  0
    7.6004    4.5490    2.5153 C   0  0  0  0  0  0  0  0  0  0  0  0
    8.2472    5.1543    1.7696 N   0  0  0  0  0  0  0  0  0  0  0  0
    7.4513    3.6155    4.7289 C   0  0  0  0  0  0  0  0  0  0  0  0
    7.9848    3.4785    5.7479 N   0  0  0  0  0  0  0  0  0  0  0  0
    4.4175   -2.2945    5.5987 H   0  0  0  0  0  0  0  0  0  0  0  0
    5.2367    0.0347   -0.1635 H   0  0  0  0  0  0  0  0  0  0  0  0
    6.6181    1.2698   -1.8004 H   0  0  0  0  0  0  0  0  0  0  0  0
    8.6400    2.5657   -2.3246 H   0  0  0  0  0  0  0  0  0  0  0  0
   10.0569    2.0674    1.6924 H   0  0  0  0  0  0  0  0  0  0  0  0
    8.6844    0.8731    3.3218 H   0  0  0  0  0  0  0  0  0  0  0  0
    2.7564   -4.4634    5.2802 H   0  0  0  0  0  0  0  0  0  0  0  0
    0.5430   -4.9304    6.5748 H   0  0  0  0  0  0  0  0  0  0  0  0
   -0.1929  -10.3910    7.0488 H   0  0  0  0  0  0  0  0  0  0  0  0
    0.4390   -9.3715    8.3759 H   0  0  0  0  0  0  0  0  0  0  0  0
   -1.9188  -10.2426    8.7472 H   0  0  0  0  0  0  0  0  0  0  0  0
   -2.4780   -9.2495    7.3507 H   0  0  0  0  0  0  0  0  0  0  0  0
   -1.8022   -8.4501    8.8292 H   0  0  0  0  0  0  0  0  0  0  0  0
   -0.1710   -7.5892    3.2494 H   0  0  0  0  0  0  0  0  0  0  0  0
    1.4899   -0.9894    0.7453 H   0  0  0  0  0  0  0  0  0  0  0  0
   -0.8022    2.5541   -1.3425 H   0  0  0  0  0  0  0  0  0  0  0  0
   -2.4975    1.9964   -1.2455 H   0  0  0  0  0  0  0  0  0  0  0  0
   -2.8249    3.2320    0.8927 H   0  0  0  0  0  0  0  0  0  0  0  0
   -2.1647    4.3297   -0.3678 H   0  0  0  0  0  0  0  0  0  0  0  0
   -1.0765    3.6756    0.9277 H   0  0  0  0  0  0  0  0  0  0  0  0
   -2.5017   -1.2040    2.3604 H   0  0  0  0  0  0  0  0  0  0  0  0
   -2.4340   -3.1589    0.5756 H   0  0  0  0  0  0  0  0  0  0  0  0
   -5.0630   -6.6476    3.3894 H   0  0  0  0  0  0  0  0  0  0  0  0
   -5.7754   -5.6011    5.5109 H   0  0  0  0  0  0  0  0  0  0  0  0
   -6.4739   -3.2368    5.5723 H   0  0  0  0  0  0  0  0  0  0  0  0
   -5.8751   -0.8675    2.8081 H   0  0  0  0  0  0  0  0  0  0  0  0
   -6.4353   -1.0374    4.5031 H   0  0  0  0  0  0  0  0  0  0  0  0
   -8.1020   -1.7271    1.9830 H   0  0  0  0  0  0  0  0  0  0  0  0
   -8.6688   -1.8570    3.6998 H   0  0  0  0  0  0  0  0  0  0  0  0
   -8.2619   -0.2429    2.9987 H   0  0  0  0  0  0  0  0  0  0  0  0
   -5.6591   -2.8984    1.3573 H   0  0  0  0  0  0  0  0  0  0  0  0
   -3.9704    2.8577   -7.9598 H   0  0  0  0  0  0  0  0  0  0  0  0
   -4.1459    4.9159   -9.2671 H   0  0  0  0  0  0  0  0  0  0  0  0
   -2.9874    6.9630   -8.5348 H   0  0  0  0  0  0  0  0  0  0  0  0
   -1.3280    7.3496   -5.2376 H   0  0  0  0  0  0  0  0  0  0  0  0
   -1.9841    8.2222   -6.6486 H   0  0  0  0  0  0  0  0  0  0  0  0
    0.5044    8.1928   -6.6998 H   0  0  0  0  0  0  0  0  0  0  0  0
   -0.1626    7.2657   -8.0922 H   0  0  0  0  0  0  0  0  0  0  0  0
    0.5059    6.3873   -6.6566 H   0  0  0  0  0  0  0  0  0  0  0  0
   -1.6348    4.9527   -4.9844 H   0  0  0  0  0  0  0  0  0  0  0  0
   -2.7760   -3.7326   -4.4037 H   0  0  0  0  0  0  0  0  0  0  0  0
   -2.6176   -4.4185   -2.8591 H   0  0  0  0  0  0  0  0  0  0  0  0
   -1.7796   -5.9527   -4.6889 H   0  0  0  0  0  0  0  0  0  0  0  0
   -3.4567   -6.0456   -5.3688 H   0  0  0  0  0  0  0  0  0  0  0  0
   -3.1030   -6.7288   -3.7369 H   0  0  0  0  0  0  0  0  0  0  0  0
   -3.8278   -4.0510   -6.3756 H   0  0  0  0  0  0  0  0  0  0  0  0
   -2.4867   -2.8843   -6.7047 H   0  0  0  0  0  0  0  0  0  0  0  0
   -5.3266   -2.8516   -7.9432 H   0  0  0  0  0  0  0  0  0  0  0  0
   -3.9578   -1.7440   -8.3818 H   0  0  0  0  0  0  0  0  0  0  0  0
   -3.8353   -3.5007   -8.7359 H   0  0  0  0  0  0  0  0  0  0  0  0
    1.3000    0.5910   -5.1686 H   0  0  0  0  0  0  0  0  0  0  0  0
    3.1014   -0.0701   -1.4088 H   0  0  0  0  0  0  0  0  0  0  0  0
    6.5622   -3.0794   -4.4282 H   0  0  0  0  0  0  0  0  0  0  0  0
    6.0869   -3.4754   -2.7552 H   0  0  0  0  0  0  0  0  0  0  0  0
    4.3882   -3.9750   -5.2811 H   0  0  0  0  0  0  0  0  0  0  0  0
    5.2814   -5.2059   -4.3104 H   0  0  0  0  0  0  0  0  0  0  0  0
    3.8755   -4.3437   -3.5784 H   0  0  0  0  0  0  0  0  0  0  0  0
    4.3882    1.0420   -5.3640 H   0  0  0  0  0  0  0  0  0  0  0  0
    0.7103    4.8126   -0.0711 H   0  0  0  0  0  0  0  0  0  0  0  0
   -1.3488    9.7924   -1.2357 H   0  0  0  0  0  0  0  0  0  0  0  0
   -1.1156    9.1808    0.4220 H   0  0  0  0  0  0  0  0  0  0  0  0
   -3.5334    9.4246   -0.1522 H   0  0  0  0  0  0  0  0  0  0  0  0
   -3.1204    7.7038    0.1927 H   0  0  0  0  0  0  0  0  0  0  0  0
   -3.3446    8.2611   -1.5175 H   0  0  0  0  0  0  0  0  0  0  0  0
    0.6108    6.4922   -4.0294 H   0  0  0  0  0  0  0  0  0  0  0  0
    3.1377    5.5377   -0.3742 H   0  0  0  0  0  0  0  0  0  0  0  0
    6.1189    4.4217    0.5629 H   0  0  0  0  0  0  0  0  0  0  0  0
    1.6919    1.0266    3.4462 H   0  0  0  0  0  0  0  0  0  0  0  0
    0.7662    0.0073    5.5075 H   0  0  0  0  0  0  0  0  0  0  0  0
    0.9460   -0.4436    7.9218 H   0  0  0  0  0  0  0  0  0  0  0  0
    4.7032    1.6224    8.0883 H   0  0  0  0  0  0  0  0  0  0  0  0
    5.6244    2.6130    6.0692 H   0  0  0  0  0  0  0  0  0  0  0  0
  1  2  2  3
  2  3  1  0
  3  4  2  0
  3  5  1  0
  5  6  2  0
  6  7  1  0
  7  8  2  0
  8  9  1  0
  9 10  2  0
 10 11  1  0
 10 12  1  0
 12 13  2  0
 13 14  1  0
 14 15  2  0
 15 16  1  0
 16 17  2  3
 17 18  1  0
 18 19  3  0
 17 20  1  0
 20 21  3  0
  1 22  1  0
 22 23  2  0
 23 24  1  0
 24 25  2  0
 25 26  1  0
 26 27  2  0
 27 28  1  0
 28 29  1  0
 28 30  2  0
 30 31  1  0
 31 32  1  0
 30 33  1  0
 33 34  1  0
 33 35  2  0
 25 36  1  0
 36 37  2  0
 37 38  1  0
 38 39  1  0
 39 40  2  0
 40 41  1  0
 41 42  2  0
 42 43  1  0
 43 44  1  0
 42 45  1  0
 45 46  2  0
 45 47  1  0
 41 48  1  0
 38 49  2  0
 49 50  1  0
 37 51  1  0
 51 52  2  0
 52 53  1  0
 52 54  1  0
 54 55  2  0
 55 56  1  0
 56 57  2  0
 57 58  1  0
 58 59  2  0
 59 60  1  0
 60 61  1  0
 61 62  1  0
 60 63  2  0
 55 64  1  0
 64 65  1  0
 65 66  1  0
 66 67  1  0
 67 68  1  0
 68 69  1  0
 69 70  2  0
 70 71  1  0
 71 72  1  0
 69 73  1  0
 73 74  1  0
 74 75  1  0
 75 76  1  0
 76 77  1  0
 77 78  1  0
 78 79  2  0
 79 80  1  0
 80 81  2  0
 81 82  1  0
 82 83  1  0
 83 84  1  0
 82 85  2  0
 77 86  2  0
 86 87  1  0
 87 88  1  0
 88 89  1  0
 89 90  1  0
 90 91  1  0
 91 92  1  0
 92 93  1  0
 93 94  1  0
 94 95  1  0
 95 96  1  0
 93 97  1  0
 97 98  1  0
 90 99  1  0
 99100  1  0
 86101  1  0
101102  2  0
102103  1  0
103104  2  0
104105  1  0
105106  2  0
106107  1  0
107108  1  0
107109  2  0
109110  1  0
110111  1  0
109112  1  0
112113  1  0
112114  2  0
104115  1  0
115116  2  0
116117  1  0
117118  1  0
118119  2  0
119120  1  0
120121  2  0
121122  1  0
122123  1  0
121124  1  0
124125  2  0
124126  1  0
120127  1  0
117128  2  0
128129  1  0
116130  1  0
130131  2  0
131132  1  0
131133  1  0
133134  2  3
134135  1  0
135136  2  0
135137  1  0
137138  2  0
138139  1  0
139140  2  0
140141  1  0
141142  2  0
142143  1  0
142144  1  0
144145  2  0
145146  1  0
146147  2  0
147148  1  0
148149  2  3
149150  1  0
150151  3  0
149152  1  0
152153  3  0
 16  2  1  0
 50 22  1  0
 96 54  1  0
129101  1  0
148134  1  0
 15  5  1  0
 49 24  1  0
 63 56  1  0
 95 64  2  0
128103  1  0
147137  1  0
 13  7  1  0
 35 26  1  0
 53 36  1  0
 94 66  2  0
114105  1  0
132115  1  0
145139  1  0
 46 39  1  0
 92 67  2  0
125118  1  0
 72 68  2  0
 91 73  2  0
 89 74  2  0
 88 76  2  0
 85 78  1  0
  1154  1  0
  6155  1  0
  8156  1  0
  9157  1  0
 12158  1  0
 14159  1  0
 23160  1  0
 27161  1  0
 31162  1  0
 31163  1  0
 32164  1  0
 32165  1  0
 32166  1  0
 35167  1  0
 40168  1  0
 43169  1  0
 43170  1  0
 44171  1  0
 44172  1  0
 44173  1  0
 46174  1  0
 51175  1  0
 57176  1  0
 58177  1  0
 59178  1  0
 61179  1  0
 61180  1  0
 62181  1  0
 62182  1  0
 62183  1  0
 63184  1  0
 79185  1  0
 80186  1  0
 81187  1  0
 83188  1  0
 83189  1  0
 84190  1  0
 84191  1  0
 84192  1  0
 85193  1  0
 97194  1  0
 97195  1  0
 98196  1  0
 98197  1  0
 98198  1  0
 99199  1  0
 99200  1  0
100201  1  0
100202  1  0
100203  1  0
102204  1  0
106205  1  0
110206  1  0
110207  1  0
111208  1  0
111209  1  0
111210  1  0
114211  1  0
119212  1  0
122213  1  0
122214  1  0
123215  1  0
123216  1  0
123217  1  0
125218  1  0
130219  1  0
133220  1  0
138221  1  0
140222  1  0
141223  1  0
144224  1  0
146225  1  0
M  END

