
     RDKit          3D

192212  0  0  0  0  0  0  0  0999 V2000
   -0.7169    7.7736    5.4522 C   0  0  0  0  0  0  0  0  0  0  0  0
   -1.9531    8.2495    5.2080 C   0  0  0  0  0  0  0  0  0  0  0  0
   -2.6566    9.1303    6.1354 C   0  0  0  0  0  0  0  0  0  0  0  0
   -2.3743    9.3032    7.3517 O   0  0  0  0  0  0  0  0  0  0  0  0
   -3.6868    9.8332    5.3995 C   0  0  0  0  0  0  0  0  0  0  0  0
   -4.5758   10.7995    5.8706 C   0  0  0  0  0  0  0  0  0  0  0  0
   -5.5124   11.3445    4.9759 C   0  0  0  0  0  0  0  0  0  0  0  0
   -6.4406   12.3017    5.4103 C   0  0  0  0  0  0  0  0  0  0  0  0
   -7.3771   12.8313    4.5166 C   0  0  0  0  0  0  0  0  0  0  0  0
   -7.3968   12.4091    3.1834 C   0  0  0  0  0  0  0  0  0  0  0  0
   -8.3150   12.9209    2.3231 F   0  0  0  0  0  0  0  0  0  0  0  0
   -6.4723   11.4608    2.7321 C   0  0  0  0  0  0  0  0  0  0  0  0
   -5.5261   10.9195    3.6174 C   0  0  0  0  0  0  0  0  0  0  0  0
   -4.6066    9.9502    3.1698 C   0  0  0  0  0  0  0  0  0  0  0  0
   -3.6911    9.4010    4.0818 C   0  0  0  0  0  0  0  0  0  0  0  0
   -2.6969    8.3036    3.9132 C   0  0  0  0  0  0  0  0  0  0  0  0
   -2.7495    7.3254    2.9756 C   0  0  0  0  0  0  0  0  0  0  0  0
   -3.4172    7.4877    1.7128 C   0  0  0  0  0  0  0  0  0  0  0  0
   -3.9448    7.6010    0.6878 N   0  0  0  0  0  0  0  0  0  0  0  0
   -2.2765    5.9916    3.2420 C   0  0  0  0  0  0  0  0  0  0  0  0
   -1.9257    4.9071    3.4406 N   0  0  0  0  0  0  0  0  0  0  0  0
    0.1910    7.2686    4.4028 C   0  0  0  0  0  0  0  0  0  0  0  0
    0.7460    5.9696    4.4521 C   0  0  0  0  0  0  0  0  0  0  0  0
    0.6047    5.0511    5.5054 C   0  0  0  0  0  0  0  0  0  0  0  0
    1.1907    3.8187    5.2263 C   0  0  0  0  0  0  0  0  0  0  0  0
    1.2466    2.6655    6.1324 C   0  0  0  0  0  0  0  0  0  0  0  0
    0.6815    2.7195    7.2579 O   0  0  0  0  0  0  0  0  0  0  0  0
    1.9411    1.5183    5.7378 O   0  0  0  0  0  0  0  0  0  0  0  0
    2.0678    0.3705    6.5695 C   0  0  0  0  0  0  0  0  0  0  0  0
    2.9065   -0.6801    5.8606 C   0  0  0  0  0  0  0  0  0  0  0  0
    1.8596    3.8532    3.6791 S   0  0  0  0  0  0  0  0  0  0  0  0
    1.4435    5.4489    3.3469 C   0  0  0  0  0  0  0  0  0  0  0  0
    1.6621    6.1975    2.1654 C   0  0  0  0  0  0  0  0  0  0  0  0
    1.2178    7.5258    2.2131 C   0  0  0  0  0  0  0  0  0  0  0  0
    0.5067    8.0309    3.2689 C   0  0  0  0  0  0  0  0  0  0  0  0
    0.2092    9.3140    3.0137 N   0  0  0  0  0  0  0  0  0  0  0  0
    0.7439    9.5547    1.8194 N   0  0  0  0  0  0  0  0  0  0  0  0
    0.6971   10.8555    1.1643 C   0  0  0  0  0  0  0  0  0  0  0  0
    1.9670   11.6388    1.4668 C   0  0  0  0  0  0  0  0  0  0  0  0
    1.3758    8.5028    1.3054 N   0  0  0  0  0  0  0  0  0  0  0  0
    2.2415    5.6110    0.9359 C   0  0  0  0  0  0  0  0  0  0  0  0
    1.6654    5.6506   -0.3580 C   0  0  0  0  0  0  0  0  0  0  0  0
    0.2627    6.1114   -0.6728 C   0  0  0  0  0  0  0  0  0  0  0  0
   -0.7465    5.0123   -0.3566 C   0  0  0  0  0  0  0  0  0  0  0  0
    2.3979    4.8598   -1.2525 C   0  0  0  0  0  0  0  0  0  0  0  0
    1.9704    4.1919   -2.7605 S   0  0  0  0  0  0  0  0  0  0  0  0
    3.2186    3.0498   -2.6662 C   0  0  0  0  0  0  0  0  0  0  0  0
    3.3038    1.7529   -3.0937 C   0  0  0  0  0  0  0  0  0  0  0  0
    2.6956    1.0975   -4.1715 C   0  0  0  0  0  0  0  0  0  0  0  0
    1.8929    1.7531   -5.0468 N   0  0  0  0  0  0  0  0  0  0  0  0
    1.1970    1.0898   -6.0093 C   0  0  0  0  0  0  0  0  0  0  0  0
    0.2162    1.8560   -6.7974 C   0  0  0  0  0  0  0  0  0  0  0  0
   -1.4180    1.4702   -6.9612 S   0  0  0  0  0  0  0  0  0  0  0  0
   -1.8582    2.8719   -7.7748 C   0  0  0  0  0  0  0  0  0  0  0  0
   -3.2575    3.2402   -8.1544 C   0  0  0  0  0  0  0  0  0  0  0  0
   -3.9605    3.9423   -6.9969 C   0  0  0  0  0  0  0  0  0  0  0  0
   -0.7358    3.6834   -7.8865 C   0  0  0  0  0  0  0  0  0  0  0  0
    0.4246    3.1214   -7.3367 C   0  0  0  0  0  0  0  0  0  0  0  0
   -0.7605    4.9173   -8.4478 F   0  0  0  0  0  0  0  0  0  0  0  0
    1.3315   -0.3202   -6.1063 C   0  0  0  0  0  0  0  0  0  0  0  0
    0.5514   -1.1325   -7.0530 C   0  0  0  0  0  0  0  0  0  0  0  0
    0.3471   -0.8762   -8.4054 C   0  0  0  0  0  0  0  0  0  0  0  0
   -0.5276   -1.7884   -9.0069 C   0  0  0  0  0  0  0  0  0  0  0  0
   -0.9120   -1.6975  -10.3026 F   0  0  0  0  0  0  0  0  0  0  0  0
   -0.9888   -2.7762   -8.1428 C   0  0  0  0  0  0  0  0  0  0  0  0
   -2.0412   -3.7976   -8.4498 C   0  0  0  0  0  0  0  0  0  0  0  0
   -3.4339   -3.2207   -8.2107 C   0  0  0  0  0  0  0  0  0  0  0  0
   -0.3311   -2.4994   -6.6213 S   0  0  0  0  0  0  0  0  0  0  0  0
    2.1526   -0.9673   -5.2369 N   0  0  0  0  0  0  0  0  0  0  0  0
    2.8494   -0.3015   -4.2799 C   0  0  0  0  0  0  0  0  0  0  0  0
    3.5494   -0.9860   -3.2665 C   0  0  0  0  0  0  0  0  0  0  0  0
    3.4607   -2.3106   -2.9445 C   0  0  0  0  0  0  0  0  0  0  0  0
    2.6181   -3.6224   -3.6137 S   0  0  0  0  0  0  0  0  0  0  0  0
    2.4653   -4.3508   -2.0934 C   0  0  0  0  0  0  0  0  0  0  0  0
    1.7105   -5.4393   -1.6664 C   0  0  0  0  0  0  0  0  0  0  0  0
    1.1067   -6.4505   -2.6037 C   0  0  0  0  0  0  0  0  0  0  0  0
    2.1597   -7.4642   -3.0395 C   0  0  0  0  0  0  0  0  0  0  0  0
    1.6492   -5.4845   -0.2644 C   0  0  0  0  0  0  0  0  0  0  0  0
    2.5136   -4.1676    0.3978 S   0  0  0  0  0  0  0  0  0  0  0  0
    2.9910   -3.5651   -1.1013 C   0  0  0  0  0  0  0  0  0  0  0  0
    3.5959   -2.4031   -1.5917 C   0  0  0  0  0  0  0  0  0  0  0  0
    3.8593   -1.1978   -1.0121 N   0  0  0  0  0  0  0  0  0  0  0  0
    3.3874   -0.8479    0.3366 C   0  0  0  0  0  0  0  0  0  0  0  0
    1.9121   -0.4441    0.3116 C   0  0  0  0  0  0  0  0  0  0  0  0
    3.9512   -0.3400   -2.0847 C   0  0  0  0  0  0  0  0  0  0  0  0
    3.9704    1.0696   -2.0755 C   0  0  0  0  0  0  0  0  0  0  0  0
    4.3917    1.9273   -1.1025 N   0  0  0  0  0  0  0  0  0  0  0  0
    3.8938    3.1276   -1.4823 C   0  0  0  0  0  0  0  0  0  0  0  0
    3.4588    4.1857   -0.6983 C   0  0  0  0  0  0  0  0  0  0  0  0
    3.5704    4.5393    0.9310 S   0  0  0  0  0  0  0  0  0  0  0  0
    5.5063    1.7321   -0.1666 C   0  0  0  0  0  0  0  0  0  0  0  0
    6.7240    2.5551   -0.5801 C   0  0  0  0  0  0  0  0  0  0  0  0
    0.7753   -6.3846    0.5047 C   0  0  0  0  0  0  0  0  0  0  0  0
    1.2698   -7.4147    1.3354 C   0  0  0  0  0  0  0  0  0  0  0  0
    2.6122   -7.6322    1.6816 C   0  0  0  0  0  0  0  0  0  0  0  0
    2.7797   -8.7492    2.5025 C   0  0  0  0  0  0  0  0  0  0  0  0
    4.0486   -9.2085    3.0732 C   0  0  0  0  0  0  0  0  0  0  0  0
    5.1287   -8.6421    2.7506 O   0  0  0  0  0  0  0  0  0  0  0  0
    4.0492  -10.2691    3.9835 O   0  0  0  0  0  0  0  0  0  0  0  0
    5.2437  -10.7705    4.5752 C   0  0  0  0  0  0  0  0  0  0  0  0
    4.9020  -11.8640    5.5762 C   0  0  0  0  0  0  0  0  0  0  0  0
    1.2824   -9.4860    2.7744 S   0  0  0  0  0  0  0  0  0  0  0  0
    0.3949   -8.3785    1.8718 C   0  0  0  0  0  0  0  0  0  0  0  0
   -0.9873   -8.3787    1.5993 C   0  0  0  0  0  0  0  0  0  0  0  0
   -1.4550   -7.2915    0.8514 C   0  0  0  0  0  0  0  0  0  0  0  0
   -0.6155   -6.3477    0.3267 C   0  0  0  0  0  0  0  0  0  0  0  0
   -1.3454   -5.4846   -0.3988 N   0  0  0  0  0  0  0  0  0  0  0  0
   -2.5969   -5.9212   -0.2906 N   0  0  0  0  0  0  0  0  0  0  0  0
   -3.7347   -5.2467   -0.9016 C   0  0  0  0  0  0  0  0  0  0  0  0
   -4.2023   -4.0939   -0.0198 C   0  0  0  0  0  0  0  0  0  0  0  0
   -2.7105   -7.0177    0.4599 N   0  0  0  0  0  0  0  0  0  0  0  0
   -1.8730   -9.4801    2.0161 C   0  0  0  0  0  0  0  0  0  0  0  0
   -2.5540  -10.2473    1.1378 C   0  0  0  0  0  0  0  0  0  0  0  0
   -2.3221  -10.2990   -0.3130 C   0  0  0  0  0  0  0  0  0  0  0  0
   -1.5989   -9.5139   -0.9815 O   0  0  0  0  0  0  0  0  0  0  0  0
   -2.9684  -11.4869   -0.8421 C   0  0  0  0  0  0  0  0  0  0  0  0
   -3.5949  -12.1638    0.1930 C   0  0  0  0  0  0  0  0  0  0  0  0
   -4.1764  -13.4188   -0.0437 C   0  0  0  0  0  0  0  0  0  0  0  0
   -4.1740  -13.9376   -1.3456 C   0  0  0  0  0  0  0  0  0  0  0  0
   -3.5800  -13.2267   -2.4031 C   0  0  0  0  0  0  0  0  0  0  0  0
   -3.6156  -13.9930   -4.1595 Br  0  0  0  0  0  0  0  0  0  0  0  0
   -2.9551  -11.9869   -2.1541 C   0  0  0  0  0  0  0  0  0  0  0  0
   -2.1899  -11.0878   -3.4590 Cl  0  0  0  0  0  0  0  0  0  0  0  0
   -3.4686  -11.3854    1.4576 C   0  0  0  0  0  0  0  0  0  0  0  0
   -4.2293  -11.5192    2.5750 C   0  0  0  0  0  0  0  0  0  0  0  0
   -5.2084  -12.5637    2.7260 C   0  0  0  0  0  0  0  0  0  0  0  0
   -6.0006  -13.3969    2.8586 N   0  0  0  0  0  0  0  0  0  0  0  0
   -4.2245  -10.5405    3.6301 C   0  0  0  0  0  0  0  0  0  0  0  0
   -4.2303   -9.7575    4.4827 N   0  0  0  0  0  0  0  0  0  0  0  0
   -0.3198    7.8317    6.4595 H   0  0  0  0  0  0  0  0  0  0  0  0
   -4.5498   11.1111    6.9070 H   0  0  0  0  0  0  0  0  0  0  0  0
   -6.4495   12.6369    6.4397 H   0  0  0  0  0  0  0  0  0  0  0  0
   -8.0934   13.5652    4.8561 H   0  0  0  0  0  0  0  0  0  0  0  0
   -6.5065   11.1421    1.6966 H   0  0  0  0  0  0  0  0  0  0  0  0
   -4.6166    9.6574    2.1346 H   0  0  0  0  0  0  0  0  0  0  0  0
    0.0925    5.2718    6.4314 H   0  0  0  0  0  0  0  0  0  0  0  0
    2.5612    0.6515    7.5251 H   0  0  0  0  0  0  0  0  0  0  0  0
    1.0602   -0.0448    6.7868 H   0  0  0  0  0  0  0  0  0  0  0  0
    3.9220   -0.2795    5.6569 H   0  0  0  0  0  0  0  0  0  0  0  0
    2.9965   -1.5838    6.4986 H   0  0  0  0  0  0  0  0  0  0  0  0
    2.4270   -0.9625    4.8996 H   0  0  0  0  0  0  0  0  0  0  0  0
   -0.1864   11.4270    1.5223 H   0  0  0  0  0  0  0  0  0  0  0  0
    0.6011   10.7168    0.0639 H   0  0  0  0  0  0  0  0  0  0  0  0
    2.8535   11.0983    1.0693 H   0  0  0  0  0  0  0  0  0  0  0  0
    1.9128   12.6386    0.9856 H   0  0  0  0  0  0  0  0  0  0  0  0
    2.0807   11.7749    2.5639 H   0  0  0  0  0  0  0  0  0  0  0  0
    0.1896    6.3753   -1.7488 H   0  0  0  0  0  0  0  0  0  0  0  0
   -0.0105    7.0143   -0.1025 H   0  0  0  0  0  0  0  0  0  0  0  0
   -0.6961    4.7397    0.7189 H   0  0  0  0  0  0  0  0  0  0  0  0
   -1.7715    5.3713   -0.5887 H   0  0  0  0  0  0  0  0  0  0  0  0
   -0.5415    4.1094   -0.9694 H   0  0  0  0  0  0  0  0  0  0  0  0
   -3.8220    2.3216   -8.4248 H   0  0  0  0  0  0  0  0  0  0  0  0
   -3.2428    3.9101   -9.0430 H   0  0  0  0  0  0  0  0  0  0  0  0
   -4.9992    4.1978   -7.2937 H   0  0  0  0  0  0  0  0  0  0  0  0
   -3.9965    3.2748   -6.1078 H   0  0  0  0  0  0  0  0  0  0  0  0
   -3.4238    4.8773   -6.7341 H   0  0  0  0  0  0  0  0  0  0  0  0
    1.3771    3.6376   -7.3085 H   0  0  0  0  0  0  0  0  0  0  0  0
    0.7887   -0.0415   -8.9355 H   0  0  0  0  0  0  0  0  0  0  0  0
   -1.8938   -4.6840   -7.7970 H   0  0  0  0  0  0  0  0  0  0  0  0
   -1.9490   -4.1222   -9.5086 H   0  0  0  0  0  0  0  0  0  0  0  0
   -4.2005   -3.9878   -8.4486 H   0  0  0  0  0  0  0  0  0  0  0  0
   -3.5464   -2.9159   -7.1470 H   0  0  0  0  0  0  0  0  0  0  0  0
   -3.5976   -2.3354   -8.8643 H   0  0  0  0  0  0  0  0  0  0  0  0
    0.6975   -5.9341   -3.4985 H   0  0  0  0  0  0  0  0  0  0  0  0
    0.2673   -6.9940   -2.1247 H   0  0  0  0  0  0  0  0  0  0  0  0
    2.5542   -8.0097   -2.1553 H   0  0  0  0  0  0  0  0  0  0  0  0
    2.9970   -6.9509   -3.5607 H   0  0  0  0  0  0  0  0  0  0  0  0
    1.7005   -8.1959   -3.7354 H   0  0  0  0  0  0  0  0  0  0  0  0
    3.9680   -0.0279    0.7838 H   0  0  0  0  0  0  0  0  0  0  0  0
    3.5295   -1.7037    1.0264 H   0  0  0  0  0  0  0  0  0  0  0  0
    1.7933    0.5557   -0.1646 H   0  0  0  0  0  0  0  0  0  0  0  0
    1.5065   -0.3960    1.3419 H   0  0  0  0  0  0  0  0  0  0  0  0
    1.3203   -1.1842   -0.2659 H   0  0  0  0  0  0  0  0  0  0  0  0
    5.8235    0.6683   -0.1542 H   0  0  0  0  0  0  0  0  0  0  0  0
    5.1909    2.0245    0.8548 H   0  0  0  0  0  0  0  0  0  0  0  0
    7.5603    2.3607    0.1221 H   0  0  0  0  0  0  0  0  0  0  0  0
    6.4851    3.6380   -0.5573 H   0  0  0  0  0  0  0  0  0  0  0  0
    7.0401    2.2693   -1.6050 H   0  0  0  0  0  0  0  0  0  0  0  0
    3.4288   -6.9981    1.3668 H   0  0  0  0  0  0  0  0  0  0  0  0
    5.9041  -11.1886    3.7838 H   0  0  0  0  0  0  0  0  0  0  0  0
    5.7791   -9.9505    5.1027 H   0  0  0  0  0  0  0  0  0  0  0  0
    4.3396  -11.4363    6.4318 H   0  0  0  0  0  0  0  0  0  0  0  0
    4.2809  -12.6443    5.0918 H   0  0  0  0  0  0  0  0  0  0  0  0
    5.8356  -12.3288    5.9565 H   0  0  0  0  0  0  0  0  0  0  0  0
   -3.4406   -4.8517   -1.8993 H   0  0  0  0  0  0  0  0  0  0  0  0
   -4.5741   -5.9634   -1.0442 H   0  0  0  0  0  0  0  0  0  0  0  0
   -4.5721   -4.4801    0.9533 H   0  0  0  0  0  0  0  0  0  0  0  0
   -3.3660   -3.3872    0.1642 H   0  0  0  0  0  0  0  0  0  0  0  0
   -5.0258   -3.5453   -0.5280 H   0  0  0  0  0  0  0  0  0  0  0  0
   -1.8912   -9.7158    3.0710 H   0  0  0  0  0  0  0  0  0  0  0  0
   -4.5863  -14.0198    0.7457 H   0  0  0  0  0  0  0  0  0  0  0  0
   -4.6254  -14.9035   -1.5370 H   0  0  0  0  0  0  0  0  0  0  0  0
  1  2  2  3
  2  3  1  0
  3  4  2  0
  3  5  1  0
  5  6  2  0
  6  7  1  0
  7  8  2  0
  8  9  1  0
  9 10  2  0
 10 11  1  0
 10 12  1  0
 12 13  2  0
 13 14  1  0
 14 15  2  0
 15 16  1  0
 16 17  2  3
 17 18  1  0
 18 19  3  0
 17 20  1  0
 20 21  3  0
  1 22  1  0
 22 23  2  0
 23 24  1  0
 24 25  2  0
 25 26  1  0
 26 27  2  0
 26 28  1  0
 28 29  1  0
 29 30  1  0
 25 31  1  0
 31 32  1  0
 32 33  2  0
 33 34  1  0
 34 35  1  0
 35 36  2  0
 36 37  1  0
 37 38  1  0
 38 39  1  0
 37 40  1  0
 33 41  1  0
 41 42  2  0
 42 43  1  0
 43 44  1  0
 42 45  1  0
 45 46  1  0
 46 47  1  0
 47 48  1  0
 48 49  2  0
 49 50  1  0
 50 51  2  0
 51 52  1  0
 52 53  1  0
 53 54  1  0
 54 55  1  0
 55 56  1  0
 54 57  2  0
 57 58  1  0
 57 59  1  0
 51 60  1  0
 60 61  1  0
 61 62  2  0
 62 63  1  0
 63 64  1  0
 63 65  2  0
 65 66  1  0
 66 67  1  0
 65 68  1  0
 60 69  2  0
 69 70  1  0
 70 71  2  0
 71 72  1  0
 72 73  1  0
 73 74  1  0
 74 75  1  0
 75 76  1  0
 76 77  1  0
 75 78  2  0
 78 79  1  0
 79 80  1  0
 80 81  1  0
 81 82  1  0
 82 83  1  0
 83 84  1  0
 82 85  1  0
 85 86  2  0
 86 87  1  0
 87 88  1  0
 88 89  1  0
 89 90  1  0
 87 91  1  0
 91 92  1  0
 78 93  1  0
 93 94  2  0
 94 95  1  0
 95 96  2  0
 96 97  1  0
 97 98  2  0
 97 99  1  0
 99100  1  0
100101  1  0
 96102  1  0
102103  1  0
103104  2  0
104105  1  0
105106  1  0
106107  2  0
107108  1  0
108109  1  0
109110  1  0
108111  1  0
104112  1  0
112113  2  3
113114  1  0
114115  2  0
114116  1  0
116117  2  0
117118  1  0
118119  2  0
119120  1  0
120121  1  0
120122  2  0
122123  1  0
117124  1  0
124125  2  3
125126  1  0
126127  3  0
125128  1  0
128129  3  0
 16  2  1  0
 35 22  1  0
 90 41  1  0
106 93  1  0
124113  1  0
 15  5  1  0
 32 23  1  0
 40 34  2  0
 89 45  2  0
103 94  1  0
111105  2  0
122116  1  0
 13  7  1  0
 88 47  2  0
 86 48  1  0
 70 49  1  0
 85 71  1  0
 58 52  2  0
 68 61  1  0
 81 72  2  0
 80 74  2  0
  1130  1  0
  6131  1  0
  8132  1  0
  9133  1  0
 12134  1  0
 14135  1  0
 24136  1  0
 29137  1  0
 29138  1  0
 30139  1  0
 30140  1  0
 30141  1  0
 38142  1  0
 38143  1  0
 39144  1  0
 39145  1  0
 39146  1  0
 43147  1  0
 43148  1  0
 44149  1  0
 44150  1  0
 44151  1  0
 55152  1  0
 55153  1  0
 56154  1  0
 56155  1  0
 56156  1  0
 58157  1  0
 62158  1  0
 66159  1  0
 66160  1  0
 67161  1  0
 67162  1  0
 67163  1  0
 76164  1  0
 76165  1  0
 77166  1  0
 77167  1  0
 77168  1  0
 83169  1  0
 83170  1  0
 84171  1  0
 84172  1  0
 84173  1  0
 91174  1  0
 91175  1  0
 92176  1  0
 92177  1  0
 92178  1  0
 95179  1  0
100180  1  0
100181  1  0
101182  1  0
101183  1  0
101184  1  0
109185  1  0
109186  1  0
110187  1  0
110188  1  0
110189  1  0
112190  1  0
118191  1  0
119192  1  0
M  END

