
     RDKit          3D

189210  0  0  0  0  0  0  0  0999 V2000
    7.4907   -2.7274    4.8215 C   0  0  0  0  0  0  0  0  0  0  0  0
    7.4066   -3.7889    3.9907 C   0  0  0  0  0  0  0  0  0  0  0  0
    6.4271   -4.8520    4.2092 C   0  0  0  0  0  0  0  0  0  0  0  0
    6.0199   -5.2672    5.3266 O   0  0  0  0  0  0  0  0  0  0  0  0
    5.9230   -5.2709    2.9122 C   0  0  0  0  0  0  0  0  0  0  0  0
    4.7546   -5.9784    2.6295 C   0  0  0  0  0  0  0  0  0  0  0  0
    4.2820   -5.9957    1.3031 C   0  0  0  0  0  0  0  0  0  0  0  0
    3.0655   -6.6227    0.9887 C   0  0  0  0  0  0  0  0  0  0  0  0
    2.5517   -6.5457   -0.3057 C   0  0  0  0  0  0  0  0  0  0  0  0
    3.2464   -5.8557   -1.3031 C   0  0  0  0  0  0  0  0  0  0  0  0
    2.7199   -5.7556   -2.5457 F   0  0  0  0  0  0  0  0  0  0  0  0
    4.4660   -5.2364   -1.0113 C   0  0  0  0  0  0  0  0  0  0  0  0
    4.9973   -5.2977    0.2867 C   0  0  0  0  0  0  0  0  0  0  0  0
    6.1986   -4.6293    0.5956 C   0  0  0  0  0  0  0  0  0  0  0  0
    6.6438   -4.6309    1.9213 C   0  0  0  0  0  0  0  0  0  0  0  0
    7.7244   -3.8368    2.5406 C   0  0  0  0  0  0  0  0  0  0  0  0
    8.9426   -3.5968    2.0082 C   0  0  0  0  0  0  0  0  0  0  0  0
    9.2273   -3.8166    0.6179 C   0  0  0  0  0  0  0  0  0  0  0  0
    9.4683   -3.9851   -0.4998 N   0  0  0  0  0  0  0  0  0  0  0  0
   10.0453   -3.1860    2.8433 C   0  0  0  0  0  0  0  0  0  0  0  0
   10.9207   -2.8696    3.5239 N   0  0  0  0  0  0  0  0  0  0  0  0
    7.6196   -1.3135    4.3854 C   0  0  0  0  0  0  0  0  0  0  0  0
    7.2234   -0.2352    5.1860 C   0  0  0  0  0  0  0  0  0  0  0  0
    7.0794    0.9644    4.4692 C   0  0  0  0  0  0  0  0  0  0  0  0
    6.5238    2.1667    4.9496 C   0  0  0  0  0  0  0  0  0  0  0  0
    6.1839    2.3289    6.2923 O   0  0  0  0  0  0  0  0  0  0  0  0
    4.9300    1.8825    6.7966 C   0  0  0  0  0  0  0  0  0  0  0  0
    4.9156    2.0118    8.3112 C   0  0  0  0  0  0  0  0  0  0  0  0
    6.2852    3.1831    4.0093 C   0  0  0  0  0  0  0  0  0  0  0  0
    6.6081    3.0363    2.6575 C   0  0  0  0  0  0  0  0  0  0  0  0
    7.2248    1.8643    2.1932 C   0  0  0  0  0  0  0  0  0  0  0  0
    7.5870    1.6795    0.8531 O   0  0  0  0  0  0  0  0  0  0  0  0
    8.5327    2.5146    0.1832 C   0  0  0  0  0  0  0  0  0  0  0  0
    9.9340    2.2917    0.7468 C   0  0  0  0  0  0  0  0  0  0  0  0
    7.4070    0.8362    3.1188 C   0  0  0  0  0  0  0  0  0  0  0  0
    7.8288   -0.7452    2.8019 S   0  0  0  0  0  0  0  0  0  0  0  0
    6.0607    4.0310    1.8478 C   0  0  0  0  0  0  0  0  0  0  0  0
    5.3220    4.9783    2.5550 C   0  0  0  0  0  0  0  0  0  0  0  0
    5.3312    4.5578    4.1952 S   0  0  0  0  0  0  0  0  0  0  0  0
    4.3478    5.8776    1.9199 C   0  0  0  0  0  0  0  0  0  0  0  0
    4.5046    6.4858    0.6537 C   0  0  0  0  0  0  0  0  0  0  0  0
    5.7732    6.5428   -0.0928 C   0  0  0  0  0  0  0  0  0  0  0  0
    6.8355    7.3162    0.3988 C   0  0  0  0  0  0  0  0  0  0  0  0
    8.0740    7.2980   -0.2474 C   0  0  0  0  0  0  0  0  0  0  0  0
    8.2739    6.4769   -1.3603 C   0  0  0  0  0  0  0  0  0  0  0  0
    7.2292    5.6682   -1.8376 C   0  0  0  0  0  0  0  0  0  0  0  0
    7.4597    4.7386   -2.9977 C   0  0  0  0  0  0  0  0  0  0  0  0
    7.0305    5.3876   -4.3078 C   0  0  0  0  0  0  0  0  0  0  0  0
    5.9667    5.7381   -1.2279 C   0  0  0  0  0  0  0  0  0  0  0  0
    3.2763    6.9042    0.1410 C   0  0  0  0  0  0  0  0  0  0  0  0
    2.7706    7.4288   -1.4079 S   0  0  0  0  0  0  0  0  0  0  0  0
    1.1421    7.3055   -0.9433 C   0  0  0  0  0  0  0  0  0  0  0  0
   -0.1139    7.3393   -1.4947 C   0  0  0  0  0  0  0  0  0  0  0  0
   -0.5824    7.7198   -2.7549 C   0  0  0  0  0  0  0  0  0  0  0  0
   -1.9828    7.6131   -3.0248 C   0  0  0  0  0  0  0  0  0  0  0  0
   -2.3899    7.9604   -4.2701 N   0  0  0  0  0  0  0  0  0  0  0  0
   -0.9354    8.3928   -4.9334 S   0  0  0  0  0  0  0  0  0  0  0  0
    0.2107    8.1655   -3.7580 N   0  0  0  0  0  0  0  0  0  0  0  0
   -2.8282    7.0720   -2.0390 C   0  0  0  0  0  0  0  0  0  0  0  0
   -4.0770    6.5168   -2.1738 C   0  0  0  0  0  0  0  0  0  0  0  0
   -5.0149    6.1007   -3.5271 S   0  0  0  0  0  0  0  0  0  0  0  0
   -5.6823    4.7508   -2.7424 C   0  0  0  0  0  0  0  0  0  0  0  0
   -6.3026    3.6029   -3.2653 C   0  0  0  0  0  0  0  0  0  0  0  0
   -7.1162    3.6053   -4.5175 C   0  0  0  0  0  0  0  0  0  0  0  0
   -7.8898    4.7405   -4.8256 C   0  0  0  0  0  0  0  0  0  0  0  0
   -8.7873    4.7274   -5.8959 C   0  0  0  0  0  0  0  0  0  0  0  0
   -8.9350    3.5787   -6.6712 C   0  0  0  0  0  0  0  0  0  0  0  0
   -8.1550    2.4448   -6.4049 C   0  0  0  0  0  0  0  0  0  0  0  0
   -8.3767    1.1788   -7.1877 C   0  0  0  0  0  0  0  0  0  0  0  0
   -9.4411    0.3153   -6.5168 C   0  0  0  0  0  0  0  0  0  0  0  0
   -7.2394    2.4658   -5.3375 C   0  0  0  0  0  0  0  0  0  0  0  0
   -6.1637    2.5132   -2.3695 C   0  0  0  0  0  0  0  0  0  0  0  0
   -5.3240    3.0288   -0.9915 S   0  0  0  0  0  0  0  0  0  0  0  0
   -5.1242    4.6091   -1.4933 C   0  0  0  0  0  0  0  0  0  0  0  0
   -4.2225    5.6225   -1.1524 C   0  0  0  0  0  0  0  0  0  0  0  0
   -3.1532    5.6153   -0.3084 N   0  0  0  0  0  0  0  0  0  0  0  0
   -2.3220    6.5765   -0.8253 C   0  0  0  0  0  0  0  0  0  0  0  0
   -0.9670    6.8363   -0.5018 C   0  0  0  0  0  0  0  0  0  0  0  0
   -0.2872    6.6216    0.6643 N   0  0  0  0  0  0  0  0  0  0  0  0
    0.9979    6.8759    0.3333 C   0  0  0  0  0  0  0  0  0  0  0  0
    2.2058    6.6630    0.9636 C   0  0  0  0  0  0  0  0  0  0  0  0
    2.6983    5.8785    2.3582 S   0  0  0  0  0  0  0  0  0  0  0  0
   -0.8253    6.5935    2.0311 C   0  0  0  0  0  0  0  0  0  0  0  0
   -0.4633    7.8627    2.7983 C   0  0  0  0  0  0  0  0  0  0  0  0
   -2.7626    4.4489    0.5006 C   0  0  0  0  0  0  0  0  0  0  0  0
   -3.6780    4.2731    1.7170 C   0  0  0  0  0  0  0  0  0  0  0  0
   -6.0476    1.1095   -2.7650 C   0  0  0  0  0  0  0  0  0  0  0  0
   -6.8420    0.0639   -2.3057 C   0  0  0  0  0  0  0  0  0  0  0  0
   -6.2579   -1.1981   -2.5138 C   0  0  0  0  0  0  0  0  0  0  0  0
   -6.7500   -2.4353   -2.0433 C   0  0  0  0  0  0  0  0  0  0  0  0
   -8.0530   -2.6140   -1.5565 O   0  0  0  0  0  0  0  0  0  0  0  0
   -9.2295   -2.2598   -2.2858 C   0  0  0  0  0  0  0  0  0  0  0  0
   -9.2331   -2.8921   -3.6786 C   0  0  0  0  0  0  0  0  0  0  0  0
   -5.8613   -3.5166   -2.0557 C   0  0  0  0  0  0  0  0  0  0  0  0
   -4.5660   -3.4235   -2.5665 C   0  0  0  0  0  0  0  0  0  0  0  0
   -4.1051   -2.2259   -3.1306 C   0  0  0  0  0  0  0  0  0  0  0  0
   -2.7958   -2.1469   -3.6250 O   0  0  0  0  0  0  0  0  0  0  0  0
   -2.4542   -1.6440   -4.9153 C   0  0  0  0  0  0  0  0  0  0  0  0
   -2.9112   -2.6141   -6.0049 C   0  0  0  0  0  0  0  0  0  0  0  0
   -4.9764   -1.1217   -3.0805 C   0  0  0  0  0  0  0  0  0  0  0  0
   -4.6009    0.4836   -3.3552 S   0  0  0  0  0  0  0  0  0  0  0  0
   -3.8247   -4.6001   -2.4179 C   0  0  0  0  0  0  0  0  0  0  0  0
   -4.5307   -5.5993   -1.7517 C   0  0  0  0  0  0  0  0  0  0  0  0
   -6.1032   -5.0564   -1.4298 S   0  0  0  0  0  0  0  0  0  0  0  0
   -3.9946   -6.9353   -1.4389 C   0  0  0  0  0  0  0  0  0  0  0  0
   -4.1256   -7.5460   -0.2442 C   0  0  0  0  0  0  0  0  0  0  0  0
   -4.4999   -6.8904    1.0166 C   0  0  0  0  0  0  0  0  0  0  0  0
   -4.9083   -5.7066    1.1643 O   0  0  0  0  0  0  0  0  0  0  0  0
   -4.1705   -7.7749    2.1075 C   0  0  0  0  0  0  0  0  0  0  0  0
   -4.2796   -7.5149    3.4722 C   0  0  0  0  0  0  0  0  0  0  0  0
   -3.7894   -8.4717    4.3790 C   0  0  0  0  0  0  0  0  0  0  0  0
   -3.8613   -8.2459    5.7615 C   0  0  0  0  0  0  0  0  0  0  0  0
   -3.3388   -9.1821    6.6579 C   0  0  0  0  0  0  0  0  0  0  0  0
   -2.7365  -10.3492    6.1846 C   0  0  0  0  0  0  0  0  0  0  0  0
   -2.2283  -11.2459    7.0666 F   0  0  0  0  0  0  0  0  0  0  0  0
   -2.6562  -10.5913    4.8082 C   0  0  0  0  0  0  0  0  0  0  0  0
   -3.1820   -9.6631    3.8936 C   0  0  0  0  0  0  0  0  0  0  0  0
   -3.0943   -9.8935    2.5042 C   0  0  0  0  0  0  0  0  0  0  0  0
   -3.6167   -8.9425    1.6140 C   0  0  0  0  0  0  0  0  0  0  0  0
   -3.6332   -8.9126    0.1206 C   0  0  0  0  0  0  0  0  0  0  0  0
   -3.4786   -9.9694   -0.7219 C   0  0  0  0  0  0  0  0  0  0  0  0
   -3.1441  -11.2909   -0.2561 C   0  0  0  0  0  0  0  0  0  0  0  0
   -2.8807  -12.3604    0.0961 N   0  0  0  0  0  0  0  0  0  0  0  0
   -3.7669   -9.8802   -2.1330 C   0  0  0  0  0  0  0  0  0  0  0  0
   -3.9967   -9.8111   -3.2642 N   0  0  0  0  0  0  0  0  0  0  0  0
    7.1314   -2.8645    5.8342 H   0  0  0  0  0  0  0  0  0  0  0  0
    4.1939   -6.4467    3.4310 H   0  0  0  0  0  0  0  0  0  0  0  0
    2.4960   -7.1388    1.7532 H   0  0  0  0  0  0  0  0  0  0  0  0
    1.6000   -7.0092   -0.5344 H   0  0  0  0  0  0  0  0  0  0  0  0
    4.9869   -4.6955   -1.7920 H   0  0  0  0  0  0  0  0  0  0  0  0
    6.7154   -4.0574   -0.1620 H   0  0  0  0  0  0  0  0  0  0  0  0
    6.9473   -0.3427    6.2265 H   0  0  0  0  0  0  0  0  0  0  0  0
    4.7651    0.8176    6.5221 H   0  0  0  0  0  0  0  0  0  0  0  0
    4.1126    2.4985    6.3633 H   0  0  0  0  0  0  0  0  0  0  0  0
    5.7495    1.4295    8.7540 H   0  0  0  0  0  0  0  0  0  0  0  0
    3.9582    1.6284    8.7163 H   0  0  0  0  0  0  0  0  0  0  0  0
    5.0277    3.0779    8.6045 H   0  0  0  0  0  0  0  0  0  0  0  0
    8.5324    2.2541   -0.8962 H   0  0  0  0  0  0  0  0  0  0  0  0
    8.2622    3.5839    0.2817 H   0  0  0  0  0  0  0  0  0  0  0  0
   10.2075    1.2159    0.6767 H   0  0  0  0  0  0  0  0  0  0  0  0
   10.6692    2.8938    0.1725 H   0  0  0  0  0  0  0  0  0  0  0  0
    9.9703    2.6025    1.8123 H   0  0  0  0  0  0  0  0  0  0  0  0
    6.0575    3.9649    0.7720 H   0  0  0  0  0  0  0  0  0  0  0  0
    6.7011    7.9314    1.2817 H   0  0  0  0  0  0  0  0  0  0  0  0
    8.8851    7.9078    0.1282 H   0  0  0  0  0  0  0  0  0  0  0  0
    9.2466    6.4613   -1.8411 H   0  0  0  0  0  0  0  0  0  0  0  0
    8.5347    4.4570   -3.0580 H   0  0  0  0  0  0  0  0  0  0  0  0
    6.8863    3.7955   -2.8452 H   0  0  0  0  0  0  0  0  0  0  0  0
    5.9442    5.6189   -4.2840 H   0  0  0  0  0  0  0  0  0  0  0  0
    7.2321    4.6884   -5.1488 H   0  0  0  0  0  0  0  0  0  0  0  0
    7.6025    6.3267   -4.4786 H   0  0  0  0  0  0  0  0  0  0  0  0
    5.1566    5.1180   -1.5945 H   0  0  0  0  0  0  0  0  0  0  0  0
   -7.8435    5.6265   -4.2057 H   0  0  0  0  0  0  0  0  0  0  0  0
   -9.3929    5.5997   -6.1020 H   0  0  0  0  0  0  0  0  0  0  0  0
   -9.6641    3.5677   -7.4714 H   0  0  0  0  0  0  0  0  0  0  0  0
   -7.4285    0.6025   -7.2571 H   0  0  0  0  0  0  0  0  0  0  0  0
   -8.6965    1.4160   -8.2257 H   0  0  0  0  0  0  0  0  0  0  0  0
   -9.1456    0.0663   -5.4757 H   0  0  0  0  0  0  0  0  0  0  0  0
  -10.4147    0.8521   -6.4942 H   0  0  0  0  0  0  0  0  0  0  0  0
   -9.5711   -0.6280   -7.0865 H   0  0  0  0  0  0  0  0  0  0  0  0
   -6.6403    1.5869   -5.1628 H   0  0  0  0  0  0  0  0  0  0  0  0
   -1.9299    6.5543    2.0006 H   0  0  0  0  0  0  0  0  0  0  0  0
   -0.4391    5.7061    2.5690 H   0  0  0  0  0  0  0  0  0  0  0  0
    0.6318    7.9298    2.9635 H   0  0  0  0  0  0  0  0  0  0  0  0
   -0.7969    8.7583    2.2345 H   0  0  0  0  0  0  0  0  0  0  0  0
   -0.9692    7.8567    3.7839 H   0  0  0  0  0  0  0  0  0  0  0  0
   -2.7978    3.5344   -0.1257 H   0  0  0  0  0  0  0  0  0  0  0  0
   -1.7111    4.4988    0.8280 H   0  0  0  0  0  0  0  0  0  0  0  0
   -3.5557    3.2499    2.1228 H   0  0  0  0  0  0  0  0  0  0  0  0
   -4.7412    4.4123    1.4379 H   0  0  0  0  0  0  0  0  0  0  0  0
   -3.4364    5.0042    2.5140 H   0  0  0  0  0  0  0  0  0  0  0  0
   -7.7422    0.2306   -1.7295 H   0  0  0  0  0  0  0  0  0  0  0  0
  -10.1101   -2.6347   -1.7259 H   0  0  0  0  0  0  0  0  0  0  0  0
   -9.3309   -1.1604   -2.3754 H   0  0  0  0  0  0  0  0  0  0  0  0
   -9.0233   -3.9770   -3.6097 H   0  0  0  0  0  0  0  0  0  0  0  0
  -10.2252   -2.7451   -4.1535 H   0  0  0  0  0  0  0  0  0  0  0  0
   -8.4626   -2.4100   -4.3115 H   0  0  0  0  0  0  0  0  0  0  0  0
   -1.3466   -1.5470   -4.9725 H   0  0  0  0  0  0  0  0  0  0  0  0
   -2.8879   -0.6426   -5.0955 H   0  0  0  0  0  0  0  0  0  0  0  0
   -2.5049   -3.6244   -5.8066 H   0  0  0  0  0  0  0  0  0  0  0  0
   -4.0221   -2.6614   -6.0279 H   0  0  0  0  0  0  0  0  0  0  0  0
   -2.5436   -2.2623   -6.9930 H   0  0  0  0  0  0  0  0  0  0  0  0
   -2.7953   -4.7100   -2.7383 H   0  0  0  0  0  0  0  0  0  0  0  0
   -3.4009   -7.3906   -2.2165 H   0  0  0  0  0  0  0  0  0  0  0  0
   -4.7076   -6.5813    3.8175 H   0  0  0  0  0  0  0  0  0  0  0  0
   -4.3183   -7.3409    6.1502 H   0  0  0  0  0  0  0  0  0  0  0  0
   -3.4019   -9.0007    7.7223 H   0  0  0  0  0  0  0  0  0  0  0  0
   -2.1812  -11.5009    4.4603 H   0  0  0  0  0  0  0  0  0  0  0  0
   -2.5932  -10.7793    2.1533 H   0  0  0  0  0  0  0  0  0  0  0  0
  1  2  2  3
  2  3  1  0
  3  4  2  0
  3  5  1  0
  5  6  2  0
  6  7  1  0
  7  8  2  0
  8  9  1  0
  9 10  2  0
 10 11  1  0
 10 12  1  0
 12 13  2  0
 13 14  1  0
 14 15  2  0
 15 16  1  0
 16 17  2  3
 17 18  1  0
 18 19  3  0
 17 20  1  0
 20 21  3  0
  1 22  1  0
 22 23  2  0
 23 24  1  0
 24 25  2  0
 25 26  1  0
 26 27  1  0
 27 28  1  0
 25 29  1  0
 29 30  2  0
 30 31  1  0
 31 32  1  0
 32 33  1  0
 33 34  1  0
 31 35  2  0
 35 36  1  0
 30 37  1  0
 37 38  2  0
 38 39  1  0
 38 40  1  0
 40 41  2  0
 41 42  1  0
 42 43  2  0
 43 44  1  0
 44 45  2  0
 45 46  1  0
 46 47  1  0
 47 48  1  0
 46 49  2  0
 41 50  1  0
 50 51  1  0
 51 52  1  0
 52 53  1  0
 53 54  1  0
 54 55  1  0
 55 56  2  0
 56 57  1  0
 57 58  1  0
 55 59  1  0
 59 60  1  0
 60 61  1  0
 61 62  1  0
 62 63  1  0
 63 64  1  0
 64 65  2  0
 65 66  1  0
 66 67  2  0
 67 68  1  0
 68 69  1  0
 69 70  1  0
 68 71  2  0
 63 72  2  0
 72 73  1  0
 73 74  1  0
 74 75  1  0
 75 76  1  0
 76 77  1  0
 77 78  1  0
 78 79  1  0
 79 80  1  0
 80 81  1  0
 81 82  1  0
 79 83  1  0
 83 84  1  0
 76 85  1  0
 85 86  1  0
 72 87  1  0
 87 88  2  0
 88 89  1  0
 89 90  2  0
 90 91  1  0
 91 92  1  0
 92 93  1  0
 90 94  1  0
 94 95  2  0
 95 96  1  0
 96 97  1  0
 97 98  1  0
 98 99  1  0
 96100  2  0
100101  1  0
 95102  1  0
102103  2  0
103104  1  0
103105  1  0
105106  2  3
106107  1  0
107108  2  0
107109  1  0
109110  2  0
110111  1  0
111112  2  0
112113  1  0
113114  2  0
114115  1  0
114116  1  0
116117  2  0
117118  1  0
118119  2  0
119120  1  0
120121  2  3
121122  1  0
122123  3  0
121124  1  0
124125  3  0
 16  2  1  0
 36 22  1  0
 82 40  1  0
101 87  1  0
120106  1  0
 15  5  1  0
 35 24  1  0
 49 42  1  0
 81 50  2  0
100 89  1  0
119109  1  0
 13  7  1  0
 39 29  1  0
 80 52  2  0
104 94  1  0
117111  1  0
 78 53  2  0
 58 54  2  0
 77 59  2  0
 75 60  2  0
 74 62  2  0
 71 64  1  0
  1126  1  0
  6127  1  0
  8128  1  0
  9129  1  0
 12130  1  0
 14131  1  0
 23132  1  0
 27133  1  0
 27134  1  0
 28135  1  0
 28136  1  0
 28137  1  0
 33138  1  0
 33139  1  0
 34140  1  0
 34141  1  0
 34142  1  0
 37143  1  0
 43144  1  0
 44145  1  0
 45146  1  0
 47147  1  0
 47148  1  0
 48149  1  0
 48150  1  0
 48151  1  0
 49152  1  0
 65153  1  0
 66154  1  0
 67155  1  0
 69156  1  0
 69157  1  0
 70158  1  0
 70159  1  0
 70160  1  0
 71161  1  0
 83162  1  0
 83163  1  0
 84164  1  0
 84165  1  0
 84166  1  0
 85167  1  0
 85168  1  0
 86169  1  0
 86170  1  0
 86171  1  0
 88172  1  0
 92173  1  0
 92174  1  0
 93175  1  0
 93176  1  0
 93177  1  0
 98178  1  0
 98179  1  0
 99180  1  0
 99181  1  0
 99182  1  0
102183  1  0
105184  1  0
110185  1  0
112186  1  0
113187  1  0
116188  1  0
118189  1  0
M  END

