
     RDKit          3D

146162  0  0  0  0  0  0  0  0999 V2000
   -2.5339   -1.9032   -8.1428 C   0  0  0  0  0  0  0  0  0  0  0  0
   -1.2611   -1.5959   -7.8804 C   0  0  0  0  0  0  0  0  0  0  0  0
   -0.2109   -2.4960   -8.3756 C   0  0  0  0  0  0  0  0  0  0  0  0
   -0.4081   -3.3921   -9.2710 O   0  0  0  0  0  0  0  0  0  0  0  0
    0.9212   -2.4607   -7.4745 C   0  0  0  0  0  0  0  0  0  0  0  0
    2.0304   -3.3105   -7.4478 C   0  0  0  0  0  0  0  0  0  0  0  0
    2.9384   -3.2038   -6.3846 C   0  0  0  0  0  0  0  0  0  0  0  0
    4.0613   -4.0442   -6.3009 C   0  0  0  0  0  0  0  0  0  0  0  0
    4.9728   -3.9048   -5.2419 C   0  0  0  0  0  0  0  0  0  0  0  0
    4.7685   -2.9303   -4.2574 C   0  0  0  0  0  0  0  0  0  0  0  0
    5.6463   -2.8187   -3.2259 F   0  0  0  0  0  0  0  0  0  0  0  0
    3.6588   -2.0801   -4.3289 C   0  0  0  0  0  0  0  0  0  0  0  0
    2.7293   -2.2226   -5.3770 C   0  0  0  0  0  0  0  0  0  0  0  0
    1.5947   -1.3926   -5.4157 C   0  0  0  0  0  0  0  0  0  0  0  0
    0.6774   -1.5363   -6.4664 C   0  0  0  0  0  0  0  0  0  0  0  0
   -0.6912   -0.9441   -6.6453 C   0  0  0  0  0  0  0  0  0  0  0  0
   -1.2526    0.0596   -5.9098 C   0  0  0  0  0  0  0  0  0  0  0  0
   -0.6400    0.6159   -4.7263 C   0  0  0  0  0  0  0  0  0  0  0  0
   -0.1762    1.1040   -3.7884 N   0  0  0  0  0  0  0  0  0  0  0  0
   -2.5853    0.5454   -6.1511 C   0  0  0  0  0  0  0  0  0  0  0  0
   -3.6836    0.8795   -6.2625 N   0  0  0  0  0  0  0  0  0  0  0  0
   -3.5856   -2.1201   -7.1278 C   0  0  0  0  0  0  0  0  0  0  0  0
   -4.8626   -1.5486   -7.2932 C   0  0  0  0  0  0  0  0  0  0  0  0
   -5.1360   -0.8309   -8.3979 F   0  0  0  0  0  0  0  0  0  0  0  0
   -5.7743   -1.5160   -6.2239 C   0  0  0  0  0  0  0  0  0  0  0  0
   -6.8217   -0.6693   -6.2804 F   0  0  0  0  0  0  0  0  0  0  0  0
   -5.4451   -2.1451   -5.0098 C   0  0  0  0  0  0  0  0  0  0  0  0
   -4.3030   -2.9600   -4.9531 C   0  0  0  0  0  0  0  0  0  0  0  0
   -4.0325   -3.6747   -3.8368 N   0  0  0  0  0  0  0  0  0  0  0  0
   -2.8462   -4.2993   -3.6394 C   0  0  0  0  0  0  0  0  0  0  0  0
   -2.6686   -5.0591   -2.3508 C   0  0  0  0  0  0  0  0  0  0  0  0
   -2.3947   -4.1051   -1.1899 C   0  0  0  0  0  0  0  0  0  0  0  0
   -1.8278   -4.1364   -4.6058 C   0  0  0  0  0  0  0  0  0  0  0  0
   -2.1106   -3.4567   -5.7507 N   0  0  0  0  0  0  0  0  0  0  0  0
   -3.3304   -2.8806   -5.9704 C   0  0  0  0  0  0  0  0  0  0  0  0
   -0.4200   -4.6484   -4.4241 C   0  0  0  0  0  0  0  0  0  0  0  0
   -0.1984   -5.9668   -5.1657 C   0  0  0  0  0  0  0  0  0  0  0  0
   -5.8545   -1.4998   -3.7414 C   0  0  0  0  0  0  0  0  0  0  0  0
   -6.8012   -1.9772   -2.8129 C   0  0  0  0  0  0  0  0  0  0  0  0
   -7.8308   -3.0340   -3.0894 C   0  0  0  0  0  0  0  0  0  0  0  0
   -9.1781   -2.3999   -3.4206 C   0  0  0  0  0  0  0  0  0  0  0  0
   -6.6072   -1.3755   -1.5572 C   0  0  0  0  0  0  0  0  0  0  0  0
   -7.2743   -1.6351    0.0043 S   0  0  0  0  0  0  0  0  0  0  0  0
   -6.0653   -0.6682    0.7123 C   0  0  0  0  0  0  0  0  0  0  0  0
   -5.6031   -0.2685    1.9390 C   0  0  0  0  0  0  0  0  0  0  0  0
   -6.1621   -0.3050    3.2199 C   0  0  0  0  0  0  0  0  0  0  0  0
   -5.4750    0.3609    4.2908 C   0  0  0  0  0  0  0  0  0  0  0  0
   -6.0615    0.3315    5.5127 N   0  0  0  0  0  0  0  0  0  0  0  0
   -7.4385   -0.5125    5.1396 S   0  0  0  0  0  0  0  0  0  0  0  0
   -7.3530   -0.8780    3.5192 N   0  0  0  0  0  0  0  0  0  0  0  0
   -4.2393    0.9692    4.0208 C   0  0  0  0  0  0  0  0  0  0  0  0
   -3.2818    1.4997    4.8440 C   0  0  0  0  0  0  0  0  0  0  0  0
   -2.9876    1.7081    6.5007 S   0  0  0  0  0  0  0  0  0  0  0  0
   -1.3329    2.0561    6.2106 C   0  0  0  0  0  0  0  0  0  0  0  0
   -0.2088    2.2826    7.0291 C   0  0  0  0  0  0  0  0  0  0  0  0
   -0.2410    2.3966    8.4173 O   0  0  0  0  0  0  0  0  0  0  0  0
   -0.6717    3.5764    9.0928 C   0  0  0  0  0  0  0  0  0  0  0  0
   -2.1883    3.7317    9.0487 C   0  0  0  0  0  0  0  0  0  0  0  0
    0.9706    2.2887    6.2615 C   0  0  0  0  0  0  0  0  0  0  0  0
    0.5928    2.0532    4.6205 S   0  0  0  0  0  0  0  0  0  0  0  0
   -1.0467    1.9286    4.8723 C   0  0  0  0  0  0  0  0  0  0  0  0
   -2.1532    1.6391    4.0963 C   0  0  0  0  0  0  0  0  0  0  0  0
   -2.2983    1.2054    2.8208 N   0  0  0  0  0  0  0  0  0  0  0  0
   -3.6362    0.8954    2.7638 C   0  0  0  0  0  0  0  0  0  0  0  0
   -4.3828    0.3841    1.6778 C   0  0  0  0  0  0  0  0  0  0  0  0
   -4.1631    0.5118    0.3283 N   0  0  0  0  0  0  0  0  0  0  0  0
   -5.2056   -0.1635   -0.2053 C   0  0  0  0  0  0  0  0  0  0  0  0
   -5.5352   -0.5247   -1.4905 C   0  0  0  0  0  0  0  0  0  0  0  0
   -4.7909   -0.4115   -2.9741 S   0  0  0  0  0  0  0  0  0  0  0  0
   -3.3613    1.5201   -0.3868 C   0  0  0  0  0  0  0  0  0  0  0  0
   -3.7327    2.9300    0.0478 C   0  0  0  0  0  0  0  0  0  0  0  0
   -1.2368    0.5165    2.0659 C   0  0  0  0  0  0  0  0  0  0  0  0
   -0.2539    1.4757    1.3947 C   0  0  0  0  0  0  0  0  0  0  0  0
    2.3696    2.3616    6.7211 C   0  0  0  0  0  0  0  0  0  0  0  0
    3.2545    1.3387    6.3198 C   0  0  0  0  0  0  0  0  0  0  0  0
    2.7779    0.1730    5.7989 F   0  0  0  0  0  0  0  0  0  0  0  0
    4.6259    1.5336    6.3564 C   0  0  0  0  0  0  0  0  0  0  0  0
    5.4471    0.5699    5.8642 F   0  0  0  0  0  0  0  0  0  0  0  0
    5.1576    2.7701    6.7666 C   0  0  0  0  0  0  0  0  0  0  0  0
    4.2910    3.7562    7.2751 C   0  0  0  0  0  0  0  0  0  0  0  0
    4.7901    4.9605    7.6512 F   0  0  0  0  0  0  0  0  0  0  0  0
    2.8993    3.5556    7.2511 C   0  0  0  0  0  0  0  0  0  0  0  0
    2.0846    4.5871    7.5953 F   0  0  0  0  0  0  0  0  0  0  0  0
    6.5613    3.0819    6.4698 C   0  0  0  0  0  0  0  0  0  0  0  0
    6.9591    3.3956    5.2234 C   0  0  0  0  0  0  0  0  0  0  0  0
    6.0686    3.7965    4.1209 C   0  0  0  0  0  0  0  0  0  0  0  0
    4.8042    3.8339    4.1565 O   0  0  0  0  0  0  0  0  0  0  0  0
    6.8757    4.2462    3.0098 C   0  0  0  0  0  0  0  0  0  0  0  0
    6.4309    4.7602    1.7943 C   0  0  0  0  0  0  0  0  0  0  0  0
    7.3811    5.1252    0.8317 C   0  0  0  0  0  0  0  0  0  0  0  0
    6.9859    5.6283   -0.4132 C   0  0  0  0  0  0  0  0  0  0  0  0
    7.9450    5.9669   -1.3747 C   0  0  0  0  0  0  0  0  0  0  0  0
    9.3064    5.7958   -1.1033 C   0  0  0  0  0  0  0  0  0  0  0  0
   10.2314    6.0910   -2.0561 F   0  0  0  0  0  0  0  0  0  0  0  0
    9.7233    5.3083    0.1396 C   0  0  0  0  0  0  0  0  0  0  0  0
    8.7679    4.9694    1.1190 C   0  0  0  0  0  0  0  0  0  0  0  0
    9.1853    4.4631    2.3672 C   0  0  0  0  0  0  0  0  0  0  0  0
    8.2198    4.1288    3.3307 C   0  0  0  0  0  0  0  0  0  0  0  0
    8.3547    3.5390    4.7013 C   0  0  0  0  0  0  0  0  0  0  0  0
    9.4924    3.0577    5.2832 C   0  0  0  0  0  0  0  0  0  0  0  0
   10.8026    3.3050    4.7396 C   0  0  0  0  0  0  0  0  0  0  0  0
   11.8695    3.4939    4.3325 N   0  0  0  0  0  0  0  0  0  0  0  0
    9.4678    2.2080    6.4373 C   0  0  0  0  0  0  0  0  0  0  0  0
    9.4668    1.5072    7.3608 N   0  0  0  0  0  0  0  0  0  0  0  0
   -2.8664   -1.6697   -9.1684 H   0  0  0  0  0  0  0  0  0  0  0  0
    2.1484   -4.0680   -8.2233 H   0  0  0  0  0  0  0  0  0  0  0  0
    4.2424   -4.8030   -7.0471 H   0  0  0  0  0  0  0  0  0  0  0  0
    5.8347   -4.5601   -5.1770 H   0  0  0  0  0  0  0  0  0  0  0  0
    3.5070   -1.3409   -3.5554 H   0  0  0  0  0  0  0  0  0  0  0  0
    1.4330   -0.6952   -4.6142 H   0  0  0  0  0  0  0  0  0  0  0  0
   -1.8554   -5.8193   -2.4213 H   0  0  0  0  0  0  0  0  0  0  0  0
   -3.6064   -5.6211   -2.1439 H   0  0  0  0  0  0  0  0  0  0  0  0
   -1.3600   -3.6898   -1.2664 H   0  0  0  0  0  0  0  0  0  0  0  0
   -3.1378   -3.2778   -1.2010 H   0  0  0  0  0  0  0  0  0  0  0  0
   -2.5035   -4.6602   -0.2270 H   0  0  0  0  0  0  0  0  0  0  0  0
   -0.1631   -4.7747   -3.3572 H   0  0  0  0  0  0  0  0  0  0  0  0
    0.3005   -3.9024   -4.8126 H   0  0  0  0  0  0  0  0  0  0  0  0
    0.8041   -6.3770   -4.8943 H   0  0  0  0  0  0  0  0  0  0  0  0
   -0.2172   -5.7907   -6.2671 H   0  0  0  0  0  0  0  0  0  0  0  0
   -0.9838   -6.7044   -4.8840 H   0  0  0  0  0  0  0  0  0  0  0  0
   -7.4991   -3.6583   -3.9490 H   0  0  0  0  0  0  0  0  0  0  0  0
   -7.9045   -3.7008   -2.2116 H   0  0  0  0  0  0  0  0  0  0  0  0
   -9.8946   -3.1851   -3.7440 H   0  0  0  0  0  0  0  0  0  0  0  0
   -9.0585   -1.6699   -4.2528 H   0  0  0  0  0  0  0  0  0  0  0  0
   -9.5874   -1.8882   -2.5212 H   0  0  0  0  0  0  0  0  0  0  0  0
   -0.3518    3.4993   10.1572 H   0  0  0  0  0  0  0  0  0  0  0  0
   -0.1921    4.4743    8.6525 H   0  0  0  0  0  0  0  0  0  0  0  0
   -2.5140    4.0700    8.0436 H   0  0  0  0  0  0  0  0  0  0  0  0
   -2.6815    2.7733    9.3012 H   0  0  0  0  0  0  0  0  0  0  0  0
   -2.5054    4.4969    9.7879 H   0  0  0  0  0  0  0  0  0  0  0  0
   -2.2897    1.3417   -0.2545 H   0  0  0  0  0  0  0  0  0  0  0  0
   -3.5386    1.4449   -1.4794 H   0  0  0  0  0  0  0  0  0  0  0  0
   -3.1895    3.6651   -0.5784 H   0  0  0  0  0  0  0  0  0  0  0  0
   -4.8233    3.0975   -0.0896 H   0  0  0  0  0  0  0  0  0  0  0  0
   -3.4578    3.1038    1.1099 H   0  0  0  0  0  0  0  0  0  0  0  0
   -0.6798   -0.1564    2.7674 H   0  0  0  0  0  0  0  0  0  0  0  0
   -1.6758   -0.1693    1.3153 H   0  0  0  0  0  0  0  0  0  0  0  0
    0.7078    1.4979    1.9474 H   0  0  0  0  0  0  0  0  0  0  0  0
   -0.0298    1.1196    0.3702 H   0  0  0  0  0  0  0  0  0  0  0  0
   -0.6779    2.5028    1.3493 H   0  0  0  0  0  0  0  0  0  0  0  0
    7.2646    2.9838    7.2867 H   0  0  0  0  0  0  0  0  0  0  0  0
    5.3693    4.8482    1.5930 H   0  0  0  0  0  0  0  0  0  0  0  0
    5.9389    5.7537   -0.6433 H   0  0  0  0  0  0  0  0  0  0  0  0
    7.6327    6.3410   -2.3393 H   0  0  0  0  0  0  0  0  0  0  0  0
   10.7834    5.1800    0.3321 H   0  0  0  0  0  0  0  0  0  0  0  0
   10.2374    4.3442    2.5528 H   0  0  0  0  0  0  0  0  0  0  0  0
  1  2  2  3
  2  3  1  0
  3  4  2  0
  3  5  1  0
  5  6  2  0
  6  7  1  0
  7  8  2  0
  8  9  1  0
  9 10  2  0
 10 11  1  0
 10 12  1  0
 12 13  2  0
 13 14  1  0
 14 15  2  0
 15 16  1  0
 16 17  2  3
 17 18  1  0
 18 19  3  0
 17 20  1  0
 20 21  3  0
  1 22  1  0
 22 23  2  0
 23 24  1  0
 23 25  1  0
 25 26  1  0
 25 27  2  0
 27 28  1  0
 28 29  2  0
 29 30  1  0
 30 31  1  0
 31 32  1  0
 30 33  2  0
 33 34  1  0
 34 35  2  0
 33 36  1  0
 36 37  1  0
 27 38  1  0
 38 39  2  0
 39 40  1  0
 40 41  1  0
 39 42  1  0
 42 43  1  0
 43 44  1  0
 44 45  1  0
 45 46  1  0
 46 47  1  0
 47 48  2  0
 48 49  1  0
 49 50  1  0
 47 51  1  0
 51 52  1  0
 52 53  1  0
 53 54  1  0
 54 55  1  0
 55 56  1  0
 56 57  1  0
 57 58  1  0
 55 59  2  0
 59 60  1  0
 60 61  1  0
 61 62  1  0
 62 63  1  0
 63 64  1  0
 64 65  1  0
 65 66  1  0
 66 67  1  0
 67 68  1  0
 68 69  1  0
 66 70  1  0
 70 71  1  0
 63 72  1  0
 72 73  1  0
 59 74  1  0
 74 75  2  0
 75 76  1  0
 75 77  1  0
 77 78  1  0
 77 79  2  0
 79 80  1  0
 80 81  1  0
 80 82  2  0
 82 83  1  0
 79 84  1  0
 84 85  2  3
 85 86  1  0
 86 87  2  0
 86 88  1  0
 88 89  2  0
 89 90  1  0
 90 91  2  0
 91 92  1  0
 92 93  2  0
 93 94  1  0
 93 95  1  0
 95 96  2  0
 96 97  1  0
 97 98  2  0
 98 99  1  0
 99100  2  3
100101  1  0
101102  3  0
100103  1  0
103104  3  0
 16  2  1  0
 35 22  1  0
 69 38  1  0
 82 74  1  0
 99 85  1  0
 15  5  1  0
 35 28  1  0
 68 42  2  0
 98 88  1  0
 13  7  1  0
 67 44  2  0
 96 90  1  0
 65 45  2  0
 50 46  2  0
 64 51  2  0
 62 52  2  0
 61 54  2  0
  1105  1  0
  6106  1  0
  8107  1  0
  9108  1  0
 12109  1  0
 14110  1  0
 31111  1  0
 31112  1  0
 32113  1  0
 32114  1  0
 32115  1  0
 36116  1  0
 36117  1  0
 37118  1  0
 37119  1  0
 37120  1  0
 40121  1  0
 40122  1  0
 41123  1  0
 41124  1  0
 41125  1  0
 57126  1  0
 57127  1  0
 58128  1  0
 58129  1  0
 58130  1  0
 70131  1  0
 70132  1  0
 71133  1  0
 71134  1  0
 71135  1  0
 72136  1  0
 72137  1  0
 73138  1  0
 73139  1  0
 73140  1  0
 84141  1  0
 89142  1  0
 91143  1  0
 92144  1  0
 95145  1  0
 97146  1  0
M  END

