
     RDKit          3D

140153  0  0  0  0  0  0  0  0999 V2000
    2.0376    3.4017    5.4105 C   0  0  0  0  0  0  0  0  0  0  0  0
    2.3465    2.4346    6.2981 C   0  0  0  0  0  0  0  0  0  0  0  0
    1.5238    1.2410    6.5371 C   0  0  0  0  0  0  0  0  0  0  0  0
    0.3604    1.0293    6.0982 O   0  0  0  0  0  0  0  0  0  0  0  0
    2.2435    0.3517    7.4099 C   0  0  0  0  0  0  0  0  0  0  0  0
    1.8177   -0.8821    7.8949 C   0  0  0  0  0  0  0  0  0  0  0  0
    2.6475   -1.5759    8.7870 C   0  0  0  0  0  0  0  0  0  0  0  0
    2.2683   -2.8299    9.2856 C   0  0  0  0  0  0  0  0  0  0  0  0
    3.1025   -3.5144   10.1740 C   0  0  0  0  0  0  0  0  0  0  0  0
    4.3162   -2.9504   10.5802 C   0  0  0  0  0  0  0  0  0  0  0  0
    5.1141   -3.6155   11.4498 F   0  0  0  0  0  0  0  0  0  0  0  0
    4.7062   -1.6972   10.0973 C   0  0  0  0  0  0  0  0  0  0  0  0
    3.8848   -1.0006    9.1941 C   0  0  0  0  0  0  0  0  0  0  0  0
    4.2800    0.2567    8.6919 C   0  0  0  0  0  0  0  0  0  0  0  0
    3.4559    0.9175    7.7642 C   0  0  0  0  0  0  0  0  0  0  0  0
    3.6087    2.2492    7.0922 C   0  0  0  0  0  0  0  0  0  0  0  0
    4.7034    3.0585    7.1266 C   0  0  0  0  0  0  0  0  0  0  0  0
    4.7211    4.3908    6.5773 C   0  0  0  0  0  0  0  0  0  0  0  0
    4.7389    5.4614    6.1422 N   0  0  0  0  0  0  0  0  0  0  0  0
    5.9644    2.6288    7.6715 C   0  0  0  0  0  0  0  0  0  0  0  0
    6.9904    2.2854    8.0911 N   0  0  0  0  0  0  0  0  0  0  0  0
    0.9029    3.2656    4.4815 C   0  0  0  0  0  0  0  0  0  0  0  0
    1.0679    2.4928    3.3211 C   0  0  0  0  0  0  0  0  0  0  0  0
    2.3285    1.9616    3.0342 O   0  0  0  0  0  0  0  0  0  0  0  0
    3.1141    2.4390    1.9477 C   0  0  0  0  0  0  0  0  0  0  0  0
    4.4499    1.7145    1.9300 C   0  0  0  0  0  0  0  0  0  0  0  0
   -0.0282    2.2657    2.4656 C   0  0  0  0  0  0  0  0  0  0  0  0
    0.0517    1.3700    1.3854 O   0  0  0  0  0  0  0  0  0  0  0  0
    0.5583    0.0332    1.4784 C   0  0  0  0  0  0  0  0  0  0  0  0
   -0.1491   -0.7529    2.5809 C   0  0  0  0  0  0  0  0  0  0  0  0
   -1.2526    2.9178    2.7065 C   0  0  0  0  0  0  0  0  0  0  0  0
   -1.4119    3.7058    3.8567 C   0  0  0  0  0  0  0  0  0  0  0  0
   -0.3347    3.8705    4.7536 C   0  0  0  0  0  0  0  0  0  0  0  0
   -0.5211    4.6103    5.8801 N   0  0  0  0  0  0  0  0  0  0  0  0
   -1.7171    5.1924    6.1556 C   0  0  0  0  0  0  0  0  0  0  0  0
   -2.7809    5.0292    5.2677 C   0  0  0  0  0  0  0  0  0  0  0  0
   -2.6070    4.2930    4.1397 N   0  0  0  0  0  0  0  0  0  0  0  0
   -2.3636    2.7038    1.7627 C   0  0  0  0  0  0  0  0  0  0  0  0
   -2.3066    3.2701    0.4725 C   0  0  0  0  0  0  0  0  0  0  0  0
   -3.1072    2.7493   -0.5692 C   0  0  0  0  0  0  0  0  0  0  0  0
   -4.0075    1.6658   -0.3225 C   0  0  0  0  0  0  0  0  0  0  0  0
   -4.1248    1.2317    0.9992 C   0  0  0  0  0  0  0  0  0  0  0  0
   -3.3259    1.7173    1.9939 C   0  0  0  0  0  0  0  0  0  0  0  0
   -3.4954    0.9578    3.0874 N   0  0  0  0  0  0  0  0  0  0  0  0
   -4.4006    0.0484    2.7348 N   0  0  0  0  0  0  0  0  0  0  0  0
   -4.8908   -0.9885    3.6307 C   0  0  0  0  0  0  0  0  0  0  0  0
   -6.0888   -0.4746    4.4163 C   0  0  0  0  0  0  0  0  0  0  0  0
   -4.8018    0.1732    1.4742 N   0  0  0  0  0  0  0  0  0  0  0  0
   -4.5813    0.9491   -1.4042 C   0  0  0  0  0  0  0  0  0  0  0  0
   -4.2218    1.2625   -2.7353 C   0  0  0  0  0  0  0  0  0  0  0  0
   -3.4484    2.4136   -2.9326 C   0  0  0  0  0  0  0  0  0  0  0  0
   -2.9210    2.8741   -4.0793 N   0  0  0  0  0  0  0  0  0  0  0  0
   -2.1157    3.8675   -3.7151 N   0  0  0  0  0  0  0  0  0  0  0  0
   -1.3632    4.6790   -4.6625 C   0  0  0  0  0  0  0  0  0  0  0  0
   -2.2734    5.7278   -5.2922 C   0  0  0  0  0  0  0  0  0  0  0  0
   -2.0714    4.0423   -2.3972 N   0  0  0  0  0  0  0  0  0  0  0  0
   -2.9200    3.1274   -1.8981 C   0  0  0  0  0  0  0  0  0  0  0  0
   -4.2817    0.2411   -3.8078 C   0  0  0  0  0  0  0  0  0  0  0  0
   -4.7204    0.5978   -5.0967 C   0  0  0  0  0  0  0  0  0  0  0  0
   -5.4105    1.7510   -5.2870 F   0  0  0  0  0  0  0  0  0  0  0  0
   -4.3545   -0.1716   -6.2076 C   0  0  0  0  0  0  0  0  0  0  0  0
   -4.6973    0.2522   -7.4530 F   0  0  0  0  0  0  0  0  0  0  0  0
   -3.5281   -1.2949   -6.0463 C   0  0  0  0  0  0  0  0  0  0  0  0
   -3.1948   -1.7292   -4.7538 C   0  0  0  0  0  0  0  0  0  0  0  0
   -2.3856   -2.8061   -4.5724 N   0  0  0  0  0  0  0  0  0  0  0  0
   -1.9736   -3.2106   -3.3406 C   0  0  0  0  0  0  0  0  0  0  0  0
   -0.9642   -4.3255   -3.2645 C   0  0  0  0  0  0  0  0  0  0  0  0
    0.4511   -3.7667   -3.3870 C   0  0  0  0  0  0  0  0  0  0  0  0
   -2.3971   -2.4800   -2.2080 C   0  0  0  0  0  0  0  0  0  0  0  0
   -3.1627   -1.3724   -2.4034 N   0  0  0  0  0  0  0  0  0  0  0  0
   -3.5809   -0.9716   -3.6351 C   0  0  0  0  0  0  0  0  0  0  0  0
   -1.9989   -2.8774   -0.8042 C   0  0  0  0  0  0  0  0  0  0  0  0
   -2.7246   -2.0742    0.2776 C   0  0  0  0  0  0  0  0  0  0  0  0
   -2.8549   -1.8870   -7.2177 C   0  0  0  0  0  0  0  0  0  0  0  0
   -1.5451   -1.6585   -7.4644 C   0  0  0  0  0  0  0  0  0  0  0  0
   -0.6623   -0.8335   -6.6256 C   0  0  0  0  0  0  0  0  0  0  0  0
   -1.0198    0.0356   -5.7866 O   0  0  0  0  0  0  0  0  0  0  0  0
    0.7055   -1.1382   -6.9640 C   0  0  0  0  0  0  0  0  0  0  0  0
    1.8577   -0.6979   -6.3168 C   0  0  0  0  0  0  0  0  0  0  0  0
    3.1000   -1.1814   -6.7542 C   0  0  0  0  0  0  0  0  0  0  0  0
    4.2859   -0.7693   -6.1249 C   0  0  0  0  0  0  0  0  0  0  0  0
    5.5180   -1.2681   -6.5566 C   0  0  0  0  0  0  0  0  0  0  0  0
    5.5783   -2.1766   -7.6178 C   0  0  0  0  0  0  0  0  0  0  0  0
    6.7795   -2.6543   -8.0302 F   0  0  0  0  0  0  0  0  0  0  0  0
    4.4064   -2.6021   -8.2502 C   0  0  0  0  0  0  0  0  0  0  0  0
    3.1581   -2.1162   -7.8261 C   0  0  0  0  0  0  0  0  0  0  0  0
    1.9690   -2.5513   -8.4498 C   0  0  0  0  0  0  0  0  0  0  0  0
    0.7374   -2.0289   -8.0196 C   0  0  0  0  0  0  0  0  0  0  0  0
   -0.6549   -2.3259   -8.4694 C   0  0  0  0  0  0  0  0  0  0  0  0
   -1.0296   -2.9049   -9.6401 C   0  0  0  0  0  0  0  0  0  0  0  0
   -0.0784   -3.3424  -10.6285 C   0  0  0  0  0  0  0  0  0  0  0  0
    0.6747   -3.6914  -11.4376 N   0  0  0  0  0  0  0  0  0  0  0  0
   -2.4054   -3.0097  -10.0475 C   0  0  0  0  0  0  0  0  0  0  0  0
   -3.5091   -3.1034  -10.3819 N   0  0  0  0  0  0  0  0  0  0  0  0
    2.6814    4.2410    5.2240 H   0  0  0  0  0  0  0  0  0  0  0  0
    0.8572   -1.2840    7.5893 H   0  0  0  0  0  0  0  0  0  0  0  0
    1.3309   -3.2823    8.9839 H   0  0  0  0  0  0  0  0  0  0  0  0
    2.8086   -4.4857   10.5527 H   0  0  0  0  0  0  0  0  0  0  0  0
    5.6462   -1.2711   10.4253 H   0  0  0  0  0  0  0  0  0  0  0  0
    5.1970    0.6934    9.0506 H   0  0  0  0  0  0  0  0  0  0  0  0
    3.2936    3.5299    2.0679 H   0  0  0  0  0  0  0  0  0  0  0  0
    2.5871    2.2666    0.9870 H   0  0  0  0  0  0  0  0  0  0  0  0
    4.2942    0.6282    1.7608 H   0  0  0  0  0  0  0  0  0  0  0  0
    5.0830    2.1172    1.1095 H   0  0  0  0  0  0  0  0  0  0  0  0
    4.9711    1.8623    2.8966 H   0  0  0  0  0  0  0  0  0  0  0  0
    0.3775   -0.4767    0.5103 H   0  0  0  0  0  0  0  0  0  0  0  0
    1.6516    0.0241    1.6572 H   0  0  0  0  0  0  0  0  0  0  0  0
    0.1038   -1.8306    2.4953 H   0  0  0  0  0  0  0  0  0  0  0  0
   -1.2471   -0.6323    2.4896 H   0  0  0  0  0  0  0  0  0  0  0  0
    0.1784   -0.3913    3.5782 H   0  0  0  0  0  0  0  0  0  0  0  0
   -1.8389    5.7785    7.0565 H   0  0  0  0  0  0  0  0  0  0  0  0
   -3.7420    5.4822    5.4760 H   0  0  0  0  0  0  0  0  0  0  0  0
   -1.5502    4.0169    0.2523 H   0  0  0  0  0  0  0  0  0  0  0  0
   -5.1838   -1.8893    3.0457 H   0  0  0  0  0  0  0  0  0  0  0  0
   -4.0844   -1.2852    4.3357 H   0  0  0  0  0  0  0  0  0  0  0  0
   -6.4707   -1.2745    5.0850 H   0  0  0  0  0  0  0  0  0  0  0  0
   -6.9002   -0.1711    3.7216 H   0  0  0  0  0  0  0  0  0  0  0  0
   -5.7837    0.3898    5.0427 H   0  0  0  0  0  0  0  0  0  0  0  0
   -5.1678    0.0605   -1.2099 H   0  0  0  0  0  0  0  0  0  0  0  0
   -0.5197    5.1857   -4.1421 H   0  0  0  0  0  0  0  0  0  0  0  0
   -0.9420    4.0287   -5.4563 H   0  0  0  0  0  0  0  0  0  0  0  0
   -2.6855    6.3964   -4.5038 H   0  0  0  0  0  0  0  0  0  0  0  0
   -3.1124    5.2350   -5.8316 H   0  0  0  0  0  0  0  0  0  0  0  0
   -1.6906    6.3399   -6.0138 H   0  0  0  0  0  0  0  0  0  0  0  0
   -1.0615   -4.9045   -2.3225 H   0  0  0  0  0  0  0  0  0  0  0  0
   -1.1386   -5.0355   -4.1005 H   0  0  0  0  0  0  0  0  0  0  0  0
    0.5909   -3.2785   -4.3741 H   0  0  0  0  0  0  0  0  0  0  0  0
    1.1859   -4.5904   -3.2919 H   0  0  0  0  0  0  0  0  0  0  0  0
    0.6519   -3.0264   -2.5852 H   0  0  0  0  0  0  0  0  0  0  0  0
   -2.2448   -3.9528   -0.6427 H   0  0  0  0  0  0  0  0  0  0  0  0
   -0.9028   -2.7365   -0.6740 H   0  0  0  0  0  0  0  0  0  0  0  0
   -3.8228   -2.1530    0.1458 H   0  0  0  0  0  0  0  0  0  0  0  0
   -2.4646   -2.4779    1.2789 H   0  0  0  0  0  0  0  0  0  0  0  0
   -2.4168   -1.0088    0.2324 H   0  0  0  0  0  0  0  0  0  0  0  0
   -3.4343   -2.5765   -7.8086 H   0  0  0  0  0  0  0  0  0  0  0  0
    1.7860   -0.0099   -5.4800 H   0  0  0  0  0  0  0  0  0  0  0  0
    4.2580   -0.0720   -5.2922 H   0  0  0  0  0  0  0  0  0  0  0  0
    6.4296   -0.9480   -6.0688 H   0  0  0  0  0  0  0  0  0  0  0  0
    4.4689   -3.3110   -9.0685 H   0  0  0  0  0  0  0  0  0  0  0  0
    2.0266   -3.3033   -9.2187 H   0  0  0  0  0  0  0  0  0  0  0  0
  1  2  2  3
  2  3  1  0
  3  4  2  0
  3  5  1  0
  5  6  2  0
  6  7  1  0
  7  8  2  0
  8  9  1  0
  9 10  2  0
 10 11  1  0
 10 12  1  0
 12 13  2  0
 13 14  1  0
 14 15  2  0
 15 16  1  0
 16 17  2  3
 17 18  1  0
 18 19  3  0
 17 20  1  0
 20 21  3  0
  1 22  1  0
 22 23  2  0
 23 24  1  0
 24 25  1  0
 25 26  1  0
 23 27  1  0
 27 28  1  0
 28 29  1  0
 29 30  1  0
 27 31  2  0
 31 32  1  0
 32 33  2  0
 33 34  1  0
 34 35  2  0
 35 36  1  0
 36 37  2  0
 31 38  1  0
 38 39  2  0
 39 40  1  0
 40 41  2  0
 41 42  1  0
 42 43  1  0
 43 44  2  0
 44 45  1  0
 45 46  1  0
 46 47  1  0
 45 48  1  0
 41 49  1  0
 49 50  2  0
 50 51  1  0
 51 52  2  0
 52 53  1  0
 53 54  1  0
 54 55  1  0
 53 56  1  0
 56 57  2  0
 50 58  1  0
 58 59  2  0
 59 60  1  0
 59 61  1  0
 61 62  1  0
 61 63  2  0
 63 64  1  0
 64 65  2  0
 65 66  1  0
 66 67  1  0
 67 68  1  0
 66 69  2  0
 69 70  1  0
 70 71  2  0
 69 72  1  0
 72 73  1  0
 63 74  1  0
 74 75  2  3
 75 76  1  0
 76 77  2  0
 76 78  1  0
 78 79  2  0
 79 80  1  0
 80 81  2  0
 81 82  1  0
 82 83  2  0
 83 84  1  0
 83 85  1  0
 85 86  2  0
 86 87  1  0
 87 88  2  0
 88 89  1  0
 89 90  2  3
 90 91  1  0
 91 92  3  0
 90 93  1  0
 93 94  3  0
 16  2  1  0
 33 22  1  0
 43 38  1  0
 57 51  1  0
 71 58  1  0
 89 75  1  0
 15  5  1  0
 37 32  1  0
 57 40  1  0
 71 64  1  0
 88 78  1  0
 13  7  1  0
 48 42  2  0
 86 80  1  0
  1 95  1  0
  6 96  1  0
  8 97  1  0
  9 98  1  0
 12 99  1  0
 14100  1  0
 25101  1  0
 25102  1  0
 26103  1  0
 26104  1  0
 26105  1  0
 29106  1  0
 29107  1  0
 30108  1  0
 30109  1  0
 30110  1  0
 35111  1  0
 36112  1  0
 39113  1  0
 46114  1  0
 46115  1  0
 47116  1  0
 47117  1  0
 47118  1  0
 49119  1  0
 54120  1  0
 54121  1  0
 55122  1  0
 55123  1  0
 55124  1  0
 67125  1  0
 67126  1  0
 68127  1  0
 68128  1  0
 68129  1  0
 72130  1  0
 72131  1  0
 73132  1  0
 73133  1  0
 73134  1  0
 74135  1  0
 79136  1  0
 81137  1  0
 82138  1  0
 85139  1  0
 87140  1  0
M  END

