
     RDKit          3D

185205  0  0  0  0  0  0  0  0999 V2000
   -6.1244    5.5170   -1.9358 C   0  0  0  0  0  0  0  0  0  0  0  0
   -5.5847    5.7949   -0.7282 C   0  0  0  0  0  0  0  0  0  0  0  0
   -5.6144    4.8943    0.4388 C   0  0  0  0  0  0  0  0  0  0  0  0
   -6.1337    3.7478    0.4919 O   0  0  0  0  0  0  0  0  0  0  0  0
   -4.9581    5.5378    1.5440 C   0  0  0  0  0  0  0  0  0  0  0  0
   -4.8744    5.0785    2.8616 C   0  0  0  0  0  0  0  0  0  0  0  0
   -4.2428    5.8897    3.8151 C   0  0  0  0  0  0  0  0  0  0  0  0
   -4.1060    5.4507    5.1406 C   0  0  0  0  0  0  0  0  0  0  0  0
   -3.4650    6.2576    6.0837 C   0  0  0  0  0  0  0  0  0  0  0  0
   -2.9584    7.5075    5.7149 C   0  0  0  0  0  0  0  0  0  0  0  0
   -2.3311    8.2786    6.6348 F   0  0  0  0  0  0  0  0  0  0  0  0
   -3.0963    7.9635    4.3973 C   0  0  0  0  0  0  0  0  0  0  0  0
   -3.7369    7.1656    3.4369 C   0  0  0  0  0  0  0  0  0  0  0  0
   -3.8776    7.6152    2.1010 C   0  0  0  0  0  0  0  0  0  0  0  0
   -4.4751    6.7704    1.1472 C   0  0  0  0  0  0  0  0  0  0  0  0
   -4.7753    6.9948   -0.3033 C   0  0  0  0  0  0  0  0  0  0  0  0
   -4.2474    7.9760   -1.0831 C   0  0  0  0  0  0  0  0  0  0  0  0
   -4.5449    8.1117   -2.4810 C   0  0  0  0  0  0  0  0  0  0  0  0
   -4.7784    8.2163   -3.6162 N   0  0  0  0  0  0  0  0  0  0  0  0
   -3.1628    8.8062   -0.6251 C   0  0  0  0  0  0  0  0  0  0  0  0
   -2.2718    9.4582   -0.2691 N   0  0  0  0  0  0  0  0  0  0  0  0
   -6.5331    4.1467   -2.2975 C   0  0  0  0  0  0  0  0  0  0  0  0
   -5.5851    3.3173   -2.9200 C   0  0  0  0  0  0  0  0  0  0  0  0
   -4.3827    3.8809   -3.3770 O   0  0  0  0  0  0  0  0  0  0  0  0
   -4.0175    3.9340   -4.7528 C   0  0  0  0  0  0  0  0  0  0  0  0
   -4.9539    4.8611   -5.5238 C   0  0  0  0  0  0  0  0  0  0  0  0
   -5.7927    1.9287   -2.9733 C   0  0  0  0  0  0  0  0  0  0  0  0
   -4.7791    1.1205   -3.4984 O   0  0  0  0  0  0  0  0  0  0  0  0
   -4.9801    0.2793   -4.6311 C   0  0  0  0  0  0  0  0  0  0  0  0
   -3.9972   -0.8758   -4.5863 C   0  0  0  0  0  0  0  0  0  0  0  0
   -6.9252    1.3492   -2.3453 C   0  0  0  0  0  0  0  0  0  0  0  0
   -7.9339    2.2003   -1.8575 C   0  0  0  0  0  0  0  0  0  0  0  0
   -7.7502    3.6035   -1.8628 C   0  0  0  0  0  0  0  0  0  0  0  0
   -8.7148    4.3997   -1.3273 N   0  0  0  0  0  0  0  0  0  0  0  0
   -9.8585    3.8772   -0.8087 C   0  0  0  0  0  0  0  0  0  0  0  0
  -10.0273    2.4926   -0.7729 C   0  0  0  0  0  0  0  0  0  0  0  0
   -9.0587    1.6883   -1.2858 N   0  0  0  0  0  0  0  0  0  0  0  0
   -6.7237    0.0315   -1.7023 C   0  0  0  0  0  0  0  0  0  0  0  0
   -6.9670   -1.2568   -2.2353 C   0  0  0  0  0  0  0  0  0  0  0  0
   -7.8721   -1.5607   -3.3682 C   0  0  0  0  0  0  0  0  0  0  0  0
   -7.4587   -2.3835   -4.4280 C   0  0  0  0  0  0  0  0  0  0  0  0
   -8.3467   -2.7065   -5.4575 C   0  0  0  0  0  0  0  0  0  0  0  0
   -9.6558   -2.2243   -5.4385 C   0  0  0  0  0  0  0  0  0  0  0  0
  -10.0889   -1.4029   -4.3838 C   0  0  0  0  0  0  0  0  0  0  0  0
  -11.5245   -0.9499   -4.3200 C   0  0  0  0  0  0  0  0  0  0  0  0
  -12.3681   -1.9548   -3.5411 C   0  0  0  0  0  0  0  0  0  0  0  0
   -9.1955   -1.0791   -3.3493 C   0  0  0  0  0  0  0  0  0  0  0  0
   -6.1957   -2.2196   -1.5599 C   0  0  0  0  0  0  0  0  0  0  0  0
   -5.7435   -3.8367   -1.9107 S   0  0  0  0  0  0  0  0  0  0  0  0
   -4.5215   -3.7968   -0.7247 C   0  0  0  0  0  0  0  0  0  0  0  0
   -3.3894   -4.4817   -0.3613 C   0  0  0  0  0  0  0  0  0  0  0  0
   -2.9247   -5.7664   -0.6644 C   0  0  0  0  0  0  0  0  0  0  0  0
   -1.6786   -6.1916   -0.1108 C   0  0  0  0  0  0  0  0  0  0  0  0
   -1.2631   -7.4397   -0.4366 N   0  0  0  0  0  0  0  0  0  0  0  0
   -2.5284   -7.9196   -1.3892 S   0  0  0  0  0  0  0  0  0  0  0  0
   -3.5913   -6.6517   -1.4444 N   0  0  0  0  0  0  0  0  0  0  0  0
   -0.9385   -5.2916    0.6697 C   0  0  0  0  0  0  0  0  0  0  0  0
    0.3777   -5.3262    1.0516 C   0  0  0  0  0  0  0  0  0  0  0  0
    1.7236   -6.2929    0.6871 S   0  0  0  0  0  0  0  0  0  0  0  0
    2.7986   -5.0076    1.0139 C   0  0  0  0  0  0  0  0  0  0  0  0
    4.1803   -4.8306    0.8593 C   0  0  0  0  0  0  0  0  0  0  0  0
    5.1221   -5.9015    0.4853 C   0  0  0  0  0  0  0  0  0  0  0  0
    4.8731   -6.7232   -0.6215 C   0  0  0  0  0  0  0  0  0  0  0  0
    5.7411   -7.7762   -0.9259 C   0  0  0  0  0  0  0  0  0  0  0  0
    6.8473   -8.0323   -0.1170 C   0  0  0  0  0  0  0  0  0  0  0  0
    7.1194   -7.2123    0.9915 C   0  0  0  0  0  0  0  0  0  0  0  0
    8.2848   -7.5146    1.9001 C   0  0  0  0  0  0  0  0  0  0  0  0
    7.8115   -8.1322    3.2132 C   0  0  0  0  0  0  0  0  0  0  0  0
    6.2572   -6.1403    1.2784 C   0  0  0  0  0  0  0  0  0  0  0  0
    4.5366   -3.4889    1.0886 C   0  0  0  0  0  0  0  0  0  0  0  0
    3.1505   -2.5710    1.4300 S   0  0  0  0  0  0  0  0  0  0  0  0
    2.1051   -3.8732    1.3512 C   0  0  0  0  0  0  0  0  0  0  0  0
    0.7265   -4.0527    1.3821 C   0  0  0  0  0  0  0  0  0  0  0  0
   -0.3057   -3.1761    1.2553 N   0  0  0  0  0  0  0  0  0  0  0  0
   -1.3654   -3.9712    0.8877 C   0  0  0  0  0  0  0  0  0  0  0  0
   -2.6623   -3.5949    0.4533 C   0  0  0  0  0  0  0  0  0  0  0  0
   -3.3788   -2.4488    0.6900 N   0  0  0  0  0  0  0  0  0  0  0  0
   -4.4751   -2.6079   -0.0835 C   0  0  0  0  0  0  0  0  0  0  0  0
   -5.4251   -1.7213   -0.5418 C   0  0  0  0  0  0  0  0  0  0  0  0
   -5.6014   -0.0757   -0.4268 S   0  0  0  0  0  0  0  0  0  0  0  0
   -3.3441   -1.5458    1.8535 C   0  0  0  0  0  0  0  0  0  0  0  0
   -3.2537   -2.3307    3.1649 C   0  0  0  0  0  0  0  0  0  0  0  0
   -0.1241   -1.7474    0.9686 C   0  0  0  0  0  0  0  0  0  0  0  0
    0.1312   -0.9522    2.2479 C   0  0  0  0  0  0  0  0  0  0  0  0
    5.8185   -2.8567    0.7609 C   0  0  0  0  0  0  0  0  0  0  0  0
    7.0291   -2.5578    1.8860 S   0  0  0  0  0  0  0  0  0  0  0  0
    7.8723   -1.4174    0.9738 C   0  0  0  0  0  0  0  0  0  0  0  0
    7.2068   -1.2534   -0.2437 C   0  0  0  0  0  0  0  0  0  0  0  0
    7.5595   -0.2747   -1.2976 C   0  0  0  0  0  0  0  0  0  0  0  0
    8.6240    0.4000   -1.2123 O   0  0  0  0  0  0  0  0  0  0  0  0
    6.6251   -0.1004   -2.4409 C   0  0  0  0  0  0  0  0  0  0  0  0
    6.7266    0.8624   -3.4526 C   0  0  0  0  0  0  0  0  0  0  0  0
    7.7392    1.9641   -3.5890 C   0  0  0  0  0  0  0  0  0  0  0  0
    7.4165    3.1237   -2.6518 C   0  0  0  0  0  0  0  0  0  0  0  0
    5.3821    0.7157   -4.4489 S   0  0  0  0  0  0  0  0  0  0  0  0
    4.6715   -0.5793   -3.6531 C   0  0  0  0  0  0  0  0  0  0  0  0
    3.3296   -1.1441   -4.0155 C   0  0  0  0  0  0  0  0  0  0  0  0
    2.2332   -0.5615   -3.1224 C   0  0  0  0  0  0  0  0  0  0  0  0
    5.4743   -0.9085   -2.5549 C   0  0  0  0  0  0  0  0  0  0  0  0
    5.1781   -1.9496   -1.5427 C   0  0  0  0  0  0  0  0  0  0  0  0
    4.2235   -2.7546   -1.7022 O   0  0  0  0  0  0  0  0  0  0  0  0
    6.0508   -2.0457   -0.3544 C   0  0  0  0  0  0  0  0  0  0  0  0
    9.1116   -0.7449    1.3955 C   0  0  0  0  0  0  0  0  0  0  0  0
    9.2083    0.0257    2.4963 C   0  0  0  0  0  0  0  0  0  0  0  0
    8.1415    0.2668    3.4768 C   0  0  0  0  0  0  0  0  0  0  0  0
    6.9014    0.1412    3.2835 O   0  0  0  0  0  0  0  0  0  0  0  0
    8.7503    0.7470    4.6968 C   0  0  0  0  0  0  0  0  0  0  0  0
    8.1301    0.9958    5.9181 C   0  0  0  0  0  0  0  0  0  0  0  0
    8.9261    1.3809    7.0108 C   0  0  0  0  0  0  0  0  0  0  0  0
    8.3427    1.6228    8.2604 C   0  0  0  0  0  0  0  0  0  0  0  0
    9.1376    1.9891    9.3482 C   0  0  0  0  0  0  0  0  0  0  0  0
   10.5246    2.1110    9.1959 C   0  0  0  0  0  0  0  0  0  0  0  0
   11.2865    2.4670   10.2602 F   0  0  0  0  0  0  0  0  0  0  0  0
   11.1236    1.8715    7.9546 C   0  0  0  0  0  0  0  0  0  0  0  0
   10.3361    1.5030    6.8524 C   0  0  0  0  0  0  0  0  0  0  0  0
   10.9331    1.2488    5.5960 C   0  0  0  0  0  0  0  0  0  0  0  0
   10.1149    0.8861    4.5127 C   0  0  0  0  0  0  0  0  0  0  0  0
   10.4593    0.5732    3.0939 C   0  0  0  0  0  0  0  0  0  0  0  0
   11.5847    0.9469    2.4269 C   0  0  0  0  0  0  0  0  0  0  0  0
   11.6603    0.9217    0.9892 C   0  0  0  0  0  0  0  0  0  0  0  0
   11.7310    0.9098   -0.1666 N   0  0  0  0  0  0  0  0  0  0  0  0
   12.7353    1.5006    3.0900 C   0  0  0  0  0  0  0  0  0  0  0  0
   13.6729    1.9389    3.6062 N   0  0  0  0  0  0  0  0  0  0  0  0
   -6.0841    6.2140   -2.7549 H   0  0  0  0  0  0  0  0  0  0  0  0
   -5.2913    4.1100    3.1299 H   0  0  0  0  0  0  0  0  0  0  0  0
   -4.4824    4.4806    5.4462 H   0  0  0  0  0  0  0  0  0  0  0  0
   -3.3647    5.9132    7.1055 H   0  0  0  0  0  0  0  0  0  0  0  0
   -2.7138    8.9397    4.1320 H   0  0  0  0  0  0  0  0  0  0  0  0
   -3.5465    8.6108    1.8478 H   0  0  0  0  0  0  0  0  0  0  0  0
   -2.9807    4.3249   -4.8296 H   0  0  0  0  0  0  0  0  0  0  0  0
   -4.0344    2.9266   -5.2087 H   0  0  0  0  0  0  0  0  0  0  0  0
   -4.8996    5.8879   -5.0990 H   0  0  0  0  0  0  0  0  0  0  0  0
   -6.0061    4.4978   -5.4544 H   0  0  0  0  0  0  0  0  0  0  0  0
   -4.6523    4.8967   -6.5924 H   0  0  0  0  0  0  0  0  0  0  0  0
   -6.0150   -0.1064   -4.6592 H   0  0  0  0  0  0  0  0  0  0  0  0
   -4.8189    0.8610   -5.5600 H   0  0  0  0  0  0  0  0  0  0  0  0
   -2.9709   -0.4981   -4.3940 H   0  0  0  0  0  0  0  0  0  0  0  0
   -4.2758   -1.5815   -3.7754 H   0  0  0  0  0  0  0  0  0  0  0  0
   -4.0096   -1.4151   -5.5543 H   0  0  0  0  0  0  0  0  0  0  0  0
  -10.6158    4.5346   -0.4007 H   0  0  0  0  0  0  0  0  0  0  0  0
  -10.9213    2.0593   -0.3454 H   0  0  0  0  0  0  0  0  0  0  0  0
   -6.4489   -2.7648   -4.4693 H   0  0  0  0  0  0  0  0  0  0  0  0
   -8.0176   -3.3424   -6.2739 H   0  0  0  0  0  0  0  0  0  0  0  0
  -10.3371   -2.4997   -6.2376 H   0  0  0  0  0  0  0  0  0  0  0  0
  -11.9392   -0.8439   -5.3471 H   0  0  0  0  0  0  0  0  0  0  0  0
  -11.5900    0.0454   -3.8324 H   0  0  0  0  0  0  0  0  0  0  0  0
  -12.0481   -1.9795   -2.4777 H   0  0  0  0  0  0  0  0  0  0  0  0
  -12.2660   -2.9722   -3.9754 H   0  0  0  0  0  0  0  0  0  0  0  0
  -13.4363   -1.6555   -3.5823 H   0  0  0  0  0  0  0  0  0  0  0  0
   -9.5499   -0.4987   -2.5112 H   0  0  0  0  0  0  0  0  0  0  0  0
    4.0090   -6.5521   -1.2541 H   0  0  0  0  0  0  0  0  0  0  0  0
    5.5400   -8.4116   -1.7829 H   0  0  0  0  0  0  0  0  0  0  0  0
    7.4953   -8.8701   -0.3503 H   0  0  0  0  0  0  0  0  0  0  0  0
    8.8458   -6.5784    2.1109 H   0  0  0  0  0  0  0  0  0  0  0  0
    8.9896   -8.2173    1.4045 H   0  0  0  0  0  0  0  0  0  0  0  0
    7.2224   -7.3949    3.7966 H   0  0  0  0  0  0  0  0  0  0  0  0
    8.6928   -8.4357    3.8231 H   0  0  0  0  0  0  0  0  0  0  0  0
    7.1885   -9.0307    3.0228 H   0  0  0  0  0  0  0  0  0  0  0  0
    6.4472   -5.5235    2.1465 H   0  0  0  0  0  0  0  0  0  0  0  0
   -4.2779   -0.9516    1.9020 H   0  0  0  0  0  0  0  0  0  0  0  0
   -2.5433   -0.7995    1.7725 H   0  0  0  0  0  0  0  0  0  0  0  0
   -4.0847   -3.0668    3.2200 H   0  0  0  0  0  0  0  0  0  0  0  0
   -2.2916   -2.8673    3.2450 H   0  0  0  0  0  0  0  0  0  0  0  0
   -3.3373   -1.6333    4.0222 H   0  0  0  0  0  0  0  0  0  0  0  0
   -0.9805   -1.3416    0.4044 H   0  0  0  0  0  0  0  0  0  0  0  0
    0.7373   -1.6052    0.2758 H   0  0  0  0  0  0  0  0  0  0  0  0
    1.0972   -1.2389    2.7044 H   0  0  0  0  0  0  0  0  0  0  0  0
   -0.6604   -1.1422    2.9998 H   0  0  0  0  0  0  0  0  0  0  0  0
    0.1557    0.1319    2.0184 H   0  0  0  0  0  0  0  0  0  0  0  0
    8.7612    1.5784   -3.3934 H   0  0  0  0  0  0  0  0  0  0  0  0
    7.7323    2.3400   -4.6359 H   0  0  0  0  0  0  0  0  0  0  0  0
    8.1634    3.9344   -2.7964 H   0  0  0  0  0  0  0  0  0  0  0  0
    6.4090    3.5276   -2.8763 H   0  0  0  0  0  0  0  0  0  0  0  0
    7.4463    2.7988   -1.5930 H   0  0  0  0  0  0  0  0  0  0  0  0
    3.3374   -2.2500   -3.9410 H   0  0  0  0  0  0  0  0  0  0  0  0
    3.0989   -0.8928   -5.0740 H   0  0  0  0  0  0  0  0  0  0  0  0
    1.2538   -0.9995   -3.4018 H   0  0  0  0  0  0  0  0  0  0  0  0
    2.4378   -0.7817   -2.0530 H   0  0  0  0  0  0  0  0  0  0  0  0
    2.1850    0.5398   -3.2540 H   0  0  0  0  0  0  0  0  0  0  0  0
    9.9777   -0.9530    0.7923 H   0  0  0  0  0  0  0  0  0  0  0  0
    7.0577    0.8734    6.0194 H   0  0  0  0  0  0  0  0  0  0  0  0
    7.2706    1.5289    8.3985 H   0  0  0  0  0  0  0  0  0  0  0  0
    8.6806    2.1796   10.3114 H   0  0  0  0  0  0  0  0  0  0  0  0
   12.1956    1.9724    7.8598 H   0  0  0  0  0  0  0  0  0  0  0  0
   12.0039    1.2980    5.5054 H   0  0  0  0  0  0  0  0  0  0  0  0
  1  2  2  3
  2  3  1  0
  3  4  2  0
  3  5  1  0
  5  6  2  0
  6  7  1  0
  7  8  2  0
  8  9  1  0
  9 10  2  0
 10 11  1  0
 10 12  1  0
 12 13  2  0
 13 14  1  0
 14 15  2  0
 15 16  1  0
 16 17  2  3
 17 18  1  0
 18 19  3  0
 17 20  1  0
 20 21  3  0
  1 22  1  0
 22 23  2  0
 23 24  1  0
 24 25  1  0
 25 26  1  0
 23 27  1  0
 27 28  1  0
 28 29  1  0
 29 30  1  0
 27 31  2  0
 31 32  1  0
 32 33  2  0
 33 34  1  0
 34 35  2  0
 35 36  1  0
 36 37  2  0
 31 38  1  0
 38 39  2  0
 39 40  1  0
 40 41  2  0
 41 42  1  0
 42 43  2  0
 43 44  1  0
 44 45  1  0
 45 46  1  0
 44 47  2  0
 39 48  1  0
 48 49  1  0
 49 50  1  0
 50 51  1  0
 51 52  1  0
 52 53  1  0
 53 54  2  0
 54 55  1  0
 55 56  1  0
 53 57  1  0
 57 58  1  0
 58 59  1  0
 59 60  1  0
 60 61  1  0
 61 62  1  0
 62 63  2  0
 63 64  1  0
 64 65  2  0
 65 66  1  0
 66 67  1  0
 67 68  1  0
 66 69  2  0
 61 70  2  0
 70 71  1  0
 71 72  1  0
 72 73  1  0
 73 74  1  0
 74 75  1  0
 75 76  1  0
 76 77  1  0
 77 78  1  0
 78 79  1  0
 79 80  1  0
 77 81  1  0
 81 82  1  0
 74 83  1  0
 83 84  1  0
 70 85  1  0
 85 86  1  0
 86 87  1  0
 87 88  2  0
 88 89  1  0
 89 90  2  0
 89 91  1  0
 91 92  2  0
 92 93  1  0
 93 94  1  0
 92 95  1  0
 95 96  1  0
 96 97  1  0
 97 98  1  0
 96 99  2  0
 99100  1  0
100101  2  0
100102  1  0
 87103  1  0
103104  2  3
104105  1  0
105106  2  0
105107  1  0
107108  2  0
108109  1  0
109110  2  0
110111  1  0
111112  2  0
112113  1  0
112114  1  0
114115  2  0
115116  1  0
116117  2  0
117118  1  0
118119  2  3
119120  1  0
120121  3  0
119122  1  0
122123  3  0
 16  2  1  0
 33 22  1  0
 80 38  1  0
102 85  2  0
118104  1  0
 15  5  1  0
 37 32  1  0
 47 40  1  0
 79 48  2  0
102 88  1  0
117107  1  0
 13  7  1  0
 78 50  2  0
 99 91  1  0
115109  1  0
 76 51  2  0
 56 52  2  0
 75 57  2  0
 73 58  2  0
 72 60  2  0
 69 62  1  0
  1124  1  0
  6125  1  0
  8126  1  0
  9127  1  0
 12128  1  0
 14129  1  0
 25130  1  0
 25131  1  0
 26132  1  0
 26133  1  0
 26134  1  0
 29135  1  0
 29136  1  0
 30137  1  0
 30138  1  0
 30139  1  0
 35140  1  0
 36141  1  0
 41142  1  0
 42143  1  0
 43144  1  0
 45145  1  0
 45146  1  0
 46147  1  0
 46148  1  0
 46149  1  0
 47150  1  0
 63151  1  0
 64152  1  0
 65153  1  0
 67154  1  0
 67155  1  0
 68156  1  0
 68157  1  0
 68158  1  0
 69159  1  0
 81160  1  0
 81161  1  0
 82162  1  0
 82163  1  0
 82164  1  0
 83165  1  0
 83166  1  0
 84167  1  0
 84168  1  0
 84169  1  0
 93170  1  0
 93171  1  0
 94172  1  0
 94173  1  0
 94174  1  0
 97175  1  0
 97176  1  0
 98177  1  0
 98178  1  0
 98179  1  0
103180  1  0
108181  1  0
110182  1  0
111183  1  0
114184  1  0
116185  1  0
M  END

