
     RDKit          3D

178197  0  0  0  0  0  0  0  0999 V2000
  -10.2090   -1.4150    0.2229 C   0  0  0  0  0  0  0  0  0  0  0  0
   -9.9433   -2.6737   -0.1922 C   0  0  0  0  0  0  0  0  0  0  0  0
   -8.6794   -3.3889    0.0396 C   0  0  0  0  0  0  0  0  0  0  0  0
   -7.5495   -2.8715    0.2463 O   0  0  0  0  0  0  0  0  0  0  0  0
   -8.9370   -4.8057   -0.0307 C   0  0  0  0  0  0  0  0  0  0  0  0
   -8.0753   -5.8409    0.3264 C   0  0  0  0  0  0  0  0  0  0  0  0
   -8.5712   -7.1557    0.3223 C   0  0  0  0  0  0  0  0  0  0  0  0
   -7.7466   -8.2244    0.7023 C   0  0  0  0  0  0  0  0  0  0  0  0
   -8.2496   -9.5255    0.7184 C   0  0  0  0  0  0  0  0  0  0  0  0
   -9.5762   -9.7740    0.3498 C   0  0  0  0  0  0  0  0  0  0  0  0
  -10.0562  -11.0421    0.3702 F   0  0  0  0  0  0  0  0  0  0  0  0
  -10.4126   -8.7172   -0.0230 C   0  0  0  0  0  0  0  0  0  0  0  0
   -9.9266   -7.4003   -0.0390 C   0  0  0  0  0  0  0  0  0  0  0  0
  -10.7720   -6.3237   -0.3885 C   0  0  0  0  0  0  0  0  0  0  0  0
  -10.2517   -5.0197   -0.3945 C   0  0  0  0  0  0  0  0  0  0  0  0
  -10.9212   -3.7089   -0.6431 C   0  0  0  0  0  0  0  0  0  0  0  0
  -12.0696   -3.4963   -1.3345 C   0  0  0  0  0  0  0  0  0  0  0  0
  -12.8531   -4.5713   -1.8785 C   0  0  0  0  0  0  0  0  0  0  0  0
  -13.4901   -5.4322   -2.3261 N   0  0  0  0  0  0  0  0  0  0  0  0
  -12.5087   -2.1766   -1.6949 C   0  0  0  0  0  0  0  0  0  0  0  0
  -12.8726   -1.1193   -1.9991 N   0  0  0  0  0  0  0  0  0  0  0  0
   -9.2002   -0.6276    0.9608 C   0  0  0  0  0  0  0  0  0  0  0  0
   -8.7559   -1.0546    2.2374 C   0  0  0  0  0  0  0  0  0  0  0  0
   -9.5083   -1.9417    3.0354 O   0  0  0  0  0  0  0  0  0  0  0  0
  -10.9339   -2.0035    3.1483 C   0  0  0  0  0  0  0  0  0  0  0  0
  -11.5195   -0.6597    3.5645 C   0  0  0  0  0  0  0  0  0  0  0  0
   -7.4629   -0.6851    2.6801 C   0  0  0  0  0  0  0  0  0  0  0  0
   -6.9708   -1.1118    3.9262 O   0  0  0  0  0  0  0  0  0  0  0  0
   -7.7145   -1.0926    5.1538 C   0  0  0  0  0  0  0  0  0  0  0  0
   -8.2861    0.2956    5.4353 C   0  0  0  0  0  0  0  0  0  0  0  0
   -6.6218    0.0782    1.8382 C   0  0  0  0  0  0  0  0  0  0  0  0
   -7.1815    0.6946    0.7001 C   0  0  0  0  0  0  0  0  0  0  0  0
   -8.4702    0.3365    0.2623 C   0  0  0  0  0  0  0  0  0  0  0  0
   -8.9446    0.8583   -0.9041 N   0  0  0  0  0  0  0  0  0  0  0  0
   -8.2143    1.7366   -1.6399 C   0  0  0  0  0  0  0  0  0  0  0  0
   -6.9424    2.0986   -1.2052 C   0  0  0  0  0  0  0  0  0  0  0  0
   -6.4525    1.5645   -0.0564 N   0  0  0  0  0  0  0  0  0  0  0  0
   -5.1470   -0.1013    1.8736 C   0  0  0  0  0  0  0  0  0  0  0  0
   -4.2432   -0.1402    2.9715 C   0  0  0  0  0  0  0  0  0  0  0  0
   -4.5065    0.2750    4.3556 C   0  0  0  0  0  0  0  0  0  0  0  0
   -4.3164   -0.6371    5.4048 C   0  0  0  0  0  0  0  0  0  0  0  0
   -4.4635   -0.2235    6.7284 C   0  0  0  0  0  0  0  0  0  0  0  0
   -4.7609    1.1094    7.0181 C   0  0  0  0  0  0  0  0  0  0  0  0
   -4.9284    2.0400    5.9826 C   0  0  0  0  0  0  0  0  0  0  0  0
   -5.1431    3.4916    6.3066 C   0  0  0  0  0  0  0  0  0  0  0  0
   -3.8062    4.1925    6.5274 C   0  0  0  0  0  0  0  0  0  0  0  0
   -4.8048    1.6166    4.6482 C   0  0  0  0  0  0  0  0  0  0  0  0
   -2.9673   -0.5421    2.5563 C   0  0  0  0  0  0  0  0  0  0  0  0
   -1.4570   -0.7487    3.3380 S   0  0  0  0  0  0  0  0  0  0  0  0
   -0.7120   -1.1512    1.8639 C   0  0  0  0  0  0  0  0  0  0  0  0
    0.4828   -1.5785    1.3482 C   0  0  0  0  0  0  0  0  0  0  0  0
    1.6992   -1.9207    1.9383 C   0  0  0  0  0  0  0  0  0  0  0  0
    2.7582   -2.3776    1.0911 C   0  0  0  0  0  0  0  0  0  0  0  0
    3.9333   -2.6801    1.6988 N   0  0  0  0  0  0  0  0  0  0  0  0
    3.5301   -2.3654    3.2735 S   0  0  0  0  0  0  0  0  0  0  0  0
    1.9539   -1.8507    3.2675 N   0  0  0  0  0  0  0  0  0  0  0  0
    2.5516   -2.4344   -0.2991 C   0  0  0  0  0  0  0  0  0  0  0  0
    3.4755   -2.4166   -1.3063 C   0  0  0  0  0  0  0  0  0  0  0  0
    5.1280   -2.0470   -1.2684 S   0  0  0  0  0  0  0  0  0  0  0  0
    5.0492   -1.2477   -2.7576 C   0  0  0  0  0  0  0  0  0  0  0  0
    5.9046   -0.2832   -3.2990 C   0  0  0  0  0  0  0  0  0  0  0  0
    7.1559    0.1261   -2.6384 C   0  0  0  0  0  0  0  0  0  0  0  0
    7.1058    0.8465   -1.4329 C   0  0  0  0  0  0  0  0  0  0  0  0
    8.2891    1.2611   -0.8190 C   0  0  0  0  0  0  0  0  0  0  0  0
    9.5245    0.9765   -1.4083 C   0  0  0  0  0  0  0  0  0  0  0  0
    9.5798    0.2725   -2.6254 C   0  0  0  0  0  0  0  0  0  0  0  0
   10.9061   -0.0384   -3.2657 C   0  0  0  0  0  0  0  0  0  0  0  0
   11.4263   -1.3970   -2.8065 C   0  0  0  0  0  0  0  0  0  0  0  0
    8.3916   -0.1774   -3.2161 C   0  0  0  0  0  0  0  0  0  0  0  0
    5.2472    0.5032   -4.2642 C   0  0  0  0  0  0  0  0  0  0  0  0
    3.6297   -0.0029   -4.3756 S   0  0  0  0  0  0  0  0  0  0  0  0
    3.7651   -1.2392   -3.2460 C   0  0  0  0  0  0  0  0  0  0  0  0
    2.8524   -1.8956   -2.4120 C   0  0  0  0  0  0  0  0  0  0  0  0
    1.5318   -1.6410   -2.1845 N   0  0  0  0  0  0  0  0  0  0  0  0
    1.3435   -2.0304   -0.8822 C   0  0  0  0  0  0  0  0  0  0  0  0
    0.2601   -1.7203   -0.0286 C   0  0  0  0  0  0  0  0  0  0  0  0
   -1.0526   -1.5220   -0.3484 N   0  0  0  0  0  0  0  0  0  0  0  0
   -1.5840   -1.1271    0.8303 C   0  0  0  0  0  0  0  0  0  0  0  0
   -2.8607   -0.8021    1.2210 C   0  0  0  0  0  0  0  0  0  0  0  0
   -4.3153   -0.5740    0.4571 S   0  0  0  0  0  0  0  0  0  0  0  0
   -1.8052   -2.2371   -1.3827 C   0  0  0  0  0  0  0  0  0  0  0  0
   -2.4099   -3.5270   -0.8256 C   0  0  0  0  0  0  0  0  0  0  0  0
    0.7279   -0.6650   -2.9377 C   0  0  0  0  0  0  0  0  0  0  0  0
    0.3531   -1.1995   -4.3162 C   0  0  0  0  0  0  0  0  0  0  0  0
    5.6944    1.8589   -4.6312 C   0  0  0  0  0  0  0  0  0  0  0  0
    6.8529    2.0672   -5.3925 C   0  0  0  0  0  0  0  0  0  0  0  0
    7.6696    1.1205   -6.1500 C   0  0  0  0  0  0  0  0  0  0  0  0
    7.3506   -0.0655   -6.4226 O   0  0  0  0  0  0  0  0  0  0  0  0
    8.8597    1.7523   -6.6154 N   0  0  0  0  0  0  0  0  0  0  0  0
    9.7620    1.2312   -7.6365 C   0  0  0  0  0  0  0  0  0  0  0  0
    9.1932    1.4872   -9.0264 C   0  0  0  0  0  0  0  0  0  0  0  0
    8.7291    3.1170   -6.2091 C   0  0  0  0  0  0  0  0  0  0  0  0
    9.5682    4.0181   -6.4707 O   0  0  0  0  0  0  0  0  0  0  0  0
    7.4892    3.3000   -5.4507 C   0  0  0  0  0  0  0  0  0  0  0  0
    6.9856    4.4233   -4.7786 C   0  0  0  0  0  0  0  0  0  0  0  0
    5.7656    4.2664   -4.0908 C   0  0  0  0  0  0  0  0  0  0  0  0
    5.1286    2.9852   -4.0043 C   0  0  0  0  0  0  0  0  0  0  0  0
    4.0040    2.9250   -3.2447 N   0  0  0  0  0  0  0  0  0  0  0  0
    3.8803    4.4920   -2.7470 S   0  0  0  0  0  0  0  0  0  0  0  0
    5.1681    5.2816   -3.4107 N   0  0  0  0  0  0  0  0  0  0  0  0
    7.7311    5.6926   -4.6881 C   0  0  0  0  0  0  0  0  0  0  0  0
    8.1736    6.1663   -3.5140 C   0  0  0  0  0  0  0  0  0  0  0  0
    8.4952    7.7782   -3.2084 S   0  0  0  0  0  0  0  0  0  0  0  0
    8.7296    7.5762   -1.5406 C   0  0  0  0  0  0  0  0  0  0  0  0
    8.8796    8.6286   -0.6935 C   0  0  0  0  0  0  0  0  0  0  0  0
    8.9263    8.5116    0.7386 C   0  0  0  0  0  0  0  0  0  0  0  0
    8.9632    8.4309    1.8932 N   0  0  0  0  0  0  0  0  0  0  0  0
    8.8490    9.9802   -1.1959 C   0  0  0  0  0  0  0  0  0  0  0  0
    8.7977   11.0645   -1.5921 N   0  0  0  0  0  0  0  0  0  0  0  0
    8.6514    6.2424   -1.2195 N   0  0  0  0  0  0  0  0  0  0  0  0
    8.8817    5.6132    0.0947 C   0  0  0  0  0  0  0  0  0  0  0  0
    7.6166    5.4804    0.9175 C   0  0  0  0  0  0  0  0  0  0  0  0
    7.7195    4.9704    2.2213 C   0  0  0  0  0  0  0  0  0  0  0  0
    6.5741    4.7560    2.9950 C   0  0  0  0  0  0  0  0  0  0  0  0
    5.3146    5.0542    2.4724 C   0  0  0  0  0  0  0  0  0  0  0  0
    5.1929    5.5609    1.1757 C   0  0  0  0  0  0  0  0  0  0  0  0
    6.3354    5.7759    0.3981 C   0  0  0  0  0  0  0  0  0  0  0  0
    8.3222    5.4759   -2.3067 C   0  0  0  0  0  0  0  0  0  0  0  0
    8.1732    4.2245   -2.2197 O   0  0  0  0  0  0  0  0  0  0  0  0
  -11.1932   -0.9833    0.1287 H   0  0  0  0  0  0  0  0  0  0  0  0
   -7.0573   -5.6259    0.6305 H   0  0  0  0  0  0  0  0  0  0  0  0
   -6.7181   -8.0507    0.9968 H   0  0  0  0  0  0  0  0  0  0  0  0
   -7.6115  -10.3450    1.0253 H   0  0  0  0  0  0  0  0  0  0  0  0
  -11.4416   -8.9273   -0.2928 H   0  0  0  0  0  0  0  0  0  0  0  0
  -11.8117   -6.5193   -0.6036 H   0  0  0  0  0  0  0  0  0  0  0  0
  -11.1829   -2.7558    3.9275 H   0  0  0  0  0  0  0  0  0  0  0  0
  -11.4073   -2.3614    2.2146 H   0  0  0  0  0  0  0  0  0  0  0  0
  -12.6197   -0.7539    3.6626 H   0  0  0  0  0  0  0  0  0  0  0  0
  -11.1088   -0.3472    4.5467 H   0  0  0  0  0  0  0  0  0  0  0  0
  -11.3022    0.1160    2.8035 H   0  0  0  0  0  0  0  0  0  0  0  0
   -7.0292   -1.3634    5.9807 H   0  0  0  0  0  0  0  0  0  0  0  0
   -8.5187   -1.8503    5.1541 H   0  0  0  0  0  0  0  0  0  0  0  0
   -8.8722    0.2661    6.3771 H   0  0  0  0  0  0  0  0  0  0  0  0
   -7.4679    1.0325    5.5431 H   0  0  0  0  0  0  0  0  0  0  0  0
   -8.9475    0.6225    4.6099 H   0  0  0  0  0  0  0  0  0  0  0  0
   -8.6157    2.1412   -2.5583 H   0  0  0  0  0  0  0  0  0  0  0  0
   -6.3427    2.7915   -1.7776 H   0  0  0  0  0  0  0  0  0  0  0  0
   -4.0599   -1.6679    5.1931 H   0  0  0  0  0  0  0  0  0  0  0  0
   -4.3335   -0.9376    7.5343 H   0  0  0  0  0  0  0  0  0  0  0  0
   -4.8536    1.4164    8.0553 H   0  0  0  0  0  0  0  0  0  0  0  0
   -5.6907    3.9988    5.4802 H   0  0  0  0  0  0  0  0  0  0  0  0
   -5.7610    3.5855    7.2272 H   0  0  0  0  0  0  0  0  0  0  0  0
   -3.2517    3.7097    7.3630 H   0  0  0  0  0  0  0  0  0  0  0  0
   -3.9815    5.2610    6.7878 H   0  0  0  0  0  0  0  0  0  0  0  0
   -3.1900    4.1481    5.6044 H   0  0  0  0  0  0  0  0  0  0  0  0
   -4.8911    2.3354    3.8409 H   0  0  0  0  0  0  0  0  0  0  0  0
    6.1536    1.0881   -0.9801 H   0  0  0  0  0  0  0  0  0  0  0  0
    8.2483    1.8127    0.1123 H   0  0  0  0  0  0  0  0  0  0  0  0
   10.4342    1.3063   -0.9231 H   0  0  0  0  0  0  0  0  0  0  0  0
   11.6500    0.7446   -3.0042 H   0  0  0  0  0  0  0  0  0  0  0  0
   10.8000   -0.0434   -4.3734 H   0  0  0  0  0  0  0  0  0  0  0  0
   11.5586   -1.4057   -1.7043 H   0  0  0  0  0  0  0  0  0  0  0  0
   10.7169   -2.2013   -3.0990 H   0  0  0  0  0  0  0  0  0  0  0  0
   12.4069   -1.5981   -3.2876 H   0  0  0  0  0  0  0  0  0  0  0  0
    8.4310   -0.7572   -4.1301 H   0  0  0  0  0  0  0  0  0  0  0  0
   -1.1408   -2.5327   -2.2126 H   0  0  0  0  0  0  0  0  0  0  0  0
   -2.6032   -1.5813   -1.7917 H   0  0  0  0  0  0  0  0  0  0  0  0
   -1.6095   -4.1457   -0.3603 H   0  0  0  0  0  0  0  0  0  0  0  0
   -2.8791   -4.1088   -1.6495 H   0  0  0  0  0  0  0  0  0  0  0  0
   -3.1958   -3.3143   -0.0679 H   0  0  0  0  0  0  0  0  0  0  0  0
   -0.1974   -0.3929   -2.4032 H   0  0  0  0  0  0  0  0  0  0  0  0
    1.2789    0.2922   -3.0328 H   0  0  0  0  0  0  0  0  0  0  0  0
   -0.2570   -2.1243   -4.2253 H   0  0  0  0  0  0  0  0  0  0  0  0
    1.2606   -1.4382   -4.9131 H   0  0  0  0  0  0  0  0  0  0  0  0
   -0.2347   -0.4348   -4.8628 H   0  0  0  0  0  0  0  0  0  0  0  0
    9.8979    0.1358   -7.4874 H   0  0  0  0  0  0  0  0  0  0  0  0
   10.7556    1.7212   -7.5475 H   0  0  0  0  0  0  0  0  0  0  0  0
    9.8689    1.0454   -9.7866 H   0  0  0  0  0  0  0  0  0  0  0  0
    9.1098    2.5805   -9.2066 H   0  0  0  0  0  0  0  0  0  0  0  0
    8.1903    1.0184   -9.1253 H   0  0  0  0  0  0  0  0  0  0  0  0
    7.7146    6.3405   -5.5546 H   0  0  0  0  0  0  0  0  0  0  0  0
    9.2914    4.5899   -0.0480 H   0  0  0  0  0  0  0  0  0  0  0  0
    9.6804    6.1392    0.6518 H   0  0  0  0  0  0  0  0  0  0  0  0
    8.6932    4.7310    2.6381 H   0  0  0  0  0  0  0  0  0  0  0  0
    6.6635    4.3565    3.9981 H   0  0  0  0  0  0  0  0  0  0  0  0
    4.4276    4.8871    3.0706 H   0  0  0  0  0  0  0  0  0  0  0  0
    4.2118    5.7832    0.7700 H   0  0  0  0  0  0  0  0  0  0  0  0
    6.2095    6.1690   -0.6011 H   0  0  0  0  0  0  0  0  0  0  0  0
  1  2  2  3
  2  3  1  0
  3  4  2  0
  3  5  1  0
  5  6  2  0
  6  7  1  0
  7  8  2  0
  8  9  1  0
  9 10  2  0
 10 11  1  0
 10 12  1  0
 12 13  2  0
 13 14  1  0
 14 15  2  0
 15 16  1  0
 16 17  2  3
 17 18  1  0
 18 19  3  0
 17 20  1  0
 20 21  3  0
  1 22  1  0
 22 23  2  0
 23 24  1  0
 24 25  1  0
 25 26  1  0
 23 27  1  0
 27 28  1  0
 28 29  1  0
 29 30  1  0
 27 31  2  0
 31 32  1  0
 32 33  2  0
 33 34  1  0
 34 35  2  0
 35 36  1  0
 36 37  2  0
 31 38  1  0
 38 39  2  0
 39 40  1  0
 40 41  2  0
 41 42  1  0
 42 43  2  0
 43 44  1  0
 44 45  1  0
 45 46  1  0
 44 47  2  0
 39 48  1  0
 48 49  1  0
 49 50  1  0
 50 51  1  0
 51 52  1  0
 52 53  1  0
 53 54  2  0
 54 55  1  0
 55 56  1  0
 53 57  1  0
 57 58  1  0
 58 59  1  0
 59 60  1  0
 60 61  1  0
 61 62  1  0
 62 63  2  0
 63 64  1  0
 64 65  2  0
 65 66  1  0
 66 67  1  0
 67 68  1  0
 66 69  2  0
 61 70  2  0
 70 71  1  0
 71 72  1  0
 72 73  1  0
 73 74  1  0
 74 75  1  0
 75 76  1  0
 76 77  1  0
 77 78  1  0
 78 79  1  0
 79 80  1  0
 77 81  1  0
 81 82  1  0
 74 83  1  0
 83 84  1  0
 70 85  1  0
 85 86  2  0
 86 87  1  0
 87 88  2  0
 87 89  1  0
 89 90  1  0
 90 91  1  0
 89 92  1  0
 92 93  2  0
 92 94  1  0
 94 95  2  0
 95 96  1  0
 96 97  1  0
 97 98  2  0
 98 99  1  0
 99100  1  0
 95101  1  0
101102  2  3
102103  1  0
103104  1  0
104105  2  3
105106  1  0
106107  3  0
105108  1  0
108109  3  0
104110  1  0
110111  1  0
111112  1  0
112113  2  0
113114  1  0
114115  2  0
115116  1  0
116117  2  0
110118  1  0
118119  2  0
 16  2  1  0
 33 22  1  0
 80 38  1  0
 97 85  1  0
118102  1  0
 15  5  1  0
 37 32  1  0
 47 40  1  0
 79 48  2  0
 94 86  1  0
100 96  2  0
117112  1  0
 13  7  1  0
 78 50  2  0
 76 51  2  0
 56 52  2  0
 75 57  2  0
 73 58  2  0
 72 60  2  0
 69 62  1  0
  1120  1  0
  6121  1  0
  8122  1  0
  9123  1  0
 12124  1  0
 14125  1  0
 25126  1  0
 25127  1  0
 26128  1  0
 26129  1  0
 26130  1  0
 29131  1  0
 29132  1  0
 30133  1  0
 30134  1  0
 30135  1  0
 35136  1  0
 36137  1  0
 41138  1  0
 42139  1  0
 43140  1  0
 45141  1  0
 45142  1  0
 46143  1  0
 46144  1  0
 46145  1  0
 47146  1  0
 63147  1  0
 64148  1  0
 65149  1  0
 67150  1  0
 67151  1  0
 68152  1  0
 68153  1  0
 68154  1  0
 69155  1  0
 81156  1  0
 81157  1  0
 82158  1  0
 82159  1  0
 82160  1  0
 83161  1  0
 83162  1  0
 84163  1  0
 84164  1  0
 84165  1  0
 90166  1  0
 90167  1  0
 91168  1  0
 91169  1  0
 91170  1  0
101171  1  0
111172  1  0
111173  1  0
113174  1  0
114175  1  0
115176  1  0
116177  1  0
117178  1  0
M  END

