
     RDKit          3D

169187  0  0  0  0  0  0  0  0999 V2000
   -7.4132   -3.2526    5.9298 C   0  0  0  0  0  0  0  0  0  0  0  0
   -7.8583   -1.9494    5.9379 C   0  0  0  0  0  0  0  0  0  0  0  0
   -7.0113   -0.7789    5.7332 C   0  0  0  0  0  0  0  0  0  0  0  0
   -5.7986   -0.7998    5.4291 O   0  0  0  0  0  0  0  0  0  0  0  0
   -7.7889    0.3365    5.5030 C   0  0  0  0  0  0  0  0  0  0  0  0
   -7.3146    1.5921    5.5893 C   0  0  0  0  0  0  0  0  0  0  0  0
   -8.2004    2.6089    6.0020 C   0  0  0  0  0  0  0  0  0  0  0  0
   -7.7780    3.8781    6.2033 C   0  0  0  0  0  0  0  0  0  0  0  0
   -8.6621    4.8975    6.6675 C   0  0  0  0  0  0  0  0  0  0  0  0
  -10.0277    4.5705    6.9580 C   0  0  0  0  0  0  0  0  0  0  0  0
  -10.8941    5.5653    7.4082 F   0  0  0  0  0  0  0  0  0  0  0  0
  -10.4450    3.3009    6.7246 C   0  0  0  0  0  0  0  0  0  0  0  0
   -9.5689    2.2920    6.3590 C   0  0  0  0  0  0  0  0  0  0  0  0
   -9.9905    1.0264    6.2080 C   0  0  0  0  0  0  0  0  0  0  0  0
   -9.1493    0.0013    5.6253 C   0  0  0  0  0  0  0  0  0  0  0  0
   -9.3428   -1.4916    5.8299 C   0  0  0  0  0  0  0  0  0  0  0  0
  -10.5516   -1.7589    6.3908 C   0  0  0  0  0  0  0  0  0  0  0  0
  -11.6868   -1.4158    5.6118 C   0  0  0  0  0  0  0  0  0  0  0  0
  -12.5042   -1.1312    4.8082 N   0  0  0  0  0  0  0  0  0  0  0  0
  -10.7690   -2.5791    7.5345 C   0  0  0  0  0  0  0  0  0  0  0  0
  -11.0943   -3.3594    8.3224 N   0  0  0  0  0  0  0  0  0  0  0  0
   -5.9746   -3.5491    5.6480 C   0  0  0  0  0  0  0  0  0  0  0  0
   -5.5437   -3.9591    4.3320 C   0  0  0  0  0  0  0  0  0  0  0  0
   -6.4872   -4.2902    3.3680 F   0  0  0  0  0  0  0  0  0  0  0  0
   -4.1895   -3.8046    3.9264 C   0  0  0  0  0  0  0  0  0  0  0  0
   -3.9458   -4.2352    2.6396 F   0  0  0  0  0  0  0  0  0  0  0  0
   -3.2283   -3.1098    4.7512 C   0  0  0  0  0  0  0  0  0  0  0  0
   -3.6333   -2.8781    6.1702 C   0  0  0  0  0  0  0  0  0  0  0  0
   -2.7987   -2.3445    7.0848 N   0  0  0  0  0  0  0  0  0  0  0  0
   -3.2275   -1.9715    8.3456 C   0  0  0  0  0  0  0  0  0  0  0  0
   -2.2499   -1.4592    9.3310 C   0  0  0  0  0  0  0  0  0  0  0  0
   -2.2868    0.0867    9.2812 C   0  0  0  0  0  0  0  0  0  0  0  0
   -4.6203   -2.1069    8.6385 C   0  0  0  0  0  0  0  0  0  0  0  0
   -5.3867   -2.7316    7.8128 N   0  0  0  0  0  0  0  0  0  0  0  0
   -4.9862   -3.1582    6.5473 C   0  0  0  0  0  0  0  0  0  0  0  0
   -5.1366   -1.7861   10.0693 C   0  0  0  0  0  0  0  0  0  0  0  0
   -4.9913   -3.0672   10.9210 C   0  0  0  0  0  0  0  0  0  0  0  0
   -1.9994   -2.4745    4.1162 C   0  0  0  0  0  0  0  0  0  0  0  0
   -0.8523   -1.8587    4.7297 C   0  0  0  0  0  0  0  0  0  0  0  0
   -0.2902   -2.1105    6.0792 C   0  0  0  0  0  0  0  0  0  0  0  0
   -0.0558   -3.4316    6.5448 C   0  0  0  0  0  0  0  0  0  0  0  0
    0.7875   -3.5942    7.6976 C   0  0  0  0  0  0  0  0  0  0  0  0
    1.3212   -2.4741    8.3546 C   0  0  0  0  0  0  0  0  0  0  0  0
    0.9826   -1.1551    7.9370 C   0  0  0  0  0  0  0  0  0  0  0  0
    1.6837    0.0625    8.4420 C   0  0  0  0  0  0  0  0  0  0  0  0
    2.9016    0.3842    7.5690 C   0  0  0  0  0  0  0  0  0  0  0  0
    0.1078   -1.0125    6.8497 C   0  0  0  0  0  0  0  0  0  0  0  0
   -0.2116   -0.9305    3.8869 C   0  0  0  0  0  0  0  0  0  0  0  0
    1.0566    0.2238    4.0410 S   0  0  0  0  0  0  0  0  0  0  0  0
    0.8902    0.6084    2.4005 C   0  0  0  0  0  0  0  0  0  0  0  0
    1.3990    1.4862    1.4619 C   0  0  0  0  0  0  0  0  0  0  0  0
    2.3480    2.5025    1.6180 C   0  0  0  0  0  0  0  0  0  0  0  0
    2.7954    3.2050    0.4620 C   0  0  0  0  0  0  0  0  0  0  0  0
    3.7265    4.2033    0.6907 N   0  0  0  0  0  0  0  0  0  0  0  0
    3.9115    4.0686    2.3425 S   0  0  0  0  0  0  0  0  0  0  0  0
    2.9058    2.8484    2.8277 N   0  0  0  0  0  0  0  0  0  0  0  0
    2.3176    2.8410   -0.7826 C   0  0  0  0  0  0  0  0  0  0  0  0
    2.6825    3.2661   -2.0500 C   0  0  0  0  0  0  0  0  0  0  0  0
    3.9403    4.1406   -2.8059 S   0  0  0  0  0  0  0  0  0  0  0  0
    3.5309    3.4589   -4.3136 C   0  0  0  0  0  0  0  0  0  0  0  0
    4.1017    3.5472   -5.5859 C   0  0  0  0  0  0  0  0  0  0  0  0
    5.0907    4.5955   -5.8907 C   0  0  0  0  0  0  0  0  0  0  0  0
    6.4058    4.2970   -6.3953 C   0  0  0  0  0  0  0  0  0  0  0  0
    7.3861    5.3313   -6.4266 C   0  0  0  0  0  0  0  0  0  0  0  0
    7.0532    6.6147   -5.9723 C   0  0  0  0  0  0  0  0  0  0  0  0
    5.7296    6.9199   -5.5384 C   0  0  0  0  0  0  0  0  0  0  0  0
    5.4105    8.2789   -4.9592 C   0  0  0  0  0  0  0  0  0  0  0  0
    5.6461    8.2671   -3.4334 C   0  0  0  0  0  0  0  0  0  0  0  0
    4.7584    5.9014   -5.5144 C   0  0  0  0  0  0  0  0  0  0  0  0
    3.5043    2.6151   -6.5086 C   0  0  0  0  0  0  0  0  0  0  0  0
    2.2604    1.7612   -5.7094 S   0  0  0  0  0  0  0  0  0  0  0  0
    2.4884    2.5704   -4.2556 C   0  0  0  0  0  0  0  0  0  0  0  0
    2.0079    2.4830   -2.9308 C   0  0  0  0  0  0  0  0  0  0  0  0
    1.1743    1.6183   -2.3320 N   0  0  0  0  0  0  0  0  0  0  0  0
    1.3502    1.8026   -0.9710 C   0  0  0  0  0  0  0  0  0  0  0  0
    0.7990    1.1327    0.2231 C   0  0  0  0  0  0  0  0  0  0  0  0
   -0.1359    0.1320    0.4492 N   0  0  0  0  0  0  0  0  0  0  0  0
   -0.0414   -0.1121    1.7685 C   0  0  0  0  0  0  0  0  0  0  0  0
   -0.7393   -0.9775    2.6179 C   0  0  0  0  0  0  0  0  0  0  0  0
   -2.0062   -2.0044    2.4851 S   0  0  0  0  0  0  0  0  0  0  0  0
   -1.0549   -0.6393   -0.4109 C   0  0  0  0  0  0  0  0  0  0  0  0
   -2.3432    0.1998   -0.6414 C   0  0  0  0  0  0  0  0  0  0  0  0
    0.3298    0.7383   -3.1462 C   0  0  0  0  0  0  0  0  0  0  0  0
    1.0264   -0.6085   -3.3640 C   0  0  0  0  0  0  0  0  0  0  0  0
    4.1566    2.1789   -7.7782 C   0  0  0  0  0  0  0  0  0  0  0  0
    3.6578    2.2931   -9.1227 C   0  0  0  0  0  0  0  0  0  0  0  0
    4.1628    1.2864  -10.0172 C   0  0  0  0  0  0  0  0  0  0  0  0
    3.9243    1.2276  -11.8359 S   0  0  0  0  0  0  0  0  0  0  0  0
    2.2631    0.4666  -11.7550 C   0  0  0  0  0  0  0  0  0  0  0  0
    1.1896    1.4058  -11.1963 C   0  0  0  0  0  0  0  0  0  0  0  0
    5.0250    0.3946   -9.3484 C   0  0  0  0  0  0  0  0  0  0  0  0
    5.2985    1.0057   -7.7986 S   0  0  0  0  0  0  0  0  0  0  0  0
    5.6572   -0.8085   -9.9452 C   0  0  0  0  0  0  0  0  0  0  0  0
    5.6817   -2.0470   -9.4144 C   0  0  0  0  0  0  0  0  0  0  0  0
    5.1188   -2.4491   -8.0985 C   0  0  0  0  0  0  0  0  0  0  0  0
    4.3283   -1.8302   -7.3485 O   0  0  0  0  0  0  0  0  0  0  0  0
    5.5114   -3.7840   -7.8379 C   0  0  0  0  0  0  0  0  0  0  0  0
    5.1553   -4.4694   -6.6386 C   0  0  0  0  0  0  0  0  0  0  0  0
    5.5783   -5.7922   -6.5793 C   0  0  0  0  0  0  0  0  0  0  0  0
    5.2962   -6.5499   -5.3927 C   0  0  0  0  0  0  0  0  0  0  0  0
    5.7161   -7.8679   -5.3310 C   0  0  0  0  0  0  0  0  0  0  0  0
    6.4035   -8.4987   -6.3916 C   0  0  0  0  0  0  0  0  0  0  0  0
    6.8004   -9.7827   -6.3019 F   0  0  0  0  0  0  0  0  0  0  0  0
    6.7001   -7.7628   -7.5586 C   0  0  0  0  0  0  0  0  0  0  0  0
    6.2973   -6.4366   -7.6400 C   0  0  0  0  0  0  0  0  0  0  0  0
    6.6172   -5.6921   -8.8275 C   0  0  0  0  0  0  0  0  0  0  0  0
    6.2095   -4.3468   -8.8907 C   0  0  0  0  0  0  0  0  0  0  0  0
    6.3299   -3.3252   -9.9968 C   0  0  0  0  0  0  0  0  0  0  0  0
    6.8460   -3.5671  -11.2587 C   0  0  0  0  0  0  0  0  0  0  0  0
    7.4391   -4.7894  -11.6521 C   0  0  0  0  0  0  0  0  0  0  0  0
    7.9564   -5.8143  -11.9900 N   0  0  0  0  0  0  0  0  0  0  0  0
    6.7008   -2.5997  -12.3334 C   0  0  0  0  0  0  0  0  0  0  0  0
    6.5826   -1.8730  -13.2015 N   0  0  0  0  0  0  0  0  0  0  0  0
   -8.0695   -4.0878    5.9716 H   0  0  0  0  0  0  0  0  0  0  0  0
   -6.2678    1.7368    5.4899 H   0  0  0  0  0  0  0  0  0  0  0  0
   -6.7400    4.1826    5.9730 H   0  0  0  0  0  0  0  0  0  0  0  0
   -8.2915    5.8788    6.8270 H   0  0  0  0  0  0  0  0  0  0  0  0
  -11.5064    3.0360    6.9419 H   0  0  0  0  0  0  0  0  0  0  0  0
  -10.9789    0.7995    6.5372 H   0  0  0  0  0  0  0  0  0  0  0  0
   -2.4044   -1.8042   10.3721 H   0  0  0  0  0  0  0  0  0  0  0  0
   -1.2195   -1.8520    9.1129 H   0  0  0  0  0  0  0  0  0  0  0  0
   -2.3060    0.5239   10.2979 H   0  0  0  0  0  0  0  0  0  0  0  0
   -3.2181    0.4563    8.7682 H   0  0  0  0  0  0  0  0  0  0  0  0
   -1.4143    0.4433    8.7201 H   0  0  0  0  0  0  0  0  0  0  0  0
   -4.6436   -0.8949   10.4873 H   0  0  0  0  0  0  0  0  0  0  0  0
   -6.2409   -1.5360   10.0187 H   0  0  0  0  0  0  0  0  0  0  0  0
   -4.0407   -3.6283   10.7264 H   0  0  0  0  0  0  0  0  0  0  0  0
   -5.8735   -3.7209   10.7799 H   0  0  0  0  0  0  0  0  0  0  0  0
   -4.9166   -2.7748   11.9994 H   0  0  0  0  0  0  0  0  0  0  0  0
   -0.4333   -4.3054    6.0067 H   0  0  0  0  0  0  0  0  0  0  0  0
    1.0537   -4.6179    8.0062 H   0  0  0  0  0  0  0  0  0  0  0  0
    2.0197   -2.5915    9.1500 H   0  0  0  0  0  0  0  0  0  0  0  0
    2.0146   -0.0860    9.4848 H   0  0  0  0  0  0  0  0  0  0  0  0
    0.9750    0.9284    8.4684 H   0  0  0  0  0  0  0  0  0  0  0  0
    3.7935   -0.1823    7.9142 H   0  0  0  0  0  0  0  0  0  0  0  0
    3.0509    1.4879    7.6020 H   0  0  0  0  0  0  0  0  0  0  0  0
    2.7787    0.1464    6.4854 H   0  0  0  0  0  0  0  0  0  0  0  0
   -0.0916    0.0253    6.5371 H   0  0  0  0  0  0  0  0  0  0  0  0
    6.7096    3.3175   -6.6896 H   0  0  0  0  0  0  0  0  0  0  0  0
    8.4145    5.1010   -6.7534 H   0  0  0  0  0  0  0  0  0  0  0  0
    7.7951    7.3968   -5.9560 H   0  0  0  0  0  0  0  0  0  0  0  0
    4.3580    8.5134   -5.1692 H   0  0  0  0  0  0  0  0  0  0  0  0
    5.9972    9.0879   -5.4468 H   0  0  0  0  0  0  0  0  0  0  0  0
    5.2594    7.3552   -2.9191 H   0  0  0  0  0  0  0  0  0  0  0  0
    5.0352    9.1105   -2.9915 H   0  0  0  0  0  0  0  0  0  0  0  0
    6.7308    8.4495   -3.2536 H   0  0  0  0  0  0  0  0  0  0  0  0
    3.7723    6.1504   -5.0622 H   0  0  0  0  0  0  0  0  0  0  0  0
   -1.3164   -1.6586   -0.0648 H   0  0  0  0  0  0  0  0  0  0  0  0
   -0.5068   -0.8666   -1.3384 H   0  0  0  0  0  0  0  0  0  0  0  0
   -2.7777    0.0109   -1.6491 H   0  0  0  0  0  0  0  0  0  0  0  0
   -3.0859   -0.1325    0.1323 H   0  0  0  0  0  0  0  0  0  0  0  0
   -2.1604    1.2791   -0.5490 H   0  0  0  0  0  0  0  0  0  0  0  0
   -0.6723    0.6665   -2.6509 H   0  0  0  0  0  0  0  0  0  0  0  0
    0.0424    1.1687   -4.1371 H   0  0  0  0  0  0  0  0  0  0  0  0
    1.4140   -1.0616   -2.4376 H   0  0  0  0  0  0  0  0  0  0  0  0
    1.9101   -0.4592   -4.0414 H   0  0  0  0  0  0  0  0  0  0  0  0
    0.3172   -1.3290   -3.8021 H   0  0  0  0  0  0  0  0  0  0  0  0
    2.9252    3.0566   -9.4451 H   0  0  0  0  0  0  0  0  0  0  0  0
    2.3324   -0.5125  -11.2531 H   0  0  0  0  0  0  0  0  0  0  0  0
    1.9897    0.1969  -12.7863 H   0  0  0  0  0  0  0  0  0  0  0  0
    0.1915    1.2106  -11.6923 H   0  0  0  0  0  0  0  0  0  0  0  0
    1.4504    2.4866  -11.3471 H   0  0  0  0  0  0  0  0  0  0  0  0
    1.0684    1.2100  -10.1003 H   0  0  0  0  0  0  0  0  0  0  0  0
    6.0714   -0.6104  -10.9128 H   0  0  0  0  0  0  0  0  0  0  0  0
    4.5960   -3.8825   -5.8785 H   0  0  0  0  0  0  0  0  0  0  0  0
    4.7534   -6.0480   -4.5823 H   0  0  0  0  0  0  0  0  0  0  0  0
    5.5011   -8.4387   -4.4441 H   0  0  0  0  0  0  0  0  0  0  0  0
    7.2455   -8.2961   -8.3390 H   0  0  0  0  0  0  0  0  0  0  0  0
    7.1491   -6.1893   -9.6089 H   0  0  0  0  0  0  0  0  0  0  0  0
  1  2  2  3
  2  3  1  0
  3  4  2  0
  3  5  1  0
  5  6  2  0
  6  7  1  0
  7  8  2  0
  8  9  1  0
  9 10  2  0
 10 11  1  0
 10 12  1  0
 12 13  2  0
 13 14  1  0
 14 15  2  0
 15 16  1  0
 16 17  2  3
 17 18  1  0
 18 19  3  0
 17 20  1  0
 20 21  3  0
  1 22  1  0
 22 23  2  0
 23 24  1  0
 23 25  1  0
 25 26  1  0
 25 27  2  0
 27 28  1  0
 28 29  2  0
 29 30  1  0
 30 31  1  0
 31 32  1  0
 30 33  2  0
 33 34  1  0
 34 35  2  0
 33 36  1  0
 36 37  1  0
 27 38  1  0
 38 39  2  0
 39 40  1  0
 40 41  2  0
 41 42  1  0
 42 43  2  0
 43 44  1  0
 44 45  1  0
 45 46  1  0
 44 47  2  0
 39 48  1  0
 48 49  1  0
 49 50  1  0
 50 51  1  0
 51 52  1  0
 52 53  1  0
 53 54  2  0
 54 55  1  0
 55 56  1  0
 53 57  1  0
 57 58  1  0
 58 59  1  0
 59 60  1  0
 60 61  1  0
 61 62  1  0
 62 63  2  0
 63 64  1  0
 64 65  2  0
 65 66  1  0
 66 67  1  0
 67 68  1  0
 66 69  2  0
 61 70  2  0
 70 71  1  0
 71 72  1  0
 72 73  1  0
 73 74  1  0
 74 75  1  0
 75 76  1  0
 76 77  1  0
 77 78  1  0
 78 79  1  0
 79 80  1  0
 77 81  1  0
 81 82  1  0
 74 83  1  0
 83 84  1  0
 70 85  1  0
 85 86  2  0
 86 87  1  0
 87 88  1  0
 88 89  1  0
 89 90  1  0
 87 91  2  0
 91 92  1  0
 91 93  1  0
 93 94  2  3
 94 95  1  0
 95 96  2  0
 95 97  1  0
 97 98  2  0
 98 99  1  0
 99100  2  0
100101  1  0
101102  2  0
102103  1  0
102104  1  0
104105  2  0
105106  1  0
106107  2  0
107108  1  0
108109  2  3
109110  1  0
110111  3  0
109112  1  0
112113  3  0
 16  2  1  0
 35 22  1  0
 80 38  1  0
 92 85  1  0
108 94  1  0
 15  5  1  0
 35 28  1  0
 47 40  1  0
 79 48  2  0
107 97  1  0
 13  7  1  0
 78 50  2  0
105 99  1  0
 76 51  2  0
 56 52  2  0
 75 57  2  0
 73 58  2  0
 72 60  2  0
 69 62  1  0
  1114  1  0
  6115  1  0
  8116  1  0
  9117  1  0
 12118  1  0
 14119  1  0
 31120  1  0
 31121  1  0
 32122  1  0
 32123  1  0
 32124  1  0
 36125  1  0
 36126  1  0
 37127  1  0
 37128  1  0
 37129  1  0
 41130  1  0
 42131  1  0
 43132  1  0
 45133  1  0
 45134  1  0
 46135  1  0
 46136  1  0
 46137  1  0
 47138  1  0
 63139  1  0
 64140  1  0
 65141  1  0
 67142  1  0
 67143  1  0
 68144  1  0
 68145  1  0
 68146  1  0
 69147  1  0
 81148  1  0
 81149  1  0
 82150  1  0
 82151  1  0
 82152  1  0
 83153  1  0
 83154  1  0
 84155  1  0
 84156  1  0
 84157  1  0
 86158  1  0
 89159  1  0
 89160  1  0
 90161  1  0
 90162  1  0
 90163  1  0
 93164  1  0
 98165  1  0
100166  1  0
101167  1  0
104168  1  0
106169  1  0
M  END

