
     RDKit          3D

175193  0  0  0  0  0  0  0  0999 V2000
   -7.4335    1.2800   -1.7299 C   0  0  0  0  0  0  0  0  0  0  0  0
   -7.0099    0.1663   -2.3569 C   0  0  0  0  0  0  0  0  0  0  0  0
   -5.7011    0.0067   -3.0067 C   0  0  0  0  0  0  0  0  0  0  0  0
   -4.9199    0.9292   -3.3625 O   0  0  0  0  0  0  0  0  0  0  0  0
   -5.4326   -1.4063   -3.1508 C   0  0  0  0  0  0  0  0  0  0  0  0
   -4.2594   -2.0118   -3.6004 C   0  0  0  0  0  0  0  0  0  0  0  0
   -4.1618   -3.4118   -3.5411 C   0  0  0  0  0  0  0  0  0  0  0  0
   -2.9998   -4.0636   -3.9807 C   0  0  0  0  0  0  0  0  0  0  0  0
   -2.8931   -5.4545   -3.8884 C   0  0  0  0  0  0  0  0  0  0  0  0
   -3.9463   -6.2054   -3.3552 C   0  0  0  0  0  0  0  0  0  0  0  0
   -3.8363   -7.5528   -3.2610 F   0  0  0  0  0  0  0  0  0  0  0  0
   -5.1138   -5.5711   -2.9147 C   0  0  0  0  0  0  0  0  0  0  0  0
   -5.2380   -4.1747   -3.0072 C   0  0  0  0  0  0  0  0  0  0  0  0
   -6.4126   -3.5293   -2.5660 C   0  0  0  0  0  0  0  0  0  0  0  0
   -6.5083   -2.1325   -2.6737 C   0  0  0  0  0  0  0  0  0  0  0  0
   -7.6030   -1.2013   -2.2739 C   0  0  0  0  0  0  0  0  0  0  0  0
   -8.9166   -1.5046   -2.1226 C   0  0  0  0  0  0  0  0  0  0  0  0
   -9.9274   -0.4822   -2.0283 C   0  0  0  0  0  0  0  0  0  0  0  0
  -10.7406    0.3374   -1.9683 N   0  0  0  0  0  0  0  0  0  0  0  0
   -9.4161   -2.8499   -2.2224 C   0  0  0  0  0  0  0  0  0  0  0  0
   -9.8313   -3.9295   -2.3058 N   0  0  0  0  0  0  0  0  0  0  0  0
   -6.6032    2.4964   -1.6712 C   0  0  0  0  0  0  0  0  0  0  0  0
   -6.6718    3.4457   -2.7057 C   0  0  0  0  0  0  0  0  0  0  0  0
   -7.6116    3.3273   -3.6786 F   0  0  0  0  0  0  0  0  0  0  0  0
   -5.7148    4.4657   -2.7919 C   0  0  0  0  0  0  0  0  0  0  0  0
   -5.7379    5.3157   -3.8512 F   0  0  0  0  0  0  0  0  0  0  0  0
   -4.6940    4.5591   -1.8329 C   0  0  0  0  0  0  0  0  0  0  0  0
   -4.6663    3.6517   -0.7596 C   0  0  0  0  0  0  0  0  0  0  0  0
   -3.6738    3.7058    0.1657 N   0  0  0  0  0  0  0  0  0  0  0  0
   -3.5652    2.7981    1.1700 C   0  0  0  0  0  0  0  0  0  0  0  0
   -2.4332    2.9635    2.1526 C   0  0  0  0  0  0  0  0  0  0  0  0
   -2.7993    3.9810    3.2271 C   0  0  0  0  0  0  0  0  0  0  0  0
   -4.5289    1.7667    1.2647 C   0  0  0  0  0  0  0  0  0  0  0  0
   -5.5138    1.7084    0.3245 N   0  0  0  0  0  0  0  0  0  0  0  0
   -5.6174    2.6219   -0.6779 C   0  0  0  0  0  0  0  0  0  0  0  0
   -4.4528    0.7027    2.3367 C   0  0  0  0  0  0  0  0  0  0  0  0
   -5.6677   -0.2264    2.3563 C   0  0  0  0  0  0  0  0  0  0  0  0
   -3.5116    5.3973   -2.0886 C   0  0  0  0  0  0  0  0  0  0  0  0
   -3.0852    6.4653   -1.2735 C   0  0  0  0  0  0  0  0  0  0  0  0
   -3.9542    7.1534   -0.2922 C   0  0  0  0  0  0  0  0  0  0  0  0
   -5.2285    7.5989   -0.6792 C   0  0  0  0  0  0  0  0  0  0  0  0
   -6.0432    8.2808    0.2289 C   0  0  0  0  0  0  0  0  0  0  0  0
   -5.5963    8.5195    1.5310 C   0  0  0  0  0  0  0  0  0  0  0  0
   -4.3375    8.0557    1.9421 C   0  0  0  0  0  0  0  0  0  0  0  0
   -3.8312    8.3508    3.3279 C   0  0  0  0  0  0  0  0  0  0  0  0
   -2.9181    9.5734    3.3210 C   0  0  0  0  0  0  0  0  0  0  0  0
   -3.5220    7.3711    1.0270 C   0  0  0  0  0  0  0  0  0  0  0  0
   -1.7024    6.6789   -1.4099 C   0  0  0  0  0  0  0  0  0  0  0  0
   -0.5718    7.5536   -0.4892 S   0  0  0  0  0  0  0  0  0  0  0  0
    0.7424    6.7707   -1.2247 C   0  0  0  0  0  0  0  0  0  0  0  0
    1.9495    6.3557   -0.7247 C   0  0  0  0  0  0  0  0  0  0  0  0
    2.5587    6.6708    0.5034 C   0  0  0  0  0  0  0  0  0  0  0  0
    3.5657    5.8018    1.0241 C   0  0  0  0  0  0  0  0  0  0  0  0
    4.0828    6.1110    2.2407 N   0  0  0  0  0  0  0  0  0  0  0  0
    3.2039    7.4719    2.5775 S   0  0  0  0  0  0  0  0  0  0  0  0
    2.1941    7.7184    1.2854 N   0  0  0  0  0  0  0  0  0  0  0  0
    3.9603    4.7042    0.2582 C   0  0  0  0  0  0  0  0  0  0  0  0
    4.8248    3.6702    0.5030 C   0  0  0  0  0  0  0  0  0  0  0  0
    5.5371    2.9057    1.8436 S   0  0  0  0  0  0  0  0  0  0  0  0
    5.8221    1.4846    0.9271 C   0  0  0  0  0  0  0  0  0  0  0  0
    6.1851    0.1709    1.2592 C   0  0  0  0  0  0  0  0  0  0  0  0
    6.6535   -0.2770    2.5926 C   0  0  0  0  0  0  0  0  0  0  0  0
    7.7578   -1.1406    2.6846 C   0  0  0  0  0  0  0  0  0  0  0  0
    8.2251   -1.5622    3.9295 C   0  0  0  0  0  0  0  0  0  0  0  0
    7.6052   -1.1167    5.0980 C   0  0  0  0  0  0  0  0  0  0  0  0
    6.5053   -0.2483    5.0294 C   0  0  0  0  0  0  0  0  0  0  0  0
    5.8327    0.2162    6.2948 C   0  0  0  0  0  0  0  0  0  0  0  0
    4.8715   -0.8425    6.8230 C   0  0  0  0  0  0  0  0  0  0  0  0
    6.0213    0.1552    3.7734 C   0  0  0  0  0  0  0  0  0  0  0  0
    5.9969   -0.6870    0.1523 C   0  0  0  0  0  0  0  0  0  0  0  0
    5.3411    0.1729   -1.1605 S   0  0  0  0  0  0  0  0  0  0  0  0
    5.3687    1.6352   -0.3596 C   0  0  0  0  0  0  0  0  0  0  0  0
    4.7941    2.8695   -0.5884 C   0  0  0  0  0  0  0  0  0  0  0  0
    3.9657    3.3193   -1.5539 N   0  0  0  0  0  0  0  0  0  0  0  0
    3.3892    4.4232   -0.9930 C   0  0  0  0  0  0  0  0  0  0  0  0
    2.2800    5.1892   -1.4343 C   0  0  0  0  0  0  0  0  0  0  0  0
    1.2381    4.8029   -2.2423 N   0  0  0  0  0  0  0  0  0  0  0  0
    0.3348    5.8164   -2.1170 C   0  0  0  0  0  0  0  0  0  0  0  0
   -1.0565    5.8017   -2.2454 C   0  0  0  0  0  0  0  0  0  0  0  0
   -2.1682    4.7268   -2.8790 S   0  0  0  0  0  0  0  0  0  0  0  0
    0.8458    3.4154   -2.5494 C   0  0  0  0  0  0  0  0  0  0  0  0
    0.6049    3.2158   -4.0471 C   0  0  0  0  0  0  0  0  0  0  0  0
    4.0076    2.9464   -2.9738 C   0  0  0  0  0  0  0  0  0  0  0  0
    5.4282    3.0031   -3.5277 C   0  0  0  0  0  0  0  0  0  0  0  0
    5.8966   -2.1518    0.2050 C   0  0  0  0  0  0  0  0  0  0  0  0
    6.8667   -2.9448   -0.4220 C   0  0  0  0  0  0  0  0  0  0  0  0
    7.9962   -2.3796   -0.9194 F   0  0  0  0  0  0  0  0  0  0  0  0
    6.6581   -4.3199   -0.5828 C   0  0  0  0  0  0  0  0  0  0  0  0
    7.5931   -5.0630   -1.2290 F   0  0  0  0  0  0  0  0  0  0  0  0
    5.4572   -4.9096   -0.1571 C   0  0  0  0  0  0  0  0  0  0  0  0
    4.5076   -4.1275    0.5287 C   0  0  0  0  0  0  0  0  0  0  0  0
    3.3515   -4.6743    0.9903 N   0  0  0  0  0  0  0  0  0  0  0  0
    2.3891   -3.9297    1.5985 C   0  0  0  0  0  0  0  0  0  0  0  0
    1.1300   -4.6275    2.0337 C   0  0  0  0  0  0  0  0  0  0  0  0
    0.1160   -4.6811    0.8936 C   0  0  0  0  0  0  0  0  0  0  0  0
    2.5855   -2.5318    1.7216 C   0  0  0  0  0  0  0  0  0  0  0  0
    3.7537   -1.9952    1.2801 N   0  0  0  0  0  0  0  0  0  0  0  0
    4.7243   -2.7479    0.6967 C   0  0  0  0  0  0  0  0  0  0  0  0
    1.5805   -1.6065    2.3545 C   0  0  0  0  0  0  0  0  0  0  0  0
    1.8732   -1.4301    3.8405 C   0  0  0  0  0  0  0  0  0  0  0  0
    5.1892   -6.3274   -0.4782 C   0  0  0  0  0  0  0  0  0  0  0  0
    4.1726   -6.7212   -1.2738 C   0  0  0  0  0  0  0  0  0  0  0  0
    3.3286   -5.8204   -2.0978 C   0  0  0  0  0  0  0  0  0  0  0  0
    3.3321   -4.5627   -2.1092 O   0  0  0  0  0  0  0  0  0  0  0  0
    2.5549   -6.6598   -2.9722 C   0  0  0  0  0  0  0  0  0  0  0  0
    1.4260   -6.4255   -4.1892 S   0  0  0  0  0  0  0  0  0  0  0  0
    1.2758   -8.0964   -4.4780 C   0  0  0  0  0  0  0  0  0  0  0  0
    0.3337   -8.6974   -5.4663 C   0  0  0  0  0  0  0  0  0  0  0  0
    2.0949   -8.8249   -3.6049 C   0  0  0  0  0  0  0  0  0  0  0  0
    2.8184   -7.9714   -2.7646 C   0  0  0  0  0  0  0  0  0  0  0  0
    3.8049   -8.1298   -1.6663 C   0  0  0  0  0  0  0  0  0  0  0  0
    4.1474   -9.2942   -1.0603 C   0  0  0  0  0  0  0  0  0  0  0  0
    3.6492  -10.5622   -1.5239 C   0  0  0  0  0  0  0  0  0  0  0  0
    3.2439  -11.5828   -1.8848 N   0  0  0  0  0  0  0  0  0  0  0  0
    4.9471   -9.3428    0.1353 C   0  0  0  0  0  0  0  0  0  0  0  0
    5.5922   -9.3923    1.0952 N   0  0  0  0  0  0  0  0  0  0  0  0
   -8.3161    1.2644   -1.1100 H   0  0  0  0  0  0  0  0  0  0  0  0
   -3.4373   -1.4064   -3.9661 H   0  0  0  0  0  0  0  0  0  0  0  0
   -2.1712   -3.4990   -4.3941 H   0  0  0  0  0  0  0  0  0  0  0  0
   -1.9945   -5.9521   -4.2291 H   0  0  0  0  0  0  0  0  0  0  0  0
   -5.9174   -6.1708   -2.5052 H   0  0  0  0  0  0  0  0  0  0  0  0
   -7.2000   -4.1160   -2.1180 H   0  0  0  0  0  0  0  0  0  0  0  0
   -1.5350    3.3258    1.6062 H   0  0  0  0  0  0  0  0  0  0  0  0
   -2.1491    2.0008    2.6236 H   0  0  0  0  0  0  0  0  0  0  0  0
   -3.0535    4.9570    2.7626 H   0  0  0  0  0  0  0  0  0  0  0  0
   -1.9344    4.1269    3.9090 H   0  0  0  0  0  0  0  0  0  0  0  0
   -3.6688    3.6215    3.8199 H   0  0  0  0  0  0  0  0  0  0  0  0
   -4.3720    1.1881    3.3315 H   0  0  0  0  0  0  0  0  0  0  0  0
   -3.5437    0.0852    2.1693 H   0  0  0  0  0  0  0  0  0  0  0  0
   -5.7543   -0.7692    1.3906 H   0  0  0  0  0  0  0  0  0  0  0  0
   -5.5497   -0.9740    3.1711 H   0  0  0  0  0  0  0  0  0  0  0  0
   -6.5981    0.3555    2.5404 H   0  0  0  0  0  0  0  0  0  0  0  0
   -5.5829    7.4413   -1.6895 H   0  0  0  0  0  0  0  0  0  0  0  0
   -7.0188    8.6315   -0.0785 H   0  0  0  0  0  0  0  0  0  0  0  0
   -6.2315    9.0668    2.2171 H   0  0  0  0  0  0  0  0  0  0  0  0
   -3.2694    7.4755    3.7190 H   0  0  0  0  0  0  0  0  0  0  0  0
   -4.6828    8.5364    4.0200 H   0  0  0  0  0  0  0  0  0  0  0  0
   -3.4664   10.4615    2.9410 H   0  0  0  0  0  0  0  0  0  0  0  0
   -2.0301    9.3866    2.6784 H   0  0  0  0  0  0  0  0  0  0  0  0
   -2.5683    9.7841    4.3550 H   0  0  0  0  0  0  0  0  0  0  0  0
   -2.5616    6.9994    1.3550 H   0  0  0  0  0  0  0  0  0  0  0  0
    8.2696   -1.4753    1.7915 H   0  0  0  0  0  0  0  0  0  0  0  0
    9.0758   -2.2291    3.9896 H   0  0  0  0  0  0  0  0  0  0  0  0
    7.9868   -1.4460    6.0582 H   0  0  0  0  0  0  0  0  0  0  0  0
    5.2731    1.1589    6.1129 H   0  0  0  0  0  0  0  0  0  0  0  0
    6.5990    0.4331    7.0712 H   0  0  0  0  0  0  0  0  0  0  0  0
    5.4156   -1.7857    7.0441 H   0  0  0  0  0  0  0  0  0  0  0  0
    4.0743   -1.0427    6.0778 H   0  0  0  0  0  0  0  0  0  0  0  0
    4.3957   -0.4780    7.7591 H   0  0  0  0  0  0  0  0  0  0  0  0
    5.1479    0.7907    3.7184 H   0  0  0  0  0  0  0  0  0  0  0  0
   -0.0794    3.1647   -1.9875 H   0  0  0  0  0  0  0  0  0  0  0  0
    1.5807    2.6828   -2.1804 H   0  0  0  0  0  0  0  0  0  0  0  0
    1.5550    3.0648   -4.5924 H   0  0  0  0  0  0  0  0  0  0  0  0
   -0.0240    2.3122   -4.1994 H   0  0  0  0  0  0  0  0  0  0  0  0
    0.0845    4.0886   -4.4948 H   0  0  0  0  0  0  0  0  0  0  0  0
    3.4124    3.6664   -3.5642 H   0  0  0  0  0  0  0  0  0  0  0  0
    3.5997    1.9226   -3.1096 H   0  0  0  0  0  0  0  0  0  0  0  0
    5.8672    4.0061   -3.3534 H   0  0  0  0  0  0  0  0  0  0  0  0
    5.4078    2.8056   -4.6216 H   0  0  0  0  0  0  0  0  0  0  0  0
    6.0724    2.2377   -3.0541 H   0  0  0  0  0  0  0  0  0  0  0  0
    0.6773   -4.1388    2.9223 H   0  0  0  0  0  0  0  0  0  0  0  0
    1.3770   -5.6701    2.3380 H   0  0  0  0  0  0  0  0  0  0  0  0
    0.5449   -5.2192    0.0216 H   0  0  0  0  0  0  0  0  0  0  0  0
   -0.1734   -3.6554    0.5816 H   0  0  0  0  0  0  0  0  0  0  0  0
   -0.7944   -5.2216    1.2279 H   0  0  0  0  0  0  0  0  0  0  0  0
    1.6399   -0.6116    1.8603 H   0  0  0  0  0  0  0  0  0  0  0  0
    0.5410   -1.9665    2.2129 H   0  0  0  0  0  0  0  0  0  0  0  0
    1.0933   -0.7847    4.2970 H   0  0  0  0  0  0  0  0  0  0  0  0
    1.8743   -2.4119    4.3589 H   0  0  0  0  0  0  0  0  0  0  0  0
    2.8626   -0.9400    3.9786 H   0  0  0  0  0  0  0  0  0  0  0  0
    5.9143   -7.0380   -0.1259 H   0  0  0  0  0  0  0  0  0  0  0  0
    0.3261   -8.0903   -6.3955 H   0  0  0  0  0  0  0  0  0  0  0  0
    0.6440   -9.7334   -5.7214 H   0  0  0  0  0  0  0  0  0  0  0  0
   -0.6895   -8.7207   -5.0364 H   0  0  0  0  0  0  0  0  0  0  0  0
    2.1533   -9.9027   -3.6058 H   0  0  0  0  0  0  0  0  0  0  0  0
  1  2  2  3
  2  3  1  0
  3  4  2  0
  3  5  1  0
  5  6  2  0
  6  7  1  0
  7  8  2  0
  8  9  1  0
  9 10  2  0
 10 11  1  0
 10 12  1  0
 12 13  2  0
 13 14  1  0
 14 15  2  0
 15 16  1  0
 16 17  2  3
 17 18  1  0
 18 19  3  0
 17 20  1  0
 20 21  3  0
  1 22  1  0
 22 23  2  0
 23 24  1  0
 23 25  1  0
 25 26  1  0
 25 27  2  0
 27 28  1  0
 28 29  2  0
 29 30  1  0
 30 31  1  0
 31 32  1  0
 30 33  2  0
 33 34  1  0
 34 35  2  0
 33 36  1  0
 36 37  1  0
 27 38  1  0
 38 39  2  0
 39 40  1  0
 40 41  2  0
 41 42  1  0
 42 43  2  0
 43 44  1  0
 44 45  1  0
 45 46  1  0
 44 47  2  0
 39 48  1  0
 48 49  1  0
 49 50  1  0
 50 51  1  0
 51 52  1  0
 52 53  1  0
 53 54  2  0
 54 55  1  0
 55 56  1  0
 53 57  1  0
 57 58  1  0
 58 59  1  0
 59 60  1  0
 60 61  1  0
 61 62  1  0
 62 63  2  0
 63 64  1  0
 64 65  2  0
 65 66  1  0
 66 67  1  0
 67 68  1  0
 66 69  2  0
 61 70  2  0
 70 71  1  0
 71 72  1  0
 72 73  1  0
 73 74  1  0
 74 75  1  0
 75 76  1  0
 76 77  1  0
 77 78  1  0
 78 79  1  0
 79 80  1  0
 77 81  1  0
 81 82  1  0
 74 83  1  0
 83 84  1  0
 70 85  1  0
 85 86  2  0
 86 87  1  0
 86 88  1  0
 88 89  1  0
 88 90  2  0
 90 91  1  0
 91 92  2  0
 92 93  1  0
 93 94  1  0
 94 95  1  0
 93 96  2  0
 96 97  1  0
 97 98  2  0
 96 99  1  0
 99100  1  0
 90101  1  0
101102  2  3
102103  1  0
103104  2  0
103105  1  0
105106  1  0
106107  1  0
107108  1  0
107109  2  0
109110  1  0
110111  1  0
111112  2  3
112113  1  0
113114  3  0
112115  1  0
115116  3  0
 16  2  1  0
 35 22  1  0
 80 38  1  0
 98 85  1  0
111102  1  0
 15  5  1  0
 35 28  1  0
 47 40  1  0
 79 48  2  0
 98 91  1  0
110105  2  0
 13  7  1  0
 78 50  2  0
 76 51  2  0
 56 52  2  0
 75 57  2  0
 73 58  2  0
 72 60  2  0
 69 62  1  0
  1117  1  0
  6118  1  0
  8119  1  0
  9120  1  0
 12121  1  0
 14122  1  0
 31123  1  0
 31124  1  0
 32125  1  0
 32126  1  0
 32127  1  0
 36128  1  0
 36129  1  0
 37130  1  0
 37131  1  0
 37132  1  0
 41133  1  0
 42134  1  0
 43135  1  0
 45136  1  0
 45137  1  0
 46138  1  0
 46139  1  0
 46140  1  0
 47141  1  0
 63142  1  0
 64143  1  0
 65144  1  0
 67145  1  0
 67146  1  0
 68147  1  0
 68148  1  0
 68149  1  0
 69150  1  0
 81151  1  0
 81152  1  0
 82153  1  0
 82154  1  0
 82155  1  0
 83156  1  0
 83157  1  0
 84158  1  0
 84159  1  0
 84160  1  0
 94161  1  0
 94162  1  0
 95163  1  0
 95164  1  0
 95165  1  0
 99166  1  0
 99167  1  0
100168  1  0
100169  1  0
100170  1  0
101171  1  0
108172  1  0
108173  1  0
108174  1  0
109175  1  0
M  END

