
     RDKit          3D

181200  0  0  0  0  0  0  0  0999 V2000
   -1.6621  -10.5941    1.6688 C   0  0  0  0  0  0  0  0  0  0  0  0
   -0.5037  -11.2103    1.9890 C   0  0  0  0  0  0  0  0  0  0  0  0
   -0.4332  -12.2855    2.9715 C   0  0  0  0  0  0  0  0  0  0  0  0
   -1.4046  -12.9800    3.3831 O   0  0  0  0  0  0  0  0  0  0  0  0
    0.9273  -12.3555    3.4753 C   0  0  0  0  0  0  0  0  0  0  0  0
    1.4219  -13.1247    4.5334 C   0  0  0  0  0  0  0  0  0  0  0  0
    2.7662  -12.9533    4.9175 C   0  0  0  0  0  0  0  0  0  0  0  0
    3.2974  -13.6910    5.9834 C   0  0  0  0  0  0  0  0  0  0  0  0
    4.6303  -13.5116    6.3671 C   0  0  0  0  0  0  0  0  0  0  0  0
    5.4420  -12.5909    5.6932 C   0  0  0  0  0  0  0  0  0  0  0  0
    6.7328  -12.4267    6.0771 F   0  0  0  0  0  0  0  0  0  0  0  0
    4.9265  -11.8470    4.6293 C   0  0  0  0  0  0  0  0  0  0  0  0
    3.5872  -12.0150    4.2341 C   0  0  0  0  0  0  0  0  0  0  0  0
    3.0575  -11.2536    3.1753 C   0  0  0  0  0  0  0  0  0  0  0  0
    1.7162  -11.4419    2.7992 C   0  0  0  0  0  0  0  0  0  0  0  0
    0.9056  -10.7656    1.7487 C   0  0  0  0  0  0  0  0  0  0  0  0
    1.3876  -10.1965    0.6109 C   0  0  0  0  0  0  0  0  0  0  0  0
    0.5579  -10.0223   -0.5446 C   0  0  0  0  0  0  0  0  0  0  0  0
   -0.0995   -9.8884   -1.4831 N   0  0  0  0  0  0  0  0  0  0  0  0
    2.7833   -9.9229    0.4046 C   0  0  0  0  0  0  0  0  0  0  0  0
    3.9028   -9.6952    0.2207 N   0  0  0  0  0  0  0  0  0  0  0  0
   -1.7505   -9.1897    1.1948 C   0  0  0  0  0  0  0  0  0  0  0  0
   -2.5576   -8.8636    0.1000 C   0  0  0  0  0  0  0  0  0  0  0  0
   -3.2843   -9.8234   -0.5208 F   0  0  0  0  0  0  0  0  0  0  0  0
   -2.5784   -7.5587   -0.4108 C   0  0  0  0  0  0  0  0  0  0  0  0
   -3.4409   -7.2808   -1.4180 F   0  0  0  0  0  0  0  0  0  0  0  0
   -1.7606   -6.5512    0.1486 C   0  0  0  0  0  0  0  0  0  0  0  0
   -1.1204   -6.8445    1.3837 C   0  0  0  0  0  0  0  0  0  0  0  0
   -0.5355   -5.8699    2.1228 N   0  0  0  0  0  0  0  0  0  0  0  0
    0.0288   -6.0945    3.3393 C   0  0  0  0  0  0  0  0  0  0  0  0
    0.5352   -4.9074    4.1196 C   0  0  0  0  0  0  0  0  0  0  0  0
   -0.5659   -4.3281    5.0021 C   0  0  0  0  0  0  0  0  0  0  0  0
    0.0085   -7.4036    3.8638 C   0  0  0  0  0  0  0  0  0  0  0  0
   -0.5487   -8.3915    3.1160 N   0  0  0  0  0  0  0  0  0  0  0  0
   -1.1211   -8.1550    1.9010 C   0  0  0  0  0  0  0  0  0  0  0  0
    0.6158   -7.7565    5.1967 C   0  0  0  0  0  0  0  0  0  0  0  0
    2.0955   -8.0979    5.0437 C   0  0  0  0  0  0  0  0  0  0  0  0
   -1.5248   -5.2397   -0.5622 C   0  0  0  0  0  0  0  0  0  0  0  0
   -1.4761   -5.0027   -1.9698 C   0  0  0  0  0  0  0  0  0  0  0  0
   -1.7928   -5.9337   -3.0647 C   0  0  0  0  0  0  0  0  0  0  0  0
   -2.8103   -5.5865   -3.9694 C   0  0  0  0  0  0  0  0  0  0  0  0
   -3.0528   -6.3730   -5.0940 C   0  0  0  0  0  0  0  0  0  0  0  0
   -2.2606   -7.4944   -5.3428 C   0  0  0  0  0  0  0  0  0  0  0  0
   -1.2368   -7.8574   -4.4555 C   0  0  0  0  0  0  0  0  0  0  0  0
   -0.3662   -9.0499   -4.7658 C   0  0  0  0  0  0  0  0  0  0  0  0
   -1.1612  -10.3499   -4.6951 C   0  0  0  0  0  0  0  0  0  0  0  0
   -1.0070   -7.0723   -3.3094 C   0  0  0  0  0  0  0  0  0  0  0  0
   -0.9800   -3.7285   -2.2661 C   0  0  0  0  0  0  0  0  0  0  0  0
   -0.3737   -3.0672   -3.7179 S   0  0  0  0  0  0  0  0  0  0  0  0
    0.3287   -1.7863   -2.8549 C   0  0  0  0  0  0  0  0  0  0  0  0
    1.1361   -0.7210   -3.0808 C   0  0  0  0  0  0  0  0  0  0  0  0
    1.5187   -0.1097   -4.2770 C   0  0  0  0  0  0  0  0  0  0  0  0
    2.2534    1.1040   -4.2127 C   0  0  0  0  0  0  0  0  0  0  0  0
    2.5701    1.6971   -5.3901 N   0  0  0  0  0  0  0  0  0  0  0  0
    1.8623    0.6299   -6.4367 S   0  0  0  0  0  0  0  0  0  0  0  0
    1.1768   -0.5580   -5.5081 N   0  0  0  0  0  0  0  0  0  0  0  0
    2.6156    1.5950   -2.9557 C   0  0  0  0  0  0  0  0  0  0  0  0
    3.2935    2.7188   -2.6113 C   0  0  0  0  0  0  0  0  0  0  0  0
    3.4287    4.2396   -3.3277 S   0  0  0  0  0  0  0  0  0  0  0  0
    3.6234    4.9725   -1.8048 C   0  0  0  0  0  0  0  0  0  0  0  0
    3.3673    6.2938   -1.4325 C   0  0  0  0  0  0  0  0  0  0  0  0
    3.0282    7.3148   -2.4510 C   0  0  0  0  0  0  0  0  0  0  0  0
    3.9938    7.7148   -3.3864 C   0  0  0  0  0  0  0  0  0  0  0  0
    3.6774    8.6535   -4.3684 C   0  0  0  0  0  0  0  0  0  0  0  0
    2.3945    9.2049   -4.4274 C   0  0  0  0  0  0  0  0  0  0  0  0
    1.4137    8.8152   -3.4995 C   0  0  0  0  0  0  0  0  0  0  0  0
    0.0356    9.4112   -3.5643 C   0  0  0  0  0  0  0  0  0  0  0  0
   -0.8877    8.5553   -4.4282 C   0  0  0  0  0  0  0  0  0  0  0  0
    1.7297    7.8460   -2.5308 C   0  0  0  0  0  0  0  0  0  0  0  0
    3.1448    6.4119   -0.0321 C   0  0  0  0  0  0  0  0  0  0  0  0
    3.2129    4.8384    0.6409 S   0  0  0  0  0  0  0  0  0  0  0  0
    3.5666    4.0462   -0.7880 C   0  0  0  0  0  0  0  0  0  0  0  0
    3.3610    2.7484   -1.2544 C   0  0  0  0  0  0  0  0  0  0  0  0
    2.7670    1.6654   -0.6759 N   0  0  0  0  0  0  0  0  0  0  0  0
    2.2567    0.9725   -1.7484 C   0  0  0  0  0  0  0  0  0  0  0  0
    1.4278   -0.1869   -1.8095 C   0  0  0  0  0  0  0  0  0  0  0  0
    0.7256   -0.8586   -0.8294 N   0  0  0  0  0  0  0  0  0  0  0  0
    0.1068   -1.8507   -1.5249 C   0  0  0  0  0  0  0  0  0  0  0  0
   -0.6549   -2.9578   -1.1833 C   0  0  0  0  0  0  0  0  0  0  0  0
   -0.9573   -3.8122    0.2072 S   0  0  0  0  0  0  0  0  0  0  0  0
    0.2690   -0.3885    0.4875 C   0  0  0  0  0  0  0  0  0  0  0  0
   -0.4653    0.9432    0.3771 C   0  0  0  0  0  0  0  0  0  0  0  0
    3.3158    1.0461    0.5414 C   0  0  0  0  0  0  0  0  0  0  0  0
    2.7883    1.6945    1.8182 C   0  0  0  0  0  0  0  0  0  0  0  0
    2.5764    7.6115    0.6553 C   0  0  0  0  0  0  0  0  0  0  0  0
    2.8832    8.9058    0.1774 C   0  0  0  0  0  0  0  0  0  0  0  0
    3.9967    9.1249   -0.5681 F   0  0  0  0  0  0  0  0  0  0  0  0
    1.9807    9.9575    0.3667 C   0  0  0  0  0  0  0  0  0  0  0  0
    2.1741   11.1311   -0.2851 F   0  0  0  0  0  0  0  0  0  0  0  0
    0.8226    9.7531    1.1338 C   0  0  0  0  0  0  0  0  0  0  0  0
    0.7136    8.5820    1.8960 C   0  0  0  0  0  0  0  0  0  0  0  0
   -0.2839    8.4417    2.8067 N   0  0  0  0  0  0  0  0  0  0  0  0
   -0.4818    7.2919    3.5053 C   0  0  0  0  0  0  0  0  0  0  0  0
   -1.5758    7.2359    4.5475 C   0  0  0  0  0  0  0  0  0  0  0  0
   -2.3742    8.5377    4.6685 C   0  0  0  0  0  0  0  0  0  0  0  0
    0.3628    6.1916    3.2377 C   0  0  0  0  0  0  0  0  0  0  0  0
    1.3444    6.3309    2.3056 N   0  0  0  0  0  0  0  0  0  0  0  0
    1.5660    7.4938    1.6387 C   0  0  0  0  0  0  0  0  0  0  0  0
    0.1977    4.8490    3.9039 C   0  0  0  0  0  0  0  0  0  0  0  0
   -0.7767    3.9634    3.1222 C   0  0  0  0  0  0  0  0  0  0  0  0
   -0.3339   10.6621    0.9725 C   0  0  0  0  0  0  0  0  0  0  0  0
   -1.5091   10.2517    0.4404 C   0  0  0  0  0  0  0  0  0  0  0  0
   -1.7401    8.9587   -0.2324 C   0  0  0  0  0  0  0  0  0  0  0  0
   -1.0082    7.9355   -0.1805 O   0  0  0  0  0  0  0  0  0  0  0  0
   -2.9214    9.0655   -1.0532 C   0  0  0  0  0  0  0  0  0  0  0  0
   -3.3989    8.1318   -1.9668 C   0  0  0  0  0  0  0  0  0  0  0  0
   -4.5123    8.4696   -2.7522 C   0  0  0  0  0  0  0  0  0  0  0  0
   -5.0148    7.5719   -3.7033 C   0  0  0  0  0  0  0  0  0  0  0  0
   -6.1290    7.9136   -4.4766 C   0  0  0  0  0  0  0  0  0  0  0  0
   -6.7476    9.1566   -4.3076 C   0  0  0  0  0  0  0  0  0  0  0  0
   -7.8336    9.4751   -5.0519 F   0  0  0  0  0  0  0  0  0  0  0  0
   -6.2456   10.0734   -3.3800 C   0  0  0  0  0  0  0  0  0  0  0  0
   -5.1249    9.7432   -2.5991 C   0  0  0  0  0  0  0  0  0  0  0  0
   -4.6042   10.6747   -1.6706 C   0  0  0  0  0  0  0  0  0  0  0  0
   -3.4924   10.3148   -0.8905 C   0  0  0  0  0  0  0  0  0  0  0  0
   -2.7085   11.0908    0.1236 C   0  0  0  0  0  0  0  0  0  0  0  0
   -3.1027   12.2003    0.7993 C   0  0  0  0  0  0  0  0  0  0  0  0
   -4.3629   12.8511    0.5324 C   0  0  0  0  0  0  0  0  0  0  0  0
   -5.3772   13.3777    0.3283 N   0  0  0  0  0  0  0  0  0  0  0  0
   -2.3664   12.7213    1.9188 C   0  0  0  0  0  0  0  0  0  0  0  0
   -1.7787   13.1442    2.8221 N   0  0  0  0  0  0  0  0  0  0  0  0
   -2.5942  -11.0798    1.9139 H   0  0  0  0  0  0  0  0  0  0  0  0
    0.7658  -13.8130    5.0562 H   0  0  0  0  0  0  0  0  0  0  0  0
    2.6809  -14.3991    6.5278 H   0  0  0  0  0  0  0  0  0  0  0  0
    5.0389  -14.0821    7.1907 H   0  0  0  0  0  0  0  0  0  0  0  0
    5.5681  -11.1298    4.1251 H   0  0  0  0  0  0  0  0  0  0  0  0
    3.6732  -10.5073    2.6968 H   0  0  0  0  0  0  0  0  0  0  0  0
    0.8735   -4.1243    3.4104 H   0  0  0  0  0  0  0  0  0  0  0  0
    1.4120   -5.1837    4.7429 H   0  0  0  0  0  0  0  0  0  0  0  0
   -1.0408   -5.1050    5.6365 H   0  0  0  0  0  0  0  0  0  0  0  0
   -0.1434   -3.5483    5.6679 H   0  0  0  0  0  0  0  0  0  0  0  0
   -1.3495   -3.8553    4.3738 H   0  0  0  0  0  0  0  0  0  0  0  0
    0.4905   -6.9312    5.9352 H   0  0  0  0  0  0  0  0  0  0  0  0
    0.0874   -8.6369    5.6234 H   0  0  0  0  0  0  0  0  0  0  0  0
    2.5745   -8.1373    6.0456 H   0  0  0  0  0  0  0  0  0  0  0  0
    2.1987   -9.0903    4.5590 H   0  0  0  0  0  0  0  0  0  0  0  0
    2.6239   -7.3397    4.4339 H   0  0  0  0  0  0  0  0  0  0  0  0
   -3.4082   -4.6963   -3.8058 H   0  0  0  0  0  0  0  0  0  0  0  0
   -3.8414   -6.1028   -5.7853 H   0  0  0  0  0  0  0  0  0  0  0  0
   -2.4406   -8.0727   -6.2432 H   0  0  0  0  0  0  0  0  0  0  0  0
    0.0594   -8.9396   -5.7851 H   0  0  0  0  0  0  0  0  0  0  0  0
    0.4864   -9.1087   -4.0582 H   0  0  0  0  0  0  0  0  0  0  0  0
   -1.9965  -10.3492   -5.4322 H   0  0  0  0  0  0  0  0  0  0  0  0
   -0.4918  -11.2085   -4.9206 H   0  0  0  0  0  0  0  0  0  0  0  0
   -1.5907  -10.4894   -3.6820 H   0  0  0  0  0  0  0  0  0  0  0  0
   -0.2021   -7.3190   -2.6267 H   0  0  0  0  0  0  0  0  0  0  0  0
    4.9989    7.3089   -3.3420 H   0  0  0  0  0  0  0  0  0  0  0  0
    4.4280    8.9684   -5.0808 H   0  0  0  0  0  0  0  0  0  0  0  0
    2.1656    9.9398   -5.1911 H   0  0  0  0  0  0  0  0  0  0  0  0
    0.0822   10.4384   -3.9915 H   0  0  0  0  0  0  0  0  0  0  0  0
   -0.3865    9.5108   -2.5436 H   0  0  0  0  0  0  0  0  0  0  0  0
   -0.4810    8.4825   -5.4629 H   0  0  0  0  0  0  0  0  0  0  0  0
   -1.8945    9.0234   -4.4731 H   0  0  0  0  0  0  0  0  0  0  0  0
   -0.9809    7.5360   -3.9973 H   0  0  0  0  0  0  0  0  0  0  0  0
    0.9668    7.5144   -1.8389 H   0  0  0  0  0  0  0  0  0  0  0  0
   -0.4448   -1.1183    0.9318 H   0  0  0  0  0  0  0  0  0  0  0  0
    1.0947   -0.3389    1.2026 H   0  0  0  0  0  0  0  0  0  0  0  0
   -1.3504    0.8394   -0.2864 H   0  0  0  0  0  0  0  0  0  0  0  0
    0.1920    1.7324   -0.0327 H   0  0  0  0  0  0  0  0  0  0  0  0
   -0.8231    1.2590    1.3881 H   0  0  0  0  0  0  0  0  0  0  0  0
    4.4240    1.1266    0.5304 H   0  0  0  0  0  0  0  0  0  0  0  0
    3.1142   -0.0388    0.5403 H   0  0  0  0  0  0  0  0  0  0  0  0
    1.7591    2.0898    1.6953 H   0  0  0  0  0  0  0  0  0  0  0  0
    3.4614    2.5143    2.1525 H   0  0  0  0  0  0  0  0  0  0  0  0
    2.7797    0.9410    2.6329 H   0  0  0  0  0  0  0  0  0  0  0  0
   -1.1215    7.0214    5.5418 H   0  0  0  0  0  0  0  0  0  0  0  0
   -2.2834    6.4211    4.2926 H   0  0  0  0  0  0  0  0  0  0  0  0
   -3.1886    8.4104    5.4136 H   0  0  0  0  0  0  0  0  0  0  0  0
   -1.7152    9.3698    4.9903 H   0  0  0  0  0  0  0  0  0  0  0  0
   -2.8377    8.8021    3.6954 H   0  0  0  0  0  0  0  0  0  0  0  0
    1.1896    4.3401    3.9355 H   0  0  0  0  0  0  0  0  0  0  0  0
   -0.1438    4.9604    4.9539 H   0  0  0  0  0  0  0  0  0  0  0  0
   -0.8647    2.9777    3.6220 H   0  0  0  0  0  0  0  0  0  0  0  0
   -1.7820    4.4384    3.0785 H   0  0  0  0  0  0  0  0  0  0  0  0
   -0.4149    3.8119    2.0800 H   0  0  0  0  0  0  0  0  0  0  0  0
   -0.1596   11.7086    1.1660 H   0  0  0  0  0  0  0  0  0  0  0  0
   -2.8934    7.1756   -2.0870 H   0  0  0  0  0  0  0  0  0  0  0  0
   -4.5508    6.5998   -3.8516 H   0  0  0  0  0  0  0  0  0  0  0  0
   -6.5234    7.2120   -5.1987 H   0  0  0  0  0  0  0  0  0  0  0  0
   -6.7418   11.0302   -3.2602 H   0  0  0  0  0  0  0  0  0  0  0  0
   -5.0522   11.6537   -1.6066 H   0  0  0  0  0  0  0  0  0  0  0  0
  1  2  2  3
  2  3  1  0
  3  4  2  0
  3  5  1  0
  5  6  2  0
  6  7  1  0
  7  8  2  0
  8  9  1  0
  9 10  2  0
 10 11  1  0
 10 12  1  0
 12 13  2  0
 13 14  1  0
 14 15  2  0
 15 16  1  0
 16 17  2  3
 17 18  1  0
 18 19  3  0
 17 20  1  0
 20 21  3  0
  1 22  1  0
 22 23  2  0
 23 24  1  0
 23 25  1  0
 25 26  1  0
 25 27  2  0
 27 28  1  0
 28 29  2  0
 29 30  1  0
 30 31  1  0
 31 32  1  0
 30 33  2  0
 33 34  1  0
 34 35  2  0
 33 36  1  0
 36 37  1  0
 27 38  1  0
 38 39  2  0
 39 40  1  0
 40 41  2  0
 41 42  1  0
 42 43  2  0
 43 44  1  0
 44 45  1  0
 45 46  1  0
 44 47  2  0
 39 48  1  0
 48 49  1  0
 49 50  1  0
 50 51  1  0
 51 52  1  0
 52 53  1  0
 53 54  2  0
 54 55  1  0
 55 56  1  0
 53 57  1  0
 57 58  1  0
 58 59  1  0
 59 60  1  0
 60 61  1  0
 61 62  1  0
 62 63  2  0
 63 64  1  0
 64 65  2  0
 65 66  1  0
 66 67  1  0
 67 68  1  0
 66 69  2  0
 61 70  2  0
 70 71  1  0
 71 72  1  0
 72 73  1  0
 73 74  1  0
 74 75  1  0
 75 76  1  0
 76 77  1  0
 77 78  1  0
 78 79  1  0
 79 80  1  0
 77 81  1  0
 81 82  1  0
 74 83  1  0
 83 84  1  0
 70 85  1  0
 85 86  2  0
 86 87  1  0
 86 88  1  0
 88 89  1  0
 88 90  2  0
 90 91  1  0
 91 92  2  0
 92 93  1  0
 93 94  1  0
 94 95  1  0
 93 96  2  0
 96 97  1  0
 97 98  2  0
 96 99  1  0
 99100  1  0
 90101  1  0
101102  2  3
102103  1  0
103104  2  0
103105  1  0
105106  2  0
106107  1  0
107108  2  0
108109  1  0
109110  2  0
110111  1  0
110112  1  0
112113  2  0
113114  1  0
114115  2  0
115116  1  0
116117  2  3
117118  1  0
118119  3  0
117120  1  0
120121  3  0
 16  2  1  0
 35 22  1  0
 80 38  1  0
 98 85  1  0
116102  1  0
 15  5  1  0
 35 28  1  0
 47 40  1  0
 79 48  2  0
 98 91  1  0
115105  1  0
 13  7  1  0
 78 50  2  0
113107  1  0
 76 51  2  0
 56 52  2  0
 75 57  2  0
 73 58  2  0
 72 60  2  0
 69 62  1  0
  1122  1  0
  6123  1  0
  8124  1  0
  9125  1  0
 12126  1  0
 14127  1  0
 31128  1  0
 31129  1  0
 32130  1  0
 32131  1  0
 32132  1  0
 36133  1  0
 36134  1  0
 37135  1  0
 37136  1  0
 37137  1  0
 41138  1  0
 42139  1  0
 43140  1  0
 45141  1  0
 45142  1  0
 46143  1  0
 46144  1  0
 46145  1  0
 47146  1  0
 63147  1  0
 64148  1  0
 65149  1  0
 67150  1  0
 67151  1  0
 68152  1  0
 68153  1  0
 68154  1  0
 69155  1  0
 81156  1  0
 81157  1  0
 82158  1  0
 82159  1  0
 82160  1  0
 83161  1  0
 83162  1  0
 84163  1  0
 84164  1  0
 84165  1  0
 94166  1  0
 94167  1  0
 95168  1  0
 95169  1  0
 95170  1  0
 99171  1  0
 99172  1  0
100173  1  0
100174  1  0
100175  1  0
101176  1  0
106177  1  0
108178  1  0
109179  1  0
112180  1  0
114181  1  0
M  END

