
     RDKit          3D

183202  0  0  0  0  0  0  0  0999 V2000
    6.7825   -2.2966   -4.5919 C   0  0  0  0  0  0  0  0  0  0  0  0
    5.9345   -3.2046   -4.0702 C   0  0  0  0  0  0  0  0  0  0  0  0
    4.4621   -3.1324   -4.1418 C   0  0  0  0  0  0  0  0  0  0  0  0
    3.7715   -2.1304   -4.4665 O   0  0  0  0  0  0  0  0  0  0  0  0
    3.9292   -4.4360   -3.8200 C   0  0  0  0  0  0  0  0  0  0  0  0
    2.6089   -4.8722   -3.9340 C   0  0  0  0  0  0  0  0  0  0  0  0
    2.3367   -6.2419   -3.7609 C   0  0  0  0  0  0  0  0  0  0  0  0
    1.0326   -6.7379   -3.9119 C   0  0  0  0  0  0  0  0  0  0  0  0
    0.7847   -8.1084   -3.7967 C   0  0  0  0  0  0  0  0  0  0  0  0
    1.8332   -8.9971   -3.5505 C   0  0  0  0  0  0  0  0  0  0  0  0
    1.5911  -10.3275   -3.4773 F   0  0  0  0  0  0  0  0  0  0  0  0
    3.1385   -8.5202   -3.4039 C   0  0  0  0  0  0  0  0  0  0  0  0
    3.4058   -7.1463   -3.4957 C   0  0  0  0  0  0  0  0  0  0  0  0
    4.7261   -6.6638   -3.3625 C   0  0  0  0  0  0  0  0  0  0  0  0
    4.9677   -5.2903   -3.4946 C   0  0  0  0  0  0  0  0  0  0  0  0
    6.2595   -4.5522   -3.5115 C   0  0  0  0  0  0  0  0  0  0  0  0
    7.3823   -4.8992   -2.8256 C   0  0  0  0  0  0  0  0  0  0  0  0
    7.4310   -6.0812   -2.0021 C   0  0  0  0  0  0  0  0  0  0  0  0
    7.4787   -7.0210   -1.3315 N   0  0  0  0  0  0  0  0  0  0  0  0
    8.5170   -4.0219   -2.7211 C   0  0  0  0  0  0  0  0  0  0  0  0
    9.4397   -3.3290   -2.6303 N   0  0  0  0  0  0  0  0  0  0  0  0
    6.2884   -1.0060   -5.1034 C   0  0  0  0  0  0  0  0  0  0  0  0
    5.8690   -0.9016   -6.4433 C   0  0  0  0  0  0  0  0  0  0  0  0
    6.1441   -1.8979   -7.3179 F   0  0  0  0  0  0  0  0  0  0  0  0
    5.0055    0.1292   -6.8315 C   0  0  0  0  0  0  0  0  0  0  0  0
    4.4688    0.1168   -8.0787 F   0  0  0  0  0  0  0  0  0  0  0  0
    4.5902    1.0888   -5.8963 C   0  0  0  0  0  0  0  0  0  0  0  0
    5.1348    1.0702   -4.5978 C   0  0  0  0  0  0  0  0  0  0  0  0
    4.7445    1.9844   -3.6703 N   0  0  0  0  0  0  0  0  0  0  0  0
    5.1483    1.9368   -2.3760 C   0  0  0  0  0  0  0  0  0  0  0  0
    4.6617    3.0299   -1.4568 C   0  0  0  0  0  0  0  0  0  0  0  0
    5.7220    4.1075   -1.2847 C   0  0  0  0  0  0  0  0  0  0  0  0
    5.9990    0.8772   -1.9705 C   0  0  0  0  0  0  0  0  0  0  0  0
    6.3676   -0.0513   -2.8979 N   0  0  0  0  0  0  0  0  0  0  0  0
    5.9746    0.0170   -4.1987 C   0  0  0  0  0  0  0  0  0  0  0  0
    6.4838    0.6938   -0.5520 C   0  0  0  0  0  0  0  0  0  0  0  0
    8.0093    0.6429   -0.4860 C   0  0  0  0  0  0  0  0  0  0  0  0
    3.2835    1.7436   -6.0674 C   0  0  0  0  0  0  0  0  0  0  0  0
    3.0496    3.1299   -5.9707 C   0  0  0  0  0  0  0  0  0  0  0  0
    4.0332    4.1701   -6.2930 C   0  0  0  0  0  0  0  0  0  0  0  0
    4.7239    4.8365   -5.2710 C   0  0  0  0  0  0  0  0  0  0  0  0
    5.6335    5.8473   -5.5873 C   0  0  0  0  0  0  0  0  0  0  0  0
    5.8270    6.2276   -6.9160 C   0  0  0  0  0  0  0  0  0  0  0  0
    5.1011    5.6029   -7.9431 C   0  0  0  0  0  0  0  0  0  0  0  0
    5.2448    6.0675   -9.3668 C   0  0  0  0  0  0  0  0  0  0  0  0
    6.0627    5.0860  -10.1987 C   0  0  0  0  0  0  0  0  0  0  0  0
    4.2211    4.5545   -7.6274 C   0  0  0  0  0  0  0  0  0  0  0  0
    1.7894    3.3977   -5.4283 C   0  0  0  0  0  0  0  0  0  0  0  0
    1.0455    4.8196   -4.8340 S   0  0  0  0  0  0  0  0  0  0  0  0
   -0.2150    3.8900   -4.1630 C   0  0  0  0  0  0  0  0  0  0  0  0
   -1.3548    4.0427   -3.4283 C   0  0  0  0  0  0  0  0  0  0  0  0
   -2.0492    5.1896   -3.0444 C   0  0  0  0  0  0  0  0  0  0  0  0
   -3.3056    5.0301   -2.3854 C   0  0  0  0  0  0  0  0  0  0  0  0
   -3.9480    6.1632   -2.0123 N   0  0  0  0  0  0  0  0  0  0  0  0
   -2.8687    7.2901   -2.5713 S   0  0  0  0  0  0  0  0  0  0  0  0
   -1.6149    6.4540   -3.2590 N   0  0  0  0  0  0  0  0  0  0  0  0
   -3.7750    3.7351   -2.1213 C   0  0  0  0  0  0  0  0  0  0  0  0
   -4.7886    3.3216   -1.3035 C   0  0  0  0  0  0  0  0  0  0  0  0
   -5.7303    4.0788   -0.1084 S   0  0  0  0  0  0  0  0  0  0  0  0
   -5.9117    2.6219    0.7492 C   0  0  0  0  0  0  0  0  0  0  0  0
   -6.4140    2.3068    2.0240 C   0  0  0  0  0  0  0  0  0  0  0  0
   -7.0956    3.2585    2.9308 C   0  0  0  0  0  0  0  0  0  0  0  0
   -8.2209    2.8419    3.6672 C   0  0  0  0  0  0  0  0  0  0  0  0
   -8.8524    3.7210    4.5514 C   0  0  0  0  0  0  0  0  0  0  0  0
   -8.3838    5.0278    4.6942 C   0  0  0  0  0  0  0  0  0  0  0  0
   -7.2681    5.4640    3.9608 C   0  0  0  0  0  0  0  0  0  0  0  0
   -6.7403    6.8622    4.1445 C   0  0  0  0  0  0  0  0  0  0  0  0
   -5.7428    6.9137    5.2951 C   0  0  0  0  0  0  0  0  0  0  0  0
   -6.6140    4.5684    3.1010 C   0  0  0  0  0  0  0  0  0  0  0  0
   -6.1147    0.9676    2.3521 C   0  0  0  0  0  0  0  0  0  0  0  0
   -5.2149    0.2581    1.1023 S   0  0  0  0  0  0  0  0  0  0  0  0
   -5.2352    1.6066    0.1219 C   0  0  0  0  0  0  0  0  0  0  0  0
   -4.5815    2.0022   -1.0423 C   0  0  0  0  0  0  0  0  0  0  0  0
   -3.4742    1.5163   -1.6714 N   0  0  0  0  0  0  0  0  0  0  0  0
   -3.0216    2.5857   -2.4061 C   0  0  0  0  0  0  0  0  0  0  0  0
   -1.8225    2.7422   -3.1638 C   0  0  0  0  0  0  0  0  0  0  0  0
   -1.0364    1.8156   -3.8002 N   0  0  0  0  0  0  0  0  0  0  0  0
   -0.0697    2.5671   -4.3813 C   0  0  0  0  0  0  0  0  0  0  0  0
    1.0538    2.2816   -5.1294 C   0  0  0  0  0  0  0  0  0  0  0  0
    1.9122    0.9050   -5.5054 S   0  0  0  0  0  0  0  0  0  0  0  0
   -1.3413    0.4246   -4.1644 C   0  0  0  0  0  0  0  0  0  0  0  0
   -0.3564   -0.5644   -3.5216 C   0  0  0  0  0  0  0  0  0  0  0  0
   -2.6527    0.4297   -1.1232 C   0  0  0  0  0  0  0  0  0  0  0  0
   -3.2234   -0.9511   -1.4592 C   0  0  0  0  0  0  0  0  0  0  0  0
   -6.1279    0.3564    3.6953 C   0  0  0  0  0  0  0  0  0  0  0  0
   -5.3604    0.9377    4.7267 C   0  0  0  0  0  0  0  0  0  0  0  0
   -4.8072    2.2157    4.5498 O   0  0  0  0  0  0  0  0  0  0  0  0
   -3.4008    2.4509    4.5151 C   0  0  0  0  0  0  0  0  0  0  0  0
   -2.8102    1.9870    3.1913 C   0  0  0  0  0  0  0  0  0  0  0  0
   -5.1288    0.2275    5.9173 C   0  0  0  0  0  0  0  0  0  0  0  0
   -4.4377    0.8513    6.9573 O   0  0  0  0  0  0  0  0  0  0  0  0
   -5.0728    1.1620    8.1923 C   0  0  0  0  0  0  0  0  0  0  0  0
   -4.1772    2.0884    8.9993 C   0  0  0  0  0  0  0  0  0  0  0  0
   -5.5461   -1.1099    6.0270 C   0  0  0  0  0  0  0  0  0  0  0  0
   -6.3577   -1.6722    5.0280 C   0  0  0  0  0  0  0  0  0  0  0  0
   -6.6609   -0.9325    3.8670 C   0  0  0  0  0  0  0  0  0  0  0  0
   -7.4096   -1.5179    2.8908 N   0  0  0  0  0  0  0  0  0  0  0  0
   -7.8652   -2.7897    3.0157 C   0  0  0  0  0  0  0  0  0  0  0  0
   -7.5580   -3.5250    4.1602 C   0  0  0  0  0  0  0  0  0  0  0  0
   -6.8057   -2.9534    5.1346 N   0  0  0  0  0  0  0  0  0  0  0  0
   -4.8928   -1.9943    7.0122 C   0  0  0  0  0  0  0  0  0  0  0  0
   -3.7063   -2.5761    6.7407 C   0  0  0  0  0  0  0  0  0  0  0  0
   -2.8776   -2.2877    5.5614 C   0  0  0  0  0  0  0  0  0  0  0  0
   -3.2538   -1.7378    4.4899 O   0  0  0  0  0  0  0  0  0  0  0  0
   -1.5274   -2.7182    5.8331 C   0  0  0  0  0  0  0  0  0  0  0  0
   -0.3934   -2.4899    5.0554 C   0  0  0  0  0  0  0  0  0  0  0  0
    0.8527   -2.9025    5.5499 C   0  0  0  0  0  0  0  0  0  0  0  0
    2.0251   -2.6548    4.8200 C   0  0  0  0  0  0  0  0  0  0  0  0
    3.2663   -3.0410    5.3316 C   0  0  0  0  0  0  0  0  0  0  0  0
    3.3451   -3.6816    6.5715 C   0  0  0  0  0  0  0  0  0  0  0  0
    4.5556   -4.0466    7.0592 F   0  0  0  0  0  0  0  0  0  0  0  0
    2.1879   -3.9321    7.3155 C   0  0  0  0  0  0  0  0  0  0  0  0
    0.9346   -3.5443    6.8195 C   0  0  0  0  0  0  0  0  0  0  0  0
   -0.2331   -3.7550    7.5840 C   0  0  0  0  0  0  0  0  0  0  0  0
   -1.4736   -3.3344    7.0720 C   0  0  0  0  0  0  0  0  0  0  0  0
   -2.8449   -3.3719    7.6692 C   0  0  0  0  0  0  0  0  0  0  0  0
   -3.2673   -4.1194    8.7220 C   0  0  0  0  0  0  0  0  0  0  0  0
   -4.6629   -4.2743    9.0356 C   0  0  0  0  0  0  0  0  0  0  0  0
   -5.7857   -4.3952    9.3002 N   0  0  0  0  0  0  0  0  0  0  0  0
   -2.3678   -4.8765    9.5487 C   0  0  0  0  0  0  0  0  0  0  0  0
   -1.6634   -5.4807   10.2351 N   0  0  0  0  0  0  0  0  0  0  0  0
    7.8440   -2.4837   -4.6557 H   0  0  0  0  0  0  0  0  0  0  0  0
    1.8234   -4.1735   -4.1935 H   0  0  0  0  0  0  0  0  0  0  0  0
    0.2064   -6.0662   -4.1156 H   0  0  0  0  0  0  0  0  0  0  0  0
   -0.2256   -8.4796   -3.9174 H   0  0  0  0  0  0  0  0  0  0  0  0
    3.9447   -9.2200   -3.2197 H   0  0  0  0  0  0  0  0  0  0  0  0
    5.5403   -7.3578   -3.2202 H   0  0  0  0  0  0  0  0  0  0  0  0
    4.3508    2.6235   -0.4717 H   0  0  0  0  0  0  0  0  0  0  0  0
    3.7539    3.4999   -1.8967 H   0  0  0  0  0  0  0  0  0  0  0  0
    6.0213    4.5278   -2.2702 H   0  0  0  0  0  0  0  0  0  0  0  0
    6.6259    3.7020   -0.7878 H   0  0  0  0  0  0  0  0  0  0  0  0
    5.3141    4.9247   -0.6548 H   0  0  0  0  0  0  0  0  0  0  0  0
    6.0621   -0.2501   -0.1435 H   0  0  0  0  0  0  0  0  0  0  0  0
    6.1502    1.5127    0.1133 H   0  0  0  0  0  0  0  0  0  0  0  0
    8.3285    0.6770    0.5851 H   0  0  0  0  0  0  0  0  0  0  0  0
    8.3931   -0.3013   -0.9380 H   0  0  0  0  0  0  0  0  0  0  0  0
    8.4471    1.5202   -1.0124 H   0  0  0  0  0  0  0  0  0  0  0  0
    4.5519    4.5775   -4.2353 H   0  0  0  0  0  0  0  0  0  0  0  0
    6.1853    6.3415   -4.7978 H   0  0  0  0  0  0  0  0  0  0  0  0
    6.5229    7.0276   -7.1389 H   0  0  0  0  0  0  0  0  0  0  0  0
    5.7343    7.0663   -9.4058 H   0  0  0  0  0  0  0  0  0  0  0  0
    4.2346    6.1825   -9.8170 H   0  0  0  0  0  0  0  0  0  0  0  0
    5.5648    4.0941  -10.2321 H   0  0  0  0  0  0  0  0  0  0  0  0
    6.1547    5.4693  -11.2348 H   0  0  0  0  0  0  0  0  0  0  0  0
    7.0792    4.9748   -9.7670 H   0  0  0  0  0  0  0  0  0  0  0  0
    3.6595    4.0609   -8.4147 H   0  0  0  0  0  0  0  0  0  0  0  0
   -8.6047    1.8339    3.5607 H   0  0  0  0  0  0  0  0  0  0  0  0
   -9.7074    3.3902    5.1247 H   0  0  0  0  0  0  0  0  0  0  0  0
   -8.8762    5.6973    5.3864 H   0  0  0  0  0  0  0  0  0  0  0  0
   -7.5767    7.5640    4.3526 H   0  0  0  0  0  0  0  0  0  0  0  0
   -6.2426    7.2105    3.2127 H   0  0  0  0  0  0  0  0  0  0  0  0
   -5.3618    7.9516    5.4113 H   0  0  0  0  0  0  0  0  0  0  0  0
   -4.8832    6.2409    5.0885 H   0  0  0  0  0  0  0  0  0  0  0  0
   -6.2353    6.6076    6.2435 H   0  0  0  0  0  0  0  0  0  0  0  0
   -5.7130    4.8820    2.5890 H   0  0  0  0  0  0  0  0  0  0  0  0
   -1.2839    0.3127   -5.2735 H   0  0  0  0  0  0  0  0  0  0  0  0
   -2.3884    0.1840   -3.9035 H   0  0  0  0  0  0  0  0  0  0  0  0
   -0.9060   -1.4104   -3.0650 H   0  0  0  0  0  0  0  0  0  0  0  0
    0.3078   -1.0035   -4.2936 H   0  0  0  0  0  0  0  0  0  0  0  0
    0.2665   -0.0681   -2.7433 H   0  0  0  0  0  0  0  0  0  0  0  0
   -2.5731    0.5376   -0.0203 H   0  0  0  0  0  0  0  0  0  0  0  0
   -1.6093    0.5153   -1.4768 H   0  0  0  0  0  0  0  0  0  0  0  0
   -2.4577   -1.7264   -1.2591 H   0  0  0  0  0  0  0  0  0  0  0  0
   -4.1042   -1.1873   -0.8388 H   0  0  0  0  0  0  0  0  0  0  0  0
   -3.5438   -1.0226   -2.5173 H   0  0  0  0  0  0  0  0  0  0  0  0
   -2.8816    1.9421    5.3527 H   0  0  0  0  0  0  0  0  0  0  0  0
   -3.2255    3.5435    4.6207 H   0  0  0  0  0  0  0  0  0  0  0  0
   -1.7252    2.2156    3.1517 H   0  0  0  0  0  0  0  0  0  0  0  0
   -2.9383    0.8884    3.0819 H   0  0  0  0  0  0  0  0  0  0  0  0
   -3.3173    2.5017    2.3469 H   0  0  0  0  0  0  0  0  0  0  0  0
   -6.0381    1.6828    7.9982 H   0  0  0  0  0  0  0  0  0  0  0  0
   -5.2665    0.2328    8.7728 H   0  0  0  0  0  0  0  0  0  0  0  0
   -3.2040    1.5924    9.1921 H   0  0  0  0  0  0  0  0  0  0  0  0
   -4.6698    2.3443    9.9610 H   0  0  0  0  0  0  0  0  0  0  0  0
   -4.0025    3.0253    8.4276 H   0  0  0  0  0  0  0  0  0  0  0  0
   -8.4528   -3.2325    2.2251 H   0  0  0  0  0  0  0  0  0  0  0  0
   -7.9085   -4.5437    4.2713 H   0  0  0  0  0  0  0  0  0  0  0  0
   -5.3638   -2.0979    7.9740 H   0  0  0  0  0  0  0  0  0  0  0  0
   -0.4763   -1.9751    4.1057 H   0  0  0  0  0  0  0  0  0  0  0  0
    1.9804   -2.1475    3.8631 H   0  0  0  0  0  0  0  0  0  0  0  0
    4.1657   -2.8235    4.7697 H   0  0  0  0  0  0  0  0  0  0  0  0
    2.2749   -4.4194    8.2796 H   0  0  0  0  0  0  0  0  0  0  0  0
   -0.1471   -4.1950    8.5648 H   0  0  0  0  0  0  0  0  0  0  0  0
  1  2  2  3
  2  3  1  0
  3  4  2  0
  3  5  1  0
  5  6  2  0
  6  7  1  0
  7  8  2  0
  8  9  1  0
  9 10  2  0
 10 11  1  0
 10 12  1  0
 12 13  2  0
 13 14  1  0
 14 15  2  0
 15 16  1  0
 16 17  2  3
 17 18  1  0
 18 19  3  0
 17 20  1  0
 20 21  3  0
  1 22  1  0
 22 23  2  0
 23 24  1  0
 23 25  1  0
 25 26  1  0
 25 27  2  0
 27 28  1  0
 28 29  2  0
 29 30  1  0
 30 31  1  0
 31 32  1  0
 30 33  2  0
 33 34  1  0
 34 35  2  0
 33 36  1  0
 36 37  1  0
 27 38  1  0
 38 39  2  0
 39 40  1  0
 40 41  2  0
 41 42  1  0
 42 43  2  0
 43 44  1  0
 44 45  1  0
 45 46  1  0
 44 47  2  0
 39 48  1  0
 48 49  1  0
 49 50  1  0
 50 51  1  0
 51 52  1  0
 52 53  1  0
 53 54  2  0
 54 55  1  0
 55 56  1  0
 53 57  1  0
 57 58  1  0
 58 59  1  0
 59 60  1  0
 60 61  1  0
 61 62  1  0
 62 63  2  0
 63 64  1  0
 64 65  2  0
 65 66  1  0
 66 67  1  0
 67 68  1  0
 66 69  2  0
 61 70  2  0
 70 71  1  0
 71 72  1  0
 72 73  1  0
 73 74  1  0
 74 75  1  0
 75 76  1  0
 76 77  1  0
 77 78  1  0
 78 79  1  0
 79 80  1  0
 77 81  1  0
 81 82  1  0
 74 83  1  0
 83 84  1  0
 70 85  1  0
 85 86  2  0
 86 87  1  0
 87 88  1  0
 88 89  1  0
 86 90  1  0
 90 91  1  0
 91 92  1  0
 92 93  1  0
 90 94  2  0
 94 95  1  0
 95 96  2  0
 96 97  1  0
 97 98  2  0
 98 99  1  0
 99100  2  0
 94101  1  0
101102  2  3
102103  1  0
103104  2  0
103105  1  0
105106  2  0
106107  1  0
107108  2  0
108109  1  0
109110  2  0
110111  1  0
110112  1  0
112113  2  0
113114  1  0
114115  2  0
115116  1  0
116117  2  3
117118  1  0
118119  3  0
117120  1  0
120121  3  0
 16  2  1  0
 35 22  1  0
 80 38  1  0
 96 85  1  0
116102  1  0
 15  5  1  0
 35 28  1  0
 47 40  1  0
 79 48  2  0
100 95  1  0
115105  1  0
 13  7  1  0
 78 50  2  0
113107  1  0
 76 51  2  0
 56 52  2  0
 75 57  2  0
 73 58  2  0
 72 60  2  0
 69 62  1  0
  1122  1  0
  6123  1  0
  8124  1  0
  9125  1  0
 12126  1  0
 14127  1  0
 31128  1  0
 31129  1  0
 32130  1  0
 32131  1  0
 32132  1  0
 36133  1  0
 36134  1  0
 37135  1  0
 37136  1  0
 37137  1  0
 41138  1  0
 42139  1  0
 43140  1  0
 45141  1  0
 45142  1  0
 46143  1  0
 46144  1  0
 46145  1  0
 47146  1  0
 63147  1  0
 64148  1  0
 65149  1  0
 67150  1  0
 67151  1  0
 68152  1  0
 68153  1  0
 68154  1  0
 69155  1  0
 81156  1  0
 81157  1  0
 82158  1  0
 82159  1  0
 82160  1  0
 83161  1  0
 83162  1  0
 84163  1  0
 84164  1  0
 84165  1  0
 88166  1  0
 88167  1  0
 89168  1  0
 89169  1  0
 89170  1  0
 92171  1  0
 92172  1  0
 93173  1  0
 93174  1  0
 93175  1  0
 98176  1  0
 99177  1  0
101178  1  0
106179  1  0
108180  1  0
109181  1  0
112182  1  0
114183  1  0
M  END

