
     RDKit          3D

170187  0  0  0  0  0  0  0  0999 V2000
    1.1083   -7.3749    5.9254 C   0  0  0  0  0  0  0  0  0  0  0  0
    2.0494   -7.2752    4.9518 C   0  0  0  0  0  0  0  0  0  0  0  0
    2.5483   -6.0002    4.4116 C   0  0  0  0  0  0  0  0  0  0  0  0
    2.1899   -4.8389    4.7495 O   0  0  0  0  0  0  0  0  0  0  0  0
    3.5558   -6.2680    3.4282 C   0  0  0  0  0  0  0  0  0  0  0  0
    4.2830   -5.3288    2.7081 C   0  0  0  0  0  0  0  0  0  0  0  0
    5.2693   -5.7811    1.8232 C   0  0  0  0  0  0  0  0  0  0  0  0
    6.0355   -4.8655    1.0865 C   0  0  0  0  0  0  0  0  0  0  0  0
    7.0249   -5.3210    0.2137 C   0  0  0  0  0  0  0  0  0  0  0  0
    7.2662   -6.6957    0.0820 C   0  0  0  0  0  0  0  0  0  0  0  0
    8.2484   -7.1221   -0.7540 F   0  0  0  0  0  0  0  0  0  0  0  0
    6.5107   -7.6239    0.8159 C   0  0  0  0  0  0  0  0  0  0  0  0
    5.5053   -7.1778    1.6881 C   0  0  0  0  0  0  0  0  0  0  0  0
    4.7416   -8.1077    2.4324 C   0  0  0  0  0  0  0  0  0  0  0  0
    3.7402   -7.6358    3.3021 C   0  0  0  0  0  0  0  0  0  0  0  0
    2.7954   -8.3609    4.2210 C   0  0  0  0  0  0  0  0  0  0  0  0
    2.6180   -9.7063    4.3051 C   0  0  0  0  0  0  0  0  0  0  0  0
    1.6729  -10.3219    5.1908 C   0  0  0  0  0  0  0  0  0  0  0  0
    0.9152  -10.8375    5.8977 N   0  0  0  0  0  0  0  0  0  0  0  0
    3.3255  -10.6411    3.4663 C   0  0  0  0  0  0  0  0  0  0  0  0
    3.8813  -11.4052    2.7951 N   0  0  0  0  0  0  0  0  0  0  0  0
    0.4817   -6.1720    6.5039 C   0  0  0  0  0  0  0  0  0  0  0  0
    1.1424   -5.5014    7.5465 C   0  0  0  0  0  0  0  0  0  0  0  0
    2.1045   -6.1434    8.2565 F   0  0  0  0  0  0  0  0  0  0  0  0
    0.9654   -4.1197    7.7272 C   0  0  0  0  0  0  0  0  0  0  0  0
    1.7571   -3.4809    8.6272 F   0  0  0  0  0  0  0  0  0  0  0  0
    0.1145   -3.3990    6.8678 C   0  0  0  0  0  0  0  0  0  0  0  0
   -0.6921   -4.1149    5.9552 C   0  0  0  0  0  0  0  0  0  0  0  0
   -1.5601   -3.4600    5.1391 N   0  0  0  0  0  0  0  0  0  0  0  0
   -2.2596   -4.0852    4.1564 C   0  0  0  0  0  0  0  0  0  0  0  0
   -3.1447   -3.2342    3.2859 C   0  0  0  0  0  0  0  0  0  0  0  0
   -4.5477   -3.1257    3.8740 C   0  0  0  0  0  0  0  0  0  0  0  0
   -2.1014   -5.4793    3.9925 C   0  0  0  0  0  0  0  0  0  0  0  0
   -1.2104   -6.1273    4.7916 N   0  0  0  0  0  0  0  0  0  0  0  0
   -0.5089   -5.4939    5.7690 C   0  0  0  0  0  0  0  0  0  0  0  0
   -2.8223   -6.2744    2.9414 C   0  0  0  0  0  0  0  0  0  0  0  0
   -2.0148   -6.3297    1.6443 C   0  0  0  0  0  0  0  0  0  0  0  0
    0.3696   -1.9699    6.5792 C   0  0  0  0  0  0  0  0  0  0  0  0
    0.0232   -0.8290    7.3344 C   0  0  0  0  0  0  0  0  0  0  0  0
    0.2921   -0.7317    8.7846 C   0  0  0  0  0  0  0  0  0  0  0  0
    1.6317   -0.7440    9.2014 C   0  0  0  0  0  0  0  0  0  0  0  0
    1.9741   -0.5460   10.5369 C   0  0  0  0  0  0  0  0  0  0  0  0
    0.9788   -0.2829   11.4760 C   0  0  0  0  0  0  0  0  0  0  0  0
   -0.3726   -0.2282   11.0813 C   0  0  0  0  0  0  0  0  0  0  0  0
   -1.4181    0.1627   12.1055 C   0  0  0  0  0  0  0  0  0  0  0  0
   -1.5847   -0.8983   13.1845 C   0  0  0  0  0  0  0  0  0  0  0  0
   -0.7174   -0.4562    9.7284 C   0  0  0  0  0  0  0  0  0  0  0  0
    0.1942    0.3318    6.5518 C   0  0  0  0  0  0  0  0  0  0  0  0
   -0.6197    1.8242    6.6307 S   0  0  0  0  0  0  0  0  0  0  0  0
   -0.1117    2.2348    5.0609 C   0  0  0  0  0  0  0  0  0  0  0  0
   -0.5081    3.0962    4.0820 C   0  0  0  0  0  0  0  0  0  0  0  0
   -1.6152    3.9601    4.0282 C   0  0  0  0  0  0  0  0  0  0  0  0
   -2.0152    4.4854    2.7623 C   0  0  0  0  0  0  0  0  0  0  0  0
   -3.1286    5.2598    2.7412 N   0  0  0  0  0  0  0  0  0  0  0  0
   -3.5335    5.2095    4.3489 S   0  0  0  0  0  0  0  0  0  0  0  0
   -2.3942    4.2692    5.0976 N   0  0  0  0  0  0  0  0  0  0  0  0
   -1.2534    4.1661    1.6328 C   0  0  0  0  0  0  0  0  0  0  0  0
   -1.4209    4.4656    0.3132 C   0  0  0  0  0  0  0  0  0  0  0  0
   -2.5928    5.1036   -0.7464 S   0  0  0  0  0  0  0  0  0  0  0  0
   -1.6160    4.7207   -2.1021 C   0  0  0  0  0  0  0  0  0  0  0  0
   -1.8289    4.7132   -3.4848 C   0  0  0  0  0  0  0  0  0  0  0  0
   -3.1025    5.0850   -4.1321 C   0  0  0  0  0  0  0  0  0  0  0  0
   -3.6796    6.3479   -3.9089 C   0  0  0  0  0  0  0  0  0  0  0  0
   -4.8398    6.7265   -4.5975 C   0  0  0  0  0  0  0  0  0  0  0  0
   -5.4345    5.8413   -5.5053 C   0  0  0  0  0  0  0  0  0  0  0  0
   -4.8781    4.5708   -5.7245 C   0  0  0  0  0  0  0  0  0  0  0  0
   -5.5296    3.5963   -6.6785 C   0  0  0  0  0  0  0  0  0  0  0  0
   -6.7684    2.9533   -6.0637 C   0  0  0  0  0  0  0  0  0  0  0  0
   -3.7130    4.2006   -5.0338 C   0  0  0  0  0  0  0  0  0  0  0  0
   -0.7431    4.1195   -4.1586 C   0  0  0  0  0  0  0  0  0  0  0  0
    0.4073    3.5686   -3.0298 S   0  0  0  0  0  0  0  0  0  0  0  0
   -0.4504    4.1175   -1.7096 C   0  0  0  0  0  0  0  0  0  0  0  0
   -0.3560    3.9669   -0.3375 C   0  0  0  0  0  0  0  0  0  0  0  0
    0.5218    3.3263    0.4627 N   0  0  0  0  0  0  0  0  0  0  0  0
   -0.0862    3.3811    1.6964 C   0  0  0  0  0  0  0  0  0  0  0  0
    0.2106    2.7190    2.9302 C   0  0  0  0  0  0  0  0  0  0  0  0
    0.9089    1.5493    3.1574 N   0  0  0  0  0  0  0  0  0  0  0  0
    0.6613    1.2786    4.4740 C   0  0  0  0  0  0  0  0  0  0  0  0
    0.7685    0.1525    5.3072 C   0  0  0  0  0  0  0  0  0  0  0  0
    0.8818   -1.4966    5.0380 S   0  0  0  0  0  0  0  0  0  0  0  0
    1.8237    0.9068    2.1966 C   0  0  0  0  0  0  0  0  0  0  0  0
    2.4289   -0.4211    2.5981 C   0  0  0  0  0  0  0  0  0  0  0  0
    1.9699    3.3354    0.1612 C   0  0  0  0  0  0  0  0  0  0  0  0
    2.7519    4.2309    1.1423 C   0  0  0  0  0  0  0  0  0  0  0  0
   -0.5453    4.0694   -5.6368 C   0  0  0  0  0  0  0  0  0  0  0  0
   -0.7662    5.2250   -6.4134 C   0  0  0  0  0  0  0  0  0  0  0  0
   -1.1200    6.3935   -5.8243 F   0  0  0  0  0  0  0  0  0  0  0  0
   -0.5469    5.2110   -7.7912 C   0  0  0  0  0  0  0  0  0  0  0  0
   -0.7496    6.3457   -8.5047 F   0  0  0  0  0  0  0  0  0  0  0  0
   -0.1191    4.0391   -8.4403 C   0  0  0  0  0  0  0  0  0  0  0  0
    0.1032    2.8778   -7.6761 C   0  0  0  0  0  0  0  0  0  0  0  0
    0.5176    1.7311   -8.2674 N   0  0  0  0  0  0  0  0  0  0  0  0
    0.7621    0.5960   -7.5673 C   0  0  0  0  0  0  0  0  0  0  0  0
    1.1461   -0.6447   -8.3362 C   0  0  0  0  0  0  0  0  0  0  0  0
    2.6612   -0.8180   -8.4096 C   0  0  0  0  0  0  0  0  0  0  0  0
    0.6354    0.6254   -6.1582 C   0  0  0  0  0  0  0  0  0  0  0  0
    0.1883    1.7701   -5.5668 N   0  0  0  0  0  0  0  0  0  0  0  0
   -0.0902    2.8937   -6.2800 C   0  0  0  0  0  0  0  0  0  0  0  0
    0.9230   -0.5661   -5.2705 C   0  0  0  0  0  0  0  0  0  0  0  0
    1.8281   -0.1778   -4.1063 C   0  0  0  0  0  0  0  0  0  0  0  0
    0.2495    4.1239   -9.8715 C   0  0  0  0  0  0  0  0  0  0  0  0
   -0.2408    3.3254  -10.8292 C   0  0  0  0  0  0  0  0  0  0  0  0
   -1.5681    2.1329  -10.5929 S   0  0  0  0  0  0  0  0  0  0  0  0
   -1.5334    1.8341  -12.3658 C   0  0  0  0  0  0  0  0  0  0  0  0
   -2.4432    0.6409  -13.0293 S   0  0  0  0  0  0  0  0  0  0  0  0
   -0.5433    2.5614  -13.1001 N   0  0  0  0  0  0  0  0  0  0  0  0
   -0.3889    2.5514  -14.5569 C   0  0  0  0  0  0  0  0  0  0  0  0
   -1.5024    3.3675  -15.2132 C   0  0  0  0  0  0  0  0  0  0  0  0
    0.1669    3.4317  -12.2285 C   0  0  0  0  0  0  0  0  0  0  0  0
    1.0622    4.2180  -12.6364 O   0  0  0  0  0  0  0  0  0  0  0  0
    0.7847   -8.3190    6.3250 H   0  0  0  0  0  0  0  0  0  0  0  0
    4.0912   -4.2742    2.8484 H   0  0  0  0  0  0  0  0  0  0  0  0
    5.8685   -3.7956    1.1841 H   0  0  0  0  0  0  0  0  0  0  0  0
    7.6168   -4.6075   -0.3447 H   0  0  0  0  0  0  0  0  0  0  0  0
    6.7259   -8.6748    0.7044 H   0  0  0  0  0  0  0  0  0  0  0  0
    4.9733   -9.1508    2.3444 H   0  0  0  0  0  0  0  0  0  0  0  0
   -3.1817   -3.6130    2.2425 H   0  0  0  0  0  0  0  0  0  0  0  0
   -2.7049   -2.2056    3.2347 H   0  0  0  0  0  0  0  0  0  0  0  0
   -5.0751   -2.2757    3.3951 H   0  0  0  0  0  0  0  0  0  0  0  0
   -4.5071   -2.9356    4.9645 H   0  0  0  0  0  0  0  0  0  0  0  0
   -5.1236   -4.0507    3.6798 H   0  0  0  0  0  0  0  0  0  0  0  0
   -3.8209   -5.8501    2.7328 H   0  0  0  0  0  0  0  0  0  0  0  0
   -2.9764   -7.3171    3.2972 H   0  0  0  0  0  0  0  0  0  0  0  0
   -2.5732   -6.9121    0.8704 H   0  0  0  0  0  0  0  0  0  0  0  0
   -1.0411   -6.8488    1.8201 H   0  0  0  0  0  0  0  0  0  0  0  0
   -1.8071   -5.2978    1.2604 H   0  0  0  0  0  0  0  0  0  0  0  0
    2.4319   -0.8977    8.4847 H   0  0  0  0  0  0  0  0  0  0  0  0
    3.0135   -0.5705   10.8397 H   0  0  0  0  0  0  0  0  0  0  0  0
    1.2742   -0.0767   12.5032 H   0  0  0  0  0  0  0  0  0  0  0  0
   -1.0905    1.1131   12.5870 H   0  0  0  0  0  0  0  0  0  0  0  0
   -2.4039    0.3502   11.6292 H   0  0  0  0  0  0  0  0  0  0  0  0
   -1.9924   -1.8315   12.7512 H   0  0  0  0  0  0  0  0  0  0  0  0
   -2.2845   -0.5374   13.9711 H   0  0  0  0  0  0  0  0  0  0  0  0
   -0.6134   -1.1168   13.6802 H   0  0  0  0  0  0  0  0  0  0  0  0
   -1.7539   -0.3979    9.4106 H   0  0  0  0  0  0  0  0  0  0  0  0
   -3.2292    7.0470   -3.2137 H   0  0  0  0  0  0  0  0  0  0  0  0
   -5.2739    7.7045   -4.4379 H   0  0  0  0  0  0  0  0  0  0  0  0
   -6.3384    6.1404   -6.0275 H   0  0  0  0  0  0  0  0  0  0  0  0
   -4.8099    2.7952   -6.9616 H   0  0  0  0  0  0  0  0  0  0  0  0
   -5.8096    4.1242   -7.6140 H   0  0  0  0  0  0  0  0  0  0  0  0
   -7.1028    2.1166   -6.7069 H   0  0  0  0  0  0  0  0  0  0  0  0
   -6.5437    2.5679   -5.0460 H   0  0  0  0  0  0  0  0  0  0  0  0
   -7.5873    3.6995   -5.9874 H   0  0  0  0  0  0  0  0  0  0  0  0
   -3.2744    3.2228   -5.1943 H   0  0  0  0  0  0  0  0  0  0  0  0
    2.6925    1.5744    2.0675 H   0  0  0  0  0  0  0  0  0  0  0  0
    1.2872    0.7656    1.2348 H   0  0  0  0  0  0  0  0  0  0  0  0
    2.8818   -0.3517    3.6092 H   0  0  0  0  0  0  0  0  0  0  0  0
    1.6696   -1.2249    2.5176 H   0  0  0  0  0  0  0  0  0  0  0  0
    3.2409   -0.6813    1.8957 H   0  0  0  0  0  0  0  0  0  0  0  0
    2.1423    3.7627   -0.8416 H   0  0  0  0  0  0  0  0  0  0  0  0
    2.3878    2.3228    0.0865 H   0  0  0  0  0  0  0  0  0  0  0  0
    2.7307    3.8337    2.1736 H   0  0  0  0  0  0  0  0  0  0  0  0
    2.3152    5.2522    1.1550 H   0  0  0  0  0  0  0  0  0  0  0  0
    3.8087    4.3018    0.8140 H   0  0  0  0  0  0  0  0  0  0  0  0
    0.7602   -0.5575   -9.3828 H   0  0  0  0  0  0  0  0  0  0  0  0
    0.6636   -1.5482   -7.9015 H   0  0  0  0  0  0  0  0  0  0  0  0
    3.1410   -0.6483   -7.4251 H   0  0  0  0  0  0  0  0  0  0  0  0
    2.9030   -1.8484   -8.7537 H   0  0  0  0  0  0  0  0  0  0  0  0
    3.0776   -0.1079   -9.1530 H   0  0  0  0  0  0  0  0  0  0  0  0
    1.4182   -1.3949   -5.8202 H   0  0  0  0  0  0  0  0  0  0  0  0
   -0.0488   -0.9478   -4.8775 H   0  0  0  0  0  0  0  0  0  0  0  0
    2.1623   -1.1008   -3.5876 H   0  0  0  0  0  0  0  0  0  0  0  0
    1.2790    0.4518   -3.3794 H   0  0  0  0  0  0  0  0  0  0  0  0
    2.7183    0.3661   -4.4797 H   0  0  0  0  0  0  0  0  0  0  0  0
    0.9573    4.9031  -10.1368 H   0  0  0  0  0  0  0  0  0  0  0  0
   -0.4188    1.5054  -14.9377 H   0  0  0  0  0  0  0  0  0  0  0  0
    0.5979    2.9787  -14.8386 H   0  0  0  0  0  0  0  0  0  0  0  0
   -1.2818    3.5044  -16.2952 H   0  0  0  0  0  0  0  0  0  0  0  0
   -2.4618    2.8250  -15.1240 H   0  0  0  0  0  0  0  0  0  0  0  0
   -1.5870    4.3672  -14.7294 H   0  0  0  0  0  0  0  0  0  0  0  0
  1  2  2  3
  2  3  1  0
  3  4  2  0
  3  5  1  0
  5  6  2  0
  6  7  1  0
  7  8  2  0
  8  9  1  0
  9 10  2  0
 10 11  1  0
 10 12  1  0
 12 13  2  0
 13 14  1  0
 14 15  2  0
 15 16  1  0
 16 17  2  3
 17 18  1  0
 18 19  3  0
 17 20  1  0
 20 21  3  0
  1 22  1  0
 22 23  2  0
 23 24  1  0
 23 25  1  0
 25 26  1  0
 25 27  2  0
 27 28  1  0
 28 29  2  0
 29 30  1  0
 30 31  1  0
 31 32  1  0
 30 33  2  0
 33 34  1  0
 34 35  2  0
 33 36  1  0
 36 37  1  0
 27 38  1  0
 38 39  2  0
 39 40  1  0
 40 41  2  0
 41 42  1  0
 42 43  2  0
 43 44  1  0
 44 45  1  0
 45 46  1  0
 44 47  2  0
 39 48  1  0
 48 49  1  0
 49 50  1  0
 50 51  1  0
 51 52  1  0
 52 53  1  0
 53 54  2  0
 54 55  1  0
 55 56  1  0
 53 57  1  0
 57 58  1  0
 58 59  1  0
 59 60  1  0
 60 61  1  0
 61 62  1  0
 62 63  2  0
 63 64  1  0
 64 65  2  0
 65 66  1  0
 66 67  1  0
 67 68  1  0
 66 69  2  0
 61 70  2  0
 70 71  1  0
 71 72  1  0
 72 73  1  0
 73 74  1  0
 74 75  1  0
 75 76  1  0
 76 77  1  0
 77 78  1  0
 78 79  1  0
 79 80  1  0
 77 81  1  0
 81 82  1  0
 74 83  1  0
 83 84  1  0
 70 85  1  0
 85 86  2  0
 86 87  1  0
 86 88  1  0
 88 89  1  0
 88 90  2  0
 90 91  1  0
 91 92  2  0
 92 93  1  0
 93 94  1  0
 94 95  1  0
 93 96  2  0
 96 97  1  0
 97 98  2  0
 96 99  1  0
 99100  1  0
 90101  1  0
101102  2  3
102103  1  0
103104  1  0
104105  2  0
104106  1  0
106107  1  0
107108  1  0
106109  1  0
109110  2  0
 16  2  1  0
 35 22  1  0
 80 38  1  0
 98 85  1  0
109102  1  0
 15  5  1  0
 35 28  1  0
 47 40  1  0
 79 48  2  0
 98 91  1  0
 13  7  1  0
 78 50  2  0
 76 51  2  0
 56 52  2  0
 75 57  2  0
 73 58  2  0
 72 60  2  0
 69 62  1  0
  1111  1  0
  6112  1  0
  8113  1  0
  9114  1  0
 12115  1  0
 14116  1  0
 31117  1  0
 31118  1  0
 32119  1  0
 32120  1  0
 32121  1  0
 36122  1  0
 36123  1  0
 37124  1  0
 37125  1  0
 37126  1  0
 41127  1  0
 42128  1  0
 43129  1  0
 45130  1  0
 45131  1  0
 46132  1  0
 46133  1  0
 46134  1  0
 47135  1  0
 63136  1  0
 64137  1  0
 65138  1  0
 67139  1  0
 67140  1  0
 68141  1  0
 68142  1  0
 68143  1  0
 69144  1  0
 81145  1  0
 81146  1  0
 82147  1  0
 82148  1  0
 82149  1  0
 83150  1  0
 83151  1  0
 84152  1  0
 84153  1  0
 84154  1  0
 94155  1  0
 94156  1  0
 95157  1  0
 95158  1  0
 95159  1  0
 99160  1  0
 99161  1  0
100162  1  0
100163  1  0
100164  1  0
101165  1  0
107166  1  0
107167  1  0
108168  1  0
108169  1  0
108170  1  0
M  END

