
     RDKit          3D

210230  0  0  0  0  0  0  0  0999 V2000
  -10.2856   -3.3668   -4.1898 C   0  0  0  0  0  0  0  0  0  0  0  0
   -9.4551   -3.5173   -5.2443 C   0  0  0  0  0  0  0  0  0  0  0  0
   -7.9908   -3.3875   -5.2351 C   0  0  0  0  0  0  0  0  0  0  0  0
   -7.2828   -2.9035   -4.3114 O   0  0  0  0  0  0  0  0  0  0  0  0
   -7.4782   -3.9684   -6.4593 C   0  0  0  0  0  0  0  0  0  0  0  0
   -6.1493   -4.1420   -6.8475 C   0  0  0  0  0  0  0  0  0  0  0  0
   -5.8805   -4.8770   -8.0196 C   0  0  0  0  0  0  0  0  0  0  0  0
   -4.5607   -5.0661   -8.4600 C   0  0  0  0  0  0  0  0  0  0  0  0
   -4.3038   -5.8451   -9.5936 C   0  0  0  0  0  0  0  0  0  0  0  0
   -5.3597   -6.4268  -10.3047 C   0  0  0  0  0  0  0  0  0  0  0  0
   -5.0975   -7.1571  -11.4207 F   0  0  0  0  0  0  0  0  0  0  0  0
   -6.6752   -6.2457   -9.8834 C   0  0  0  0  0  0  0  0  0  0  0  0
   -6.9537   -5.4618   -8.7505 C   0  0  0  0  0  0  0  0  0  0  0  0
   -8.2839   -5.2501   -8.3448 C   0  0  0  0  0  0  0  0  0  0  0  0
   -8.5303   -4.4457   -7.2184 C   0  0  0  0  0  0  0  0  0  0  0  0
   -9.8207   -4.0613   -6.5862 C   0  0  0  0  0  0  0  0  0  0  0  0
  -11.0200   -3.9306   -7.2145 C   0  0  0  0  0  0  0  0  0  0  0  0
  -12.1446   -3.2714   -6.6015 C   0  0  0  0  0  0  0  0  0  0  0  0
  -13.0461   -2.7446   -6.1043 N   0  0  0  0  0  0  0  0  0  0  0  0
  -11.2227   -4.3242   -8.5802 C   0  0  0  0  0  0  0  0  0  0  0  0
  -11.4068   -4.6300   -9.6823 N   0  0  0  0  0  0  0  0  0  0  0  0
   -9.8292   -2.9792   -2.8379 C   0  0  0  0  0  0  0  0  0  0  0  0
   -9.2915   -1.6948   -2.5501 C   0  0  0  0  0  0  0  0  0  0  0  0
   -9.3416   -0.6346   -3.4759 O   0  0  0  0  0  0  0  0  0  0  0  0
  -10.4122   -0.3152   -4.3709 C   0  0  0  0  0  0  0  0  0  0  0  0
  -11.7604   -0.2605   -3.6568 C   0  0  0  0  0  0  0  0  0  0  0  0
   -8.6207   -1.4785   -1.3228 C   0  0  0  0  0  0  0  0  0  0  0  0
   -8.0099   -0.2459   -1.0287 O   0  0  0  0  0  0  0  0  0  0  0  0
   -8.5958    1.0350   -1.2821 C   0  0  0  0  0  0  0  0  0  0  0  0
   -7.7655    1.8122   -2.2932 C   0  0  0  0  0  0  0  0  0  0  0  0
   -8.5127   -2.5214   -0.3774 C   0  0  0  0  0  0  0  0  0  0  0  0
   -9.1727   -3.7391   -0.6133 C   0  0  0  0  0  0  0  0  0  0  0  0
   -9.8400   -3.9617   -1.8321 C   0  0  0  0  0  0  0  0  0  0  0  0
  -10.4542   -5.1614   -2.0342 N   0  0  0  0  0  0  0  0  0  0  0  0
  -10.4536   -6.1354   -1.0867 C   0  0  0  0  0  0  0  0  0  0  0  0
   -9.7876   -5.9132    0.1193 C   0  0  0  0  0  0  0  0  0  0  0  0
   -9.1548   -4.7288    0.3282 N   0  0  0  0  0  0  0  0  0  0  0  0
   -7.5491   -2.4439    0.7450 C   0  0  0  0  0  0  0  0  0  0  0  0
   -7.5399   -1.5729    1.8569 C   0  0  0  0  0  0  0  0  0  0  0  0
   -8.4066   -0.3861    2.0165 C   0  0  0  0  0  0  0  0  0  0  0  0
   -9.8053   -0.4960    2.0131 C   0  0  0  0  0  0  0  0  0  0  0  0
  -10.5955    0.6461    2.1982 C   0  0  0  0  0  0  0  0  0  0  0  0
   -9.9975    1.8994    2.3870 C   0  0  0  0  0  0  0  0  0  0  0  0
   -8.6003    2.0167    2.3906 C   0  0  0  0  0  0  0  0  0  0  0  0
   -7.9292    3.3595    2.5575 C   0  0  0  0  0  0  0  0  0  0  0  0
   -7.3916    3.8783    1.2242 C   0  0  0  0  0  0  0  0  0  0  0  0
   -7.8159    0.8769    2.1843 C   0  0  0  0  0  0  0  0  0  0  0  0
   -6.3902   -1.7824    2.6331 C   0  0  0  0  0  0  0  0  0  0  0  0
   -5.6999   -0.8776    3.8882 S   0  0  0  0  0  0  0  0  0  0  0  0
   -4.1878   -1.6167    3.7106 C   0  0  0  0  0  0  0  0  0  0  0  0
   -2.9524   -1.0240    3.7075 C   0  0  0  0  0  0  0  0  0  0  0  0
   -2.6585    0.3145    4.0357 C   0  0  0  0  0  0  0  0  0  0  0  0
   -1.5542    0.9633    3.3990 C   0  0  0  0  0  0  0  0  0  0  0  0
   -1.3871    2.2788    3.6493 N   0  0  0  0  0  0  0  0  0  0  0  0
   -2.6621    2.5443    4.6720 S   0  0  0  0  0  0  0  0  0  0  0  0
   -3.4397    1.0932    4.8293 N   0  0  0  0  0  0  0  0  0  0  0  0
   -0.7564    0.2123    2.5441 C   0  0  0  0  0  0  0  0  0  0  0  0
    0.3161    0.5370    1.7743 C   0  0  0  0  0  0  0  0  0  0  0  0
    1.1699    1.9090    1.2671 S   0  0  0  0  0  0  0  0  0  0  0  0
    2.1892    0.9187    0.3113 C   0  0  0  0  0  0  0  0  0  0  0  0
    3.2672    1.1842   -0.5167 C   0  0  0  0  0  0  0  0  0  0  0  0
    3.7150    2.5385   -0.8954 C   0  0  0  0  0  0  0  0  0  0  0  0
    3.9379    3.5284    0.0713 C   0  0  0  0  0  0  0  0  0  0  0  0
    4.3487    4.8060   -0.3142 C   0  0  0  0  0  0  0  0  0  0  0  0
    4.5248    5.1048   -1.6705 C   0  0  0  0  0  0  0  0  0  0  0  0
    4.2946    4.1272   -2.6527 C   0  0  0  0  0  0  0  0  0  0  0  0
    4.3974    4.4557   -4.1167 C   0  0  0  0  0  0  0  0  0  0  0  0
    3.0053    4.5740   -4.7403 C   0  0  0  0  0  0  0  0  0  0  0  0
    3.9022    2.8409   -2.2525 C   0  0  0  0  0  0  0  0  0  0  0  0
    3.8506   -0.0060   -0.9925 C   0  0  0  0  0  0  0  0  0  0  0  0
    2.9652   -1.3581   -0.4397 S   0  0  0  0  0  0  0  0  0  0  0  0
    1.8699   -0.4122    0.4167 C   0  0  0  0  0  0  0  0  0  0  0  0
    0.7721   -0.6145    1.2207 C   0  0  0  0  0  0  0  0  0  0  0  0
    0.0247   -1.6843    1.5541 N   0  0  0  0  0  0  0  0  0  0  0  0
   -0.9772   -1.1482    2.3160 C   0  0  0  0  0  0  0  0  0  0  0  0
   -2.1883   -1.7346    2.7610 C   0  0  0  0  0  0  0  0  0  0  0  0
   -2.9726   -2.6361    2.0787 N   0  0  0  0  0  0  0  0  0  0  0  0
   -4.1895   -2.5450    2.6926 C   0  0  0  0  0  0  0  0  0  0  0  0
   -5.4719   -2.6639    2.1232 C   0  0  0  0  0  0  0  0  0  0  0  0
   -6.0974   -3.3251    0.7192 S   0  0  0  0  0  0  0  0  0  0  0  0
   -2.8145   -3.0071    0.6613 C   0  0  0  0  0  0  0  0  0  0  0  0
   -2.9095   -4.5232    0.4669 C   0  0  0  0  0  0  0  0  0  0  0  0
    0.4181   -3.0904    1.4315 C   0  0  0  0  0  0  0  0  0  0  0  0
    1.6208   -3.3873    2.3245 C   0  0  0  0  0  0  0  0  0  0  0  0
    5.2604   -0.0554   -1.4457 C   0  0  0  0  0  0  0  0  0  0  0  0
    6.2371    0.5200   -0.6161 C   0  0  0  0  0  0  0  0  0  0  0  0
    5.9357    0.8155    0.6691 N   0  0  0  0  0  0  0  0  0  0  0  0
    6.7530    1.5415    1.4618 C   0  0  0  0  0  0  0  0  0  0  0  0
    6.2348    1.9318    2.7841 C   0  0  0  0  0  0  0  0  0  0  0  0
    6.0097    3.2775    3.0899 C   0  0  0  0  0  0  0  0  0  0  0  0
    5.3415    3.6310    4.2598 C   0  0  0  0  0  0  0  0  0  0  0  0
    4.8949    2.6397    5.1566 C   0  0  0  0  0  0  0  0  0  0  0  0
    4.1685    2.9518    6.3196 O   0  0  0  0  0  0  0  0  0  0  0  0
    3.5262    4.2039    6.5750 C   0  0  0  0  0  0  0  0  0  0  0  0
    2.3211    4.3932    5.6558 C   0  0  0  0  0  0  0  0  0  0  0  0
    5.1769    1.2897    4.8882 C   0  0  0  0  0  0  0  0  0  0  0  0
    5.8336    0.9406    3.6892 C   0  0  0  0  0  0  0  0  0  0  0  0
    4.7749    0.3330    5.8380 O   0  0  0  0  0  0  0  0  0  0  0  0
    4.9827   -1.0819    5.7469 C   0  0  0  0  0  0  0  0  0  0  0  0
    3.9465   -1.7322    4.8371 C   0  0  0  0  0  0  0  0  0  0  0  0
    7.9796    2.0065    0.9266 C   0  0  0  0  0  0  0  0  0  0  0  0
    8.8826    2.8849    1.7039 C   0  0  0  0  0  0  0  0  0  0  0  0
    9.2613    4.1340    1.1987 C   0  0  0  0  0  0  0  0  0  0  0  0
   10.0201    5.0111    1.9797 C   0  0  0  0  0  0  0  0  0  0  0  0
   10.4039    4.6485    3.2855 C   0  0  0  0  0  0  0  0  0  0  0  0
   11.1285    5.5114    4.1123 O   0  0  0  0  0  0  0  0  0  0  0  0
   11.1494    6.9341    3.9818 C   0  0  0  0  0  0  0  0  0  0  0  0
   11.9175    7.5230    5.1487 C   0  0  0  0  0  0  0  0  0  0  0  0
   10.0458    3.3903    3.7925 C   0  0  0  0  0  0  0  0  0  0  0  0
   10.4336    3.0786    5.1074 O   0  0  0  0  0  0  0  0  0  0  0  0
   10.1973    1.8426    5.7825 C   0  0  0  0  0  0  0  0  0  0  0  0
   11.1427    0.7592    5.2755 C   0  0  0  0  0  0  0  0  0  0  0  0
    9.2890    2.5126    2.9974 C   0  0  0  0  0  0  0  0  0  0  0  0
    8.3043    1.6755   -0.3560 N   0  0  0  0  0  0  0  0  0  0  0  0
    7.4739    0.9291   -1.1393 C   0  0  0  0  0  0  0  0  0  0  0  0
    7.7966    0.6271   -2.4758 C   0  0  0  0  0  0  0  0  0  0  0  0
    6.8482   -0.0428   -3.2781 C   0  0  0  0  0  0  0  0  0  0  0  0
    5.5832   -0.3682   -2.7685 C   0  0  0  0  0  0  0  0  0  0  0  0
    4.6381   -0.8995   -3.5928 F   0  0  0  0  0  0  0  0  0  0  0  0
    7.1076   -0.2879   -4.5879 F   0  0  0  0  0  0  0  0  0  0  0  0
    9.0259    1.1964   -3.0716 C   0  0  0  0  0  0  0  0  0  0  0  0
    9.9842    0.4819   -3.6908 C   0  0  0  0  0  0  0  0  0  0  0  0
   10.0211   -0.9986   -3.8110 C   0  0  0  0  0  0  0  0  0  0  0  0
    9.2782   -1.8203   -3.2149 O   0  0  0  0  0  0  0  0  0  0  0  0
   11.1522   -1.3434   -4.6374 C   0  0  0  0  0  0  0  0  0  0  0  0
   11.7698   -2.5414   -4.9940 C   0  0  0  0  0  0  0  0  0  0  0  0
   12.9674   -2.2915   -5.6705 C   0  0  0  0  0  0  0  0  0  0  0  0
   14.0864   -3.5194   -6.2221 Cl  0  0  0  0  0  0  0  0  0  0  0  0
   13.2430   -0.6155   -5.7807 S   0  0  0  0  0  0  0  0  0  0  0  0
   11.8072   -0.2145   -4.9989 C   0  0  0  0  0  0  0  0  0  0  0  0
   11.1919    1.0017   -4.4385 C   0  0  0  0  0  0  0  0  0  0  0  0
   11.6591    2.2621   -4.5883 C   0  0  0  0  0  0  0  0  0  0  0  0
   11.0733    3.4074   -3.9349 C   0  0  0  0  0  0  0  0  0  0  0  0
   10.6104    4.3315   -3.4123 N   0  0  0  0  0  0  0  0  0  0  0  0
   12.7996    2.5476   -5.4231 C   0  0  0  0  0  0  0  0  0  0  0  0
   13.6993    2.7940   -6.1061 N   0  0  0  0  0  0  0  0  0  0  0  0
  -11.3077   -3.7132   -4.2541 H   0  0  0  0  0  0  0  0  0  0  0  0
   -5.3461   -3.7200   -6.2498 H   0  0  0  0  0  0  0  0  0  0  0  0
   -3.7291   -4.6234   -7.9290 H   0  0  0  0  0  0  0  0  0  0  0  0
   -3.2840   -5.9817   -9.9312 H   0  0  0  0  0  0  0  0  0  0  0  0
   -7.4866   -6.7054  -10.4432 H   0  0  0  0  0  0  0  0  0  0  0  0
   -9.0952   -5.7240   -8.8784 H   0  0  0  0  0  0  0  0  0  0  0  0
  -10.2040    0.6860   -4.8023 H   0  0  0  0  0  0  0  0  0  0  0  0
  -10.4452   -1.0203   -5.2265 H   0  0  0  0  0  0  0  0  0  0  0  0
  -11.7175    0.4343   -2.7902 H   0  0  0  0  0  0  0  0  0  0  0  0
  -12.0492   -1.2711   -3.2999 H   0  0  0  0  0  0  0  0  0  0  0  0
  -12.5337    0.1044   -4.3615 H   0  0  0  0  0  0  0  0  0  0  0  0
   -9.6513    0.9464   -1.6231 H   0  0  0  0  0  0  0  0  0  0  0  0
   -8.6218    1.6090   -0.3377 H   0  0  0  0  0  0  0  0  0  0  0  0
   -6.7361    1.9625   -1.9021 H   0  0  0  0  0  0  0  0  0  0  0  0
   -8.2310    2.8077   -2.4654 H   0  0  0  0  0  0  0  0  0  0  0  0
   -7.7161    1.2766   -3.2647 H   0  0  0  0  0  0  0  0  0  0  0  0
  -10.9597   -7.0724   -1.2672 H   0  0  0  0  0  0  0  0  0  0  0  0
   -9.7811   -6.6749    0.8843 H   0  0  0  0  0  0  0  0  0  0  0  0
  -10.2767   -1.4581    1.8828 H   0  0  0  0  0  0  0  0  0  0  0  0
  -11.6767    0.5611    2.2140 H   0  0  0  0  0  0  0  0  0  0  0  0
  -10.6242    2.7721    2.5263 H   0  0  0  0  0  0  0  0  0  0  0  0
   -8.6391    4.1035    2.9814 H   0  0  0  0  0  0  0  0  0  0  0  0
   -7.0834    3.2606    3.2728 H   0  0  0  0  0  0  0  0  0  0  0  0
   -6.8711    4.8439    1.3859 H   0  0  0  0  0  0  0  0  0  0  0  0
   -8.2258    4.0369    0.5060 H   0  0  0  0  0  0  0  0  0  0  0  0
   -6.6687    3.1564    0.7827 H   0  0  0  0  0  0  0  0  0  0  0  0
   -6.7395    0.9872    2.1306 H   0  0  0  0  0  0  0  0  0  0  0  0
    3.8068    3.3082    1.1230 H   0  0  0  0  0  0  0  0  0  0  0  0
    4.5205    5.5670    0.4335 H   0  0  0  0  0  0  0  0  0  0  0  0
    4.8210    6.1078   -1.9519 H   0  0  0  0  0  0  0  0  0  0  0  0
    4.9678    3.6612   -4.6417 H   0  0  0  0  0  0  0  0  0  0  0  0
    4.9430    5.4126   -4.2616 H   0  0  0  0  0  0  0  0  0  0  0  0
    2.4627    3.6073   -4.6794 H   0  0  0  0  0  0  0  0  0  0  0  0
    2.4142    5.3605   -4.2230 H   0  0  0  0  0  0  0  0  0  0  0  0
    3.1012    4.8452   -5.8141 H   0  0  0  0  0  0  0  0  0  0  0  0
    3.7105    2.0833   -3.0061 H   0  0  0  0  0  0  0  0  0  0  0  0
   -1.8668   -2.6436    0.2306 H   0  0  0  0  0  0  0  0  0  0  0  0
   -3.5890   -2.4949    0.0519 H   0  0  0  0  0  0  0  0  0  0  0  0
   -3.0044   -4.7415   -0.6126 H   0  0  0  0  0  0  0  0  0  0  0  0
   -3.7983   -4.9281    0.9949 H   0  0  0  0  0  0  0  0  0  0  0  0
   -2.0083   -5.0305    0.8614 H   0  0  0  0  0  0  0  0  0  0  0  0
    0.6627   -3.3218    0.3734 H   0  0  0  0  0  0  0  0  0  0  0  0
   -0.4045   -3.7471    1.7650 H   0  0  0  0  0  0  0  0  0  0  0  0
    1.9026   -4.4576    2.2149 H   0  0  0  0  0  0  0  0  0  0  0  0
    2.4912   -2.7734    2.0281 H   0  0  0  0  0  0  0  0  0  0  0  0
    1.3678   -3.1802    3.3860 H   0  0  0  0  0  0  0  0  0  0  0  0
    6.3042    4.0529    2.3899 H   0  0  0  0  0  0  0  0  0  0  0  0
    5.1485    4.6784    4.4421 H   0  0  0  0  0  0  0  0  0  0  0  0
    4.2463    5.0425    6.4636 H   0  0  0  0  0  0  0  0  0  0  0  0
    3.1669    4.2001    7.6264 H   0  0  0  0  0  0  0  0  0  0  0  0
    2.6095    4.2868    4.5889 H   0  0  0  0  0  0  0  0  0  0  0  0
    1.5411    3.6356    5.8916 H   0  0  0  0  0  0  0  0  0  0  0  0
    1.8935    5.4026    5.8061 H   0  0  0  0  0  0  0  0  0  0  0  0
    6.0102   -0.0973    3.4397 H   0  0  0  0  0  0  0  0  0  0  0  0
    6.0141   -1.3045    5.4036 H   0  0  0  0  0  0  0  0  0  0  0  0
    4.8666   -1.5114    6.7637 H   0  0  0  0  0  0  0  0  0  0  0  0
    2.9259   -1.5416    5.2324 H   0  0  0  0  0  0  0  0  0  0  0  0
    4.1148   -2.8310    4.7972 H   0  0  0  0  0  0  0  0  0  0  0  0
    4.0075   -1.3207    3.8069 H   0  0  0  0  0  0  0  0  0  0  0  0
    8.9413    4.4457    0.2140 H   0  0  0  0  0  0  0  0  0  0  0  0
   10.2955    5.9760    1.5664 H   0  0  0  0  0  0  0  0  0  0  0  0
   10.1061    7.3192    3.9920 H   0  0  0  0  0  0  0  0  0  0  0  0
   11.6453    7.2286    3.0300 H   0  0  0  0  0  0  0  0  0  0  0  0
   11.6443    7.0115    6.0975 H   0  0  0  0  0  0  0  0  0  0  0  0
   11.6965    8.6079    5.2431 H   0  0  0  0  0  0  0  0  0  0  0  0
   13.0084    7.3919    4.9706 H   0  0  0  0  0  0  0  0  0  0  0  0
    9.1349    1.5308    5.6876 H   0  0  0  0  0  0  0  0  0  0  0  0
   10.3977    2.0028    6.8646 H   0  0  0  0  0  0  0  0  0  0  0  0
   10.7782    0.3494    4.3108 H   0  0  0  0  0  0  0  0  0  0  0  0
   12.1618    1.1783    5.1272 H   0  0  0  0  0  0  0  0  0  0  0  0
   11.1951   -0.0656    6.0138 H   0  0  0  0  0  0  0  0  0  0  0  0
    8.9761    1.5526    3.3800 H   0  0  0  0  0  0  0  0  0  0  0  0
    9.1121    2.2612   -2.9829 H   0  0  0  0  0  0  0  0  0  0  0  0
   11.4018   -3.5229   -4.7332 H   0  0  0  0  0  0  0  0  0  0  0  0
  1  2  2  3
  2  3  1  0
  3  4  2  0
  3  5  1  0
  5  6  2  0
  6  7  1  0
  7  8  2  0
  8  9  1  0
  9 10  2  0
 10 11  1  0
 10 12  1  0
 12 13  2  0
 13 14  1  0
 14 15  2  0
 15 16  1  0
 16 17  2  3
 17 18  1  0
 18 19  3  0
 17 20  1  0
 20 21  3  0
  1 22  1  0
 22 23  2  0
 23 24  1  0
 24 25  1  0
 25 26  1  0
 23 27  1  0
 27 28  1  0
 28 29  1  0
 29 30  1  0
 27 31  2  0
 31 32  1  0
 32 33  2  0
 33 34  1  0
 34 35  2  0
 35 36  1  0
 36 37  2  0
 31 38  1  0
 38 39  2  0
 39 40  1  0
 40 41  2  0
 41 42  1  0
 42 43  2  0
 43 44  1  0
 44 45  1  0
 45 46  1  0
 44 47  2  0
 39 48  1  0
 48 49  1  0
 49 50  1  0
 50 51  1  0
 51 52  1  0
 52 53  1  0
 53 54  2  0
 54 55  1  0
 55 56  1  0
 53 57  1  0
 57 58  1  0
 58 59  1  0
 59 60  1  0
 60 61  1  0
 61 62  1  0
 62 63  2  0
 63 64  1  0
 64 65  2  0
 65 66  1  0
 66 67  1  0
 67 68  1  0
 66 69  2  0
 61 70  2  0
 70 71  1  0
 71 72  1  0
 72 73  1  0
 73 74  1  0
 74 75  1  0
 75 76  1  0
 76 77  1  0
 77 78  1  0
 78 79  1  0
 79 80  1  0
 77 81  1  0
 81 82  1  0
 74 83  1  0
 83 84  1  0
 70 85  1  0
 85 86  1  0
 86 87  2  0
 87 88  1  0
 88 89  1  0
 89 90  2  0
 90 91  1  0
 91 92  2  0
 92 93  1  0
 93 94  1  0
 94 95  1  0
 92 96  1  0
 96 97  2  0
 96 98  1  0
 98 99  1  0
 99100  1  0
 88101  2  0
101102  1  0
102103  2  0
103104  1  0
104105  2  0
105106  1  0
106107  1  0
107108  1  0
105109  1  0
109110  1  0
110111  1  0
111112  1  0
109113  2  0
101114  1  0
114115  2  0
115116  1  0
116117  2  0
117118  1  0
118119  1  0
117120  1  0
116121  1  0
121122  2  3
122123  1  0
123124  2  0
123125  1  0
125126  1  0
126127  2  0
127128  1  0
127129  1  0
129130  1  0
130131  1  0
131132  2  3
132133  1  0
133134  3  0
132135  1  0
135136  3  0
 16  2  1  0
 33 22  1  0
 80 38  1  0
118 85  2  0
131122  1  0
 15  5  1  0
 37 32  1  0
 47 40  1  0
 79 48  2  0
115 86  1  0
130125  2  0
 13  7  1  0
 78 50  2  0
 97 89  1  0
113102  1  0
 76 51  2  0
 56 52  2  0
 75 57  2  0
 73 58  2  0
 72 60  2  0
 69 62  1  0
  1137  1  0
  6138  1  0
  8139  1  0
  9140  1  0
 12141  1  0
 14142  1  0
 25143  1  0
 25144  1  0
 26145  1  0
 26146  1  0
 26147  1  0
 29148  1  0
 29149  1  0
 30150  1  0
 30151  1  0
 30152  1  0
 35153  1  0
 36154  1  0
 41155  1  0
 42156  1  0
 43157  1  0
 45158  1  0
 45159  1  0
 46160  1  0
 46161  1  0
 46162  1  0
 47163  1  0
 63164  1  0
 64165  1  0
 65166  1  0
 67167  1  0
 67168  1  0
 68169  1  0
 68170  1  0
 68171  1  0
 69172  1  0
 81173  1  0
 81174  1  0
 82175  1  0
 82176  1  0
 82177  1  0
 83178  1  0
 83179  1  0
 84180  1  0
 84181  1  0
 84182  1  0
 90183  1  0
 91184  1  0
 94185  1  0
 94186  1  0
 95187  1  0
 95188  1  0
 95189  1  0
 97190  1  0
 99191  1  0
 99192  1  0
100193  1  0
100194  1  0
100195  1  0
103196  1  0
104197  1  0
107198  1  0
107199  1  0
108200  1  0
108201  1  0
108202  1  0
111203  1  0
111204  1  0
112205  1  0
112206  1  0
112207  1  0
113208  1  0
121209  1  0
126210  1  0
M  END

