
     RDKit          3D

185204  0  0  0  0  0  0  0  0999 V2000
    3.5072    1.7007   -9.3244 C   0  0  0  0  0  0  0  0  0  0  0  0
    4.1061    2.4468   -8.3716 C   0  0  0  0  0  0  0  0  0  0  0  0
    3.6377    2.5865   -6.9812 C   0  0  0  0  0  0  0  0  0  0  0  0
    2.9460    1.7579   -6.3364 O   0  0  0  0  0  0  0  0  0  0  0  0
    4.0809    3.8689   -6.4810 C   0  0  0  0  0  0  0  0  0  0  0  0
    3.6646    4.5213   -5.3236 C   0  0  0  0  0  0  0  0  0  0  0  0
    4.0631    5.8584   -5.1302 C   0  0  0  0  0  0  0  0  0  0  0  0
    3.6451    6.5655   -3.9930 C   0  0  0  0  0  0  0  0  0  0  0  0
    4.0100    7.9040   -3.8301 C   0  0  0  0  0  0  0  0  0  0  0  0
    4.7899    8.5471   -4.7943 C   0  0  0  0  0  0  0  0  0  0  0  0
    5.1326    9.8492   -4.6261 F   0  0  0  0  0  0  0  0  0  0  0  0
    5.2220    7.8544   -5.9275 C   0  0  0  0  0  0  0  0  0  0  0  0
    4.8649    6.5098   -6.1107 C   0  0  0  0  0  0  0  0  0  0  0  0
    5.2660    5.8164   -7.2703 C   0  0  0  0  0  0  0  0  0  0  0  0
    4.8810    4.4782   -7.4294 C   0  0  0  0  0  0  0  0  0  0  0  0
    5.0625    3.5669   -8.5931 C   0  0  0  0  0  0  0  0  0  0  0  0
    6.0764    3.5889   -9.4890 C   0  0  0  0  0  0  0  0  0  0  0  0
    6.3001    2.5082  -10.4121 C   0  0  0  0  0  0  0  0  0  0  0  0
    6.5036    1.6351  -11.1470 N   0  0  0  0  0  0  0  0  0  0  0  0
    7.1096    4.5910   -9.4472 C   0  0  0  0  0  0  0  0  0  0  0  0
    7.9616    5.3755   -9.4090 N   0  0  0  0  0  0  0  0  0  0  0  0
    2.3216    0.8756   -9.0045 C   0  0  0  0  0  0  0  0  0  0  0  0
    2.4822   -0.4660   -8.5907 C   0  0  0  0  0  0  0  0  0  0  0  0
    3.6118   -1.2102   -8.9536 O   0  0  0  0  0  0  0  0  0  0  0  0
    4.1081   -1.2905  -10.2833 C   0  0  0  0  0  0  0  0  0  0  0  0
    5.2122   -2.3350  -10.3531 C   0  0  0  0  0  0  0  0  0  0  0  0
    1.5109   -1.0499   -7.7516 C   0  0  0  0  0  0  0  0  0  0  0  0
    1.7472   -2.2877   -7.1371 O   0  0  0  0  0  0  0  0  0  0  0  0
    2.8889   -2.5344   -6.3216 C   0  0  0  0  0  0  0  0  0  0  0  0
    2.7689   -3.8953   -5.6604 C   0  0  0  0  0  0  0  0  0  0  0  0
    0.3120   -0.3661   -7.4667 C   0  0  0  0  0  0  0  0  0  0  0  0
    0.0996    0.9148   -7.9968 C   0  0  0  0  0  0  0  0  0  0  0  0
    1.1013    1.5294   -8.7735 C   0  0  0  0  0  0  0  0  0  0  0  0
    0.9105    2.8071   -9.1988 N   0  0  0  0  0  0  0  0  0  0  0  0
   -0.2257    3.4962   -8.9100 C   0  0  0  0  0  0  0  0  0  0  0  0
   -1.2037    2.8973   -8.1229 C   0  0  0  0  0  0  0  0  0  0  0  0
   -1.0161    1.6282   -7.6744 N   0  0  0  0  0  0  0  0  0  0  0  0
   -0.5273   -0.8311   -6.3496 C   0  0  0  0  0  0  0  0  0  0  0  0
   -1.7479   -1.5387   -6.4032 C   0  0  0  0  0  0  0  0  0  0  0  0
   -2.4386   -1.9883   -7.6273 C   0  0  0  0  0  0  0  0  0  0  0  0
   -2.9227   -1.0597   -8.5611 C   0  0  0  0  0  0  0  0  0  0  0  0
   -3.6220   -1.4924   -9.6864 C   0  0  0  0  0  0  0  0  0  0  0  0
   -3.8515   -2.8564   -9.8875 C   0  0  0  0  0  0  0  0  0  0  0  0
   -3.3867   -3.7978   -8.9569 C   0  0  0  0  0  0  0  0  0  0  0  0
   -3.5914   -5.2684   -9.1982 C   0  0  0  0  0  0  0  0  0  0  0  0
   -2.4003   -5.8604   -9.9462 C   0  0  0  0  0  0  0  0  0  0  0  0
   -2.6775   -3.3586   -7.8283 C   0  0  0  0  0  0  0  0  0  0  0  0
   -2.2446   -1.7646   -5.1196 C   0  0  0  0  0  0  0  0  0  0  0  0
   -3.7200   -2.3821   -4.5165 S   0  0  0  0  0  0  0  0  0  0  0  0
   -3.2457   -2.0254   -2.9214 C   0  0  0  0  0  0  0  0  0  0  0  0
   -3.8358   -1.8593   -1.6972 C   0  0  0  0  0  0  0  0  0  0  0  0
   -5.1585   -2.0345   -1.2526 C   0  0  0  0  0  0  0  0  0  0  0  0
   -5.5085   -1.5794    0.0609 C   0  0  0  0  0  0  0  0  0  0  0  0
   -6.7876   -1.7821    0.4575 N   0  0  0  0  0  0  0  0  0  0  0  0
   -7.3878   -2.5182   -0.9001 S   0  0  0  0  0  0  0  0  0  0  0  0
   -6.1364   -2.6156   -1.9811 N   0  0  0  0  0  0  0  0  0  0  0  0
   -4.5178   -0.9858    0.8543 C   0  0  0  0  0  0  0  0  0  0  0  0
   -4.4793   -0.6372    2.1805 C   0  0  0  0  0  0  0  0  0  0  0  0
   -5.4293   -0.8173    3.5848 S   0  0  0  0  0  0  0  0  0  0  0  0
   -4.0841   -0.4694    4.5859 C   0  0  0  0  0  0  0  0  0  0  0  0
   -3.8565   -0.4413    5.9702 C   0  0  0  0  0  0  0  0  0  0  0  0
   -4.9148   -0.6694    6.9813 C   0  0  0  0  0  0  0  0  0  0  0  0
   -6.1616   -0.0342    6.8505 C   0  0  0  0  0  0  0  0  0  0  0  0
   -7.1581   -0.2253    7.8090 C   0  0  0  0  0  0  0  0  0  0  0  0
   -6.9232   -1.0617    8.9038 C   0  0  0  0  0  0  0  0  0  0  0  0
   -5.6864   -1.7115    9.0471 C   0  0  0  0  0  0  0  0  0  0  0  0
   -5.4588   -2.6486   10.2007 C   0  0  0  0  0  0  0  0  0  0  0  0
   -6.0312   -4.0290    9.8876 C   0  0  0  0  0  0  0  0  0  0  0  0
   -4.6850   -1.5137    8.0784 C   0  0  0  0  0  0  0  0  0  0  0  0
   -2.4804   -0.2129    6.2461 C   0  0  0  0  0  0  0  0  0  0  0  0
   -1.6238   -0.0496    4.7776 S   0  0  0  0  0  0  0  0  0  0  0  0
   -2.9604   -0.2920    3.8292 C   0  0  0  0  0  0  0  0  0  0  0  0
   -3.1812   -0.3757    2.4734 C   0  0  0  0  0  0  0  0  0  0  0  0
   -2.3394   -0.5829    1.4355 N   0  0  0  0  0  0  0  0  0  0  0  0
   -3.1958   -0.8551    0.4052 C   0  0  0  0  0  0  0  0  0  0  0  0
   -2.8701   -1.2149   -0.9160 C   0  0  0  0  0  0  0  0  0  0  0  0
   -1.7716   -0.8651   -1.6523 N   0  0  0  0  0  0  0  0  0  0  0  0
   -2.0244   -1.4243   -2.8576 C   0  0  0  0  0  0  0  0  0  0  0  0
   -1.4653   -1.2580   -4.1140 C   0  0  0  0  0  0  0  0  0  0  0  0
   -0.1160   -0.4975   -4.7345 S   0  0  0  0  0  0  0  0  0  0  0  0
   -0.9070    0.3132   -1.4425 C   0  0  0  0  0  0  0  0  0  0  0  0
    0.5848   -0.0529   -1.4947 C   0  0  0  0  0  0  0  0  0  0  0  0
   -1.0022   -1.1778    1.5894 C   0  0  0  0  0  0  0  0  0  0  0  0
   -1.1130   -2.6465    2.0096 C   0  0  0  0  0  0  0  0  0  0  0  0
   -1.7976    0.0506    7.5365 C   0  0  0  0  0  0  0  0  0  0  0  0
   -0.5011   -0.4844    7.7216 C   0  0  0  0  0  0  0  0  0  0  0  0
   -0.0900   -1.5340    6.8808 O   0  0  0  0  0  0  0  0  0  0  0  0
    1.2454   -1.7103    6.3935 C   0  0  0  0  0  0  0  0  0  0  0  0
    1.2205   -2.5714    5.1430 C   0  0  0  0  0  0  0  0  0  0  0  0
    0.3456    0.0472    8.7147 C   0  0  0  0  0  0  0  0  0  0  0  0
    1.6285   -0.4927    8.8994 O   0  0  0  0  0  0  0  0  0  0  0  0
    2.0748   -1.0385   10.1433 C   0  0  0  0  0  0  0  0  0  0  0  0
    1.4775   -2.4263   10.3583 C   0  0  0  0  0  0  0  0  0  0  0  0
   -0.0825    1.1506    9.4828 C   0  0  0  0  0  0  0  0  0  0  0  0
   -1.4174    1.5691    9.4114 C   0  0  0  0  0  0  0  0  0  0  0  0
   -2.2710    1.0419    8.4175 C   0  0  0  0  0  0  0  0  0  0  0  0
   -3.5069    1.5831    8.2587 N   0  0  0  0  0  0  0  0  0  0  0  0
   -3.9547    2.5798    9.0639 C   0  0  0  0  0  0  0  0  0  0  0  0
   -3.1234    3.0762   10.0688 C   0  0  0  0  0  0  0  0  0  0  0  0
   -1.8722    2.5722   10.2113 N   0  0  0  0  0  0  0  0  0  0  0  0
    0.9145    1.9594   10.2188 C   0  0  0  0  0  0  0  0  0  0  0  0
    1.9759    2.4999    9.5879 C   0  0  0  0  0  0  0  0  0  0  0  0
    3.2834    2.6449   10.2192 C   0  0  0  0  0  0  0  0  0  0  0  0
    3.5063    2.6754   11.4587 O   0  0  0  0  0  0  0  0  0  0  0  0
    4.2946    2.6104    9.1764 C   0  0  0  0  0  0  0  0  0  0  0  0
    5.6842    2.6276    9.3169 C   0  0  0  0  0  0  0  0  0  0  0  0
    6.4792    2.5225    8.1619 C   0  0  0  0  0  0  0  0  0  0  0  0
    7.8797    2.5192    8.2582 C   0  0  0  0  0  0  0  0  0  0  0  0
    8.6615    2.3901    7.1062 C   0  0  0  0  0  0  0  0  0  0  0  0
    8.0576    2.2719    5.8508 C   0  0  0  0  0  0  0  0  0  0  0  0
    8.8228    2.1668    4.7343 F   0  0  0  0  0  0  0  0  0  0  0  0
    6.6641    2.2823    5.7364 C   0  0  0  0  0  0  0  0  0  0  0  0
    5.8628    2.3980    6.8812 C   0  0  0  0  0  0  0  0  0  0  0  0
    4.4571    2.3881    6.7722 C   0  0  0  0  0  0  0  0  0  0  0  0
    3.6826    2.5066    7.9358 C   0  0  0  0  0  0  0  0  0  0  0  0
    2.2125    2.5738    8.1173 C   0  0  0  0  0  0  0  0  0  0  0  0
    1.3221    3.0312    7.2018 C   0  0  0  0  0  0  0  0  0  0  0  0
    0.1087    3.6862    7.6054 C   0  0  0  0  0  0  0  0  0  0  0  0
   -0.8542    4.2468    7.9290 N   0  0  0  0  0  0  0  0  0  0  0  0
    1.5937    3.0881    5.7853 C   0  0  0  0  0  0  0  0  0  0  0  0
    1.7751    3.1468    4.6400 N   0  0  0  0  0  0  0  0  0  0  0  0
    3.7663    1.8292  -10.3629 H   0  0  0  0  0  0  0  0  0  0  0  0
    3.0052    4.0204   -4.6256 H   0  0  0  0  0  0  0  0  0  0  0  0
    3.0359    6.0857   -3.2371 H   0  0  0  0  0  0  0  0  0  0  0  0
    3.6893    8.4429   -2.9450 H   0  0  0  0  0  0  0  0  0  0  0  0
    5.8323    8.3646   -6.6610 H   0  0  0  0  0  0  0  0  0  0  0  0
    5.8187    6.3344   -8.0428 H   0  0  0  0  0  0  0  0  0  0  0  0
    3.2863   -1.5879  -10.9718 H   0  0  0  0  0  0  0  0  0  0  0  0
    4.5271   -0.3226  -10.6115 H   0  0  0  0  0  0  0  0  0  0  0  0
    4.8082   -3.3347  -10.0914 H   0  0  0  0  0  0  0  0  0  0  0  0
    6.0359   -2.0766   -9.6540 H   0  0  0  0  0  0  0  0  0  0  0  0
    5.6228   -2.3729  -11.3812 H   0  0  0  0  0  0  0  0  0  0  0  0
    3.8200   -2.5092   -6.9212 H   0  0  0  0  0  0  0  0  0  0  0  0
    2.9450   -1.7606   -5.5201 H   0  0  0  0  0  0  0  0  0  0  0  0
    3.6157   -4.0379   -4.9593 H   0  0  0  0  0  0  0  0  0  0  0  0
    2.7982   -4.6872   -6.4389 H   0  0  0  0  0  0  0  0  0  0  0  0
    1.8068   -3.9667   -5.1034 H   0  0  0  0  0  0  0  0  0  0  0  0
   -0.3517    4.5055   -9.2700 H   0  0  0  0  0  0  0  0  0  0  0  0
   -2.1048    3.4332   -7.8644 H   0  0  0  0  0  0  0  0  0  0  0  0
   -2.7975   -0.0040   -8.3963 H   0  0  0  0  0  0  0  0  0  0  0  0
   -3.9961   -0.7721  -10.4004 H   0  0  0  0  0  0  0  0  0  0  0  0
   -4.3830   -3.1770  -10.7793 H   0  0  0  0  0  0  0  0  0  0  0  0
   -4.5172   -5.4397   -9.7927 H   0  0  0  0  0  0  0  0  0  0  0  0
   -3.7158   -5.8025   -8.2319 H   0  0  0  0  0  0  0  0  0  0  0  0
   -1.4720   -5.7407   -9.3452 H   0  0  0  0  0  0  0  0  0  0  0  0
   -2.2661   -5.3556  -10.9290 H   0  0  0  0  0  0  0  0  0  0  0  0
   -2.5705   -6.9439  -10.1222 H   0  0  0  0  0  0  0  0  0  0  0  0
   -2.3098   -4.0838   -7.1095 H   0  0  0  0  0  0  0  0  0  0  0  0
   -6.3517    0.6367    6.0235 H   0  0  0  0  0  0  0  0  0  0  0  0
   -8.1116    0.2728    7.7050 H   0  0  0  0  0  0  0  0  0  0  0  0
   -7.7060   -1.2046    9.6358 H   0  0  0  0  0  0  0  0  0  0  0  0
   -5.9460   -2.2444   11.1141 H   0  0  0  0  0  0  0  0  0  0  0  0
   -4.3723   -2.7439   10.4180 H   0  0  0  0  0  0  0  0  0  0  0  0
   -5.5023   -4.4763    9.0178 H   0  0  0  0  0  0  0  0  0  0  0  0
   -5.9033   -4.6988   10.7688 H   0  0  0  0  0  0  0  0  0  0  0  0
   -7.1171   -3.9512    9.6583 H   0  0  0  0  0  0  0  0  0  0  0  0
   -3.7379   -2.0303    8.1751 H   0  0  0  0  0  0  0  0  0  0  0  0
   -1.1310    1.0657   -2.2275 H   0  0  0  0  0  0  0  0  0  0  0  0
   -1.1374    0.8068   -0.4747 H   0  0  0  0  0  0  0  0  0  0  0  0
    1.0671    0.1958   -0.5251 H   0  0  0  0  0  0  0  0  0  0  0  0
    1.0958    0.5439   -2.2766 H   0  0  0  0  0  0  0  0  0  0  0  0
    0.7320   -1.1350   -1.7002 H   0  0  0  0  0  0  0  0  0  0  0  0
   -0.4418   -1.1560    0.6489 H   0  0  0  0  0  0  0  0  0  0  0  0
   -0.4113   -0.6088    2.3329 H   0  0  0  0  0  0  0  0  0  0  0  0
   -0.0988   -3.0847    2.1161 H   0  0  0  0  0  0  0  0  0  0  0  0
   -1.6421   -2.7353    2.9802 H   0  0  0  0  0  0  0  0  0  0  0  0
   -1.6687   -3.2216    1.2371 H   0  0  0  0  0  0  0  0  0  0  0  0
    1.6969   -0.7225    6.1521 H   0  0  0  0  0  0  0  0  0  0  0  0
    1.8657   -2.2170    7.1587 H   0  0  0  0  0  0  0  0  0  0  0  0
    0.7933   -3.5698    5.3730 H   0  0  0  0  0  0  0  0  0  0  0  0
    2.2511   -2.6855    4.7335 H   0  0  0  0  0  0  0  0  0  0  0  0
    0.5878   -2.0896    4.3678 H   0  0  0  0  0  0  0  0  0  0  0  0
    3.1791   -1.1138   10.1214 H   0  0  0  0  0  0  0  0  0  0  0  0
    1.8016   -0.3794   10.9950 H   0  0  0  0  0  0  0  0  0  0  0  0
    1.8628   -3.1273    9.5877 H   0  0  0  0  0  0  0  0  0  0  0  0
    0.3717   -2.3919   10.2923 H   0  0  0  0  0  0  0  0  0  0  0  0
    1.7571   -2.8026   11.3633 H   0  0  0  0  0  0  0  0  0  0  0  0
   -4.9475    2.9843    8.9209 H   0  0  0  0  0  0  0  0  0  0  0  0
   -3.4635    3.8717   10.7139 H   0  0  0  0  0  0  0  0  0  0  0  0
    0.8904    1.9197   11.2995 H   0  0  0  0  0  0  0  0  0  0  0  0
    6.1336    2.7112   10.3003 H   0  0  0  0  0  0  0  0  0  0  0  0
    8.3674    2.6120    9.2198 H   0  0  0  0  0  0  0  0  0  0  0  0
    9.7430    2.3846    7.1873 H   0  0  0  0  0  0  0  0  0  0  0  0
    6.2121    2.1968    4.7539 H   0  0  0  0  0  0  0  0  0  0  0  0
    4.0050    2.2547    5.8017 H   0  0  0  0  0  0  0  0  0  0  0  0
  1  2  2  3
  2  3  1  0
  3  4  2  0
  3  5  1  0
  5  6  2  0
  6  7  1  0
  7  8  2  0
  8  9  1  0
  9 10  2  0
 10 11  1  0
 10 12  1  0
 12 13  2  0
 13 14  1  0
 14 15  2  0
 15 16  1  0
 16 17  2  3
 17 18  1  0
 18 19  3  0
 17 20  1  0
 20 21  3  0
  1 22  1  0
 22 23  2  0
 23 24  1  0
 24 25  1  0
 25 26  1  0
 23 27  1  0
 27 28  1  0
 28 29  1  0
 29 30  1  0
 27 31  2  0
 31 32  1  0
 32 33  2  0
 33 34  1  0
 34 35  2  0
 35 36  1  0
 36 37  2  0
 31 38  1  0
 38 39  2  0
 39 40  1  0
 40 41  2  0
 41 42  1  0
 42 43  2  0
 43 44  1  0
 44 45  1  0
 45 46  1  0
 44 47  2  0
 39 48  1  0
 48 49  1  0
 49 50  1  0
 50 51  1  0
 51 52  1  0
 52 53  1  0
 53 54  2  0
 54 55  1  0
 55 56  1  0
 53 57  1  0
 57 58  1  0
 58 59  1  0
 59 60  1  0
 60 61  1  0
 61 62  1  0
 62 63  2  0
 63 64  1  0
 64 65  2  0
 65 66  1  0
 66 67  1  0
 67 68  1  0
 66 69  2  0
 61 70  2  0
 70 71  1  0
 71 72  1  0
 72 73  1  0
 73 74  1  0
 74 75  1  0
 75 76  1  0
 76 77  1  0
 77 78  1  0
 78 79  1  0
 79 80  1  0
 77 81  1  0
 81 82  1  0
 74 83  1  0
 83 84  1  0
 70 85  1  0
 85 86  2  0
 86 87  1  0
 87 88  1  0
 88 89  1  0
 86 90  1  0
 90 91  1  0
 91 92  1  0
 92 93  1  0
 90 94  2  0
 94 95  1  0
 95 96  2  0
 96 97  1  0
 97 98  2  0
 98 99  1  0
 99100  2  0
 94101  1  0
101102  2  3
102103  1  0
103104  2  0
103105  1  0
105106  2  0
106107  1  0
107108  2  0
108109  1  0
109110  2  0
110111  1  0
110112  1  0
112113  2  0
113114  1  0
114115  2  0
115116  1  0
116117  2  3
117118  1  0
118119  3  0
117120  1  0
120121  3  0
 16  2  1  0
 33 22  1  0
 80 38  1  0
 96 85  1  0
116102  1  0
 15  5  1  0
 37 32  1  0
 47 40  1  0
 79 48  2  0
100 95  1  0
115105  1  0
 13  7  1  0
 78 50  2  0
113107  1  0
 76 51  2  0
 56 52  2  0
 75 57  2  0
 73 58  2  0
 72 60  2  0
 69 62  1  0
  1122  1  0
  6123  1  0
  8124  1  0
  9125  1  0
 12126  1  0
 14127  1  0
 25128  1  0
 25129  1  0
 26130  1  0
 26131  1  0
 26132  1  0
 29133  1  0
 29134  1  0
 30135  1  0
 30136  1  0
 30137  1  0
 35138  1  0
 36139  1  0
 41140  1  0
 42141  1  0
 43142  1  0
 45143  1  0
 45144  1  0
 46145  1  0
 46146  1  0
 46147  1  0
 47148  1  0
 63149  1  0
 64150  1  0
 65151  1  0
 67152  1  0
 67153  1  0
 68154  1  0
 68155  1  0
 68156  1  0
 69157  1  0
 81158  1  0
 81159  1  0
 82160  1  0
 82161  1  0
 82162  1  0
 83163  1  0
 83164  1  0
 84165  1  0
 84166  1  0
 84167  1  0
 88168  1  0
 88169  1  0
 89170  1  0
 89171  1  0
 89172  1  0
 92173  1  0
 92174  1  0
 93175  1  0
 93176  1  0
 93177  1  0
 98178  1  0
 99179  1  0
101180  1  0
106181  1  0
108182  1  0
109183  1  0
112184  1  0
114185  1  0
M  END

