
     RDKit          3D

149164  0  0  0  0  0  0  0  0999 V2000
    2.1511    1.8288    7.2794 C   0  0  0  0  0  0  0  0  0  0  0  0
    1.7544    3.0041    7.8047 C   0  0  0  0  0  0  0  0  0  0  0  0
    2.6273    4.1398    8.1300 C   0  0  0  0  0  0  0  0  0  0  0  0
    3.8866    4.1621    8.0540 O   0  0  0  0  0  0  0  0  0  0  0  0
    1.8052    5.2252    8.6123 C   0  0  0  0  0  0  0  0  0  0  0  0
    2.1960    6.5358    8.8862 C   0  0  0  0  0  0  0  0  0  0  0  0
    1.1986    7.4944    9.1443 C   0  0  0  0  0  0  0  0  0  0  0  0
    1.5397    8.8315    9.3982 C   0  0  0  0  0  0  0  0  0  0  0  0
    0.5369    9.7883    9.5901 C   0  0  0  0  0  0  0  0  0  0  0  0
   -0.8058    9.4254    9.4976 C   0  0  0  0  0  0  0  0  0  0  0  0
   -1.7756   10.3637    9.6558 F   0  0  0  0  0  0  0  0  0  0  0  0
   -1.1617    8.0958    9.2572 C   0  0  0  0  0  0  0  0  0  0  0  0
   -0.1700    7.1200    9.0875 C   0  0  0  0  0  0  0  0  0  0  0  0
   -0.5288    5.7854    8.8279 C   0  0  0  0  0  0  0  0  0  0  0  0
    0.4791    4.8281    8.6396 C   0  0  0  0  0  0  0  0  0  0  0  0
    0.3695    3.3993    8.2276 C   0  0  0  0  0  0  0  0  0  0  0  0
   -0.7720    2.6503    8.2195 C   0  0  0  0  0  0  0  0  0  0  0  0
   -1.9852    3.0833    8.8747 C   0  0  0  0  0  0  0  0  0  0  0  0
   -2.9619    3.4209    9.3916 N   0  0  0  0  0  0  0  0  0  0  0  0
   -0.8770    1.3635    7.5736 C   0  0  0  0  0  0  0  0  0  0  0  0
   -0.9795    0.3315    7.0569 N   0  0  0  0  0  0  0  0  0  0  0  0
    3.3734    1.5805    6.4634 C   0  0  0  0  0  0  0  0  0  0  0  0
    3.8837    0.2654    6.4564 C   0  0  0  0  0  0  0  0  0  0  0  0
    3.6963   -0.6022    7.5471 O   0  0  0  0  0  0  0  0  0  0  0  0
    4.0076   -0.2528    8.8998 C   0  0  0  0  0  0  0  0  0  0  0  0
    5.5032   -0.0124    9.0630 C   0  0  0  0  0  0  0  0  0  0  0  0
    4.5391   -0.2309    5.3195 C   0  0  0  0  0  0  0  0  0  0  0  0
    4.7164   -1.6122    5.2005 O   0  0  0  0  0  0  0  0  0  0  0  0
    3.7433   -2.4412    4.5629 C   0  0  0  0  0  0  0  0  0  0  0  0
    2.5293   -2.6558    5.4628 C   0  0  0  0  0  0  0  0  0  0  0  0
    4.9369    0.6381    4.2793 C   0  0  0  0  0  0  0  0  0  0  0  0
    4.5950    2.0010    4.3777 C   0  0  0  0  0  0  0  0  0  0  0  0
    3.7479    2.4549    5.4155 C   0  0  0  0  0  0  0  0  0  0  0  0
    3.2405    3.7167    5.3357 N   0  0  0  0  0  0  0  0  0  0  0  0
    3.5965    4.5759    4.3499 C   0  0  0  0  0  0  0  0  0  0  0  0
    4.5004    4.1589    3.3762 C   0  0  0  0  0  0  0  0  0  0  0  0
    4.9603    2.8790    3.4016 N   0  0  0  0  0  0  0  0  0  0  0  0
    5.4366    0.1017    2.9841 C   0  0  0  0  0  0  0  0  0  0  0  0
    6.3660   -0.9444    2.7614 C   0  0  0  0  0  0  0  0  0  0  0  0
    7.4005   -1.3921    3.7674 C   0  0  0  0  0  0  0  0  0  0  0  0
    7.4804   -2.9099    3.9287 C   0  0  0  0  0  0  0  0  0  0  0  0
    6.3769   -1.3061    1.4036 C   0  0  0  0  0  0  0  0  0  0  0  0
    6.9125   -2.6953    0.5725 S   0  0  0  0  0  0  0  0  0  0  0  0
    6.1658   -2.1934   -0.8644 C   0  0  0  0  0  0  0  0  0  0  0  0
    5.6202   -2.8182   -1.9556 C   0  0  0  0  0  0  0  0  0  0  0  0
    5.4652   -4.1918   -2.2156 C   0  0  0  0  0  0  0  0  0  0  0  0
    4.4598   -4.6120   -3.1454 C   0  0  0  0  0  0  0  0  0  0  0  0
    4.2948   -5.9466   -3.3167 N   0  0  0  0  0  0  0  0  0  0  0  0
    5.4311   -6.5009   -2.2486 S   0  0  0  0  0  0  0  0  0  0  0  0
    6.1462   -5.1684   -1.5682 N   0  0  0  0  0  0  0  0  0  0  0  0
    3.7323   -3.6380   -3.8345 C   0  0  0  0  0  0  0  0  0  0  0  0
    2.7341   -3.7057   -4.7756 C   0  0  0  0  0  0  0  0  0  0  0  0
    1.3946   -4.7195   -5.0117 S   0  0  0  0  0  0  0  0  0  0  0  0
    0.4669   -3.4425   -5.6817 C   0  0  0  0  0  0  0  0  0  0  0  0
   -0.9134   -3.2375   -5.8713 C   0  0  0  0  0  0  0  0  0  0  0  0
   -1.9176   -4.2181   -5.8356 O   0  0  0  0  0  0  0  0  0  0  0  0
   -1.6963   -5.6048   -5.6012 C   0  0  0  0  0  0  0  0  0  0  0  0
   -3.0298   -6.3213   -5.5921 C   0  0  0  0  0  0  0  0  0  0  0  0
   -1.2110   -1.8743   -6.0440 C   0  0  0  0  0  0  0  0  0  0  0  0
    0.2140   -0.9536   -5.9099 S   0  0  0  0  0  0  0  0  0  0  0  0
    1.2022   -2.2786   -5.6888 C   0  0  0  0  0  0  0  0  0  0  0  0
    2.4592   -2.4229   -5.1410 C   0  0  0  0  0  0  0  0  0  0  0  0
    3.1960   -1.5151   -4.4604 N   0  0  0  0  0  0  0  0  0  0  0  0
    3.9471   -2.2741   -3.6152 C   0  0  0  0  0  0  0  0  0  0  0  0
    4.7747   -1.8655   -2.5490 C   0  0  0  0  0  0  0  0  0  0  0  0
    4.6429   -0.7609   -1.7393 N   0  0  0  0  0  0  0  0  0  0  0  0
    5.5148   -1.0055   -0.7259 C   0  0  0  0  0  0  0  0  0  0  0  0
    5.5803   -0.5450    0.5857 C   0  0  0  0  0  0  0  0  0  0  0  0
    4.7154    0.5435    1.5057 S   0  0  0  0  0  0  0  0  0  0  0  0
    3.4922    0.1503   -1.6472 C   0  0  0  0  0  0  0  0  0  0  0  0
    3.9264    1.6138   -1.7416 C   0  0  0  0  0  0  0  0  0  0  0  0
    3.5463   -0.1868   -4.9755 C   0  0  0  0  0  0  0  0  0  0  0  0
    4.3238   -0.3087   -6.2895 C   0  0  0  0  0  0  0  0  0  0  0  0
   -2.5409   -1.2473   -6.0311 C   0  0  0  0  0  0  0  0  0  0  0  0
   -2.7842    0.1012   -6.2794 C   0  0  0  0  0  0  0  0  0  0  0  0
   -4.0960    0.5025   -5.9709 C   0  0  0  0  0  0  0  0  0  0  0  0
   -4.5673    1.8248   -6.0518 O   0  0  0  0  0  0  0  0  0  0  0  0
   -3.7685    2.9447   -6.4386 C   0  0  0  0  0  0  0  0  0  0  0  0
   -3.5743    2.9838   -7.9530 C   0  0  0  0  0  0  0  0  0  0  0  0
   -4.8820   -0.5400   -5.4915 C   0  0  0  0  0  0  0  0  0  0  0  0
   -3.9445   -1.9353   -5.4075 S   0  0  0  0  0  0  0  0  0  0  0  0
   -6.2306   -0.4203   -4.9277 C   0  0  0  0  0  0  0  0  0  0  0  0
   -7.3069   -0.0429   -5.6306 C   0  0  0  0  0  0  0  0  0  0  0  0
   -8.8476    0.0594   -4.9746 S   0  0  0  0  0  0  0  0  0  0  0  0
   -9.6059    0.4730   -6.4320 C   0  0  0  0  0  0  0  0  0  0  0  0
  -10.9343    0.7239   -6.5387 C   0  0  0  0  0  0  0  0  0  0  0  0
  -11.5489    1.2337   -7.7326 C   0  0  0  0  0  0  0  0  0  0  0  0
  -12.0498    1.6535   -8.6894 N   0  0  0  0  0  0  0  0  0  0  0  0
  -11.8056    0.5562   -5.4028 C   0  0  0  0  0  0  0  0  0  0  0  0
  -12.4987    0.4234   -4.4869 N   0  0  0  0  0  0  0  0  0  0  0  0
   -8.6741    0.5208   -7.4380 N   0  0  0  0  0  0  0  0  0  0  0  0
   -8.9490    0.6561   -8.8400 C   0  0  0  0  0  0  0  0  0  0  0  0
   -8.5621    1.8141   -9.5312 C   0  0  0  0  0  0  0  0  0  0  0  0
   -8.8105    1.9225  -10.9038 C   0  0  0  0  0  0  0  0  0  0  0  0
   -9.4326    0.8716  -11.5894 C   0  0  0  0  0  0  0  0  0  0  0  0
   -9.7982   -0.2930  -10.9054 C   0  0  0  0  0  0  0  0  0  0  0  0
   -9.5585   -0.4044   -9.5340 C   0  0  0  0  0  0  0  0  0  0  0  0
   -7.4077    0.2510   -6.9945 C   0  0  0  0  0  0  0  0  0  0  0  0
   -6.4212    0.2272   -7.7794 O   0  0  0  0  0  0  0  0  0  0  0  0
    1.5067    0.9738    7.3672 H   0  0  0  0  0  0  0  0  0  0  0  0
    3.2420    6.8260    8.8336 H   0  0  0  0  0  0  0  0  0  0  0  0
    2.5768    9.1383    9.4549 H   0  0  0  0  0  0  0  0  0  0  0  0
    0.8079   10.8193    9.7814 H   0  0  0  0  0  0  0  0  0  0  0  0
   -2.2075    7.8302    9.1822 H   0  0  0  0  0  0  0  0  0  0  0  0
   -1.5698    5.5381    8.7139 H   0  0  0  0  0  0  0  0  0  0  0  0
    3.7075   -1.1034    9.5590 H   0  0  0  0  0  0  0  0  0  0  0  0
    3.4401    0.6449    9.2212 H   0  0  0  0  0  0  0  0  0  0  0  0
    6.0749   -0.8912    8.6932 H   0  0  0  0  0  0  0  0  0  0  0  0
    5.7394    0.1443   10.1378 H   0  0  0  0  0  0  0  0  0  0  0  0
    5.8070    0.8960    8.4926 H   0  0  0  0  0  0  0  0  0  0  0  0
    4.1986   -3.4327    4.3564 H   0  0  0  0  0  0  0  0  0  0  0  0
    3.4253   -2.0056    3.5850 H   0  0  0  0  0  0  0  0  0  0  0  0
    2.8608   -3.0700    6.4400 H   0  0  0  0  0  0  0  0  0  0  0  0
    1.8366   -3.3759    4.9819 H   0  0  0  0  0  0  0  0  0  0  0  0
    1.9912   -1.7000    5.6231 H   0  0  0  0  0  0  0  0  0  0  0  0
    3.1785    5.5757    4.3156 H   0  0  0  0  0  0  0  0  0  0  0  0
    4.8155    4.8303    2.5919 H   0  0  0  0  0  0  0  0  0  0  0  0
    8.3924   -1.0081    3.4495 H   0  0  0  0  0  0  0  0  0  0  0  0
    7.2021   -0.9417    4.7588 H   0  0  0  0  0  0  0  0  0  0  0  0
    7.9714   -3.3716    3.0507 H   0  0  0  0  0  0  0  0  0  0  0  0
    6.4771   -3.3510    4.0647 H   0  0  0  0  0  0  0  0  0  0  0  0
    8.0973   -3.1486    4.8185 H   0  0  0  0  0  0  0  0  0  0  0  0
   -1.2203   -5.7466   -4.6072 H   0  0  0  0  0  0  0  0  0  0  0  0
   -1.0448   -6.0295   -6.3936 H   0  0  0  0  0  0  0  0  0  0  0  0
   -2.8917   -7.3904   -5.2981 H   0  0  0  0  0  0  0  0  0  0  0  0
   -3.4902   -6.2869   -6.6066 H   0  0  0  0  0  0  0  0  0  0  0  0
   -3.7133   -5.8422   -4.8591 H   0  0  0  0  0  0  0  0  0  0  0  0
    2.9631   -0.0049   -0.6806 H   0  0  0  0  0  0  0  0  0  0  0  0
    2.7402   -0.0526   -2.4323 H   0  0  0  0  0  0  0  0  0  0  0  0
    4.4914    1.8112   -2.6764 H   0  0  0  0  0  0  0  0  0  0  0  0
    3.0319    2.2752   -1.7161 H   0  0  0  0  0  0  0  0  0  0  0  0
    4.5796    1.8968   -0.8940 H   0  0  0  0  0  0  0  0  0  0  0  0
    2.6273    0.4211   -5.1442 H   0  0  0  0  0  0  0  0  0  0  0  0
    4.2019    0.3387   -4.2621 H   0  0  0  0  0  0  0  0  0  0  0  0
    3.6865   -0.7753   -7.0728 H   0  0  0  0  0  0  0  0  0  0  0  0
    4.6364    0.6944   -6.6383 H   0  0  0  0  0  0  0  0  0  0  0  0
    5.2261   -0.9409   -6.1291 H   0  0  0  0  0  0  0  0  0  0  0  0
   -2.0148    0.7801   -6.6198 H   0  0  0  0  0  0  0  0  0  0  0  0
   -2.7857    2.9189   -5.9200 H   0  0  0  0  0  0  0  0  0  0  0  0
   -4.2959    3.8710   -6.1340 H   0  0  0  0  0  0  0  0  0  0  0  0
   -3.0224    2.0868   -8.3150 H   0  0  0  0  0  0  0  0  0  0  0  0
   -4.5601    3.0367   -8.4702 H   0  0  0  0  0  0  0  0  0  0  0  0
   -2.9842    3.8890   -8.2196 H   0  0  0  0  0  0  0  0  0  0  0  0
   -6.3655   -0.7021   -3.8881 H   0  0  0  0  0  0  0  0  0  0  0  0
   -8.0790    2.6259   -9.0016 H   0  0  0  0  0  0  0  0  0  0  0  0
   -8.5201    2.8217  -11.4335 H   0  0  0  0  0  0  0  0  0  0  0  0
   -9.6356    0.9551  -12.6490 H   0  0  0  0  0  0  0  0  0  0  0  0
  -10.2775   -1.1091  -11.4337 H   0  0  0  0  0  0  0  0  0  0  0  0
   -9.8387   -1.3099   -9.0166 H   0  0  0  0  0  0  0  0  0  0  0  0
  1  2  2  3
  2  3  1  0
  3  4  2  0
  3  5  1  0
  5  6  2  0
  6  7  1  0
  7  8  2  0
  8  9  1  0
  9 10  2  0
 10 11  1  0
 10 12  1  0
 12 13  2  0
 13 14  1  0
 14 15  2  0
 15 16  1  0
 16 17  2  3
 17 18  1  0
 18 19  3  0
 17 20  1  0
 20 21  3  0
  1 22  1  0
 22 23  2  0
 23 24  1  0
 24 25  1  0
 25 26  1  0
 23 27  1  0
 27 28  1  0
 28 29  1  0
 29 30  1  0
 27 31  2  0
 31 32  1  0
 32 33  2  0
 33 34  1  0
 34 35  2  0
 35 36  1  0
 36 37  2  0
 31 38  1  0
 38 39  2  0
 39 40  1  0
 40 41  1  0
 39 42  1  0
 42 43  1  0
 43 44  1  0
 44 45  1  0
 45 46  1  0
 46 47  1  0
 47 48  2  0
 48 49  1  0
 49 50  1  0
 47 51  1  0
 51 52  1  0
 52 53  1  0
 53 54  1  0
 54 55  1  0
 55 56  1  0
 56 57  1  0
 57 58  1  0
 55 59  2  0
 59 60  1  0
 60 61  1  0
 61 62  1  0
 62 63  1  0
 63 64  1  0
 64 65  1  0
 65 66  1  0
 66 67  1  0
 67 68  1  0
 68 69  1  0
 66 70  1  0
 70 71  1  0
 63 72  1  0
 72 73  1  0
 59 74  1  0
 74 75  2  0
 75 76  1  0
 76 77  1  0
 77 78  1  0
 78 79  1  0
 76 80  2  0
 80 81  1  0
 80 82  1  0
 82 83  2  3
 83 84  1  0
 84 85  1  0
 85 86  2  3
 86 87  1  0
 87 88  3  0
 86 89  1  0
 89 90  3  0
 85 91  1  0
 91 92  1  0
 92 93  2  0
 93 94  1  0
 94 95  2  0
 95 96  1  0
 96 97  2  0
 91 98  1  0
 98 99  2  0
 16  2  1  0
 33 22  1  0
 69 38  1  0
 81 74  1  0
 98 83  1  0
 15  5  1  0
 37 32  1  0
 68 42  2  0
 97 92  1  0
 13  7  1  0
 67 44  2  0
 65 45  2  0
 50 46  2  0
 64 51  2  0
 62 52  2  0
 61 54  2  0
  1100  1  0
  6101  1  0
  8102  1  0
  9103  1  0
 12104  1  0
 14105  1  0
 25106  1  0
 25107  1  0
 26108  1  0
 26109  1  0
 26110  1  0
 29111  1  0
 29112  1  0
 30113  1  0
 30114  1  0
 30115  1  0
 35116  1  0
 36117  1  0
 40118  1  0
 40119  1  0
 41120  1  0
 41121  1  0
 41122  1  0
 57123  1  0
 57124  1  0
 58125  1  0
 58126  1  0
 58127  1  0
 70128  1  0
 70129  1  0
 71130  1  0
 71131  1  0
 71132  1  0
 72133  1  0
 72134  1  0
 73135  1  0
 73136  1  0
 73137  1  0
 75138  1  0
 78139  1  0
 78140  1  0
 79141  1  0
 79142  1  0
 79143  1  0
 82144  1  0
 93145  1  0
 94146  1  0
 95147  1  0
 96148  1  0
 97149  1  0
M  END

