
     RDKit          3D

180200  0  0  0  0  0  0  0  0999 V2000
    2.0376    2.5340   -8.3505 C   0  0  0  0  0  0  0  0  0  0  0  0
    3.1548    2.1683   -9.0096 C   0  0  0  0  0  0  0  0  0  0  0  0
    3.5101    0.7843   -9.3287 C   0  0  0  0  0  0  0  0  0  0  0  0
    2.7028   -0.1676   -9.5136 O   0  0  0  0  0  0  0  0  0  0  0  0
    4.9477    0.6814   -9.3972 C   0  0  0  0  0  0  0  0  0  0  0  0
    5.7091   -0.4690   -9.5816 C   0  0  0  0  0  0  0  0  0  0  0  0
    7.1071   -0.3648   -9.5207 C   0  0  0  0  0  0  0  0  0  0  0  0
    7.9094   -1.5006   -9.6885 C   0  0  0  0  0  0  0  0  0  0  0  0
    9.3008   -1.3973   -9.5871 C   0  0  0  0  0  0  0  0  0  0  0  0
    9.9002   -0.1624   -9.3174 C   0  0  0  0  0  0  0  0  0  0  0  0
   11.2491   -0.0755   -9.2120 F   0  0  0  0  0  0  0  0  0  0  0  0
    9.1143    0.9844   -9.1665 C   0  0  0  0  0  0  0  0  0  0  0  0
    7.7149    0.8994   -9.2696 C   0  0  0  0  0  0  0  0  0  0  0  0
    6.9155    2.0518   -9.1091 C   0  0  0  0  0  0  0  0  0  0  0  0
    5.5164    1.9308   -9.1811 C   0  0  0  0  0  0  0  0  0  0  0  0
    4.4328    2.9489   -9.0419 C   0  0  0  0  0  0  0  0  0  0  0  0
    4.5649    4.3012   -9.0133 C   0  0  0  0  0  0  0  0  0  0  0  0
    3.4340    5.1766   -9.1777 C   0  0  0  0  0  0  0  0  0  0  0  0
    2.5296    5.8841   -9.3080 N   0  0  0  0  0  0  0  0  0  0  0  0
    5.8347    4.9553   -8.8357 C   0  0  0  0  0  0  0  0  0  0  0  0
    6.8596    5.4728   -8.6550 N   0  0  0  0  0  0  0  0  0  0  0  0
    1.1849    1.5437   -7.6638 C   0  0  0  0  0  0  0  0  0  0  0  0
   -0.0174    1.0961   -8.2267 C   0  0  0  0  0  0  0  0  0  0  0  0
   -0.4016    1.5299   -9.4537 F   0  0  0  0  0  0  0  0  0  0  0  0
   -0.8285    0.1936   -7.5254 C   0  0  0  0  0  0  0  0  0  0  0  0
   -1.9521   -0.2750   -8.1223 F   0  0  0  0  0  0  0  0  0  0  0  0
   -0.4780   -0.2394   -6.2295 C   0  0  0  0  0  0  0  0  0  0  0  0
    0.7570    0.1862   -5.6902 C   0  0  0  0  0  0  0  0  0  0  0  0
    1.1914   -0.2711   -4.4872 N   0  0  0  0  0  0  0  0  0  0  0  0
    2.4029    0.0605   -3.9640 C   0  0  0  0  0  0  0  0  0  0  0  0
    2.8210   -0.6457   -2.6979 C   0  0  0  0  0  0  0  0  0  0  0  0
    3.0631   -2.1274   -2.9665 C   0  0  0  0  0  0  0  0  0  0  0  0
    3.2256    0.9666   -4.6856 C   0  0  0  0  0  0  0  0  0  0  0  0
    2.7781    1.4319   -5.8800 N   0  0  0  0  0  0  0  0  0  0  0  0
    1.5800    1.0672   -6.4090 C   0  0  0  0  0  0  0  0  0  0  0  0
    4.6097    1.3837   -4.2631 C   0  0  0  0  0  0  0  0  0  0  0  0
    5.6593    0.4960   -4.9242 C   0  0  0  0  0  0  0  0  0  0  0  0
   -1.3835   -1.1293   -5.4551 C   0  0  0  0  0  0  0  0  0  0  0  0
   -2.7572   -0.9199   -5.1974 C   0  0  0  0  0  0  0  0  0  0  0  0
   -3.5489    0.3072   -5.5730 C   0  0  0  0  0  0  0  0  0  0  0  0
   -4.7318   -0.0355   -6.4756 C   0  0  0  0  0  0  0  0  0  0  0  0
   -3.2480   -1.8772   -4.2979 C   0  0  0  0  0  0  0  0  0  0  0  0
   -4.6804   -1.9399   -3.3896 S   0  0  0  0  0  0  0  0  0  0  0  0
   -4.0715   -3.1852   -2.4088 C   0  0  0  0  0  0  0  0  0  0  0  0
   -4.2645   -3.4754   -1.0886 C   0  0  0  0  0  0  0  0  0  0  0  0
   -5.2377   -2.9583   -0.2209 C   0  0  0  0  0  0  0  0  0  0  0  0
   -6.3583   -2.3512   -0.6814 N   0  0  0  0  0  0  0  0  0  0  0  0
   -7.2717   -1.7969    0.1582 C   0  0  0  0  0  0  0  0  0  0  0  0
   -8.5224   -1.2957   -0.4389 C   0  0  0  0  0  0  0  0  0  0  0  0
  -10.0828   -1.5105    0.1755 S   0  0  0  0  0  0  0  0  0  0  0  0
  -10.8843   -0.8726   -1.1582 C   0  0  0  0  0  0  0  0  0  0  0  0
  -12.3623   -0.6462   -1.2532 C   0  0  0  0  0  0  0  0  0  0  0  0
  -12.7650    0.5811   -0.4396 C   0  0  0  0  0  0  0  0  0  0  0  0
   -9.9395   -0.4886   -2.1023 C   0  0  0  0  0  0  0  0  0  0  0  0
   -8.6236   -0.7435   -1.7141 C   0  0  0  0  0  0  0  0  0  0  0  0
  -10.2595    0.0654   -3.2971 F   0  0  0  0  0  0  0  0  0  0  0  0
   -7.0024   -1.7895    1.5539 C   0  0  0  0  0  0  0  0  0  0  0  0
   -7.7875   -1.0209    2.5419 C   0  0  0  0  0  0  0  0  0  0  0  0
   -8.3653    0.2347    2.3491 C   0  0  0  0  0  0  0  0  0  0  0  0
   -8.8543    0.8076    3.5302 C   0  0  0  0  0  0  0  0  0  0  0  0
   -9.4098    2.0454    3.5777 F   0  0  0  0  0  0  0  0  0  0  0  0
   -8.6473    0.0236    4.6602 C   0  0  0  0  0  0  0  0  0  0  0  0
   -8.9301    0.4227    6.0739 C   0  0  0  0  0  0  0  0  0  0  0  0
   -7.7812    1.2494    6.6425 C   0  0  0  0  0  0  0  0  0  0  0  0
   -7.8404   -1.3731    4.1910 S   0  0  0  0  0  0  0  0  0  0  0  0
   -5.8925   -2.4323    2.0081 N   0  0  0  0  0  0  0  0  0  0  0  0
   -5.0179   -3.0285    1.1619 C   0  0  0  0  0  0  0  0  0  0  0  0
   -3.8743   -3.6857    1.6155 C   0  0  0  0  0  0  0  0  0  0  0  0
   -3.4175   -3.8997    2.8741 C   0  0  0  0  0  0  0  0  0  0  0  0
   -3.7233   -3.3370    4.4373 S   0  0  0  0  0  0  0  0  0  0  0  0
   -2.2913   -4.0786    5.0062 C   0  0  0  0  0  0  0  0  0  0  0  0
   -1.5404   -3.8412    6.1584 C   0  0  0  0  0  0  0  0  0  0  0  0
   -1.9904   -2.8298    7.1821 C   0  0  0  0  0  0  0  0  0  0  0  0
   -1.4626   -1.4380    6.8369 C   0  0  0  0  0  0  0  0  0  0  0  0
   -0.2233   -4.3648    6.0173 C   0  0  0  0  0  0  0  0  0  0  0  0
   -0.0606   -5.0668    4.4661 S   0  0  0  0  0  0  0  0  0  0  0  0
   -1.6303   -4.7434    3.9971 C   0  0  0  0  0  0  0  0  0  0  0  0
   -2.2736   -4.6076    2.7724 C   0  0  0  0  0  0  0  0  0  0  0  0
   -1.9349   -4.8896    1.4890 N   0  0  0  0  0  0  0  0  0  0  0  0
   -1.2082   -6.1066    1.1224 C   0  0  0  0  0  0  0  0  0  0  0  0
   -2.0807   -7.3414    1.3409 C   0  0  0  0  0  0  0  0  0  0  0  0
   -2.9177   -4.2554    0.7646 C   0  0  0  0  0  0  0  0  0  0  0  0
   -3.0645   -4.0498   -0.6342 C   0  0  0  0  0  0  0  0  0  0  0  0
   -2.1132   -4.0070   -1.6284 N   0  0  0  0  0  0  0  0  0  0  0  0
   -2.7783   -3.4986   -2.7048 C   0  0  0  0  0  0  0  0  0  0  0  0
   -2.3243   -2.7721   -3.8097 C   0  0  0  0  0  0  0  0  0  0  0  0
   -0.8400   -2.4433   -4.5093 S   0  0  0  0  0  0  0  0  0  0  0  0
   -0.6476   -3.9764   -1.4763 C   0  0  0  0  0  0  0  0  0  0  0  0
    0.0151   -5.0818   -2.3061 C   0  0  0  0  0  0  0  0  0  0  0  0
    0.9560   -3.9863    6.8282 C   0  0  0  0  0  0  0  0  0  0  0  0
    0.9396   -3.5281    8.4613 S   0  0  0  0  0  0  0  0  0  0  0  0
    2.3951   -2.7021    8.4147 C   0  0  0  0  0  0  0  0  0  0  0  0
    2.8695   -1.7780    9.3531 C   0  0  0  0  0  0  0  0  0  0  0  0
    3.9010   -0.9219    8.9386 C   0  0  0  0  0  0  0  0  0  0  0  0
    4.2691    0.2716    9.5774 C   0  0  0  0  0  0  0  0  0  0  0  0
    5.1244    1.0523    8.8018 C   0  0  0  0  0  0  0  0  0  0  0  0
    5.4462    0.2502    7.3465 S   0  0  0  0  0  0  0  0  0  0  0  0
    4.4888   -1.0779    7.6778 C   0  0  0  0  0  0  0  0  0  0  0  0
    4.0410   -2.0302    6.7574 C   0  0  0  0  0  0  0  0  0  0  0  0
    2.9411   -2.8068    7.1343 C   0  0  0  0  0  0  0  0  0  0  0  0
    2.1502   -3.5470    6.2521 C   0  0  0  0  0  0  0  0  0  0  0  0
    5.2591    2.5080    8.9397 C   0  0  0  0  0  0  0  0  0  0  0  0
    4.3562    3.3552    8.4009 C   0  0  0  0  0  0  0  0  0  0  0  0
    3.1781    2.9591    7.6142 C   0  0  0  0  0  0  0  0  0  0  0  0
    2.6404    1.8210    7.5863 O   0  0  0  0  0  0  0  0  0  0  0  0
    2.7242    4.1022    6.8589 C   0  0  0  0  0  0  0  0  0  0  0  0
    1.7379    4.1360    5.8758 C   0  0  0  0  0  0  0  0  0  0  0  0
    1.5324    5.3331    5.1718 C   0  0  0  0  0  0  0  0  0  0  0  0
    0.5608    5.4017    4.1593 C   0  0  0  0  0  0  0  0  0  0  0  0
    0.3881    6.5838    3.4335 C   0  0  0  0  0  0  0  0  0  0  0  0
    1.1767    7.7066    3.7141 C   0  0  0  0  0  0  0  0  0  0  0  0
    1.0119    8.8416    2.9936 F   0  0  0  0  0  0  0  0  0  0  0  0
    2.1450    7.6527    4.7242 C   0  0  0  0  0  0  0  0  0  0  0  0
    2.3337    6.4756    5.4641 C   0  0  0  0  0  0  0  0  0  0  0  0
    3.3211    6.4092    6.4705 C   0  0  0  0  0  0  0  0  0  0  0  0
    3.4945    5.2074    7.1802 C   0  0  0  0  0  0  0  0  0  0  0  0
    4.4796    4.8398    8.2406 C   0  0  0  0  0  0  0  0  0  0  0  0
    5.1831    5.6885    9.0351 C   0  0  0  0  0  0  0  0  0  0  0  0
    5.1124    7.1207    8.8930 C   0  0  0  0  0  0  0  0  0  0  0  0
    5.0681    8.2736    8.7940 N   0  0  0  0  0  0  0  0  0  0  0  0
    5.9553    5.2315   10.1629 C   0  0  0  0  0  0  0  0  0  0  0  0
    6.5764    4.8783   11.0729 N   0  0  0  0  0  0  0  0  0  0  0  0
    1.9261    3.5468   -7.9918 H   0  0  0  0  0  0  0  0  0  0  0  0
    5.2220   -1.4260   -9.7479 H   0  0  0  0  0  0  0  0  0  0  0  0
    7.4634   -2.4667   -9.8873 H   0  0  0  0  0  0  0  0  0  0  0  0
    9.9100   -2.2808   -9.7151 H   0  0  0  0  0  0  0  0  0  0  0  0
    9.5956    1.9326   -8.9472 H   0  0  0  0  0  0  0  0  0  0  0  0
    7.4035    2.9908   -8.9176 H   0  0  0  0  0  0  0  0  0  0  0  0
    2.0058   -0.5466   -1.9514 H   0  0  0  0  0  0  0  0  0  0  0  0
    3.7265   -0.2178   -2.2328 H   0  0  0  0  0  0  0  0  0  0  0  0
    3.8445   -2.2557   -3.7456 H   0  0  0  0  0  0  0  0  0  0  0  0
    2.1273   -2.6185   -3.3102 H   0  0  0  0  0  0  0  0  0  0  0  0
    3.4093   -2.6251   -2.0378 H   0  0  0  0  0  0  0  0  0  0  0  0
    4.7820    2.4322   -4.5906 H   0  0  0  0  0  0  0  0  0  0  0  0
    4.7472    1.3857   -3.1661 H   0  0  0  0  0  0  0  0  0  0  0  0
    5.6200    0.6165   -6.0293 H   0  0  0  0  0  0  0  0  0  0  0  0
    6.6709    0.7940   -4.5774 H   0  0  0  0  0  0  0  0  0  0  0  0
    5.4924   -0.5714   -4.6627 H   0  0  0  0  0  0  0  0  0  0  0  0
   -2.9111    1.0580   -6.0770 H   0  0  0  0  0  0  0  0  0  0  0  0
   -3.9254    0.7901   -4.6485 H   0  0  0  0  0  0  0  0  0  0  0  0
   -4.3816   -0.4985   -7.4197 H   0  0  0  0  0  0  0  0  0  0  0  0
   -5.3012    0.8883   -6.7090 H   0  0  0  0  0  0  0  0  0  0  0  0
   -5.4132   -0.7460   -5.9671 H   0  0  0  0  0  0  0  0  0  0  0  0
  -12.8978   -1.5416   -0.8695 H   0  0  0  0  0  0  0  0  0  0  0  0
  -12.6541   -0.4952   -2.3159 H   0  0  0  0  0  0  0  0  0  0  0  0
  -12.5839    0.3942    0.6441 H   0  0  0  0  0  0  0  0  0  0  0  0
  -12.1756    1.4665   -0.7639 H   0  0  0  0  0  0  0  0  0  0  0  0
  -13.8394    0.7980   -0.5955 H   0  0  0  0  0  0  0  0  0  0  0  0
   -7.7676   -0.5323   -2.3453 H   0  0  0  0  0  0  0  0  0  0  0  0
   -8.3773    0.7558    1.3986 H   0  0  0  0  0  0  0  0  0  0  0  0
   -9.0758   -0.4855    6.6966 H   0  0  0  0  0  0  0  0  0  0  0  0
   -9.8631    1.0238    6.1153 H   0  0  0  0  0  0  0  0  0  0  0  0
   -8.0423    1.6048    7.6607 H   0  0  0  0  0  0  0  0  0  0  0  0
   -7.5821    2.1348    6.0047 H   0  0  0  0  0  0  0  0  0  0  0  0
   -6.8596    0.6307    6.7101 H   0  0  0  0  0  0  0  0  0  0  0  0
   -3.0985   -2.7847    7.2088 H   0  0  0  0  0  0  0  0  0  0  0  0
   -1.6806   -3.1263    8.2007 H   0  0  0  0  0  0  0  0  0  0  0  0
   -1.8185   -0.7035    7.5864 H   0  0  0  0  0  0  0  0  0  0  0  0
   -0.3534   -1.4233    6.8295 H   0  0  0  0  0  0  0  0  0  0  0  0
   -1.8229   -1.1252    5.8370 H   0  0  0  0  0  0  0  0  0  0  0  0
   -0.2835   -6.1991    1.7322 H   0  0  0  0  0  0  0  0  0  0  0  0
   -0.9181   -6.1024    0.0665 H   0  0  0  0  0  0  0  0  0  0  0  0
   -2.4732   -7.3589    2.3785 H   0  0  0  0  0  0  0  0  0  0  0  0
   -1.4841   -8.2595    1.1674 H   0  0  0  0  0  0  0  0  0  0  0  0
   -2.9380   -7.3320    0.6267 H   0  0  0  0  0  0  0  0  0  0  0  0
   -0.2567   -2.9941   -1.8125 H   0  0  0  0  0  0  0  0  0  0  0  0
   -0.3416   -4.0534   -0.4158 H   0  0  0  0  0  0  0  0  0  0  0  0
    1.1028   -5.1068   -2.0847 H   0  0  0  0  0  0  0  0  0  0  0  0
   -0.4293   -6.0710   -2.0789 H   0  0  0  0  0  0  0  0  0  0  0  0
   -0.1248   -4.9006   -3.3880 H   0  0  0  0  0  0  0  0  0  0  0  0
    2.3607   -1.6312   10.2957 H   0  0  0  0  0  0  0  0  0  0  0  0
    3.8023    0.6173   10.4935 H   0  0  0  0  0  0  0  0  0  0  0  0
    4.4146   -2.0469    5.7444 H   0  0  0  0  0  0  0  0  0  0  0  0
    2.3681   -3.6170    5.1933 H   0  0  0  0  0  0  0  0  0  0  0  0
    6.1885    2.8598    9.3569 H   0  0  0  0  0  0  0  0  0  0  0  0
    1.1605    3.2437    5.6543 H   0  0  0  0  0  0  0  0  0  0  0  0
   -0.0503    4.5385    3.9180 H   0  0  0  0  0  0  0  0  0  0  0  0
   -0.3563    6.6307    2.6483 H   0  0  0  0  0  0  0  0  0  0  0  0
    2.7543    8.5274    4.9152 H   0  0  0  0  0  0  0  0  0  0  0  0
    3.9503    7.2663    6.6469 H   0  0  0  0  0  0  0  0  0  0  0  0
  1  2  2  3
  2  3  1  0
  3  4  2  0
  3  5  1  0
  5  6  2  0
  6  7  1  0
  7  8  2  0
  8  9  1  0
  9 10  2  0
 10 11  1  0
 10 12  1  0
 12 13  2  0
 13 14  1  0
 14 15  2  0
 15 16  1  0
 16 17  2  3
 17 18  1  0
 18 19  3  0
 17 20  1  0
 20 21  3  0
  1 22  1  0
 22 23  2  0
 23 24  1  0
 23 25  1  0
 25 26  1  0
 25 27  2  0
 27 28  1  0
 28 29  2  0
 29 30  1  0
 30 31  1  0
 31 32  1  0
 30 33  2  0
 33 34  1  0
 34 35  2  0
 33 36  1  0
 36 37  1  0
 27 38  1  0
 38 39  2  0
 39 40  1  0
 40 41  1  0
 39 42  1  0
 42 43  1  0
 43 44  1  0
 44 45  1  0
 45 46  2  0
 46 47  1  0
 47 48  2  0
 48 49  1  0
 49 50  1  0
 50 51  1  0
 51 52  1  0
 52 53  1  0
 51 54  2  0
 54 55  1  0
 54 56  1  0
 48 57  1  0
 57 58  1  0
 58 59  2  0
 59 60  1  0
 60 61  1  0
 60 62  2  0
 62 63  1  0
 63 64  1  0
 62 65  1  0
 57 66  2  0
 66 67  1  0
 67 68  2  0
 68 69  1  0
 69 70  1  0
 70 71  1  0
 71 72  1  0
 72 73  1  0
 73 74  1  0
 72 75  2  0
 75 76  1  0
 76 77  1  0
 77 78  1  0
 78 79  1  0
 79 80  1  0
 80 81  1  0
 79 82  1  0
 82 83  2  0
 83 84  1  0
 84 85  1  0
 85 86  1  0
 86 87  1  0
 84 88  1  0
 88 89  1  0
 75 90  1  0
 90 91  1  0
 91 92  1  0
 92 93  2  0
 93 94  1  0
 94 95  1  0
 95 96  2  0
 96 97  1  0
 97 98  1  0
 98 99  1  0
 99100  2  0
100101  1  0
 96102  1  0
102103  2  3
103104  1  0
104105  2  0
104106  1  0
106107  2  0
107108  1  0
108109  2  0
109110  1  0
110111  2  0
111112  1  0
111113  1  0
113114  2  0
114115  1  0
115116  2  0
116117  1  0
117118  2  3
118119  1  0
119120  3  0
118121  1  0
121122  3  0
 16  2  1  0
 35 22  1  0
 87 38  1  0
101 90  2  0
117103  1  0
 15  5  1  0
 35 28  1  0
 86 42  2  0
100 92  1  0
116106  1  0
 13  7  1  0
 85 44  2  0
 98 94  2  0
114108  1  0
 83 45  1  0
 67 46  1  0
 82 68  1  0
 55 49  2  0
 65 58  1  0
 78 69  2  0
 77 71  2  0
  1123  1  0
  6124  1  0
  8125  1  0
  9126  1  0
 12127  1  0
 14128  1  0
 31129  1  0
 31130  1  0
 32131  1  0
 32132  1  0
 32133  1  0
 36134  1  0
 36135  1  0
 37136  1  0
 37137  1  0
 37138  1  0
 40139  1  0
 40140  1  0
 41141  1  0
 41142  1  0
 41143  1  0
 52144  1  0
 52145  1  0
 53146  1  0
 53147  1  0
 53148  1  0
 55149  1  0
 59150  1  0
 63151  1  0
 63152  1  0
 64153  1  0
 64154  1  0
 64155  1  0
 73156  1  0
 73157  1  0
 74158  1  0
 74159  1  0
 74160  1  0
 80161  1  0
 80162  1  0
 81163  1  0
 81164  1  0
 81165  1  0
 88166  1  0
 88167  1  0
 89168  1  0
 89169  1  0
 89170  1  0
 93171  1  0
 95172  1  0
 99173  1  0
101174  1  0
102175  1  0
107176  1  0
109177  1  0
110178  1  0
113179  1  0
115180  1  0
M  END

