
     RDKit          3D

167185  0  0  0  0  0  0  0  0999 V2000
    2.1696    7.6760   -3.0699 C   0  0  0  0  0  0  0  0  0  0  0  0
    2.0788    8.4220   -1.9486 C   0  0  0  0  0  0  0  0  0  0  0  0
    2.5702    8.0073   -0.6286 C   0  0  0  0  0  0  0  0  0  0  0  0
    3.4780    7.1637   -0.3968 O   0  0  0  0  0  0  0  0  0  0  0  0
    1.8333    8.7258    0.3813 C   0  0  0  0  0  0  0  0  0  0  0  0
    1.8633    8.5263    1.7589 C   0  0  0  0  0  0  0  0  0  0  0  0
    0.9668    9.2475    2.5626 C   0  0  0  0  0  0  0  0  0  0  0  0
    0.9549    9.0645    3.9536 C   0  0  0  0  0  0  0  0  0  0  0  0
    0.0291    9.7545    4.7433 C   0  0  0  0  0  0  0  0  0  0  0  0
   -0.8897   10.6305    4.1506 C   0  0  0  0  0  0  0  0  0  0  0  0
   -1.7831   11.2893    4.9256 F   0  0  0  0  0  0  0  0  0  0  0  0
   -0.8820   10.8272    2.7670 C   0  0  0  0  0  0  0  0  0  0  0  0
    0.0413   10.1454    1.9598 C   0  0  0  0  0  0  0  0  0  0  0  0
    0.0362   10.3252    0.5595 C   0  0  0  0  0  0  0  0  0  0  0  0
    0.9672    9.6224   -0.2242 C   0  0  0  0  0  0  0  0  0  0  0  0
    1.1620    9.5791   -1.7066 C   0  0  0  0  0  0  0  0  0  0  0  0
    0.7686   10.5064   -2.6138 C   0  0  0  0  0  0  0  0  0  0  0  0
    1.2103   10.4663   -3.9846 C   0  0  0  0  0  0  0  0  0  0  0  0
    1.5692   10.4276   -5.0831 N   0  0  0  0  0  0  0  0  0  0  0  0
   -0.0223   11.6524   -2.2535 C   0  0  0  0  0  0  0  0  0  0  0  0
   -0.6716   12.5751   -1.9795 N   0  0  0  0  0  0  0  0  0  0  0  0
    2.7107    6.3020   -3.0131 C   0  0  0  0  0  0  0  0  0  0  0  0
    4.0458    6.0451   -3.3659 C   0  0  0  0  0  0  0  0  0  0  0  0
    4.7920    7.0120   -3.9548 F   0  0  0  0  0  0  0  0  0  0  0  0
    4.6390    4.8206   -3.0257 C   0  0  0  0  0  0  0  0  0  0  0  0
    5.9524    4.6195   -3.3021 F   0  0  0  0  0  0  0  0  0  0  0  0
    3.9073    3.8522   -2.3147 C   0  0  0  0  0  0  0  0  0  0  0  0
    2.5478    4.0794   -2.0360 C   0  0  0  0  0  0  0  0  0  0  0  0
    1.8034    3.1540   -1.3734 N   0  0  0  0  0  0  0  0  0  0  0  0
    0.5007    3.3632   -1.0479 C   0  0  0  0  0  0  0  0  0  0  0  0
   -0.2271    2.2660   -0.3185 C   0  0  0  0  0  0  0  0  0  0  0  0
   -0.8731    1.3022   -1.3069 C   0  0  0  0  0  0  0  0  0  0  0  0
   -0.1123    4.5764   -1.4418 C   0  0  0  0  0  0  0  0  0  0  0  0
    0.6425    5.5068   -2.0854 N   0  0  0  0  0  0  0  0  0  0  0  0
    1.9474    5.2938   -2.4005 C   0  0  0  0  0  0  0  0  0  0  0  0
   -1.5413    4.9257   -1.1231 C   0  0  0  0  0  0  0  0  0  0  0  0
   -1.6343    5.7121    0.1800 C   0  0  0  0  0  0  0  0  0  0  0  0
    4.5825    2.6718   -1.7463 C   0  0  0  0  0  0  0  0  0  0  0  0
    5.0402    1.5518   -2.4613 C   0  0  0  0  0  0  0  0  0  0  0  0
    4.9541    1.4303   -3.9221 C   0  0  0  0  0  0  0  0  0  0  0  0
    6.1000    1.6144   -4.7056 C   0  0  0  0  0  0  0  0  0  0  0  0
    6.0117    1.5649   -6.0987 C   0  0  0  0  0  0  0  0  0  0  0  0
    4.7810    1.3197   -6.7166 C   0  0  0  0  0  0  0  0  0  0  0  0
    3.6271    1.1229   -5.9395 C   0  0  0  0  0  0  0  0  0  0  0  0
    2.3043    0.8426   -6.6039 C   0  0  0  0  0  0  0  0  0  0  0  0
    2.2784   -0.5622   -7.2004 C   0  0  0  0  0  0  0  0  0  0  0  0
    3.7213    1.1732   -4.5364 C   0  0  0  0  0  0  0  0  0  0  0  0
    5.3652    0.4981   -1.5996 C   0  0  0  0  0  0  0  0  0  0  0  0
    5.5163   -1.1900   -1.8520 S   0  0  0  0  0  0  0  0  0  0  0  0
    5.3604   -1.4895   -0.1836 C   0  0  0  0  0  0  0  0  0  0  0  0
    4.9572   -2.5232    0.6271 C   0  0  0  0  0  0  0  0  0  0  0  0
    4.9265   -3.9099    0.4584 C   0  0  0  0  0  0  0  0  0  0  0  0
    4.3937   -4.7140    1.5150 C   0  0  0  0  0  0  0  0  0  0  0  0
    4.3675   -6.0523    1.3042 N   0  0  0  0  0  0  0  0  0  0  0  0
    5.0553   -6.1180   -0.2028 S   0  0  0  0  0  0  0  0  0  0  0  0
    5.3813   -4.5546   -0.6440 N   0  0  0  0  0  0  0  0  0  0  0  0
    3.8491   -4.0857    2.6506 C   0  0  0  0  0  0  0  0  0  0  0  0
    2.9560   -4.5641    3.5778 C   0  0  0  0  0  0  0  0  0  0  0  0
    1.9881   -5.9546    3.6094 S   0  0  0  0  0  0  0  0  0  0  0  0
    0.6867   -5.1444    4.3471 C   0  0  0  0  0  0  0  0  0  0  0  0
   -0.6887   -5.4387    4.4667 C   0  0  0  0  0  0  0  0  0  0  0  0
   -1.3286   -6.7758    4.3127 C   0  0  0  0  0  0  0  0  0  0  0  0
   -2.4632   -7.0812    5.0871 C   0  0  0  0  0  0  0  0  0  0  0  0
   -3.0422   -8.3507    5.0397 C   0  0  0  0  0  0  0  0  0  0  0  0
   -2.4909   -9.3407    4.2289 C   0  0  0  0  0  0  0  0  0  0  0  0
   -1.3776   -9.0582    3.4247 C   0  0  0  0  0  0  0  0  0  0  0  0
   -0.7406  -10.1537    2.6087 C   0  0  0  0  0  0  0  0  0  0  0  0
    0.4190  -10.7853    3.3743 C   0  0  0  0  0  0  0  0  0  0  0  0
   -0.8067   -7.7725    3.4576 C   0  0  0  0  0  0  0  0  0  0  0  0
   -1.4207   -4.2649    4.7506 C   0  0  0  0  0  0  0  0  0  0  0  0
   -0.3608   -2.9549    4.8835 S   0  0  0  0  0  0  0  0  0  0  0  0
    1.0208   -3.8309    4.5539 C   0  0  0  0  0  0  0  0  0  0  0  0
    2.2864   -3.4801    4.0752 C   0  0  0  0  0  0  0  0  0  0  0  0
    2.7097   -2.3092    3.5146 N   0  0  0  0  0  0  0  0  0  0  0  0
    3.7700   -2.6887    2.7359 C   0  0  0  0  0  0  0  0  0  0  0  0
    4.4593   -1.9092    1.7821 C   0  0  0  0  0  0  0  0  0  0  0  0
    4.6374   -0.5573    1.7490 N   0  0  0  0  0  0  0  0  0  0  0  0
    5.1637   -0.3419    0.5212 C   0  0  0  0  0  0  0  0  0  0  0  0
    5.1862    0.7871   -0.2707 C   0  0  0  0  0  0  0  0  0  0  0  0
    4.5740    2.3309   -0.0783 S   0  0  0  0  0  0  0  0  0  0  0  0
    4.7640    0.3564    2.8909 C   0  0  0  0  0  0  0  0  0  0  0  0
    6.2334    0.5958    3.2323 C   0  0  0  0  0  0  0  0  0  0  0  0
    1.7911   -1.1990    3.1863 C   0  0  0  0  0  0  0  0  0  0  0  0
    0.8500   -1.5759    2.0339 C   0  0  0  0  0  0  0  0  0  0  0  0
   -2.7822   -4.0038    4.2729 C   0  0  0  0  0  0  0  0  0  0  0  0
   -3.0552   -4.0678    2.9054 C   0  0  0  0  0  0  0  0  0  0  0  0
   -2.2508   -4.4825    1.9126 N   0  0  0  0  0  0  0  0  0  0  0  0
   -2.9036   -4.1821    0.7949 N   0  0  0  0  0  0  0  0  0  0  0  0
   -2.3728   -4.4356   -0.5387 C   0  0  0  0  0  0  0  0  0  0  0  0
   -1.3036   -3.4088   -0.8879 C   0  0  0  0  0  0  0  0  0  0  0  0
   -4.0567   -3.5601    1.0171 N   0  0  0  0  0  0  0  0  0  0  0  0
   -4.1670   -3.5029    2.3579 C   0  0  0  0  0  0  0  0  0  0  0  0
   -5.1343   -2.8541    3.1338 C   0  0  0  0  0  0  0  0  0  0  0  0
   -4.9102   -2.8005    4.5304 C   0  0  0  0  0  0  0  0  0  0  0  0
   -3.7361   -3.3629    5.0926 C   0  0  0  0  0  0  0  0  0  0  0  0
   -5.7853   -2.1403    5.3342 F   0  0  0  0  0  0  0  0  0  0  0  0
   -6.2049   -2.0471    2.5206 C   0  0  0  0  0  0  0  0  0  0  0  0
   -7.0301   -2.4835    1.5473 C   0  0  0  0  0  0  0  0  0  0  0  0
   -7.0771   -3.8457    1.0069 C   0  0  0  0  0  0  0  0  0  0  0  0
   -6.6645   -4.8891    1.5764 O   0  0  0  0  0  0  0  0  0  0  0  0
   -7.7135   -3.7943   -0.2921 C   0  0  0  0  0  0  0  0  0  0  0  0
   -7.8463   -4.8193   -1.2265 C   0  0  0  0  0  0  0  0  0  0  0  0
   -8.4215   -4.5211   -2.4697 C   0  0  0  0  0  0  0  0  0  0  0  0
   -8.5604   -5.4950   -3.4015 F   0  0  0  0  0  0  0  0  0  0  0  0
   -8.8215   -3.2060   -2.7655 C   0  0  0  0  0  0  0  0  0  0  0  0
   -8.6774   -2.1851   -1.8096 C   0  0  0  0  0  0  0  0  0  0  0  0
   -8.1397   -2.5015   -0.5508 C   0  0  0  0  0  0  0  0  0  0  0  0
   -7.8629   -1.6382    0.6354 C   0  0  0  0  0  0  0  0  0  0  0  0
   -8.4173   -0.4283    0.9091 C   0  0  0  0  0  0  0  0  0  0  0  0
   -9.2910    0.2507   -0.0100 C   0  0  0  0  0  0  0  0  0  0  0  0
   -9.9934    0.8112   -0.7428 N   0  0  0  0  0  0  0  0  0  0  0  0
   -8.2926    0.2019    2.2010 C   0  0  0  0  0  0  0  0  0  0  0  0
   -8.1957    0.7159    3.2336 N   0  0  0  0  0  0  0  0  0  0  0  0
    1.6423    7.9535   -3.9702 H   0  0  0  0  0  0  0  0  0  0  0  0
    2.5539    7.8072    2.1908 H   0  0  0  0  0  0  0  0  0  0  0  0
    1.6561    8.3882    4.4262 H   0  0  0  0  0  0  0  0  0  0  0  0
    0.0235    9.6043    5.8160 H   0  0  0  0  0  0  0  0  0  0  0  0
   -1.5973   11.5124    2.3271 H   0  0  0  0  0  0  0  0  0  0  0  0
   -0.7058   10.9666    0.1125 H   0  0  0  0  0  0  0  0  0  0  0  0
    0.4995    1.7017    0.3050 H   0  0  0  0  0  0  0  0  0  0  0  0
   -0.9927    2.6802    0.3685 H   0  0  0  0  0  0  0  0  0  0  0  0
   -0.1055    0.8606   -1.9856 H   0  0  0  0  0  0  0  0  0  0  0  0
   -1.3717    0.4763   -0.7508 H   0  0  0  0  0  0  0  0  0  0  0  0
   -1.6376    1.8262   -1.9243 H   0  0  0  0  0  0  0  0  0  0  0  0
   -2.1856    4.0240   -1.0725 H   0  0  0  0  0  0  0  0  0  0  0  0
   -1.9459    5.5608   -1.9427 H   0  0  0  0  0  0  0  0  0  0  0  0
   -1.0160    6.6361    0.1252 H   0  0  0  0  0  0  0  0  0  0  0  0
   -2.6902    6.0074    0.3608 H   0  0  0  0  0  0  0  0  0  0  0  0
   -1.2875    5.0896    1.0302 H   0  0  0  0  0  0  0  0  0  0  0  0
    7.0546    1.8188   -4.2383 H   0  0  0  0  0  0  0  0  0  0  0  0
    6.9025    1.7156   -6.6997 H   0  0  0  0  0  0  0  0  0  0  0  0
    4.7255    1.2906   -7.7971 H   0  0  0  0  0  0  0  0  0  0  0  0
    1.4736    0.9395   -5.8732 H   0  0  0  0  0  0  0  0  0  0  0  0
    2.1269    1.5885   -7.4065 H   0  0  0  0  0  0  0  0  0  0  0  0
    2.4969   -1.3224   -6.4213 H   0  0  0  0  0  0  0  0  0  0  0  0
    1.2735   -0.7631   -7.6274 H   0  0  0  0  0  0  0  0  0  0  0  0
    3.0273   -0.6478   -8.0154 H   0  0  0  0  0  0  0  0  0  0  0  0
    2.8356    1.0283   -3.9291 H   0  0  0  0  0  0  0  0  0  0  0  0
   -2.8913   -6.3457    5.7543 H   0  0  0  0  0  0  0  0  0  0  0  0
   -3.9101   -8.5734    5.6448 H   0  0  0  0  0  0  0  0  0  0  0  0
   -2.9294  -10.3326    4.2371 H   0  0  0  0  0  0  0  0  0  0  0  0
   -1.4917  -10.9452    2.3801 H   0  0  0  0  0  0  0  0  0  0  0  0
   -0.3714   -9.7501    1.6384 H   0  0  0  0  0  0  0  0  0  0  0  0
    0.8020  -11.6642    2.8092 H   0  0  0  0  0  0  0  0  0  0  0  0
    0.0746  -11.1328    4.3699 H   0  0  0  0  0  0  0  0  0  0  0  0
    1.2424  -10.0526    3.5016 H   0  0  0  0  0  0  0  0  0  0  0  0
    0.0363   -7.5733    2.8171 H   0  0  0  0  0  0  0  0  0  0  0  0
    4.2764    1.3236    2.6524 H   0  0  0  0  0  0  0  0  0  0  0  0
    4.2850   -0.0723    3.7950 H   0  0  0  0  0  0  0  0  0  0  0  0
    6.7832    1.0037    2.3624 H   0  0  0  0  0  0  0  0  0  0  0  0
    6.7074   -0.3558    3.5505 H   0  0  0  0  0  0  0  0  0  0  0  0
    6.3011    1.3270    4.0654 H   0  0  0  0  0  0  0  0  0  0  0  0
    1.2113   -0.9103    4.0861 H   0  0  0  0  0  0  0  0  0  0  0  0
    2.3191   -0.2910    2.8745 H   0  0  0  0  0  0  0  0  0  0  0  0
    1.3780   -1.4900    1.0612 H   0  0  0  0  0  0  0  0  0  0  0  0
    0.4909   -2.6214    2.1217 H   0  0  0  0  0  0  0  0  0  0  0  0
   -0.0326   -0.9060    2.0317 H   0  0  0  0  0  0  0  0  0  0  0  0
   -3.1921   -4.3770   -1.2855 H   0  0  0  0  0  0  0  0  0  0  0  0
   -1.9356   -5.4564   -0.5797 H   0  0  0  0  0  0  0  0  0  0  0  0
   -1.6976   -2.3809   -0.7557 H   0  0  0  0  0  0  0  0  0  0  0  0
   -0.4115   -3.5494   -0.2424 H   0  0  0  0  0  0  0  0  0  0  0  0
   -0.9950   -3.5391   -1.9509 H   0  0  0  0  0  0  0  0  0  0  0  0
   -3.5474   -3.2339    6.1527 H   0  0  0  0  0  0  0  0  0  0  0  0
   -6.2056   -1.0105    2.8125 H   0  0  0  0  0  0  0  0  0  0  0  0
   -7.4958   -5.8189   -1.0064 H   0  0  0  0  0  0  0  0  0  0  0  0
   -9.2302   -2.9741   -3.7420 H   0  0  0  0  0  0  0  0  0  0  0  0
   -8.9453   -1.1785   -2.0843 H   0  0  0  0  0  0  0  0  0  0  0  0
  1  2  2  3
  2  3  1  0
  3  4  2  0
  3  5  1  0
  5  6  2  0
  6  7  1  0
  7  8  2  0
  8  9  1  0
  9 10  2  0
 10 11  1  0
 10 12  1  0
 12 13  2  0
 13 14  1  0
 14 15  2  0
 15 16  1  0
 16 17  2  3
 17 18  1  0
 18 19  3  0
 17 20  1  0
 20 21  3  0
  1 22  1  0
 22 23  2  0
 23 24  1  0
 23 25  1  0
 25 26  1  0
 25 27  2  0
 27 28  1  0
 28 29  2  0
 29 30  1  0
 30 31  1  0
 31 32  1  0
 30 33  2  0
 33 34  1  0
 34 35  2  0
 33 36  1  0
 36 37  1  0
 27 38  1  0
 38 39  2  0
 39 40  1  0
 40 41  2  0
 41 42  1  0
 42 43  2  0
 43 44  1  0
 44 45  1  0
 45 46  1  0
 44 47  2  0
 39 48  1  0
 48 49  1  0
 49 50  1  0
 50 51  1  0
 51 52  1  0
 52 53  1  0
 53 54  2  0
 54 55  1  0
 55 56  1  0
 53 57  1  0
 57 58  1  0
 58 59  1  0
 59 60  1  0
 60 61  1  0
 61 62  1  0
 62 63  2  0
 63 64  1  0
 64 65  2  0
 65 66  1  0
 66 67  1  0
 67 68  1  0
 66 69  2  0
 61 70  2  0
 70 71  1  0
 71 72  1  0
 72 73  1  0
 73 74  1  0
 74 75  1  0
 75 76  1  0
 76 77  1  0
 77 78  1  0
 78 79  1  0
 79 80  1  0
 77 81  1  0
 81 82  1  0
 74 83  1  0
 83 84  1  0
 70 85  1  0
 85 86  1  0
 86 87  2  0
 87 88  1  0
 88 89  1  0
 89 90  1  0
 88 91  1  0
 91 92  2  0
 92 93  1  0
 93 94  2  0
 94 95  1  0
 94 96  1  0
 93 97  1  0
 97 98  2  3
 98 99  1  0
 99100  2  0
 99101  1  0
101102  2  0
102103  1  0
103104  1  0
103105  2  0
105106  1  0
106107  2  0
107108  1  0
108109  2  3
109110  1  0
110111  3  0
109112  1  0
112113  3  0
 16  2  1  0
 35 22  1  0
 80 38  1  0
 95 85  2  0
108 98  1  0
 15  5  1  0
 35 28  1  0
 47 40  1  0
 79 48  2  0
 92 86  1  0
107101  1  0
 13  7  1  0
 78 50  2  0
 76 51  2  0
 56 52  2  0
 75 57  2  0
 73 58  2  0
 72 60  2  0
 69 62  1  0
  1114  1  0
  6115  1  0
  8116  1  0
  9117  1  0
 12118  1  0
 14119  1  0
 31120  1  0
 31121  1  0
 32122  1  0
 32123  1  0
 32124  1  0
 36125  1  0
 36126  1  0
 37127  1  0
 37128  1  0
 37129  1  0
 41130  1  0
 42131  1  0
 43132  1  0
 45133  1  0
 45134  1  0
 46135  1  0
 46136  1  0
 46137  1  0
 47138  1  0
 63139  1  0
 64140  1  0
 65141  1  0
 67142  1  0
 67143  1  0
 68144  1  0
 68145  1  0
 68146  1  0
 69147  1  0
 81148  1  0
 81149  1  0
 82150  1  0
 82151  1  0
 82152  1  0
 83153  1  0
 83154  1  0
 84155  1  0
 84156  1  0
 84157  1  0
 89158  1  0
 89159  1  0
 90160  1  0
 90161  1  0
 90162  1  0
 95163  1  0
 97164  1  0
102165  1  0
105166  1  0
106167  1  0
M  END

