
     RDKit          3D

183203  0  0  0  0  0  0  0  0999 V2000
   -5.2163    6.1291   -2.9031 C   0  0  0  0  0  0  0  0  0  0  0  0
   -4.9461    6.3066   -4.2069 C   0  0  0  0  0  0  0  0  0  0  0  0
   -5.9170    6.9072   -5.1281 C   0  0  0  0  0  0  0  0  0  0  0  0
   -7.1489    7.0471   -4.9134 O   0  0  0  0  0  0  0  0  0  0  0  0
   -5.2059    7.4459   -6.2687 C   0  0  0  0  0  0  0  0  0  0  0  0
   -5.7408    8.0330   -7.4130 C   0  0  0  0  0  0  0  0  0  0  0  0
   -4.8630    8.4416   -8.4341 C   0  0  0  0  0  0  0  0  0  0  0  0
   -5.3549    9.0438   -9.6022 C   0  0  0  0  0  0  0  0  0  0  0  0
   -4.4725    9.4455  -10.6107 C   0  0  0  0  0  0  0  0  0  0  0  0
   -3.0998    9.2381  -10.4722 C   0  0  0  0  0  0  0  0  0  0  0  0
   -2.2534    9.6134  -11.4624 F   0  0  0  0  0  0  0  0  0  0  0  0
   -2.5916    8.6442   -9.3129 C   0  0  0  0  0  0  0  0  0  0  0  0
   -3.4614    8.2464   -8.2836 C   0  0  0  0  0  0  0  0  0  0  0  0
   -2.9542    7.6578   -7.1107 C   0  0  0  0  0  0  0  0  0  0  0  0
   -3.8444    7.2698   -6.0946 C   0  0  0  0  0  0  0  0  0  0  0  0
   -3.5997    6.5866   -4.7893 C   0  0  0  0  0  0  0  0  0  0  0  0
   -2.4105    6.1626   -4.2829 C   0  0  0  0  0  0  0  0  0  0  0  0
   -2.3327    5.3160   -3.1155 C   0  0  0  0  0  0  0  0  0  0  0  0
   -2.2613    4.6416   -2.1817 N   0  0  0  0  0  0  0  0  0  0  0  0
   -1.1409    6.5023   -4.8678 C   0  0  0  0  0  0  0  0  0  0  0  0
   -0.1108    6.7669   -5.3270 N   0  0  0  0  0  0  0  0  0  0  0  0
   -5.7855    4.8326   -2.4168 C   0  0  0  0  0  0  0  0  0  0  0  0
   -6.4989    3.9627   -3.2755 C   0  0  0  0  0  0  0  0  0  0  0  0
   -6.9891    4.3839   -4.4649 F   0  0  0  0  0  0  0  0  0  0  0  0
   -6.6032    2.6044   -2.9766 C   0  0  0  0  0  0  0  0  0  0  0  0
   -7.1482    1.7670   -3.8990 F   0  0  0  0  0  0  0  0  0  0  0  0
   -6.0303    2.0846   -1.8101 C   0  0  0  0  0  0  0  0  0  0  0  0
   -5.5029    2.9662   -0.8528 C   0  0  0  0  0  0  0  0  0  0  0  0
   -4.9894    2.4945    0.3145 N   0  0  0  0  0  0  0  0  0  0  0  0
   -4.3968    3.3089    1.2310 C   0  0  0  0  0  0  0  0  0  0  0  0
   -3.8898    2.6913    2.5076 C   0  0  0  0  0  0  0  0  0  0  0  0
   -4.9545    2.7501    3.6020 C   0  0  0  0  0  0  0  0  0  0  0  0
   -4.3180    4.6941    0.9575 C   0  0  0  0  0  0  0  0  0  0  0  0
   -4.8000    5.1538   -0.2292 N   0  0  0  0  0  0  0  0  0  0  0  0
   -5.3971    4.3414   -1.1457 C   0  0  0  0  0  0  0  0  0  0  0  0
   -3.6478    5.6820    1.8770 C   0  0  0  0  0  0  0  0  0  0  0  0
   -2.1775    5.8569    1.5031 C   0  0  0  0  0  0  0  0  0  0  0  0
   -5.6175    0.6730   -1.8071 C   0  0  0  0  0  0  0  0  0  0  0  0
   -5.9354   -0.3222   -0.8561 C   0  0  0  0  0  0  0  0  0  0  0  0
   -6.8730   -0.1344    0.2697 C   0  0  0  0  0  0  0  0  0  0  0  0
   -8.1353    0.4397    0.0529 C   0  0  0  0  0  0  0  0  0  0  0  0
   -9.0138    0.6315    1.1233 C   0  0  0  0  0  0  0  0  0  0  0  0
   -8.6407    0.2585    2.4177 C   0  0  0  0  0  0  0  0  0  0  0  0
   -7.3678   -0.2855    2.6554 C   0  0  0  0  0  0  0  0  0  0  0  0
   -6.9439   -0.6765    4.0485 C   0  0  0  0  0  0  0  0  0  0  0  0
   -7.2200   -2.1572    4.3007 C   0  0  0  0  0  0  0  0  0  0  0  0
   -6.4925   -0.4848    1.5767 C   0  0  0  0  0  0  0  0  0  0  0  0
   -5.1076   -1.4419   -1.0285 C   0  0  0  0  0  0  0  0  0  0  0  0
   -4.8630   -2.9014   -0.1551 S   0  0  0  0  0  0  0  0  0  0  0  0
   -3.4764   -3.2565   -1.0734 C   0  0  0  0  0  0  0  0  0  0  0  0
   -2.4033   -4.1092   -1.0808 C   0  0  0  0  0  0  0  0  0  0  0  0
   -2.1455   -5.3210   -0.4372 C   0  0  0  0  0  0  0  0  0  0  0  0
   -0.8989   -5.9794   -0.6993 C   0  0  0  0  0  0  0  0  0  0  0  0
   -0.6767   -7.1407   -0.0375 N   0  0  0  0  0  0  0  0  0  0  0  0
   -2.0915   -7.2517    0.8174 S   0  0  0  0  0  0  0  0  0  0  0  0
   -2.9973   -5.9194    0.4333 N   0  0  0  0  0  0  0  0  0  0  0  0
    0.0476   -5.3474   -1.5273 C   0  0  0  0  0  0  0  0  0  0  0  0
    1.4091   -5.5258   -1.5734 C   0  0  0  0  0  0  0  0  0  0  0  0
    2.4901   -6.5049   -0.7061 S   0  0  0  0  0  0  0  0  0  0  0  0
    3.7096   -5.3315   -0.7843 C   0  0  0  0  0  0  0  0  0  0  0  0
    4.8477   -5.1724    0.0047 C   0  0  0  0  0  0  0  0  0  0  0  0
    5.6428   -6.3093    0.4948 C   0  0  0  0  0  0  0  0  0  0  0  0
    6.4515   -7.0063   -0.4145 C   0  0  0  0  0  0  0  0  0  0  0  0
    7.2838   -8.0347    0.0307 C   0  0  0  0  0  0  0  0  0  0  0  0
    7.3150   -8.3753    1.3849 C   0  0  0  0  0  0  0  0  0  0  0  0
    6.4861   -7.7062    2.2992 C   0  0  0  0  0  0  0  0  0  0  0  0
    6.5935   -7.9980    3.7714 C   0  0  0  0  0  0  0  0  0  0  0  0
    7.6556   -7.1052    4.4077 C   0  0  0  0  0  0  0  0  0  0  0  0
    5.6344   -6.6847    1.8448 C   0  0  0  0  0  0  0  0  0  0  0  0
    5.2569   -3.8262    0.0585 C   0  0  0  0  0  0  0  0  0  0  0  0
    4.1889   -2.8932   -0.8825 S   0  0  0  0  0  0  0  0  0  0  0  0
    3.2443   -4.1865   -1.3841 C   0  0  0  0  0  0  0  0  0  0  0  0
    1.9515   -4.3143   -1.8977 C   0  0  0  0  0  0  0  0  0  0  0  0
    1.0068   -3.3807   -2.1914 N   0  0  0  0  0  0  0  0  0  0  0  0
   -0.1762   -4.0590   -2.0333 C   0  0  0  0  0  0  0  0  0  0  0  0
   -1.4758   -3.5204   -1.9491 C   0  0  0  0  0  0  0  0  0  0  0  0
   -2.0003   -2.4292   -2.5713 N   0  0  0  0  0  0  0  0  0  0  0  0
   -3.2112   -2.2950   -1.9899 C   0  0  0  0  0  0  0  0  0  0  0  0
   -4.1547   -1.2940   -2.0009 C   0  0  0  0  0  0  0  0  0  0  0  0
   -4.2844    0.1876   -2.7468 S   0  0  0  0  0  0  0  0  0  0  0  0
   -1.5789   -1.8287   -3.8428 C   0  0  0  0  0  0  0  0  0  0  0  0
   -2.5158   -2.2438   -4.9756 C   0  0  0  0  0  0  0  0  0  0  0  0
    1.2176   -1.9273   -2.0684 C   0  0  0  0  0  0  0  0  0  0  0  0
    2.0898   -1.3900   -3.2026 C   0  0  0  0  0  0  0  0  0  0  0  0
    6.0851   -3.2274    1.1258 C   0  0  0  0  0  0  0  0  0  0  0  0
    5.7684   -3.5060    2.7552 S   0  0  0  0  0  0  0  0  0  0  0  0
    6.5460   -2.1557    3.3710 C   0  0  0  0  0  0  0  0  0  0  0  0
    7.0658   -1.4340    2.2950 C   0  0  0  0  0  0  0  0  0  0  0  0
    7.7370   -0.1205    2.3871 C   0  0  0  0  0  0  0  0  0  0  0  0
    8.0071    0.3786    3.5108 O   0  0  0  0  0  0  0  0  0  0  0  0
    8.0972    0.5775    1.1309 C   0  0  0  0  0  0  0  0  0  0  0  0
    8.6746    1.8500    1.0290 C   0  0  0  0  0  0  0  0  0  0  0  0
    8.9900    2.8158    2.1358 C   0  0  0  0  0  0  0  0  0  0  0  0
    7.7259    3.5092    2.6338 C   0  0  0  0  0  0  0  0  0  0  0  0
    8.9010    2.1927   -0.6029 S   0  0  0  0  0  0  0  0  0  0  0  0
    8.2817    0.7508   -1.2063 C   0  0  0  0  0  0  0  0  0  0  0  0
    8.2920    0.3874   -2.6607 C   0  0  0  0  0  0  0  0  0  0  0  0
    9.5208   -0.4538   -2.9941 C   0  0  0  0  0  0  0  0  0  0  0  0
    7.8825   -0.0417   -0.1229 C   0  0  0  0  0  0  0  0  0  0  0  0
    7.2785   -1.3944   -0.2051 C   0  0  0  0  0  0  0  0  0  0  0  0
    7.1901   -2.0079   -1.3033 O   0  0  0  0  0  0  0  0  0  0  0  0
    6.8115   -2.0320    1.0447 C   0  0  0  0  0  0  0  0  0  0  0  0
    6.4436   -1.7167    4.7702 C   0  0  0  0  0  0  0  0  0  0  0  0
    5.2989   -1.2260    5.2909 C   0  0  0  0  0  0  0  0  0  0  0  0
    4.0286   -1.0919    4.5670 C   0  0  0  0  0  0  0  0  0  0  0  0
    3.8701   -1.0944    3.3172 O   0  0  0  0  0  0  0  0  0  0  0  0
    2.9658   -0.9204    5.5280 C   0  0  0  0  0  0  0  0  0  0  0  0
    1.5951   -0.8885    5.2811 C   0  0  0  0  0  0  0  0  0  0  0  0
    0.7185   -0.7914    6.3728 C   0  0  0  0  0  0  0  0  0  0  0  0
   -0.6688   -0.7695    6.1709 C   0  0  0  0  0  0  0  0  0  0  0  0
   -1.5366   -0.6941    7.2630 C   0  0  0  0  0  0  0  0  0  0  0  0
   -1.0297   -0.6422    8.5638 C   0  0  0  0  0  0  0  0  0  0  0  0
   -1.8821   -0.5824    9.6182 F   0  0  0  0  0  0  0  0  0  0  0  0
    0.3526   -0.6646    8.7839 C   0  0  0  0  0  0  0  0  0  0  0  0
    1.2371   -0.7406    7.6972 C   0  0  0  0  0  0  0  0  0  0  0  0
    2.6319   -0.7871    7.9102 C   0  0  0  0  0  0  0  0  0  0  0  0
    3.4967   -0.8596    6.8041 C   0  0  0  0  0  0  0  0  0  0  0  0
    4.9905   -0.9422    6.7298 C   0  0  0  0  0  0  0  0  0  0  0  0
    5.8768   -0.6412    7.7158 C   0  0  0  0  0  0  0  0  0  0  0  0
    5.4690   -0.3081    9.0578 C   0  0  0  0  0  0  0  0  0  0  0  0
    5.1641   -0.0371   10.1406 N   0  0  0  0  0  0  0  0  0  0  0  0
    7.2934   -0.5187    7.4765 C   0  0  0  0  0  0  0  0  0  0  0  0
    8.4324   -0.4130    7.2925 N   0  0  0  0  0  0  0  0  0  0  0  0
   -4.5197    6.5999   -2.2198 H   0  0  0  0  0  0  0  0  0  0  0  0
   -6.8148    8.1600   -7.5120 H   0  0  0  0  0  0  0  0  0  0  0  0
   -6.4186    9.2049   -9.7330 H   0  0  0  0  0  0  0  0  0  0  0  0
   -4.8612    9.9174  -11.5048 H   0  0  0  0  0  0  0  0  0  0  0  0
   -1.5202    8.5033   -9.2130 H   0  0  0  0  0  0  0  0  0  0  0  0
   -1.8935    7.5081   -7.0315 H   0  0  0  0  0  0  0  0  0  0  0  0
   -2.9589    3.1916    2.8498 H   0  0  0  0  0  0  0  0  0  0  0  0
   -3.6263    1.6249    2.3278 H   0  0  0  0  0  0  0  0  0  0  0  0
   -4.5075    2.4387    4.5689 H   0  0  0  0  0  0  0  0  0  0  0  0
   -5.7889    2.0609    3.3569 H   0  0  0  0  0  0  0  0  0  0  0  0
   -5.3564    3.7779    3.7137 H   0  0  0  0  0  0  0  0  0  0  0  0
   -4.1554    6.6659    1.7915 H   0  0  0  0  0  0  0  0  0  0  0  0
   -3.7266    5.3744    2.9377 H   0  0  0  0  0  0  0  0  0  0  0  0
   -1.7130    6.6112    2.1718 H   0  0  0  0  0  0  0  0  0  0  0  0
   -1.6237    4.9010    1.6127 H   0  0  0  0  0  0  0  0  0  0  0  0
   -2.0866    6.2126    0.4549 H   0  0  0  0  0  0  0  0  0  0  0  0
   -8.4446    0.7280   -0.9433 H   0  0  0  0  0  0  0  0  0  0  0  0
   -9.9888    1.0680    0.9467 H   0  0  0  0  0  0  0  0  0  0  0  0
   -9.3374    0.4058    3.2356 H   0  0  0  0  0  0  0  0  0  0  0  0
   -5.8573   -0.4822    4.1841 H   0  0  0  0  0  0  0  0  0  0  0  0
   -7.4827   -0.0684    4.8063 H   0  0  0  0  0  0  0  0  0  0  0  0
   -6.6799   -2.7844    3.5612 H   0  0  0  0  0  0  0  0  0  0  0  0
   -6.8748   -2.4315    5.3212 H   0  0  0  0  0  0  0  0  0  0  0  0
   -8.3087   -2.3593    4.2257 H   0  0  0  0  0  0  0  0  0  0  0  0
   -5.5035   -0.8835    1.7655 H   0  0  0  0  0  0  0  0  0  0  0  0
    6.4566   -6.7349   -1.4615 H   0  0  0  0  0  0  0  0  0  0  0  0
    7.9202   -8.5572   -0.6763 H   0  0  0  0  0  0  0  0  0  0  0  0
    7.9899   -9.1489    1.7244 H   0  0  0  0  0  0  0  0  0  0  0  0
    5.6152   -7.8234    4.2725 H   0  0  0  0  0  0  0  0  0  0  0  0
    6.8689   -9.0612    3.9339 H   0  0  0  0  0  0  0  0  0  0  0  0
    7.3996   -6.0377    4.2547 H   0  0  0  0  0  0  0  0  0  0  0  0
    8.6495   -7.3095    3.9589 H   0  0  0  0  0  0  0  0  0  0  0  0
    7.7100   -7.3067    5.4981 H   0  0  0  0  0  0  0  0  0  0  0  0
    4.9919   -6.1690    2.5439 H   0  0  0  0  0  0  0  0  0  0  0  0
   -0.5730   -2.1895   -4.1140 H   0  0  0  0  0  0  0  0  0  0  0  0
   -1.5556   -0.7237   -3.7543 H   0  0  0  0  0  0  0  0  0  0  0  0
   -3.5218   -1.7957   -4.8414 H   0  0  0  0  0  0  0  0  0  0  0  0
   -2.6111   -3.3498   -5.0055 H   0  0  0  0  0  0  0  0  0  0  0  0
   -2.1011   -1.8975   -5.9450 H   0  0  0  0  0  0  0  0  0  0  0  0
    1.6872   -1.7058   -1.0888 H   0  0  0  0  0  0  0  0  0  0  0  0
    0.2656   -1.3690   -2.0518 H   0  0  0  0  0  0  0  0  0  0  0  0
    1.5153   -1.3147   -4.1491 H   0  0  0  0  0  0  0  0  0  0  0  0
    2.4583   -0.3784   -2.9411 H   0  0  0  0  0  0  0  0  0  0  0  0
    2.9669   -2.0461   -3.3788 H   0  0  0  0  0  0  0  0  0  0  0  0
    9.4915    2.2915    2.9735 H   0  0  0  0  0  0  0  0  0  0  0  0
    9.7010    3.5827    1.7610 H   0  0  0  0  0  0  0  0  0  0  0  0
    7.2861    4.1239    1.8221 H   0  0  0  0  0  0  0  0  0  0  0  0
    7.9774    4.1735    3.4872 H   0  0  0  0  0  0  0  0  0  0  0  0
    6.9780    2.7636    2.9765 H   0  0  0  0  0  0  0  0  0  0  0  0
    8.3073    1.3123   -3.2745 H   0  0  0  0  0  0  0  0  0  0  0  0
    7.3641   -0.1618   -2.9298 H   0  0  0  0  0  0  0  0  0  0  0  0
   10.4401    0.1600   -2.8846 H   0  0  0  0  0  0  0  0  0  0  0  0
    9.5920   -1.3289   -2.3186 H   0  0  0  0  0  0  0  0  0  0  0  0
    9.4553   -0.8132   -4.0400 H   0  0  0  0  0  0  0  0  0  0  0  0
    7.3080   -1.9062    5.3848 H   0  0  0  0  0  0  0  0  0  0  0  0
    1.2226   -0.9537    4.2672 H   0  0  0  0  0  0  0  0  0  0  0  0
   -1.0842   -0.8151    5.1714 H   0  0  0  0  0  0  0  0  0  0  0  0
   -2.6048   -0.6842    7.0936 H   0  0  0  0  0  0  0  0  0  0  0  0
    0.7267   -0.6325    9.7986 H   0  0  0  0  0  0  0  0  0  0  0  0
    3.0059   -0.8037    8.9199 H   0  0  0  0  0  0  0  0  0  0  0  0
  1  2  2  3
  2  3  1  0
  3  4  2  0
  3  5  1  0
  5  6  2  0
  6  7  1  0
  7  8  2  0
  8  9  1  0
  9 10  2  0
 10 11  1  0
 10 12  1  0
 12 13  2  0
 13 14  1  0
 14 15  2  0
 15 16  1  0
 16 17  2  3
 17 18  1  0
 18 19  3  0
 17 20  1  0
 20 21  3  0
  1 22  1  0
 22 23  2  0
 23 24  1  0
 23 25  1  0
 25 26  1  0
 25 27  2  0
 27 28  1  0
 28 29  2  0
 29 30  1  0
 30 31  1  0
 31 32  1  0
 30 33  2  0
 33 34  1  0
 34 35  2  0
 33 36  1  0
 36 37  1  0
 27 38  1  0
 38 39  2  0
 39 40  1  0
 40 41  2  0
 41 42  1  0
 42 43  2  0
 43 44  1  0
 44 45  1  0
 45 46  1  0
 44 47  2  0
 39 48  1  0
 48 49  1  0
 49 50  1  0
 50 51  1  0
 51 52  1  0
 52 53  1  0
 53 54  2  0
 54 55  1  0
 55 56  1  0
 53 57  1  0
 57 58  1  0
 58 59  1  0
 59 60  1  0
 60 61  1  0
 61 62  1  0
 62 63  2  0
 63 64  1  0
 64 65  2  0
 65 66  1  0
 66 67  1  0
 67 68  1  0
 66 69  2  0
 61 70  2  0
 70 71  1  0
 71 72  1  0
 72 73  1  0
 73 74  1  0
 74 75  1  0
 75 76  1  0
 76 77  1  0
 77 78  1  0
 78 79  1  0
 79 80  1  0
 77 81  1  0
 81 82  1  0
 74 83  1  0
 83 84  1  0
 70 85  1  0
 85 86  1  0
 86 87  1  0
 87 88  2  0
 88 89  1  0
 89 90  2  0
 89 91  1  0
 91 92  2  0
 92 93  1  0
 93 94  1  0
 92 95  1  0
 95 96  1  0
 96 97  1  0
 97 98  1  0
 96 99  2  0
 99100  1  0
100101  2  0
100102  1  0
 87103  1  0
103104  2  3
104105  1  0
105106  2  0
105107  1  0
107108  2  0
108109  1  0
109110  2  0
110111  1  0
111112  2  0
112113  1  0
112114  1  0
114115  2  0
115116  1  0
116117  2  0
117118  1  0
118119  2  3
119120  1  0
120121  3  0
119122  1  0
122123  3  0
 16  2  1  0
 35 22  1  0
 80 38  1  0
102 85  2  0
118104  1  0
 15  5  1  0
 35 28  1  0
 47 40  1  0
 79 48  2  0
102 88  1  0
117107  1  0
 13  7  1  0
 78 50  2  0
 99 91  1  0
115109  1  0
 76 51  2  0
 56 52  2  0
 75 57  2  0
 73 58  2  0
 72 60  2  0
 69 62  1  0
  1124  1  0
  6125  1  0
  8126  1  0
  9127  1  0
 12128  1  0
 14129  1  0
 31130  1  0
 31131  1  0
 32132  1  0
 32133  1  0
 32134  1  0
 36135  1  0
 36136  1  0
 37137  1  0
 37138  1  0
 37139  1  0
 41140  1  0
 42141  1  0
 43142  1  0
 45143  1  0
 45144  1  0
 46145  1  0
 46146  1  0
 46147  1  0
 47148  1  0
 63149  1  0
 64150  1  0
 65151  1  0
 67152  1  0
 67153  1  0
 68154  1  0
 68155  1  0
 68156  1  0
 69157  1  0
 81158  1  0
 81159  1  0
 82160  1  0
 82161  1  0
 82162  1  0
 83163  1  0
 83164  1  0
 84165  1  0
 84166  1  0
 84167  1  0
 93168  1  0
 93169  1  0
 94170  1  0
 94171  1  0
 94172  1  0
 97173  1  0
 97174  1  0
 98175  1  0
 98176  1  0
 98177  1  0
103178  1  0
108179  1  0
110180  1  0
111181  1  0
114182  1  0
116183  1  0
M  END

