
     RDKit          3D

172190  0  0  0  0  0  0  0  0999 V2000
   -2.5173    7.1714   -0.9727 C   0  0  0  0  0  0  0  0  0  0  0  0
   -2.2384    7.0548    0.3421 C   0  0  0  0  0  0  0  0  0  0  0  0
   -3.1753    7.5269    1.3642 C   0  0  0  0  0  0  0  0  0  0  0  0
   -4.0169    8.4544    1.2253 O   0  0  0  0  0  0  0  0  0  0  0  0
   -3.0691    6.6506    2.5139 C   0  0  0  0  0  0  0  0  0  0  0  0
   -3.9197    6.5740    3.6127 C   0  0  0  0  0  0  0  0  0  0  0  0
   -3.7509    5.5132    4.5228 C   0  0  0  0  0  0  0  0  0  0  0  0
   -4.5971    5.3842    5.6329 C   0  0  0  0  0  0  0  0  0  0  0  0
   -4.4517    4.2994    6.5055 C   0  0  0  0  0  0  0  0  0  0  0  0
   -3.4586    3.3411    6.2810 C   0  0  0  0  0  0  0  0  0  0  0  0
   -3.3245    2.2980    7.1332 F   0  0  0  0  0  0  0  0  0  0  0  0
   -2.6006    3.4630    5.1878 C   0  0  0  0  0  0  0  0  0  0  0  0
   -2.7378    4.5381    4.2970 C   0  0  0  0  0  0  0  0  0  0  0  0
   -1.8999    4.6408    3.1720 C   0  0  0  0  0  0  0  0  0  0  0  0
   -2.0645    5.7235    2.2951 C   0  0  0  0  0  0  0  0  0  0  0  0
   -1.3792    6.0293    1.0098 C   0  0  0  0  0  0  0  0  0  0  0  0
   -0.0873    5.7436    0.7217 C   0  0  0  0  0  0  0  0  0  0  0  0
    0.6638    4.7498    1.4442 C   0  0  0  0  0  0  0  0  0  0  0  0
    1.2775    3.9409    2.0051 N   0  0  0  0  0  0  0  0  0  0  0  0
    0.6879    6.5516   -0.1811 C   0  0  0  0  0  0  0  0  0  0  0  0
    1.3422    7.1979   -0.8803 N   0  0  0  0  0  0  0  0  0  0  0  0
   -1.9248    6.3126   -2.0184 C   0  0  0  0  0  0  0  0  0  0  0  0
   -2.3570    4.9795   -2.2106 C   0  0  0  0  0  0  0  0  0  0  0  0
   -3.5673    4.5177   -1.6693 O   0  0  0  0  0  0  0  0  0  0  0  0
   -3.7455    3.9965   -0.3514 C   0  0  0  0  0  0  0  0  0  0  0  0
   -2.7274    2.9136   -0.0022 C   0  0  0  0  0  0  0  0  0  0  0  0
   -1.6161    4.1289   -3.0514 C   0  0  0  0  0  0  0  0  0  0  0  0
   -1.9362    2.7702   -3.2000 O   0  0  0  0  0  0  0  0  0  0  0  0
   -3.2066    2.2848   -3.6235 C   0  0  0  0  0  0  0  0  0  0  0  0
   -3.0573    0.8379   -4.0651 C   0  0  0  0  0  0  0  0  0  0  0  0
   -0.5109    4.6250   -3.7637 C   0  0  0  0  0  0  0  0  0  0  0  0
   -0.2090    5.9917   -3.7233 C   0  0  0  0  0  0  0  0  0  0  0  0
   -0.9371    6.8448   -2.8683 C   0  0  0  0  0  0  0  0  0  0  0  0
   -0.6306    8.1726   -2.8457 N   0  0  0  0  0  0  0  0  0  0  0  0
    0.3603    8.6871   -3.6240 C   0  0  0  0  0  0  0  0  0  0  0  0
    1.0897    7.8372   -4.4542 C   0  0  0  0  0  0  0  0  0  0  0  0
    0.7915    6.5111   -4.4858 N   0  0  0  0  0  0  0  0  0  0  0  0
    0.3533    3.6725   -4.4789 C   0  0  0  0  0  0  0  0  0  0  0  0
    0.1274    3.1077   -5.7584 C   0  0  0  0  0  0  0  0  0  0  0  0
   -0.6982    3.6966   -6.8518 C   0  0  0  0  0  0  0  0  0  0  0  0
   -1.9024    4.3812   -6.5966 C   0  0  0  0  0  0  0  0  0  0  0  0
   -2.6270    4.9609   -7.6389 C   0  0  0  0  0  0  0  0  0  0  0  0
   -2.1623    4.8780   -8.9509 C   0  0  0  0  0  0  0  0  0  0  0  0
   -0.9696    4.1945   -9.2330 C   0  0  0  0  0  0  0  0  0  0  0  0
   -0.4383    4.1433  -10.6425 C   0  0  0  0  0  0  0  0  0  0  0  0
    0.6204    5.2190  -10.8578 C   0  0  0  0  0  0  0  0  0  0  0  0
   -0.2429    3.6119   -8.1806 C   0  0  0  0  0  0  0  0  0  0  0  0
    0.8634    1.9171   -5.8963 C   0  0  0  0  0  0  0  0  0  0  0  0
    0.6658    0.5754   -6.9274 S   0  0  0  0  0  0  0  0  0  0  0  0
    1.7118   -0.3800   -5.9889 C   0  0  0  0  0  0  0  0  0  0  0  0
    1.7939   -1.7195   -5.7046 C   0  0  0  0  0  0  0  0  0  0  0  0
    1.0336   -2.7795   -6.2264 C   0  0  0  0  0  0  0  0  0  0  0  0
    0.9175   -3.9876   -5.4749 C   0  0  0  0  0  0  0  0  0  0  0  0
    0.1148   -4.9582   -5.9774 N   0  0  0  0  0  0  0  0  0  0  0  0
   -0.4042   -4.2021   -7.3549 S   0  0  0  0  0  0  0  0  0  0  0  0
    0.3110   -2.7070   -7.3716 N   0  0  0  0  0  0  0  0  0  0  0  0
    1.6376   -4.1090   -4.2839 C   0  0  0  0  0  0  0  0  0  0  0  0
    1.6614   -5.0811   -3.3204 C   0  0  0  0  0  0  0  0  0  0  0  0
    0.7094   -6.3850   -2.7786 S   0  0  0  0  0  0  0  0  0  0  0  0
    1.5200   -6.3994   -1.2646 C   0  0  0  0  0  0  0  0  0  0  0  0
    1.2351   -6.9790   -0.0150 C   0  0  0  0  0  0  0  0  0  0  0  0
    0.2410   -8.0582    0.1990 C   0  0  0  0  0  0  0  0  0  0  0  0
   -0.6013   -8.0580    1.3272 C   0  0  0  0  0  0  0  0  0  0  0  0
   -1.5011   -9.1053    1.5427 C   0  0  0  0  0  0  0  0  0  0  0  0
   -1.5768  -10.1613    0.6357 C   0  0  0  0  0  0  0  0  0  0  0  0
   -0.7486  -10.1798   -0.4981 C   0  0  0  0  0  0  0  0  0  0  0  0
   -0.8572  -11.2957   -1.5019 C   0  0  0  0  0  0  0  0  0  0  0  0
   -1.8447  -10.9368   -2.6034 C   0  0  0  0  0  0  0  0  0  0  0  0
    0.1435   -9.1149   -0.7230 C   0  0  0  0  0  0  0  0  0  0  0  0
    2.0220   -6.3718    0.9926 C   0  0  0  0  0  0  0  0  0  0  0  0
    2.9982   -5.1459    0.3304 S   0  0  0  0  0  0  0  0  0  0  0  0
    2.4673   -5.4071   -1.2223 C   0  0  0  0  0  0  0  0  0  0  0  0
    2.5333   -4.6643   -2.3784 C   0  0  0  0  0  0  0  0  0  0  0  0
    3.1008   -3.4708   -2.6464 N   0  0  0  0  0  0  0  0  0  0  0  0
    2.4723   -3.0802   -3.8022 C   0  0  0  0  0  0  0  0  0  0  0  0
    2.4324   -1.8133   -4.4517 C   0  0  0  0  0  0  0  0  0  0  0  0
    2.6002   -0.5572   -3.9155 N   0  0  0  0  0  0  0  0  0  0  0  0
    2.1544    0.2819   -4.8855 C   0  0  0  0  0  0  0  0  0  0  0  0
    1.6549    1.5810   -4.8248 C   0  0  0  0  0  0  0  0  0  0  0  0
    1.4343    2.6991   -3.6047 S   0  0  0  0  0  0  0  0  0  0  0  0
    2.7391   -0.1759   -2.5052 C   0  0  0  0  0  0  0  0  0  0  0  0
    1.4719   -0.4965   -1.7134 C   0  0  0  0  0  0  0  0  0  0  0  0
    4.4130   -3.0918   -2.0884 C   0  0  0  0  0  0  0  0  0  0  0  0
    5.3816   -2.5735   -3.1534 C   0  0  0  0  0  0  0  0  0  0  0  0
    1.9397   -6.5386    2.4426 C   0  0  0  0  0  0  0  0  0  0  0  0
    2.9164   -7.2062    3.1687 C   0  0  0  0  0  0  0  0  0  0  0  0
    3.1511   -6.6779    4.4550 C   0  0  0  0  0  0  0  0  0  0  0  0
    4.2559   -7.1882    5.3088 C   0  0  0  0  0  0  0  0  0  0  0  0
    5.2312   -7.7607    4.7547 O   0  0  0  0  0  0  0  0  0  0  0  0
    4.2425   -7.0858    6.8124 C   0  0  0  0  0  0  0  0  0  0  0  0
    3.0127   -7.7590    7.4161 C   0  0  0  0  0  0  0  0  0  0  0  0
    2.3557   -5.5580    4.7486 C   0  0  0  0  0  0  0  0  0  0  0  0
    1.3902   -5.2854    3.4036 S   0  0  0  0  0  0  0  0  0  0  0  0
    2.7862   -4.4271    5.5851 C   0  0  0  0  0  0  0  0  0  0  0  0
    1.9689   -3.4338    5.9691 C   0  0  0  0  0  0  0  0  0  0  0  0
    0.5501   -3.5634    6.3057 C   0  0  0  0  0  0  0  0  0  0  0  0
   -0.1788   -4.5756    6.1195 O   0  0  0  0  0  0  0  0  0  0  0  0
    0.1477   -2.3546    7.0088 C   0  0  0  0  0  0  0  0  0  0  0  0
   -1.0760   -2.0792    7.6228 C   0  0  0  0  0  0  0  0  0  0  0  0
   -1.2157   -0.8721    8.3315 C   0  0  0  0  0  0  0  0  0  0  0  0
   -2.4218   -0.5644    8.9827 C   0  0  0  0  0  0  0  0  0  0  0  0
   -2.5423    0.6219    9.7112 C   0  0  0  0  0  0  0  0  0  0  0  0
   -1.4702    1.5189    9.7842 C   0  0  0  0  0  0  0  0  0  0  0  0
   -1.5973    2.6685   10.4922 F   0  0  0  0  0  0  0  0  0  0  0  0
   -0.2625    1.2268    9.1414 C   0  0  0  0  0  0  0  0  0  0  0  0
   -0.1181    0.0311    8.4224 C   0  0  0  0  0  0  0  0  0  0  0  0
    1.1083   -0.2816    7.8012 C   0  0  0  0  0  0  0  0  0  0  0  0
    1.2227   -1.4814    7.0841 C   0  0  0  0  0  0  0  0  0  0  0  0
    2.3803   -2.0499    6.3419 C   0  0  0  0  0  0  0  0  0  0  0  0
    3.3933   -1.3519    5.7647 C   0  0  0  0  0  0  0  0  0  0  0  0
    3.6117    0.0493    6.0135 C   0  0  0  0  0  0  0  0  0  0  0  0
    3.7908    1.1802    6.1884 N   0  0  0  0  0  0  0  0  0  0  0  0
    4.1457   -1.9006    4.6627 C   0  0  0  0  0  0  0  0  0  0  0  0
    4.7074   -2.3319    3.7499 N   0  0  0  0  0  0  0  0  0  0  0  0
   -3.2855    7.8681   -1.2859 H   0  0  0  0  0  0  0  0  0  0  0  0
   -4.7099    7.3056    3.7402 H   0  0  0  0  0  0  0  0  0  0  0  0
   -5.3766    6.1143    5.8179 H   0  0  0  0  0  0  0  0  0  0  0  0
   -5.1149    4.2011    7.3573 H   0  0  0  0  0  0  0  0  0  0  0  0
   -1.8325    2.7145    5.0329 H   0  0  0  0  0  0  0  0  0  0  0  0
   -1.1830    3.8608    2.9702 H   0  0  0  0  0  0  0  0  0  0  0  0
   -3.7197    4.8121    0.3894 H   0  0  0  0  0  0  0  0  0  0  0  0
   -4.7638    3.5533   -0.2875 H   0  0  0  0  0  0  0  0  0  0  0  0
   -2.8294    2.0543   -0.6907 H   0  0  0  0  0  0  0  0  0  0  0  0
   -2.9127    2.5549    1.0316 H   0  0  0  0  0  0  0  0  0  0  0  0
   -1.6960    3.3131   -0.0607 H   0  0  0  0  0  0  0  0  0  0  0  0
   -3.5839    2.8834   -4.4803 H   0  0  0  0  0  0  0  0  0  0  0  0
   -3.9456    2.3336   -2.7973 H   0  0  0  0  0  0  0  0  0  0  0  0
   -4.0333    0.4410   -4.4077 H   0  0  0  0  0  0  0  0  0  0  0  0
   -2.6876    0.2195   -3.2183 H   0  0  0  0  0  0  0  0  0  0  0  0
   -2.3293    0.7744   -4.9029 H   0  0  0  0  0  0  0  0  0  0  0  0
    0.5842    9.7438   -3.5879 H   0  0  0  0  0  0  0  0  0  0  0  0
    1.8866    8.2264   -5.0703 H   0  0  0  0  0  0  0  0  0  0  0  0
   -2.2999    4.4687   -5.6050 H   0  0  0  0  0  0  0  0  0  0  0  0
   -3.5485    5.4879   -7.4286 H   0  0  0  0  0  0  0  0  0  0  0  0
   -2.7254    5.3519   -9.7481 H   0  0  0  0  0  0  0  0  0  0  0  0
    0.0096    3.1460  -10.8359 H   0  0  0  0  0  0  0  0  0  0  0  0
   -1.2625    4.2874  -11.3741 H   0  0  0  0  0  0  0  0  0  0  0  0
    1.0153    5.1532  -11.8956 H   0  0  0  0  0  0  0  0  0  0  0  0
    1.4630    5.0837  -10.1492 H   0  0  0  0  0  0  0  0  0  0  0  0
    0.1793    6.2273  -10.7134 H   0  0  0  0  0  0  0  0  0  0  0  0
    0.6951    3.1250   -8.4023 H   0  0  0  0  0  0  0  0  0  0  0  0
   -0.5809   -7.2427    2.0354 H   0  0  0  0  0  0  0  0  0  0  0  0
   -2.1403   -9.0999    2.4183 H   0  0  0  0  0  0  0  0  0  0  0  0
   -2.2853  -10.9619    0.8116 H   0  0  0  0  0  0  0  0  0  0  0  0
    0.1388  -11.4997   -1.9558 H   0  0  0  0  0  0  0  0  0  0  0  0
   -1.1885  -12.2347   -1.0029 H   0  0  0  0  0  0  0  0  0  0  0  0
   -1.9328  -11.7817   -3.3196 H   0  0  0  0  0  0  0  0  0  0  0  0
   -1.4950  -10.0380   -3.1569 H   0  0  0  0  0  0  0  0  0  0  0  0
   -2.8468  -10.7310   -2.1701 H   0  0  0  0  0  0  0  0  0  0  0  0
    0.7827   -9.1321   -1.5960 H   0  0  0  0  0  0  0  0  0  0  0  0
    3.6100   -0.6485   -2.0558 H   0  0  0  0  0  0  0  0  0  0  0  0
    2.9718    0.9033   -2.4103 H   0  0  0  0  0  0  0  0  0  0  0  0
    0.6004    0.0260   -2.1642 H   0  0  0  0  0  0  0  0  0  0  0  0
    1.2753   -1.5897   -1.7118 H   0  0  0  0  0  0  0  0  0  0  0  0
    1.5939   -0.1605   -0.6653 H   0  0  0  0  0  0  0  0  0  0  0  0
    4.3038   -2.4101   -1.2233 H   0  0  0  0  0  0  0  0  0  0  0  0
    4.8997   -3.9977   -1.6613 H   0  0  0  0  0  0  0  0  0  0  0  0
    5.4716   -3.3118   -3.9769 H   0  0  0  0  0  0  0  0  0  0  0  0
    5.0571   -1.6024   -3.5714 H   0  0  0  0  0  0  0  0  0  0  0  0
    6.3852   -2.4307   -2.7027 H   0  0  0  0  0  0  0  0  0  0  0  0
    3.5372   -7.9789    2.7290 H   0  0  0  0  0  0  0  0  0  0  0  0
    5.1473   -7.5876    7.2195 H   0  0  0  0  0  0  0  0  0  0  0  0
    4.2927   -6.0297    7.1384 H   0  0  0  0  0  0  0  0  0  0  0  0
    2.0930   -7.1989    7.1424 H   0  0  0  0  0  0  0  0  0  0  0  0
    3.1036   -7.7658    8.5224 H   0  0  0  0  0  0  0  0  0  0  0  0
    2.9301   -8.8086    7.0595 H   0  0  0  0  0  0  0  0  0  0  0  0
    3.8569   -4.2758    5.6509 H   0  0  0  0  0  0  0  0  0  0  0  0
   -1.8929   -2.7875    7.5544 H   0  0  0  0  0  0  0  0  0  0  0  0
   -3.2669   -1.2382    8.9289 H   0  0  0  0  0  0  0  0  0  0  0  0
   -3.4718    0.8567   10.2148 H   0  0  0  0  0  0  0  0  0  0  0  0
    0.5646    1.9197    9.2321 H   0  0  0  0  0  0  0  0  0  0  0  0
    1.9492    0.3815    7.9243 H   0  0  0  0  0  0  0  0  0  0  0  0
  1  2  2  3
  2  3  1  0
  3  4  2  0
  3  5  1  0
  5  6  2  0
  6  7  1  0
  7  8  2  0
  8  9  1  0
  9 10  2  0
 10 11  1  0
 10 12  1  0
 12 13  2  0
 13 14  1  0
 14 15  2  0
 15 16  1  0
 16 17  2  3
 17 18  1  0
 18 19  3  0
 17 20  1  0
 20 21  3  0
  1 22  1  0
 22 23  2  0
 23 24  1  0
 24 25  1  0
 25 26  1  0
 23 27  1  0
 27 28  1  0
 28 29  1  0
 29 30  1  0
 27 31  2  0
 31 32  1  0
 32 33  2  0
 33 34  1  0
 34 35  2  0
 35 36  1  0
 36 37  2  0
 31 38  1  0
 38 39  2  0
 39 40  1  0
 40 41  2  0
 41 42  1  0
 42 43  2  0
 43 44  1  0
 44 45  1  0
 45 46  1  0
 44 47  2  0
 39 48  1  0
 48 49  1  0
 49 50  1  0
 50 51  1  0
 51 52  1  0
 52 53  1  0
 53 54  2  0
 54 55  1  0
 55 56  1  0
 53 57  1  0
 57 58  1  0
 58 59  1  0
 59 60  1  0
 60 61  1  0
 61 62  1  0
 62 63  2  0
 63 64  1  0
 64 65  2  0
 65 66  1  0
 66 67  1  0
 67 68  1  0
 66 69  2  0
 61 70  2  0
 70 71  1  0
 71 72  1  0
 72 73  1  0
 73 74  1  0
 74 75  1  0
 75 76  1  0
 76 77  1  0
 77 78  1  0
 78 79  1  0
 79 80  1  0
 77 81  1  0
 81 82  1  0
 74 83  1  0
 83 84  1  0
 70 85  1  0
 85 86  2  0
 86 87  1  0
 87 88  1  0
 88 89  2  0
 88 90  1  0
 90 91  1  0
 87 92  2  0
 92 93  1  0
 92 94  1  0
 94 95  2  3
 95 96  1  0
 96 97  2  0
 96 98  1  0
 98 99  2  0
 99100  1  0
100101  2  0
101102  1  0
102103  2  0
103104  1  0
103105  1  0
105106  2  0
106107  1  0
107108  2  0
108109  1  0
109110  2  3
110111  1  0
111112  3  0
110113  1  0
113114  3  0
 16  2  1  0
 33 22  1  0
 80 38  1  0
 93 85  1  0
109 95  1  0
 15  5  1  0
 37 32  1  0
 47 40  1  0
 79 48  2  0
108 98  1  0
 13  7  1  0
 78 50  2  0
106100  1  0
 76 51  2  0
 56 52  2  0
 75 57  2  0
 73 58  2  0
 72 60  2  0
 69 62  1  0
  1115  1  0
  6116  1  0
  8117  1  0
  9118  1  0
 12119  1  0
 14120  1  0
 25121  1  0
 25122  1  0
 26123  1  0
 26124  1  0
 26125  1  0
 29126  1  0
 29127  1  0
 30128  1  0
 30129  1  0
 30130  1  0
 35131  1  0
 36132  1  0
 41133  1  0
 42134  1  0
 43135  1  0
 45136  1  0
 45137  1  0
 46138  1  0
 46139  1  0
 46140  1  0
 47141  1  0
 63142  1  0
 64143  1  0
 65144  1  0
 67145  1  0
 67146  1  0
 68147  1  0
 68148  1  0
 68149  1  0
 69150  1  0
 81151  1  0
 81152  1  0
 82153  1  0
 82154  1  0
 82155  1  0
 83156  1  0
 83157  1  0
 84158  1  0
 84159  1  0
 84160  1  0
 86161  1  0
 90162  1  0
 90163  1  0
 91164  1  0
 91165  1  0
 91166  1  0
 94167  1  0
 99168  1  0
101169  1  0
102170  1  0
105171  1  0
107172  1  0
M  END

