
     RDKit          3D

190209  0  0  0  0  0  0  0  0999 V2000
    7.9469    8.0985    2.5979 C   0  0  0  0  0  0  0  0  0  0  0  0
    8.7217    7.6784    1.5743 C   0  0  0  0  0  0  0  0  0  0  0  0
    8.3365    6.6726    0.5709 C   0  0  0  0  0  0  0  0  0  0  0  0
    7.5230    5.7250    0.7357 O   0  0  0  0  0  0  0  0  0  0  0  0
    9.0554    6.9497   -0.6525 C   0  0  0  0  0  0  0  0  0  0  0  0
    8.7901    6.4531   -1.9263 C   0  0  0  0  0  0  0  0  0  0  0  0
    9.4207    7.0555   -3.0283 C   0  0  0  0  0  0  0  0  0  0  0  0
    9.1122    6.6532   -4.3364 C   0  0  0  0  0  0  0  0  0  0  0  0
    9.6954    7.2990   -5.4251 C   0  0  0  0  0  0  0  0  0  0  0  0
   10.5944    8.3464   -5.2281 C   0  0  0  0  0  0  0  0  0  0  0  0
   11.1463    8.9774   -6.2937 F   0  0  0  0  0  0  0  0  0  0  0  0
   10.9099    8.7673   -3.9333 C   0  0  0  0  0  0  0  0  0  0  0  0
   10.3231    8.1352   -2.8199 C   0  0  0  0  0  0  0  0  0  0  0  0
   10.5781    8.6091   -1.5190 C   0  0  0  0  0  0  0  0  0  0  0  0
    9.9399    7.9913   -0.4360 C   0  0  0  0  0  0  0  0  0  0  0  0
    9.8966    8.3914    1.0015 C   0  0  0  0  0  0  0  0  0  0  0  0
   10.8477    9.0697    1.6875 C   0  0  0  0  0  0  0  0  0  0  0  0
   12.0474    9.5556    1.0571 C   0  0  0  0  0  0  0  0  0  0  0  0
   13.0205    9.9425    0.5636 N   0  0  0  0  0  0  0  0  0  0  0  0
   10.8031    9.1962    3.1225 C   0  0  0  0  0  0  0  0  0  0  0  0
   10.7792    9.3000    4.2750 N   0  0  0  0  0  0  0  0  0  0  0  0
    6.5639    7.6024    2.7705 C   0  0  0  0  0  0  0  0  0  0  0  0
    6.2103    6.8733    3.9084 C   0  0  0  0  0  0  0  0  0  0  0  0
    7.0819    6.7620    4.9443 F   0  0  0  0  0  0  0  0  0  0  0  0
    4.9897    6.1872    3.9620 C   0  0  0  0  0  0  0  0  0  0  0  0
    4.7058    5.4652    5.0800 F   0  0  0  0  0  0  0  0  0  0  0  0
    4.1162    6.1757    2.8516 C   0  0  0  0  0  0  0  0  0  0  0  0
    4.4386    7.0005    1.7411 C   0  0  0  0  0  0  0  0  0  0  0  0
    3.6411    7.0605    0.6444 N   0  0  0  0  0  0  0  0  0  0  0  0
    3.8959    7.8762   -0.4145 C   0  0  0  0  0  0  0  0  0  0  0  0
    2.8945    7.9175   -1.5359 C   0  0  0  0  0  0  0  0  0  0  0  0
    1.8558    9.0170   -1.3026 C   0  0  0  0  0  0  0  0  0  0  0  0
    5.0498    8.6926   -0.3742 C   0  0  0  0  0  0  0  0  0  0  0  0
    5.8876    8.5779    0.6883 N   0  0  0  0  0  0  0  0  0  0  0  0
    5.6242    7.7581    1.7408 C   0  0  0  0  0  0  0  0  0  0  0  0
    5.4251    9.6518   -1.4725 C   0  0  0  0  0  0  0  0  0  0  0  0
    6.3431    8.9934   -2.4907 C   0  0  0  0  0  0  0  0  0  0  0  0
    3.0308    5.1456    2.7930 C   0  0  0  0  0  0  0  0  0  0  0  0
    1.8039    5.1693    2.0719 C   0  0  0  0  0  0  0  0  0  0  0  0
    0.9792    6.3736    1.6678 C   0  0  0  0  0  0  0  0  0  0  0  0
    1.0365    7.5101    2.6892 C   0  0  0  0  0  0  0  0  0  0  0  0
    1.3077    3.8733    1.9028 C   0  0  0  0  0  0  0  0  0  0  0  0
    0.2506    3.2093    0.7350 S   0  0  0  0  0  0  0  0  0  0  0  0
    0.5959    1.6434    1.2844 C   0  0  0  0  0  0  0  0  0  0  0  0
    0.4933    0.3577    0.8257 C   0  0  0  0  0  0  0  0  0  0  0  0
    0.1111   -0.1436   -0.4256 C   0  0  0  0  0  0  0  0  0  0  0  0
   -0.3538    0.6627   -1.4113 N   0  0  0  0  0  0  0  0  0  0  0  0
   -0.6687    0.1781   -2.6434 C   0  0  0  0  0  0  0  0  0  0  0  0
   -0.9886    1.1551   -3.6973 C   0  0  0  0  0  0  0  0  0  0  0  0
   -0.3534    1.1673   -5.2608 S   0  0  0  0  0  0  0  0  0  0  0  0
   -1.0027    2.6509   -5.7113 C   0  0  0  0  0  0  0  0  0  0  0  0
   -0.7845    3.3281   -7.0286 C   0  0  0  0  0  0  0  0  0  0  0  0
    0.5672    4.0295   -7.0611 C   0  0  0  0  0  0  0  0  0  0  0  0
   -1.6797    3.1840   -4.6188 C   0  0  0  0  0  0  0  0  0  0  0  0
   -1.6688    2.3548   -3.4916 C   0  0  0  0  0  0  0  0  0  0  0  0
   -2.2702    4.4066   -4.6263 F   0  0  0  0  0  0  0  0  0  0  0  0
   -0.5533   -1.2176   -2.8814 C   0  0  0  0  0  0  0  0  0  0  0  0
   -0.9692   -1.8789   -4.1353 C   0  0  0  0  0  0  0  0  0  0  0  0
   -2.0644   -1.5545   -4.9356 C   0  0  0  0  0  0  0  0  0  0  0  0
   -2.2287   -2.4230   -6.0186 C   0  0  0  0  0  0  0  0  0  0  0  0
   -3.2077   -2.2697   -6.9458 F   0  0  0  0  0  0  0  0  0  0  0  0
   -1.3006   -3.4553   -6.0515 C   0  0  0  0  0  0  0  0  0  0  0  0
   -1.1862   -4.5133   -7.1051 C   0  0  0  0  0  0  0  0  0  0  0  0
   -0.3584   -4.0130   -8.2833 C   0  0  0  0  0  0  0  0  0  0  0  0
   -0.2515   -3.2711   -4.7513 S   0  0  0  0  0  0  0  0  0  0  0  0
   -0.0448   -2.0133   -1.9008 N   0  0  0  0  0  0  0  0  0  0  0  0
    0.3154   -1.5128   -0.6931 C   0  0  0  0  0  0  0  0  0  0  0  0
    0.8511   -2.3316    0.3199 C   0  0  0  0  0  0  0  0  0  0  0  0
    0.6944   -3.6859    0.4870 C   0  0  0  0  0  0  0  0  0  0  0  0
   -0.2683   -4.8239   -0.3202 S   0  0  0  0  0  0  0  0  0  0  0  0
   -0.5644   -5.6828    1.1081 C   0  0  0  0  0  0  0  0  0  0  0  0
   -1.5858   -6.5831    1.4208 C   0  0  0  0  0  0  0  0  0  0  0  0
   -2.4394   -7.2806    0.3929 C   0  0  0  0  0  0  0  0  0  0  0  0
   -3.5464   -6.3786   -0.1531 C   0  0  0  0  0  0  0  0  0  0  0  0
   -1.8257   -6.6210    2.8104 C   0  0  0  0  0  0  0  0  0  0  0  0
   -0.7740   -5.5370    3.5928 S   0  0  0  0  0  0  0  0  0  0  0  0
    0.0187   -5.0593    2.1891 C   0  0  0  0  0  0  0  0  0  0  0  0
    0.7651   -3.9253    1.8301 C   0  0  0  0  0  0  0  0  0  0  0  0
    1.0884   -2.8030    2.5350 N   0  0  0  0  0  0  0  0  0  0  0  0
    0.8573   -2.6268    3.9726 C   0  0  0  0  0  0  0  0  0  0  0  0
   -0.5029   -1.9734    4.2430 C   0  0  0  0  0  0  0  0  0  0  0  0
    1.2066   -1.8247    1.5789 C   0  0  0  0  0  0  0  0  0  0  0  0
    1.1699   -0.4255    1.7655 C   0  0  0  0  0  0  0  0  0  0  0  0
    1.8527    0.3606    2.6602 N   0  0  0  0  0  0  0  0  0  0  0  0
    1.4687    1.6215    2.3218 C   0  0  0  0  0  0  0  0  0  0  0  0
    1.9459    2.8913    2.6133 C   0  0  0  0  0  0  0  0  0  0  0  0
    3.3109    3.5415    3.3205 S   0  0  0  0  0  0  0  0  0  0  0  0
    3.0470    0.0172    3.4374 C   0  0  0  0  0  0  0  0  0  0  0  0
    2.8580    0.3558    4.9153 C   0  0  0  0  0  0  0  0  0  0  0  0
   -3.1177   -7.0319    3.3837 C   0  0  0  0  0  0  0  0  0  0  0  0
   -3.3438   -8.3668    3.7438 C   0  0  0  0  0  0  0  0  0  0  0  0
   -2.3193   -9.2559    3.7513 F   0  0  0  0  0  0  0  0  0  0  0  0
   -4.6380   -8.8031    4.0515 C   0  0  0  0  0  0  0  0  0  0  0  0
   -4.8357  -10.0990    4.4068 F   0  0  0  0  0  0  0  0  0  0  0  0
   -5.7321   -7.9198    3.9495 C   0  0  0  0  0  0  0  0  0  0  0  0
   -5.4982   -6.5701    3.6337 C   0  0  0  0  0  0  0  0  0  0  0  0
   -6.5279   -5.6936    3.4873 N   0  0  0  0  0  0  0  0  0  0  0  0
   -6.3320   -4.3954    3.1216 C   0  0  0  0  0  0  0  0  0  0  0  0
   -7.5392   -3.5137    2.9432 C   0  0  0  0  0  0  0  0  0  0  0  0
   -7.9359   -2.8599    4.2636 C   0  0  0  0  0  0  0  0  0  0  0  0
   -5.0067   -3.9327    2.9388 C   0  0  0  0  0  0  0  0  0  0  0  0
   -3.9860   -4.8222    3.0588 N   0  0  0  0  0  0  0  0  0  0  0  0
   -4.1888   -6.1235    3.3846 C   0  0  0  0  0  0  0  0  0  0  0  0
   -4.6527   -2.5209    2.5422 C   0  0  0  0  0  0  0  0  0  0  0  0
   -4.5055   -2.4061    1.0293 C   0  0  0  0  0  0  0  0  0  0  0  0
   -7.1098   -8.3955    4.1948 C   0  0  0  0  0  0  0  0  0  0  0  0
   -7.7175   -9.3314    3.4349 C   0  0  0  0  0  0  0  0  0  0  0  0
   -7.2073   -9.8486    2.1587 C   0  0  0  0  0  0  0  0  0  0  0  0
   -6.0790   -9.6162    1.6480 O   0  0  0  0  0  0  0  0  0  0  0  0
   -8.2560  -10.6095    1.5236 C   0  0  0  0  0  0  0  0  0  0  0  0
   -8.1930  -11.2870    0.3026 C   0  0  0  0  0  0  0  0  0  0  0  0
   -9.3136  -12.0201   -0.1145 C   0  0  0  0  0  0  0  0  0  0  0  0
   -9.2821  -12.7416   -1.3184 C   0  0  0  0  0  0  0  0  0  0  0  0
  -10.3959  -13.4889   -1.7159 C   0  0  0  0  0  0  0  0  0  0  0  0
  -11.5441  -13.5197   -0.9239 C   0  0  0  0  0  0  0  0  0  0  0  0
  -12.6181  -14.2470   -1.3143 F   0  0  0  0  0  0  0  0  0  0  0  0
  -11.5938  -12.7930    0.2736 C   0  0  0  0  0  0  0  0  0  0  0  0
  -10.4842  -12.0448    0.6925 C   0  0  0  0  0  0  0  0  0  0  0  0
  -10.5208  -11.3359    1.9059 C   0  0  0  0  0  0  0  0  0  0  0  0
   -9.3880  -10.6076    2.3168 C   0  0  0  0  0  0  0  0  0  0  0  0
   -9.1175   -9.8460    3.5760 C   0  0  0  0  0  0  0  0  0  0  0  0
   -9.9437   -9.7132    4.6528 C   0  0  0  0  0  0  0  0  0  0  0  0
  -11.3314  -10.0918    4.6274 C   0  0  0  0  0  0  0  0  0  0  0  0
  -12.4537  -10.3737    4.6164 N   0  0  0  0  0  0  0  0  0  0  0  0
   -9.4837   -9.2313    5.9260 C   0  0  0  0  0  0  0  0  0  0  0  0
   -9.1351   -8.8465    6.9610 N   0  0  0  0  0  0  0  0  0  0  0  0
    8.2570    8.9103    3.2363 H   0  0  0  0  0  0  0  0  0  0  0  0
    8.0488    5.6748   -2.0636 H   0  0  0  0  0  0  0  0  0  0  0  0
    8.4007    5.8558   -4.5166 H   0  0  0  0  0  0  0  0  0  0  0  0
    9.4408    6.9874   -6.4356 H   0  0  0  0  0  0  0  0  0  0  0  0
   11.5950    9.5919   -3.7948 H   0  0  0  0  0  0  0  0  0  0  0  0
   11.1972    9.4818   -1.3760 H   0  0  0  0  0  0  0  0  0  0  0  0
    3.3896    8.0687   -2.5199 H   0  0  0  0  0  0  0  0  0  0  0  0
    2.3698    6.9389   -1.5901 H   0  0  0  0  0  0  0  0  0  0  0  0
    1.0398    8.9186   -2.0493 H   0  0  0  0  0  0  0  0  0  0  0  0
    2.3103   10.0212   -1.4103 H   0  0  0  0  0  0  0  0  0  0  0  0
    1.4128    8.9374   -0.2885 H   0  0  0  0  0  0  0  0  0  0  0  0
    5.9581   10.5228   -1.0289 H   0  0  0  0  0  0  0  0  0  0  0  0
    4.5319   10.0588   -1.9879 H   0  0  0  0  0  0  0  0  0  0  0  0
    5.8756    8.0757   -2.9039 H   0  0  0  0  0  0  0  0  0  0  0  0
    7.3009    8.7310   -2.0023 H   0  0  0  0  0  0  0  0  0  0  0  0
    6.5503    9.6938   -3.3237 H   0  0  0  0  0  0  0  0  0  0  0  0
   -0.0871    6.0599    1.5968 H   0  0  0  0  0  0  0  0  0  0  0  0
    1.2438    6.7253    0.6529 H   0  0  0  0  0  0  0  0  0  0  0  0
    0.8328    7.1171    3.7089 H   0  0  0  0  0  0  0  0  0  0  0  0
    0.2635    8.2687    2.4393 H   0  0  0  0  0  0  0  0  0  0  0  0
    2.0248    8.0046    2.6727 H   0  0  0  0  0  0  0  0  0  0  0  0
   -0.8287    2.5720   -7.8411 H   0  0  0  0  0  0  0  0  0  0  0  0
   -1.5919    4.0720   -7.2107 H   0  0  0  0  0  0  0  0  0  0  0  0
    1.3831    3.2805   -7.0077 H   0  0  0  0  0  0  0  0  0  0  0  0
    0.6635    4.7361   -6.2094 H   0  0  0  0  0  0  0  0  0  0  0  0
    0.6717    4.5994   -8.0074 H   0  0  0  0  0  0  0  0  0  0  0  0
   -2.1260    2.6293   -2.5507 H   0  0  0  0  0  0  0  0  0  0  0  0
   -2.7288   -0.7282   -4.7423 H   0  0  0  0  0  0  0  0  0  0  0  0
   -0.6984   -5.4151   -6.6735 H   0  0  0  0  0  0  0  0  0  0  0  0
   -2.1999   -4.8016   -7.4586 H   0  0  0  0  0  0  0  0  0  0  0  0
   -0.8559   -3.1423   -8.7584 H   0  0  0  0  0  0  0  0  0  0  0  0
   -0.2624   -4.8203   -9.0422 H   0  0  0  0  0  0  0  0  0  0  0  0
    0.6570   -3.7160   -7.9462 H   0  0  0  0  0  0  0  0  0  0  0  0
   -2.8994   -8.1911    0.8426 H   0  0  0  0  0  0  0  0  0  0  0  0
   -1.7977   -7.6198   -0.4503 H   0  0  0  0  0  0  0  0  0  0  0  0
   -3.1161   -5.5482   -0.7536 H   0  0  0  0  0  0  0  0  0  0  0  0
   -4.2195   -6.9729   -0.8043 H   0  0  0  0  0  0  0  0  0  0  0  0
   -4.1491   -5.9522    0.6690 H   0  0  0  0  0  0  0  0  0  0  0  0
    1.6567   -2.0216    4.4207 H   0  0  0  0  0  0  0  0  0  0  0  0
    0.9174   -3.6012    4.4988 H   0  0  0  0  0  0  0  0  0  0  0  0
   -0.6937   -1.9527    5.3328 H   0  0  0  0  0  0  0  0  0  0  0  0
   -1.3117   -2.5523    3.7495 H   0  0  0  0  0  0  0  0  0  0  0  0
   -0.5174   -0.9301    3.8684 H   0  0  0  0  0  0  0  0  0  0  0  0
    3.9186    0.5778    3.0420 H   0  0  0  0  0  0  0  0  0  0  0  0
    3.2981   -1.0546    3.3181 H   0  0  0  0  0  0  0  0  0  0  0  0
    3.6722   -0.1078    5.5092 H   0  0  0  0  0  0  0  0  0  0  0  0
    1.8771   -0.0029    5.2916 H   0  0  0  0  0  0  0  0  0  0  0  0
    2.8949    1.4521    5.0754 H   0  0  0  0  0  0  0  0  0  0  0  0
   -7.3613   -2.7303    2.1781 H   0  0  0  0  0  0  0  0  0  0  0  0
   -8.3913   -4.1224    2.5730 H   0  0  0  0  0  0  0  0  0  0  0  0
   -7.0734   -2.3208    4.7122 H   0  0  0  0  0  0  0  0  0  0  0  0
   -8.2893   -3.6335    4.9792 H   0  0  0  0  0  0  0  0  0  0  0  0
   -8.7566   -2.1338    4.0891 H   0  0  0  0  0  0  0  0  0  0  0  0
   -3.6841   -2.2531    3.0130 H   0  0  0  0  0  0  0  0  0  0  0  0
   -5.4001   -1.7868    2.9145 H   0  0  0  0  0  0  0  0  0  0  0  0
   -4.0475   -1.4292    0.7732 H   0  0  0  0  0  0  0  0  0  0  0  0
   -5.4958   -2.4753    0.5382 H   0  0  0  0  0  0  0  0  0  0  0  0
   -3.8484   -3.2123    0.6360 H   0  0  0  0  0  0  0  0  0  0  0  0
   -7.6633   -7.8626    4.9504 H   0  0  0  0  0  0  0  0  0  0  0  0
   -7.2817  -11.2676   -0.2851 H   0  0  0  0  0  0  0  0  0  0  0  0
   -8.3944  -12.7402   -1.9374 H   0  0  0  0  0  0  0  0  0  0  0  0
  -10.3656  -14.0482   -2.6428 H   0  0  0  0  0  0  0  0  0  0  0  0
  -12.4881  -12.8386    0.8792 H   0  0  0  0  0  0  0  0  0  0  0  0
  -11.4075  -11.3905    2.5057 H   0  0  0  0  0  0  0  0  0  0  0  0
  1  2  2  3
  2  3  1  0
  3  4  2  0
  3  5  1  0
  5  6  2  0
  6  7  1  0
  7  8  2  0
  8  9  1  0
  9 10  2  0
 10 11  1  0
 10 12  1  0
 12 13  2  0
 13 14  1  0
 14 15  2  0
 15 16  1  0
 16 17  2  3
 17 18  1  0
 18 19  3  0
 17 20  1  0
 20 21  3  0
  1 22  1  0
 22 23  2  0
 23 24  1  0
 23 25  1  0
 25 26  1  0
 25 27  2  0
 27 28  1  0
 28 29  2  0
 29 30  1  0
 30 31  1  0
 31 32  1  0
 30 33  2  0
 33 34  1  0
 34 35  2  0
 33 36  1  0
 36 37  1  0
 27 38  1  0
 38 39  2  0
 39 40  1  0
 40 41  1  0
 39 42  1  0
 42 43  1  0
 43 44  1  0
 44 45  1  0
 45 46  2  0
 46 47  1  0
 47 48  2  0
 48 49  1  0
 49 50  1  0
 50 51  1  0
 51 52  1  0
 52 53  1  0
 51 54  2  0
 54 55  1  0
 54 56  1  0
 48 57  1  0
 57 58  1  0
 58 59  2  0
 59 60  1  0
 60 61  1  0
 60 62  2  0
 62 63  1  0
 63 64  1  0
 62 65  1  0
 57 66  2  0
 66 67  1  0
 67 68  2  0
 68 69  1  0
 69 70  1  0
 70 71  1  0
 71 72  1  0
 72 73  1  0
 73 74  1  0
 72 75  2  0
 75 76  1  0
 76 77  1  0
 77 78  1  0
 78 79  1  0
 79 80  1  0
 80 81  1  0
 79 82  1  0
 82 83  2  0
 83 84  1  0
 84 85  1  0
 85 86  1  0
 86 87  1  0
 84 88  1  0
 88 89  1  0
 75 90  1  0
 90 91  2  0
 91 92  1  0
 91 93  1  0
 93 94  1  0
 93 95  2  0
 95 96  1  0
 96 97  2  0
 97 98  1  0
 98 99  1  0
 99100  1  0
 98101  2  0
101102  1  0
102103  2  0
101104  1  0
104105  1  0
 95106  1  0
106107  2  3
107108  1  0
108109  2  0
108110  1  0
110111  2  0
111112  1  0
112113  2  0
113114  1  0
114115  2  0
115116  1  0
115117  1  0
117118  2  0
118119  1  0
119120  2  0
120121  1  0
121122  2  3
122123  1  0
123124  3  0
122125  1  0
125126  3  0
 16  2  1  0
 35 22  1  0
 87 38  1  0
103 90  1  0
121107  1  0
 15  5  1  0
 35 28  1  0
 86 42  2  0
103 96  1  0
120110  1  0
 13  7  1  0
 85 44  2  0
118112  1  0
 83 45  1  0
 67 46  1  0
 82 68  1  0
 55 49  2  0
 65 58  1  0
 78 69  2  0
 77 71  2  0
  1127  1  0
  6128  1  0
  8129  1  0
  9130  1  0
 12131  1  0
 14132  1  0
 31133  1  0
 31134  1  0
 32135  1  0
 32136  1  0
 32137  1  0
 36138  1  0
 36139  1  0
 37140  1  0
 37141  1  0
 37142  1  0
 40143  1  0
 40144  1  0
 41145  1  0
 41146  1  0
 41147  1  0
 52148  1  0
 52149  1  0
 53150  1  0
 53151  1  0
 53152  1  0
 55153  1  0
 59154  1  0
 63155  1  0
 63156  1  0
 64157  1  0
 64158  1  0
 64159  1  0
 73160  1  0
 73161  1  0
 74162  1  0
 74163  1  0
 74164  1  0
 80165  1  0
 80166  1  0
 81167  1  0
 81168  1  0
 81169  1  0
 88170  1  0
 88171  1  0
 89172  1  0
 89173  1  0
 89174  1  0
 99175  1  0
 99176  1  0
100177  1  0
100178  1  0
100179  1  0
104180  1  0
104181  1  0
105182  1  0
105183  1  0
105184  1  0
106185  1  0
111186  1  0
113187  1  0
114188  1  0
117189  1  0
119190  1  0
M  END

