
     RDKit          3D

169185  0  0  0  0  0  0  0  0999 V2000
    1.6588   -6.7151    4.7718 C   0  0  0  0  0  0  0  0  0  0  0  0
    0.6102   -6.3325    4.0079 C   0  0  0  0  0  0  0  0  0  0  0  0
    0.2548   -4.9446    3.6613 C   0  0  0  0  0  0  0  0  0  0  0  0
    0.5376   -3.9052    4.3105 O   0  0  0  0  0  0  0  0  0  0  0  0
   -0.4985   -4.9453    2.4334 C   0  0  0  0  0  0  0  0  0  0  0  0
   -0.9038   -3.8379    1.6905 C   0  0  0  0  0  0  0  0  0  0  0  0
   -1.5330   -4.0523    0.4563 C   0  0  0  0  0  0  0  0  0  0  0  0
   -1.9288   -2.9658   -0.3363 C   0  0  0  0  0  0  0  0  0  0  0  0
   -2.5345   -3.1848   -1.5764 C   0  0  0  0  0  0  0  0  0  0  0  0
   -2.7439   -4.4892   -2.0364 C   0  0  0  0  0  0  0  0  0  0  0  0
   -3.3262   -4.6926   -3.2444 F   0  0  0  0  0  0  0  0  0  0  0  0
   -2.3480   -5.5858   -1.2601 C   0  0  0  0  0  0  0  0  0  0  0  0
   -1.7441   -5.3831   -0.0083 C   0  0  0  0  0  0  0  0  0  0  0  0
   -1.3311   -6.4812    0.7783 C   0  0  0  0  0  0  0  0  0  0  0  0
   -0.7119   -6.2465    2.0174 C   0  0  0  0  0  0  0  0  0  0  0  0
   -0.1395   -7.1864    3.0338 C   0  0  0  0  0  0  0  0  0  0  0  0
   -0.4257   -8.5034    3.1823 C   0  0  0  0  0  0  0  0  0  0  0  0
   -0.0579   -9.2287    4.3738 C   0  0  0  0  0  0  0  0  0  0  0  0
    0.2312   -9.8108    5.3307 N   0  0  0  0  0  0  0  0  0  0  0  0
   -1.2068   -9.2410    2.2259 C   0  0  0  0  0  0  0  0  0  0  0  0
   -1.8303   -9.8426    1.4550 N   0  0  0  0  0  0  0  0  0  0  0  0
    2.5755   -5.7316    5.3849 C   0  0  0  0  0  0  0  0  0  0  0  0
    2.1104   -4.8467    6.3738 C   0  0  0  0  0  0  0  0  0  0  0  0
    0.9373   -5.0900    7.0113 F   0  0  0  0  0  0  0  0  0  0  0  0
    2.7277   -3.6002    6.5352 C   0  0  0  0  0  0  0  0  0  0  0  0
    2.1238   -2.6523    7.3003 F   0  0  0  0  0  0  0  0  0  0  0  0
    3.8236   -3.2459    5.7249 C   0  0  0  0  0  0  0  0  0  0  0  0
    4.4692   -4.2594    4.9913 C   0  0  0  0  0  0  0  0  0  0  0  0
    5.6481   -4.0207    4.3592 N   0  0  0  0  0  0  0  0  0  0  0  0
    6.2508   -4.9520    3.5741 C   0  0  0  0  0  0  0  0  0  0  0  0
    7.6117   -4.6244    3.0124 C   0  0  0  0  0  0  0  0  0  0  0  0
    8.7150   -5.0141    3.9958 C   0  0  0  0  0  0  0  0  0  0  0  0
    5.6104   -6.1978    3.3768 C   0  0  0  0  0  0  0  0  0  0  0  0
    4.4050   -6.4161    3.9798 N   0  0  0  0  0  0  0  0  0  0  0  0
    3.8362   -5.4999    4.8078 C   0  0  0  0  0  0  0  0  0  0  0  0
    6.2120   -7.2655    2.4880 C   0  0  0  0  0  0  0  0  0  0  0  0
    5.4894   -8.6105    2.5837 C   0  0  0  0  0  0  0  0  0  0  0  0
    3.8257   -1.8809    5.1606 C   0  0  0  0  0  0  0  0  0  0  0  0
    4.9370   -1.0361    4.9156 C   0  0  0  0  0  0  0  0  0  0  0  0
    6.2727   -1.2374    5.5091 C   0  0  0  0  0  0  0  0  0  0  0  0
    6.3903   -1.5221    6.8773 C   0  0  0  0  0  0  0  0  0  0  0  0
    7.6413   -1.7814    7.4391 C   0  0  0  0  0  0  0  0  0  0  0  0
    8.7834   -1.7851    6.6357 C   0  0  0  0  0  0  0  0  0  0  0  0
    8.6811   -1.5226    5.2609 C   0  0  0  0  0  0  0  0  0  0  0  0
    9.9097   -1.5545    4.3951 C   0  0  0  0  0  0  0  0  0  0  0  0
   10.5350   -0.1661    4.2916 C   0  0  0  0  0  0  0  0  0  0  0  0
    7.4254   -1.2290    4.7056 C   0  0  0  0  0  0  0  0  0  0  0  0
    4.6159   -0.0683    3.9463 C   0  0  0  0  0  0  0  0  0  0  0  0
    5.4767    1.1514    3.0929 S   0  0  0  0  0  0  0  0  0  0  0  0
    4.1562    1.4109    2.0439 C   0  0  0  0  0  0  0  0  0  0  0  0
    3.7656    2.1383    0.9428 C   0  0  0  0  0  0  0  0  0  0  0  0
    4.2713    3.2888    0.3138 C   0  0  0  0  0  0  0  0  0  0  0  0
    3.5006    3.8956   -0.7346 C   0  0  0  0  0  0  0  0  0  0  0  0
    3.9968    5.0293   -1.2819 N   0  0  0  0  0  0  0  0  0  0  0  0
    5.3766    5.1914   -0.3779 S   0  0  0  0  0  0  0  0  0  0  0  0
    5.4165    3.9144    0.6784 N   0  0  0  0  0  0  0  0  0  0  0  0
    2.3277    3.2538   -1.1644 C   0  0  0  0  0  0  0  0  0  0  0  0
    1.4447    3.4760   -2.1953 C   0  0  0  0  0  0  0  0  0  0  0  0
    0.9360    4.6979   -3.2643 S   0  0  0  0  0  0  0  0  0  0  0  0
   -0.3834    3.7352   -3.8032 C   0  0  0  0  0  0  0  0  0  0  0  0
   -1.5608    3.9873   -4.5325 C   0  0  0  0  0  0  0  0  0  0  0  0
   -1.9406    5.3035   -5.0989 C   0  0  0  0  0  0  0  0  0  0  0  0
   -2.5925    5.3773   -6.3425 C   0  0  0  0  0  0  0  0  0  0  0  0
   -2.9385    6.6157   -6.8875 C   0  0  0  0  0  0  0  0  0  0  0  0
   -2.6429    7.7937   -6.1968 C   0  0  0  0  0  0  0  0  0  0  0  0
   -2.0144    7.7375   -4.9429 C   0  0  0  0  0  0  0  0  0  0  0  0
   -1.6416    9.0047   -4.2179 C   0  0  0  0  0  0  0  0  0  0  0  0
   -0.2609    9.4837   -4.6544 C   0  0  0  0  0  0  0  0  0  0  0  0
   -1.6694    6.4914   -4.3991 C   0  0  0  0  0  0  0  0  0  0  0  0
   -2.4124    2.8551   -4.5012 C   0  0  0  0  0  0  0  0  0  0  0  0
   -1.7282    1.6322   -3.5339 S   0  0  0  0  0  0  0  0  0  0  0  0
   -0.3559    2.5062   -3.1993 C   0  0  0  0  0  0  0  0  0  0  0  0
    0.6425    2.3890   -2.2610 C   0  0  0  0  0  0  0  0  0  0  0  0
    0.9018    1.4657   -1.3106 N   0  0  0  0  0  0  0  0  0  0  0  0
    1.8940    2.0542   -0.5843 C   0  0  0  0  0  0  0  0  0  0  0  0
    2.5277    1.5937    0.5772 C   0  0  0  0  0  0  0  0  0  0  0  0
    2.0696    0.7056    1.5040 N   0  0  0  0  0  0  0  0  0  0  0  0
    3.1161    0.6009    2.3480 C   0  0  0  0  0  0  0  0  0  0  0  0
    3.3484   -0.1878    3.4455 C   0  0  0  0  0  0  0  0  0  0  0  0
    2.5249   -1.4366    4.1587 S   0  0  0  0  0  0  0  0  0  0  0  0
    0.6671    0.4640    1.8839 C   0  0  0  0  0  0  0  0  0  0  0  0
    0.2428    1.4046    3.0127 C   0  0  0  0  0  0  0  0  0  0  0  0
    0.5783    0.0318   -1.4102 C   0  0  0  0  0  0  0  0  0  0  0  0
    1.2378   -0.5876   -2.6388 C   0  0  0  0  0  0  0  0  0  0  0  0
   -3.8681    2.8332   -4.7230 C   0  0  0  0  0  0  0  0  0  0  0  0
   -4.4088    1.8638   -5.5800 C   0  0  0  0  0  0  0  0  0  0  0  0
   -3.6072    1.2132   -6.4618 F   0  0  0  0  0  0  0  0  0  0  0  0
   -5.7510    1.4860   -5.4643 C   0  0  0  0  0  0  0  0  0  0  0  0
   -6.2284    0.4956   -6.2594 F   0  0  0  0  0  0  0  0  0  0  0  0
   -6.5726    2.0607   -4.4816 C   0  0  0  0  0  0  0  0  0  0  0  0
   -6.0467    3.0743   -3.6553 C   0  0  0  0  0  0  0  0  0  0  0  0
   -6.7812    3.6040   -2.6434 N   0  0  0  0  0  0  0  0  0  0  0  0
   -6.2797    4.5218   -1.7720 C   0  0  0  0  0  0  0  0  0  0  0  0
   -7.1715    5.0872   -0.6912 C   0  0  0  0  0  0  0  0  0  0  0  0
   -8.4028    4.2221   -0.4217 C   0  0  0  0  0  0  0  0  0  0  0  0
   -4.9452    4.9567   -1.9449 C   0  0  0  0  0  0  0  0  0  0  0  0
   -4.1969    4.3903   -2.9265 N   0  0  0  0  0  0  0  0  0  0  0  0
   -4.7036    3.4714   -3.7922 C   0  0  0  0  0  0  0  0  0  0  0  0
   -4.2807    5.9640   -1.0454 C   0  0  0  0  0  0  0  0  0  0  0  0
   -3.5517    5.2692    0.0991 C   0  0  0  0  0  0  0  0  0  0  0  0
   -7.8774    1.4244   -4.1802 C   0  0  0  0  0  0  0  0  0  0  0  0
   -9.0487    2.0765   -4.0789 C   0  0  0  0  0  0  0  0  0  0  0  0
   -9.1660    3.4691   -4.4555 C   0  0  0  0  0  0  0  0  0  0  0  0
   -9.2582    4.5829   -4.7574 N   0  0  0  0  0  0  0  0  0  0  0  0
  -10.2546    1.3679   -3.5931 C   0  0  0  0  0  0  0  0  0  0  0  0
  -11.3791    1.9426   -3.6287 O   0  0  0  0  0  0  0  0  0  0  0  0
  -10.1437    0.0757   -3.0615 O   0  0  0  0  0  0  0  0  0  0  0  0
  -11.2479   -0.6232   -2.4959 C   0  0  0  0  0  0  0  0  0  0  0  0
  -10.7767   -1.9580   -1.9363 C   0  0  0  0  0  0  0  0  0  0  0  0
    2.0008   -7.7367    4.7362 H   0  0  0  0  0  0  0  0  0  0  0  0
   -0.7018   -2.8336    2.0546 H   0  0  0  0  0  0  0  0  0  0  0  0
   -1.7688   -1.9494    0.0052 H   0  0  0  0  0  0  0  0  0  0  0  0
   -2.8312   -2.3418   -2.1822 H   0  0  0  0  0  0  0  0  0  0  0  0
   -2.5148   -6.5891   -1.6351 H   0  0  0  0  0  0  0  0  0  0  0  0
   -1.4619   -7.4807    0.3984 H   0  0  0  0  0  0  0  0  0  0  0  0
    7.7813   -5.1254    2.0347 H   0  0  0  0  0  0  0  0  0  0  0  0
    7.6709   -3.5310    2.8256 H   0  0  0  0  0  0  0  0  0  0  0  0
    9.6785   -4.5794    3.6596 H   0  0  0  0  0  0  0  0  0  0  0  0
    8.4879   -4.6229    5.0091 H   0  0  0  0  0  0  0  0  0  0  0  0
    8.8213   -6.1165    4.0458 H   0  0  0  0  0  0  0  0  0  0  0  0
    7.2729   -7.4303    2.7711 H   0  0  0  0  0  0  0  0  0  0  0  0
    6.1830   -6.9179    1.4321 H   0  0  0  0  0  0  0  0  0  0  0  0
    6.0199   -9.3592    1.9592 H   0  0  0  0  0  0  0  0  0  0  0  0
    5.4866   -8.9688    3.6327 H   0  0  0  0  0  0  0  0  0  0  0  0
    4.4472   -8.5161    2.2169 H   0  0  0  0  0  0  0  0  0  0  0  0
    5.5125   -1.5406    7.5113 H   0  0  0  0  0  0  0  0  0  0  0  0
    7.7218   -1.9913    8.5002 H   0  0  0  0  0  0  0  0  0  0  0  0
    9.7447   -1.9993    7.0862 H   0  0  0  0  0  0  0  0  0  0  0  0
    9.6504   -1.9167    3.3763 H   0  0  0  0  0  0  0  0  0  0  0  0
   10.6545   -2.2617    4.8205 H   0  0  0  0  0  0  0  0  0  0  0  0
   10.7001    0.2645    5.3038 H   0  0  0  0  0  0  0  0  0  0  0  0
   11.5156   -0.2444    3.7741 H   0  0  0  0  0  0  0  0  0  0  0  0
    9.8768    0.5052    3.7011 H   0  0  0  0  0  0  0  0  0  0  0  0
    7.3445   -1.0445    3.6420 H   0  0  0  0  0  0  0  0  0  0  0  0
   -2.8169    4.4749   -6.8991 H   0  0  0  0  0  0  0  0  0  0  0  0
   -3.4267    6.6624   -7.8508 H   0  0  0  0  0  0  0  0  0  0  0  0
   -2.8905    8.7505   -6.6436 H   0  0  0  0  0  0  0  0  0  0  0  0
   -2.3903    9.8013   -4.4272 H   0  0  0  0  0  0  0  0  0  0  0  0
   -1.6382    8.8297   -3.1189 H   0  0  0  0  0  0  0  0  0  0  0  0
   -0.2762    9.7645   -5.7287 H   0  0  0  0  0  0  0  0  0  0  0  0
    0.4933    8.6838   -4.4960 H   0  0  0  0  0  0  0  0  0  0  0  0
    0.0346   10.3720   -4.0594 H   0  0  0  0  0  0  0  0  0  0  0  0
   -1.2095    6.4540   -3.4217 H   0  0  0  0  0  0  0  0  0  0  0  0
    0.5380   -0.5889    2.2033 H   0  0  0  0  0  0  0  0  0  0  0  0
   -0.0207    0.6596    1.0444 H   0  0  0  0  0  0  0  0  0  0  0  0
    0.8324    1.2042    3.9315 H   0  0  0  0  0  0  0  0  0  0  0  0
    0.3957    2.4619    2.7071 H   0  0  0  0  0  0  0  0  0  0  0  0
   -0.8325    1.2518    3.2446 H   0  0  0  0  0  0  0  0  0  0  0  0
   -0.5193   -0.1103   -1.4660 H   0  0  0  0  0  0  0  0  0  0  0  0
    0.9595   -0.5299   -0.5399 H   0  0  0  0  0  0  0  0  0  0  0  0
    1.0858   -1.6907   -2.6288 H   0  0  0  0  0  0  0  0  0  0  0  0
    2.3305   -0.3824   -2.6361 H   0  0  0  0  0  0  0  0  0  0  0  0
    0.7911   -0.1777   -3.5735 H   0  0  0  0  0  0  0  0  0  0  0  0
   -7.5062    6.1021   -0.9946 H   0  0  0  0  0  0  0  0  0  0  0  0
   -6.6050    5.1749    0.2580 H   0  0  0  0  0  0  0  0  0  0  0  0
   -8.0950    3.1915   -0.1413 H   0  0  0  0  0  0  0  0  0  0  0  0
   -9.0558    4.1758   -1.3192 H   0  0  0  0  0  0  0  0  0  0  0  0
   -8.9866    4.6596    0.4168 H   0  0  0  0  0  0  0  0  0  0  0  0
   -3.5412    6.5483   -1.6341 H   0  0  0  0  0  0  0  0  0  0  0  0
   -5.0163    6.6918   -0.6446 H   0  0  0  0  0  0  0  0  0  0  0  0
   -2.7535    4.6051   -0.2984 H   0  0  0  0  0  0  0  0  0  0  0  0
   -4.2589    4.6625    0.7042 H   0  0  0  0  0  0  0  0  0  0  0  0
   -3.0823    6.0313    0.7572 H   0  0  0  0  0  0  0  0  0  0  0  0
   -7.8509    0.3550   -4.0066 H   0  0  0  0  0  0  0  0  0  0  0  0
  -11.6895   -0.0194   -1.6753 H   0  0  0  0  0  0  0  0  0  0  0  0
  -12.0184   -0.7994   -3.2772 H   0  0  0  0  0  0  0  0  0  0  0  0
  -10.3461   -2.5793   -2.7503 H   0  0  0  0  0  0  0  0  0  0  0  0
   -9.9994   -1.7873   -1.1597 H   0  0  0  0  0  0  0  0  0  0  0  0
  -11.6349   -2.4923   -1.4820 H   0  0  0  0  0  0  0  0  0  0  0  0
  1  2  2  3
  2  3  1  0
  3  4  2  0
  3  5  1  0
  5  6  2  0
  6  7  1  0
  7  8  2  0
  8  9  1  0
  9 10  2  0
 10 11  1  0
 10 12  1  0
 12 13  2  0
 13 14  1  0
 14 15  2  0
 15 16  1  0
 16 17  2  3
 17 18  1  0
 18 19  3  0
 17 20  1  0
 20 21  3  0
  1 22  1  0
 22 23  2  0
 23 24  1  0
 23 25  1  0
 25 26  1  0
 25 27  2  0
 27 28  1  0
 28 29  2  0
 29 30  1  0
 30 31  1  0
 31 32  1  0
 30 33  2  0
 33 34  1  0
 34 35  2  0
 33 36  1  0
 36 37  1  0
 27 38  1  0
 38 39  2  0
 39 40  1  0
 40 41  2  0
 41 42  1  0
 42 43  2  0
 43 44  1  0
 44 45  1  0
 45 46  1  0
 44 47  2  0
 39 48  1  0
 48 49  1  0
 49 50  1  0
 50 51  1  0
 51 52  1  0
 52 53  1  0
 53 54  2  0
 54 55  1  0
 55 56  1  0
 53 57  1  0
 57 58  1  0
 58 59  1  0
 59 60  1  0
 60 61  1  0
 61 62  1  0
 62 63  2  0
 63 64  1  0
 64 65  2  0
 65 66  1  0
 66 67  1  0
 67 68  1  0
 66 69  2  0
 61 70  2  0
 70 71  1  0
 71 72  1  0
 72 73  1  0
 73 74  1  0
 74 75  1  0
 75 76  1  0
 76 77  1  0
 77 78  1  0
 78 79  1  0
 79 80  1  0
 77 81  1  0
 81 82  1  0
 74 83  1  0
 83 84  1  0
 70 85  1  0
 85 86  2  0
 86 87  1  0
 86 88  1  0
 88 89  1  0
 88 90  2  0
 90 91  1  0
 91 92  2  0
 92 93  1  0
 93 94  1  0
 94 95  1  0
 93 96  2  0
 96 97  1  0
 97 98  2  0
 96 99  1  0
 99100  1  0
 90101  1  0
101102  2  3
102103  1  0
103104  3  0
102105  1  0
105106  2  0
105107  1  0
107108  1  0
108109  1  0
 16  2  1  0
 35 22  1  0
 80 38  1  0
 98 85  1  0
 15  5  1  0
 35 28  1  0
 47 40  1  0
 79 48  2  0
 98 91  1  0
 13  7  1  0
 78 50  2  0
 76 51  2  0
 56 52  2  0
 75 57  2  0
 73 58  2  0
 72 60  2  0
 69 62  1  0
  1110  1  0
  6111  1  0
  8112  1  0
  9113  1  0
 12114  1  0
 14115  1  0
 31116  1  0
 31117  1  0
 32118  1  0
 32119  1  0
 32120  1  0
 36121  1  0
 36122  1  0
 37123  1  0
 37124  1  0
 37125  1  0
 41126  1  0
 42127  1  0
 43128  1  0
 45129  1  0
 45130  1  0
 46131  1  0
 46132  1  0
 46133  1  0
 47134  1  0
 63135  1  0
 64136  1  0
 65137  1  0
 67138  1  0
 67139  1  0
 68140  1  0
 68141  1  0
 68142  1  0
 69143  1  0
 81144  1  0
 81145  1  0
 82146  1  0
 82147  1  0
 82148  1  0
 83149  1  0
 83150  1  0
 84151  1  0
 84152  1  0
 84153  1  0
 94154  1  0
 94155  1  0
 95156  1  0
 95157  1  0
 95158  1  0
 99159  1  0
 99160  1  0
100161  1  0
100162  1  0
100163  1  0
101164  1  0
108165  1  0
108166  1  0
109167  1  0
109168  1  0
109169  1  0
M  END

