
     RDKit          3D

175193  0  0  0  0  0  0  0  0999 V2000
   -7.3576    2.4627    2.7138 C   0  0  0  0  0  0  0  0  0  0  0  0
   -6.9208    2.9564    3.8887 C   0  0  0  0  0  0  0  0  0  0  0  0
   -5.9691    2.2916    4.7877 C   0  0  0  0  0  0  0  0  0  0  0  0
   -5.7320    1.0552    4.8477 O   0  0  0  0  0  0  0  0  0  0  0  0
   -5.3247    3.3019    5.5947 C   0  0  0  0  0  0  0  0  0  0  0  0
   -4.2291    3.1509    6.4418 C   0  0  0  0  0  0  0  0  0  0  0  0
   -3.6278    4.3029    6.9732 C   0  0  0  0  0  0  0  0  0  0  0  0
   -2.5031    4.1986    7.8049 C   0  0  0  0  0  0  0  0  0  0  0  0
   -1.8769    5.3516    8.2883 C   0  0  0  0  0  0  0  0  0  0  0  0
   -2.3633    6.6168    7.9411 C   0  0  0  0  0  0  0  0  0  0  0  0
   -1.7404    7.7291    8.4023 F   0  0  0  0  0  0  0  0  0  0  0  0
   -3.4835    6.7384    7.1112 C   0  0  0  0  0  0  0  0  0  0  0  0
   -4.1303    5.5902    6.6274 C   0  0  0  0  0  0  0  0  0  0  0  0
   -5.2507    5.7069    5.7816 C   0  0  0  0  0  0  0  0  0  0  0  0
   -5.8651    4.5417    5.2970 C   0  0  0  0  0  0  0  0  0  0  0  0
   -6.9941    4.3791    4.3401 C   0  0  0  0  0  0  0  0  0  0  0  0
   -7.9904    5.2658    4.0997 C   0  0  0  0  0  0  0  0  0  0  0  0
   -9.1563    4.9147    3.3269 C   0  0  0  0  0  0  0  0  0  0  0  0
  -10.0960    4.6381    2.7095 N   0  0  0  0  0  0  0  0  0  0  0  0
   -8.0253    6.5711    4.7111 C   0  0  0  0  0  0  0  0  0  0  0  0
   -8.0655    7.6190    5.2012 N   0  0  0  0  0  0  0  0  0  0  0  0
   -6.8305    1.2075    2.1364 C   0  0  0  0  0  0  0  0  0  0  0  0
   -7.6940    0.1375    1.8615 C   0  0  0  0  0  0  0  0  0  0  0  0
   -9.0204    0.2484    2.1287 F   0  0  0  0  0  0  0  0  0  0  0  0
   -7.1948   -1.0539    1.3182 C   0  0  0  0  0  0  0  0  0  0  0  0
   -8.0502   -2.0731    1.0550 F   0  0  0  0  0  0  0  0  0  0  0  0
   -5.8202   -1.1999    1.0680 C   0  0  0  0  0  0  0  0  0  0  0  0
   -4.9538   -0.1236    1.3229 C   0  0  0  0  0  0  0  0  0  0  0  0
   -3.6215   -0.2202    1.0629 N   0  0  0  0  0  0  0  0  0  0  0  0
   -2.7663    0.8183    1.2561 C   0  0  0  0  0  0  0  0  0  0  0  0
   -1.3057    0.5879    0.9729 C   0  0  0  0  0  0  0  0  0  0  0  0
   -1.0270    0.6814   -0.5212 C   0  0  0  0  0  0  0  0  0  0  0  0
   -3.2925    2.0616    1.6820 C   0  0  0  0  0  0  0  0  0  0  0  0
   -4.6189    2.1456    1.9681 N   0  0  0  0  0  0  0  0  0  0  0  0
   -5.4629    1.0887    1.8206 C   0  0  0  0  0  0  0  0  0  0  0  0
   -2.4545    3.2991    1.8482 C   0  0  0  0  0  0  0  0  0  0  0  0
   -1.9308    3.4208    3.2757 C   0  0  0  0  0  0  0  0  0  0  0  0
   -5.2985   -2.4425    0.4710 C   0  0  0  0  0  0  0  0  0  0  0  0
   -5.5944   -2.9280   -0.8165 C   0  0  0  0  0  0  0  0  0  0  0  0
   -6.4886   -2.2671   -1.7941 C   0  0  0  0  0  0  0  0  0  0  0  0
   -6.4142   -0.8821   -2.0243 C   0  0  0  0  0  0  0  0  0  0  0  0
   -7.2981   -0.2680   -2.9151 C   0  0  0  0  0  0  0  0  0  0  0  0
   -8.2539   -1.0286   -3.5920 C   0  0  0  0  0  0  0  0  0  0  0  0
   -8.3197   -2.4171   -3.3965 C   0  0  0  0  0  0  0  0  0  0  0  0
   -9.3699   -3.2389   -4.0982 C   0  0  0  0  0  0  0  0  0  0  0  0
  -10.5808   -3.4471   -3.1932 C   0  0  0  0  0  0  0  0  0  0  0  0
   -7.4329   -3.0298   -2.4961 C   0  0  0  0  0  0  0  0  0  0  0  0
   -4.8211   -4.0548   -1.1087 C   0  0  0  0  0  0  0  0  0  0  0  0
   -4.3673   -4.7383   -2.5971 S   0  0  0  0  0  0  0  0  0  0  0  0
   -3.1055   -5.6044   -1.8690 C   0  0  0  0  0  0  0  0  0  0  0  0
   -1.8519   -5.9314   -2.3010 C   0  0  0  0  0  0  0  0  0  0  0  0
   -1.3368   -6.1527   -3.5825 C   0  0  0  0  0  0  0  0  0  0  0  0
    0.0702   -6.3391   -3.7307 C   0  0  0  0  0  0  0  0  0  0  0  0
    0.5341   -6.5238   -4.9908 N   0  0  0  0  0  0  0  0  0  0  0  0
   -0.8944   -6.4605   -5.8297 S   0  0  0  0  0  0  0  0  0  0  0  0
   -2.0876   -6.1976   -4.7106 N   0  0  0  0  0  0  0  0  0  0  0  0
    0.8900   -6.2293   -2.5973 C   0  0  0  0  0  0  0  0  0  0  0  0
    2.2344   -5.9881   -2.5200 C   0  0  0  0  0  0  0  0  0  0  0  0
    3.3879   -5.5005   -3.6664 S   0  0  0  0  0  0  0  0  0  0  0  0
    4.2867   -4.6707   -2.4861 C   0  0  0  0  0  0  0  0  0  0  0  0
    5.3228   -3.7410   -2.5946 C   0  0  0  0  0  0  0  0  0  0  0  0
    5.9127   -3.3820   -3.8969 C   0  0  0  0  0  0  0  0  0  0  0  0
    6.6565   -4.3344   -4.6128 C   0  0  0  0  0  0  0  0  0  0  0  0
    7.2156   -4.0064   -5.8481 C   0  0  0  0  0  0  0  0  0  0  0  0
    7.0057   -2.7388   -6.3987 C   0  0  0  0  0  0  0  0  0  0  0  0
    6.2315   -1.7889   -5.7114 C   0  0  0  0  0  0  0  0  0  0  0  0
    5.9792   -0.4360   -6.3186 C   0  0  0  0  0  0  0  0  0  0  0  0
    7.0635    0.5517   -5.9037 C   0  0  0  0  0  0  0  0  0  0  0  0
    5.7105   -2.1045   -4.4457 C   0  0  0  0  0  0  0  0  0  0  0  0
    5.5465   -3.0709   -1.3647 C   0  0  0  0  0  0  0  0  0  0  0  0
    4.3980   -3.6396   -0.2265 S   0  0  0  0  0  0  0  0  0  0  0  0
    3.6655   -4.7260   -1.2664 C   0  0  0  0  0  0  0  0  0  0  0  0
    2.4797   -5.4658   -1.2823 C   0  0  0  0  0  0  0  0  0  0  0  0
    1.3500   -5.3752   -0.5293 N   0  0  0  0  0  0  0  0  0  0  0  0
    0.3717   -5.9124   -1.3309 C   0  0  0  0  0  0  0  0  0  0  0  0
   -1.0357   -5.8525   -1.1719 C   0  0  0  0  0  0  0  0  0  0  0  0
   -1.7551   -5.5913   -0.0397 N   0  0  0  0  0  0  0  0  0  0  0  0
   -3.0077   -5.3719   -0.5248 C   0  0  0  0  0  0  0  0  0  0  0  0
   -3.9671   -4.4551   -0.1073 C   0  0  0  0  0  0  0  0  0  0  0  0
   -4.0662   -3.3847    1.1760 S   0  0  0  0  0  0  0  0  0  0  0  0
   -1.5632   -6.4272    1.1621 C   0  0  0  0  0  0  0  0  0  0  0  0
   -2.0674   -5.7509    2.4312 C   0  0  0  0  0  0  0  0  0  0  0  0
    1.1641   -4.4079    0.5631 C   0  0  0  0  0  0  0  0  0  0  0  0
    0.7460   -3.0444    0.0208 C   0  0  0  0  0  0  0  0  0  0  0  0
    6.5151   -1.9583   -1.1185 C   0  0  0  0  0  0  0  0  0  0  0  0
    7.7858   -1.9643   -1.7320 C   0  0  0  0  0  0  0  0  0  0  0  0
    8.2376   -3.0629   -2.3855 F   0  0  0  0  0  0  0  0  0  0  0  0
    8.6254   -0.8464   -1.6550 C   0  0  0  0  0  0  0  0  0  0  0  0
    9.8088   -0.8540   -2.3188 F   0  0  0  0  0  0  0  0  0  0  0  0
    8.2371    0.2801   -0.9215 C   0  0  0  0  0  0  0  0  0  0  0  0
    7.0485    0.2461   -0.1811 C   0  0  0  0  0  0  0  0  0  0  0  0
    6.7200    1.2761    0.6439 N   0  0  0  0  0  0  0  0  0  0  0  0
    5.5924    1.2676    1.4035 C   0  0  0  0  0  0  0  0  0  0  0  0
    5.3481    2.4593    2.2967 C   0  0  0  0  0  0  0  0  0  0  0  0
    4.4309    3.4779    1.6247 C   0  0  0  0  0  0  0  0  0  0  0  0
    4.7192    0.1547    1.3066 C   0  0  0  0  0  0  0  0  0  0  0  0
    5.0433   -0.8524    0.4512 N   0  0  0  0  0  0  0  0  0  0  0  0
    6.1831   -0.8607   -0.2854 C   0  0  0  0  0  0  0  0  0  0  0  0
    3.4662   -0.0141    2.1262 C   0  0  0  0  0  0  0  0  0  0  0  0
    2.2178    0.1733    1.2763 C   0  0  0  0  0  0  0  0  0  0  0  0
    9.0655    1.4992   -0.9454 C   0  0  0  0  0  0  0  0  0  0  0  0
    8.6639    2.6298   -1.5597 C   0  0  0  0  0  0  0  0  0  0  0  0
    7.5266    2.7370   -2.4828 C   0  0  0  0  0  0  0  0  0  0  0  0
    6.5930    1.9040   -2.6284 O   0  0  0  0  0  0  0  0  0  0  0  0
    7.6743    3.9552   -3.2432 C   0  0  0  0  0  0  0  0  0  0  0  0
    6.9083    4.3891   -4.3244 C   0  0  0  0  0  0  0  0  0  0  0  0
    7.2841    5.5702   -4.9775 C   0  0  0  0  0  0  0  0  0  0  0  0
    8.4257    6.2801   -4.5540 C   0  0  0  0  0  0  0  0  0  0  0  0
    8.9456    7.8740   -5.4670 Br  0  0  0  0  0  0  0  0  0  0  0  0
    9.1935    5.8133   -3.4723 C   0  0  0  0  0  0  0  0  0  0  0  0
    8.7876    4.6464   -2.8036 C   0  0  0  0  0  0  0  0  0  0  0  0
    9.4101    3.9186   -1.6622 C   0  0  0  0  0  0  0  0  0  0  0  0
   10.2552    4.4359   -0.7352 C   0  0  0  0  0  0  0  0  0  0  0  0
   10.5846    3.7346    0.4773 C   0  0  0  0  0  0  0  0  0  0  0  0
   10.8500    3.1924    1.4679 N   0  0  0  0  0  0  0  0  0  0  0  0
   10.7241    5.7970   -0.7871 C   0  0  0  0  0  0  0  0  0  0  0  0
   11.0841    6.8950   -0.7967 N   0  0  0  0  0  0  0  0  0  0  0  0
   -7.9850    3.0526    2.0659 H   0  0  0  0  0  0  0  0  0  0  0  0
   -3.8309    2.1616    6.6461 H   0  0  0  0  0  0  0  0  0  0  0  0
   -2.1029    3.2264    8.0765 H   0  0  0  0  0  0  0  0  0  0  0  0
   -1.0058    5.2653    8.9274 H   0  0  0  0  0  0  0  0  0  0  0  0
   -3.8372    7.7256    6.8425 H   0  0  0  0  0  0  0  0  0  0  0  0
   -5.5900    6.6845    5.4782 H   0  0  0  0  0  0  0  0  0  0  0  0
   -1.0330   -0.4307    1.3249 H   0  0  0  0  0  0  0  0  0  0  0  0
   -0.6582    1.2976    1.5266 H   0  0  0  0  0  0  0  0  0  0  0  0
   -1.3055    1.6843   -0.9086 H   0  0  0  0  0  0  0  0  0  0  0  0
    0.0553    0.5191   -0.7104 H   0  0  0  0  0  0  0  0  0  0  0  0
   -1.5969   -0.0996   -1.0666 H   0  0  0  0  0  0  0  0  0  0  0  0
   -1.6096    3.3166    1.1249 H   0  0  0  0  0  0  0  0  0  0  0  0
   -3.0799    4.1905    1.6245 H   0  0  0  0  0  0  0  0  0  0  0  0
   -2.7783    3.5543    3.9833 H   0  0  0  0  0  0  0  0  0  0  0  0
   -1.2642    4.3041    3.3489 H   0  0  0  0  0  0  0  0  0  0  0  0
   -1.3568    2.5135    3.5636 H   0  0  0  0  0  0  0  0  0  0  0  0
   -5.6699   -0.2761   -1.5248 H   0  0  0  0  0  0  0  0  0  0  0  0
   -7.2393    0.7998   -3.0825 H   0  0  0  0  0  0  0  0  0  0  0  0
   -8.9437   -0.5351   -4.2670 H   0  0  0  0  0  0  0  0  0  0  0  0
   -8.9502   -4.2283   -4.3833 H   0  0  0  0  0  0  0  0  0  0  0  0
   -9.6948   -2.7347   -5.0348 H   0  0  0  0  0  0  0  0  0  0  0  0
  -11.0320   -2.4663   -2.9284 H   0  0  0  0  0  0  0  0  0  0  0  0
  -10.2791   -3.9768   -2.2638 H   0  0  0  0  0  0  0  0  0  0  0  0
  -11.3439   -4.0596   -3.7196 H   0  0  0  0  0  0  0  0  0  0  0  0
   -7.4990   -4.0983   -2.3208 H   0  0  0  0  0  0  0  0  0  0  0  0
    6.8207   -5.3232   -4.1977 H   0  0  0  0  0  0  0  0  0  0  0  0
    7.8045   -4.7357   -6.3897 H   0  0  0  0  0  0  0  0  0  0  0  0
    7.4410   -2.4985   -7.3618 H   0  0  0  0  0  0  0  0  0  0  0  0
    5.9582   -0.5127   -7.4286 H   0  0  0  0  0  0  0  0  0  0  0  0
    4.9857   -0.0522   -5.9966 H   0  0  0  0  0  0  0  0  0  0  0  0
    6.8416    1.5538   -6.3318 H   0  0  0  0  0  0  0  0  0  0  0  0
    8.0546    0.2145   -6.2758 H   0  0  0  0  0  0  0  0  0  0  0  0
    7.0995    0.6357   -4.7981 H   0  0  0  0  0  0  0  0  0  0  0  0
    5.1305   -1.3679   -3.8995 H   0  0  0  0  0  0  0  0  0  0  0  0
   -0.4976   -6.7073    1.2902 H   0  0  0  0  0  0  0  0  0  0  0  0
   -2.1052   -7.3888    1.0262 H   0  0  0  0  0  0  0  0  0  0  0  0
   -1.7490   -6.3409    3.3142 H   0  0  0  0  0  0  0  0  0  0  0  0
   -3.1732   -5.7246    2.4266 H   0  0  0  0  0  0  0  0  0  0  0  0
   -1.6584   -4.7237    2.5231 H   0  0  0  0  0  0  0  0  0  0  0  0
    2.0970   -4.3072    1.1516 H   0  0  0  0  0  0  0  0  0  0  0  0
    0.4096   -4.7462    1.2819 H   0  0  0  0  0  0  0  0  0  0  0  0
    0.5990   -2.3427    0.8675 H   0  0  0  0  0  0  0  0  0  0  0  0
   -0.2083   -3.1241   -0.5421 H   0  0  0  0  0  0  0  0  0  0  0  0
    1.5247   -2.6393   -0.6553 H   0  0  0  0  0  0  0  0  0  0  0  0
    6.3191    2.9592    2.5146 H   0  0  0  0  0  0  0  0  0  0  0  0
    4.9428    2.1553    3.2823 H   0  0  0  0  0  0  0  0  0  0  0  0
    4.2437    4.3200    2.3218 H   0  0  0  0  0  0  0  0  0  0  0  0
    3.4600    3.0165    1.3666 H   0  0  0  0  0  0  0  0  0  0  0  0
    4.9051    3.8714    0.7002 H   0  0  0  0  0  0  0  0  0  0  0  0
    3.4189    0.6617    2.9986 H   0  0  0  0  0  0  0  0  0  0  0  0
    3.4599   -1.0516    2.5310 H   0  0  0  0  0  0  0  0  0  0  0  0
    1.3371   -0.1372    1.8755 H   0  0  0  0  0  0  0  0  0  0  0  0
    2.0915    1.2359    0.9780 H   0  0  0  0  0  0  0  0  0  0  0  0
    2.2572   -0.4577    0.3628 H   0  0  0  0  0  0  0  0  0  0  0  0
   10.0444    1.4344   -0.5028 H   0  0  0  0  0  0  0  0  0  0  0  0
    6.0531    3.8182   -4.6673 H   0  0  0  0  0  0  0  0  0  0  0  0
    6.7009    5.9296   -5.8168 H   0  0  0  0  0  0  0  0  0  0  0  0
   10.0901    6.3511   -3.1993 H   0  0  0  0  0  0  0  0  0  0  0  0
  1  2  2  3
  2  3  1  0
  3  4  2  0
  3  5  1  0
  5  6  2  0
  6  7  1  0
  7  8  2  0
  8  9  1  0
  9 10  2  0
 10 11  1  0
 10 12  1  0
 12 13  2  0
 13 14  1  0
 14 15  2  0
 15 16  1  0
 16 17  2  3
 17 18  1  0
 18 19  3  0
 17 20  1  0
 20 21  3  0
  1 22  1  0
 22 23  2  0
 23 24  1  0
 23 25  1  0
 25 26  1  0
 25 27  2  0
 27 28  1  0
 28 29  2  0
 29 30  1  0
 30 31  1  0
 31 32  1  0
 30 33  2  0
 33 34  1  0
 34 35  2  0
 33 36  1  0
 36 37  1  0
 27 38  1  0
 38 39  2  0
 39 40  1  0
 40 41  2  0
 41 42  1  0
 42 43  2  0
 43 44  1  0
 44 45  1  0
 45 46  1  0
 44 47  2  0
 39 48  1  0
 48 49  1  0
 49 50  1  0
 50 51  1  0
 51 52  1  0
 52 53  1  0
 53 54  2  0
 54 55  1  0
 55 56  1  0
 53 57  1  0
 57 58  1  0
 58 59  1  0
 59 60  1  0
 60 61  1  0
 61 62  1  0
 62 63  2  0
 63 64  1  0
 64 65  2  0
 65 66  1  0
 66 67  1  0
 67 68  1  0
 66 69  2  0
 61 70  2  0
 70 71  1  0
 71 72  1  0
 72 73  1  0
 73 74  1  0
 74 75  1  0
 75 76  1  0
 76 77  1  0
 77 78  1  0
 78 79  1  0
 79 80  1  0
 77 81  1  0
 81 82  1  0
 74 83  1  0
 83 84  1  0
 70 85  1  0
 85 86  2  0
 86 87  1  0
 86 88  1  0
 88 89  1  0
 88 90  2  0
 90 91  1  0
 91 92  2  0
 92 93  1  0
 93 94  1  0
 94 95  1  0
 93 96  2  0
 96 97  1  0
 97 98  2  0
 96 99  1  0
 99100  1  0
 90101  1  0
101102  2  3
102103  1  0
103104  2  0
103105  1  0
105106  2  0
106107  1  0
107108  2  0
108109  1  0
108110  1  0
110111  2  0
111112  1  0
112113  2  3
113114  1  0
114115  3  0
113116  1  0
116117  3  0
 16  2  1  0
 35 22  1  0
 80 38  1  0
 98 85  1  0
112102  1  0
 15  5  1  0
 35 28  1  0
 47 40  1  0
 79 48  2  0
 98 91  1  0
111105  1  0
 13  7  1  0
 78 50  2  0
 76 51  2  0
 56 52  2  0
 75 57  2  0
 73 58  2  0
 72 60  2  0
 69 62  1  0
  1118  1  0
  6119  1  0
  8120  1  0
  9121  1  0
 12122  1  0
 14123  1  0
 31124  1  0
 31125  1  0
 32126  1  0
 32127  1  0
 32128  1  0
 36129  1  0
 36130  1  0
 37131  1  0
 37132  1  0
 37133  1  0
 41134  1  0
 42135  1  0
 43136  1  0
 45137  1  0
 45138  1  0
 46139  1  0
 46140  1  0
 46141  1  0
 47142  1  0
 63143  1  0
 64144  1  0
 65145  1  0
 67146  1  0
 67147  1  0
 68148  1  0
 68149  1  0
 68150  1  0
 69151  1  0
 81152  1  0
 81153  1  0
 82154  1  0
 82155  1  0
 82156  1  0
 83157  1  0
 83158  1  0
 84159  1  0
 84160  1  0
 84161  1  0
 94162  1  0
 94163  1  0
 95164  1  0
 95165  1  0
 95166  1  0
 99167  1  0
 99168  1  0
100169  1  0
100170  1  0
100171  1  0
101172  1  0
106173  1  0
107174  1  0
110175  1  0
M  END

