
     RDKit          3D

173192  0  0  0  0  0  0  0  0999 V2000
   -7.5268    0.5621   -3.1737 C   0  0  0  0  0  0  0  0  0  0  0  0
   -7.8861    1.8288   -2.8769 C   0  0  0  0  0  0  0  0  0  0  0  0
   -7.0662    3.0227   -3.0982 C   0  0  0  0  0  0  0  0  0  0  0  0
   -6.1524    3.1556   -3.9568 O   0  0  0  0  0  0  0  0  0  0  0  0
   -7.5028    4.0506   -2.1804 C   0  0  0  0  0  0  0  0  0  0  0  0
   -6.8742    5.2613   -1.8918 C   0  0  0  0  0  0  0  0  0  0  0  0
   -7.3856    6.0524   -0.8477 C   0  0  0  0  0  0  0  0  0  0  0  0
   -6.7673    7.2644   -0.5006 C   0  0  0  0  0  0  0  0  0  0  0  0
   -7.2621    8.0297    0.5607 C   0  0  0  0  0  0  0  0  0  0  0  0
   -8.3779    7.5958    1.2828 C   0  0  0  0  0  0  0  0  0  0  0  0
   -8.8516    8.3372    2.3109 F   0  0  0  0  0  0  0  0  0  0  0  0
   -9.0067    6.3894    0.9476 C   0  0  0  0  0  0  0  0  0  0  0  0
   -8.5190    5.6074   -0.1112 C   0  0  0  0  0  0  0  0  0  0  0  0
   -9.1298    4.3767   -0.4278 C   0  0  0  0  0  0  0  0  0  0  0  0
   -8.6145    3.6060   -1.4833 C   0  0  0  0  0  0  0  0  0  0  0  0
   -8.9999    2.2516   -1.9740 C   0  0  0  0  0  0  0  0  0  0  0  0
  -10.1857    1.6180   -1.7833 C   0  0  0  0  0  0  0  0  0  0  0  0
  -10.5478    0.4256   -2.5075 C   0  0  0  0  0  0  0  0  0  0  0  0
  -10.8465   -0.5312   -3.0862 N   0  0  0  0  0  0  0  0  0  0  0  0
  -11.2250    2.1543   -0.9453 C   0  0  0  0  0  0  0  0  0  0  0  0
  -12.0713    2.5672   -0.2706 N   0  0  0  0  0  0  0  0  0  0  0  0
   -6.2190    0.1748   -3.7534 C   0  0  0  0  0  0  0  0  0  0  0  0
   -6.1836   -0.6686   -4.8791 C   0  0  0  0  0  0  0  0  0  0  0  0
   -7.3415   -1.0427   -5.4866 F   0  0  0  0  0  0  0  0  0  0  0  0
   -4.9617   -1.1334   -5.3847 C   0  0  0  0  0  0  0  0  0  0  0  0
   -4.9571   -1.9579   -6.4637 F   0  0  0  0  0  0  0  0  0  0  0  0
   -3.7568   -0.7712   -4.7666 C   0  0  0  0  0  0  0  0  0  0  0  0
   -3.7841    0.0648   -3.6389 C   0  0  0  0  0  0  0  0  0  0  0  0
   -2.6305    0.4297   -3.0229 N   0  0  0  0  0  0  0  0  0  0  0  0
   -2.6101    1.2006   -1.9029 C   0  0  0  0  0  0  0  0  0  0  0  0
   -1.2644    1.5520   -1.3165 C   0  0  0  0  0  0  0  0  0  0  0  0
   -0.4731    0.2986   -0.9562 C   0  0  0  0  0  0  0  0  0  0  0  0
   -3.8454    1.6324   -1.3581 C   0  0  0  0  0  0  0  0  0  0  0  0
   -4.9964    1.2577   -1.9768 N   0  0  0  0  0  0  0  0  0  0  0  0
   -5.0065    0.5156   -3.1173 C   0  0  0  0  0  0  0  0  0  0  0  0
   -3.9603    2.4648   -0.1062 C   0  0  0  0  0  0  0  0  0  0  0  0
   -3.8298    1.5990    1.1423 C   0  0  0  0  0  0  0  0  0  0  0  0
   -2.4706   -1.3202   -5.2320 C   0  0  0  0  0  0  0  0  0  0  0  0
   -1.5372   -0.5952   -5.9945 C   0  0  0  0  0  0  0  0  0  0  0  0
   -1.8525    0.6736   -6.6778 C   0  0  0  0  0  0  0  0  0  0  0  0
   -2.8221    0.7045   -7.6890 C   0  0  0  0  0  0  0  0  0  0  0  0
   -3.1593    1.9126   -8.3050 C   0  0  0  0  0  0  0  0  0  0  0  0
   -2.5412    3.1010   -7.9037 C   0  0  0  0  0  0  0  0  0  0  0  0
   -1.5874    3.0892   -6.8731 C   0  0  0  0  0  0  0  0  0  0  0  0
   -0.9233    4.3650   -6.4270 C   0  0  0  0  0  0  0  0  0  0  0  0
    0.3662    4.6051   -7.2084 C   0  0  0  0  0  0  0  0  0  0  0  0
   -1.2342    1.8676   -6.2746 C   0  0  0  0  0  0  0  0  0  0  0  0
   -0.2406   -1.0970   -5.8241 C   0  0  0  0  0  0  0  0  0  0  0  0
    1.2962   -0.4235   -6.1543 S   0  0  0  0  0  0  0  0  0  0  0  0
    2.0438   -1.5528   -5.1354 C   0  0  0  0  0  0  0  0  0  0  0  0
    3.2313   -1.6843   -4.4761 C   0  0  0  0  0  0  0  0  0  0  0  0
    4.4843   -1.0878   -4.6627 C   0  0  0  0  0  0  0  0  0  0  0  0
    5.5542   -1.4609   -3.7922 C   0  0  0  0  0  0  0  0  0  0  0  0
    6.7535   -0.8644   -4.0003 N   0  0  0  0  0  0  0  0  0  0  0  0
    6.3671    0.0878   -5.2989 S   0  0  0  0  0  0  0  0  0  0  0  0
    4.7666   -0.1841   -5.6336 N   0  0  0  0  0  0  0  0  0  0  0  0
    5.2984   -2.3789   -2.7626 C   0  0  0  0  0  0  0  0  0  0  0  0
    6.0369   -2.7308   -1.6646 C   0  0  0  0  0  0  0  0  0  0  0  0
    7.4191   -2.1322   -0.8650 S   0  0  0  0  0  0  0  0  0  0  0  0
    6.9249   -2.8273    0.6154 C   0  0  0  0  0  0  0  0  0  0  0  0
    7.3787   -2.7501    1.9430 C   0  0  0  0  0  0  0  0  0  0  0  0
    8.5981   -2.0498    2.3975 C   0  0  0  0  0  0  0  0  0  0  0  0
    8.9139   -0.7671    1.9269 C   0  0  0  0  0  0  0  0  0  0  0  0
   10.0690   -0.1186    2.3703 C   0  0  0  0  0  0  0  0  0  0  0  0
   10.9228   -0.7428    3.2825 C   0  0  0  0  0  0  0  0  0  0  0  0
   10.6132   -2.0194    3.7769 C   0  0  0  0  0  0  0  0  0  0  0  0
   11.5503   -2.7118    4.7366 C   0  0  0  0  0  0  0  0  0  0  0  0
   12.4173   -3.7387    4.0079 C   0  0  0  0  0  0  0  0  0  0  0  0
    9.4495   -2.6676    3.3293 C   0  0  0  0  0  0  0  0  0  0  0  0
    6.4665   -3.3888    2.8128 C   0  0  0  0  0  0  0  0  0  0  0  0
    5.1407   -3.9880    1.9342 S   0  0  0  0  0  0  0  0  0  0  0  0
    5.7203   -3.4646    0.4636 C   0  0  0  0  0  0  0  0  0  0  0  0
    5.1996   -3.3827   -0.8167 C   0  0  0  0  0  0  0  0  0  0  0  0
    3.9215   -3.4225   -1.2719 N   0  0  0  0  0  0  0  0  0  0  0  0
    4.0140   -2.9006   -2.5338 C   0  0  0  0  0  0  0  0  0  0  0  0
    2.9823   -2.6153   -3.4611 C   0  0  0  0  0  0  0  0  0  0  0  0
    1.7098   -3.1230   -3.5358 N   0  0  0  0  0  0  0  0  0  0  0  0
    1.1651   -2.4176   -4.5615 C   0  0  0  0  0  0  0  0  0  0  0  0
   -0.1414   -2.1648   -4.9629 C   0  0  0  0  0  0  0  0  0  0  0  0
   -1.6538   -2.5195   -4.3423 S   0  0  0  0  0  0  0  0  0  0  0  0
    1.3401   -4.5114   -3.2162 C   0  0  0  0  0  0  0  0  0  0  0  0
    0.0079   -4.6142   -2.4689 C   0  0  0  0  0  0  0  0  0  0  0  0
    2.7488   -3.3304   -0.3833 C   0  0  0  0  0  0  0  0  0  0  0  0
    2.6696   -1.9537    0.2853 C   0  0  0  0  0  0  0  0  0  0  0  0
    6.3337   -3.1727    4.2589 C   0  0  0  0  0  0  0  0  0  0  0  0
    5.9982   -1.9015    4.7369 C   0  0  0  0  0  0  0  0  0  0  0  0
    6.0098   -0.7343    4.0708 N   0  0  0  0  0  0  0  0  0  0  0  0
    5.3609    0.1169    4.8589 N   0  0  0  0  0  0  0  0  0  0  0  0
    5.0703    1.4959    4.4842 C   0  0  0  0  0  0  0  0  0  0  0  0
    3.6886    1.5837    3.8490 C   0  0  0  0  0  0  0  0  0  0  0  0
    4.8757   -0.4553    5.9569 N   0  0  0  0  0  0  0  0  0  0  0  0
    5.2928   -1.7306    5.8940 C   0  0  0  0  0  0  0  0  0  0  0  0
    4.8653   -2.8123    6.6653 C   0  0  0  0  0  0  0  0  0  0  0  0
    5.3275   -4.0945    6.2964 C   0  0  0  0  0  0  0  0  0  0  0  0
    6.0485   -4.2719    5.0956 C   0  0  0  0  0  0  0  0  0  0  0  0
    4.9352   -5.1894    6.9981 F   0  0  0  0  0  0  0  0  0  0  0  0
    3.7257   -2.6745    7.5861 C   0  0  0  0  0  0  0  0  0  0  0  0
    2.4575   -2.5807    7.1331 C   0  0  0  0  0  0  0  0  0  0  0  0
    2.0385   -2.7457    5.7301 C   0  0  0  0  0  0  0  0  0  0  0  0
    2.7862   -2.7535    4.7143 O   0  0  0  0  0  0  0  0  0  0  0  0
    0.6101   -2.9417    5.6933 C   0  0  0  0  0  0  0  0  0  0  0  0
   -0.1776   -3.2568    4.5912 C   0  0  0  0  0  0  0  0  0  0  0  0
   -1.5412   -3.5232    4.7939 C   0  0  0  0  0  0  0  0  0  0  0  0
   -2.3729   -3.8326    3.7082 C   0  0  0  0  0  0  0  0  0  0  0  0
   -3.7276   -4.1054    3.9159 C   0  0  0  0  0  0  0  0  0  0  0  0
   -4.2612   -4.0803    5.2069 C   0  0  0  0  0  0  0  0  0  0  0  0
   -5.5761   -4.3467    5.3994 F   0  0  0  0  0  0  0  0  0  0  0  0
   -3.4432   -3.7821    6.3013 C   0  0  0  0  0  0  0  0  0  0  0  0
   -2.0829   -3.4962    6.1109 C   0  0  0  0  0  0  0  0  0  0  0  0
   -1.2510   -3.1877    7.2093 C   0  0  0  0  0  0  0  0  0  0  0  0
    0.1022   -2.8787    6.9788 C   0  0  0  0  0  0  0  0  0  0  0  0
    1.1956   -2.5460    7.9394 C   0  0  0  0  0  0  0  0  0  0  0  0
    1.0475   -2.0550    9.1985 C   0  0  0  0  0  0  0  0  0  0  0  0
   -0.2467   -1.8381    9.7920 C   0  0  0  0  0  0  0  0  0  0  0  0
   -1.2767   -1.6356   10.2777 N   0  0  0  0  0  0  0  0  0  0  0  0
    2.1576   -1.5395    9.9567 C   0  0  0  0  0  0  0  0  0  0  0  0
    3.0419   -1.1196   10.5723 N   0  0  0  0  0  0  0  0  0  0  0  0
   -8.1591   -0.2616   -2.8878 H   0  0  0  0  0  0  0  0  0  0  0  0
   -5.9877    5.5646   -2.4362 H   0  0  0  0  0  0  0  0  0  0  0  0
   -5.8986    7.6181   -1.0446 H   0  0  0  0  0  0  0  0  0  0  0  0
   -6.7756    8.9582    0.8316 H   0  0  0  0  0  0  0  0  0  0  0  0
   -9.8688    6.0672    1.5180 H   0  0  0  0  0  0  0  0  0  0  0  0
   -9.9502    4.0242    0.1745 H   0  0  0  0  0  0  0  0  0  0  0  0
   -0.6945    2.1334   -2.0693 H   0  0  0  0  0  0  0  0  0  0  0  0
   -1.3415    2.1799   -0.4091 H   0  0  0  0  0  0  0  0  0  0  0  0
    0.4905    0.5856   -0.4821 H   0  0  0  0  0  0  0  0  0  0  0  0
   -1.0440   -0.3248   -0.2373 H   0  0  0  0  0  0  0  0  0  0  0  0
   -0.2461   -0.2995   -1.8653 H   0  0  0  0  0  0  0  0  0  0  0  0
   -3.2110    3.2861   -0.0976 H   0  0  0  0  0  0  0  0  0  0  0  0
   -4.9593    2.9582   -0.0860 H   0  0  0  0  0  0  0  0  0  0  0  0
   -3.9748    2.2290    2.0433 H   0  0  0  0  0  0  0  0  0  0  0  0
   -2.8273    1.1249    1.1961 H   0  0  0  0  0  0  0  0  0  0  0  0
   -4.6064    0.8021    1.1378 H   0  0  0  0  0  0  0  0  0  0  0  0
   -3.3096   -0.2105   -8.0080 H   0  0  0  0  0  0  0  0  0  0  0  0
   -3.9081    1.9308   -9.0843 H   0  0  0  0  0  0  0  0  0  0  0  0
   -2.8153    4.0304   -8.3851 H   0  0  0  0  0  0  0  0  0  0  0  0
   -1.6093    5.2289   -6.5764 H   0  0  0  0  0  0  0  0  0  0  0  0
   -0.6842    4.3100   -5.3425 H   0  0  0  0  0  0  0  0  0  0  0  0
    0.8298    5.5595   -6.8698 H   0  0  0  0  0  0  0  0  0  0  0  0
    0.1531    4.6786   -8.2967 H   0  0  0  0  0  0  0  0  0  0  0  0
    1.0903    3.7803   -7.0230 H   0  0  0  0  0  0  0  0  0  0  0  0
   -0.4974    1.8506   -5.4816 H   0  0  0  0  0  0  0  0  0  0  0  0
    8.2575   -0.2579    1.2336 H   0  0  0  0  0  0  0  0  0  0  0  0
   10.3075    0.8705    2.0005 H   0  0  0  0  0  0  0  0  0  0  0  0
   11.8192   -0.2268    3.6056 H   0  0  0  0  0  0  0  0  0  0  0  0
   12.2145   -1.9754    5.2397 H   0  0  0  0  0  0  0  0  0  0  0  0
   10.9619   -3.2241    5.5290 H   0  0  0  0  0  0  0  0  0  0  0  0
   11.7841   -4.5208    3.5389 H   0  0  0  0  0  0  0  0  0  0  0  0
   13.1028   -4.2246    4.7351 H   0  0  0  0  0  0  0  0  0  0  0  0
   13.0313   -3.2405    3.2258 H   0  0  0  0  0  0  0  0  0  0  0  0
    9.2236   -3.6627    3.6936 H   0  0  0  0  0  0  0  0  0  0  0  0
    2.1411   -4.9933   -2.6151 H   0  0  0  0  0  0  0  0  0  0  0  0
    1.2745   -5.1005   -4.1571 H   0  0  0  0  0  0  0  0  0  0  0  0
    0.0770   -5.4157   -1.7009 H   0  0  0  0  0  0  0  0  0  0  0  0
   -0.8080   -4.8932   -3.1666 H   0  0  0  0  0  0  0  0  0  0  0  0
   -0.2503   -3.6585   -1.9629 H   0  0  0  0  0  0  0  0  0  0  0  0
    1.8150   -3.4635   -0.9335 H   0  0  0  0  0  0  0  0  0  0  0  0
    2.7892   -4.1280    0.3846 H   0  0  0  0  0  0  0  0  0  0  0  0
    3.5702   -1.7544    0.8979 H   0  0  0  0  0  0  0  0  0  0  0  0
    2.5769   -1.1578   -0.4841 H   0  0  0  0  0  0  0  0  0  0  0  0
    1.7771   -1.9104    0.9454 H   0  0  0  0  0  0  0  0  0  0  0  0
    5.8369    1.8587    3.7644 H   0  0  0  0  0  0  0  0  0  0  0  0
    5.1080    2.1412    5.3890 H   0  0  0  0  0  0  0  0  0  0  0  0
    3.4686    2.6393    3.5808 H   0  0  0  0  0  0  0  0  0  0  0  0
    3.6455    0.9591    2.9295 H   0  0  0  0  0  0  0  0  0  0  0  0
    2.9131    1.2347    4.5645 H   0  0  0  0  0  0  0  0  0  0  0  0
    6.2560   -5.2764    4.7460 H   0  0  0  0  0  0  0  0  0  0  0  0
    3.9322   -2.7818    8.6408 H   0  0  0  0  0  0  0  0  0  0  0  0
    0.2646   -3.3066    3.6036 H   0  0  0  0  0  0  0  0  0  0  0  0
   -1.9748   -3.8622    2.7006 H   0  0  0  0  0  0  0  0  0  0  0  0
   -4.3600   -4.3390    3.0691 H   0  0  0  0  0  0  0  0  0  0  0  0
   -3.8747   -3.7682    7.2976 H   0  0  0  0  0  0  0  0  0  0  0  0
   -1.6582   -3.2318    8.2062 H   0  0  0  0  0  0  0  0  0  0  0  0
  1  2  2  3
  2  3  1  0
  3  4  2  0
  3  5  1  0
  5  6  2  0
  6  7  1  0
  7  8  2  0
  8  9  1  0
  9 10  2  0
 10 11  1  0
 10 12  1  0
 12 13  2  0
 13 14  1  0
 14 15  2  0
 15 16  1  0
 16 17  2  3
 17 18  1  0
 18 19  3  0
 17 20  1  0
 20 21  3  0
  1 22  1  0
 22 23  2  0
 23 24  1  0
 23 25  1  0
 25 26  1  0
 25 27  2  0
 27 28  1  0
 28 29  2  0
 29 30  1  0
 30 31  1  0
 31 32  1  0
 30 33  2  0
 33 34  1  0
 34 35  2  0
 33 36  1  0
 36 37  1  0
 27 38  1  0
 38 39  2  0
 39 40  1  0
 40 41  2  0
 41 42  1  0
 42 43  2  0
 43 44  1  0
 44 45  1  0
 45 46  1  0
 44 47  2  0
 39 48  1  0
 48 49  1  0
 49 50  1  0
 50 51  1  0
 51 52  1  0
 52 53  1  0
 53 54  2  0
 54 55  1  0
 55 56  1  0
 53 57  1  0
 57 58  1  0
 58 59  1  0
 59 60  1  0
 60 61  1  0
 61 62  1  0
 62 63  2  0
 63 64  1  0
 64 65  2  0
 65 66  1  0
 66 67  1  0
 67 68  1  0
 66 69  2  0
 61 70  2  0
 70 71  1  0
 71 72  1  0
 72 73  1  0
 73 74  1  0
 74 75  1  0
 75 76  1  0
 76 77  1  0
 77 78  1  0
 78 79  1  0
 79 80  1  0
 77 81  1  0
 81 82  1  0
 74 83  1  0
 83 84  1  0
 70 85  1  0
 85 86  1  0
 86 87  2  0
 87 88  1  0
 88 89  1  0
 89 90  1  0
 88 91  1  0
 91 92  2  0
 92 93  1  0
 93 94  2  0
 94 95  1  0
 94 96  1  0
 93 97  1  0
 97 98  2  3
 98 99  1  0
 99100  2  0
 99101  1  0
101102  2  0
102103  1  0
103104  2  0
104105  1  0
105106  2  0
106107  1  0
106108  1  0
108109  2  0
109110  1  0
110111  2  0
111112  1  0
112113  2  3
113114  1  0
114115  3  0
113116  1  0
116117  3  0
 16  2  1  0
 35 22  1  0
 80 38  1  0
 95 85  2  0
112 98  1  0
 15  5  1  0
 35 28  1  0
 47 40  1  0
 79 48  2  0
 92 86  1  0
111101  1  0
 13  7  1  0
 78 50  2  0
109103  1  0
 76 51  2  0
 56 52  2  0
 75 57  2  0
 73 58  2  0
 72 60  2  0
 69 62  1  0
  1118  1  0
  6119  1  0
  8120  1  0
  9121  1  0
 12122  1  0
 14123  1  0
 31124  1  0
 31125  1  0
 32126  1  0
 32127  1  0
 32128  1  0
 36129  1  0
 36130  1  0
 37131  1  0
 37132  1  0
 37133  1  0
 41134  1  0
 42135  1  0
 43136  1  0
 45137  1  0
 45138  1  0
 46139  1  0
 46140  1  0
 46141  1  0
 47142  1  0
 63143  1  0
 64144  1  0
 65145  1  0
 67146  1  0
 67147  1  0
 68148  1  0
 68149  1  0
 68150  1  0
 69151  1  0
 81152  1  0
 81153  1  0
 82154  1  0
 82155  1  0
 82156  1  0
 83157  1  0
 83158  1  0
 84159  1  0
 84160  1  0
 84161  1  0
 89162  1  0
 89163  1  0
 90164  1  0
 90165  1  0
 90166  1  0
 95167  1  0
 97168  1  0
102169  1  0
104170  1  0
105171  1  0
108172  1  0
110173  1  0
M  END

