
     RDKit          3D

190211  0  0  0  0  0  0  0  0999 V2000
    5.4113   -3.7123    7.0233 C   0  0  0  0  0  0  0  0  0  0  0  0
    5.8496   -3.1044    5.9022 C   0  0  0  0  0  0  0  0  0  0  0  0
    7.2541   -2.7740    5.6707 C   0  0  0  0  0  0  0  0  0  0  0  0
    8.2406   -3.2500    6.2942 O   0  0  0  0  0  0  0  0  0  0  0  0
    7.3247   -1.7917    4.6040 C   0  0  0  0  0  0  0  0  0  0  0  0
    8.4618   -1.2366    4.0197 C   0  0  0  0  0  0  0  0  0  0  0  0
    8.3061   -0.3860    2.9102 C   0  0  0  0  0  0  0  0  0  0  0  0
    9.4220    0.1717    2.2680 C   0  0  0  0  0  0  0  0  0  0  0  0
    9.2547    0.9780    1.1386 C   0  0  0  0  0  0  0  0  0  0  0  0
    7.9735    1.2344    0.6399 C   0  0  0  0  0  0  0  0  0  0  0  0
    7.8209    1.9846   -0.4824 F   0  0  0  0  0  0  0  0  0  0  0  0
    6.8482    0.6960    1.2709 C   0  0  0  0  0  0  0  0  0  0  0  0
    7.0022   -0.1110    2.4097 C   0  0  0  0  0  0  0  0  0  0  0  0
    5.8705   -0.6712    3.0373 C   0  0  0  0  0  0  0  0  0  0  0  0
    6.0476   -1.5100    4.1499 C   0  0  0  0  0  0  0  0  0  0  0  0
    5.0626   -2.3717    4.8616 C   0  0  0  0  0  0  0  0  0  0  0  0
    3.8459   -2.7141    4.3796 C   0  0  0  0  0  0  0  0  0  0  0  0
    3.0268   -1.7976    3.6299 C   0  0  0  0  0  0  0  0  0  0  0  0
    2.3561   -1.0714    3.0317 N   0  0  0  0  0  0  0  0  0  0  0  0
    3.3724   -4.0683    4.4416 C   0  0  0  0  0  0  0  0  0  0  0  0
    2.9813   -5.1586    4.4654 N   0  0  0  0  0  0  0  0  0  0  0  0
    3.9955   -3.7054    7.4342 C   0  0  0  0  0  0  0  0  0  0  0  0
    3.2865   -4.9097    7.4771 C   0  0  0  0  0  0  0  0  0  0  0  0
    3.9483   -6.0873    7.3563 F   0  0  0  0  0  0  0  0  0  0  0  0
    1.8899   -4.9032    7.3995 C   0  0  0  0  0  0  0  0  0  0  0  0
    1.2804   -6.0772    7.1090 F   0  0  0  0  0  0  0  0  0  0  0  0
    1.1760   -3.6817    7.3976 C   0  0  0  0  0  0  0  0  0  0  0  0
    1.8977   -2.4837    7.6108 C   0  0  0  0  0  0  0  0  0  0  0  0
    1.2583   -1.2861    7.6981 N   0  0  0  0  0  0  0  0  0  0  0  0
    1.9208   -0.0992    7.7574 C   0  0  0  0  0  0  0  0  0  0  0  0
    1.1059    1.1642    7.8213 C   0  0  0  0  0  0  0  0  0  0  0  0
    0.9243    1.6356    9.2641 C   0  0  0  0  0  0  0  0  0  0  0  0
    3.3329   -0.1133    7.7429 C   0  0  0  0  0  0  0  0  0  0  0  0
    3.9728   -1.3100    7.6616 N   0  0  0  0  0  0  0  0  0  0  0  0
    3.3032   -2.4933    7.6025 C   0  0  0  0  0  0  0  0  0  0  0  0
    4.1738    1.1351    7.6834 C   0  0  0  0  0  0  0  0  0  0  0  0
    4.4965    1.4949    6.2366 C   0  0  0  0  0  0  0  0  0  0  0  0
   -0.1951   -3.6028    6.8168 C   0  0  0  0  0  0  0  0  0  0  0  0
   -1.2533   -4.5569    6.8793 C   0  0  0  0  0  0  0  0  0  0  0  0
   -1.3116   -5.7085    7.8075 C   0  0  0  0  0  0  0  0  0  0  0  0
   -1.7236   -6.9789    7.3610 C   0  0  0  0  0  0  0  0  0  0  0  0
   -1.7002   -8.0681    8.2306 C   0  0  0  0  0  0  0  0  0  0  0  0
   -1.2558   -7.9128    9.5443 C   0  0  0  0  0  0  0  0  0  0  0  0
   -0.8188   -6.6603    9.9978 C   0  0  0  0  0  0  0  0  0  0  0  0
   -0.3121   -6.4841   11.4014 C   0  0  0  0  0  0  0  0  0  0  0  0
   -1.3582   -5.8066   12.2794 C   0  0  0  0  0  0  0  0  0  0  0  0
   -0.8724   -5.5564    9.1327 C   0  0  0  0  0  0  0  0  0  0  0  0
   -2.2471   -4.2504    5.9251 C   0  0  0  0  0  0  0  0  0  0  0  0
   -3.5869   -5.1012    5.2679 S   0  0  0  0  0  0  0  0  0  0  0  0
   -3.7737   -3.9383    4.0397 C   0  0  0  0  0  0  0  0  0  0  0  0
   -4.4076   -3.7547    2.8346 C   0  0  0  0  0  0  0  0  0  0  0  0
   -5.4216   -4.4632    2.1798 C   0  0  0  0  0  0  0  0  0  0  0  0
   -5.8433   -4.0183    0.8869 C   0  0  0  0  0  0  0  0  0  0  0  0
   -6.8141   -4.7363    0.2744 N   0  0  0  0  0  0  0  0  0  0  0  0
   -7.0789   -5.8877    1.4368 S   0  0  0  0  0  0  0  0  0  0  0  0
   -6.0361   -5.5565    2.6867 N   0  0  0  0  0  0  0  0  0  0  0  0
   -5.1841   -2.9282    0.3022 C   0  0  0  0  0  0  0  0  0  0  0  0
   -5.1930   -2.4484   -0.9813 C   0  0  0  0  0  0  0  0  0  0  0  0
   -5.8902   -2.8342   -2.4860 S   0  0  0  0  0  0  0  0  0  0  0  0
   -4.7565   -1.8438   -3.2979 C   0  0  0  0  0  0  0  0  0  0  0  0
   -4.5161   -1.5354   -4.6401 C   0  0  0  0  0  0  0  0  0  0  0  0
   -5.2989   -2.0646   -5.7644 C   0  0  0  0  0  0  0  0  0  0  0  0
   -6.5659   -1.5382   -6.0528 C   0  0  0  0  0  0  0  0  0  0  0  0
   -7.3244   -2.0716   -7.0941 C   0  0  0  0  0  0  0  0  0  0  0  0
   -6.8316   -3.1445   -7.8423 C   0  0  0  0  0  0  0  0  0  0  0  0
   -5.5626   -3.6794   -7.5656 C   0  0  0  0  0  0  0  0  0  0  0  0
   -5.0570   -4.8832   -8.3202 C   0  0  0  0  0  0  0  0  0  0  0  0
   -5.4061   -6.1727   -7.5822 C   0  0  0  0  0  0  0  0  0  0  0  0
   -4.7968   -3.1286   -6.5248 C   0  0  0  0  0  0  0  0  0  0  0  0
   -3.3631   -0.7412   -4.7669 C   0  0  0  0  0  0  0  0  0  0  0  0
   -2.6889   -0.4325   -3.2338 S   0  0  0  0  0  0  0  0  0  0  0  0
   -3.8559   -1.3012   -2.4191 C   0  0  0  0  0  0  0  0  0  0  0  0
   -4.1170   -1.6259   -1.1030 C   0  0  0  0  0  0  0  0  0  0  0  0
   -3.3805   -1.5367    0.0285 N   0  0  0  0  0  0  0  0  0  0  0  0
   -4.1016   -2.2822    0.9271 C   0  0  0  0  0  0  0  0  0  0  0  0
   -3.7829   -2.6379    2.2570 C   0  0  0  0  0  0  0  0  0  0  0  0
   -2.8689   -2.0873    3.1093 N   0  0  0  0  0  0  0  0  0  0  0  0
   -2.8637   -2.9441    4.1481 C   0  0  0  0  0  0  0  0  0  0  0  0
   -1.9990   -3.1192    5.1991 C   0  0  0  0  0  0  0  0  0  0  0  0
   -0.5356   -2.4573    5.6004 S   0  0  0  0  0  0  0  0  0  0  0  0
   -2.3890   -0.6980    3.1452 C   0  0  0  0  0  0  0  0  0  0  0  0
   -2.9103    0.0534    4.3707 C   0  0  0  0  0  0  0  0  0  0  0  0
   -1.9279   -1.2977    0.0332 C   0  0  0  0  0  0  0  0  0  0  0  0
   -1.5977    0.1989   -0.0696 C   0  0  0  0  0  0  0  0  0  0  0  0
   -2.8827   -0.0531   -5.9677 C   0  0  0  0  0  0  0  0  0  0  0  0
   -1.5441   -0.1009   -6.3505 C   0  0  0  0  0  0  0  0  0  0  0  0
   -1.1034    1.0766   -6.9785 C   0  0  0  0  0  0  0  0  0  0  0  0
    0.2259    1.3654   -7.3202 C   0  0  0  0  0  0  0  0  0  0  0  0
    1.3073    0.3864   -7.1282 C   0  0  0  0  0  0  0  0  0  0  0  0
    2.0260   -0.2303   -8.1469 C   0  0  0  0  0  0  0  0  0  0  0  0
    3.0642   -1.0335   -7.6638 C   0  0  0  0  0  0  0  0  0  0  0  0
    3.8991   -1.7186   -8.4818 F   0  0  0  0  0  0  0  0  0  0  0  0
    3.1685   -1.0372   -6.2821 C   0  0  0  0  0  0  0  0  0  0  0  0
    4.2249   -1.7252   -5.4815 C   0  0  0  0  0  0  0  0  0  0  0  0
    5.4239   -0.8078   -5.2729 C   0  0  0  0  0  0  0  0  0  0  0  0
    1.9814   -0.0245   -5.6481 S   0  0  0  0  0  0  0  0  0  0  0  0
    0.5195    2.6864   -7.6845 C   0  0  0  0  0  0  0  0  0  0  0  0
   -0.4626    3.6878   -7.7491 C   0  0  0  0  0  0  0  0  0  0  0  0
   -1.8209    3.3775   -7.5026 C   0  0  0  0  0  0  0  0  0  0  0  0
   -2.8712    4.4187   -7.5760 C   0  0  0  0  0  0  0  0  0  0  0  0
   -4.0394    4.7541   -6.4045 S   0  0  0  0  0  0  0  0  0  0  0  0
   -4.7249    6.0777   -7.1921 C   0  0  0  0  0  0  0  0  0  0  0  0
   -5.9314    6.8476   -6.7335 C   0  0  0  0  0  0  0  0  0  0  0  0
   -5.8244    7.3127   -5.2770 C   0  0  0  0  0  0  0  0  0  0  0  0
   -4.7034    8.3292   -5.0612 C   0  0  0  0  0  0  0  0  0  0  0  0
   -4.0555    6.2529   -8.3976 C   0  0  0  0  0  0  0  0  0  0  0  0
   -3.0207    5.3353   -8.6137 C   0  0  0  0  0  0  0  0  0  0  0  0
   -4.3680    7.2243   -9.2892 F   0  0  0  0  0  0  0  0  0  0  0  0
   -2.0996    2.0516   -7.0969 C   0  0  0  0  0  0  0  0  0  0  0  0
   -3.5198    1.4408   -6.4274 S   0  0  0  0  0  0  0  0  0  0  0  0
    0.0824    4.9782   -7.8698 C   0  0  0  0  0  0  0  0  0  0  0  0
    1.4710    4.9785   -7.8978 C   0  0  0  0  0  0  0  0  0  0  0  0
    2.0449    3.3980   -7.7824 S   0  0  0  0  0  0  0  0  0  0  0  0
    2.2955    6.1728   -7.6700 C   0  0  0  0  0  0  0  0  0  0  0  0
    2.6624    6.5560   -6.4380 C   0  0  0  0  0  0  0  0  0  0  0  0
    3.4346    7.7558   -6.0981 C   0  0  0  0  0  0  0  0  0  0  0  0
    3.8711    8.6083   -6.9140 O   0  0  0  0  0  0  0  0  0  0  0  0
    3.5846    7.8114   -4.6452 C   0  0  0  0  0  0  0  0  0  0  0  0
    4.2318    8.7563   -3.8530 C   0  0  0  0  0  0  0  0  0  0  0  0
    4.2212    8.5739   -2.4560 C   0  0  0  0  0  0  0  0  0  0  0  0
    3.5665    7.4636   -1.8848 C   0  0  0  0  0  0  0  0  0  0  0  0
    2.9213    6.5230   -2.7025 C   0  0  0  0  0  0  0  0  0  0  0  0
    2.9470    6.7210   -4.0841 C   0  0  0  0  0  0  0  0  0  0  0  0
    2.3575    5.9108   -5.1470 C   0  0  0  0  0  0  0  0  0  0  0  0
    1.6901    4.8585   -4.9663 O   0  0  0  0  0  0  0  0  0  0  0  0
    6.1146   -4.1962    7.6824 H   0  0  0  0  0  0  0  0  0  0  0  0
    9.4469   -1.4847    4.4011 H   0  0  0  0  0  0  0  0  0  0  0  0
   10.4231   -0.0254    2.6296 H   0  0  0  0  0  0  0  0  0  0  0  0
   10.1179    1.3876    0.6333 H   0  0  0  0  0  0  0  0  0  0  0  0
    5.8663    0.8998    0.8651 H   0  0  0  0  0  0  0  0  0  0  0  0
    4.8934   -0.4625    2.6338 H   0  0  0  0  0  0  0  0  0  0  0  0
    1.5592    1.9806    7.2126 H   0  0  0  0  0  0  0  0  0  0  0  0
    0.0977    0.9642    7.3879 H   0  0  0  0  0  0  0  0  0  0  0  0
    0.0998    2.3780    9.3163 H   0  0  0  0  0  0  0  0  0  0  0  0
    1.8441    2.1329    9.6232 H   0  0  0  0  0  0  0  0  0  0  0  0
    0.6714    0.7843    9.9293 H   0  0  0  0  0  0  0  0  0  0  0  0
    3.6788    1.9942    8.1757 H   0  0  0  0  0  0  0  0  0  0  0  0
    5.1251    0.9557    8.2321 H   0  0  0  0  0  0  0  0  0  0  0  0
    4.9948    0.6415    5.7273 H   0  0  0  0  0  0  0  0  0  0  0  0
    3.5685    1.7551    5.6801 H   0  0  0  0  0  0  0  0  0  0  0  0
    5.1763    2.3718    6.2090 H   0  0  0  0  0  0  0  0  0  0  0  0
   -2.0056   -7.1385    6.3281 H   0  0  0  0  0  0  0  0  0  0  0  0
   -2.0070   -9.0462    7.8737 H   0  0  0  0  0  0  0  0  0  0  0  0
   -1.2324   -8.7739   10.1988 H   0  0  0  0  0  0  0  0  0  0  0  0
    0.6121   -5.8708   11.3885 H   0  0  0  0  0  0  0  0  0  0  0  0
   -0.0463   -7.4684   11.8483 H   0  0  0  0  0  0  0  0  0  0  0  0
   -1.5428   -4.7680   11.9294 H   0  0  0  0  0  0  0  0  0  0  0  0
   -0.9845   -5.7649   13.3243 H   0  0  0  0  0  0  0  0  0  0  0  0
   -2.3124   -6.3679   12.2602 H   0  0  0  0  0  0  0  0  0  0  0  0
   -0.5496   -4.5851    9.4825 H   0  0  0  0  0  0  0  0  0  0  0  0
   -6.9596   -0.7132   -5.4667 H   0  0  0  0  0  0  0  0  0  0  0  0
   -8.3006   -1.6623   -7.3144 H   0  0  0  0  0  0  0  0  0  0  0  0
   -7.4418   -3.5640   -8.6327 H   0  0  0  0  0  0  0  0  0  0  0  0
   -3.9554   -4.8195   -8.4412 H   0  0  0  0  0  0  0  0  0  0  0  0
   -5.5001   -4.9119   -9.3402 H   0  0  0  0  0  0  0  0  0  0  0  0
   -4.9241   -6.1821   -6.5821 H   0  0  0  0  0  0  0  0  0  0  0  0
   -6.5068   -6.2652   -7.4606 H   0  0  0  0  0  0  0  0  0  0  0  0
   -5.0362   -7.0418   -8.1631 H   0  0  0  0  0  0  0  0  0  0  0  0
   -3.8246   -3.5489   -6.2907 H   0  0  0  0  0  0  0  0  0  0  0  0
   -2.7729   -0.1387    2.2734 H   0  0  0  0  0  0  0  0  0  0  0  0
   -1.2773   -0.6780    3.1408 H   0  0  0  0  0  0  0  0  0  0  0  0
   -2.4683   -0.3404    5.3042 H   0  0  0  0  0  0  0  0  0  0  0  0
   -2.6381    1.1287    4.2909 H   0  0  0  0  0  0  0  0  0  0  0  0
   -4.0165   -0.0269    4.4283 H   0  0  0  0  0  0  0  0  0  0  0  0
   -1.4634   -1.8327   -0.8200 H   0  0  0  0  0  0  0  0  0  0  0  0
   -1.4500   -1.7361    0.9287 H   0  0  0  0  0  0  0  0  0  0  0  0
   -0.9972    0.3971   -0.9823 H   0  0  0  0  0  0  0  0  0  0  0  0
   -0.9890    0.5223    0.8023 H   0  0  0  0  0  0  0  0  0  0  0  0
   -2.5191    0.8191   -0.1065 H   0  0  0  0  0  0  0  0  0  0  0  0
   -0.8840   -0.9010   -6.0492 H   0  0  0  0  0  0  0  0  0  0  0  0
    1.8134   -0.1052   -9.2019 H   0  0  0  0  0  0  0  0  0  0  0  0
    3.8076   -2.0200   -4.4923 H   0  0  0  0  0  0  0  0  0  0  0  0
    4.5502   -2.6518   -6.0034 H   0  0  0  0  0  0  0  0  0  0  0  0
    5.1140    0.1053   -4.7230 H   0  0  0  0  0  0  0  0  0  0  0  0
    6.1944   -1.3393   -4.6736 H   0  0  0  0  0  0  0  0  0  0  0  0
    5.8639   -0.5177   -6.2505 H   0  0  0  0  0  0  0  0  0  0  0  0
   -6.0901    7.7325   -7.3849 H   0  0  0  0  0  0  0  0  0  0  0  0
   -6.8243    6.1958   -6.8422 H   0  0  0  0  0  0  0  0  0  0  0  0
   -5.6713    6.4407   -4.6058 H   0  0  0  0  0  0  0  0  0  0  0  0
   -6.7863    7.7901   -4.9925 H   0  0  0  0  0  0  0  0  0  0  0  0
   -4.7210    8.6739   -4.0029 H   0  0  0  0  0  0  0  0  0  0  0  0
   -3.7148    7.8653   -5.2644 H   0  0  0  0  0  0  0  0  0  0  0  0
   -4.8454    9.2093   -5.7239 H   0  0  0  0  0  0  0  0  0  0  0  0
   -2.4071    5.3399   -9.5021 H   0  0  0  0  0  0  0  0  0  0  0  0
   -0.4928    5.8930   -7.8016 H   0  0  0  0  0  0  0  0  0  0  0  0
    2.5590    6.7784   -8.5262 H   0  0  0  0  0  0  0  0  0  0  0  0
    4.7319    9.6071   -4.2958 H   0  0  0  0  0  0  0  0  0  0  0  0
    4.7239    9.2897   -1.8162 H   0  0  0  0  0  0  0  0  0  0  0  0
    3.5648    7.3360   -0.8109 H   0  0  0  0  0  0  0  0  0  0  0  0
    2.4150    5.6691   -2.2706 H   0  0  0  0  0  0  0  0  0  0  0  0
  1  2  2  3
  2  3  1  0
  3  4  2  0
  3  5  1  0
  5  6  2  0
  6  7  1  0
  7  8  2  0
  8  9  1  0
  9 10  2  0
 10 11  1  0
 10 12  1  0
 12 13  2  0
 13 14  1  0
 14 15  2  0
 15 16  1  0
 16 17  2  3
 17 18  1  0
 18 19  3  0
 17 20  1  0
 20 21  3  0
  1 22  1  0
 22 23  2  0
 23 24  1  0
 23 25  1  0
 25 26  1  0
 25 27  2  0
 27 28  1  0
 28 29  2  0
 29 30  1  0
 30 31  1  0
 31 32  1  0
 30 33  2  0
 33 34  1  0
 34 35  2  0
 33 36  1  0
 36 37  1  0
 27 38  1  0
 38 39  2  0
 39 40  1  0
 40 41  2  0
 41 42  1  0
 42 43  2  0
 43 44  1  0
 44 45  1  0
 45 46  1  0
 44 47  2  0
 39 48  1  0
 48 49  1  0
 49 50  1  0
 50 51  1  0
 51 52  1  0
 52 53  1  0
 53 54  2  0
 54 55  1  0
 55 56  1  0
 53 57  1  0
 57 58  1  0
 58 59  1  0
 59 60  1  0
 60 61  1  0
 61 62  1  0
 62 63  2  0
 63 64  1  0
 64 65  2  0
 65 66  1  0
 66 67  1  0
 67 68  1  0
 66 69  2  0
 61 70  2  0
 70 71  1  0
 71 72  1  0
 72 73  1  0
 73 74  1  0
 74 75  1  0
 75 76  1  0
 76 77  1  0
 77 78  1  0
 78 79  1  0
 79 80  1  0
 77 81  1  0
 81 82  1  0
 74 83  1  0
 83 84  1  0
 70 85  1  0
 85 86  2  0
 86 87  1  0
 87 88  2  0
 88 89  1  0
 89 90  2  0
 90 91  1  0
 91 92  1  0
 91 93  2  0
 93 94  1  0
 94 95  1  0
 93 96  1  0
 88 97  1  0
 97 98  2  0
 98 99  1  0
 99100  1  0
100101  1  0
101102  1  0
102103  1  0
103104  1  0
104105  1  0
102106  2  0
106107  1  0
106108  1  0
 99109  2  0
109110  1  0
 98111  1  0
111112  2  0
112113  1  0
112114  1  0
114115  2  3
115116  1  0
116117  2  0
116118  1  0
118119  2  0
119120  1  0
120121  2  0
121122  1  0
122123  2  0
123124  1  0
124125  2  0
 16  2  1  0
 35 22  1  0
 80 38  1  0
110 85  1  0
124115  1  0
 15  5  1  0
 35 28  1  0
 47 40  1  0
 79 48  2  0
109 87  1  0
123118  1  0
 13  7  1  0
 78 50  2  0
 96 89  1  0
113 97  1  0
 76 51  2  0
107100  2  0
 56 52  2  0
 75 57  2  0
 73 58  2  0
 72 60  2  0
 69 62  1  0
  1126  1  0
  6127  1  0
  8128  1  0
  9129  1  0
 12130  1  0
 14131  1  0
 31132  1  0
 31133  1  0
 32134  1  0
 32135  1  0
 32136  1  0
 36137  1  0
 36138  1  0
 37139  1  0
 37140  1  0
 37141  1  0
 41142  1  0
 42143  1  0
 43144  1  0
 45145  1  0
 45146  1  0
 46147  1  0
 46148  1  0
 46149  1  0
 47150  1  0
 63151  1  0
 64152  1  0
 65153  1  0
 67154  1  0
 67155  1  0
 68156  1  0
 68157  1  0
 68158  1  0
 69159  1  0
 81160  1  0
 81161  1  0
 82162  1  0
 82163  1  0
 82164  1  0
 83165  1  0
 83166  1  0
 84167  1  0
 84168  1  0
 84169  1  0
 86170  1  0
 90171  1  0
 94172  1  0
 94173  1  0
 95174  1  0
 95175  1  0
 95176  1  0
103177  1  0
103178  1  0
104179  1  0
104180  1  0
105181  1  0
105182  1  0
105183  1  0
107184  1  0
111185  1  0
114186  1  0
119187  1  0
120188  1  0
121189  1  0
122190  1  0
M  END

