
     RDKit          3D

153169  0  0  0  0  0  0  0  0999 V2000
    1.7517   -7.0540    2.0440 C   0  0  0  0  0  0  0  0  0  0  0  0
    0.9415   -6.9510    3.1190 C   0  0  0  0  0  0  0  0  0  0  0  0
    0.9079   -5.7997    4.0248 C   0  0  0  0  0  0  0  0  0  0  0  0
    1.8698   -5.0278    4.2776 O   0  0  0  0  0  0  0  0  0  0  0  0
   -0.4165   -5.6824    4.5813 C   0  0  0  0  0  0  0  0  0  0  0  0
   -0.9287   -4.6314    5.3366 C   0  0  0  0  0  0  0  0  0  0  0  0
   -2.3030   -4.6209    5.6260 C   0  0  0  0  0  0  0  0  0  0  0  0
   -2.8618   -3.5748    6.3742 C   0  0  0  0  0  0  0  0  0  0  0  0
   -4.2363   -3.5473    6.6262 C   0  0  0  0  0  0  0  0  0  0  0  0
   -5.0611   -4.5642    6.1349 C   0  0  0  0  0  0  0  0  0  0  0  0
   -6.3893   -4.5247    6.3796 F   0  0  0  0  0  0  0  0  0  0  0  0
   -4.5205   -5.6210    5.3904 C   0  0  0  0  0  0  0  0  0  0  0  0
   -3.1391   -5.6629    5.1321 C   0  0  0  0  0  0  0  0  0  0  0  0
   -2.5827   -6.7173    4.3740 C   0  0  0  0  0  0  0  0  0  0  0  0
   -1.1996   -6.7278    4.1271 C   0  0  0  0  0  0  0  0  0  0  0  0
   -0.3595   -7.6553    3.3108 C   0  0  0  0  0  0  0  0  0  0  0  0
   -0.6398   -8.9355    2.9752 C   0  0  0  0  0  0  0  0  0  0  0  0
   -1.8969   -9.5583    3.3065 C   0  0  0  0  0  0  0  0  0  0  0  0
   -2.9029  -10.0705    3.5643 N   0  0  0  0  0  0  0  0  0  0  0  0
    0.3453   -9.7977    2.3743 C   0  0  0  0  0  0  0  0  0  0  0  0
    1.1280  -10.5068    1.8948 N   0  0  0  0  0  0  0  0  0  0  0  0
    2.5640   -5.8975    1.6107 C   0  0  0  0  0  0  0  0  0  0  0  0
    3.8676   -5.7106    2.1017 C   0  0  0  0  0  0  0  0  0  0  0  0
    4.4605   -6.7708    2.8122 O   0  0  0  0  0  0  0  0  0  0  0  0
    5.4109   -6.6209    3.8598 C   0  0  0  0  0  0  0  0  0  0  0  0
    5.5762   -7.9407    4.5930 C   0  0  0  0  0  0  0  0  0  0  0  0
    4.5158   -4.4655    1.8932 C   0  0  0  0  0  0  0  0  0  0  0  0
    5.8644   -4.2898    2.2088 O   0  0  0  0  0  0  0  0  0  0  0  0
    6.9064   -4.6996    1.3199 C   0  0  0  0  0  0  0  0  0  0  0  0
    6.8941   -3.8824    0.0343 C   0  0  0  0  0  0  0  0  0  0  0  0
    3.8128   -3.3873    1.3251 C   0  0  0  0  0  0  0  0  0  0  0  0
    2.5376   -3.6100    0.7729 C   0  0  0  0  0  0  0  0  0  0  0  0
    1.9276   -4.8732    0.8941 C   0  0  0  0  0  0  0  0  0  0  0  0
    0.6811   -5.0600    0.3751 N   0  0  0  0  0  0  0  0  0  0  0  0
    0.0239   -4.0640   -0.2689 C   0  0  0  0  0  0  0  0  0  0  0  0
    0.6191   -2.8106   -0.3784 C   0  0  0  0  0  0  0  0  0  0  0  0
    1.8520   -2.6130    0.1495 N   0  0  0  0  0  0  0  0  0  0  0  0
    4.3548   -2.0107    1.4228 C   0  0  0  0  0  0  0  0  0  0  0  0
    4.5347   -1.3263    2.6400 C   0  0  0  0  0  0  0  0  0  0  0  0
    4.5633   -1.9630    3.9630 C   0  0  0  0  0  0  0  0  0  0  0  0
    3.3760   -2.2914    4.6316 C   0  0  0  0  0  0  0  0  0  0  0  0
    3.4303   -2.9387    5.8727 C   0  0  0  0  0  0  0  0  0  0  0  0
    4.6670   -3.2671    6.4417 C   0  0  0  0  0  0  0  0  0  0  0  0
    5.8595   -2.9228    5.7851 C   0  0  0  0  0  0  0  0  0  0  0  0
    7.1906   -3.3103    6.3700 C   0  0  0  0  0  0  0  0  0  0  0  0
    7.6825   -4.6296    5.7830 C   0  0  0  0  0  0  0  0  0  0  0  0
    5.8017   -2.2702    4.5441 C   0  0  0  0  0  0  0  0  0  0  0  0
    4.5454    0.0598    2.4610 C   0  0  0  0  0  0  0  0  0  0  0  0
    4.0902    1.2882    3.5345 S   0  0  0  0  0  0  0  0  0  0  0  0
    3.8149    2.3874    2.2684 C   0  0  0  0  0  0  0  0  0  0  0  0
    2.8508    3.3495    2.0951 C   0  0  0  0  0  0  0  0  0  0  0  0
    1.8860    3.7943    3.0170 C   0  0  0  0  0  0  0  0  0  0  0  0
    0.6735    4.3830    2.5326 C   0  0  0  0  0  0  0  0  0  0  0  0
   -0.2676    4.7122    3.4519 N   0  0  0  0  0  0  0  0  0  0  0  0
    0.5091    4.2233    4.8295 S   0  0  0  0  0  0  0  0  0  0  0  0
    1.9729    3.6097    4.3560 N   0  0  0  0  0  0  0  0  0  0  0  0
    0.5301    4.5667    1.1546 C   0  0  0  0  0  0  0  0  0  0  0  0
   -0.5060    5.0268    0.3803 C   0  0  0  0  0  0  0  0  0  0  0  0
   -2.1664    5.3858    0.4972 S   0  0  0  0  0  0  0  0  0  0  0  0
   -2.2911    5.4710   -1.2113 C   0  0  0  0  0  0  0  0  0  0  0  0
   -3.3570    5.5880   -2.1116 C   0  0  0  0  0  0  0  0  0  0  0  0
   -4.7761    5.7446   -1.7326 C   0  0  0  0  0  0  0  0  0  0  0  0
   -5.5668    6.7190   -2.3639 C   0  0  0  0  0  0  0  0  0  0  0  0
   -6.9245    6.8331   -2.0587 C   0  0  0  0  0  0  0  0  0  0  0  0
   -7.5067    5.9757   -1.1207 C   0  0  0  0  0  0  0  0  0  0  0  0
   -6.7310    4.9911   -0.4859 C   0  0  0  0  0  0  0  0  0  0  0  0
   -7.3767    4.0207    0.4669 C   0  0  0  0  0  0  0  0  0  0  0  0
   -8.1994    2.9830   -0.2927 C   0  0  0  0  0  0  0  0  0  0  0  0
   -5.3649    4.8819   -0.7942 C   0  0  0  0  0  0  0  0  0  0  0  0
   -2.9008    5.4284   -3.4332 C   0  0  0  0  0  0  0  0  0  0  0  0
   -1.2288    5.1152   -3.4640 S   0  0  0  0  0  0  0  0  0  0  0  0
   -1.0781    5.2387   -1.8082 C   0  0  0  0  0  0  0  0  0  0  0  0
   -0.0807    4.9760   -0.9027 C   0  0  0  0  0  0  0  0  0  0  0  0
    1.1799    4.5165   -1.0340 N   0  0  0  0  0  0  0  0  0  0  0  0
    1.5260    4.1856    0.2461 C   0  0  0  0  0  0  0  0  0  0  0  0
    2.6314    3.4316    0.7102 C   0  0  0  0  0  0  0  0  0  0  0  0
    3.3090    2.4316    0.0561 N   0  0  0  0  0  0  0  0  0  0  0  0
    4.0267    1.8191    1.0395 C   0  0  0  0  0  0  0  0  0  0  0  0
    4.4386    0.4851    1.1569 C   0  0  0  0  0  0  0  0  0  0  0  0
    4.2831   -0.8637    0.1662 S   0  0  0  0  0  0  0  0  0  0  0  0
    2.9323    1.7814   -1.2113 C   0  0  0  0  0  0  0  0  0  0  0  0
    4.1238    1.6874   -2.1641 C   0  0  0  0  0  0  0  0  0  0  0  0
    2.0706    4.7739   -2.1716 C   0  0  0  0  0  0  0  0  0  0  0  0
    2.1782    6.2649   -2.4717 C   0  0  0  0  0  0  0  0  0  0  0  0
   -3.7130    5.3209   -4.6105 C   0  0  0  0  0  0  0  0  0  0  0  0
   -4.3189    5.2033   -5.6433 C   0  0  0  0  0  0  0  0  0  0  0  0
   -4.9383    5.0421   -6.9332 C   0  0  0  0  0  0  0  0  0  0  0  0
   -4.4898    5.7066   -8.0144 C   0  0  0  0  0  0  0  0  0  0  0  0
   -3.5890    6.8660   -7.9775 C   0  0  0  0  0  0  0  0  0  0  0  0
   -3.0320    7.3397   -6.9500 O   0  0  0  0  0  0  0  0  0  0  0  0
   -3.5050    7.4259   -9.3128 C   0  0  0  0  0  0  0  0  0  0  0  0
   -4.2793    6.6646  -10.1772 C   0  0  0  0  0  0  0  0  0  0  0  0
   -4.4238    7.0676  -11.5145 C   0  0  0  0  0  0  0  0  0  0  0  0
   -3.7454    8.2093  -11.9648 C   0  0  0  0  0  0  0  0  0  0  0  0
   -2.9637    8.9755  -11.0804 C   0  0  0  0  0  0  0  0  0  0  0  0
   -2.0808   10.5346  -11.7606 Br  0  0  0  0  0  0  0  0  0  0  0  0
   -2.8412    8.5892   -9.7303 C   0  0  0  0  0  0  0  0  0  0  0  0
   -1.8986    9.5639   -8.6013 Cl  0  0  0  0  0  0  0  0  0  0  0  0
   -4.8676    5.5022   -9.4499 C   0  0  0  0  0  0  0  0  0  0  0  0
   -5.3825    4.3730  -10.0077 C   0  0  0  0  0  0  0  0  0  0  0  0
   -5.5633    4.2075  -11.4255 C   0  0  0  0  0  0  0  0  0  0  0  0
   -5.7140    4.0591  -12.5637 N   0  0  0  0  0  0  0  0  0  0  0  0
   -5.6779    3.1935   -9.2349 C   0  0  0  0  0  0  0  0  0  0  0  0
   -5.9108    2.2361   -8.6294 N   0  0  0  0  0  0  0  0  0  0  0  0
    1.5767   -7.8214    1.3052 H   0  0  0  0  0  0  0  0  0  0  0  0
   -0.2802   -3.8224    5.6547 H   0  0  0  0  0  0  0  0  0  0  0  0
   -2.2357   -2.7802    6.7603 H   0  0  0  0  0  0  0  0  0  0  0  0
   -4.6587   -2.7339    7.2030 H   0  0  0  0  0  0  0  0  0  0  0  0
   -5.1804   -6.3941    5.0094 H   0  0  0  0  0  0  0  0  0  0  0  0
   -3.2345   -7.4706    3.9575 H   0  0  0  0  0  0  0  0  0  0  0  0
    5.0597   -5.8402    4.5719 H   0  0  0  0  0  0  0  0  0  0  0  0
    6.3964   -6.3296    3.4520 H   0  0  0  0  0  0  0  0  0  0  0  0
    6.1787   -7.7896    5.5143 H   0  0  0  0  0  0  0  0  0  0  0  0
    4.5899   -8.3628    4.8740 H   0  0  0  0  0  0  0  0  0  0  0  0
    6.1042   -8.6655    3.9401 H   0  0  0  0  0  0  0  0  0  0  0  0
    6.7875   -5.7786    1.0698 H   0  0  0  0  0  0  0  0  0  0  0  0
    7.8808   -4.5653    1.8283 H   0  0  0  0  0  0  0  0  0  0  0  0
    5.9550   -4.0564   -0.5288 H   0  0  0  0  0  0  0  0  0  0  0  0
    7.7477   -4.1828   -0.6120 H   0  0  0  0  0  0  0  0  0  0  0  0
    6.9875   -2.7990    0.2642 H   0  0  0  0  0  0  0  0  0  0  0  0
   -0.9576   -4.2470   -0.6888 H   0  0  0  0  0  0  0  0  0  0  0  0
    0.1022   -1.9933   -0.8708 H   0  0  0  0  0  0  0  0  0  0  0  0
    2.4136   -2.0619    4.1899 H   0  0  0  0  0  0  0  0  0  0  0  0
    2.5143   -3.2054    6.3862 H   0  0  0  0  0  0  0  0  0  0  0  0
    4.6942   -3.7939    7.3890 H   0  0  0  0  0  0  0  0  0  0  0  0
    7.1183   -3.4152    7.4760 H   0  0  0  0  0  0  0  0  0  0  0  0
    7.9415   -2.5175    6.1603 H   0  0  0  0  0  0  0  0  0  0  0  0
    6.9896   -5.4515    6.0601 H   0  0  0  0  0  0  0  0  0  0  0  0
    8.6894   -4.8680    6.1825 H   0  0  0  0  0  0  0  0  0  0  0  0
    7.7477   -4.5587    4.6753 H   0  0  0  0  0  0  0  0  0  0  0  0
    6.7190   -2.0256    4.0186 H   0  0  0  0  0  0  0  0  0  0  0  0
   -5.1346    7.3888   -3.0972 H   0  0  0  0  0  0  0  0  0  0  0  0
   -7.5318    7.5827   -2.5510 H   0  0  0  0  0  0  0  0  0  0  0  0
   -8.5639    6.0707   -0.8968 H   0  0  0  0  0  0  0  0  0  0  0  0
   -6.6075    3.4978    1.0755 H   0  0  0  0  0  0  0  0  0  0  0  0
   -8.0319    4.5691    1.1735 H   0  0  0  0  0  0  0  0  0  0  0  0
   -8.6390    2.2597    0.4265 H   0  0  0  0  0  0  0  0  0  0  0  0
   -9.0288    3.4751   -0.8422 H   0  0  0  0  0  0  0  0  0  0  0  0
   -7.5593    2.4297   -1.0090 H   0  0  0  0  0  0  0  0  0  0  0  0
   -4.7691    4.1065   -0.3301 H   0  0  0  0  0  0  0  0  0  0  0  0
    2.0971    2.2869   -1.7151 H   0  0  0  0  0  0  0  0  0  0  0  0
    2.5244    0.7735   -1.0076 H   0  0  0  0  0  0  0  0  0  0  0  0
    4.4289    2.6970   -2.5078 H   0  0  0  0  0  0  0  0  0  0  0  0
    4.9955    1.2180   -1.6639 H   0  0  0  0  0  0  0  0  0  0  0  0
    3.8491    1.0740   -3.0426 H   0  0  0  0  0  0  0  0  0  0  0  0
    1.6976    4.2354   -3.0641 H   0  0  0  0  0  0  0  0  0  0  0  0
    3.0970    4.4244   -1.9375 H   0  0  0  0  0  0  0  0  0  0  0  0
    2.5259    6.8069   -1.5668 H   0  0  0  0  0  0  0  0  0  0  0  0
    2.9079    6.4284   -3.2912 H   0  0  0  0  0  0  0  0  0  0  0  0
    1.1988    6.6751   -2.7893 H   0  0  0  0  0  0  0  0  0  0  0  0
   -5.7262    4.3137   -7.0034 H   0  0  0  0  0  0  0  0  0  0  0  0
   -5.0423    6.5327  -12.2160 H   0  0  0  0  0  0  0  0  0  0  0  0
   -3.8339    8.5089  -13.0021 H   0  0  0  0  0  0  0  0  0  0  0  0
  1  2  2  3
  2  3  1  0
  3  4  2  0
  3  5  1  0
  5  6  2  0
  6  7  1  0
  7  8  2  0
  8  9  1  0
  9 10  2  0
 10 11  1  0
 10 12  1  0
 12 13  2  0
 13 14  1  0
 14 15  2  0
 15 16  1  0
 16 17  2  3
 17 18  1  0
 18 19  3  0
 17 20  1  0
 20 21  3  0
  1 22  1  0
 22 23  2  0
 23 24  1  0
 24 25  1  0
 25 26  1  0
 23 27  1  0
 27 28  1  0
 28 29  1  0
 29 30  1  0
 27 31  2  0
 31 32  1  0
 32 33  2  0
 33 34  1  0
 34 35  2  0
 35 36  1  0
 36 37  2  0
 31 38  1  0
 38 39  2  0
 39 40  1  0
 40 41  2  0
 41 42  1  0
 42 43  2  0
 43 44  1  0
 44 45  1  0
 45 46  1  0
 44 47  2  0
 39 48  1  0
 48 49  1  0
 49 50  1  0
 50 51  1  0
 51 52  1  0
 52 53  1  0
 53 54  2  0
 54 55  1  0
 55 56  1  0
 53 57  1  0
 57 58  1  0
 58 59  1  0
 59 60  1  0
 60 61  1  0
 61 62  1  0
 62 63  2  0
 63 64  1  0
 64 65  2  0
 65 66  1  0
 66 67  1  0
 67 68  1  0
 66 69  2  0
 61 70  2  0
 70 71  1  0
 71 72  1  0
 72 73  1  0
 73 74  1  0
 74 75  1  0
 75 76  1  0
 76 77  1  0
 77 78  1  0
 78 79  1  0
 79 80  1  0
 77 81  1  0
 81 82  1  0
 74 83  1  0
 83 84  1  0
 70 85  1  0
 85 86  3  0
 86 87  1  0
 87 88  2  3
 88 89  1  0
 89 90  2  0
 89 91  1  0
 91 92  2  0
 92 93  1  0
 93 94  2  0
 94 95  1  0
 95 96  1  0
 95 97  2  0
 97 98  1  0
 92 99  1  0
 99100  2  3
100101  1  0
101102  3  0
100103  1  0
103104  3  0
 16  2  1  0
 33 22  1  0
 80 38  1  0
 99 88  1  0
 15  5  1  0
 37 32  1  0
 47 40  1  0
 79 48  2  0
 97 91  1  0
 13  7  1  0
 78 50  2  0
 76 51  2  0
 56 52  2  0
 75 57  2  0
 73 58  2  0
 72 60  2  0
 69 62  1  0
  1105  1  0
  6106  1  0
  8107  1  0
  9108  1  0
 12109  1  0
 14110  1  0
 25111  1  0
 25112  1  0
 26113  1  0
 26114  1  0
 26115  1  0
 29116  1  0
 29117  1  0
 30118  1  0
 30119  1  0
 30120  1  0
 35121  1  0
 36122  1  0
 41123  1  0
 42124  1  0
 43125  1  0
 45126  1  0
 45127  1  0
 46128  1  0
 46129  1  0
 46130  1  0
 47131  1  0
 63132  1  0
 64133  1  0
 65134  1  0
 67135  1  0
 67136  1  0
 68137  1  0
 68138  1  0
 68139  1  0
 69140  1  0
 81141  1  0
 81142  1  0
 82143  1  0
 82144  1  0
 82145  1  0
 83146  1  0
 83147  1  0
 84148  1  0
 84149  1  0
 84150  1  0
 87151  1  0
 93152  1  0
 94153  1  0
M  END

