
     RDKit          3D

276303  0  0  0  0  0  0  0  0999 V2000
   -4.7852   -0.6382    8.4865 C   0  0  0  0  0  0  0  0  0  0  0  0
   -5.4345   -1.4465    7.5972 C   0  0  0  0  0  0  0  0  0  0  0  0
   -5.2574   -2.9311    7.5615 C   0  0  0  0  0  0  0  0  0  0  0  0
   -4.0911   -3.4816    7.5922 O   0  0  0  0  0  0  0  0  0  0  0  0
   -6.4970   -3.5647    7.3356 C   0  0  0  0  0  0  0  0  0  0  0  0
   -6.7427   -4.8896    6.9744 C   0  0  0  0  0  0  0  0  0  0  0  0
   -8.0160   -5.3356    6.7478 C   0  0  0  0  0  0  0  0  0  0  0  0
   -8.2817   -6.6780    6.4363 C   0  0  0  0  0  0  0  0  0  0  0  0
   -9.5981   -7.1456    6.2016 C   0  0  0  0  0  0  0  0  0  0  0  0
  -10.6545   -6.2530    6.2954 C   0  0  0  0  0  0  0  0  0  0  0  0
  -11.9222   -6.6886    6.1082 F   0  0  0  0  0  0  0  0  0  0  0  0
  -10.4375   -4.8975    6.6259 C   0  0  0  0  0  0  0  0  0  0  0  0
   -9.1221   -4.4349    6.8506 C   0  0  0  0  0  0  0  0  0  0  0  0
   -8.8871   -3.0876    7.1479 C   0  0  0  0  0  0  0  0  0  0  0  0
   -7.5388   -2.6362    7.3889 C   0  0  0  0  0  0  0  0  0  0  0  0
   -6.9999   -1.2856    7.5513 C   0  0  0  0  0  0  0  0  0  0  0  0
   -7.5754   -0.0694    7.4655 C   0  0  0  0  0  0  0  0  0  0  0  0
   -8.9940    0.1702    7.6781 C   0  0  0  0  0  0  0  0  0  0  0  0
  -10.1048    0.4653    7.8740 N   0  0  0  0  0  0  0  0  0  0  0  0
   -6.8086    1.1751    7.1642 C   0  0  0  0  0  0  0  0  0  0  0  0
   -6.4134    2.2406    7.0401 N   0  0  0  0  0  0  0  0  0  0  0  0
   -3.5909    0.2762    8.0362 C   0  0  0  0  0  0  0  0  0  0  0  0
   -3.4744    1.5391    8.6047 C   0  0  0  0  0  0  0  0  0  0  0  0
   -4.3787    1.9476    9.5337 F   0  0  0  0  0  0  0  0  0  0  0  0
   -2.4957    2.4806    8.1989 C   0  0  0  0  0  0  0  0  0  0  0  0
   -2.4213    3.7374    8.7364 F   0  0  0  0  0  0  0  0  0  0  0  0
   -1.5768    2.0960    7.2229 C   0  0  0  0  0  0  0  0  0  0  0  0
   -1.6482    0.7921    6.6975 C   0  0  0  0  0  0  0  0  0  0  0  0
   -0.7150    0.4150    5.7994 N   0  0  0  0  0  0  0  0  0  0  0  0
   -0.7833   -0.8037    5.2018 C   0  0  0  0  0  0  0  0  0  0  0  0
    0.3213   -1.1867    4.2510 C   0  0  0  0  0  0  0  0  0  0  0  0
    1.3401   -2.0915    4.9386 C   0  0  0  0  0  0  0  0  0  0  0  0
   -1.8670   -1.6732    5.4971 C   0  0  0  0  0  0  0  0  0  0  0  0
   -2.7607   -1.2655    6.4189 N   0  0  0  0  0  0  0  0  0  0  0  0
   -2.6811   -0.1129    7.0776 C   0  0  0  0  0  0  0  0  0  0  0  0
   -2.1237   -2.9457    4.7042 C   0  0  0  0  0  0  0  0  0  0  0  0
   -2.8076   -2.5644    3.4014 C   0  0  0  0  0  0  0  0  0  0  0  0
   -0.9095    3.1003    6.4316 C   0  0  0  0  0  0  0  0  0  0  0  0
   -1.7445    3.9640    5.2318 S   0  0  0  0  0  0  0  0  0  0  0  0
   -0.4066    4.4116    4.3613 C   0  0  0  0  0  0  0  0  0  0  0  0
   -0.0779    4.7075    3.0050 C   0  0  0  0  0  0  0  0  0  0  0  0
    1.2607    4.5211    2.8749 C   0  0  0  0  0  0  0  0  0  0  0  0
    1.9152    4.4496    4.2318 C   0  0  0  0  0  0  0  0  0  0  0  0
    0.6809    3.9229    4.9608 C   0  0  0  0  0  0  0  0  0  0  0  0
    0.4750    3.1249    6.0833 C   0  0  0  0  0  0  0  0  0  0  0  0
    2.0494    5.8927    4.7771 C   0  0  0  0  0  0  0  0  0  0  0  0
    2.1785    6.0871    6.1777 C   0  0  0  0  0  0  0  0  0  0  0  0
    2.0691    7.3630    6.7577 C   0  0  0  0  0  0  0  0  0  0  0  0
    1.8302    8.4592    5.9434 C   0  0  0  0  0  0  0  0  0  0  0  0
    1.5311    9.8152    6.5414 C   0  0  0  0  0  0  0  0  0  0  0  0
    0.0327    9.9359    6.8343 C   0  0  0  0  0  0  0  0  0  0  0  0
    1.7796    8.2838    4.5662 C   0  0  0  0  0  0  0  0  0  0  0  0
    1.9183    7.0513    3.9699 C   0  0  0  0  0  0  0  0  0  0  0  0
    3.2191    3.6966    4.2691 C   0  0  0  0  0  0  0  0  0  0  0  0
    4.3673    4.2649    4.8717 C   0  0  0  0  0  0  0  0  0  0  0  0
    5.6184    3.6670    4.7948 C   0  0  0  0  0  0  0  0  0  0  0  0
    5.7492    2.4819    4.0982 C   0  0  0  0  0  0  0  0  0  0  0  0
    7.1456    1.9137    3.9408 C   0  0  0  0  0  0  0  0  0  0  0  0
    7.8553    2.5738    2.7647 C   0  0  0  0  0  0  0  0  0  0  0  0
    4.6508    1.8703    3.4702 C   0  0  0  0  0  0  0  0  0  0  0  0
    3.3974    2.4823    3.5892 C   0  0  0  0  0  0  0  0  0  0  0  0
    1.6635    4.6598    1.5205 C   0  0  0  0  0  0  0  0  0  0  0  0
    2.8750    4.0523    0.5127 S   0  0  0  0  0  0  0  0  0  0  0  0
    2.1312    4.5663   -0.9181 C   0  0  0  0  0  0  0  0  0  0  0  0
    2.1179    4.2509   -2.3731 C   0  0  0  0  0  0  0  0  0  0  0  0
    2.9725    3.5062   -3.1698 C   0  0  0  0  0  0  0  0  0  0  0  0
    2.4356    2.9246   -4.3672 C   0  0  0  0  0  0  0  0  0  0  0  0
    3.0610    1.8328   -5.1963 C   0  0  0  0  0  0  0  0  0  0  0  0
    4.2639    1.2273   -4.4909 C   0  0  0  0  0  0  0  0  0  0  0  0
    4.0633    0.5614   -3.2617 C   0  0  0  0  0  0  0  0  0  0  0  0
    5.0679   -0.1743   -2.6912 C   0  0  0  0  0  0  0  0  0  0  0  0
    6.3248   -0.2331   -3.2913 C   0  0  0  0  0  0  0  0  0  0  0  0
    7.4497   -1.0239   -2.6875 C   0  0  0  0  0  0  0  0  0  0  0  0
    8.3241   -0.0842   -1.8348 C   0  0  0  0  0  0  0  0  0  0  0  0
    6.5770    0.5345   -4.4384 C   0  0  0  0  0  0  0  0  0  0  0  0
    5.5659    1.2935   -4.9999 C   0  0  0  0  0  0  0  0  0  0  0  0
    3.3476    2.1488   -6.6846 C   0  0  0  0  0  0  0  0  0  0  0  0
    3.0090    3.3558   -7.3476 C   0  0  0  0  0  0  0  0  0  0  0  0
    3.2645    3.4909   -8.6992 C   0  0  0  0  0  0  0  0  0  0  0  0
    3.8716    2.4706   -9.4575 C   0  0  0  0  0  0  0  0  0  0  0  0
    4.2680    2.6461  -10.8770 C   0  0  0  0  0  0  0  0  0  0  0  0
    3.1263    2.2560  -11.8115 C   0  0  0  0  0  0  0  0  0  0  0  0
    4.1599    1.2695   -8.8036 C   0  0  0  0  0  0  0  0  0  0  0  0
    3.8850    1.1129   -7.4778 C   0  0  0  0  0  0  0  0  0  0  0  0
    1.8833    0.9394   -5.2539 C   0  0  0  0  0  0  0  0  0  0  0  0
    0.7255    1.6661   -5.1345 C   0  0  0  0  0  0  0  0  0  0  0  0
    1.0772    2.9860   -4.6018 C   0  0  0  0  0  0  0  0  0  0  0  0
    0.2747    3.9149   -3.8972 C   0  0  0  0  0  0  0  0  0  0  0  0
    0.8648    4.6081   -2.8178 C   0  0  0  0  0  0  0  0  0  0  0  0
    0.2797    5.6587   -1.8665 C   0  0  0  0  0  0  0  0  0  0  0  0
   -1.2277    5.6599   -1.7682 C   0  0  0  0  0  0  0  0  0  0  0  0
   -1.8854    4.5430   -1.2246 C   0  0  0  0  0  0  0  0  0  0  0  0
   -3.2632    4.6289   -1.0052 C   0  0  0  0  0  0  0  0  0  0  0  0
   -3.9943    5.7303   -1.3885 C   0  0  0  0  0  0  0  0  0  0  0  0
   -5.4881    5.7698   -1.2571 C   0  0  0  0  0  0  0  0  0  0  0  0
   -5.8770    5.8490    0.2196 C   0  0  0  0  0  0  0  0  0  0  0  0
   -3.3418    6.8230   -2.0099 C   0  0  0  0  0  0  0  0  0  0  0  0
   -1.9875    6.7530   -2.2073 C   0  0  0  0  0  0  0  0  0  0  0  0
    0.8502    7.0475   -2.1561 C   0  0  0  0  0  0  0  0  0  0  0  0
    1.2781    7.9137   -1.1082 C   0  0  0  0  0  0  0  0  0  0  0  0
    1.9762    9.0525   -1.3569 C   0  0  0  0  0  0  0  0  0  0  0  0
    2.2458    9.4449   -2.6701 C   0  0  0  0  0  0  0  0  0  0  0  0
    3.2739   10.4970   -2.9246 C   0  0  0  0  0  0  0  0  0  0  0  0
    4.6402    9.8180   -3.0625 C   0  0  0  0  0  0  0  0  0  0  0  0
    1.7126    8.6930   -3.7337 C   0  0  0  0  0  0  0  0  0  0  0  0
    1.0407    7.5118   -3.4783 C   0  0  0  0  0  0  0  0  0  0  0  0
    0.9666    5.2016   -0.6078 C   0  0  0  0  0  0  0  0  0  0  0  0
    0.6377    5.1531    0.7394 C   0  0  0  0  0  0  0  0  0  0  0  0
   -0.8093    5.2623    1.5987 S   0  0  0  0  0  0  0  0  0  0  0  0
   -0.4949    0.5546   -4.8272 S   0  0  0  0  0  0  0  0  0  0  0  0
    0.4082   -0.8757   -4.9459 C   0  0  0  0  0  0  0  0  0  0  0  0
    0.2966   -2.2424   -4.6344 C   0  0  0  0  0  0  0  0  0  0  0  0
    1.5214   -2.8511   -4.5283 C   0  0  0  0  0  0  0  0  0  0  0  0
    2.7376   -1.7347   -4.9066 S   0  0  0  0  0  0  0  0  0  0  0  0
    1.7102   -0.4404   -5.1365 C   0  0  0  0  0  0  0  0  0  0  0  0
    1.3291   -4.2463   -4.2336 C   0  0  0  0  0  0  0  0  0  0  0  0
    2.1679   -5.5112   -3.5590 S   0  0  0  0  0  0  0  0  0  0  0  0
    0.8797   -6.4833   -3.0834 C   0  0  0  0  0  0  0  0  0  0  0  0
   -0.2579   -5.7441   -3.4586 C   0  0  0  0  0  0  0  0  0  0  0  0
    0.0119   -4.4699   -4.0492 C   0  0  0  0  0  0  0  0  0  0  0  0
   -0.8227   -3.2684   -4.3910 C   0  0  0  0  0  0  0  0  0  0  0  0
   -1.7232   -2.7393   -3.2707 C   0  0  0  0  0  0  0  0  0  0  0  0
   -1.7763   -3.3073   -1.9996 C   0  0  0  0  0  0  0  0  0  0  0  0
   -2.7088   -2.9105   -1.0619 C   0  0  0  0  0  0  0  0  0  0  0  0
   -3.5668   -1.8143   -1.3569 C   0  0  0  0  0  0  0  0  0  0  0  0
   -4.4806   -1.3057   -0.2896 C   0  0  0  0  0  0  0  0  0  0  0  0
   -3.6308   -0.5396    0.7157 C   0  0  0  0  0  0  0  0  0  0  0  0
   -3.4282   -1.1402   -2.5666 C   0  0  0  0  0  0  0  0  0  0  0  0
   -2.5501   -1.6386   -3.5175 C   0  0  0  0  0  0  0  0  0  0  0  0
   -1.6119   -3.4971   -5.6918 C   0  0  0  0  0  0  0  0  0  0  0  0
   -0.9432   -3.6056   -6.9235 C   0  0  0  0  0  0  0  0  0  0  0  0
   -1.6306   -3.6674   -8.1257 C   0  0  0  0  0  0  0  0  0  0  0  0
   -3.0362   -3.6071   -8.1246 C   0  0  0  0  0  0  0  0  0  0  0  0
   -3.8184   -3.5676   -9.3969 C   0  0  0  0  0  0  0  0  0  0  0  0
   -4.1080   -2.1141   -9.7677 C   0  0  0  0  0  0  0  0  0  0  0  0
   -3.7169   -3.5893   -6.8968 C   0  0  0  0  0  0  0  0  0  0  0  0
   -3.0114   -3.5991   -5.6994 C   0  0  0  0  0  0  0  0  0  0  0  0
    0.9789   -7.4681   -1.9322 C   0  0  0  0  0  0  0  0  0  0  0  0
    0.7349   -8.8421   -2.0526 C   0  0  0  0  0  0  0  0  0  0  0  0
    0.1896   -9.3450   -3.1940 F   0  0  0  0  0  0  0  0  0  0  0  0
    1.0800   -9.7232   -0.9942 C   0  0  0  0  0  0  0  0  0  0  0  0
    0.8754  -11.0450   -1.1587 F   0  0  0  0  0  0  0  0  0  0  0  0
    1.7189   -9.2352    0.1566 C   0  0  0  0  0  0  0  0  0  0  0  0
    1.8165   -7.8483    0.3207 C   0  0  0  0  0  0  0  0  0  0  0  0
    2.3404   -7.3421    1.4687 N   0  0  0  0  0  0  0  0  0  0  0  0
    2.5429   -6.0054    1.6305 C   0  0  0  0  0  0  0  0  0  0  0  0
    3.0966   -5.5268    2.9764 C   0  0  0  0  0  0  0  0  0  0  0  0
    4.4530   -4.8242    2.9903 C   0  0  0  0  0  0  0  0  0  0  0  0
    2.1879   -5.1379    0.5631 C   0  0  0  0  0  0  0  0  0  0  0  0
    1.6019   -5.6787   -0.5315 N   0  0  0  0  0  0  0  0  0  0  0  0
    1.4254   -7.0044   -0.6943 C   0  0  0  0  0  0  0  0  0  0  0  0
    2.5247   -3.6862    0.5119 C   0  0  0  0  0  0  0  0  0  0  0  0
    3.8894   -3.5075   -0.1499 C   0  0  0  0  0  0  0  0  0  0  0  0
    2.1694  -10.1348    1.2669 C   0  0  0  0  0  0  0  0  0  0  0  0
    3.4577  -10.1223    1.6614 C   0  0  0  0  0  0  0  0  0  0  0  0
    4.5157   -9.5109    0.9512 C   0  0  0  0  0  0  0  0  0  0  0  0
    4.6867   -9.6087   -0.2834 O   0  0  0  0  0  0  0  0  0  0  0  0
    5.4522   -8.7722    1.8444 C   0  0  0  0  0  0  0  0  0  0  0  0
    5.1007   -9.1428    3.1201 C   0  0  0  0  0  0  0  0  0  0  0  0
    5.9642   -8.8331    4.1950 C   0  0  0  0  0  0  0  0  0  0  0  0
    7.1079   -7.9847    3.9299 C   0  0  0  0  0  0  0  0  0  0  0  0
    7.3673   -7.4963    2.6227 C   0  0  0  0  0  0  0  0  0  0  0  0
    8.9661   -6.3397    2.3795 Br  0  0  0  0  0  0  0  0  0  0  0  0
    6.5463   -7.9200    1.5647 C   0  0  0  0  0  0  0  0  0  0  0  0
    6.8106   -7.3235   -0.1031 Cl  0  0  0  0  0  0  0  0  0  0  0  0
    3.8717  -10.0285    3.0816 C   0  0  0  0  0  0  0  0  0  0  0  0
    3.7273  -10.9512    4.0140 C   0  0  0  0  0  0  0  0  0  0  0  0
    3.8572  -10.5912    5.4543 C   0  0  0  0  0  0  0  0  0  0  0  0
    3.8316  -10.4893    6.5796 N   0  0  0  0  0  0  0  0  0  0  0  0
    4.0207  -12.3716    3.6631 C   0  0  0  0  0  0  0  0  0  0  0  0
    4.4174  -13.4853    3.5193 N   0  0  0  0  0  0  0  0  0  0  0  0
   -5.0062   -0.5395    9.5653 H   0  0  0  0  0  0  0  0  0  0  0  0
   -5.9195   -5.5542    6.9190 H   0  0  0  0  0  0  0  0  0  0  0  0
   -7.4946   -7.4230    6.3215 H   0  0  0  0  0  0  0  0  0  0  0  0
   -9.7928   -8.1962    5.9393 H   0  0  0  0  0  0  0  0  0  0  0  0
  -11.3064   -4.2364    6.7123 H   0  0  0  0  0  0  0  0  0  0  0  0
   -9.6250   -2.3583    7.0898 H   0  0  0  0  0  0  0  0  0  0  0  0
    0.8224   -0.2677    3.9023 H   0  0  0  0  0  0  0  0  0  0  0  0
   -0.0867   -1.6844    3.3394 H   0  0  0  0  0  0  0  0  0  0  0  0
    1.8816   -2.6903    4.1878 H   0  0  0  0  0  0  0  0  0  0  0  0
    2.0501   -1.4698    5.5257 H   0  0  0  0  0  0  0  0  0  0  0  0
    0.8411   -2.7963    5.6376 H   0  0  0  0  0  0  0  0  0  0  0  0
   -2.7727   -3.6630    5.2582 H   0  0  0  0  0  0  0  0  0  0  0  0
   -1.1799   -3.5095    4.4772 H   0  0  0  0  0  0  0  0  0  0  0  0
   -2.6287   -3.3203    2.6094 H   0  0  0  0  0  0  0  0  0  0  0  0
   -3.9092   -2.4431    3.5391 H   0  0  0  0  0  0  0  0  0  0  0  0
   -2.4153   -1.5971    3.0420 H   0  0  0  0  0  0  0  0  0  0  0  0
    1.1968    2.4451    6.4371 H   0  0  0  0  0  0  0  0  0  0  0  0
    2.2726    5.2763    6.8261 H   0  0  0  0  0  0  0  0  0  0  0  0
    2.1206    7.4726    7.8696 H   0  0  0  0  0  0  0  0  0  0  0  0
    1.8090   10.6168    5.8040 H   0  0  0  0  0  0  0  0  0  0  0  0
    2.1249   10.0088    7.4629 H   0  0  0  0  0  0  0  0  0  0  0  0
   -0.2208    9.3409    7.7490 H   0  0  0  0  0  0  0  0  0  0  0  0
   -0.5798    9.5381    5.9855 H   0  0  0  0  0  0  0  0  0  0  0  0
   -0.2401   11.0096    6.9920 H   0  0  0  0  0  0  0  0  0  0  0  0
    1.4751    9.1585    3.9727 H   0  0  0  0  0  0  0  0  0  0  0  0
    1.9678    7.0196    2.8994 H   0  0  0  0  0  0  0  0  0  0  0  0
    4.3919    5.2030    5.3956 H   0  0  0  0  0  0  0  0  0  0  0  0
    6.4863    4.1419    5.2314 H   0  0  0  0  0  0  0  0  0  0  0  0
    7.7307    2.1182    4.8542 H   0  0  0  0  0  0  0  0  0  0  0  0
    7.1300    0.8183    3.7866 H   0  0  0  0  0  0  0  0  0  0  0  0
    8.9288    2.2719    2.7398 H   0  0  0  0  0  0  0  0  0  0  0  0
    7.8431    3.6789    2.8700 H   0  0  0  0  0  0  0  0  0  0  0  0
    7.3571    2.2908    1.8126 H   0  0  0  0  0  0  0  0  0  0  0  0
    4.7605    0.9766    2.8794 H   0  0  0  0  0  0  0  0  0  0  0  0
    2.5685    2.0266    3.0889 H   0  0  0  0  0  0  0  0  0  0  0  0
    3.9933    3.3121   -2.8994 H   0  0  0  0  0  0  0  0  0  0  0  0
    3.0959    0.5590   -2.7866 H   0  0  0  0  0  0  0  0  0  0  0  0
    4.8798   -0.7593   -1.7944 H   0  0  0  0  0  0  0  0  0  0  0  0
    8.0516   -1.5125   -3.4913 H   0  0  0  0  0  0  0  0  0  0  0  0
    7.0418   -1.8413   -2.0354 H   0  0  0  0  0  0  0  0  0  0  0  0
    8.1577    1.0036   -2.1050 H   0  0  0  0  0  0  0  0  0  0  0  0
    9.4070   -0.3346   -2.0133 H   0  0  0  0  0  0  0  0  0  0  0  0
    8.0577   -0.2215   -0.7544 H   0  0  0  0  0  0  0  0  0  0  0  0
    7.5413    0.5082   -4.9060 H   0  0  0  0  0  0  0  0  0  0  0  0
    5.8164    1.9002   -5.8615 H   0  0  0  0  0  0  0  0  0  0  0  0
    2.5269    4.1509   -6.8190 H   0  0  0  0  0  0  0  0  0  0  0  0
    2.9829    4.4271   -9.2027 H   0  0  0  0  0  0  0  0  0  0  0  0
    5.1390    1.9952  -11.1248 H   0  0  0  0  0  0  0  0  0  0  0  0
    4.5907    3.6928  -11.0867 H   0  0  0  0  0  0  0  0  0  0  0  0
    2.1499    2.6430  -11.4450 H   0  0  0  0  0  0  0  0  0  0  0  0
    3.3075    2.6704  -12.8242 H   0  0  0  0  0  0  0  0  0  0  0  0
    3.0458    1.1512  -11.9030 H   0  0  0  0  0  0  0  0  0  0  0  0
    4.6624    0.4632   -9.3584 H   0  0  0  0  0  0  0  0  0  0  0  0
    4.0455    0.1614   -7.0542 H   0  0  0  0  0  0  0  0  0  0  0  0
   -0.7288    4.1038   -4.1496 H   0  0  0  0  0  0  0  0  0  0  0  0
   -1.3438    3.6845   -0.8480 H   0  0  0  0  0  0  0  0  0  0  0  0
   -3.7547    3.8029   -0.4846 H   0  0  0  0  0  0  0  0  0  0  0  0
   -5.9138    4.8439   -1.6993 H   0  0  0  0  0  0  0  0  0  0  0  0
   -5.9332    6.6522   -1.7769 H   0  0  0  0  0  0  0  0  0  0  0  0
   -5.4725    4.9887    0.7837 H   0  0  0  0  0  0  0  0  0  0  0  0
   -5.4954    6.7799    0.6819 H   0  0  0  0  0  0  0  0  0  0  0  0
   -6.9815    5.8335    0.3100 H   0  0  0  0  0  0  0  0  0  0  0  0
   -3.8949    7.6982   -2.3149 H   0  0  0  0  0  0  0  0  0  0  0  0
   -1.5227    7.6234   -2.6571 H   0  0  0  0  0  0  0  0  0  0  0  0
    1.1545    7.6304   -0.0667 H   0  0  0  0  0  0  0  0  0  0  0  0
    2.4601    9.5834   -0.5376 H   0  0  0  0  0  0  0  0  0  0  0  0
    3.0298   11.0867   -3.8357 H   0  0  0  0  0  0  0  0  0  0  0  0
    3.3074   11.2179   -2.0730 H   0  0  0  0  0  0  0  0  0  0  0  0
    4.7993    9.0609   -2.2572 H   0  0  0  0  0  0  0  0  0  0  0  0
    5.4413   10.5753   -2.9917 H   0  0  0  0  0  0  0  0  0  0  0  0
    4.7114    9.2951   -4.0410 H   0  0  0  0  0  0  0  0  0  0  0  0
    1.9376    8.9651   -4.7582 H   0  0  0  0  0  0  0  0  0  0  0  0
    0.7115    6.9065   -4.3151 H   0  0  0  0  0  0  0  0  0  0  0  0
   -1.2249   -6.0753   -3.2361 H   0  0  0  0  0  0  0  0  0  0  0  0
   -1.1207   -4.1288   -1.7047 H   0  0  0  0  0  0  0  0  0  0  0  0
   -2.8049   -3.4068   -0.1067 H   0  0  0  0  0  0  0  0  0  0  0  0
   -5.2598   -0.6260   -0.7178 H   0  0  0  0  0  0  0  0  0  0  0  0
   -4.9877   -2.1657    0.2164 H   0  0  0  0  0  0  0  0  0  0  0  0
   -3.3925    0.4735    0.3388 H   0  0  0  0  0  0  0  0  0  0  0  0
   -2.6602   -1.0536    0.9006 H   0  0  0  0  0  0  0  0  0  0  0  0
   -4.1752   -0.4748    1.6692 H   0  0  0  0  0  0  0  0  0  0  0  0
   -4.0827   -0.3315   -2.8036 H   0  0  0  0  0  0  0  0  0  0  0  0
   -2.5010   -1.0870   -4.4544 H   0  0  0  0  0  0  0  0  0  0  0  0
    0.1453   -3.6187   -6.9580 H   0  0  0  0  0  0  0  0  0  0  0  0
   -1.0820   -3.6844   -9.0619 H   0  0  0  0  0  0  0  0  0  0  0  0
   -4.7830   -4.0891   -9.2478 H   0  0  0  0  0  0  0  0  0  0  0  0
   -3.2708   -4.0908  -10.2130 H   0  0  0  0  0  0  0  0  0  0  0  0
   -3.1487   -1.5595   -9.9082 H   0  0  0  0  0  0  0  0  0  0  0  0
   -4.6994   -1.6298   -8.9479 H   0  0  0  0  0  0  0  0  0  0  0  0
   -4.7052   -2.0852  -10.7146 H   0  0  0  0  0  0  0  0  0  0  0  0
   -4.7854   -3.4663   -6.9149 H   0  0  0  0  0  0  0  0  0  0  0  0
   -3.6067   -3.6768   -4.7699 H   0  0  0  0  0  0  0  0  0  0  0  0
    3.1796   -6.4091    3.6404 H   0  0  0  0  0  0  0  0  0  0  0  0
    2.3536   -4.8780    3.4634 H   0  0  0  0  0  0  0  0  0  0  0  0
    4.7981   -4.6634    4.0664 H   0  0  0  0  0  0  0  0  0  0  0  0
    4.4238   -3.8279    2.4852 H   0  0  0  0  0  0  0  0  0  0  0  0
    5.2156   -5.4641    2.5033 H   0  0  0  0  0  0  0  0  0  0  0  0
    1.7712   -3.1440   -0.1052 H   0  0  0  0  0  0  0  0  0  0  0  0
    2.4894   -3.1911    1.5139 H   0  0  0  0  0  0  0  0  0  0  0  0
    3.7787   -3.5013   -1.2631 H   0  0  0  0  0  0  0  0  0  0  0  0
    4.3380   -2.5470    0.1894 H   0  0  0  0  0  0  0  0  0  0  0  0
    4.5654   -4.3519    0.1222 H   0  0  0  0  0  0  0  0  0  0  0  0
    1.4688  -10.3784    2.0277 H   0  0  0  0  0  0  0  0  0  0  0  0
    5.9481   -9.2778    5.1764 H   0  0  0  0  0  0  0  0  0  0  0  0
    7.7937   -7.6810    4.7081 H   0  0  0  0  0  0  0  0  0  0  0  0
  1  2  2  3
  2  3  1  0
  3  4  2  0
  3  5  1  0
  5  6  2  0
  6  7  1  0
  7  8  2  0
  8  9  1  0
  9 10  2  0
 10 11  1  0
 10 12  1  0
 12 13  2  0
 13 14  1  0
 14 15  2  0
 15 16  1  0
 16 17  2  3
 17 18  1  0
 18 19  3  0
 17 20  1  0
 20 21  3  0
  1 22  1  0
 22 23  2  0
 23 24  1  0
 23 25  1  0
 25 26  1  0
 25 27  2  0
 27 28  1  0
 28 29  2  0
 29 30  1  0
 30 31  1  0
 31 32  1  0
 30 33  2  0
 33 34  1  0
 34 35  2  0
 33 36  1  0
 36 37  1  0
 27 38  1  0
 38 39  1  0
 39 40  1  0
 40 41  1  0
 41 42  2  0
 42 43  1  0
 43 44  1  0
 44 45  1  0
 43 46  1  0
 46 47  2  0
 47 48  1  0
 48 49  2  0
 49 50  1  0
 50 51  1  0
 49 52  1  0
 52 53  2  0
 43 54  1  0
 54 55  2  0
 55 56  1  0
 56 57  2  0
 57 58  1  0
 58 59  1  0
 57 60  1  0
 60 61  2  0
 42 62  1  0
 62 63  1  0
 63 64  1  0
 64 65  1  0
 65 66  2  0
 66 67  1  0
 67 68  1  0
 68 69  1  0
 69 70  2  0
 70 71  1  0
 71 72  2  0
 72 73  1  0
 73 74  1  0
 72 75  1  0
 75 76  2  0
 68 77  1  0
 77 78  2  0
 78 79  1  0
 79 80  2  0
 80 81  1  0
 81 82  1  0
 80 83  1  0
 83 84  2  0
 68 85  1  0
 85 86  2  0
 86 87  1  0
 87 88  1  0
 88 89  2  0
 89 90  1  0
 90 91  1  0
 91 92  2  0
 92 93  1  0
 93 94  2  0
 94 95  1  0
 95 96  1  0
 94 97  1  0
 97 98  2  0
 90 99  1  0
 99100  2  0
100101  1  0
101102  2  0
102103  1  0
103104  1  0
102105  1  0
105106  2  0
 90107  1  0
107108  1  0
108109  1  0
 86110  1  0
110111  1  0
111112  1  0
112113  2  0
113114  1  0
114115  1  0
113116  1  0
116117  1  0
117118  1  0
118119  2  0
119120  1  0
120121  1  0
121122  1  0
122123  2  0
123124  1  0
124125  2  0
125126  1  0
126127  1  0
125128  1  0
128129  2  0
121130  1  0
130131  2  0
131132  1  0
132133  2  0
133134  1  0
134135  1  0
133136  1  0
136137  2  0
118138  1  0
138139  2  0
139140  1  0
139141  1  0
141142  1  0
141143  2  0
143144  1  0
144145  2  0
145146  1  0
146147  1  0
147148  1  0
146149  2  0
149150  1  0
150151  2  0
149152  1  0
152153  1  0
143154  1  0
154155  2  3
155156  1  0
156157  2  0
156158  1  0
158159  2  0
159160  1  0
160161  2  0
161162  1  0
162163  1  0
162164  2  0
164165  1  0
159166  1  0
166167  2  3
167168  1  0
168169  3  0
167170  1  0
170171  3  0
 16  2  1  0
 35 22  1  0
 45 38  2  0
 53 46  1  0
 61 54  1  0
108 62  2  0
115111  2  0
120116  2  0
129122  1  0
137130  1  0
151138  1  0
166155  1  0
 15  5  1  0
 35 28  1  0
 44 40  2  0
107 64  2  0
121112  1  0
151144  1  0
164158  1  0
 13  7  1  0
109 41  1  0
 89 65  1  0
 98 91  1  0
106 99  1  0
 87 67  2  0
 76 69  1  0
 84 77  1  0
115 85  1  0
  1172  1  0
  6173  1  0
  8174  1  0
  9175  1  0
 12176  1  0
 14177  1  0
 31178  1  0
 31179  1  0
 32180  1  0
 32181  1  0
 32182  1  0
 36183  1  0
 36184  1  0
 37185  1  0
 37186  1  0
 37187  1  0
 45188  1  0
 47189  1  0
 48190  1  0
 50191  1  0
 50192  1  0
 51193  1  0
 51194  1  0
 51195  1  0
 52196  1  0
 53197  1  0
 55198  1  0
 56199  1  0
 58200  1  0
 58201  1  0
 59202  1  0
 59203  1  0
 59204  1  0
 60205  1  0
 61206  1  0
 66207  1  0
 70208  1  0
 71209  1  0
 73210  1  0
 73211  1  0
 74212  1  0
 74213  1  0
 74214  1  0
 75215  1  0
 76216  1  0
 78217  1  0
 79218  1  0
 81219  1  0
 81220  1  0
 82221  1  0
 82222  1  0
 82223  1  0
 83224  1  0
 84225  1  0
 88226  1  0
 92227  1  0
 93228  1  0
 95229  1  0
 95230  1  0
 96231  1  0
 96232  1  0
 96233  1  0
 97234  1  0
 98235  1  0
100236  1  0
101237  1  0
103238  1  0
103239  1  0
104240  1  0
104241  1  0
104242  1  0
105243  1  0
106244  1  0
119245  1  0
123246  1  0
124247  1  0
126248  1  0
126249  1  0
127250  1  0
127251  1  0
127252  1  0
128253  1  0
129254  1  0
131255  1  0
132256  1  0
134257  1  0
134258  1  0
135259  1  0
135260  1  0
135261  1  0
136262  1  0
137263  1  0
147264  1  0
147265  1  0
148266  1  0
148267  1  0
148268  1  0
152269  1  0
152270  1  0
153271  1  0
153272  1  0
153273  1  0
154274  1  0
160275  1  0
161276  1  0
M  END

