
     RDKit          3D

175196  0  0  0  0  0  0  0  0999 V2000
   -5.3899    6.2840    0.3754 C   0  0  0  0  0  0  0  0  0  0  0  0
   -6.6974    6.5863    0.4175 C   0  0  0  0  0  0  0  0  0  0  0  0
   -7.4195    7.1211    1.5763 C   0  0  0  0  0  0  0  0  0  0  0  0
   -6.9804    7.2238    2.7520 O   0  0  0  0  0  0  0  0  0  0  0  0
   -8.6922    7.6370    1.1130 C   0  0  0  0  0  0  0  0  0  0  0  0
   -9.6731    8.3099    1.8441 C   0  0  0  0  0  0  0  0  0  0  0  0
  -10.8052    8.7976    1.1648 C   0  0  0  0  0  0  0  0  0  0  0  0
  -11.8267    9.4640    1.8609 C   0  0  0  0  0  0  0  0  0  0  0  0
  -12.9386    9.9603    1.1727 C   0  0  0  0  0  0  0  0  0  0  0  0
  -13.0393    9.8043   -0.2134 C   0  0  0  0  0  0  0  0  0  0  0  0
  -14.1164   10.2961   -0.8769 F   0  0  0  0  0  0  0  0  0  0  0  0
  -12.0290    9.1467   -0.9218 C   0  0  0  0  0  0  0  0  0  0  0  0
  -10.9089    8.6336   -0.2472 C   0  0  0  0  0  0  0  0  0  0  0  0
   -9.8926    7.9661   -0.9570 C   0  0  0  0  0  0  0  0  0  0  0  0
   -8.8014    7.4358   -0.2514 C   0  0  0  0  0  0  0  0  0  0  0  0
   -7.6229    6.6748   -0.7474 C   0  0  0  0  0  0  0  0  0  0  0  0
   -7.5586    5.9274   -1.8798 C   0  0  0  0  0  0  0  0  0  0  0  0
   -6.5017    4.9737   -2.1136 C   0  0  0  0  0  0  0  0  0  0  0  0
   -5.6600    4.2010   -2.3058 N   0  0  0  0  0  0  0  0  0  0  0  0
   -8.6250    5.8979   -2.8499 C   0  0  0  0  0  0  0  0  0  0  0  0
   -9.4813    5.8449   -3.6266 N   0  0  0  0  0  0  0  0  0  0  0  0
   -4.5510    5.9856    1.5542 C   0  0  0  0  0  0  0  0  0  0  0  0
   -3.2472    6.5021    1.6380 C   0  0  0  0  0  0  0  0  0  0  0  0
   -2.7587    7.4606    0.8048 N   0  0  0  0  0  0  0  0  0  0  0  0
   -1.4422    7.6923    1.0288 C   0  0  0  0  0  0  0  0  0  0  0  0
   -0.6035    8.6313    0.2177 C   0  0  0  0  0  0  0  0  0  0  0  0
   -1.4370    9.6782   -0.5170 C   0  0  0  0  0  0  0  0  0  0  0  0
   -0.8180    6.6678    2.2143 S   0  0  0  0  0  0  0  0  0  0  0  0
   -2.3086    5.9459    2.5144 C   0  0  0  0  0  0  0  0  0  0  0  0
   -2.5950    4.8270    3.3161 C   0  0  0  0  0  0  0  0  0  0  0  0
   -3.9196    4.3574    3.2863 C   0  0  0  0  0  0  0  0  0  0  0  0
   -4.8651    4.9278    2.4285 C   0  0  0  0  0  0  0  0  0  0  0  0
   -6.2480    3.9645    2.4588 S   0  0  0  0  0  0  0  0  0  0  0  0
   -5.6041    2.9073    3.6057 C   0  0  0  0  0  0  0  0  0  0  0  0
   -6.2653    1.6492    4.0656 C   0  0  0  0  0  0  0  0  0  0  0  0
   -5.6442    0.4395    3.3749 C   0  0  0  0  0  0  0  0  0  0  0  0
   -4.3314    3.2325    3.9330 N   0  0  0  0  0  0  0  0  0  0  0  0
   -1.5124    3.9175    3.7352 C   0  0  0  0  0  0  0  0  0  0  0  0
   -0.3803    4.2218    4.5262 C   0  0  0  0  0  0  0  0  0  0  0  0
   -0.2397    5.4417    5.3534 C   0  0  0  0  0  0  0  0  0  0  0  0
   -1.3232    5.8982    6.1208 C   0  0  0  0  0  0  0  0  0  0  0  0
   -1.1930    7.0364    6.9214 C   0  0  0  0  0  0  0  0  0  0  0  0
    0.0186    7.7292    6.9658 C   0  0  0  0  0  0  0  0  0  0  0  0
    1.1029    7.3034    6.1832 C   0  0  0  0  0  0  0  0  0  0  0  0
    2.4177    8.0317    6.2487 C   0  0  0  0  0  0  0  0  0  0  0  0
    3.3305    7.4002    7.2945 C   0  0  0  0  0  0  0  0  0  0  0  0
    0.9687    6.1604    5.3802 C   0  0  0  0  0  0  0  0  0  0  0  0
    0.6054    3.2308    4.3716 C   0  0  0  0  0  0  0  0  0  0  0  0
    2.2456    3.0936    4.8260 S   0  0  0  0  0  0  0  0  0  0  0  0
    2.4529    1.7010    3.8719 C   0  0  0  0  0  0  0  0  0  0  0  0
    3.5000    1.1269    3.1968 C   0  0  0  0  0  0  0  0  0  0  0  0
    4.8840    1.3475    3.2681 C   0  0  0  0  0  0  0  0  0  0  0  0
    5.7241    0.7705    2.2662 C   0  0  0  0  0  0  0  0  0  0  0  0
    7.0560    0.9994    2.3732 N   0  0  0  0  0  0  0  0  0  0  0  0
    7.0667    1.9460    3.7337 S   0  0  0  0  0  0  0  0  0  0  0  0
    5.4903    2.0946    4.2226 N   0  0  0  0  0  0  0  0  0  0  0  0
    5.1362   -0.0022    1.2557 C   0  0  0  0  0  0  0  0  0  0  0  0
    5.6755   -0.7974    0.2800 C   0  0  0  0  0  0  0  0  0  0  0  0
    7.1999   -1.3488   -0.2404 S   0  0  0  0  0  0  0  0  0  0  0  0
    6.4589   -2.5287   -1.2338 C   0  0  0  0  0  0  0  0  0  0  0  0
    6.9389   -3.5176   -2.0994 C   0  0  0  0  0  0  0  0  0  0  0  0
    8.3595   -3.7159   -2.4241 C   0  0  0  0  0  0  0  0  0  0  0  0
    9.0103   -4.8955   -2.0399 C   0  0  0  0  0  0  0  0  0  0  0  0
   10.3544   -5.0941   -2.3670 C   0  0  0  0  0  0  0  0  0  0  0  0
   11.0568   -4.1177   -3.0765 C   0  0  0  0  0  0  0  0  0  0  0  0
   10.4226   -2.9203   -3.4489 C   0  0  0  0  0  0  0  0  0  0  0  0
   11.1605   -1.8910   -4.2626 C   0  0  0  0  0  0  0  0  0  0  0  0
   10.9156   -2.1048   -5.7531 C   0  0  0  0  0  0  0  0  0  0  0  0
    9.0702   -2.7268   -3.1215 C   0  0  0  0  0  0  0  0  0  0  0  0
    5.8697   -4.2371   -2.6699 C   0  0  0  0  0  0  0  0  0  0  0  0
    4.3855   -3.6541   -2.0788 S   0  0  0  0  0  0  0  0  0  0  0  0
    5.0946   -2.4974   -1.1096 C   0  0  0  0  0  0  0  0  0  0  0  0
    4.6498   -1.5024   -0.2615 C   0  0  0  0  0  0  0  0  0  0  0  0
    3.4495   -1.2290    0.3065 N   0  0  0  0  0  0  0  0  0  0  0  0
    3.7544   -0.2408    1.2070 C   0  0  0  0  0  0  0  0  0  0  0  0
    2.9177    0.4048    2.1450 C   0  0  0  0  0  0  0  0  0  0  0  0
    1.5719    0.6419    2.0745 N   0  0  0  0  0  0  0  0  0  0  0  0
    1.3228    1.3790    3.1880 C   0  0  0  0  0  0  0  0  0  0  0  0
    0.2731    2.2293    3.4964 C   0  0  0  0  0  0  0  0  0  0  0  0
   -1.2455    2.4824    2.8689 S   0  0  0  0  0  0  0  0  0  0  0  0
    0.7745    0.7496    0.8423 C   0  0  0  0  0  0  0  0  0  0  0  0
    0.9826    2.1051    0.1584 C   0  0  0  0  0  0  0  0  0  0  0  0
    2.3442   -2.1984    0.3980 C   0  0  0  0  0  0  0  0  0  0  0  0
    1.5721   -2.3201   -0.9223 C   0  0  0  0  0  0  0  0  0  0  0  0
    5.9457   -5.2256   -3.7471 C   0  0  0  0  0  0  0  0  0  0  0  0
    5.0366   -5.0816   -5.1843 S   0  0  0  0  0  0  0  0  0  0  0  0
    5.3461   -6.6519   -5.6610 C   0  0  0  0  0  0  0  0  0  0  0  0
    4.6461   -7.5881   -6.3661 C   0  0  0  0  0  0  0  0  0  0  0  0
    4.9447   -8.7920   -5.8067 C   0  0  0  0  0  0  0  0  0  0  0  0
    5.8089   -8.6675   -4.7626 N   0  0  0  0  0  0  0  0  0  0  0  0
    6.0507   -9.6522   -3.7059 C   0  0  0  0  0  0  0  0  0  0  0  0
    4.9143   -9.6457   -2.6839 C   0  0  0  0  0  0  0  0  0  0  0  0
    6.0290   -7.3262   -4.6920 C   0  0  0  0  0  0  0  0  0  0  0  0
    6.3962   -6.5448   -3.5914 C   0  0  0  0  0  0  0  0  0  0  0  0
    4.0192   -9.8002   -6.0769 C   0  0  0  0  0  0  0  0  0  0  0  0
    2.9606   -9.3003   -6.8458 C   0  0  0  0  0  0  0  0  0  0  0  0
    3.1654   -7.6318   -7.1493 S   0  0  0  0  0  0  0  0  0  0  0  0
    1.7891  -10.0900   -7.2425 C   0  0  0  0  0  0  0  0  0  0  0  0
    0.5511   -9.8798   -6.7552 C   0  0  0  0  0  0  0  0  0  0  0  0
    0.2187   -9.0327   -5.6008 C   0  0  0  0  0  0  0  0  0  0  0  0
    0.9692   -8.1868   -5.0483 O   0  0  0  0  0  0  0  0  0  0  0  0
   -1.0943   -9.4066   -5.1240 C   0  0  0  0  0  0  0  0  0  0  0  0
   -1.7503   -8.9540   -3.9790 C   0  0  0  0  0  0  0  0  0  0  0  0
   -2.9770   -9.5425   -3.6290 C   0  0  0  0  0  0  0  0  0  0  0  0
   -3.6691   -9.1233   -2.4819 C   0  0  0  0  0  0  0  0  0  0  0  0
   -4.8771   -9.7327   -2.1280 C   0  0  0  0  0  0  0  0  0  0  0  0
   -5.4067  -10.7588   -2.9142 C   0  0  0  0  0  0  0  0  0  0  0  0
   -6.5801  -11.3455   -2.5618 F   0  0  0  0  0  0  0  0  0  0  0  0
   -4.7291  -11.1902   -4.0594 C   0  0  0  0  0  0  0  0  0  0  0  0
   -3.5137  -10.5908   -4.4289 C   0  0  0  0  0  0  0  0  0  0  0  0
   -2.8202  -11.0327   -5.5745 C   0  0  0  0  0  0  0  0  0  0  0  0
   -1.6145  -10.4078   -5.9283 C   0  0  0  0  0  0  0  0  0  0  0  0
   -0.6730  -10.6871   -7.0489 C   0  0  0  0  0  0  0  0  0  0  0  0
   -0.9523  -11.3446   -8.2049 C   0  0  0  0  0  0  0  0  0  0  0  0
   -2.2224  -11.9698   -8.4614 C   0  0  0  0  0  0  0  0  0  0  0  0
   -3.2407  -12.4778   -8.6815 N   0  0  0  0  0  0  0  0  0  0  0  0
   -0.0430  -11.3614   -9.3240 C   0  0  0  0  0  0  0  0  0  0  0  0
    0.6841  -11.3869  -10.2231 N   0  0  0  0  0  0  0  0  0  0  0  0
   -4.8936    6.2007   -0.5813 H   0  0  0  0  0  0  0  0  0  0  0  0
   -9.5519    8.4542    2.9118 H   0  0  0  0  0  0  0  0  0  0  0  0
  -11.7673    9.6007    2.9342 H   0  0  0  0  0  0  0  0  0  0  0  0
  -13.7257   10.4731    1.7143 H   0  0  0  0  0  0  0  0  0  0  0  0
  -12.1259    9.0339   -1.9960 H   0  0  0  0  0  0  0  0  0  0  0  0
   -9.9495    7.9010   -2.0318 H   0  0  0  0  0  0  0  0  0  0  0  0
    0.1105    9.1478    0.8942 H   0  0  0  0  0  0  0  0  0  0  0  0
   -0.0209    8.0432   -0.5231 H   0  0  0  0  0  0  0  0  0  0  0  0
   -2.1040    9.1897   -1.2602 H   0  0  0  0  0  0  0  0  0  0  0  0
   -2.0527   10.2601    0.2017 H   0  0  0  0  0  0  0  0  0  0  0  0
   -0.7613   10.3765   -1.0546 H   0  0  0  0  0  0  0  0  0  0  0  0
   -7.3516    1.6925    3.8384 H   0  0  0  0  0  0  0  0  0  0  0  0
   -6.1462    1.5499    5.1654 H   0  0  0  0  0  0  0  0  0  0  0  0
   -6.1766   -0.4820    3.6843 H   0  0  0  0  0  0  0  0  0  0  0  0
   -4.5729    0.3429    3.6549 H   0  0  0  0  0  0  0  0  0  0  0  0
   -5.7237    0.5441    2.2713 H   0  0  0  0  0  0  0  0  0  0  0  0
   -2.2651    5.3636    6.1179 H   0  0  0  0  0  0  0  0  0  0  0  0
   -2.0298    7.3737    7.5196 H   0  0  0  0  0  0  0  0  0  0  0  0
    0.1094    8.5994    7.6025 H   0  0  0  0  0  0  0  0  0  0  0  0
    2.2545    9.1014    6.5011 H   0  0  0  0  0  0  0  0  0  0  0  0
    2.9197    8.0023    5.2565 H   0  0  0  0  0  0  0  0  0  0  0  0
    3.5163    6.3319    7.0528 H   0  0  0  0  0  0  0  0  0  0  0  0
    4.3036    7.9344    7.3107 H   0  0  0  0  0  0  0  0  0  0  0  0
    2.8684    7.4726    8.3031 H   0  0  0  0  0  0  0  0  0  0  0  0
    1.8029    5.8477    4.7661 H   0  0  0  0  0  0  0  0  0  0  0  0
    8.4814   -5.6560   -1.4807 H   0  0  0  0  0  0  0  0  0  0  0  0
   10.8515   -6.0088   -2.0705 H   0  0  0  0  0  0  0  0  0  0  0  0
   12.0921   -4.2940   -3.3404 H   0  0  0  0  0  0  0  0  0  0  0  0
   12.2526   -1.9492   -4.0614 H   0  0  0  0  0  0  0  0  0  0  0  0
   10.8237   -0.8686   -3.9770 H   0  0  0  0  0  0  0  0  0  0  0  0
   11.4689   -1.3373   -6.3352 H   0  0  0  0  0  0  0  0  0  0  0  0
    9.8343   -2.0109   -5.9825 H   0  0  0  0  0  0  0  0  0  0  0  0
   11.2720   -3.1105   -6.0610 H   0  0  0  0  0  0  0  0  0  0  0  0
    8.5665   -1.8128   -3.4214 H   0  0  0  0  0  0  0  0  0  0  0  0
   -0.2976    0.5903    1.0710 H   0  0  0  0  0  0  0  0  0  0  0  0
    1.0571   -0.0129    0.1117 H   0  0  0  0  0  0  0  0  0  0  0  0
    1.9768    2.1336   -0.3331 H   0  0  0  0  0  0  0  0  0  0  0  0
    0.2013    2.2462   -0.6153 H   0  0  0  0  0  0  0  0  0  0  0  0
    0.9156    2.9435    0.8812 H   0  0  0  0  0  0  0  0  0  0  0  0
    1.6478   -1.9238    1.2169 H   0  0  0  0  0  0  0  0  0  0  0  0
    2.7546   -3.1961    0.6752 H   0  0  0  0  0  0  0  0  0  0  0  0
    1.9439   -1.5977   -1.6807 H   0  0  0  0  0  0  0  0  0  0  0  0
    1.6585   -3.3478   -1.3317 H   0  0  0  0  0  0  0  0  0  0  0  0
    0.4908   -2.1271   -0.7561 H   0  0  0  0  0  0  0  0  0  0  0  0
    6.1401  -10.6636   -4.1526 H   0  0  0  0  0  0  0  0  0  0  0  0
    7.0076   -9.4246   -3.1927 H   0  0  0  0  0  0  0  0  0  0  0  0
    4.8543   -8.6564   -2.1824 H   0  0  0  0  0  0  0  0  0  0  0  0
    3.9448   -9.8583   -3.1787 H   0  0  0  0  0  0  0  0  0  0  0  0
    5.0997  -10.4252   -1.9151 H   0  0  0  0  0  0  0  0  0  0  0  0
    6.7999   -6.9454   -2.6722 H   0  0  0  0  0  0  0  0  0  0  0  0
    4.0446  -10.7918   -5.6438 H   0  0  0  0  0  0  0  0  0  0  0  0
    1.9853  -10.9471   -7.8630 H   0  0  0  0  0  0  0  0  0  0  0  0
   -1.3052   -8.1791   -3.3646 H   0  0  0  0  0  0  0  0  0  0  0  0
   -3.2710   -8.3343   -1.8528 H   0  0  0  0  0  0  0  0  0  0  0  0
   -5.4023   -9.4093   -1.2379 H   0  0  0  0  0  0  0  0  0  0  0  0
   -5.1535  -11.9928   -4.6527 H   0  0  0  0  0  0  0  0  0  0  0  0
   -3.2084  -11.8696   -6.1329 H   0  0  0  0  0  0  0  0  0  0  0  0
  1  2  2  3
  2  3  1  0
  3  4  2  0
  3  5  1  0
  5  6  2  0
  6  7  1  0
  7  8  2  0
  8  9  1  0
  9 10  2  0
 10 11  1  0
 10 12  1  0
 12 13  2  0
 13 14  1  0
 14 15  2  0
 15 16  1  0
 16 17  2  3
 17 18  1  0
 18 19  3  0
 17 20  1  0
 20 21  3  0
  1 22  1  0
 22 23  2  0
 23 24  1  0
 24 25  2  0
 25 26  1  0
 26 27  1  0
 25 28  1  0
 28 29  1  0
 29 30  2  0
 30 31  1  0
 31 32  2  0
 32 33  1  0
 33 34  1  0
 34 35  1  0
 35 36  1  0
 34 37  2  0
 30 38  1  0
 38 39  2  0
 39 40  1  0
 40 41  2  0
 41 42  1  0
 42 43  2  0
 43 44  1  0
 44 45  1  0
 45 46  1  0
 44 47  2  0
 39 48  1  0
 48 49  1  0
 49 50  1  0
 50 51  1  0
 51 52  1  0
 52 53  1  0
 53 54  2  0
 54 55  1  0
 55 56  1  0
 53 57  1  0
 57 58  1  0
 58 59  1  0
 59 60  1  0
 60 61  1  0
 61 62  1  0
 62 63  2  0
 63 64  1  0
 64 65  2  0
 65 66  1  0
 66 67  1  0
 67 68  1  0
 66 69  2  0
 61 70  2  0
 70 71  1  0
 71 72  1  0
 72 73  1  0
 73 74  1  0
 74 75  1  0
 75 76  1  0
 76 77  1  0
 77 78  1  0
 78 79  1  0
 79 80  1  0
 77 81  1  0
 81 82  1  0
 74 83  1  0
 83 84  1  0
 70 85  1  0
 85 86  1  0
 86 87  1  0
 87 88  1  0
 88 89  2  0
 89 90  1  0
 90 91  1  0
 91 92  1  0
 90 93  1  0
 93 94  1  0
 89 95  1  0
 95 96  2  0
 96 97  1  0
 96 98  1  0
 98 99  2  3
 99100  1  0
100101  2  0
100102  1  0
102103  2  0
103104  1  0
104105  2  0
105106  1  0
106107  2  0
107108  1  0
107109  1  0
109110  2  0
110111  1  0
111112  2  0
112113  1  0
113114  2  3
114115  1  0
115116  3  0
114117  1  0
117118  3  0
 16  2  1  0
 32 22  1  0
 80 38  1  0
 94 85  2  0
113 99  1  0
 15  5  1  0
 29 23  1  0
 37 31  1  0
 47 40  1  0
 79 48  2  0
 93 87  2  0
112102  1  0
 13  7  1  0
 78 50  2  0
 97 88  1  0
110104  1  0
 76 51  2  0
 56 52  2  0
 75 57  2  0
 73 58  2  0
 72 60  2  0
 69 62  1  0
  1119  1  0
  6120  1  0
  8121  1  0
  9122  1  0
 12123  1  0
 14124  1  0
 26125  1  0
 26126  1  0
 27127  1  0
 27128  1  0
 27129  1  0
 35130  1  0
 35131  1  0
 36132  1  0
 36133  1  0
 36134  1  0
 41135  1  0
 42136  1  0
 43137  1  0
 45138  1  0
 45139  1  0
 46140  1  0
 46141  1  0
 46142  1  0
 47143  1  0
 63144  1  0
 64145  1  0
 65146  1  0
 67147  1  0
 67148  1  0
 68149  1  0
 68150  1  0
 68151  1  0
 69152  1  0
 81153  1  0
 81154  1  0
 82155  1  0
 82156  1  0
 82157  1  0
 83158  1  0
 83159  1  0
 84160  1  0
 84161  1  0
 84162  1  0
 91163  1  0
 91164  1  0
 92165  1  0
 92166  1  0
 92167  1  0
 94168  1  0
 95169  1  0
 98170  1  0
103171  1  0
105172  1  0
106173  1  0
109174  1  0
111175  1  0
M  END

