
     RDKit          3D

225248  0  0  0  0  0  0  0  0999 V2000
   -3.2056    2.8285    2.8558 C   0  0  0  0  0  0  0  0  0  0  0  0
   -4.5049    2.5910    3.0849 C   0  0  0  0  0  0  0  0  0  0  0  0
   -5.5320    3.6058    3.3625 C   0  0  0  0  0  0  0  0  0  0  0  0
   -5.3951    4.8552    3.2765 O   0  0  0  0  0  0  0  0  0  0  0  0
   -6.6925    2.9271    3.9167 C   0  0  0  0  0  0  0  0  0  0  0  0
   -7.8679    3.4974    4.4044 C   0  0  0  0  0  0  0  0  0  0  0  0
   -8.8174    2.6640    5.0195 C   0  0  0  0  0  0  0  0  0  0  0  0
  -10.0094    3.1911    5.5362 C   0  0  0  0  0  0  0  0  0  0  0  0
  -10.9297    2.3576    6.1760 C   0  0  0  0  0  0  0  0  0  0  0  0
  -10.6648    0.9925    6.3180 C   0  0  0  0  0  0  0  0  0  0  0  0
  -11.5580    0.1882    6.9462 F   0  0  0  0  0  0  0  0  0  0  0  0
   -9.4834    0.4492    5.8059 C   0  0  0  0  0  0  0  0  0  0  0  0
   -8.5537    1.2697    5.1488 C   0  0  0  0  0  0  0  0  0  0  0  0
   -7.3574    0.7257    4.6425 C   0  0  0  0  0  0  0  0  0  0  0  0
   -6.4415    1.5676    3.9958 C   0  0  0  0  0  0  0  0  0  0  0  0
   -5.1117    1.2611    3.3946 C   0  0  0  0  0  0  0  0  0  0  0  0
   -4.6792    0.0523    2.9479 C   0  0  0  0  0  0  0  0  0  0  0  0
   -3.5098   -0.0913    2.1174 C   0  0  0  0  0  0  0  0  0  0  0  0
   -2.5734   -0.2124    1.4430 N   0  0  0  0  0  0  0  0  0  0  0  0
   -5.4416   -1.1546    3.1198 C   0  0  0  0  0  0  0  0  0  0  0  0
   -6.0449   -2.1343    3.2533 N   0  0  0  0  0  0  0  0  0  0  0  0
   -2.6195    4.0795    2.3095 C   0  0  0  0  0  0  0  0  0  0  0  0
   -3.1575    4.7254    1.1728 C   0  0  0  0  0  0  0  0  0  0  0  0
   -4.3689    4.3693    0.6610 N   0  0  0  0  0  0  0  0  0  0  0  0
   -4.8697    4.9321   -0.4722 C   0  0  0  0  0  0  0  0  0  0  0  0
   -6.1056    4.3909   -1.0694 C   0  0  0  0  0  0  0  0  0  0  0  0
   -6.0997    3.0922   -1.6003 C   0  0  0  0  0  0  0  0  0  0  0  0
   -7.2026    2.6150   -2.3200 C   0  0  0  0  0  0  0  0  0  0  0  0
   -8.3312    3.4358   -2.5040 C   0  0  0  0  0  0  0  0  0  0  0  0
   -9.4404    3.0237   -3.2540 O   0  0  0  0  0  0  0  0  0  0  0  0
  -10.1043    1.7663   -3.0956 C   0  0  0  0  0  0  0  0  0  0  0  0
  -10.8602    1.7327   -1.7724 C   0  0  0  0  0  0  0  0  0  0  0  0
   -8.3439    4.7242   -1.9563 C   0  0  0  0  0  0  0  0  0  0  0  0
   -7.2410    5.2005   -1.2347 C   0  0  0  0  0  0  0  0  0  0  0  0
   -7.2773    6.4490   -0.7043 F   0  0  0  0  0  0  0  0  0  0  0  0
   -9.4311    5.5177   -2.1237 F   0  0  0  0  0  0  0  0  0  0  0  0
   -7.1151    1.3994   -2.9130 F   0  0  0  0  0  0  0  0  0  0  0  0
   -5.0000    2.3083   -1.4866 F   0  0  0  0  0  0  0  0  0  0  0  0
   -4.1072    5.9131   -1.1387 C   0  0  0  0  0  0  0  0  0  0  0  0
   -4.4943    6.4544   -2.4546 C   0  0  0  0  0  0  0  0  0  0  0  0
   -4.2801    5.6923   -3.6141 C   0  0  0  0  0  0  0  0  0  0  0  0
   -3.7778    4.4355   -3.5241 F   0  0  0  0  0  0  0  0  0  0  0  0
   -4.5520    6.2346   -4.8723 C   0  0  0  0  0  0  0  0  0  0  0  0
   -4.3678    5.4640   -5.9710 F   0  0  0  0  0  0  0  0  0  0  0  0
   -5.0352    7.5498   -4.9836 C   0  0  0  0  0  0  0  0  0  0  0  0
   -5.2623    8.1530   -6.2268 O   0  0  0  0  0  0  0  0  0  0  0  0
   -4.2986    8.1729   -7.2867 C   0  0  0  0  0  0  0  0  0  0  0  0
   -3.0086    8.8532   -6.8381 C   0  0  0  0  0  0  0  0  0  0  0  0
   -5.2896    8.2925   -3.8211 C   0  0  0  0  0  0  0  0  0  0  0  0
   -5.7649    9.5582   -3.9206 F   0  0  0  0  0  0  0  0  0  0  0  0
   -5.0052    7.7526   -2.5615 C   0  0  0  0  0  0  0  0  0  0  0  0
   -5.2045    8.5090   -1.4502 F   0  0  0  0  0  0  0  0  0  0  0  0
   -2.8723    6.2093   -0.6769 N   0  0  0  0  0  0  0  0  0  0  0  0
   -2.3589    5.6341    0.4431 C   0  0  0  0  0  0  0  0  0  0  0  0
   -0.9753    5.7103    0.6959 C   0  0  0  0  0  0  0  0  0  0  0  0
   -0.4965    5.2024    1.9179 C   0  0  0  0  0  0  0  0  0  0  0  0
   -1.3207    4.4148    2.7248 C   0  0  0  0  0  0  0  0  0  0  0  0
   -0.7814    3.8185    3.8210 F   0  0  0  0  0  0  0  0  0  0  0  0
    0.8179    5.2767    2.2398 F   0  0  0  0  0  0  0  0  0  0  0  0
   -0.0791    5.6934   -0.4937 C   0  0  0  0  0  0  0  0  0  0  0  0
    1.3089    5.9960   -0.5747 C   0  0  0  0  0  0  0  0  0  0  0  0
    2.0241    6.9134    0.3336 C   0  0  0  0  0  0  0  0  0  0  0  0
    3.2673    6.5588    0.8831 C   0  0  0  0  0  0  0  0  0  0  0  0
    3.9578    7.4582    1.6996 C   0  0  0  0  0  0  0  0  0  0  0  0
    3.4301    8.7239    1.9487 C   0  0  0  0  0  0  0  0  0  0  0  0
    2.1970    9.1047    1.4000 C   0  0  0  0  0  0  0  0  0  0  0  0
    1.6516   10.4876    1.6441 C   0  0  0  0  0  0  0  0  0  0  0  0
    0.7796   10.5327    2.8920 C   0  0  0  0  0  0  0  0  0  0  0  0
    1.4837    8.1830    0.6142 C   0  0  0  0  0  0  0  0  0  0  0  0
    1.8995    5.3360   -1.6750 C   0  0  0  0  0  0  0  0  0  0  0  0
    3.5117    4.8769   -2.0537 S   0  0  0  0  0  0  0  0  0  0  0  0
    2.9882    3.7371   -3.1995 C   0  0  0  0  0  0  0  0  0  0  0  0
    3.4420    2.5508   -3.7336 C   0  0  0  0  0  0  0  0  0  0  0  0
    4.7182    2.0034   -3.9220 C   0  0  0  0  0  0  0  0  0  0  0  0
    4.8247    0.6828   -4.4808 C   0  0  0  0  0  0  0  0  0  0  0  0
    6.0761    0.1804   -4.6140 N   0  0  0  0  0  0  0  0  0  0  0  0
    6.9578    1.4548   -4.0283 S   0  0  0  0  0  0  0  0  0  0  0  0
    5.8719    2.6243   -3.5843 N   0  0  0  0  0  0  0  0  0  0  0  0
    3.6483   -0.0431   -4.7466 C   0  0  0  0  0  0  0  0  0  0  0  0
    3.4539   -1.3941   -4.9116 C   0  0  0  0  0  0  0  0  0  0  0  0
    4.4362   -2.7833   -4.8413 S   0  0  0  0  0  0  0  0  0  0  0  0
    3.1367   -3.7599   -4.3153 C   0  0  0  0  0  0  0  0  0  0  0  0
    3.0414   -5.0701   -3.7921 C   0  0  0  0  0  0  0  0  0  0  0  0
    4.0736   -6.1249   -3.9957 C   0  0  0  0  0  0  0  0  0  0  0  0
    5.4410   -5.8098   -3.9967 C   0  0  0  0  0  0  0  0  0  0  0  0
    6.3910   -6.7726   -4.3328 C   0  0  0  0  0  0  0  0  0  0  0  0
    5.9930   -8.0784   -4.6247 C   0  0  0  0  0  0  0  0  0  0  0  0
    4.6435   -8.4344   -4.5673 C   0  0  0  0  0  0  0  0  0  0  0  0
    4.2137   -9.8368   -4.8969 C   0  0  0  0  0  0  0  0  0  0  0  0
    3.9326   -9.9851   -6.3915 C   0  0  0  0  0  0  0  0  0  0  0  0
    3.6822   -7.4508   -4.2709 C   0  0  0  0  0  0  0  0  0  0  0  0
    1.7719   -5.2679   -3.1762 C   0  0  0  0  0  0  0  0  0  0  0  0
    0.8470   -3.8543   -3.3676 S   0  0  0  0  0  0  0  0  0  0  0  0
    2.0101   -2.9932   -4.1768 C   0  0  0  0  0  0  0  0  0  0  0  0
    2.1772   -1.6573   -4.5166 C   0  0  0  0  0  0  0  0  0  0  0  0
    1.5164   -0.5447   -4.1016 N   0  0  0  0  0  0  0  0  0  0  0  0
    2.3915    0.4661   -4.3872 C   0  0  0  0  0  0  0  0  0  0  0  0
    2.2816    1.8214   -4.0282 C   0  0  0  0  0  0  0  0  0  0  0  0
    1.1589    2.5536   -3.7992 N   0  0  0  0  0  0  0  0  0  0  0  0
    1.6334    3.7000   -3.2712 C   0  0  0  0  0  0  0  0  0  0  0  0
    1.0234    4.6088   -2.4361 C   0  0  0  0  0  0  0  0  0  0  0  0
   -0.4929    4.6495   -1.7799 S   0  0  0  0  0  0  0  0  0  0  0  0
   -0.1790    2.3726   -4.3863 C   0  0  0  0  0  0  0  0  0  0  0  0
   -0.4461    3.4177   -5.4648 C   0  0  0  0  0  0  0  0  0  0  0  0
    0.5880   -0.5542   -2.9559 C   0  0  0  0  0  0  0  0  0  0  0  0
    1.3442   -0.7123   -1.6316 C   0  0  0  0  0  0  0  0  0  0  0  0
    1.3987   -6.1948   -2.0688 C   0  0  0  0  0  0  0  0  0  0  0  0
    2.2927   -6.4013   -0.9942 C   0  0  0  0  0  0  0  0  0  0  0  0
    3.6366   -6.3872   -1.1849 N   0  0  0  0  0  0  0  0  0  0  0  0
    4.5144   -6.5362   -0.1597 C   0  0  0  0  0  0  0  0  0  0  0  0
    5.9545   -6.5901   -0.4674 C   0  0  0  0  0  0  0  0  0  0  0  0
    6.4777   -7.6992   -1.1495 C   0  0  0  0  0  0  0  0  0  0  0  0
    7.8458   -7.7771   -1.4263 C   0  0  0  0  0  0  0  0  0  0  0  0
    8.7078   -6.7529   -1.0242 C   0  0  0  0  0  0  0  0  0  0  0  0
   10.0650   -6.8613   -1.3454 O   0  0  0  0  0  0  0  0  0  0  0  0
   11.1442   -6.6141   -0.4385 C   0  0  0  0  0  0  0  0  0  0  0  0
   11.1687   -7.6642    0.6689 C   0  0  0  0  0  0  0  0  0  0  0  0
    8.1859   -5.6304   -0.3535 C   0  0  0  0  0  0  0  0  0  0  0  0
    6.8158   -5.5532   -0.0757 C   0  0  0  0  0  0  0  0  0  0  0  0
    6.3199   -4.4473    0.5362 F   0  0  0  0  0  0  0  0  0  0  0  0
    8.9769   -4.5757   -0.0282 F   0  0  0  0  0  0  0  0  0  0  0  0
    8.3391   -8.8637   -2.0760 F   0  0  0  0  0  0  0  0  0  0  0  0
    5.6669   -8.7208   -1.5220 F   0  0  0  0  0  0  0  0  0  0  0  0
    4.0143   -6.6464    1.1581 C   0  0  0  0  0  0  0  0  0  0  0  0
    4.9131   -6.6843    2.3244 C   0  0  0  0  0  0  0  0  0  0  0  0
    5.8707   -7.7018    2.4607 C   0  0  0  0  0  0  0  0  0  0  0  0
    5.8546   -8.7795    1.6354 F   0  0  0  0  0  0  0  0  0  0  0  0
    6.8778   -7.5994    3.4228 C   0  0  0  0  0  0  0  0  0  0  0  0
    7.8086   -8.5788    3.5024 F   0  0  0  0  0  0  0  0  0  0  0  0
    6.9177   -6.4851    4.2862 C   0  0  0  0  0  0  0  0  0  0  0  0
    7.9782   -6.2631    5.1839 O   0  0  0  0  0  0  0  0  0  0  0  0
    9.3533   -6.5244    4.8936 C   0  0  0  0  0  0  0  0  0  0  0  0
    9.7983   -5.7519    3.6571 C   0  0  0  0  0  0  0  0  0  0  0  0
    5.8882   -5.5365    4.2314 C   0  0  0  0  0  0  0  0  0  0  0  0
    5.9097   -4.4629    5.0640 F   0  0  0  0  0  0  0  0  0  0  0  0
    4.9005   -5.6243    3.2444 C   0  0  0  0  0  0  0  0  0  0  0  0
    3.9766   -4.6353    3.1371 F   0  0  0  0  0  0  0  0  0  0  0  0
    2.6713   -6.6481    1.3582 N   0  0  0  0  0  0  0  0  0  0  0  0
    1.7988   -6.5664    0.3164 C   0  0  0  0  0  0  0  0  0  0  0  0
    0.4142   -6.5829    0.5472 C   0  0  0  0  0  0  0  0  0  0  0  0
   -0.4616   -6.6228   -0.5496 C   0  0  0  0  0  0  0  0  0  0  0  0
    0.0270   -6.4429   -1.8498 C   0  0  0  0  0  0  0  0  0  0  0  0
   -0.8565   -6.3464   -2.8725 F   0  0  0  0  0  0  0  0  0  0  0  0
   -1.8030   -6.7210   -0.3512 F   0  0  0  0  0  0  0  0  0  0  0  0
   -0.1262   -6.4969    1.9241 C   0  0  0  0  0  0  0  0  0  0  0  0
    0.0877   -5.4234    2.7210 C   0  0  0  0  0  0  0  0  0  0  0  0
    0.5852   -4.1214    2.2467 C   0  0  0  0  0  0  0  0  0  0  0  0
    0.9483   -3.8303    1.0718 O   0  0  0  0  0  0  0  0  0  0  0  0
    0.5161   -3.1831    3.3398 C   0  0  0  0  0  0  0  0  0  0  0  0
    0.8115   -1.8216    3.3049 C   0  0  0  0  0  0  0  0  0  0  0  0
    0.6648   -1.0666    4.4791 C   0  0  0  0  0  0  0  0  0  0  0  0
    0.9633    0.3073    4.4896 C   0  0  0  0  0  0  0  0  0  0  0  0
    0.8486    1.0432    5.6702 C   0  0  0  0  0  0  0  0  0  0  0  0
    0.4426    0.4127    6.8491 C   0  0  0  0  0  0  0  0  0  0  0  0
    0.3637    1.1207    8.0028 F   0  0  0  0  0  0  0  0  0  0  0  0
    0.1248   -0.9460    6.8521 C   0  0  0  0  0  0  0  0  0  0  0  0
    0.2305   -1.6987    5.6729 C   0  0  0  0  0  0  0  0  0  0  0  0
   -0.0822   -3.0713    5.6715 C   0  0  0  0  0  0  0  0  0  0  0  0
    0.0406   -3.8086    4.4797 C   0  0  0  0  0  0  0  0  0  0  0  0
   -0.2515   -5.2496    4.1754 C   0  0  0  0  0  0  0  0  0  0  0  0
   -0.6690   -6.2137    5.0487 C   0  0  0  0  0  0  0  0  0  0  0  0
   -0.9827   -5.9399    6.4237 C   0  0  0  0  0  0  0  0  0  0  0  0
   -1.2381   -5.7427    7.5349 N   0  0  0  0  0  0  0  0  0  0  0  0
   -0.8176   -7.6005    4.6857 C   0  0  0  0  0  0  0  0  0  0  0  0
   -0.9468   -8.7069    4.3795 N   0  0  0  0  0  0  0  0  0  0  0  0
   -2.4975    2.0283    3.0270 H   0  0  0  0  0  0  0  0  0  0  0  0
   -8.0317    4.5620    4.3137 H   0  0  0  0  0  0  0  0  0  0  0  0
  -10.2250    4.2464    5.4471 H   0  0  0  0  0  0  0  0  0  0  0  0
  -11.8420    2.7749    6.5802 H   0  0  0  0  0  0  0  0  0  0  0  0
   -9.2945   -0.6134    5.9322 H   0  0  0  0  0  0  0  0  0  0  0  0
   -7.1485   -0.3188    4.7993 H   0  0  0  0  0  0  0  0  0  0  0  0
   -9.3965    0.9174   -3.1553 H   0  0  0  0  0  0  0  0  0  0  0  0
  -10.8347    1.6476   -3.9251 H   0  0  0  0  0  0  0  0  0  0  0  0
  -11.6072    2.5596   -1.7510 H   0  0  0  0  0  0  0  0  0  0  0  0
  -11.3975    0.7647   -1.6777 H   0  0  0  0  0  0  0  0  0  0  0  0
  -10.1559    1.8441   -0.9192 H   0  0  0  0  0  0  0  0  0  0  0  0
   -4.0866    7.1500   -7.6540 H   0  0  0  0  0  0  0  0  0  0  0  0
   -4.7266    8.7467   -8.1361 H   0  0  0  0  0  0  0  0  0  0  0  0
   -2.3187    8.9768   -7.7043 H   0  0  0  0  0  0  0  0  0  0  0  0
   -2.4985    8.2401   -6.0624 H   0  0  0  0  0  0  0  0  0  0  0  0
   -3.2356    9.8554   -6.4166 H   0  0  0  0  0  0  0  0  0  0  0  0
    3.6937    5.5800    0.7020 H   0  0  0  0  0  0  0  0  0  0  0  0
    4.9102    7.1728    2.1273 H   0  0  0  0  0  0  0  0  0  0  0  0
    3.9877    9.4128    2.5737 H   0  0  0  0  0  0  0  0  0  0  0  0
    2.4937   11.2057    1.7613 H   0  0  0  0  0  0  0  0  0  0  0  0
    1.0551   10.8252    0.7694 H   0  0  0  0  0  0  0  0  0  0  0  0
    1.3517   10.1854    3.7761 H   0  0  0  0  0  0  0  0  0  0  0  0
    0.4468   11.5768    3.0709 H   0  0  0  0  0  0  0  0  0  0  0  0
   -0.1175    9.8944    2.7612 H   0  0  0  0  0  0  0  0  0  0  0  0
    0.5254    8.4653    0.1881 H   0  0  0  0  0  0  0  0  0  0  0  0
    5.7860   -4.8243   -3.7204 H   0  0  0  0  0  0  0  0  0  0  0  0
    7.4416   -6.5096   -4.3576 H   0  0  0  0  0  0  0  0  0  0  0  0
    6.7459   -8.8203   -4.8815 H   0  0  0  0  0  0  0  0  0  0  0  0
    3.2976  -10.1007   -4.3252 H   0  0  0  0  0  0  0  0  0  0  0  0
    5.0045  -10.5624   -4.6008 H   0  0  0  0  0  0  0  0  0  0  0  0
    4.8649   -9.8353   -6.9815 H   0  0  0  0  0  0  0  0  0  0  0  0
    3.5447  -11.0012   -6.5915 H   0  0  0  0  0  0  0  0  0  0  0  0
    3.1759   -9.2339   -6.7112 H   0  0  0  0  0  0  0  0  0  0  0  0
    2.6341   -7.7153   -4.2863 H   0  0  0  0  0  0  0  0  0  0  0  0
   -0.2631    1.3741   -4.8621 H   0  0  0  0  0  0  0  0  0  0  0  0
   -0.9554    2.4511   -3.5907 H   0  0  0  0  0  0  0  0  0  0  0  0
    0.3458    3.3720   -6.2374 H   0  0  0  0  0  0  0  0  0  0  0  0
   -0.4717    4.4419   -5.0244 H   0  0  0  0  0  0  0  0  0  0  0  0
   -1.4356    3.2230   -5.9409 H   0  0  0  0  0  0  0  0  0  0  0  0
   -0.1600   -1.3628   -3.0687 H   0  0  0  0  0  0  0  0  0  0  0  0
   -0.0003    0.3693   -2.8915 H   0  0  0  0  0  0  0  0  0  0  0  0
    1.8886   -1.6780   -1.6050 H   0  0  0  0  0  0  0  0  0  0  0  0
    0.6292   -0.6851   -0.7899 H   0  0  0  0  0  0  0  0  0  0  0  0
    2.0729    0.1180   -1.5065 H   0  0  0  0  0  0  0  0  0  0  0  0
   11.0887   -5.5933   -0.0053 H   0  0  0  0  0  0  0  0  0  0  0  0
   12.1036   -6.6821   -1.0040 H   0  0  0  0  0  0  0  0  0  0  0  0
   12.0719   -7.5157    1.2931 H   0  0  0  0  0  0  0  0  0  0  0  0
   10.2653   -7.5709    1.3042 H   0  0  0  0  0  0  0  0  0  0  0  0
   11.1962   -8.6808    0.2273 H   0  0  0  0  0  0  0  0  0  0  0  0
    9.9602   -6.1887    5.7590 H   0  0  0  0  0  0  0  0  0  0  0  0
    9.5365   -7.6056    4.7755 H   0  0  0  0  0  0  0  0  0  0  0  0
    9.2045   -6.0513    2.7709 H   0  0  0  0  0  0  0  0  0  0  0  0
   10.8754   -5.9422    3.4487 H   0  0  0  0  0  0  0  0  0  0  0  0
    9.6500   -4.6633    3.8255 H   0  0  0  0  0  0  0  0  0  0  0  0
   -0.7302   -7.3312    2.2374 H   0  0  0  0  0  0  0  0  0  0  0  0
    1.1465   -1.3635    2.3854 H   0  0  0  0  0  0  0  0  0  0  0  0
    1.2901    0.8058    3.5895 H   0  0  0  0  0  0  0  0  0  0  0  0
    1.0896    2.0956    5.6728 H   0  0  0  0  0  0  0  0  0  0  0  0
   -0.1826   -1.4222    7.7759 H   0  0  0  0  0  0  0  0  0  0  0  0
   -0.4073   -3.5216    6.5895 H   0  0  0  0  0  0  0  0  0  0  0  0
  1  2  2  3
  2  3  1  0
  3  4  2  0
  3  5  1  0
  5  6  2  0
  6  7  1  0
  7  8  2  0
  8  9  1  0
  9 10  2  0
 10 11  1  0
 10 12  1  0
 12 13  2  0
 13 14  1  0
 14 15  2  0
 15 16  1  0
 16 17  2  3
 17 18  1  0
 18 19  3  0
 17 20  1  0
 20 21  3  0
  1 22  1  0
 22 23  1  0
 23 24  2  0
 24 25  1  0
 25 26  1  0
 26 27  2  0
 27 28  1  0
 28 29  2  0
 29 30  1  0
 30 31  1  0
 31 32  1  0
 29 33  1  0
 33 34  2  0
 34 35  1  0
 33 36  1  0
 28 37  1  0
 27 38  1  0
 25 39  2  0
 39 40  1  0
 40 41  2  0
 41 42  1  0
 41 43  1  0
 43 44  1  0
 43 45  2  0
 45 46  1  0
 46 47  1  0
 47 48  1  0
 45 49  1  0
 49 50  1  0
 49 51  2  0
 51 52  1  0
 39 53  1  0
 53 54  2  0
 54 55  1  0
 55 56  2  0
 56 57  1  0
 57 58  1  0
 56 59  1  0
 55 60  1  0
 60 61  2  0
 61 62  1  0
 62 63  2  0
 63 64  1  0
 64 65  2  0
 65 66  1  0
 66 67  1  0
 67 68  1  0
 66 69  2  0
 61 70  1  0
 70 71  1  0
 71 72  1  0
 72 73  1  0
 73 74  1  0
 74 75  1  0
 75 76  2  0
 76 77  1  0
 77 78  1  0
 75 79  1  0
 79 80  1  0
 80 81  1  0
 81 82  1  0
 82 83  1  0
 83 84  1  0
 84 85  2  0
 85 86  1  0
 86 87  2  0
 87 88  1  0
 88 89  1  0
 89 90  1  0
 88 91  2  0
 83 92  2  0
 92 93  1  0
 93 94  1  0
 94 95  1  0
 95 96  1  0
 96 97  1  0
 97 98  1  0
 98 99  1  0
 99100  1  0
100101  1  0
101102  1  0
 99103  1  0
103104  1  0
 96105  1  0
105106  1  0
 92107  1  0
107108  1  0
108109  2  0
109110  1  0
110111  1  0
111112  2  0
112113  1  0
113114  2  0
114115  1  0
115116  1  0
116117  1  0
114118  1  0
118119  2  0
119120  1  0
118121  1  0
113122  1  0
112123  1  0
110124  2  0
124125  1  0
125126  2  0
126127  1  0
126128  1  0
128129  1  0
128130  2  0
130131  1  0
131132  1  0
132133  1  0
130134  1  0
134135  1  0
134136  2  0
136137  1  0
124138  1  0
138139  2  0
139140  1  0
140141  2  0
141142  1  0
142143  1  0
141144  1  0
140145  1  0
145146  2  3
146147  1  0
147148  2  0
147149  1  0
149150  2  0
150151  1  0
151152  2  0
152153  1  0
153154  2  0
154155  1  0
154156  1  0
156157  2  0
157158  1  0
158159  2  0
159160  1  0
160161  2  3
161162  1  0
162163  3  0
161164  1  0
164165  3  0
 16  2  1  0
 57 22  2  0
102 60  1  0
142107  2  0
160146  1  0
 15  5  1  0
 54 23  1  0
 69 62  1  0
101 70  2  0
139108  1  0
159149  1  0
 13  7  1  0
 34 26  1  0
 51 40  1  0
100 72  2  0
119111  1  0
136125  1  0
157151  1  0
 98 73  2  0
 78 74  2  0
 97 79  2  0
 95 80  2  0
 94 82  2  0
 91 84  1  0
  1166  1  0
  6167  1  0
  8168  1  0
  9169  1  0
 12170  1  0
 14171  1  0
 31172  1  0
 31173  1  0
 32174  1  0
 32175  1  0
 32176  1  0
 47177  1  0
 47178  1  0
 48179  1  0
 48180  1  0
 48181  1  0
 63182  1  0
 64183  1  0
 65184  1  0
 67185  1  0
 67186  1  0
 68187  1  0
 68188  1  0
 68189  1  0
 69190  1  0
 85191  1  0
 86192  1  0
 87193  1  0
 89194  1  0
 89195  1  0
 90196  1  0
 90197  1  0
 90198  1  0
 91199  1  0
103200  1  0
103201  1  0
104202  1  0
104203  1  0
104204  1  0
105205  1  0
105206  1  0
106207  1  0
106208  1  0
106209  1  0
116210  1  0
116211  1  0
117212  1  0
117213  1  0
117214  1  0
132215  1  0
132216  1  0
133217  1  0
133218  1  0
133219  1  0
145220  1  0
150221  1  0
152222  1  0
153223  1  0
156224  1  0
158225  1  0
M  END

