
     RDKit          3D

151168  0  0  0  0  0  0  0  0999 V2000
    6.3833   -6.9729    0.9839 C   0  0  0  0  0  0  0  0  0  0  0  0
    5.5593   -7.9440    1.4337 C   0  0  0  0  0  0  0  0  0  0  0  0
    4.0953   -7.8682    1.4206 C   0  0  0  0  0  0  0  0  0  0  0  0
    3.3930   -7.1598    0.6503 O   0  0  0  0  0  0  0  0  0  0  0  0
    3.5812   -8.7539    2.4303 C   0  0  0  0  0  0  0  0  0  0  0  0
    2.2604   -8.8662    2.8612 C   0  0  0  0  0  0  0  0  0  0  0  0
    1.9837   -9.6841    3.9638 C   0  0  0  0  0  0  0  0  0  0  0  0
    0.6765   -9.7958    4.4555 C   0  0  0  0  0  0  0  0  0  0  0  0
    0.4089  -10.5961    5.5675 C   0  0  0  0  0  0  0  0  0  0  0  0
    1.4440  -11.2900    6.2007 C   0  0  0  0  0  0  0  0  0  0  0  0
    1.1706  -12.0675    7.2803 F   0  0  0  0  0  0  0  0  0  0  0  0
    2.7539  -11.1864    5.7281 C   0  0  0  0  0  0  0  0  0  0  0  0
    3.0417  -10.3838    4.6119 C   0  0  0  0  0  0  0  0  0  0  0  0
    4.3697  -10.2542    4.1429 C   0  0  0  0  0  0  0  0  0  0  0  0
    4.6263   -9.4401    3.0251 C   0  0  0  0  0  0  0  0  0  0  0  0
    5.9079   -9.0719    2.3508 C   0  0  0  0  0  0  0  0  0  0  0  0
    7.1062   -9.7049    2.4540 C   0  0  0  0  0  0  0  0  0  0  0  0
    8.2266   -9.3858    1.6081 C   0  0  0  0  0  0  0  0  0  0  0  0
    9.1346   -9.1403    0.9303 N   0  0  0  0  0  0  0  0  0  0  0  0
    7.3208  -10.8113    3.3514 C   0  0  0  0  0  0  0  0  0  0  0  0
    7.5072  -11.6995    4.0753 N   0  0  0  0  0  0  0  0  0  0  0  0
    5.8687   -5.6335    0.6668 C   0  0  0  0  0  0  0  0  0  0  0  0
    5.9515   -4.9385   -0.5359 C   0  0  0  0  0  0  0  0  0  0  0  0
    6.5915   -5.4620   -1.7133 C   0  0  0  0  0  0  0  0  0  0  0  0
    7.1045   -5.8901   -2.6595 N   0  0  0  0  0  0  0  0  0  0  0  0
    5.2967   -3.6912   -0.5023 C   0  0  0  0  0  0  0  0  0  0  0  0
    4.6947   -3.4239    0.7238 C   0  0  0  0  0  0  0  0  0  0  0  0
    5.0326   -4.6937    1.7712 S   0  0  0  0  0  0  0  0  0  0  0  0
    3.9466   -2.2142    1.1071 C   0  0  0  0  0  0  0  0  0  0  0  0
    3.0707   -2.1186    2.2085 C   0  0  0  0  0  0  0  0  0  0  0  0
    2.4158   -3.2575    2.8875 C   0  0  0  0  0  0  0  0  0  0  0  0
    1.7936   -4.2590    2.1267 C   0  0  0  0  0  0  0  0  0  0  0  0
    1.1332   -5.3150    2.7556 C   0  0  0  0  0  0  0  0  0  0  0  0
    1.0803   -5.3810    4.1476 C   0  0  0  0  0  0  0  0  0  0  0  0
    1.6930   -4.3876    4.9263 C   0  0  0  0  0  0  0  0  0  0  0  0
    1.5954   -4.4342    6.4255 C   0  0  0  0  0  0  0  0  0  0  0  0
    0.2422   -3.9138    6.8973 C   0  0  0  0  0  0  0  0  0  0  0  0
    2.3436   -3.3149    4.2913 C   0  0  0  0  0  0  0  0  0  0  0  0
    2.6984   -0.7995    2.4309 C   0  0  0  0  0  0  0  0  0  0  0  0
    1.6456   -0.0616    3.5608 S   0  0  0  0  0  0  0  0  0  0  0  0
    1.8484    1.4266    2.7814 C   0  0  0  0  0  0  0  0  0  0  0  0
    1.3819    2.7000    2.8567 C   0  0  0  0  0  0  0  0  0  0  0  0
    0.5942    3.3521    3.8015 C   0  0  0  0  0  0  0  0  0  0  0  0
    0.2126    4.7010    3.5478 C   0  0  0  0  0  0  0  0  0  0  0  0
   -0.5835    5.2901    4.4748 N   0  0  0  0  0  0  0  0  0  0  0  0
   -0.7153    4.0526    5.5672 S   0  0  0  0  0  0  0  0  0  0  0  0
    0.1512    2.7859    4.9515 N   0  0  0  0  0  0  0  0  0  0  0  0
    0.5693    5.2941    2.3175 C   0  0  0  0  0  0  0  0  0  0  0  0
   -0.1355    6.2550    1.6427 C   0  0  0  0  0  0  0  0  0  0  0  0
   -1.7207    6.7729    1.9410 S   0  0  0  0  0  0  0  0  0  0  0  0
   -2.1126    6.8143    0.2976 C   0  0  0  0  0  0  0  0  0  0  0  0
   -3.3639    6.6718   -0.3117 C   0  0  0  0  0  0  0  0  0  0  0  0
   -4.5708    6.5147    0.5117 C   0  0  0  0  0  0  0  0  0  0  0  0
   -4.8809    5.2527    1.0399 C   0  0  0  0  0  0  0  0  0  0  0  0
   -5.9454    5.1057    1.9282 C   0  0  0  0  0  0  0  0  0  0  0  0
   -6.7041    6.2163    2.3008 C   0  0  0  0  0  0  0  0  0  0  0  0
   -6.3911    7.4899    1.7973 C   0  0  0  0  0  0  0  0  0  0  0  0
   -7.1363    8.7001    2.2857 C   0  0  0  0  0  0  0  0  0  0  0  0
   -6.4479    9.3060    3.5057 C   0  0  0  0  0  0  0  0  0  0  0  0
   -5.3130    7.6367    0.9075 C   0  0  0  0  0  0  0  0  0  0  0  0
   -3.2394    6.2649   -1.6595 C   0  0  0  0  0  0  0  0  0  0  0  0
   -1.5877    6.0429   -1.9940 S   0  0  0  0  0  0  0  0  0  0  0  0
   -1.0330    6.4415   -0.4654 C   0  0  0  0  0  0  0  0  0  0  0  0
    0.0812    6.0474    0.2994 C   0  0  0  0  0  0  0  0  0  0  0  0
    0.9419    5.0069    0.0872 N   0  0  0  0  0  0  0  0  0  0  0  0
    1.3033    4.5898    1.3454 C   0  0  0  0  0  0  0  0  0  0  0  0
    1.8466    3.3332    1.7034 C   0  0  0  0  0  0  0  0  0  0  0  0
    2.7066    2.5240    1.0071 N   0  0  0  0  0  0  0  0  0  0  0  0
    2.6432    1.3571    1.6906 C   0  0  0  0  0  0  0  0  0  0  0  0
    3.1708    0.0942    1.5062 C   0  0  0  0  0  0  0  0  0  0  0  0
    4.1483   -0.6768    0.3823 S   0  0  0  0  0  0  0  0  0  0  0  0
    3.8408    2.9448    0.1734 C   0  0  0  0  0  0  0  0  0  0  0  0
    5.1243    3.0094    0.9988 C   0  0  0  0  0  0  0  0  0  0  0  0
    0.9153    4.1606   -1.1203 C   0  0  0  0  0  0  0  0  0  0  0  0
   -0.1826    3.0973   -1.0219 C   0  0  0  0  0  0  0  0  0  0  0  0
   -4.2894    5.7912   -2.5880 C   0  0  0  0  0  0  0  0  0  0  0  0
   -5.6446    5.5835   -2.3264 C   0  0  0  0  0  0  0  0  0  0  0  0
   -6.3379    4.9937   -3.3903 C   0  0  0  0  0  0  0  0  0  0  0  0
   -8.0957    4.6421   -3.3095 S   0  0  0  0  0  0  0  0  0  0  0  0
   -8.6252    6.3613   -3.6384 C   0  0  0  0  0  0  0  0  0  0  0  0
   -8.3981    6.7509   -5.0898 C   0  0  0  0  0  0  0  0  0  0  0  0
   -5.5302    4.6944   -4.4888 C   0  0  0  0  0  0  0  0  0  0  0  0
   -3.9761    5.2388   -4.1474 S   0  0  0  0  0  0  0  0  0  0  0  0
   -5.9889    4.1399   -5.7819 C   0  0  0  0  0  0  0  0  0  0  0  0
   -5.2520    3.3384   -6.5794 C   0  0  0  0  0  0  0  0  0  0  0  0
   -4.1236    2.4998   -6.1388 C   0  0  0  0  0  0  0  0  0  0  0  0
   -3.6312    2.4577   -4.9824 O   0  0  0  0  0  0  0  0  0  0  0  0
   -3.8081    1.5603   -7.1921 C   0  0  0  0  0  0  0  0  0  0  0  0
   -2.8198    0.5748   -7.1832 C   0  0  0  0  0  0  0  0  0  0  0  0
   -2.6958   -0.2613   -8.3002 C   0  0  0  0  0  0  0  0  0  0  0  0
   -1.7415   -1.2868   -8.3171 C   0  0  0  0  0  0  0  0  0  0  0  0
   -1.6257   -2.1215   -9.4332 C   0  0  0  0  0  0  0  0  0  0  0  0
   -2.4536   -1.9303  -10.5420 C   0  0  0  0  0  0  0  0  0  0  0  0
   -2.3258   -2.7388  -11.6222 F   0  0  0  0  0  0  0  0  0  0  0  0
   -3.4215   -0.9208  -10.5374 C   0  0  0  0  0  0  0  0  0  0  0  0
   -3.5564   -0.0802   -9.4191 C   0  0  0  0  0  0  0  0  0  0  0  0
   -4.5405    0.9281   -9.3969 C   0  0  0  0  0  0  0  0  0  0  0  0
   -4.6660    1.7453   -8.2611 C   0  0  0  0  0  0  0  0  0  0  0  0
   -5.5954    2.8822   -7.9672 C   0  0  0  0  0  0  0  0  0  0  0  0
   -6.4572    3.4828   -8.8318 C   0  0  0  0  0  0  0  0  0  0  0  0
   -7.1099    4.7349   -8.5399 C   0  0  0  0  0  0  0  0  0  0  0  0
   -7.6506    5.7371   -8.3211 N   0  0  0  0  0  0  0  0  0  0  0  0
   -6.7680    2.9474  -10.1311 C   0  0  0  0  0  0  0  0  0  0  0  0
   -7.0367    2.5268  -11.1783 N   0  0  0  0  0  0  0  0  0  0  0  0
    7.4524   -7.0555    1.0799 H   0  0  0  0  0  0  0  0  0  0  0  0
    1.4741   -8.3123    2.3616 H   0  0  0  0  0  0  0  0  0  0  0  0
   -0.1350   -9.2570    3.9846 H   0  0  0  0  0  0  0  0  0  0  0  0
   -0.6058  -10.6754    5.9402 H   0  0  0  0  0  0  0  0  0  0  0  0
    3.5424  -11.7326    6.2333 H   0  0  0  0  0  0  0  0  0  0  0  0
    5.1646  -10.7420    4.6803 H   0  0  0  0  0  0  0  0  0  0  0  0
    5.2505   -3.0238   -1.3510 H   0  0  0  0  0  0  0  0  0  0  0  0
    1.8067   -4.2192    1.0461 H   0  0  0  0  0  0  0  0  0  0  0  0
    0.6423   -6.0757    2.1607 H   0  0  0  0  0  0  0  0  0  0  0  0
    0.5586   -6.2049    4.6245 H   0  0  0  0  0  0  0  0  0  0  0  0
    2.4024   -3.8202    6.8874 H   0  0  0  0  0  0  0  0  0  0  0  0
    1.7381   -5.4765    6.7804 H   0  0  0  0  0  0  0  0  0  0  0  0
    0.1856   -3.9703    8.0052 H   0  0  0  0  0  0  0  0  0  0  0  0
   -0.5842   -4.5269    6.4716 H   0  0  0  0  0  0  0  0  0  0  0  0
    0.1067   -2.8580    6.5813 H   0  0  0  0  0  0  0  0  0  0  0  0
    2.8058   -2.5355    4.8816 H   0  0  0  0  0  0  0  0  0  0  0  0
   -4.2836    4.3884    0.7743 H   0  0  0  0  0  0  0  0  0  0  0  0
   -6.1658    4.1341    2.3493 H   0  0  0  0  0  0  0  0  0  0  0  0
   -7.5111    6.0936    3.0137 H   0  0  0  0  0  0  0  0  0  0  0  0
   -7.1971    9.4638    1.4789 H   0  0  0  0  0  0  0  0  0  0  0  0
   -8.1776    8.4188    2.5588 H   0  0  0  0  0  0  0  0  0  0  0  0
   -6.4129    8.5707    4.3374 H   0  0  0  0  0  0  0  0  0  0  0  0
   -5.4135    9.6268    3.2487 H   0  0  0  0  0  0  0  0  0  0  0  0
   -7.0176   10.1975    3.8423 H   0  0  0  0  0  0  0  0  0  0  0  0
   -5.0317    8.6205    0.5503 H   0  0  0  0  0  0  0  0  0  0  0  0
    3.6726    3.9633   -0.2250 H   0  0  0  0  0  0  0  0  0  0  0  0
    3.9693    2.2362   -0.6704 H   0  0  0  0  0  0  0  0  0  0  0  0
    5.0088    3.7570    1.8157 H   0  0  0  0  0  0  0  0  0  0  0  0
    5.3675    2.0229    1.4414 H   0  0  0  0  0  0  0  0  0  0  0  0
    5.9687    3.3307    0.3453 H   0  0  0  0  0  0  0  0  0  0  0  0
    0.7690    4.7903   -2.0226 H   0  0  0  0  0  0  0  0  0  0  0  0
    1.8676    3.6495   -1.2985 H   0  0  0  0  0  0  0  0  0  0  0  0
    0.0986    2.3192   -0.2847 H   0  0  0  0  0  0  0  0  0  0  0  0
   -0.3172    2.6103   -2.0133 H   0  0  0  0  0  0  0  0  0  0  0  0
   -1.1531    3.5408   -0.7095 H   0  0  0  0  0  0  0  0  0  0  0  0
   -6.1396    5.8473   -1.4063 H   0  0  0  0  0  0  0  0  0  0  0  0
   -8.0908    7.0692   -2.9642 H   0  0  0  0  0  0  0  0  0  0  0  0
   -9.7095    6.4306   -3.4166 H   0  0  0  0  0  0  0  0  0  0  0  0
   -8.9427    6.0595   -5.7664 H   0  0  0  0  0  0  0  0  0  0  0  0
   -8.7810    7.7785   -5.2613 H   0  0  0  0  0  0  0  0  0  0  0  0
   -7.3172    6.7576   -5.3349 H   0  0  0  0  0  0  0  0  0  0  0  0
   -6.9930    4.3967   -6.0734 H   0  0  0  0  0  0  0  0  0  0  0  0
   -2.1704    0.4595   -6.3222 H   0  0  0  0  0  0  0  0  0  0  0  0
   -1.0898   -1.4472   -7.4664 H   0  0  0  0  0  0  0  0  0  0  0  0
   -0.8938   -2.9161   -9.4304 H   0  0  0  0  0  0  0  0  0  0  0  0
   -4.0624   -0.7959  -11.4021 H   0  0  0  0  0  0  0  0  0  0  0  0
   -5.1861    1.0384  -10.2490 H   0  0  0  0  0  0  0  0  0  0  0  0
  1  2  2  3
  2  3  1  0
  3  4  2  0
  3  5  1  0
  5  6  2  0
  6  7  1  0
  7  8  2  0
  8  9  1  0
  9 10  2  0
 10 11  1  0
 10 12  1  0
 12 13  2  0
 13 14  1  0
 14 15  2  0
 15 16  1  0
 16 17  2  3
 17 18  1  0
 18 19  3  0
 17 20  1  0
 20 21  3  0
  1 22  1  0
 22 23  2  0
 23 24  1  0
 24 25  3  0
 23 26  1  0
 26 27  2  0
 27 28  1  0
 27 29  1  0
 29 30  2  0
 30 31  1  0
 31 32  2  0
 32 33  1  0
 33 34  2  0
 34 35  1  0
 35 36  1  0
 36 37  1  0
 35 38  2  0
 30 39  1  0
 39 40  1  0
 40 41  1  0
 41 42  1  0
 42 43  1  0
 43 44  1  0
 44 45  2  0
 45 46  1  0
 46 47  1  0
 44 48  1  0
 48 49  1  0
 49 50  1  0
 50 51  1  0
 51 52  1  0
 52 53  1  0
 53 54  2  0
 54 55  1  0
 55 56  2  0
 56 57  1  0
 57 58  1  0
 58 59  1  0
 57 60  2  0
 52 61  2  0
 61 62  1  0
 62 63  1  0
 63 64  1  0
 64 65  1  0
 65 66  1  0
 66 67  1  0
 67 68  1  0
 68 69  1  0
 69 70  1  0
 70 71  1  0
 68 72  1  0
 72 73  1  0
 65 74  1  0
 74 75  1  0
 61 76  1  0
 76 77  2  0
 77 78  1  0
 78 79  1  0
 79 80  1  0
 80 81  1  0
 78 82  2  0
 82 83  1  0
 82 84  1  0
 84 85  2  3
 85 86  1  0
 86 87  2  0
 86 88  1  0
 88 89  2  0
 89 90  1  0
 90 91  2  0
 91 92  1  0
 92 93  2  0
 93 94  1  0
 93 95  1  0
 95 96  2  0
 96 97  1  0
 97 98  2  0
 98 99  1  0
 99100  2  3
100101  1  0
101102  3  0
100103  1  0
103104  3  0
 16  2  1  0
 28 22  1  0
 71 29  1  0
 83 76  1  0
 99 85  1  0
 15  5  1  0
 38 31  1  0
 70 39  2  0
 98 88  1  0
 13  7  1  0
 69 41  2  0
 96 90  1  0
 67 42  2  0
 47 43  2  0
 66 48  2  0
 64 49  2  0
 63 51  2  0
 60 53  1  0
  1105  1  0
  6106  1  0
  8107  1  0
  9108  1  0
 12109  1  0
 14110  1  0
 26111  1  0
 32112  1  0
 33113  1  0
 34114  1  0
 36115  1  0
 36116  1  0
 37117  1  0
 37118  1  0
 37119  1  0
 38120  1  0
 54121  1  0
 55122  1  0
 56123  1  0
 58124  1  0
 58125  1  0
 59126  1  0
 59127  1  0
 59128  1  0
 60129  1  0
 72130  1  0
 72131  1  0
 73132  1  0
 73133  1  0
 73134  1  0
 74135  1  0
 74136  1  0
 75137  1  0
 75138  1  0
 75139  1  0
 77140  1  0
 80141  1  0
 80142  1  0
 81143  1  0
 81144  1  0
 81145  1  0
 84146  1  0
 89147  1  0
 91148  1  0
 92149  1  0
 95150  1  0
 97151  1  0
M  END

