
     RDKit          3D

182202  0  0  0  0  0  0  0  0999 V2000
   -4.7655    3.3497   -6.0052 C   0  0  0  0  0  0  0  0  0  0  0  0
   -5.2414    3.0337   -4.7832 C   0  0  0  0  0  0  0  0  0  0  0  0
   -4.4164    2.6510   -3.6289 C   0  0  0  0  0  0  0  0  0  0  0  0
   -3.1850    2.8741   -3.4797 O   0  0  0  0  0  0  0  0  0  0  0  0
   -5.2507    1.9540   -2.6780 C   0  0  0  0  0  0  0  0  0  0  0  0
   -4.8465    1.2901   -1.5227 C   0  0  0  0  0  0  0  0  0  0  0  0
   -5.8033    0.5670   -0.7963 C   0  0  0  0  0  0  0  0  0  0  0  0
   -5.4372   -0.1287    0.3664 C   0  0  0  0  0  0  0  0  0  0  0  0
   -6.3905   -0.8707    1.0698 C   0  0  0  0  0  0  0  0  0  0  0  0
   -7.7132   -0.9257    0.6218 C   0  0  0  0  0  0  0  0  0  0  0  0
   -8.6303   -1.6507    1.3092 F   0  0  0  0  0  0  0  0  0  0  0  0
   -8.0947   -0.2453   -0.5372 C   0  0  0  0  0  0  0  0  0  0  0  0
   -7.1503    0.5110   -1.2554 C   0  0  0  0  0  0  0  0  0  0  0  0
   -7.5245    1.1935   -2.4342 C   0  0  0  0  0  0  0  0  0  0  0  0
   -6.5601    1.9378   -3.1309 C   0  0  0  0  0  0  0  0  0  0  0  0
   -6.6524    2.7112   -4.4089 C   0  0  0  0  0  0  0  0  0  0  0  0
   -7.7837    3.1879   -4.9934 C   0  0  0  0  0  0  0  0  0  0  0  0
   -9.0924    2.9439   -4.4473 C   0  0  0  0  0  0  0  0  0  0  0  0
  -10.1527    2.7699   -4.0170 N   0  0  0  0  0  0  0  0  0  0  0  0
   -7.7560    4.0921   -6.1127 C   0  0  0  0  0  0  0  0  0  0  0  0
   -7.7548    4.8287   -7.0080 N   0  0  0  0  0  0  0  0  0  0  0  0
   -3.3214    3.2836   -6.2940 C   0  0  0  0  0  0  0  0  0  0  0  0
   -2.6768    2.0409   -6.4272 C   0  0  0  0  0  0  0  0  0  0  0  0
   -3.3164    0.7870   -6.4514 C   0  0  0  0  0  0  0  0  0  0  0  0
   -2.4242   -0.2775   -6.4312 C   0  0  0  0  0  0  0  0  0  0  0  0
   -2.8130   -1.7240   -6.3533 C   0  0  0  0  0  0  0  0  0  0  0  0
   -2.1930   -2.5318   -7.4863 C   0  0  0  0  0  0  0  0  0  0  0  0
   -0.8499    0.3260   -6.3620 S   0  0  0  0  0  0  0  0  0  0  0  0
   -1.2811    1.9578   -6.4079 C   0  0  0  0  0  0  0  0  0  0  0  0
   -0.4539    3.0928   -6.2864 C   0  0  0  0  0  0  0  0  0  0  0  0
   -1.1045    4.3413   -6.1941 C   0  0  0  0  0  0  0  0  0  0  0  0
   -2.5032    4.4222   -6.2068 C   0  0  0  0  0  0  0  0  0  0  0  0
   -2.9732    6.0117   -5.9348 S   0  0  0  0  0  0  0  0  0  0  0  0
   -1.4020    6.6227   -5.8441 C   0  0  0  0  0  0  0  0  0  0  0  0
   -1.0533    8.0337   -5.4827 C   0  0  0  0  0  0  0  0  0  0  0  0
   -0.9538    8.1918   -3.9689 C   0  0  0  0  0  0  0  0  0  0  0  0
   -0.4865    5.5854   -5.9938 C   0  0  0  0  0  0  0  0  0  0  0  0
    0.9974    2.9508   -6.0306 C   0  0  0  0  0  0  0  0  0  0  0  0
    1.8824    2.1274   -6.7588 C   0  0  0  0  0  0  0  0  0  0  0  0
    1.6340    1.6482   -8.1387 C   0  0  0  0  0  0  0  0  0  0  0  0
    1.1446    2.5464   -9.1022 C   0  0  0  0  0  0  0  0  0  0  0  0
    0.9365    2.1308  -10.4164 C   0  0  0  0  0  0  0  0  0  0  0  0
    1.2139    0.8157  -10.7893 C   0  0  0  0  0  0  0  0  0  0  0  0
    1.6940   -0.1006   -9.8422 C   0  0  0  0  0  0  0  0  0  0  0  0
    1.9572   -1.5259  -10.2424 C   0  0  0  0  0  0  0  0  0  0  0  0
    0.6553   -2.3140  -10.3276 C   0  0  0  0  0  0  0  0  0  0  0  0
    1.8918    0.3161   -8.5146 C   0  0  0  0  0  0  0  0  0  0  0  0
    3.0351    1.8550   -6.0089 C   0  0  0  0  0  0  0  0  0  0  0  0
    4.1613    0.5686   -6.0654 S   0  0  0  0  0  0  0  0  0  0  0  0
    4.6949    0.9171   -4.4948 C   0  0  0  0  0  0  0  0  0  0  0  0
    5.2815    0.2384   -3.4627 C   0  0  0  0  0  0  0  0  0  0  0  0
    5.9619   -0.9828   -3.4131 C   0  0  0  0  0  0  0  0  0  0  0  0
    6.3615   -1.4908   -2.1398 C   0  0  0  0  0  0  0  0  0  0  0  0
    7.0038   -2.6864   -2.1282 N   0  0  0  0  0  0  0  0  0  0  0  0
    7.0253   -3.0058   -3.7552 S   0  0  0  0  0  0  0  0  0  0  0  0
    6.2639   -1.7354   -4.4993 N   0  0  0  0  0  0  0  0  0  0  0  0
    6.0300   -0.7633   -0.9881 C   0  0  0  0  0  0  0  0  0  0  0  0
    6.0508   -1.1283    0.3303 C   0  0  0  0  0  0  0  0  0  0  0  0
    6.1293   -2.6125    1.1524 S   0  0  0  0  0  0  0  0  0  0  0  0
    5.2908   -1.9763    2.4933 C   0  0  0  0  0  0  0  0  0  0  0  0
    4.7428   -2.5326    3.6606 C   0  0  0  0  0  0  0  0  0  0  0  0
    4.8145   -3.9736    4.0136 C   0  0  0  0  0  0  0  0  0  0  0  0
    6.0190   -4.6808    3.8579 C   0  0  0  0  0  0  0  0  0  0  0  0
    6.1154   -6.0143    4.2690 C   0  0  0  0  0  0  0  0  0  0  0  0
    5.0152   -6.6510    4.8510 C   0  0  0  0  0  0  0  0  0  0  0  0
    3.7975   -5.9680    4.9993 C   0  0  0  0  0  0  0  0  0  0  0  0
    2.6534   -6.6124    5.7318 C   0  0  0  0  0  0  0  0  0  0  0  0
    2.7506   -6.3308    7.2263 C   0  0  0  0  0  0  0  0  0  0  0  0
    3.6976   -4.6377    4.5625 C   0  0  0  0  0  0  0  0  0  0  0  0
    4.0094   -1.5544    4.3781 C   0  0  0  0  0  0  0  0  0  0  0  0
    4.0118   -0.0841    3.5132 S   0  0  0  0  0  0  0  0  0  0  0  0
    4.9339   -0.6785    2.2578 C   0  0  0  0  0  0  0  0  0  0  0  0
    5.3119   -0.2066    1.0105 C   0  0  0  0  0  0  0  0  0  0  0  0
    4.7078    0.6914    0.1848 N   0  0  0  0  0  0  0  0  0  0  0  0
    5.2617    0.4116   -1.0387 C   0  0  0  0  0  0  0  0  0  0  0  0
    4.9497    0.9606   -2.3054 C   0  0  0  0  0  0  0  0  0  0  0  0
    4.2365    2.0864   -2.6121 N   0  0  0  0  0  0  0  0  0  0  0  0
    4.0571    1.9804   -3.9498 C   0  0  0  0  0  0  0  0  0  0  0  0
    3.0946    2.5020   -4.7943 C   0  0  0  0  0  0  0  0  0  0  0  0
    1.6806    3.3472   -4.5194 S   0  0  0  0  0  0  0  0  0  0  0  0
    4.2931    3.3812   -1.9109 C   0  0  0  0  0  0  0  0  0  0  0  0
    5.3141    4.3153   -2.5535 C   0  0  0  0  0  0  0  0  0  0  0  0
    3.3265    1.1672    0.4133 C   0  0  0  0  0  0  0  0  0  0  0  0
    2.3148    0.0210    0.2930 C   0  0  0  0  0  0  0  0  0  0  0  0
    3.3324   -1.7199    5.6860 C   0  0  0  0  0  0  0  0  0  0  0  0
    2.0010   -1.2879    5.8974 C   0  0  0  0  0  0  0  0  0  0  0  0
    1.1309   -0.7387    4.9330 C   0  0  0  0  0  0  0  0  0  0  0  0
   -0.1073   -0.3736    5.4538 C   0  0  0  0  0  0  0  0  0  0  0  0
   -1.2732    0.1138    4.6483 C   0  0  0  0  0  0  0  0  0  0  0  0
   -1.9985    1.2626    5.3454 C   0  0  0  0  0  0  0  0  0  0  0  0
   -0.1548   -0.7833    7.0878 S   0  0  0  0  0  0  0  0  0  0  0  0
    1.4045   -1.4142    7.1578 C   0  0  0  0  0  0  0  0  0  0  0  0
    2.0485   -2.0287    8.2508 C   0  0  0  0  0  0  0  0  0  0  0  0
    3.3798   -2.4485    8.0463 C   0  0  0  0  0  0  0  0  0  0  0  0
    3.9981   -2.2687    6.8045 C   0  0  0  0  0  0  0  0  0  0  0  0
    5.5885   -2.8097    6.9130 S   0  0  0  0  0  0  0  0  0  0  0  0
    5.4820   -3.3499    8.5096 C   0  0  0  0  0  0  0  0  0  0  0  0
    6.6032   -3.9660    9.2977 C   0  0  0  0  0  0  0  0  0  0  0  0
    7.3789   -4.9909    8.4742 C   0  0  0  0  0  0  0  0  0  0  0  0
    4.2137   -3.0534    9.0036 C   0  0  0  0  0  0  0  0  0  0  0  0
    1.3962   -2.1437    9.5721 C   0  0  0  0  0  0  0  0  0  0  0  0
    0.2307   -2.7901    9.7602 C   0  0  0  0  0  0  0  0  0  0  0  0
   -0.5087   -3.5125    8.7204 C   0  0  0  0  0  0  0  0  0  0  0  0
   -0.0204   -4.0580    7.6946 O   0  0  0  0  0  0  0  0  0  0  0  0
   -1.9167   -3.4658    9.0500 C   0  0  0  0  0  0  0  0  0  0  0  0
   -2.9975   -3.7810    8.2300 C   0  0  0  0  0  0  0  0  0  0  0  0
   -4.2964   -3.4849    8.6791 C   0  0  0  0  0  0  0  0  0  0  0  0
   -5.4734   -3.7704    7.7922 C   0  0  0  0  0  0  0  0  0  0  0  0
   -4.4762   -2.8610    9.9319 C   0  0  0  0  0  0  0  0  0  0  0  0
   -3.3699   -2.5290   10.7322 C   0  0  0  0  0  0  0  0  0  0  0  0
   -2.0796   -2.8571   10.2838 C   0  0  0  0  0  0  0  0  0  0  0  0
   -0.7453   -2.5332   10.8612 C   0  0  0  0  0  0  0  0  0  0  0  0
   -0.4606   -2.2379   12.1545 C   0  0  0  0  0  0  0  0  0  0  0  0
   -1.4871   -2.0701   13.1518 C   0  0  0  0  0  0  0  0  0  0  0  0
   -2.3090   -1.9237   13.9578 N   0  0  0  0  0  0  0  0  0  0  0  0
    0.8904   -2.1587   12.6464 C   0  0  0  0  0  0  0  0  0  0  0  0
    1.9724   -2.0971   13.0590 N   0  0  0  0  0  0  0  0  0  0  0  0
   -5.4230    3.4679   -6.8510 H   0  0  0  0  0  0  0  0  0  0  0  0
   -3.8069    1.3179   -1.2135 H   0  0  0  0  0  0  0  0  0  0  0  0
   -4.4161   -0.1004    0.7300 H   0  0  0  0  0  0  0  0  0  0  0  0
   -6.1019   -1.4069    1.9656 H   0  0  0  0  0  0  0  0  0  0  0  0
   -9.1230   -0.3016   -0.8751 H   0  0  0  0  0  0  0  0  0  0  0  0
   -8.5328    1.0990   -2.8010 H   0  0  0  0  0  0  0  0  0  0  0  0
   -4.3925    0.6581   -6.4450 H   0  0  0  0  0  0  0  0  0  0  0  0
   -2.4768   -2.1389   -5.3807 H   0  0  0  0  0  0  0  0  0  0  0  0
   -3.9168   -1.8210   -6.4035 H   0  0  0  0  0  0  0  0  0  0  0  0
   -1.0906   -2.5780   -7.3539 H   0  0  0  0  0  0  0  0  0  0  0  0
   -2.4367   -2.0754   -8.4715 H   0  0  0  0  0  0  0  0  0  0  0  0
   -2.5933   -3.5645   -7.4668 H   0  0  0  0  0  0  0  0  0  0  0  0
   -1.8339    8.7221   -5.8750 H   0  0  0  0  0  0  0  0  0  0  0  0
   -0.0827    8.3125   -5.9465 H   0  0  0  0  0  0  0  0  0  0  0  0
   -1.9263    7.9482   -3.4931 H   0  0  0  0  0  0  0  0  0  0  0  0
   -0.1704    7.5161   -3.5608 H   0  0  0  0  0  0  0  0  0  0  0  0
   -0.6850    9.2391   -3.7185 H   0  0  0  0  0  0  0  0  0  0  0  0
    0.5828    5.7300   -5.9276 H   0  0  0  0  0  0  0  0  0  0  0  0
    0.9400    3.5772   -8.8395 H   0  0  0  0  0  0  0  0  0  0  0  0
    0.5621    2.8386  -11.1472 H   0  0  0  0  0  0  0  0  0  0  0  0
    1.0410    0.5049  -11.8120 H   0  0  0  0  0  0  0  0  0  0  0  0
    2.4679   -1.5519  -11.2312 H   0  0  0  0  0  0  0  0  0  0  0  0
    2.6327   -2.0196   -9.5076 H   0  0  0  0  0  0  0  0  0  0  0  0
    0.8757   -3.3727  -10.5860 H   0  0  0  0  0  0  0  0  0  0  0  0
    0.1359   -2.2921   -9.3499 H   0  0  0  0  0  0  0  0  0  0  0  0
   -0.0112   -1.8837  -11.1057 H   0  0  0  0  0  0  0  0  0  0  0  0
    2.2199   -0.4035   -7.7759 H   0  0  0  0  0  0  0  0  0  0  0  0
    6.8959   -4.1941    3.4573 H   0  0  0  0  0  0  0  0  0  0  0  0
    7.0508   -6.5442    4.1590 H   0  0  0  0  0  0  0  0  0  0  0  0
    5.1169   -7.6685    5.1999 H   0  0  0  0  0  0  0  0  0  0  0  0
    1.6841   -6.2241    5.3460 H   0  0  0  0  0  0  0  0  0  0  0  0
    2.6621   -7.7124    5.5623 H   0  0  0  0  0  0  0  0  0  0  0  0
    1.9148   -6.8327    7.7575 H   0  0  0  0  0  0  0  0  0  0  0  0
    3.7132   -6.7164    7.6315 H   0  0  0  0  0  0  0  0  0  0  0  0
    2.6825   -5.2382    7.4210 H   0  0  0  0  0  0  0  0  0  0  0  0
    2.7589   -4.1147    4.6780 H   0  0  0  0  0  0  0  0  0  0  0  0
    4.6171    3.2435   -0.8608 H   0  0  0  0  0  0  0  0  0  0  0  0
    3.2907    3.8561   -1.9204 H   0  0  0  0  0  0  0  0  0  0  0  0
    5.3721    5.2611   -1.9713 H   0  0  0  0  0  0  0  0  0  0  0  0
    5.0096    4.5642   -3.5955 H   0  0  0  0  0  0  0  0  0  0  0  0
    6.3142    3.8349   -2.5608 H   0  0  0  0  0  0  0  0  0  0  0  0
    3.0134    1.9166   -0.3211 H   0  0  0  0  0  0  0  0  0  0  0  0
    3.2507    1.6484    1.4075 H   0  0  0  0  0  0  0  0  0  0  0  0
    1.2877    0.4231    0.4035 H   0  0  0  0  0  0  0  0  0  0  0  0
    2.4714   -0.7371    1.0867 H   0  0  0  0  0  0  0  0  0  0  0  0
    2.4064   -0.4693   -0.6991 H   0  0  0  0  0  0  0  0  0  0  0  0
    1.3629   -0.6393    3.8846 H   0  0  0  0  0  0  0  0  0  0  0  0
   -0.9259    0.4673    3.6513 H   0  0  0  0  0  0  0  0  0  0  0  0
   -1.9796   -0.7277    4.4946 H   0  0  0  0  0  0  0  0  0  0  0  0
   -1.2911    2.0937    5.5535 H   0  0  0  0  0  0  0  0  0  0  0  0
   -2.4567    0.9150    6.2949 H   0  0  0  0  0  0  0  0  0  0  0  0
   -2.8095    1.6427    4.6887 H   0  0  0  0  0  0  0  0  0  0  0  0
    6.1923   -4.4739   10.1964 H   0  0  0  0  0  0  0  0  0  0  0  0
    7.2935   -3.1669    9.6370 H   0  0  0  0  0  0  0  0  0  0  0  0
    8.1423   -5.4789    9.1123 H   0  0  0  0  0  0  0  0  0  0  0  0
    7.9018   -4.4877    7.6287 H   0  0  0  0  0  0  0  0  0  0  0  0
    6.6943   -5.7712    8.0706 H   0  0  0  0  0  0  0  0  0  0  0  0
    3.9033   -3.2696   10.0193 H   0  0  0  0  0  0  0  0  0  0  0  0
    1.8194   -1.5387   10.3607 H   0  0  0  0  0  0  0  0  0  0  0  0
   -2.8332   -4.2193    7.2510 H   0  0  0  0  0  0  0  0  0  0  0  0
   -6.4302   -3.5491    8.3055 H   0  0  0  0  0  0  0  0  0  0  0  0
   -5.4050   -3.1417    6.8801 H   0  0  0  0  0  0  0  0  0  0  0  0
   -5.4701   -4.8422    7.4978 H   0  0  0  0  0  0  0  0  0  0  0  0
   -5.4685   -2.5886   10.2724 H   0  0  0  0  0  0  0  0  0  0  0  0
   -3.5380   -1.9840   11.6456 H   0  0  0  0  0  0  0  0  0  0  0  0
  1  2  2  3
  2  3  1  0
  3  4  2  0
  3  5  1  0
  5  6  2  0
  6  7  1  0
  7  8  2  0
  8  9  1  0
  9 10  2  0
 10 11  1  0
 10 12  1  0
 12 13  2  0
 13 14  1  0
 14 15  2  0
 15 16  1  0
 16 17  2  3
 17 18  1  0
 18 19  3  0
 17 20  1  0
 20 21  3  0
  1 22  1  0
 22 23  2  0
 23 24  1  0
 24 25  2  0
 25 26  1  0
 26 27  1  0
 25 28  1  0
 28 29  1  0
 29 30  2  0
 30 31  1  0
 31 32  2  0
 32 33  1  0
 33 34  1  0
 34 35  1  0
 35 36  1  0
 34 37  2  0
 30 38  1  0
 38 39  2  0
 39 40  1  0
 40 41  2  0
 41 42  1  0
 42 43  2  0
 43 44  1  0
 44 45  1  0
 45 46  1  0
 44 47  2  0
 39 48  1  0
 48 49  1  0
 49 50  1  0
 50 51  1  0
 51 52  1  0
 52 53  1  0
 53 54  2  0
 54 55  1  0
 55 56  1  0
 53 57  1  0
 57 58  1  0
 58 59  1  0
 59 60  1  0
 60 61  1  0
 61 62  1  0
 62 63  2  0
 63 64  1  0
 64 65  2  0
 65 66  1  0
 66 67  1  0
 67 68  1  0
 66 69  2  0
 61 70  2  0
 70 71  1  0
 71 72  1  0
 72 73  1  0
 73 74  1  0
 74 75  1  0
 75 76  1  0
 76 77  1  0
 77 78  1  0
 78 79  1  0
 79 80  1  0
 77 81  1  0
 81 82  1  0
 74 83  1  0
 83 84  1  0
 70 85  1  0
 85 86  2  0
 86 87  1  0
 87 88  2  0
 88 89  1  0
 89 90  1  0
 88 91  1  0
 91 92  1  0
 92 93  2  0
 93 94  1  0
 94 95  2  0
 95 96  1  0
 96 97  1  0
 97 98  1  0
 98 99  1  0
 97100  2  0
 93101  1  0
101102  2  3
102103  1  0
103104  2  0
103105  1  0
105106  2  0
106107  1  0
107108  1  0
107109  2  0
109110  1  0
110111  2  0
111112  1  0
112113  2  3
113114  1  0
114115  3  0
113116  1  0
116117  3  0
 16  2  1  0
 32 22  1  0
 80 38  1  0
 95 85  1  0
112102  1  0
 15  5  1  0
 29 23  1  0
 37 31  1  0
 47 40  1  0
 79 48  2  0
 92 86  1  0
100 94  1  0
111105  1  0
 13  7  1  0
 78 50  2  0
 76 51  2  0
 56 52  2  0
 75 57  2  0
 73 58  2  0
 72 60  2  0
 69 62  1  0
  1118  1  0
  6119  1  0
  8120  1  0
  9121  1  0
 12122  1  0
 14123  1  0
 24124  1  0
 26125  1  0
 26126  1  0
 27127  1  0
 27128  1  0
 27129  1  0
 35130  1  0
 35131  1  0
 36132  1  0
 36133  1  0
 36134  1  0
 37135  1  0
 41136  1  0
 42137  1  0
 43138  1  0
 45139  1  0
 45140  1  0
 46141  1  0
 46142  1  0
 46143  1  0
 47144  1  0
 63145  1  0
 64146  1  0
 65147  1  0
 67148  1  0
 67149  1  0
 68150  1  0
 68151  1  0
 68152  1  0
 69153  1  0
 81154  1  0
 81155  1  0
 82156  1  0
 82157  1  0
 82158  1  0
 83159  1  0
 83160  1  0
 84161  1  0
 84162  1  0
 84163  1  0
 87164  1  0
 89165  1  0
 89166  1  0
 90167  1  0
 90168  1  0
 90169  1  0
 98170  1  0
 98171  1  0
 99172  1  0
 99173  1  0
 99174  1  0
100175  1  0
101176  1  0
106177  1  0
108178  1  0
108179  1  0
108180  1  0
109181  1  0
110182  1  0
M  END

