
     RDKit          3D

173192  0  0  0  0  0  0  0  0999 V2000
    4.3963    6.3375   -0.9797 C   0  0  0  0  0  0  0  0  0  0  0  0
    3.5649    6.6298    0.0452 C   0  0  0  0  0  0  0  0  0  0  0  0
    4.0320    7.2866    1.2659 C   0  0  0  0  0  0  0  0  0  0  0  0
    5.1254    7.9002    1.4046 O   0  0  0  0  0  0  0  0  0  0  0  0
    3.0550    7.0718    2.3107 C   0  0  0  0  0  0  0  0  0  0  0  0
    3.0765    7.5649    3.6157 C   0  0  0  0  0  0  0  0  0  0  0  0
    1.9678    7.3214    4.4448 C   0  0  0  0  0  0  0  0  0  0  0  0
    1.9286    7.8338    5.7506 C   0  0  0  0  0  0  0  0  0  0  0  0
    0.8052    7.6204    6.5562 C   0  0  0  0  0  0  0  0  0  0  0  0
   -0.2798    6.8860    6.0715 C   0  0  0  0  0  0  0  0  0  0  0  0
   -1.3690    6.6913    6.8572 F   0  0  0  0  0  0  0  0  0  0  0  0
   -0.2513    6.3592    4.7751 C   0  0  0  0  0  0  0  0  0  0  0  0
    0.8637    6.5734    3.9497 C   0  0  0  0  0  0  0  0  0  0  0  0
    0.8790    6.0785    2.6282 C   0  0  0  0  0  0  0  0  0  0  0  0
    1.9927    6.3363    1.8094 C   0  0  0  0  0  0  0  0  0  0  0  0
    2.2005    6.0939    0.3504 C   0  0  0  0  0  0  0  0  0  0  0  0
    1.2267    5.7945   -0.5425 C   0  0  0  0  0  0  0  0  0  0  0  0
    1.2076    6.3706   -1.8595 C   0  0  0  0  0  0  0  0  0  0  0  0
    1.1590    6.8450   -2.9127 N   0  0  0  0  0  0  0  0  0  0  0  0
    0.0597    5.0276   -0.1888 C   0  0  0  0  0  0  0  0  0  0  0  0
   -0.8787    4.4005    0.0777 N   0  0  0  0  0  0  0  0  0  0  0  0
    4.0984    5.3706   -2.0529 C   0  0  0  0  0  0  0  0  0  0  0  0
    3.9009    4.0240   -1.7095 C   0  0  0  0  0  0  0  0  0  0  0  0
    4.1270    3.5977   -0.4415 F   0  0  0  0  0  0  0  0  0  0  0  0
    3.3802    3.1306   -2.6408 C   0  0  0  0  0  0  0  0  0  0  0  0
    3.0920    1.8622   -2.2537 F   0  0  0  0  0  0  0  0  0  0  0  0
    3.0414    3.5705   -3.9258 C   0  0  0  0  0  0  0  0  0  0  0  0
    3.3277    4.8903   -4.3239 C   0  0  0  0  0  0  0  0  0  0  0  0
    2.9111    5.2982   -5.6065 O   0  0  0  0  0  0  0  0  0  0  0  0
    3.6905    6.0414   -6.5450 C   0  0  0  0  0  0  0  0  0  0  0  0
    4.7268    5.1509   -7.2133 C   0  0  0  0  0  0  0  0  0  0  0  0
    3.9010    5.7933   -3.3908 C   0  0  0  0  0  0  0  0  0  0  0  0
    4.0997    7.1324   -3.7610 O   0  0  0  0  0  0  0  0  0  0  0  0
    5.3640    7.7943   -3.7030 C   0  0  0  0  0  0  0  0  0  0  0  0
    5.2767    9.1354   -4.4166 C   0  0  0  0  0  0  0  0  0  0  0  0
    2.1426    2.7363   -4.7386 C   0  0  0  0  0  0  0  0  0  0  0  0
    2.4789    1.5860   -5.4759 C   0  0  0  0  0  0  0  0  0  0  0  0
    3.8250    1.0009   -5.5487 C   0  0  0  0  0  0  0  0  0  0  0  0
    4.7587    1.4859   -6.4715 C   0  0  0  0  0  0  0  0  0  0  0  0
    6.0310    0.9155   -6.5489 C   0  0  0  0  0  0  0  0  0  0  0  0
    6.3746   -0.1516   -5.7156 C   0  0  0  0  0  0  0  0  0  0  0  0
    5.4447   -0.6503   -4.7884 C   0  0  0  0  0  0  0  0  0  0  0  0
    5.7932   -1.8344   -3.9279 C   0  0  0  0  0  0  0  0  0  0  0  0
    5.4200   -3.1369   -4.6280 C   0  0  0  0  0  0  0  0  0  0  0  0
    4.1658   -0.0752   -4.7175 C   0  0  0  0  0  0  0  0  0  0  0  0
    1.3270    0.9209   -5.9088 C   0  0  0  0  0  0  0  0  0  0  0  0
    1.0792   -0.5983   -6.6221 S   0  0  0  0  0  0  0  0  0  0  0  0
   -0.6032   -0.4855   -6.3984 C   0  0  0  0  0  0  0  0  0  0  0  0
   -1.5551   -1.4308   -6.1450 C   0  0  0  0  0  0  0  0  0  0  0  0
   -1.4600   -2.8247   -6.2602 C   0  0  0  0  0  0  0  0  0  0  0  0
   -2.3931   -3.6408   -5.5599 C   0  0  0  0  0  0  0  0  0  0  0  0
   -2.2319   -4.9841   -5.6502 N   0  0  0  0  0  0  0  0  0  0  0  0
   -0.8917   -5.0378   -6.6235 S   0  0  0  0  0  0  0  0  0  0  0  0
   -0.4821   -3.4661   -6.9471 N   0  0  0  0  0  0  0  0  0  0  0  0
   -3.4054   -3.0201   -4.8304 C   0  0  0  0  0  0  0  0  0  0  0  0
   -4.3610   -3.5324   -3.9974 C   0  0  0  0  0  0  0  0  0  0  0  0
   -4.4725   -4.9125   -3.0210 S   0  0  0  0  0  0  0  0  0  0  0  0
   -5.5008   -4.1028   -1.9253 C   0  0  0  0  0  0  0  0  0  0  0  0
   -5.7986   -4.3708   -0.5866 C   0  0  0  0  0  0  0  0  0  0  0  0
   -5.3334   -5.5918    0.0951 C   0  0  0  0  0  0  0  0  0  0  0  0
   -5.8576   -6.8419   -0.2624 C   0  0  0  0  0  0  0  0  0  0  0  0
   -5.3786   -8.0038    0.3482 C   0  0  0  0  0  0  0  0  0  0  0  0
   -4.3631   -7.9269    1.3048 C   0  0  0  0  0  0  0  0  0  0  0  0
   -3.8247   -6.6816    1.6673 C   0  0  0  0  0  0  0  0  0  0  0  0
   -2.7147   -6.5988    2.6796 C   0  0  0  0  0  0  0  0  0  0  0  0
   -1.3557   -6.7112    1.9974 C   0  0  0  0  0  0  0  0  0  0  0  0
   -4.3109   -5.5164    1.0547 C   0  0  0  0  0  0  0  0  0  0  0  0
   -6.2582   -3.2102    0.0697 C   0  0  0  0  0  0  0  0  0  0  0  0
   -6.2211   -1.8892   -1.0037 S   0  0  0  0  0  0  0  0  0  0  0  0
   -5.7008   -2.7971   -2.3079 C   0  0  0  0  0  0  0  0  0  0  0  0
   -5.0436   -2.4762   -3.4849 C   0  0  0  0  0  0  0  0  0  0  0  0
   -4.5976   -1.2880   -3.9564 N   0  0  0  0  0  0  0  0  0  0  0  0
   -3.5296   -1.6228   -4.7455 C   0  0  0  0  0  0  0  0  0  0  0  0
   -2.5223   -0.8041   -5.3366 C   0  0  0  0  0  0  0  0  0  0  0  0
   -2.1175    0.4731   -5.0081 N   0  0  0  0  0  0  0  0  0  0  0  0
   -0.9646    0.6420   -5.7170 C   0  0  0  0  0  0  0  0  0  0  0  0
    0.1427    1.4591   -5.4770 C   0  0  0  0  0  0  0  0  0  0  0  0
    0.4555    2.8231   -4.5604 S   0  0  0  0  0  0  0  0  0  0  0  0
   -2.3875    1.1851   -3.7489 C   0  0  0  0  0  0  0  0  0  0  0  0
   -2.9599    2.5844   -3.9954 C   0  0  0  0  0  0  0  0  0  0  0  0
   -5.3645   -0.0381   -3.9524 C   0  0  0  0  0  0  0  0  0  0  0  0
   -6.8159   -0.2605   -4.3756 C   0  0  0  0  0  0  0  0  0  0  0  0
   -6.4835   -3.0626    1.5141 C   0  0  0  0  0  0  0  0  0  0  0  0
   -5.8314   -1.7742    2.4280 S   0  0  0  0  0  0  0  0  0  0  0  0
   -6.3530   -2.4200    3.8779 C   0  0  0  0  0  0  0  0  0  0  0  0
   -5.8778   -2.4085    5.1590 C   0  0  0  0  0  0  0  0  0  0  0  0
   -6.2186   -3.6134    5.7032 C   0  0  0  0  0  0  0  0  0  0  0  0
   -6.9148   -4.3854    4.8305 N   0  0  0  0  0  0  0  0  0  0  0  0
   -7.2306   -5.8082    4.9602 C   0  0  0  0  0  0  0  0  0  0  0  0
   -6.0336   -6.6689    4.5805 C   0  0  0  0  0  0  0  0  0  0  0  0
   -6.9446   -3.6350    3.6979 C   0  0  0  0  0  0  0  0  0  0  0  0
   -7.0402   -4.0358    2.3636 C   0  0  0  0  0  0  0  0  0  0  0  0
   -5.4316   -4.0010    6.7888 C   0  0  0  0  0  0  0  0  0  0  0  0
   -4.4247   -3.0555    7.0272 C   0  0  0  0  0  0  0  0  0  0  0  0
   -4.5198   -1.7742    5.8994 S   0  0  0  0  0  0  0  0  0  0  0  0
   -3.3859   -3.1908    8.0566 C   0  0  0  0  0  0  0  0  0  0  0  0
   -2.0672   -3.2602    7.7853 C   0  0  0  0  0  0  0  0  0  0  0  0
   -1.4567   -3.2017    6.4499 C   0  0  0  0  0  0  0  0  0  0  0  0
   -2.0329   -3.4318    5.3529 O   0  0  0  0  0  0  0  0  0  0  0  0
   -0.0492   -2.9039    6.6047 C   0  0  0  0  0  0  0  0  0  0  0  0
    0.8848   -2.6336    5.6049 C   0  0  0  0  0  0  0  0  0  0  0  0
    2.1917   -2.2841    5.9801 C   0  0  0  0  0  0  0  0  0  0  0  0
    3.1637   -2.0045    5.0067 C   0  0  0  0  0  0  0  0  0  0  0  0
    4.4592   -1.6442    5.3905 C   0  0  0  0  0  0  0  0  0  0  0  0
    4.7931   -1.5481    6.7455 C   0  0  0  0  0  0  0  0  0  0  0  0
    6.0504   -1.1913    7.1087 F   0  0  0  0  0  0  0  0  0  0  0  0
    3.8347   -1.8209    7.7278 C   0  0  0  0  0  0  0  0  0  0  0  0
    2.5320   -2.1929    7.3602 C   0  0  0  0  0  0  0  0  0  0  0  0
    1.5630   -2.4702    8.3468 C   0  0  0  0  0  0  0  0  0  0  0  0
    0.2679   -2.8516    7.9517 C   0  0  0  0  0  0  0  0  0  0  0  0
   -0.9383   -3.1931    8.7655 C   0  0  0  0  0  0  0  0  0  0  0  0
   -0.9549   -3.5866   10.0662 C   0  0  0  0  0  0  0  0  0  0  0  0
   -2.1218   -4.1596   10.6847 C   0  0  0  0  0  0  0  0  0  0  0  0
   -3.0548   -4.6208   11.1884 N   0  0  0  0  0  0  0  0  0  0  0  0
    0.2204   -3.5733   10.8981 C   0  0  0  0  0  0  0  0  0  0  0  0
    1.1596   -3.5684   11.5794 N   0  0  0  0  0  0  0  0  0  0  0  0
    5.4116    6.7071   -0.9280 H   0  0  0  0  0  0  0  0  0  0  0  0
    3.9184    8.1509    3.9641 H   0  0  0  0  0  0  0  0  0  0  0  0
    2.7573    8.4115    6.1430 H   0  0  0  0  0  0  0  0  0  0  0  0
    0.7759    8.0281    7.5586 H   0  0  0  0  0  0  0  0  0  0  0  0
   -1.1075    5.8016    4.4130 H   0  0  0  0  0  0  0  0  0  0  0  0
    0.0257    5.5302    2.2695 H   0  0  0  0  0  0  0  0  0  0  0  0
    3.0117    6.4399   -7.3284 H   0  0  0  0  0  0  0  0  0  0  0  0
    4.1925    6.9043   -6.0841 H   0  0  0  0  0  0  0  0  0  0  0  0
    5.4024    5.7692   -7.8397 H   0  0  0  0  0  0  0  0  0  0  0  0
    5.3316    4.6197   -6.4486 H   0  0  0  0  0  0  0  0  0  0  0  0
    4.2145    4.4182   -7.8707 H   0  0  0  0  0  0  0  0  0  0  0  0
    5.6609    7.9926   -2.6582 H   0  0  0  0  0  0  0  0  0  0  0  0
    6.1405    7.1677   -4.1918 H   0  0  0  0  0  0  0  0  0  0  0  0
    5.0234    8.9946   -5.4868 H   0  0  0  0  0  0  0  0  0  0  0  0
    6.2537    9.6583   -4.3495 H   0  0  0  0  0  0  0  0  0  0  0  0
    4.4995    9.7671   -3.9385 H   0  0  0  0  0  0  0  0  0  0  0  0
    4.4911    2.2827   -7.1458 H   0  0  0  0  0  0  0  0  0  0  0  0
    6.7472    1.2905   -7.2715 H   0  0  0  0  0  0  0  0  0  0  0  0
    7.3588   -0.5945   -5.8003 H   0  0  0  0  0  0  0  0  0  0  0  0
    6.8826   -1.8380   -3.7060 H   0  0  0  0  0  0  0  0  0  0  0  0
    5.2558   -1.7724   -2.9565 H   0  0  0  0  0  0  0  0  0  0  0  0
    5.9782   -3.2340   -5.5844 H   0  0  0  0  0  0  0  0  0  0  0  0
    4.3282   -3.1651   -4.8360 H   0  0  0  0  0  0  0  0  0  0  0  0
    5.6812   -3.9973   -3.9778 H   0  0  0  0  0  0  0  0  0  0  0  0
    3.4371   -0.4645   -4.0167 H   0  0  0  0  0  0  0  0  0  0  0  0
   -6.6351   -6.9141   -1.0122 H   0  0  0  0  0  0  0  0  0  0  0  0
   -5.7905   -8.9653    0.0730 H   0  0  0  0  0  0  0  0  0  0  0  0
   -3.9954   -8.8378    1.7618 H   0  0  0  0  0  0  0  0  0  0  0  0
   -2.7680   -5.6358    3.2316 H   0  0  0  0  0  0  0  0  0  0  0  0
   -2.8194   -7.4130    3.4288 H   0  0  0  0  0  0  0  0  0  0  0  0
   -1.2140   -5.8750    1.2799 H   0  0  0  0  0  0  0  0  0  0  0  0
   -1.2756   -7.6766    1.4537 H   0  0  0  0  0  0  0  0  0  0  0  0
   -0.5503   -6.6647    2.7593 H   0  0  0  0  0  0  0  0  0  0  0  0
   -3.8862   -4.5549    1.3142 H   0  0  0  0  0  0  0  0  0  0  0  0
   -1.4506    1.2750   -3.1624 H   0  0  0  0  0  0  0  0  0  0  0  0
   -3.0523    0.6087   -3.0860 H   0  0  0  0  0  0  0  0  0  0  0  0
   -3.9056    2.5520   -4.5669 H   0  0  0  0  0  0  0  0  0  0  0  0
   -2.2524    3.2114   -4.5699 H   0  0  0  0  0  0  0  0  0  0  0  0
   -3.1533    3.0770   -3.0193 H   0  0  0  0  0  0  0  0  0  0  0  0
   -4.9315    0.6577   -4.6925 H   0  0  0  0  0  0  0  0  0  0  0  0
   -5.3454    0.4182   -2.9397 H   0  0  0  0  0  0  0  0  0  0  0  0
   -7.3517   -0.9022   -3.6443 H   0  0  0  0  0  0  0  0  0  0  0  0
   -6.8537   -0.7419   -5.3762 H   0  0  0  0  0  0  0  0  0  0  0  0
   -7.3408    0.7166   -4.4301 H   0  0  0  0  0  0  0  0  0  0  0  0
   -7.5297   -6.0304    6.0059 H   0  0  0  0  0  0  0  0  0  0  0  0
   -8.0914   -6.0630    4.3010 H   0  0  0  0  0  0  0  0  0  0  0  0
   -5.1855   -6.4765    5.2686 H   0  0  0  0  0  0  0  0  0  0  0  0
   -6.3116   -7.7405    4.6401 H   0  0  0  0  0  0  0  0  0  0  0  0
   -5.7290   -6.4395    3.5432 H   0  0  0  0  0  0  0  0  0  0  0  0
   -7.3778   -5.0103    2.0401 H   0  0  0  0  0  0  0  0  0  0  0  0
   -5.4960   -4.9621    7.2825 H   0  0  0  0  0  0  0  0  0  0  0  0
   -3.7420   -3.1587    9.0738 H   0  0  0  0  0  0  0  0  0  0  0  0
    0.5940   -2.6823    4.5623 H   0  0  0  0  0  0  0  0  0  0  0  0
    2.9238   -2.0650    3.9530 H   0  0  0  0  0  0  0  0  0  0  0  0
    5.2064   -1.4344    4.6351 H   0  0  0  0  0  0  0  0  0  0  0  0
    4.1110   -1.7419    8.7732 H   0  0  0  0  0  0  0  0  0  0  0  0
    1.8229   -2.3444    9.3835 H   0  0  0  0  0  0  0  0  0  0  0  0
  1  2  2  3
  2  3  1  0
  3  4  2  0
  3  5  1  0
  5  6  2  0
  6  7  1  0
  7  8  2  0
  8  9  1  0
  9 10  2  0
 10 11  1  0
 10 12  1  0
 12 13  2  0
 13 14  1  0
 14 15  2  0
 15 16  1  0
 16 17  2  3
 17 18  1  0
 18 19  3  0
 17 20  1  0
 20 21  3  0
  1 22  1  0
 22 23  2  0
 23 24  1  0
 23 25  1  0
 25 26  1  0
 25 27  2  0
 27 28  1  0
 28 29  1  0
 29 30  1  0
 30 31  1  0
 28 32  2  0
 32 33  1  0
 33 34  1  0
 34 35  1  0
 27 36  1  0
 36 37  2  0
 37 38  1  0
 38 39  2  0
 39 40  1  0
 40 41  2  0
 41 42  1  0
 42 43  1  0
 43 44  1  0
 42 45  2  0
 37 46  1  0
 46 47  1  0
 47 48  1  0
 48 49  1  0
 49 50  1  0
 50 51  1  0
 51 52  2  0
 52 53  1  0
 53 54  1  0
 51 55  1  0
 55 56  1  0
 56 57  1  0
 57 58  1  0
 58 59  1  0
 59 60  1  0
 60 61  2  0
 61 62  1  0
 62 63  2  0
 63 64  1  0
 64 65  1  0
 65 66  1  0
 64 67  2  0
 59 68  2  0
 68 69  1  0
 69 70  1  0
 70 71  1  0
 71 72  1  0
 72 73  1  0
 73 74  1  0
 74 75  1  0
 75 76  1  0
 76 77  1  0
 77 78  1  0
 75 79  1  0
 79 80  1  0
 72 81  1  0
 81 82  1  0
 68 83  1  0
 83 84  1  0
 84 85  1  0
 85 86  1  0
 86 87  2  0
 87 88  1  0
 88 89  1  0
 89 90  1  0
 88 91  1  0
 91 92  1  0
 87 93  1  0
 93 94  2  0
 94 95  1  0
 94 96  1  0
 96 97  2  3
 97 98  1  0
 98 99  2  0
 98100  1  0
100101  2  0
101102  1  0
102103  2  0
103104  1  0
104105  2  0
105106  1  0
105107  1  0
107108  2  0
108109  1  0
109110  2  0
110111  1  0
111112  2  3
112113  1  0
113114  3  0
112115  1  0
115116  3  0
 16  2  1  0
 32 22  1  0
 78 36  1  0
 92 83  2  0
111 97  1  0
 15  5  1  0
 45 38  1  0
 77 46  2  0
 91 85  2  0
110100  1  0
 13  7  1  0
 76 48  2  0
 95 86  1  0
108102  1  0
 74 49  2  0
 54 50  2  0
 73 55  2  0
 71 56  2  0
 70 58  2  0
 67 60  1  0
  1117  1  0
  6118  1  0
  8119  1  0
  9120  1  0
 12121  1  0
 14122  1  0
 30123  1  0
 30124  1  0
 31125  1  0
 31126  1  0
 31127  1  0
 34128  1  0
 34129  1  0
 35130  1  0
 35131  1  0
 35132  1  0
 39133  1  0
 40134  1  0
 41135  1  0
 43136  1  0
 43137  1  0
 44138  1  0
 44139  1  0
 44140  1  0
 45141  1  0
 61142  1  0
 62143  1  0
 63144  1  0
 65145  1  0
 65146  1  0
 66147  1  0
 66148  1  0
 66149  1  0
 67150  1  0
 79151  1  0
 79152  1  0
 80153  1  0
 80154  1  0
 80155  1  0
 81156  1  0
 81157  1  0
 82158  1  0
 82159  1  0
 82160  1  0
 89161  1  0
 89162  1  0
 90163  1  0
 90164  1  0
 90165  1  0
 92166  1  0
 93167  1  0
 96168  1  0
101169  1  0
103170  1  0
104171  1  0
107172  1  0
109173  1  0
M  END

