
     RDKit          3D

210233  0  0  0  0  0  0  0  0999 V2000
    9.6171   -3.4026   -4.0393 C   0  0  0  0  0  0  0  0  0  0  0  0
   10.3252   -4.5374   -3.5564 C   0  0  0  0  0  0  0  0  0  0  0  0
   11.3991   -5.0983   -4.2230 C   0  0  0  0  0  0  0  0  0  0  0  0
   11.8721   -4.8727   -5.3791 O   0  0  0  0  0  0  0  0  0  0  0  0
   11.9414   -6.0867   -3.2712 C   0  0  0  0  0  0  0  0  0  0  0  0
   12.8582   -7.1070   -3.5642 C   0  0  0  0  0  0  0  0  0  0  0  0
   13.0400   -8.1339   -2.6801 C   0  0  0  0  0  0  0  0  0  0  0  0
   13.8973   -9.1749   -3.0081 C   0  0  0  0  0  0  0  0  0  0  0  0
   14.0229  -10.2248   -2.1375 C   0  0  0  0  0  0  0  0  0  0  0  0
   13.3167  -10.2440   -0.9731 C   0  0  0  0  0  0  0  0  0  0  0  0
   13.4416  -11.2607   -0.1201 F   0  0  0  0  0  0  0  0  0  0  0  0
   12.4589   -9.1975   -0.6508 C   0  0  0  0  0  0  0  0  0  0  0  0
   12.3251   -8.1326   -1.5248 C   0  0  0  0  0  0  0  0  0  0  0  0
   11.4041   -7.0706   -1.2606 C   0  0  0  0  0  0  0  0  0  0  0  0
   11.2417   -6.0842   -2.1445 C   0  0  0  0  0  0  0  0  0  0  0  0
    9.9917   -4.9349   -2.2613 C   0  0  0  0  0  0  0  0  0  0  0  0
    9.2317   -5.3951   -1.3357 C   0  0  0  0  0  0  0  0  0  0  0  0
    9.7414   -5.4454    0.0386 C   0  0  0  0  0  0  0  0  0  0  0  0
   10.1551   -5.4912    1.2169 N   0  0  0  0  0  0  0  0  0  0  0  0
    7.8706   -5.9809   -1.4002 C   0  0  0  0  0  0  0  0  0  0  0  0
    6.9568   -6.3708   -1.4288 N   0  0  0  0  0  0  0  0  0  0  0  0
    8.4788   -2.9729   -3.2455 C   0  0  0  0  0  0  0  0  0  0  0  0
    7.3051   -3.6908   -3.6989 C   0  0  0  0  0  0  0  0  0  0  0  0
    7.5231   -4.4085   -4.8161 N   0  0  0  0  0  0  0  0  0  0  0  0
    6.4723   -5.1282   -5.3748 C   0  0  0  0  0  0  0  0  0  0  0  0
    6.7577   -5.4404   -6.8017 C   0  0  0  0  0  0  0  0  0  0  0  0
    7.4758   -6.4506   -7.2836 C   0  0  0  0  0  0  0  0  0  0  0  0
    7.8241   -6.4433   -8.6637 C   0  0  0  0  0  0  0  0  0  0  0  0
    7.4728   -5.4741   -9.5468 C   0  0  0  0  0  0  0  0  0  0  0  0
    7.7341   -5.3373  -10.8595 O   0  0  0  0  0  0  0  0  0  0  0  0
    8.5562   -4.7603  -11.7588 C   0  0  0  0  0  0  0  0  0  0  0  0
    8.6154   -3.2588  -11.8694 C   0  0  0  0  0  0  0  0  0  0  0  0
    6.6991   -4.4128   -8.9886 C   0  0  0  0  0  0  0  0  0  0  0  0
    6.3673   -4.4102   -7.6917 C   0  0  0  0  0  0  0  0  0  0  0  0
    5.6227   -3.3965   -7.1392 F   0  0  0  0  0  0  0  0  0  0  0  0
    6.2838   -3.3942   -9.7883 F   0  0  0  0  0  0  0  0  0  0  0  0
    8.5591   -7.4896   -9.1479 F   0  0  0  0  0  0  0  0  0  0  0  0
    7.8966   -7.5014   -6.5113 F   0  0  0  0  0  0  0  0  0  0  0  0
    5.2901   -5.1043   -4.7713 C   0  0  0  0  0  0  0  0  0  0  0  0
    4.1875   -6.0409   -5.0133 C   0  0  0  0  0  0  0  0  0  0  0  0
    3.7915   -6.5263   -6.2035 C   0  0  0  0  0  0  0  0  0  0  0  0
    4.3423   -6.1973   -7.3904 F   0  0  0  0  0  0  0  0  0  0  0  0
    2.7055   -7.4255   -6.2328 C   0  0  0  0  0  0  0  0  0  0  0  0
    2.3377   -7.9244   -7.4424 F   0  0  0  0  0  0  0  0  0  0  0  0
    2.0499   -7.8106   -5.1056 C   0  0  0  0  0  0  0  0  0  0  0  0
    0.9705   -8.7167   -5.2088 O   0  0  0  0  0  0  0  0  0  0  0  0
   -0.3170   -8.1708   -5.5156 C   0  0  0  0  0  0  0  0  0  0  0  0
   -1.3672   -9.2337   -5.6127 C   0  0  0  0  0  0  0  0  0  0  0  0
    2.4657   -7.3078   -3.8975 C   0  0  0  0  0  0  0  0  0  0  0  0
    1.8678   -7.6328   -2.7273 F   0  0  0  0  0  0  0  0  0  0  0  0
    3.5151   -6.4378   -3.8366 C   0  0  0  0  0  0  0  0  0  0  0  0
    3.9202   -5.9350   -2.6067 F   0  0  0  0  0  0  0  0  0  0  0  0
    5.1066   -4.3426   -3.6240 N   0  0  0  0  0  0  0  0  0  0  0  0
    6.1028   -3.6360   -3.0941 C   0  0  0  0  0  0  0  0  0  0  0  0
    5.9640   -2.8121   -1.9821 C   0  0  0  0  0  0  0  0  0  0  0  0
    7.0435   -2.1121   -1.5275 C   0  0  0  0  0  0  0  0  0  0  0  0
    8.3085   -2.2158   -2.1851 C   0  0  0  0  0  0  0  0  0  0  0  0
    9.3632   -1.5024   -1.6709 F   0  0  0  0  0  0  0  0  0  0  0  0
    6.9496   -1.3152   -0.4380 F   0  0  0  0  0  0  0  0  0  0  0  0
    4.5887   -2.6928   -1.4448 C   0  0  0  0  0  0  0  0  0  0  0  0
    3.4706   -2.6768   -2.2629 C   0  0  0  0  0  0  0  0  0  0  0  0
    3.4817   -2.3960   -3.7318 C   0  0  0  0  0  0  0  0  0  0  0  0
    2.6439   -2.9848   -4.6471 C   0  0  0  0  0  0  0  0  0  0  0  0
    2.5991   -2.5616   -5.9518 C   0  0  0  0  0  0  0  0  0  0  0  0
    3.3968   -1.5268   -6.4012 C   0  0  0  0  0  0  0  0  0  0  0  0
    4.2655   -0.9062   -5.5113 C   0  0  0  0  0  0  0  0  0  0  0  0
    5.1310    0.1891   -6.0472 C   0  0  0  0  0  0  0  0  0  0  0  0
    4.3456    1.4771   -5.9495 C   0  0  0  0  0  0  0  0  0  0  0  0
    4.2758   -1.3515   -4.2403 C   0  0  0  0  0  0  0  0  0  0  0  0
    2.2618   -2.6035   -1.6030 C   0  0  0  0  0  0  0  0  0  0  0  0
    0.5625   -2.6590   -2.0950 S   0  0  0  0  0  0  0  0  0  0  0  0
   -0.1102   -2.5356   -0.5340 C   0  0  0  0  0  0  0  0  0  0  0  0
   -1.3213   -2.2568    0.0903 C   0  0  0  0  0  0  0  0  0  0  0  0
   -2.5980   -2.1851   -0.4194 C   0  0  0  0  0  0  0  0  0  0  0  0
   -3.5879   -1.7635    0.3967 C   0  0  0  0  0  0  0  0  0  0  0  0
   -4.8248   -1.7432   -0.1339 N   0  0  0  0  0  0  0  0  0  0  0  0
   -4.6315   -2.2880   -1.6911 S   0  0  0  0  0  0  0  0  0  0  0  0
   -2.9772   -2.5379   -1.6696 N   0  0  0  0  0  0  0  0  0  0  0  0
   -3.2058   -1.4031    1.6966 C   0  0  0  0  0  0  0  0  0  0  0  0
   -3.8841   -0.5127    2.5270 C   0  0  0  0  0  0  0  0  0  0  0  0
   -5.2919    0.4393    2.5793 S   0  0  0  0  0  0  0  0  0  0  0  0
   -4.7780    1.4717    3.8977 C   0  0  0  0  0  0  0  0  0  0  0  0
   -5.2872    2.6600    4.4169 C   0  0  0  0  0  0  0  0  0  0  0  0
   -6.6074    3.1528    3.9886 C   0  0  0  0  0  0  0  0  0  0  0  0
   -6.6648    3.8288    2.7616 C   0  0  0  0  0  0  0  0  0  0  0  0
   -7.8455    4.2237    2.2056 C   0  0  0  0  0  0  0  0  0  0  0  0
   -9.0175    3.9400    2.8878 C   0  0  0  0  0  0  0  0  0  0  0  0
   -9.0064    3.2801    4.0976 C   0  0  0  0  0  0  0  0  0  0  0  0
  -10.2846    2.9507    4.7714 C   0  0  0  0  0  0  0  0  0  0  0  0
  -10.8120    1.6088    4.2206 C   0  0  0  0  0  0  0  0  0  0  0  0
   -7.7846    2.8987    4.6242 C   0  0  0  0  0  0  0  0  0  0  0  0
   -4.4168    3.3047    5.2909 C   0  0  0  0  0  0  0  0  0  0  0  0
   -3.1276    2.3055    5.3349 S   0  0  0  0  0  0  0  0  0  0  0  0
   -3.6080    1.0209    4.2161 C   0  0  0  0  0  0  0  0  0  0  0  0
   -3.0863   -0.0514    3.5044 C   0  0  0  0  0  0  0  0  0  0  0  0
   -1.8503   -0.6922    3.3296 N   0  0  0  0  0  0  0  0  0  0  0  0
   -1.9566   -1.4831    2.2249 C   0  0  0  0  0  0  0  0  0  0  0  0
   -0.9061   -1.9681    1.4009 C   0  0  0  0  0  0  0  0  0  0  0  0
    0.3958   -2.0986    1.5407 N   0  0  0  0  0  0  0  0  0  0  0  0
    0.9316   -2.4598    0.2959 C   0  0  0  0  0  0  0  0  0  0  0  0
    2.1976   -2.5104   -0.3020 C   0  0  0  0  0  0  0  0  0  0  0  0
    3.9098   -2.5717    0.0994 S   0  0  0  0  0  0  0  0  0  0  0  0
    1.2515   -2.0737    2.6798 C   0  0  0  0  0  0  0  0  0  0  0  0
    2.1337   -0.9755    3.0177 C   0  0  0  0  0  0  0  0  0  0  0  0
   -0.8545   -0.5687    4.3277 C   0  0  0  0  0  0  0  0  0  0  0  0
   -0.0896    0.6875    4.4902 C   0  0  0  0  0  0  0  0  0  0  0  0
   -4.8507    4.6879    5.6982 C   0  0  0  0  0  0  0  0  0  0  0  0
   -4.7962    5.7314    4.7431 C   0  0  0  0  0  0  0  0  0  0  0  0
   -5.3926    6.8927    5.0583 C   0  0  0  0  0  0  0  0  0  0  0  0
   -5.6485    7.9698    4.1896 C   0  0  0  0  0  0  0  0  0  0  0  0
   -5.0353    8.0912    2.8732 C   0  0  0  0  0  0  0  0  0  0  0  0
   -4.0245    7.5285    2.2173 C   0  0  0  0  0  0  0  0  0  0  0  0
   -3.8033    7.6961    0.9111 C   0  0  0  0  0  0  0  0  0  0  0  0
   -4.5623    8.4456    0.1148 C   0  0  0  0  0  0  0  0  0  0  0  0
   -4.6542    8.7764   -1.3074 C   0  0  0  0  0  0  0  0  0  0  0  0
   -3.6509    8.0192   -2.1155 C   0  0  0  0  0  0  0  0  0  0  0  0
   -5.8716    9.0719    1.4421 Se  0  0  0  0  0  2  0  0  0  0  0  0
   -6.5024    8.9845    4.5957 C   0  0  0  0  0  0  0  0  0  0  0  0
   -7.1514    9.0492    5.8009 C   0  0  0  0  0  0  0  0  0  0  0  0
   -6.8537    7.9961    6.6756 C   0  0  0  0  0  0  0  0  0  0  0  0
   -7.1968    7.9865    8.1007 C   0  0  0  0  0  0  0  0  0  0  0  0
   -7.7191    8.9050    8.9332 C   0  0  0  0  0  0  0  0  0  0  0  0
   -7.9489    8.6751   10.2272 C   0  0  0  0  0  0  0  0  0  0  0  0
   -7.6825    7.5198   10.8309 C   0  0  0  0  0  0  0  0  0  0  0  0
   -7.8096    6.9121   12.1509 C   0  0  0  0  0  0  0  0  0  0  0  0
   -7.0057    5.6146   12.2424 C   0  0  0  0  0  0  0  0  0  0  0  0
   -6.9630    6.5312    9.2607 Se  0  0  0  0  0  2  0  0  0  0  0  0
   -5.9988    6.9577    6.2824 C   0  0  0  0  0  0  0  0  0  0  0  0
   -5.6934    5.3840    6.9507 S   0  0  0  0  0  0  0  0  0  0  0  0
   -8.1135    9.9796    5.9106 C   0  0  0  0  0  0  0  0  0  0  0  0
   -8.3549   10.7986    4.7531 C   0  0  0  0  0  0  0  0  0  0  0  0
   -7.2541   10.2247    3.7076 S   0  0  0  0  0  0  0  0  0  0  0  0
   -9.6456   11.6816    4.8043 C   0  0  0  0  0  0  0  0  0  0  0  0
  -10.6945   11.0426    4.8597 C   0  0  0  0  0  0  0  0  0  0  0  0
  -12.1015   10.6357    4.9580 C   0  0  0  0  0  0  0  0  0  0  0  0
  -12.8780   11.3890    5.6838 O   0  0  0  0  0  0  0  0  0  0  0  0
  -12.5322    9.4770    4.2772 C   0  0  0  0  0  0  0  0  0  0  0  0
  -13.8619    8.3557    3.9963 S   0  0  0  0  0  0  0  0  0  0  0  0
  -13.0352    7.2300    3.0330 C   0  0  0  0  0  0  0  0  0  0  0  0
  -13.6209    5.5437    2.2972 Br  0  0  0  0  0  0  0  0  0  0  0  0
  -11.7590    7.7439    2.9399 C   0  0  0  0  0  0  0  0  0  0  0  0
  -11.5579    8.9171    3.6018 C   0  0  0  0  0  0  0  0  0  0  0  0
  -10.3601    9.7912    3.8332 C   0  0  0  0  0  0  0  0  0  0  0  0
   -9.7105   10.0524    2.6535 C   0  0  0  0  0  0  0  0  0  0  0  0
   -9.3635   11.6276    2.2812 C   0  0  0  0  0  0  0  0  0  0  0  0
   -9.2544   12.1055    2.1598 N   0  0  0  0  0  0  0  0  0  0  0  0
   -9.3641    9.2157    1.7155 C   0  0  0  0  0  0  0  0  0  0  0  0
   -9.0315    8.4179    0.7917 N   0  0  0  0  0  0  0  0  0  0  0  0
    9.9530   -2.9596   -4.9122 H   0  0  0  0  0  0  0  0  0  0  0  0
   13.4134   -7.1122   -4.4710 H   0  0  0  0  0  0  0  0  0  0  0  0
   14.4224   -9.1360   -3.9389 H   0  0  0  0  0  0  0  0  0  0  0  0
   14.7071  -11.0686   -2.3887 H   0  0  0  0  0  0  0  0  0  0  0  0
   11.8843   -9.2025    0.2570 H   0  0  0  0  0  0  0  0  0  0  0  0
   10.9215   -7.2418   -0.3383 H   0  0  0  0  0  0  0  0  0  0  0  0
    8.2129   -5.0973  -12.8089 H   0  0  0  0  0  0  0  0  0  0  0  0
    9.6517   -5.0891  -11.7191 H   0  0  0  0  0  0  0  0  0  0  0  0
    9.4696   -2.9650  -12.5720 H   0  0  0  0  0  0  0  0  0  0  0  0
    8.8324   -2.7051  -10.9560 H   0  0  0  0  0  0  0  0  0  0  0  0
    7.7224   -2.8003  -12.3569 H   0  0  0  0  0  0  0  0  0  0  0  0
   -0.5999   -7.3172   -4.8983 H   0  0  0  0  0  0  0  0  0  0  0  0
   -0.2255   -7.7574   -6.5785 H   0  0  0  0  0  0  0  0  0  0  0  0
   -2.2639   -8.8321   -6.1804 H   0  0  0  0  0  0  0  0  0  0  0  0
   -0.9957  -10.0537   -6.2621 H   0  0  0  0  0  0  0  0  0  0  0  0
   -1.7755   -9.5745   -4.6424 H   0  0  0  0  0  0  0  0  0  0  0  0
    2.0062   -3.8030   -4.3367 H   0  0  0  0  0  0  0  0  0  0  0  0
    1.9234   -3.0332   -6.6693 H   0  0  0  0  0  0  0  0  0  0  0  0
    3.3671   -1.1816   -7.4118 H   0  0  0  0  0  0  0  0  0  0  0  0
    5.4130    0.0293   -7.1131 H   0  0  0  0  0  0  0  0  0  0  0  0
    6.0458    0.3128   -5.4251 H   0  0  0  0  0  0  0  0  0  0  0  0
    4.9675    2.3789   -6.1217 H   0  0  0  0  0  0  0  0  0  0  0  0
    3.8041    1.6050   -5.0008 H   0  0  0  0  0  0  0  0  0  0  0  0
    3.5699    1.4967   -6.7780 H   0  0  0  0  0  0  0  0  0  0  0  0
    4.9464   -0.8948   -3.5167 H   0  0  0  0  0  0  0  0  0  0  0  0
   -5.7401    4.0478    2.2282 H   0  0  0  0  0  0  0  0  0  0  0  0
   -7.9050    4.7412    1.2426 H   0  0  0  0  0  0  0  0  0  0  0  0
   -9.9380    4.2558    2.4221 H   0  0  0  0  0  0  0  0  0  0  0  0
  -10.0270    2.6956    5.8406 H   0  0  0  0  0  0  0  0  0  0  0  0
  -11.0471    3.7181    4.7438 H   0  0  0  0  0  0  0  0  0  0  0  0
  -10.8263    1.6404    3.1165 H   0  0  0  0  0  0  0  0  0  0  0  0
  -10.1962    0.7941    4.6487 H   0  0  0  0  0  0  0  0  0  0  0  0
  -11.8385    1.5254    4.5796 H   0  0  0  0  0  0  0  0  0  0  0  0
   -7.7196    2.3889    5.5835 H   0  0  0  0  0  0  0  0  0  0  0  0
    0.7974   -2.5672    3.6069 H   0  0  0  0  0  0  0  0  0  0  0  0
    2.0077   -2.9697    2.4257 H   0  0  0  0  0  0  0  0  0  0  0  0
    2.0245   -0.0500    2.4299 H   0  0  0  0  0  0  0  0  0  0  0  0
    3.2319   -1.2960    2.7793 H   0  0  0  0  0  0  0  0  0  0  0  0
    2.2272   -0.7889    4.1278 H   0  0  0  0  0  0  0  0  0  0  0  0
   -1.5321   -0.4980    5.3237 H   0  0  0  0  0  0  0  0  0  0  0  0
   -0.3795   -1.5039    4.6725 H   0  0  0  0  0  0  0  0  0  0  0  0
    0.5920    0.4977    5.4146 H   0  0  0  0  0  0  0  0  0  0  0  0
    0.5291    1.0853    3.7192 H   0  0  0  0  0  0  0  0  0  0  0  0
   -0.6857    1.5496    4.8720 H   0  0  0  0  0  0  0  0  0  0  0  0
   -4.3101    5.4855    3.7846 H   0  0  0  0  0  0  0  0  0  0  0  0
   -3.2701    6.9319    2.8333 H   0  0  0  0  0  0  0  0  0  0  0  0
   -2.9149    7.1644    0.4037 H   0  0  0  0  0  0  0  0  0  0  0  0
   -4.5039    9.8622   -1.4625 H   0  0  0  0  0  0  0  0  0  0  0  0
   -5.6514    8.5528   -1.7623 H   0  0  0  0  0  0  0  0  0  0  0  0
   -3.6881    6.9192   -2.0008 H   0  0  0  0  0  0  0  0  0  0  0  0
   -2.6286    8.4292   -2.0898 H   0  0  0  0  0  0  0  0  0  0  0  0
   -3.9597    8.1635   -3.2066 H   0  0  0  0  0  0  0  0  0  0  0  0
   -7.9107    9.9415    8.4995 H   0  0  0  0  0  0  0  0  0  0  0  0
   -8.4009    9.5042   10.8804 H   0  0  0  0  0  0  0  0  0  0  0  0
   -7.4423    7.5845   12.9341 H   0  0  0  0  0  0  0  0  0  0  0  0
   -8.8799    6.6299   12.3596 H   0  0  0  0  0  0  0  0  0  0  0  0
   -6.7762    5.4581   13.3064 H   0  0  0  0  0  0  0  0  0  0  0  0
   -7.5971    4.8071   11.7876 H   0  0  0  0  0  0  0  0  0  0  0  0
   -6.0312    5.7974   11.6868 H   0  0  0  0  0  0  0  0  0  0  0  0
   -8.7749   10.1837    6.7657 H   0  0  0  0  0  0  0  0  0  0  0  0
   -9.4486   12.7071    4.8183 H   0  0  0  0  0  0  0  0  0  0  0  0
  -11.0071    7.1727    2.3587 H   0  0  0  0  0  0  0  0  0  0  0  0
  1  2  2  3
  2  3  1  0
  3  4  2  0
  3  5  1  0
  5  6  2  0
  6  7  1  0
  7  8  2  0
  8  9  1  0
  9 10  2  0
 10 11  1  0
 10 12  1  0
 12 13  2  0
 13 14  1  0
 14 15  2  0
 15 16  1  0
 16 17  2  3
 17 18  1  0
 18 19  3  0
 17 20  1  0
 20 21  3  0
  1 22  1  0
 22 23  1  0
 23 24  2  0
 24 25  1  0
 25 26  1  0
 26 27  2  0
 27 28  1  0
 28 29  2  0
 29 30  1  0
 30 31  1  0
 31 32  1  0
 29 33  1  0
 33 34  2  0
 34 35  1  0
 33 36  1  0
 28 37  1  0
 27 38  1  0
 25 39  2  0
 39 40  1  0
 40 41  2  0
 41 42  1  0
 41 43  1  0
 43 44  1  0
 43 45  2  0
 45 46  1  0
 46 47  1  0
 47 48  1  0
 45 49  1  0
 49 50  1  0
 49 51  2  0
 51 52  1  0
 39 53  1  0
 53 54  2  0
 54 55  1  0
 55 56  2  0
 56 57  1  0
 57 58  1  0
 56 59  1  0
 55 60  1  0
 60 61  2  0
 61 62  1  0
 62 63  2  0
 63 64  1  0
 64 65  2  0
 65 66  1  0
 66 67  1  0
 67 68  1  0
 66 69  2  0
 61 70  1  0
 70 71  1  0
 71 72  1  0
 72 73  1  0
 73 74  1  0
 74 75  1  0
 75 76  2  0
 76 77  1  0
 77 78  1  0
 75 79  1  0
 79 80  1  0
 80 81  1  0
 81 82  1  0
 82 83  1  0
 83 84  1  0
 84 85  2  0
 85 86  1  0
 86 87  2  0
 87 88  1  0
 88 89  1  0
 89 90  1  0
 88 91  2  0
 83 92  2  0
 92 93  1  0
 93 94  1  0
 94 95  1  0
 95 96  1  0
 96 97  1  0
 97 98  1  0
 98 99  1  0
 99100  1  0
100101  1  0
101102  1  0
 99103  1  0
103104  1  0
 96105  1  0
105106  1  0
 92107  1  0
107108  2  0
108109  1  0
109110  2  0
110111  1  0
111112  2  0
112113  1  0
113114  2  0
114115  1  0
115116  1  0
114117  1  0
110118  1  0
118119  2  0
119120  1  0
120121  1  0
121122  2  0
122123  1  0
123124  2  0
124125  1  0
125126  1  0
124127  1  0
120128  2  0
128129  1  0
119130  1  0
130131  2  0
131132  1  0
131133  1  0
133134  2  3
134135  1  0
135136  2  0
135137  1  0
137138  1  0
138139  1  0
139140  1  0
139141  2  0
141142  1  0
142143  1  0
143144  2  3
144145  1  0
145146  3  0
144147  1  0
147148  3  0
 16  2  1  0
 57 22  2  0
102 60  1  0
129107  1  0
143134  1  0
 15  5  1  0
 54 23  1  0
 69 62  1  0
101 70  2  0
128109  1  0
142137  2  0
 13  7  1  0
 34 26  1  0
 51 40  1  0
100 72  2  0
117111  1  0
132118  1  0
 98 73  2  0
127121  1  0
 78 74  2  0
 97 79  2  0
 95 80  2  0
 94 82  2  0
 91 84  1  0
  1149  1  0
  6150  1  0
  8151  1  0
  9152  1  0
 12153  1  0
 14154  1  0
 31155  1  0
 31156  1  0
 32157  1  0
 32158  1  0
 32159  1  0
 47160  1  0
 47161  1  0
 48162  1  0
 48163  1  0
 48164  1  0
 63165  1  0
 64166  1  0
 65167  1  0
 67168  1  0
 67169  1  0
 68170  1  0
 68171  1  0
 68172  1  0
 69173  1  0
 85174  1  0
 86175  1  0
 87176  1  0
 89177  1  0
 89178  1  0
 90179  1  0
 90180  1  0
 90181  1  0
 91182  1  0
103183  1  0
103184  1  0
104185  1  0
104186  1  0
104187  1  0
105188  1  0
105189  1  0
106190  1  0
106191  1  0
106192  1  0
108193  1  0
112194  1  0
113195  1  0
115196  1  0
115197  1  0
116198  1  0
116199  1  0
116200  1  0
122201  1  0
123202  1  0
125203  1  0
125204  1  0
126205  1  0
126206  1  0
126207  1  0
130208  1  0
133209  1  0
141210  1  0
M  END

