
     RDKit          3D

179199  0  0  0  0  0  0  0  0999 V2000
   -8.6137    2.4596   -2.6127 C   0  0  0  0  0  0  0  0  0  0  0  0
   -8.8813    1.1993   -2.2099 C   0  0  0  0  0  0  0  0  0  0  0  0
   -7.9060    0.2841   -1.6045 C   0  0  0  0  0  0  0  0  0  0  0  0
   -6.6557    0.3138   -1.7546 O   0  0  0  0  0  0  0  0  0  0  0  0
   -8.6206   -0.6758   -0.7892 C   0  0  0  0  0  0  0  0  0  0  0  0
   -8.0889   -1.5250    0.1769 C   0  0  0  0  0  0  0  0  0  0  0  0
   -8.9682   -2.1755    1.0575 C   0  0  0  0  0  0  0  0  0  0  0  0
   -8.4703   -2.9905    2.0849 C   0  0  0  0  0  0  0  0  0  0  0  0
   -9.3489   -3.5818    2.9986 C   0  0  0  0  0  0  0  0  0  0  0  0
  -10.7239   -3.3597    2.8962 C   0  0  0  0  0  0  0  0  0  0  0  0
  -11.5671   -3.9459    3.7861 F   0  0  0  0  0  0  0  0  0  0  0  0
  -11.2386   -2.5621    1.8693 C   0  0  0  0  0  0  0  0  0  0  0  0
  -10.3702   -1.9600    0.9437 C   0  0  0  0  0  0  0  0  0  0  0  0
  -10.8799   -1.1109   -0.0651 C   0  0  0  0  0  0  0  0  0  0  0  0
   -9.9809   -0.4783   -0.9337 C   0  0  0  0  0  0  0  0  0  0  0  0
  -10.2224    0.6001   -1.9352 C   0  0  0  0  0  0  0  0  0  0  0  0
  -11.3721    0.8255   -2.6113 C   0  0  0  0  0  0  0  0  0  0  0  0
  -11.4918    1.8312   -3.6323 C   0  0  0  0  0  0  0  0  0  0  0  0
  -11.6002    2.6515   -4.4425 N   0  0  0  0  0  0  0  0  0  0  0  0
  -12.5303   -0.0237   -2.4506 C   0  0  0  0  0  0  0  0  0  0  0  0
  -13.4521   -0.7148   -2.3495 N   0  0  0  0  0  0  0  0  0  0  0  0
   -7.2949    3.0648   -2.3821 C   0  0  0  0  0  0  0  0  0  0  0  0
   -6.7070    3.3707   -0.8374 S   0  0  0  0  0  0  0  0  0  0  0  0
   -5.0895    3.5335   -1.2440 C   0  0  0  0  0  0  0  0  0  0  0  0
   -4.9885    3.3523   -2.6283 C   0  0  0  0  0  0  0  0  0  0  0  0
   -3.7240    3.3539   -3.3924 C   0  0  0  0  0  0  0  0  0  0  0  0
   -2.6486    3.6970   -2.8301 O   0  0  0  0  0  0  0  0  0  0  0  0
   -3.7560    2.9698   -4.8264 C   0  0  0  0  0  0  0  0  0  0  0  0
   -2.6490    2.8978   -5.6817 C   0  0  0  0  0  0  0  0  0  0  0  0
   -1.2328    3.3118   -5.3954 C   0  0  0  0  0  0  0  0  0  0  0  0
   -1.0780    4.8273   -5.4796 C   0  0  0  0  0  0  0  0  0  0  0  0
   -3.1885    2.3834   -7.1875 S   0  0  0  0  0  0  0  0  0  0  0  0
   -4.8163    2.2555   -6.7868 C   0  0  0  0  0  0  0  0  0  0  0  0
   -5.8552    1.7559   -7.7431 C   0  0  0  0  0  0  0  0  0  0  0  0
   -6.1258    0.2711   -7.5191 C   0  0  0  0  0  0  0  0  0  0  0  0
   -4.9739    2.6132   -5.4405 C   0  0  0  0  0  0  0  0  0  0  0  0
   -6.2531    2.6785   -4.6933 C   0  0  0  0  0  0  0  0  0  0  0  0
   -7.3540    2.4070   -5.2481 O   0  0  0  0  0  0  0  0  0  0  0  0
   -6.2129    3.0696   -3.2660 C   0  0  0  0  0  0  0  0  0  0  0  0
   -4.0345    3.1978   -0.2734 C   0  0  0  0  0  0  0  0  0  0  0  0
   -3.8447    3.7884    0.9868 C   0  0  0  0  0  0  0  0  0  0  0  0
   -4.3306    5.1214    1.3577 C   0  0  0  0  0  0  0  0  0  0  0  0
   -5.2152    5.2911    2.4316 C   0  0  0  0  0  0  0  0  0  0  0  0
   -5.6433    6.5710    2.7914 C   0  0  0  0  0  0  0  0  0  0  0  0
   -5.1822    7.6852    2.0884 C   0  0  0  0  0  0  0  0  0  0  0  0
   -4.2799    7.5312    1.0233 C   0  0  0  0  0  0  0  0  0  0  0  0
   -3.7325    8.7284    0.2871 C   0  0  0  0  0  0  0  0  0  0  0  0
   -4.3776    8.8738   -1.0863 C   0  0  0  0  0  0  0  0  0  0  0  0
   -3.8759    6.2412    0.6489 C   0  0  0  0  0  0  0  0  0  0  0  0
   -3.0556    2.9867    1.8158 C   0  0  0  0  0  0  0  0  0  0  0  0
   -2.4627    3.1472    3.4083 S   0  0  0  0  0  0  0  0  0  0  0  0
   -1.7337    1.6143    3.3156 C   0  0  0  0  0  0  0  0  0  0  0  0
   -0.8413    0.8525    4.0146 C   0  0  0  0  0  0  0  0  0  0  0  0
   -0.0886    1.1583    5.1551 C   0  0  0  0  0  0  0  0  0  0  0  0
    1.0123    0.3161    5.4987 C   0  0  0  0  0  0  0  0  0  0  0  0
    1.7606    0.6897    6.5680 N   0  0  0  0  0  0  0  0  0  0  0  0
    0.9607    2.0716    6.9982 S   0  0  0  0  0  0  0  0  0  0  0  0
   -0.2860    2.2593    5.9176 N   0  0  0  0  0  0  0  0  0  0  0  0
    1.2413   -0.8349    4.7324 C   0  0  0  0  0  0  0  0  0  0  0  0
    2.2411   -1.7770    4.7840 C   0  0  0  0  0  0  0  0  0  0  0  0
    3.8918   -1.7121    5.1752 S   0  0  0  0  0  0  0  0  0  0  0  0
    4.2765   -2.8840    3.9913 C   0  0  0  0  0  0  0  0  0  0  0  0
    5.4868   -3.1671    3.3406 C   0  0  0  0  0  0  0  0  0  0  0  0
    6.8200   -2.8900    3.9331 C   0  0  0  0  0  0  0  0  0  0  0  0
    7.8573   -2.3283    3.1757 C   0  0  0  0  0  0  0  0  0  0  0  0
    9.1114   -2.1100    3.7481 C   0  0  0  0  0  0  0  0  0  0  0  0
    9.3464   -2.4492    5.0837 C   0  0  0  0  0  0  0  0  0  0  0  0
    8.3223   -3.0135    5.8577 C   0  0  0  0  0  0  0  0  0  0  0  0
    8.5703   -3.3934    7.2972 C   0  0  0  0  0  0  0  0  0  0  0  0
    8.2056   -2.2511    8.2375 C   0  0  0  0  0  0  0  0  0  0  0  0
    7.0583   -3.2184    5.2833 C   0  0  0  0  0  0  0  0  0  0  0  0
    5.2354   -3.7450    2.0723 C   0  0  0  0  0  0  0  0  0  0  0  0
    3.5622   -3.8810    1.8144 S   0  0  0  0  0  0  0  0  0  0  0  0
    3.1493   -3.2599    3.3071 C   0  0  0  0  0  0  0  0  0  0  0  0
    1.9984   -2.6420    3.7605 C   0  0  0  0  0  0  0  0  0  0  0  0
    0.8740   -2.3491    3.0755 N   0  0  0  0  0  0  0  0  0  0  0  0
    0.4452   -1.1733    3.6281 C   0  0  0  0  0  0  0  0  0  0  0  0
   -0.5481   -0.2478    3.1876 C   0  0  0  0  0  0  0  0  0  0  0  0
   -1.1512   -0.0974    1.9548 N   0  0  0  0  0  0  0  0  0  0  0  0
   -1.8928    1.0259    2.1093 C   0  0  0  0  0  0  0  0  0  0  0  0
   -2.6377    1.8142    1.2441 C   0  0  0  0  0  0  0  0  0  0  0  0
   -3.2324    1.6924   -0.3137 S   0  0  0  0  0  0  0  0  0  0  0  0
   -0.7485   -0.6428    0.6501 C   0  0  0  0  0  0  0  0  0  0  0  0
    0.7249   -0.3665    0.3538 C   0  0  0  0  0  0  0  0  0  0  0  0
    0.1242   -3.3752    2.3365 C   0  0  0  0  0  0  0  0  0  0  0  0
   -1.3217   -3.5105    2.8228 C   0  0  0  0  0  0  0  0  0  0  0  0
    6.1917   -3.9729    0.9804 C   0  0  0  0  0  0  0  0  0  0  0  0
    6.7027   -5.5019    0.5148 S   0  0  0  0  0  0  0  0  0  0  0  0
    7.2578   -5.0828   -1.0151 C   0  0  0  0  0  0  0  0  0  0  0  0
    7.0416   -3.7107   -1.1940 C   0  0  0  0  0  0  0  0  0  0  0  0
    7.3210   -2.9416   -2.4335 C   0  0  0  0  0  0  0  0  0  0  0  0
    7.8684   -3.5025   -3.4224 O   0  0  0  0  0  0  0  0  0  0  0  0
    6.9177   -1.5125   -2.4884 C   0  0  0  0  0  0  0  0  0  0  0  0
    7.1526   -0.6356   -3.5533 C   0  0  0  0  0  0  0  0  0  0  0  0
    7.9052   -0.8983   -4.8297 C   0  0  0  0  0  0  0  0  0  0  0  0
    9.4058   -0.9774   -4.5843 C   0  0  0  0  0  0  0  0  0  0  0  0
    6.4814    0.8552   -3.1532 S   0  0  0  0  0  0  0  0  0  0  0  0
    5.8694    0.4133   -1.6490 C   0  0  0  0  0  0  0  0  0  0  0  0
    5.1280    1.3572   -0.7469 C   0  0  0  0  0  0  0  0  0  0  0  0
    6.0758    2.0159    0.2468 C   0  0  0  0  0  0  0  0  0  0  0  0
    6.2201   -0.9224   -1.4085 C   0  0  0  0  0  0  0  0  0  0  0  0
    5.9520   -1.6940   -0.1680 C   0  0  0  0  0  0  0  0  0  0  0  0
    5.3708   -1.1513    0.8083 O   0  0  0  0  0  0  0  0  0  0  0  0
    6.4092   -3.1004   -0.0940 C   0  0  0  0  0  0  0  0  0  0  0  0
    7.5679   -6.0815   -2.0509 C   0  0  0  0  0  0  0  0  0  0  0  0
    6.7437   -6.3272   -3.0892 C   0  0  0  0  0  0  0  0  0  0  0  0
    5.4161   -5.7077   -3.3272 C   0  0  0  0  0  0  0  0  0  0  0  0
    4.8332   -4.8745   -2.5936 O   0  0  0  0  0  0  0  0  0  0  0  0
    4.7950   -6.3796   -4.4461 C   0  0  0  0  0  0  0  0  0  0  0  0
    3.5759   -6.0974   -5.0692 C   0  0  0  0  0  0  0  0  0  0  0  0
    3.1948   -6.8833   -6.1720 C   0  0  0  0  0  0  0  0  0  0  0  0
    4.0332   -7.9099   -6.6403 C   0  0  0  0  0  0  0  0  0  0  0  0
    3.5729   -8.8406   -8.0558 Cl  0  0  0  0  0  0  0  0  0  0  0  0
    5.2559   -8.1721   -5.9984 C   0  0  0  0  0  0  0  0  0  0  0  0
    5.6086   -7.4072   -4.8714 C   0  0  0  0  0  0  0  0  0  0  0  0
    6.8592   -7.4431   -4.0708 C   0  0  0  0  0  0  0  0  0  0  0  0
    7.6872   -8.4945   -3.9634 C   0  0  0  0  0  0  0  0  0  0  0  0
    9.1132   -8.3079   -3.8379 C   0  0  0  0  0  0  0  0  0  0  0  0
   10.2765   -8.2298   -3.8259 N   0  0  0  0  0  0  0  0  0  0  0  0
    7.2403   -9.8151   -4.3117 C   0  0  0  0  0  0  0  0  0  0  0  0
    6.8070  -10.8755   -4.5352 N   0  0  0  0  0  0  0  0  0  0  0  0
   -9.4074    3.1267   -2.9170 H   0  0  0  0  0  0  0  0  0  0  0  0
   -7.0182   -1.6343    0.2709 H   0  0  0  0  0  0  0  0  0  0  0  0
   -7.4074   -3.1693    2.1915 H   0  0  0  0  0  0  0  0  0  0  0  0
   -8.9612   -4.2051    3.7977 H   0  0  0  0  0  0  0  0  0  0  0  0
  -12.3095   -2.4099    1.7974 H   0  0  0  0  0  0  0  0  0  0  0  0
  -11.9385   -0.8914   -0.0968 H   0  0  0  0  0  0  0  0  0  0  0  0
   -0.5604    2.8497   -6.1455 H   0  0  0  0  0  0  0  0  0  0  0  0
   -0.9087    2.9432   -4.4019 H   0  0  0  0  0  0  0  0  0  0  0  0
   -1.7477    5.3339   -4.7476 H   0  0  0  0  0  0  0  0  0  0  0  0
   -0.0306    5.1164   -5.2499 H   0  0  0  0  0  0  0  0  0  0  0  0
   -1.3321    5.1808   -6.5041 H   0  0  0  0  0  0  0  0  0  0  0  0
   -6.7942    2.3337   -7.6391 H   0  0  0  0  0  0  0  0  0  0  0  0
   -5.4951    1.8917   -8.7904 H   0  0  0  0  0  0  0  0  0  0  0  0
   -6.5191    0.0939   -6.4881 H   0  0  0  0  0  0  0  0  0  0  0  0
   -5.1929   -0.3176   -7.6599 H   0  0  0  0  0  0  0  0  0  0  0  0
   -6.8818   -0.0861   -8.2551 H   0  0  0  0  0  0  0  0  0  0  0  0
   -5.5874    4.4303    2.9773 H   0  0  0  0  0  0  0  0  0  0  0  0
   -6.3411    6.6979    3.6088 H   0  0  0  0  0  0  0  0  0  0  0  0
   -5.5204    8.6730    2.3752 H   0  0  0  0  0  0  0  0  0  0  0  0
   -3.9045    9.6557    0.8733 H   0  0  0  0  0  0  0  0  0  0  0  0
   -2.6326    8.6210    0.1632 H   0  0  0  0  0  0  0  0  0  0  0  0
   -3.9818    9.7824   -1.5897 H   0  0  0  0  0  0  0  0  0  0  0  0
   -5.4826    8.9694   -0.9871 H   0  0  0  0  0  0  0  0  0  0  0  0
   -4.1441    7.9915   -1.7216 H   0  0  0  0  0  0  0  0  0  0  0  0
   -3.1737    6.1058   -0.1712 H   0  0  0  0  0  0  0  0  0  0  0  0
    7.7042   -2.0334    2.1489 H   0  0  0  0  0  0  0  0  0  0  0  0
    9.9124   -1.6804    3.1564 H   0  0  0  0  0  0  0  0  0  0  0  0
   10.3264   -2.2761    5.5151 H   0  0  0  0  0  0  0  0  0  0  0  0
    9.6454   -3.6519    7.4440 H   0  0  0  0  0  0  0  0  0  0  0  0
    7.9772   -4.2916    7.5636 H   0  0  0  0  0  0  0  0  0  0  0  0
    8.7505   -1.3231    7.9557 H   0  0  0  0  0  0  0  0  0  0  0  0
    7.1079   -2.0589    8.1910 H   0  0  0  0  0  0  0  0  0  0  0  0
    8.4760   -2.5194    9.2807 H   0  0  0  0  0  0  0  0  0  0  0  0
    6.2647   -3.6524    5.8749 H   0  0  0  0  0  0  0  0  0  0  0  0
   -1.0213   -1.6993    0.5652 H   0  0  0  0  0  0  0  0  0  0  0  0
   -1.3192   -0.1733   -0.1651 H   0  0  0  0  0  0  0  0  0  0  0  0
    1.3964   -0.8217    1.1022 H   0  0  0  0  0  0  0  0  0  0  0  0
    0.9071    0.7303    0.3148 H   0  0  0  0  0  0  0  0  0  0  0  0
    0.9831   -0.7985   -0.6421 H   0  0  0  0  0  0  0  0  0  0  0  0
    0.2025   -3.2255    1.2452 H   0  0  0  0  0  0  0  0  0  0  0  0
    0.6076   -4.3693    2.4975 H   0  0  0  0  0  0  0  0  0  0  0  0
   -1.9244   -2.6338    2.5222 H   0  0  0  0  0  0  0  0  0  0  0  0
   -1.7806   -4.4213    2.3876 H   0  0  0  0  0  0  0  0  0  0  0  0
   -1.3404   -3.6054    3.9323 H   0  0  0  0  0  0  0  0  0  0  0  0
    7.7131   -0.0690   -5.5446 H   0  0  0  0  0  0  0  0  0  0  0  0
    7.5393   -1.8319   -5.3004 H   0  0  0  0  0  0  0  0  0  0  0  0
    9.7835   -0.0134   -4.1880 H   0  0  0  0  0  0  0  0  0  0  0  0
    9.9279   -1.2035   -5.5397 H   0  0  0  0  0  0  0  0  0  0  0  0
    9.6570   -1.7684   -3.8469 H   0  0  0  0  0  0  0  0  0  0  0  0
    4.6417    2.1421   -1.3619 H   0  0  0  0  0  0  0  0  0  0  0  0
    4.3175    0.8258   -0.2076 H   0  0  0  0  0  0  0  0  0  0  0  0
    6.8455    2.6068   -0.2937 H   0  0  0  0  0  0  0  0  0  0  0  0
    5.5053    2.6991    0.9097 H   0  0  0  0  0  0  0  0  0  0  0  0
    6.5859    1.2532    0.8727 H   0  0  0  0  0  0  0  0  0  0  0  0
    8.4221   -6.7125   -1.8805 H   0  0  0  0  0  0  0  0  0  0  0  0
    2.9308   -5.3104   -4.7025 H   0  0  0  0  0  0  0  0  0  0  0  0
    2.2638   -6.6773   -6.6795 H   0  0  0  0  0  0  0  0  0  0  0  0
    5.9204   -8.9312   -6.3917 H   0  0  0  0  0  0  0  0  0  0  0  0
  1  2  2  3
  2  3  1  0
  3  4  2  0
  3  5  1  0
  5  6  2  0
  6  7  1  0
  7  8  2  0
  8  9  1  0
  9 10  2  0
 10 11  1  0
 10 12  1  0
 12 13  2  0
 13 14  1  0
 14 15  2  0
 15 16  1  0
 16 17  2  3
 17 18  1  0
 18 19  3  0
 17 20  1  0
 20 21  3  0
  1 22  1  0
 22 23  1  0
 23 24  1  0
 24 25  2  0
 25 26  1  0
 26 27  2  0
 26 28  1  0
 28 29  2  0
 29 30  1  0
 30 31  1  0
 29 32  1  0
 32 33  1  0
 33 34  1  0
 34 35  1  0
 33 36  2  0
 36 37  1  0
 37 38  2  0
 37 39  1  0
 24 40  1  0
 40 41  2  0
 41 42  1  0
 42 43  2  0
 43 44  1  0
 44 45  2  0
 45 46  1  0
 46 47  1  0
 47 48  1  0
 46 49  2  0
 41 50  1  0
 50 51  1  0
 51 52  1  0
 52 53  1  0
 53 54  1  0
 54 55  1  0
 55 56  2  0
 56 57  1  0
 57 58  1  0
 55 59  1  0
 59 60  1  0
 60 61  1  0
 61 62  1  0
 62 63  1  0
 63 64  1  0
 64 65  2  0
 65 66  1  0
 66 67  2  0
 67 68  1  0
 68 69  1  0
 69 70  1  0
 68 71  2  0
 63 72  2  0
 72 73  1  0
 73 74  1  0
 74 75  1  0
 75 76  1  0
 76 77  1  0
 77 78  1  0
 78 79  1  0
 79 80  1  0
 80 81  1  0
 81 82  1  0
 79 83  1  0
 83 84  1  0
 76 85  1  0
 85 86  1  0
 72 87  1  0
 87 88  1  0
 88 89  1  0
 89 90  2  0
 90 91  1  0
 91 92  2  0
 91 93  1  0
 93 94  2  0
 94 95  1  0
 95 96  1  0
 94 97  1  0
 97 98  1  0
 98 99  1  0
 99100  1  0
 98101  2  0
101102  1  0
102103  2  0
102104  1  0
 89105  1  0
105106  2  3
106107  1  0
107108  2  0
107109  1  0
109110  2  0
110111  1  0
111112  2  0
112113  1  0
112114  1  0
114115  2  0
115116  1  0
116117  2  3
117118  1  0
118119  3  0
117120  1  0
120121  3  0
 16  2  1  0
 39 22  2  0
 82 40  1  0
104 87  2  0
116106  1  0
 15  5  1  0
 39 25  1  0
 49 42  1  0
 81 50  2  0
104 90  1  0
115109  1  0
 13  7  1  0
 36 28  1  0
 80 52  2  0
101 93  1  0
 78 53  2  0
 58 54  2  0
 77 59  2  0
 75 60  2  0
 74 62  2  0
 71 64  1  0
  1122  1  0
  6123  1  0
  8124  1  0
  9125  1  0
 12126  1  0
 14127  1  0
 30128  1  0
 30129  1  0
 31130  1  0
 31131  1  0
 31132  1  0
 34133  1  0
 34134  1  0
 35135  1  0
 35136  1  0
 35137  1  0
 43138  1  0
 44139  1  0
 45140  1  0
 47141  1  0
 47142  1  0
 48143  1  0
 48144  1  0
 48145  1  0
 49146  1  0
 65147  1  0
 66148  1  0
 67149  1  0
 69150  1  0
 69151  1  0
 70152  1  0
 70153  1  0
 70154  1  0
 71155  1  0
 83156  1  0
 83157  1  0
 84158  1  0
 84159  1  0
 84160  1  0
 85161  1  0
 85162  1  0
 86163  1  0
 86164  1  0
 86165  1  0
 95166  1  0
 95167  1  0
 96168  1  0
 96169  1  0
 96170  1  0
 99171  1  0
 99172  1  0
100173  1  0
100174  1  0
100175  1  0
105176  1  0
110177  1  0
111178  1  0
114179  1  0
M  END

