
     RDKit          3D

171190  0  0  0  0  0  0  0  0999 V2000
    2.9624   -3.0866    6.3326 C   0  0  0  0  0  0  0  0  0  0  0  0
    2.8458   -1.7456    6.3380 C   0  0  0  0  0  0  0  0  0  0  0  0
    2.2117   -0.9246    5.2950 C   0  0  0  0  0  0  0  0  0  0  0  0
    1.4811   -1.3376    4.3548 O   0  0  0  0  0  0  0  0  0  0  0  0
    2.6658    0.4425    5.4498 C   0  0  0  0  0  0  0  0  0  0  0  0
    2.4061    1.5375    4.6278 C   0  0  0  0  0  0  0  0  0  0  0  0
    3.0851    2.7429    4.8826 C   0  0  0  0  0  0  0  0  0  0  0  0
    2.8555    3.8756    4.0840 C   0  0  0  0  0  0  0  0  0  0  0  0
    3.5638    5.0596    4.3214 C   0  0  0  0  0  0  0  0  0  0  0  0
    4.5170    5.1167    5.3388 C   0  0  0  0  0  0  0  0  0  0  0  0
    5.2211    6.2545    5.5441 F   0  0  0  0  0  0  0  0  0  0  0  0
    4.7523    3.9998    6.1488 C   0  0  0  0  0  0  0  0  0  0  0  0
    4.0360    2.8115    5.9392 C   0  0  0  0  0  0  0  0  0  0  0  0
    4.2582    1.6895    6.7630 C   0  0  0  0  0  0  0  0  0  0  0  0
    3.5244    0.5185    6.5320 C   0  0  0  0  0  0  0  0  0  0  0  0
    3.5817   -0.7977    7.2246 C   0  0  0  0  0  0  0  0  0  0  0  0
    3.9474   -1.0174    8.5126 C   0  0  0  0  0  0  0  0  0  0  0  0
    3.6847   -2.2693    9.1797 C   0  0  0  0  0  0  0  0  0  0  0  0
    3.4733   -3.2686    9.7255 N   0  0  0  0  0  0  0  0  0  0  0  0
    4.4253    0.0392    9.3651 C   0  0  0  0  0  0  0  0  0  0  0  0
    4.7920    0.8850   10.0622 N   0  0  0  0  0  0  0  0  0  0  0  0
    2.2666   -3.9525    5.3718 C   0  0  0  0  0  0  0  0  0  0  0  0
    3.0268   -4.7357    4.1063 S   0  0  0  0  0  0  0  0  0  0  0  0
    1.6440   -5.3281    3.3378 C   0  0  0  0  0  0  0  0  0  0  0  0
    0.5385   -4.9100    4.1042 C   0  0  0  0  0  0  0  0  0  0  0  0
   -0.8931   -5.1707    3.8212 C   0  0  0  0  0  0  0  0  0  0  0  0
   -1.2450   -6.1492    3.1122 O   0  0  0  0  0  0  0  0  0  0  0  0
   -1.9033   -4.3151    4.4887 C   0  0  0  0  0  0  0  0  0  0  0  0
   -3.2329   -4.1405    4.0902 C   0  0  0  0  0  0  0  0  0  0  0  0
   -3.9079   -4.7073    2.8743 C   0  0  0  0  0  0  0  0  0  0  0  0
   -3.4196   -4.0162    1.6025 C   0  0  0  0  0  0  0  0  0  0  0  0
   -3.9195   -2.9557    5.0686 S   0  0  0  0  0  0  0  0  0  0  0  0
   -2.5732   -2.6861    6.0436 C   0  0  0  0  0  0  0  0  0  0  0  0
   -2.4831   -1.5770    7.0531 C   0  0  0  0  0  0  0  0  0  0  0  0
   -1.7395   -0.3747    6.4731 C   0  0  0  0  0  0  0  0  0  0  0  0
   -1.5381   -3.5083    5.5851 C   0  0  0  0  0  0  0  0  0  0  0  0
   -0.1436   -3.5159    6.0832 C   0  0  0  0  0  0  0  0  0  0  0  0
    0.1527   -3.0231    7.2046 O   0  0  0  0  0  0  0  0  0  0  0  0
    0.8933   -4.1353    5.2287 C   0  0  0  0  0  0  0  0  0  0  0  0
    1.6504   -5.8092    1.9313 C   0  0  0  0  0  0  0  0  0  0  0  0
    2.7923   -6.2411    1.2164 C   0  0  0  0  0  0  0  0  0  0  0  0
    4.0617   -6.6766    1.8249 C   0  0  0  0  0  0  0  0  0  0  0  0
    5.2384   -5.9407    1.6386 C   0  0  0  0  0  0  0  0  0  0  0  0
    6.4344   -6.3751    2.2177 C   0  0  0  0  0  0  0  0  0  0  0  0
    6.4648   -7.5577    2.9668 C   0  0  0  0  0  0  0  0  0  0  0  0
    5.2953   -8.3154    3.1396 C   0  0  0  0  0  0  0  0  0  0  0  0
    5.3272   -9.6026    3.9240 C   0  0  0  0  0  0  0  0  0  0  0  0
    4.9106   -9.3710    5.3716 C   0  0  0  0  0  0  0  0  0  0  0  0
    4.0893   -7.8540    2.5885 C   0  0  0  0  0  0  0  0  0  0  0  0
    2.5630   -6.2537   -0.1629 C   0  0  0  0  0  0  0  0  0  0  0  0
    3.6187   -6.2751   -1.4984 S   0  0  0  0  0  0  0  0  0  0  0  0
    2.3414   -5.9352   -2.5681 C   0  0  0  0  0  0  0  0  0  0  0  0
    2.2357   -5.2635   -3.7610 C   0  0  0  0  0  0  0  0  0  0  0  0
    3.2466   -4.6338   -4.5046 C   0  0  0  0  0  0  0  0  0  0  0  0
    2.8902   -3.5848   -5.4037 C   0  0  0  0  0  0  0  0  0  0  0  0
    3.9005   -2.9403   -6.0335 N   0  0  0  0  0  0  0  0  0  0  0  0
    5.1922   -3.7486   -5.3867 S   0  0  0  0  0  0  0  0  0  0  0  0
    4.5708   -4.8753   -4.3430 N   0  0  0  0  0  0  0  0  0  0  0  0
    1.5363   -3.2934   -5.5893 C   0  0  0  0  0  0  0  0  0  0  0  0
    0.9037   -2.3254   -6.3206 C   0  0  0  0  0  0  0  0  0  0  0  0
    1.2820   -0.7303   -6.7612 S   0  0  0  0  0  0  0  0  0  0  0  0
   -0.3721   -0.2932   -6.7600 C   0  0  0  0  0  0  0  0  0  0  0  0
   -1.0311    0.9430   -6.7185 C   0  0  0  0  0  0  0  0  0  0  0  0
   -0.3697    2.2602   -6.8345 C   0  0  0  0  0  0  0  0  0  0  0  0
    0.7702    2.5643   -6.0712 C   0  0  0  0  0  0  0  0  0  0  0  0
    1.3460    3.8348   -6.1385 C   0  0  0  0  0  0  0  0  0  0  0  0
    0.7859    4.8176   -6.9588 C   0  0  0  0  0  0  0  0  0  0  0  0
   -0.3653    4.5370   -7.7121 C   0  0  0  0  0  0  0  0  0  0  0  0
   -0.9623    5.5889   -8.6102 C   0  0  0  0  0  0  0  0  0  0  0  0
   -0.3480    5.5183  -10.0048 C   0  0  0  0  0  0  0  0  0  0  0  0
   -0.9318    3.2530   -7.6539 C   0  0  0  0  0  0  0  0  0  0  0  0
   -2.3823    0.7816   -6.3606 C   0  0  0  0  0  0  0  0  0  0  0  0
   -2.7029   -0.8539   -6.0221 S   0  0  0  0  0  0  0  0  0  0  0  0
   -1.1589   -1.3627   -6.4148 C   0  0  0  0  0  0  0  0  0  0  0  0
   -0.4298   -2.5015   -6.1275 C   0  0  0  0  0  0  0  0  0  0  0  0
   -0.7188   -3.5314   -5.2992 N   0  0  0  0  0  0  0  0  0  0  0  0
    0.5206   -3.9745   -4.9046 C   0  0  0  0  0  0  0  0  0  0  0  0
    0.8892   -4.8533   -3.8528 C   0  0  0  0  0  0  0  0  0  0  0  0
    0.2403   -5.1005   -2.6690 N   0  0  0  0  0  0  0  0  0  0  0  0
    1.1542   -5.7712   -1.9231 C   0  0  0  0  0  0  0  0  0  0  0  0
    1.2942   -5.9185   -0.5469 C   0  0  0  0  0  0  0  0  0  0  0  0
    0.4139   -5.4720    0.8042 S   0  0  0  0  0  0  0  0  0  0  0  0
   -0.9091   -4.3851   -2.0967 C   0  0  0  0  0  0  0  0  0  0  0  0
   -0.5218   -2.9650   -1.6834 C   0  0  0  0  0  0  0  0  0  0  0  0
   -2.0119   -4.2402   -5.3596 C   0  0  0  0  0  0  0  0  0  0  0  0
   -1.8775   -5.7625   -5.3147 C   0  0  0  0  0  0  0  0  0  0  0  0
   -3.2411    1.8506   -5.8513 C   0  0  0  0  0  0  0  0  0  0  0  0
   -4.4215    2.3038   -6.4260 C   0  0  0  0  0  0  0  0  0  0  0  0
   -5.1462    3.1534   -5.5777 C   0  0  0  0  0  0  0  0  0  0  0  0
   -6.7504    3.8303   -6.0072 S   0  0  0  0  0  0  0  0  0  0  0  0
   -6.0507    5.3471   -6.7433 C   0  0  0  0  0  0  0  0  0  0  0  0
   -7.1468    6.3875   -6.9249 C   0  0  0  0  0  0  0  0  0  0  0  0
   -4.5353    3.3769   -4.3447 C   0  0  0  0  0  0  0  0  0  0  0  0
   -3.1220    2.4657   -4.2948 S   0  0  0  0  0  0  0  0  0  0  0  0
   -5.2075    3.9292   -3.1586 C   0  0  0  0  0  0  0  0  0  0  0  0
   -4.6017    4.6958   -2.2334 C   0  0  0  0  0  0  0  0  0  0  0  0
   -3.2185    5.1853   -2.2909 C   0  0  0  0  0  0  0  0  0  0  0  0
   -2.4968    5.2713   -3.3200 O   0  0  0  0  0  0  0  0  0  0  0  0
   -2.8305    5.6235   -0.9689 C   0  0  0  0  0  0  0  0  0  0  0  0
   -1.5694    6.0363   -0.5382 C   0  0  0  0  0  0  0  0  0  0  0  0
   -1.3852    6.3201    0.8254 C   0  0  0  0  0  0  0  0  0  0  0  0
   -0.1347    6.7345    1.3060 C   0  0  0  0  0  0  0  0  0  0  0  0
    0.0496    6.9830    2.6693 C   0  0  0  0  0  0  0  0  0  0  0  0
   -1.0127    6.8239    3.5628 C   0  0  0  0  0  0  0  0  0  0  0  0
   -0.8225    7.0604    4.8873 F   0  0  0  0  0  0  0  0  0  0  0  0
   -2.2671    6.4108    3.1029 C   0  0  0  0  0  0  0  0  0  0  0  0
   -2.4691    6.1575    1.7348 C   0  0  0  0  0  0  0  0  0  0  0  0
   -3.7284    5.7355    1.2651 C   0  0  0  0  0  0  0  0  0  0  0  0
   -3.9076    5.5020   -0.1088 C   0  0  0  0  0  0  0  0  0  0  0  0
   -5.1095    5.0371   -0.8660 C   0  0  0  0  0  0  0  0  0  0  0  0
   -6.4023    5.0972   -0.4478 C   0  0  0  0  0  0  0  0  0  0  0  0
   -7.5161    4.7885   -1.3040 C   0  0  0  0  0  0  0  0  0  0  0  0
   -8.4207    4.5401   -1.9841 N   0  0  0  0  0  0  0  0  0  0  0  0
   -6.7780    5.5750    0.8561 C   0  0  0  0  0  0  0  0  0  0  0  0
   -7.1016    5.9536    1.8992 N   0  0  0  0  0  0  0  0  0  0  0  0
    3.6684   -3.5725    6.9885 H   0  0  0  0  0  0  0  0  0  0  0  0
    1.7125    1.4465    3.8032 H   0  0  0  0  0  0  0  0  0  0  0  0
    2.1269    3.8489    3.2835 H   0  0  0  0  0  0  0  0  0  0  0  0
    3.3778    5.9283    3.7036 H   0  0  0  0  0  0  0  0  0  0  0  0
    5.4877    4.0675    6.9411 H   0  0  0  0  0  0  0  0  0  0  0  0
    5.0216    1.7277    7.5235 H   0  0  0  0  0  0  0  0  0  0  0  0
   -3.7274   -5.8040    2.8068 H   0  0  0  0  0  0  0  0  0  0  0  0
   -5.0055   -4.5568    2.9663 H   0  0  0  0  0  0  0  0  0  0  0  0
   -3.5690   -2.9148    1.6842 H   0  0  0  0  0  0  0  0  0  0  0  0
   -2.3396   -4.2196    1.4355 H   0  0  0  0  0  0  0  0  0  0  0  0
   -3.9983   -4.3843    0.7325 H   0  0  0  0  0  0  0  0  0  0  0  0
   -1.9746   -1.9349    7.9737 H   0  0  0  0  0  0  0  0  0  0  0  0
   -3.5102   -1.2596    7.3392 H   0  0  0  0  0  0  0  0  0  0  0  0
   -1.6943    0.4347    7.2287 H   0  0  0  0  0  0  0  0  0  0  0  0
   -0.6993   -0.6562    6.1943 H   0  0  0  0  0  0  0  0  0  0  0  0
   -2.2649    0.0031    5.5684 H   0  0  0  0  0  0  0  0  0  0  0  0
    5.2296   -5.0214    1.0626 H   0  0  0  0  0  0  0  0  0  0  0  0
    7.3393   -5.7992    2.0828 H   0  0  0  0  0  0  0  0  0  0  0  0
    7.3981   -7.8839    3.4113 H   0  0  0  0  0  0  0  0  0  0  0  0
    4.6452  -10.3454    3.4548 H   0  0  0  0  0  0  0  0  0  0  0  0
    6.3521  -10.0371    3.9059 H   0  0  0  0  0  0  0  0  0  0  0  0
    3.8854   -8.9425    5.4164 H   0  0  0  0  0  0  0  0  0  0  0  0
    4.9144  -10.3434    5.9140 H   0  0  0  0  0  0  0  0  0  0  0  0
    5.6235   -8.6812    5.8715 H   0  0  0  0  0  0  0  0  0  0  0  0
    3.1782   -8.4252    2.7292 H   0  0  0  0  0  0  0  0  0  0  0  0
    1.1960    1.8311   -5.3972 H   0  0  0  0  0  0  0  0  0  0  0  0
    2.2174    4.0638   -5.5365 H   0  0  0  0  0  0  0  0  0  0  0  0
    1.2435    5.7985   -7.0007 H   0  0  0  0  0  0  0  0  0  0  0  0
   -2.0618    5.4457   -8.6862 H   0  0  0  0  0  0  0  0  0  0  0  0
   -0.7880    6.6008   -8.1840 H   0  0  0  0  0  0  0  0  0  0  0  0
   -0.8052    6.2923  -10.6552 H   0  0  0  0  0  0  0  0  0  0  0  0
   -0.5316    4.5170  -10.4557 H   0  0  0  0  0  0  0  0  0  0  0  0
    0.7482    5.7024   -9.9512 H   0  0  0  0  0  0  0  0  0  0  0  0
   -1.8151    3.0301   -8.2411 H   0  0  0  0  0  0  0  0  0  0  0  0
   -1.3074   -4.9373   -1.2239 H   0  0  0  0  0  0  0  0  0  0  0  0
   -1.7463   -4.3471   -2.7956 H   0  0  0  0  0  0  0  0  0  0  0  0
   -1.3316   -2.5131   -1.0792 H   0  0  0  0  0  0  0  0  0  0  0  0
    0.4029   -2.9827   -1.0702 H   0  0  0  0  0  0  0  0  0  0  0  0
   -0.3491   -2.3370   -2.5805 H   0  0  0  0  0  0  0  0  0  0  0  0
   -2.5008   -4.0065   -6.3307 H   0  0  0  0  0  0  0  0  0  0  0  0
   -2.7141   -3.8556   -4.5989 H   0  0  0  0  0  0  0  0  0  0  0  0
   -1.5237   -6.1133   -4.3268 H   0  0  0  0  0  0  0  0  0  0  0  0
   -1.1738   -6.1072   -6.1045 H   0  0  0  0  0  0  0  0  0  0  0  0
   -2.8704   -6.2271   -5.4973 H   0  0  0  0  0  0  0  0  0  0  0  0
   -4.7736    1.9821   -7.3968 H   0  0  0  0  0  0  0  0  0  0  0  0
   -5.2663    5.7695   -6.0796 H   0  0  0  0  0  0  0  0  0  0  0  0
   -5.6028    5.1042   -7.7322 H   0  0  0  0  0  0  0  0  0  0  0  0
   -7.9767    5.9720   -7.5365 H   0  0  0  0  0  0  0  0  0  0  0  0
   -6.7349    7.2750   -7.4437 H   0  0  0  0  0  0  0  0  0  0  0  0
   -7.5419    6.6992   -5.9327 H   0  0  0  0  0  0  0  0  0  0  0  0
   -6.2155    3.5818   -3.0109 H   0  0  0  0  0  0  0  0  0  0  0  0
   -0.7514    6.1190   -1.2452 H   0  0  0  0  0  0  0  0  0  0  0  0
    0.7001    6.8603    0.6285 H   0  0  0  0  0  0  0  0  0  0  0  0
    1.0158    7.3061    3.0294 H   0  0  0  0  0  0  0  0  0  0  0  0
   -3.0808    6.2948    3.8121 H   0  0  0  0  0  0  0  0  0  0  0  0
   -4.5175    5.5605    1.9761 H   0  0  0  0  0  0  0  0  0  0  0  0
  1  2  2  3
  2  3  1  0
  3  4  2  0
  3  5  1  0
  5  6  2  0
  6  7  1  0
  7  8  2  0
  8  9  1  0
  9 10  2  0
 10 11  1  0
 10 12  1  0
 12 13  2  0
 13 14  1  0
 14 15  2  0
 15 16  1  0
 16 17  2  3
 17 18  1  0
 18 19  3  0
 17 20  1  0
 20 21  3  0
  1 22  1  0
 22 23  1  0
 23 24  1  0
 24 25  2  0
 25 26  1  0
 26 27  2  0
 26 28  1  0
 28 29  2  0
 29 30  1  0
 30 31  1  0
 29 32  1  0
 32 33  1  0
 33 34  1  0
 34 35  1  0
 33 36  2  0
 36 37  1  0
 37 38  2  0
 37 39  1  0
 24 40  1  0
 40 41  2  0
 41 42  1  0
 42 43  2  0
 43 44  1  0
 44 45  2  0
 45 46  1  0
 46 47  1  0
 47 48  1  0
 46 49  2  0
 41 50  1  0
 50 51  1  0
 51 52  1  0
 52 53  1  0
 53 54  1  0
 54 55  1  0
 55 56  2  0
 56 57  1  0
 57 58  1  0
 55 59  1  0
 59 60  1  0
 60 61  1  0
 61 62  1  0
 62 63  1  0
 63 64  1  0
 64 65  2  0
 65 66  1  0
 66 67  2  0
 67 68  1  0
 68 69  1  0
 69 70  1  0
 68 71  2  0
 63 72  2  0
 72 73  1  0
 73 74  1  0
 74 75  1  0
 75 76  1  0
 76 77  1  0
 77 78  1  0
 78 79  1  0
 79 80  1  0
 80 81  1  0
 81 82  1  0
 79 83  1  0
 83 84  1  0
 76 85  1  0
 85 86  1  0
 72 87  1  0
 87 88  2  0
 88 89  1  0
 89 90  1  0
 90 91  1  0
 91 92  1  0
 89 93  2  0
 93 94  1  0
 93 95  1  0
 95 96  2  3
 96 97  1  0
 97 98  2  0
 97 99  1  0
 99100  2  0
100101  1  0
101102  2  0
102103  1  0
103104  2  0
104105  1  0
104106  1  0
106107  2  0
107108  1  0
108109  2  0
109110  1  0
110111  2  3
111112  1  0
112113  3  0
111114  1  0
114115  3  0
 16  2  1  0
 39 22  2  0
 82 40  1  0
 94 87  1  0
110 96  1  0
 15  5  1  0
 39 25  1  0
 49 42  1  0
 81 50  2  0
109 99  1  0
 13  7  1  0
 36 28  1  0
 80 52  2  0
107101  1  0
 78 53  2  0
 58 54  2  0
 77 59  2  0
 75 60  2  0
 74 62  2  0
 71 64  1  0
  1116  1  0
  6117  1  0
  8118  1  0
  9119  1  0
 12120  1  0
 14121  1  0
 30122  1  0
 30123  1  0
 31124  1  0
 31125  1  0
 31126  1  0
 34127  1  0
 34128  1  0
 35129  1  0
 35130  1  0
 35131  1  0
 43132  1  0
 44133  1  0
 45134  1  0
 47135  1  0
 47136  1  0
 48137  1  0
 48138  1  0
 48139  1  0
 49140  1  0
 65141  1  0
 66142  1  0
 67143  1  0
 69144  1  0
 69145  1  0
 70146  1  0
 70147  1  0
 70148  1  0
 71149  1  0
 83150  1  0
 83151  1  0
 84152  1  0
 84153  1  0
 84154  1  0
 85155  1  0
 85156  1  0
 86157  1  0
 86158  1  0
 86159  1  0
 88160  1  0
 91161  1  0
 91162  1  0
 92163  1  0
 92164  1  0
 92165  1  0
 95166  1  0
100167  1  0
102168  1  0
103169  1  0
106170  1  0
108171  1  0
M  END

