
     RDKit          3D

165181  0  0  0  0  0  0  0  0999 V2000
    7.3562   -5.5264   -3.9506 C   0  0  0  0  0  0  0  0  0  0  0  0
    7.0357   -5.9900   -2.7248 C   0  0  0  0  0  0  0  0  0  0  0  0
    5.8416   -5.5928   -1.9599 C   0  0  0  0  0  0  0  0  0  0  0  0
    5.0615   -4.6368   -2.2202 O   0  0  0  0  0  0  0  0  0  0  0  0
    5.6747   -6.5110   -0.8588 C   0  0  0  0  0  0  0  0  0  0  0  0
    4.6216   -6.5610    0.0514 C   0  0  0  0  0  0  0  0  0  0  0  0
    4.6095   -7.5888    1.0071 C   0  0  0  0  0  0  0  0  0  0  0  0
    3.5744   -7.6689    1.9515 C   0  0  0  0  0  0  0  0  0  0  0  0
    3.5625   -8.7014    2.8919 C   0  0  0  0  0  0  0  0  0  0  0  0
    4.5765   -9.6638    2.8976 C   0  0  0  0  0  0  0  0  0  0  0  0
    4.5571  -10.6622    3.8152 F   0  0  0  0  0  0  0  0  0  0  0  0
    5.6132   -9.6000    1.9596 C   0  0  0  0  0  0  0  0  0  0  0  0
    5.6444   -8.5661    1.0108 C   0  0  0  0  0  0  0  0  0  0  0  0
    6.6880   -8.4942    0.0628 C   0  0  0  0  0  0  0  0  0  0  0  0
    6.7056   -7.4320   -0.8592 C   0  0  0  0  0  0  0  0  0  0  0  0
    7.6679   -7.1095   -1.9584 C   0  0  0  0  0  0  0  0  0  0  0  0
    8.9437   -7.5611   -2.0807 C   0  0  0  0  0  0  0  0  0  0  0  0
    9.5215   -8.5103   -1.1648 C   0  0  0  0  0  0  0  0  0  0  0  0
   10.0078   -9.2648   -0.4356 N   0  0  0  0  0  0  0  0  0  0  0  0
    9.8679   -7.0180   -3.0410 C   0  0  0  0  0  0  0  0  0  0  0  0
   10.6214   -6.5866   -3.8057 N   0  0  0  0  0  0  0  0  0  0  0  0
    6.5902   -4.4406   -4.5875 C   0  0  0  0  0  0  0  0  0  0  0  0
    6.8249   -3.1215   -4.1821 C   0  0  0  0  0  0  0  0  0  0  0  0
    5.8887   -2.1137   -4.4661 C   0  0  0  0  0  0  0  0  0  0  0  0
    6.0376   -0.8033   -3.9867 O   0  0  0  0  0  0  0  0  0  0  0  0
    7.1483   -0.3431   -3.2220 C   0  0  0  0  0  0  0  0  0  0  0  0
    7.0107    1.1524   -2.9828 C   0  0  0  0  0  0  0  0  0  0  0  0
    4.7405   -2.4348   -5.2102 C   0  0  0  0  0  0  0  0  0  0  0  0
    4.5734   -3.7288   -5.7232 C   0  0  0  0  0  0  0  0  0  0  0  0
    5.4859   -4.7468   -5.3945 C   0  0  0  0  0  0  0  0  0  0  0  0
    5.2914   -6.0784   -5.7925 O   0  0  0  0  0  0  0  0  0  0  0  0
    4.1906   -6.5451   -6.5644 C   0  0  0  0  0  0  0  0  0  0  0  0
    4.2849   -8.0563   -6.7135 C   0  0  0  0  0  0  0  0  0  0  0  0
    3.5698   -1.5507   -5.1477 C   0  0  0  0  0  0  0  0  0  0  0  0
    3.1397   -0.5904   -6.0871 C   0  0  0  0  0  0  0  0  0  0  0  0
    3.8253   -0.2795   -7.3618 C   0  0  0  0  0  0  0  0  0  0  0  0
    3.0876   -0.1908   -8.5533 C   0  0  0  0  0  0  0  0  0  0  0  0
    3.7264    0.0977   -9.7618 C   0  0  0  0  0  0  0  0  0  0  0  0
    5.1045    0.3162   -9.7943 C   0  0  0  0  0  0  0  0  0  0  0  0
    5.8562    0.2524   -8.6102 C   0  0  0  0  0  0  0  0  0  0  0  0
    7.3449    0.4669   -8.6420 C   0  0  0  0  0  0  0  0  0  0  0  0
    8.0780   -0.8462   -8.8899 C   0  0  0  0  0  0  0  0  0  0  0  0
    5.2119   -0.0576   -7.3978 C   0  0  0  0  0  0  0  0  0  0  0  0
    1.9284   -0.0126   -5.6690 C   0  0  0  0  0  0  0  0  0  0  0  0
    0.9302    1.2394   -6.2749 S   0  0  0  0  0  0  0  0  0  0  0  0
   -0.1593    1.0413   -4.9846 C   0  0  0  0  0  0  0  0  0  0  0  0
   -1.2361    1.6731   -4.4256 C   0  0  0  0  0  0  0  0  0  0  0  0
   -1.8406    2.8973   -4.7458 C   0  0  0  0  0  0  0  0  0  0  0  0
   -2.7869    3.4528   -3.8356 C   0  0  0  0  0  0  0  0  0  0  0  0
   -3.3224    4.6565   -4.1595 N   0  0  0  0  0  0  0  0  0  0  0  0
   -2.5278    4.9361   -5.5882 S   0  0  0  0  0  0  0  0  0  0  0  0
   -1.5376    3.6333   -5.8454 N   0  0  0  0  0  0  0  0  0  0  0  0
   -3.1186    2.7283   -2.6870 C   0  0  0  0  0  0  0  0  0  0  0  0
   -3.9985    2.9917   -1.6728 C   0  0  0  0  0  0  0  0  0  0  0  0
   -4.9625    4.2599   -1.0794 S   0  0  0  0  0  0  0  0  0  0  0  0
   -5.4153    3.3151    0.2742 C   0  0  0  0  0  0  0  0  0  0  0  0
   -6.1645    3.5665    1.4267 C   0  0  0  0  0  0  0  0  0  0  0  0
   -6.8355    4.8446    1.7430 C   0  0  0  0  0  0  0  0  0  0  0  0
   -8.1790    4.8482    2.1506 C   0  0  0  0  0  0  0  0  0  0  0  0
   -8.7992    6.0456    2.5141 C   0  0  0  0  0  0  0  0  0  0  0  0
   -8.0872    7.2460    2.4775 C   0  0  0  0  0  0  0  0  0  0  0  0
   -6.7419    7.2593    2.0781 C   0  0  0  0  0  0  0  0  0  0  0  0
   -5.9686    8.5519    2.0507 C   0  0  0  0  0  0  0  0  0  0  0  0
   -5.7629    9.0387    0.6204 C   0  0  0  0  0  0  0  0  0  0  0  0
   -6.1230    6.0556    1.7033 C   0  0  0  0  0  0  0  0  0  0  0  0
   -6.1694    2.4418    2.2711 C   0  0  0  0  0  0  0  0  0  0  0  0
   -5.2286    1.1910    1.6011 S   0  0  0  0  0  0  0  0  0  0  0  0
   -4.8439    2.0664    0.2248 C   0  0  0  0  0  0  0  0  0  0  0  0
   -4.0229    1.9001   -0.8779 C   0  0  0  0  0  0  0  0  0  0  0  0
   -3.2026    0.9098   -1.3054 N   0  0  0  0  0  0  0  0  0  0  0  0
   -2.5699    1.4614   -2.3973 C   0  0  0  0  0  0  0  0  0  0  0  0
   -1.5162    0.9769   -3.2295 C   0  0  0  0  0  0  0  0  0  0  0  0
   -0.5446    0.0284   -2.9968 N   0  0  0  0  0  0  0  0  0  0  0  0
    0.2318    0.0867   -4.1113 C   0  0  0  0  0  0  0  0  0  0  0  0
    1.4300   -0.5030   -4.4883 C   0  0  0  0  0  0  0  0  0  0  0  0
    2.4531   -1.6691   -3.8713 S   0  0  0  0  0  0  0  0  0  0  0  0
   -0.1342   -0.6087   -1.7362 C   0  0  0  0  0  0  0  0  0  0  0  0
    0.1500    0.4246   -0.6485 C   0  0  0  0  0  0  0  0  0  0  0  0
   -3.3243   -0.4911   -0.8711 C   0  0  0  0  0  0  0  0  0  0  0  0
   -3.5923   -1.4345   -2.0449 C   0  0  0  0  0  0  0  0  0  0  0  0
   -6.6940    2.4178    3.6438 C   0  0  0  0  0  0  0  0  0  0  0  0
   -7.6437    1.5437    4.1844 C   0  0  0  0  0  0  0  0  0  0  0  0
   -8.2890    0.4172    3.4281 C   0  0  0  0  0  0  0  0  0  0  0  0
   -7.7124   -0.9288    3.8550 C   0  0  0  0  0  0  0  0  0  0  0  0
   -7.9686    1.7899    5.4856 N   0  0  0  0  0  0  0  0  0  0  0  0
   -7.3093    2.8603    5.9877 C   0  0  0  0  0  0  0  0  0  0  0  0
   -6.2643    3.5142    4.8361 S   0  0  0  0  0  0  0  0  0  0  0  0
   -7.4523    3.2782    7.3991 C   0  0  0  0  0  0  0  0  0  0  0  0
   -7.0873    4.4734    7.9019 C   0  0  0  0  0  0  0  0  0  0  0  0
   -6.4989    5.7971    7.0584 S   0  0  0  0  0  0  0  0  0  0  0  0
   -6.3284    6.7999    8.4077 C   0  0  0  0  0  0  0  0  0  0  0  0
   -5.9289    8.0952    8.2898 C   0  0  0  0  0  0  0  0  0  0  0  0
   -5.5743    8.6296    6.9935 C   0  0  0  0  0  0  0  0  0  0  0  0
   -5.3035    9.0500    5.9519 N   0  0  0  0  0  0  0  0  0  0  0  0
   -5.9537    9.0663    9.3505 C   0  0  0  0  0  0  0  0  0  0  0  0
   -5.9644    9.8663   10.1864 N   0  0  0  0  0  0  0  0  0  0  0  0
   -6.7018    6.1152    9.5447 N   0  0  0  0  0  0  0  0  0  0  0  0
   -6.4823    6.5259   10.9448 C   0  0  0  0  0  0  0  0  0  0  0  0
   -5.0538    6.2705   11.3673 C   0  0  0  0  0  0  0  0  0  0  0  0
   -4.1986    7.3314   11.7165 C   0  0  0  0  0  0  0  0  0  0  0  0
   -2.8753    7.0825   12.0902 C   0  0  0  0  0  0  0  0  0  0  0  0
   -2.3951    5.7723   12.1366 C   0  0  0  0  0  0  0  0  0  0  0  0
   -3.2440    4.7065   11.8223 C   0  0  0  0  0  0  0  0  0  0  0  0
   -4.5643    4.9530   11.4354 C   0  0  0  0  0  0  0  0  0  0  0  0
   -7.1492    4.8473    9.2443 C   0  0  0  0  0  0  0  0  0  0  0  0
   -7.5708    4.0599   10.1370 O   0  0  0  0  0  0  0  0  0  0  0  0
    8.1243   -5.9934   -4.5436 H   0  0  0  0  0  0  0  0  0  0  0  0
    3.8246   -5.8285    0.0087 H   0  0  0  0  0  0  0  0  0  0  0  0
    2.7771   -6.9364    1.9616 H   0  0  0  0  0  0  0  0  0  0  0  0
    2.7607   -8.7575    3.6212 H   0  0  0  0  0  0  0  0  0  0  0  0
    6.3926  -10.3529    1.9797 H   0  0  0  0  0  0  0  0  0  0  0  0
    7.4321   -9.2726    0.0392 H   0  0  0  0  0  0  0  0  0  0  0  0
    7.6843   -2.9108   -3.5595 H   0  0  0  0  0  0  0  0  0  0  0  0
    8.0957   -0.5348   -3.7729 H   0  0  0  0  0  0  0  0  0  0  0  0
    7.1751   -0.8702   -2.2434 H   0  0  0  0  0  0  0  0  0  0  0  0
    7.8621    1.5172   -2.3691 H   0  0  0  0  0  0  0  0  0  0  0  0
    6.0609    1.3681   -2.4505 H   0  0  0  0  0  0  0  0  0  0  0  0
    7.0135    1.6933   -3.9531 H   0  0  0  0  0  0  0  0  0  0  0  0
    3.6746   -3.9543   -6.2802 H   0  0  0  0  0  0  0  0  0  0  0  0
    4.2102   -6.0739   -7.5724 H   0  0  0  0  0  0  0  0  0  0  0  0
    3.2390   -6.2926   -6.0517 H   0  0  0  0  0  0  0  0  0  0  0  0
    5.2143   -8.3320   -7.2524 H   0  0  0  0  0  0  0  0  0  0  0  0
    3.4079   -8.4313   -7.2817 H   0  0  0  0  0  0  0  0  0  0  0  0
    4.2909   -8.5335   -5.7086 H   0  0  0  0  0  0  0  0  0  0  0  0
    2.0189   -0.3681   -8.5561 H   0  0  0  0  0  0  0  0  0  0  0  0
    3.1490    0.1522  -10.6768 H   0  0  0  0  0  0  0  0  0  0  0  0
    5.5861    0.5348  -10.7407 H   0  0  0  0  0  0  0  0  0  0  0  0
    7.6897    0.8998   -7.6788 H   0  0  0  0  0  0  0  0  0  0  0  0
    7.6113    1.1918   -9.4411 H   0  0  0  0  0  0  0  0  0  0  0  0
    7.7978   -1.5986   -8.1230 H   0  0  0  0  0  0  0  0  0  0  0  0
    9.1729   -0.6774   -8.8373 H   0  0  0  0  0  0  0  0  0  0  0  0
    7.8255   -1.2448   -9.8937 H   0  0  0  0  0  0  0  0  0  0  0  0
    5.7904   -0.0981   -6.4860 H   0  0  0  0  0  0  0  0  0  0  0  0
   -8.7450    3.9261    2.1854 H   0  0  0  0  0  0  0  0  0  0  0  0
   -9.8343    6.0379    2.8341 H   0  0  0  0  0  0  0  0  0  0  0  0
   -8.5871    8.1623    2.7646 H   0  0  0  0  0  0  0  0  0  0  0  0
   -6.5055    9.3383    2.6240 H   0  0  0  0  0  0  0  0  0  0  0  0
   -4.9865    8.4026    2.5435 H   0  0  0  0  0  0  0  0  0  0  0  0
   -5.2557   10.0278    0.6328 H   0  0  0  0  0  0  0  0  0  0  0  0
   -5.1211    8.3241    0.0592 H   0  0  0  0  0  0  0  0  0  0  0  0
   -6.7374    9.1355    0.0992 H   0  0  0  0  0  0  0  0  0  0  0  0
   -5.0804    6.0574    1.4072 H   0  0  0  0  0  0  0  0  0  0  0  0
   -0.8555   -1.3789   -1.4342 H   0  0  0  0  0  0  0  0  0  0  0  0
    0.7961   -1.1811   -1.8755 H   0  0  0  0  0  0  0  0  0  0  0  0
    0.9257    1.1396   -1.0022 H   0  0  0  0  0  0  0  0  0  0  0  0
   -0.7618    0.9867   -0.3761 H   0  0  0  0  0  0  0  0  0  0  0  0
    0.5313   -0.0931    0.2593 H   0  0  0  0  0  0  0  0  0  0  0  0
   -4.1968   -0.5998   -0.1967 H   0  0  0  0  0  0  0  0  0  0  0  0
   -2.4626   -0.7875   -0.2512 H   0  0  0  0  0  0  0  0  0  0  0  0
   -3.7236   -2.4712   -1.6621 H   0  0  0  0  0  0  0  0  0  0  0  0
   -4.5252   -1.1271   -2.5666 H   0  0  0  0  0  0  0  0  0  0  0  0
   -2.7607   -1.4356   -2.7731 H   0  0  0  0  0  0  0  0  0  0  0  0
   -9.3813    0.4275    3.6264 H   0  0  0  0  0  0  0  0  0  0  0  0
   -8.1467    0.5492    2.3365 H   0  0  0  0  0  0  0  0  0  0  0  0
   -6.6263   -0.9755    3.6236 H   0  0  0  0  0  0  0  0  0  0  0  0
   -7.8668   -1.0877    4.9450 H   0  0  0  0  0  0  0  0  0  0  0  0
   -8.2345   -1.7430    3.3011 H   0  0  0  0  0  0  0  0  0  0  0  0
   -7.8826    2.5442    8.0701 H   0  0  0  0  0  0  0  0  0  0  0  0
   -6.7957    7.5680   11.1233 H   0  0  0  0  0  0  0  0  0  0  0  0
   -7.1479    5.9508   11.6278 H   0  0  0  0  0  0  0  0  0  0  0  0
   -4.5508    8.3523   11.7130 H   0  0  0  0  0  0  0  0  0  0  0  0
   -2.2214    7.9051   12.3513 H   0  0  0  0  0  0  0  0  0  0  0  0
   -1.3713    5.5799   12.4311 H   0  0  0  0  0  0  0  0  0  0  0  0
   -2.8767    3.6887   11.8720 H   0  0  0  0  0  0  0  0  0  0  0  0
   -5.2043    4.1149   11.1983 H   0  0  0  0  0  0  0  0  0  0  0  0
  1  2  2  3
  2  3  1  0
  3  4  2  0
  3  5  1  0
  5  6  2  0
  6  7  1  0
  7  8  2  0
  8  9  1  0
  9 10  2  0
 10 11  1  0
 10 12  1  0
 12 13  2  0
 13 14  1  0
 14 15  2  0
 15 16  1  0
 16 17  2  3
 17 18  1  0
 18 19  3  0
 17 20  1  0
 20 21  3  0
  1 22  1  0
 22 23  2  0
 23 24  1  0
 24 25  1  0
 25 26  1  0
 26 27  1  0
 24 28  2  0
 28 29  1  0
 29 30  2  0
 30 31  1  0
 31 32  1  0
 32 33  1  0
 28 34  1  0
 34 35  2  0
 35 36  1  0
 36 37  2  0
 37 38  1  0
 38 39  2  0
 39 40  1  0
 40 41  1  0
 41 42  1  0
 40 43  2  0
 35 44  1  0
 44 45  1  0
 45 46  1  0
 46 47  1  0
 47 48  1  0
 48 49  1  0
 49 50  2  0
 50 51  1  0
 51 52  1  0
 49 53  1  0
 53 54  1  0
 54 55  1  0
 55 56  1  0
 56 57  1  0
 57 58  1  0
 58 59  2  0
 59 60  1  0
 60 61  2  0
 61 62  1  0
 62 63  1  0
 63 64  1  0
 62 65  2  0
 57 66  2  0
 66 67  1  0
 67 68  1  0
 68 69  1  0
 69 70  1  0
 70 71  1  0
 71 72  1  0
 72 73  1  0
 73 74  1  0
 74 75  1  0
 75 76  1  0
 73 77  1  0
 77 78  1  0
 70 79  1  0
 79 80  1  0
 66 81  1  0
 81 82  2  0
 82 83  1  0
 83 84  1  0
 82 85  1  0
 85 86  2  0
 86 87  1  0
 86 88  1  0
 88 89  2  3
 89 90  1  0
 90 91  1  0
 91 92  2  3
 92 93  1  0
 93 94  3  0
 92 95  1  0
 95 96  3  0
 91 97  1  0
 97 98  1  0
 98 99  1  0
 99100  2  0
100101  1  0
101102  2  0
102103  1  0
103104  2  0
 97105  1  0
105106  2  0
 16  2  1  0
 30 22  1  0
 76 34  1  0
 87 81  1  0
105 89  1  0
 15  5  1  0
 43 36  1  0
 75 44  2  0
104 99  1  0
 13  7  1  0
 74 46  2  0
 72 47  2  0
 52 48  2  0
 71 53  2  0
 69 54  2  0
 68 56  2  0
 65 58  1  0
  1107  1  0
  6108  1  0
  8109  1  0
  9110  1  0
 12111  1  0
 14112  1  0
 23113  1  0
 26114  1  0
 26115  1  0
 27116  1  0
 27117  1  0
 27118  1  0
 29119  1  0
 32120  1  0
 32121  1  0
 33122  1  0
 33123  1  0
 33124  1  0
 37125  1  0
 38126  1  0
 39127  1  0
 41128  1  0
 41129  1  0
 42130  1  0
 42131  1  0
 42132  1  0
 43133  1  0
 59134  1  0
 60135  1  0
 61136  1  0
 63137  1  0
 63138  1  0
 64139  1  0
 64140  1  0
 64141  1  0
 65142  1  0
 77143  1  0
 77144  1  0
 78145  1  0
 78146  1  0
 78147  1  0
 79148  1  0
 79149  1  0
 80150  1  0
 80151  1  0
 80152  1  0
 83153  1  0
 83154  1  0
 84155  1  0
 84156  1  0
 84157  1  0
 88158  1  0
 98159  1  0
 98160  1  0
100161  1  0
101162  1  0
102163  1  0
103164  1  0
104165  1  0
M  END

