
     RDKit          3D

177194  0  0  0  0  0  0  0  0999 V2000
    5.7863   -9.0760   -0.5127 C   0  0  0  0  0  0  0  0  0  0  0  0
    5.5296  -10.3865   -0.3540 C   0  0  0  0  0  0  0  0  0  0  0  0
    4.2709  -11.0669   -0.6949 C   0  0  0  0  0  0  0  0  0  0  0  0
    3.4604  -10.7433   -1.6071 O   0  0  0  0  0  0  0  0  0  0  0  0
    4.1092  -12.1954    0.1909 C   0  0  0  0  0  0  0  0  0  0  0  0
    3.0078  -13.0421    0.2999 C   0  0  0  0  0  0  0  0  0  0  0  0
    2.9832  -13.9784    1.3462 C   0  0  0  0  0  0  0  0  0  0  0  0
    1.8820  -14.8291    1.5182 C   0  0  0  0  0  0  0  0  0  0  0  0
    1.8548  -15.7360    2.5817 C   0  0  0  0  0  0  0  0  0  0  0  0
    2.9238  -15.7996    3.4812 C   0  0  0  0  0  0  0  0  0  0  0  0
    2.8821  -16.6696    4.5200 F   0  0  0  0  0  0  0  0  0  0  0  0
    4.0301  -14.9571    3.3277 C   0  0  0  0  0  0  0  0  0  0  0  0
    4.0790  -14.0485    2.2584 C   0  0  0  0  0  0  0  0  0  0  0  0
    5.1971  -13.2088    2.0906 C   0  0  0  0  0  0  0  0  0  0  0  0
    5.2068  -12.2924    1.0282 C   0  0  0  0  0  0  0  0  0  0  0  0
    6.2162  -11.2698    0.6357 C   0  0  0  0  0  0  0  0  0  0  0  0
    7.5413  -11.2777    0.9146 C   0  0  0  0  0  0  0  0  0  0  0  0
    8.4659  -10.4192    0.2229 C   0  0  0  0  0  0  0  0  0  0  0  0
    9.2097   -9.7272   -0.3303 N   0  0  0  0  0  0  0  0  0  0  0  0
    8.1237  -12.1834    1.8751 C   0  0  0  0  0  0  0  0  0  0  0  0
    8.5845  -12.8991    2.6645 N   0  0  0  0  0  0  0  0  0  0  0  0
    4.7852   -8.1292   -1.0382 C   0  0  0  0  0  0  0  0  0  0  0  0
    4.3788   -8.1806   -2.3803 C   0  0  0  0  0  0  0  0  0  0  0  0
    3.2639   -7.4384   -2.8230 C   0  0  0  0  0  0  0  0  0  0  0  0
    2.7759   -7.5375   -4.1333 O   0  0  0  0  0  0  0  0  0  0  0  0
    3.3681   -8.3404   -5.1484 C   0  0  0  0  0  0  0  0  0  0  0  0
    2.6013   -8.1546   -6.4462 C   0  0  0  0  0  0  0  0  0  0  0  0
    2.5950   -6.6069   -1.9097 C   0  0  0  0  0  0  0  0  0  0  0  0
    3.1089   -6.4406   -0.6158 C   0  0  0  0  0  0  0  0  0  0  0  0
    4.1887   -7.2138   -0.1586 C   0  0  0  0  0  0  0  0  0  0  0  0
    4.6612   -7.1314    1.1668 O   0  0  0  0  0  0  0  0  0  0  0  0
    4.2753   -6.1460    2.1262 C   0  0  0  0  0  0  0  0  0  0  0  0
    4.9492   -4.8136    1.8172 C   0  0  0  0  0  0  0  0  0  0  0  0
    1.2608   -6.0467   -2.2068 C   0  0  0  0  0  0  0  0  0  0  0  0
    0.1203   -6.2905   -1.4189 C   0  0  0  0  0  0  0  0  0  0  0  0
    0.0790   -7.2098   -0.2704 C   0  0  0  0  0  0  0  0  0  0  0  0
    0.0071   -6.7056    1.0383 C   0  0  0  0  0  0  0  0  0  0  0  0
   -0.0629   -7.5816    2.1264 C   0  0  0  0  0  0  0  0  0  0  0  0
   -0.0596   -8.9608    1.9126 C   0  0  0  0  0  0  0  0  0  0  0  0
    0.0402   -9.4774    0.6079 C   0  0  0  0  0  0  0  0  0  0  0  0
   -0.0231  -10.9610    0.3725 C   0  0  0  0  0  0  0  0  0  0  0  0
   -1.4679  -11.4105    0.1820 C   0  0  0  0  0  0  0  0  0  0  0  0
    0.1152   -8.5957   -0.4826 C   0  0  0  0  0  0  0  0  0  0  0  0
   -0.9119   -5.4134   -1.7315 C   0  0  0  0  0  0  0  0  0  0  0  0
   -2.2558   -4.9387   -0.8184 S   0  0  0  0  0  0  0  0  0  0  0  0
   -2.4696   -3.5529   -1.7631 C   0  0  0  0  0  0  0  0  0  0  0  0
   -2.8770   -2.2910   -1.4516 C   0  0  0  0  0  0  0  0  0  0  0  0
   -3.4861   -1.8914   -0.2600 C   0  0  0  0  0  0  0  0  0  0  0  0
   -3.3915   -0.5380    0.1314 C   0  0  0  0  0  0  0  0  0  0  0  0
   -3.9351   -0.1975    1.3283 N   0  0  0  0  0  0  0  0  0  0  0  0
   -4.5149   -1.6711    1.8007 S   0  0  0  0  0  0  0  0  0  0  0  0
   -4.1140   -2.7353    0.5988 N   0  0  0  0  0  0  0  0  0  0  0  0
   -2.7353    0.3507   -0.7091 C   0  0  0  0  0  0  0  0  0  0  0  0
   -2.4561    1.6562   -0.4968 C   0  0  0  0  0  0  0  0  0  0  0  0
   -2.5718    2.7701    0.7691 S   0  0  0  0  0  0  0  0  0  0  0  0
   -1.8721    3.9644   -0.2254 C   0  0  0  0  0  0  0  0  0  0  0  0
   -1.5918    5.3068   -0.0034 C   0  0  0  0  0  0  0  0  0  0  0  0
   -1.6620    5.9354    1.3275 C   0  0  0  0  0  0  0  0  0  0  0  0
   -2.8443    5.9122    2.0829 C   0  0  0  0  0  0  0  0  0  0  0  0
   -2.8534    6.4073    3.3913 C   0  0  0  0  0  0  0  0  0  0  0  0
   -1.6817    6.9322    3.9507 C   0  0  0  0  0  0  0  0  0  0  0  0
   -0.5031    7.0002    3.1865 C   0  0  0  0  0  0  0  0  0  0  0  0
    0.7485    7.6002    3.7654 C   0  0  0  0  0  0  0  0  0  0  0  0
    1.5794    6.5393    4.4770 C   0  0  0  0  0  0  0  0  0  0  0  0
   -0.4914    6.4632    1.8916 C   0  0  0  0  0  0  0  0  0  0  0  0
   -1.1246    5.9333   -1.1733 C   0  0  0  0  0  0  0  0  0  0  0  0
   -1.0477    4.7813   -2.4354 S   0  0  0  0  0  0  0  0  0  0  0  0
   -1.5787    3.4972   -1.4824 C   0  0  0  0  0  0  0  0  0  0  0  0
   -1.8780    2.1383   -1.6098 C   0  0  0  0  0  0  0  0  0  0  0  0
   -1.6976    1.1755   -2.5572 N   0  0  0  0  0  0  0  0  0  0  0  0
   -2.2029    0.0158   -1.9760 C   0  0  0  0  0  0  0  0  0  0  0  0
   -2.2069   -1.3991   -2.3347 C   0  0  0  0  0  0  0  0  0  0  0  0
   -1.3760   -2.1478   -3.1555 N   0  0  0  0  0  0  0  0  0  0  0  0
   -1.5266   -3.4297   -2.7270 C   0  0  0  0  0  0  0  0  0  0  0  0
   -0.6259   -4.5012   -2.7150 C   0  0  0  0  0  0  0  0  0  0  0  0
    0.9624   -4.7144   -3.2310 S   0  0  0  0  0  0  0  0  0  0  0  0
   -0.7846   -1.8960   -4.4769 C   0  0  0  0  0  0  0  0  0  0  0  0
   -1.6631   -2.4703   -5.5855 C   0  0  0  0  0  0  0  0  0  0  0  0
   -1.1991    1.4761   -3.8997 C   0  0  0  0  0  0  0  0  0  0  0  0
   -2.2606    1.1880   -4.9601 C   0  0  0  0  0  0  0  0  0  0  0  0
   -1.1705    7.3899   -1.3698 C   0  0  0  0  0  0  0  0  0  0  0  0
   -2.3593    8.0546   -1.6545 C   0  0  0  0  0  0  0  0  0  0  0  0
   -2.3618    9.4043   -1.2672 C   0  0  0  0  0  0  0  0  0  0  0  0
   -3.5505   10.2849   -1.3624 C   0  0  0  0  0  0  0  0  0  0  0  0
   -3.4847   11.4685   -2.1395 C   0  0  0  0  0  0  0  0  0  0  0  0
   -4.5084   12.4226   -2.0412 C   0  0  0  0  0  0  0  0  0  0  0  0
   -5.6295   12.1950   -1.2397 C   0  0  0  0  0  0  0  0  0  0  0  0
   -6.7027   13.2374   -1.1387 C   0  0  0  0  0  0  0  0  0  0  0  0
   -5.7565   10.9692   -0.5746 C   0  0  0  0  0  0  0  0  0  0  0  0
   -4.7289   10.0129   -0.6175 C   0  0  0  0  0  0  0  0  0  0  0  0
   -4.9658    8.6994    0.0838 C   0  0  0  0  0  0  0  0  0  0  0  0
   -2.3412   11.7537   -3.0857 C   0  0  0  0  0  0  0  0  0  0  0  0
   -1.1566    9.8160   -0.6939 C   0  0  0  0  0  0  0  0  0  0  0  0
   -0.1200    8.4921   -0.6451 S   0  0  0  0  0  0  0  0  0  0  0  0
   -0.9028   11.1042   -0.0190 C   0  0  0  0  0  0  0  0  0  0  0  0
   -1.3615   11.3912    1.2170 C   0  0  0  0  0  0  0  0  0  0  0  0
   -1.9660   10.4285    2.1440 C   0  0  0  0  0  0  0  0  0  0  0  0
   -2.2882    9.2453    1.8808 O   0  0  0  0  0  0  0  0  0  0  0  0
   -1.9974   11.0167    3.4682 C   0  0  0  0  0  0  0  0  0  0  0  0
   -2.4648   10.4449    4.6470 C   0  0  0  0  0  0  0  0  0  0  0  0
   -2.3785   11.1849    5.8427 C   0  0  0  0  0  0  0  0  0  0  0  0
   -2.8268   10.6745    7.0717 O   0  0  0  0  0  0  0  0  0  0  0  0
   -3.2309    9.3260    7.2735 C   0  0  0  0  0  0  0  0  0  0  0  0
   -1.8247   12.4772    5.8132 C   0  0  0  0  0  0  0  0  0  0  0  0
   -1.3643   13.0384    4.6089 C   0  0  0  0  0  0  0  0  0  0  0  0
   -1.4514   12.2891    3.4264 C   0  0  0  0  0  0  0  0  0  0  0  0
   -1.1042   12.6350    2.0137 C   0  0  0  0  0  0  0  0  0  0  0  0
   -0.8367   13.8741    1.5216 C   0  0  0  0  0  0  0  0  0  0  0  0
   -0.9680   14.1786    0.1216 C   0  0  0  0  0  0  0  0  0  0  0  0
   -1.1056   14.4354   -0.9956 N   0  0  0  0  0  0  0  0  0  0  0  0
   -0.5638   15.0101    2.3622 C   0  0  0  0  0  0  0  0  0  0  0  0
   -0.3356   15.9361    3.0179 N   0  0  0  0  0  0  0  0  0  0  0  0
    6.6178   -8.6346    0.0176 H   0  0  0  0  0  0  0  0  0  0  0  0
    2.1827  -12.9574   -0.3998 H   0  0  0  0  0  0  0  0  0  0  0  0
    1.0410  -14.7877    0.8323 H   0  0  0  0  0  0  0  0  0  0  0  0
    1.0000  -16.3897    2.7115 H   0  0  0  0  0  0  0  0  0  0  0  0
    4.8465  -15.0153    4.0421 H   0  0  0  0  0  0  0  0  0  0  0  0
    6.0086  -13.2567    2.8019 H   0  0  0  0  0  0  0  0  0  0  0  0
    4.8884   -8.8572   -3.0529 H   0  0  0  0  0  0  0  0  0  0  0  0
    4.4237   -8.0340   -5.3075 H   0  0  0  0  0  0  0  0  0  0  0  0
    3.3310   -9.4149   -4.8564 H   0  0  0  0  0  0  0  0  0  0  0  0
    3.0306   -8.8111   -7.2342 H   0  0  0  0  0  0  0  0  0  0  0  0
    2.6736   -7.0948   -6.7820 H   0  0  0  0  0  0  0  0  0  0  0  0
    1.5319   -8.4135   -6.2977 H   0  0  0  0  0  0  0  0  0  0  0  0
    2.6040   -5.7617    0.0542 H   0  0  0  0  0  0  0  0  0  0  0  0
    3.1734   -6.0352    2.1637 H   0  0  0  0  0  0  0  0  0  0  0  0
    4.6021   -6.4867    3.1310 H   0  0  0  0  0  0  0  0  0  0  0  0
    4.7942   -4.5315    0.7561 H   0  0  0  0  0  0  0  0  0  0  0  0
    4.5304   -4.0196    2.4657 H   0  0  0  0  0  0  0  0  0  0  0  0
    6.0405   -4.8933    2.0063 H   0  0  0  0  0  0  0  0  0  0  0  0
    0.0079   -5.6361    1.2159 H   0  0  0  0  0  0  0  0  0  0  0  0
   -0.1308   -7.1874    3.1341 H   0  0  0  0  0  0  0  0  0  0  0  0
   -0.1487   -9.6325    2.7601 H   0  0  0  0  0  0  0  0  0  0  0  0
    0.4227  -11.5070    1.2298 H   0  0  0  0  0  0  0  0  0  0  0  0
    0.5601  -11.2248   -0.5349 H   0  0  0  0  0  0  0  0  0  0  0  0
   -2.0717  -11.1518    1.0784 H   0  0  0  0  0  0  0  0  0  0  0  0
   -1.9063  -10.9174   -0.7122 H   0  0  0  0  0  0  0  0  0  0  0  0
   -1.5023  -12.5113    0.0308 H   0  0  0  0  0  0  0  0  0  0  0  0
    0.1695   -8.9843   -1.4966 H   0  0  0  0  0  0  0  0  0  0  0  0
   -3.7573    5.5107    1.6584 H   0  0  0  0  0  0  0  0  0  0  0  0
   -3.7623    6.3786    3.9714 H   0  0  0  0  0  0  0  0  0  0  0  0
   -1.6936    7.2947    4.9707 H   0  0  0  0  0  0  0  0  0  0  0  0
    0.4876    8.4135    4.4790 H   0  0  0  0  0  0  0  0  0  0  0  0
    1.3594    8.0615    2.9535 H   0  0  0  0  0  0  0  0  0  0  0  0
    1.8567    5.7255    3.7744 H   0  0  0  0  0  0  0  0  0  0  0  0
    2.5117    6.9972    4.8728 H   0  0  0  0  0  0  0  0  0  0  0  0
    1.0042    6.1081    5.3250 H   0  0  0  0  0  0  0  0  0  0  0  0
    0.4343    6.4460    1.3293 H   0  0  0  0  0  0  0  0  0  0  0  0
    0.2238   -2.3537   -4.5361 H   0  0  0  0  0  0  0  0  0  0  0  0
   -0.6357   -0.8519   -4.6784 H   0  0  0  0  0  0  0  0  0  0  0  0
   -1.2013   -2.2895   -6.5778 H   0  0  0  0  0  0  0  0  0  0  0  0
   -1.7802   -3.5666   -5.4508 H   0  0  0  0  0  0  0  0  0  0  0  0
   -2.6697   -2.0017   -5.5657 H   0  0  0  0  0  0  0  0  0  0  0  0
   -0.9664    2.5498   -3.9915 H   0  0  0  0  0  0  0  0  0  0  0  0
   -0.2111    1.0094   -4.0612 H   0  0  0  0  0  0  0  0  0  0  0  0
   -1.7958    1.1916   -5.9644 H   0  0  0  0  0  0  0  0  0  0  0  0
   -3.0445    1.9744   -4.9283 H   0  0  0  0  0  0  0  0  0  0  0  0
   -2.7538    0.2137   -4.7874 H   0  0  0  0  0  0  0  0  0  0  0  0
   -3.2372    7.5454   -2.0258 H   0  0  0  0  0  0  0  0  0  0  0  0
   -4.4254   13.3471   -2.5980 H   0  0  0  0  0  0  0  0  0  0  0  0
   -6.2507   14.2443   -1.0536 H   0  0  0  0  0  0  0  0  0  0  0  0
   -7.3493   13.2097   -2.0382 H   0  0  0  0  0  0  0  0  0  0  0  0
   -7.3374   13.0743   -0.2404 H   0  0  0  0  0  0  0  0  0  0  0  0
   -6.6548   10.7657   -0.0072 H   0  0  0  0  0  0  0  0  0  0  0  0
   -5.4818    8.0045   -0.6125 H   0  0  0  0  0  0  0  0  0  0  0  0
   -5.6085    8.8416    0.9814 H   0  0  0  0  0  0  0  0  0  0  0  0
   -4.0298    8.2195    0.4341 H   0  0  0  0  0  0  0  0  0  0  0  0
   -2.7359   12.2033   -4.0189 H   0  0  0  0  0  0  0  0  0  0  0  0
   -1.7976   10.8296   -3.3821 H   0  0  0  0  0  0  0  0  0  0  0  0
   -1.6252   12.4566   -2.6220 H   0  0  0  0  0  0  0  0  0  0  0  0
   -0.2664   11.8099   -0.5366 H   0  0  0  0  0  0  0  0  0  0  0  0
   -2.8987    9.4553    4.6247 H   0  0  0  0  0  0  0  0  0  0  0  0
   -2.4047    8.6364    7.0144 H   0  0  0  0  0  0  0  0  0  0  0  0
   -4.1215    9.0942    6.6560 H   0  0  0  0  0  0  0  0  0  0  0  0
   -3.4933    9.1789    8.3391 H   0  0  0  0  0  0  0  0  0  0  0  0
   -1.7345   13.0433    6.7386 H   0  0  0  0  0  0  0  0  0  0  0  0
   -0.9264   14.0182    4.6464 H   0  0  0  0  0  0  0  0  0  0  0  0
  1  2  2  3
  2  3  1  0
  3  4  2  0
  3  5  1  0
  5  6  2  0
  6  7  1  0
  7  8  2  0
  8  9  1  0
  9 10  2  0
 10 11  1  0
 10 12  1  0
 12 13  2  0
 13 14  1  0
 14 15  2  0
 15 16  1  0
 16 17  2  3
 17 18  1  0
 18 19  3  0
 17 20  1  0
 20 21  3  0
  1 22  1  0
 22 23  2  0
 23 24  1  0
 24 25  1  0
 25 26  1  0
 26 27  1  0
 24 28  2  0
 28 29  1  0
 29 30  2  0
 30 31  1  0
 31 32  1  0
 32 33  1  0
 28 34  1  0
 34 35  2  0
 35 36  1  0
 36 37  2  0
 37 38  1  0
 38 39  2  0
 39 40  1  0
 40 41  1  0
 41 42  1  0
 40 43  2  0
 35 44  1  0
 44 45  1  0
 45 46  1  0
 46 47  1  0
 47 48  1  0
 48 49  1  0
 49 50  2  0
 50 51  1  0
 51 52  1  0
 49 53  1  0
 53 54  1  0
 54 55  1  0
 55 56  1  0
 56 57  1  0
 57 58  1  0
 58 59  2  0
 59 60  1  0
 60 61  2  0
 61 62  1  0
 62 63  1  0
 63 64  1  0
 62 65  2  0
 57 66  2  0
 66 67  1  0
 67 68  1  0
 68 69  1  0
 69 70  1  0
 70 71  1  0
 71 72  1  0
 72 73  1  0
 73 74  1  0
 74 75  1  0
 75 76  1  0
 73 77  1  0
 77 78  1  0
 70 79  1  0
 79 80  1  0
 66 81  1  0
 81 82  2  0
 82 83  1  0
 83 84  1  0
 84 85  2  0
 85 86  1  0
 86 87  2  0
 87 88  1  0
 87 89  1  0
 89 90  2  0
 90 91  1  0
 85 92  1  0
 83 93  2  0
 93 94  1  0
 93 95  1  0
 95 96  2  3
 96 97  1  0
 97 98  2  0
 97 99  1  0
 99100  2  0
100101  1  0
101102  1  0
102103  1  0
101104  2  0
104105  1  0
105106  2  0
106107  1  0
107108  2  3
108109  1  0
109110  3  0
108111  1  0
111112  3  0
 16  2  1  0
 30 22  1  0
 76 34  1  0
 94 81  1  0
107 96  1  0
 15  5  1  0
 43 36  1  0
 75 44  2  0
 90 84  1  0
106 99  1  0
 13  7  1  0
 74 46  2  0
 72 47  2  0
 52 48  2  0
 71 53  2  0
 69 54  2  0
 68 56  2  0
 65 58  1  0
  1113  1  0
  6114  1  0
  8115  1  0
  9116  1  0
 12117  1  0
 14118  1  0
 23119  1  0
 26120  1  0
 26121  1  0
 27122  1  0
 27123  1  0
 27124  1  0
 29125  1  0
 32126  1  0
 32127  1  0
 33128  1  0
 33129  1  0
 33130  1  0
 37131  1  0
 38132  1  0
 39133  1  0
 41134  1  0
 41135  1  0
 42136  1  0
 42137  1  0
 42138  1  0
 43139  1  0
 59140  1  0
 60141  1  0
 61142  1  0
 63143  1  0
 63144  1  0
 64145  1  0
 64146  1  0
 64147  1  0
 65148  1  0
 77149  1  0
 77150  1  0
 78151  1  0
 78152  1  0
 78153  1  0
 79154  1  0
 79155  1  0
 80156  1  0
 80157  1  0
 80158  1  0
 82159  1  0
 86160  1  0
 88161  1  0
 88162  1  0
 88163  1  0
 89164  1  0
 91165  1  0
 91166  1  0
 91167  1  0
 92168  1  0
 92169  1  0
 92170  1  0
 95171  1  0
100172  1  0
103173  1  0
103174  1  0
103175  1  0
104176  1  0
105177  1  0
M  END

