
     RDKit          3D

175193  0  0  0  0  0  0  0  0999 V2000
   -1.5334    2.0817    8.7340 C   0  0  0  0  0  0  0  0  0  0  0  0
   -1.3686    0.7555    8.8980 C   0  0  0  0  0  0  0  0  0  0  0  0
   -1.1802    0.1424   10.2084 C   0  0  0  0  0  0  0  0  0  0  0  0
   -0.8461    0.7416   11.2655 O   0  0  0  0  0  0  0  0  0  0  0  0
   -1.5238   -1.2591   10.1036 C   0  0  0  0  0  0  0  0  0  0  0  0
   -1.5538   -2.2161   11.1152 C   0  0  0  0  0  0  0  0  0  0  0  0
   -1.9608   -3.5221   10.7933 C   0  0  0  0  0  0  0  0  0  0  0  0
   -1.9793   -4.5241   11.7750 C   0  0  0  0  0  0  0  0  0  0  0  0
   -2.3969   -5.8169   11.4504 C   0  0  0  0  0  0  0  0  0  0  0  0
   -2.8015   -6.1204   10.1467 C   0  0  0  0  0  0  0  0  0  0  0  0
   -3.2058   -7.3770    9.8388 F   0  0  0  0  0  0  0  0  0  0  0  0
   -2.7860   -5.1324    9.1567 C   0  0  0  0  0  0  0  0  0  0  0  0
   -2.3623   -3.8315    9.4621 C   0  0  0  0  0  0  0  0  0  0  0  0
   -2.3255   -2.8376    8.4629 C   0  0  0  0  0  0  0  0  0  0  0  0
   -1.8707   -1.5537    8.7953 C   0  0  0  0  0  0  0  0  0  0  0  0
   -1.6400   -0.3586    7.9382 C   0  0  0  0  0  0  0  0  0  0  0  0
   -1.2861   -0.3930    6.6279 C   0  0  0  0  0  0  0  0  0  0  0  0
   -1.5575   -1.5215    5.7784 C   0  0  0  0  0  0  0  0  0  0  0  0
   -1.7669   -2.4211    5.0780 N   0  0  0  0  0  0  0  0  0  0  0  0
   -0.4402    0.6164    6.0426 C   0  0  0  0  0  0  0  0  0  0  0  0
    0.2548    1.4067    5.5575 N   0  0  0  0  0  0  0  0  0  0  0  0
   -2.0948    2.7026    7.5227 C   0  0  0  0  0  0  0  0  0  0  0  0
   -3.4937    2.1926    6.7408 S   0  0  0  0  0  0  0  0  0  0  0  0
   -3.3394    3.1674    5.3799 C   0  0  0  0  0  0  0  0  0  0  0  0
   -2.1332    3.8787    5.4992 C   0  0  0  0  0  0  0  0  0  0  0  0
   -1.4837    4.6722    4.4255 C   0  0  0  0  0  0  0  0  0  0  0  0
   -2.0621    4.8547    3.3218 O   0  0  0  0  0  0  0  0  0  0  0  0
   -0.1326    5.2306    4.6708 C   0  0  0  0  0  0  0  0  0  0  0  0
    0.6330    5.9582    3.7493 C   0  0  0  0  0  0  0  0  0  0  0  0
    0.2210    6.3426    2.3488 C   0  0  0  0  0  0  0  0  0  0  0  0
    1.2964    7.1181    1.5903 C   0  0  0  0  0  0  0  0  0  0  0  0
    2.1001    6.3336    4.4891 S   0  0  0  0  0  0  0  0  0  0  0  0
    1.7957    5.5936    5.9715 C   0  0  0  0  0  0  0  0  0  0  0  0
    2.7457    5.5277    7.1409 C   0  0  0  0  0  0  0  0  0  0  0  0
    4.1062    6.1615    6.8606 C   0  0  0  0  0  0  0  0  0  0  0  0
    0.5145    5.0334    5.9109 C   0  0  0  0  0  0  0  0  0  0  0  0
   -0.1479    4.2717    6.9952 C   0  0  0  0  0  0  0  0  0  0  0  0
    0.4031    4.1361    8.1205 O   0  0  0  0  0  0  0  0  0  0  0  0
   -1.4716    3.6642    6.7253 C   0  0  0  0  0  0  0  0  0  0  0  0
   -4.0044    2.8426    4.1143 C   0  0  0  0  0  0  0  0  0  0  0  0
   -4.8215    3.6691    3.3018 C   0  0  0  0  0  0  0  0  0  0  0  0
   -5.5246    4.9164    3.7216 C   0  0  0  0  0  0  0  0  0  0  0  0
   -6.8223    5.1675    3.2373 C   0  0  0  0  0  0  0  0  0  0  0  0
   -7.5413    6.2847    3.6652 C   0  0  0  0  0  0  0  0  0  0  0  0
   -6.9823    7.1669    4.5894 C   0  0  0  0  0  0  0  0  0  0  0  0
   -5.6896    6.9439    5.0812 C   0  0  0  0  0  0  0  0  0  0  0  0
   -5.1063    7.8665    6.1209 C   0  0  0  0  0  0  0  0  0  0  0  0
   -5.5617    7.4594    7.5192 C   0  0  0  0  0  0  0  0  0  0  0  0
   -4.9685    5.8196    4.6472 C   0  0  0  0  0  0  0  0  0  0  0  0
   -4.9895    3.0721    2.0395 C   0  0  0  0  0  0  0  0  0  0  0  0
   -5.3912    3.7242    0.5093 S   0  0  0  0  0  0  0  0  0  0  0  0
   -4.8467    2.3205   -0.2724 C   0  0  0  0  0  0  0  0  0  0  0  0
   -4.4766    1.9191   -1.5252 C   0  0  0  0  0  0  0  0  0  0  0  0
   -4.6519    2.4871   -2.7927 C   0  0  0  0  0  0  0  0  0  0  0  0
   -4.0981    1.8162   -3.9260 C   0  0  0  0  0  0  0  0  0  0  0  0
   -4.2697    2.4052   -5.1334 N   0  0  0  0  0  0  0  0  0  0  0  0
   -5.1389    3.7379   -4.6724 S   0  0  0  0  0  0  0  0  0  0  0  0
   -5.3155    3.6453   -3.0271 N   0  0  0  0  0  0  0  0  0  0  0  0
   -3.3716    0.6350   -3.7240 C   0  0  0  0  0  0  0  0  0  0  0  0
   -2.5387   -0.0629   -4.5578 C   0  0  0  0  0  0  0  0  0  0  0  0
   -1.8334    0.1710   -6.0896 S   0  0  0  0  0  0  0  0  0  0  0  0
   -0.5553   -0.9001   -5.7135 C   0  0  0  0  0  0  0  0  0  0  0  0
    0.6074   -1.3218   -6.3779 C   0  0  0  0  0  0  0  0  0  0  0  0
    0.9169   -0.9898   -7.7849 C   0  0  0  0  0  0  0  0  0  0  0  0
    0.7572    0.3226   -8.2584 C   0  0  0  0  0  0  0  0  0  0  0  0
    0.9746    0.6176   -9.6058 C   0  0  0  0  0  0  0  0  0  0  0  0
    1.3662   -0.3903  -10.4897 C   0  0  0  0  0  0  0  0  0  0  0  0
    1.5521   -1.7016  -10.0291 C   0  0  0  0  0  0  0  0  0  0  0  0
    1.9157   -2.7965  -10.9964 C   0  0  0  0  0  0  0  0  0  0  0  0
    0.6744   -3.2980  -11.7290 C   0  0  0  0  0  0  0  0  0  0  0  0
    1.3169   -1.9984   -8.6769 C   0  0  0  0  0  0  0  0  0  0  0  0
    1.3729   -2.1668   -5.5397 C   0  0  0  0  0  0  0  0  0  0  0  0
    0.6052   -2.3438   -4.0320 S   0  0  0  0  0  0  0  0  0  0  0  0
   -0.6889   -1.3770   -4.4359 C   0  0  0  0  0  0  0  0  0  0  0  0
   -1.8068   -0.8980   -3.7755 C   0  0  0  0  0  0  0  0  0  0  0  0
   -2.0946   -0.7798   -2.4558 N   0  0  0  0  0  0  0  0  0  0  0  0
   -3.1322    0.1182   -2.4388 C   0  0  0  0  0  0  0  0  0  0  0  0
   -3.7614    0.7296   -1.3288 C   0  0  0  0  0  0  0  0  0  0  0  0
   -3.7631    0.3407   -0.0151 N   0  0  0  0  0  0  0  0  0  0  0  0
   -4.3887    1.3799    0.5921 C   0  0  0  0  0  0  0  0  0  0  0  0
   -4.4323    1.8223    1.9034 C   0  0  0  0  0  0  0  0  0  0  0  0
   -3.5866    1.4251    3.2799 S   0  0  0  0  0  0  0  0  0  0  0  0
   -3.9705   -1.0590    0.4070 C   0  0  0  0  0  0  0  0  0  0  0  0
   -3.2112   -1.4158    1.6861 C   0  0  0  0  0  0  0  0  0  0  0  0
   -1.1049   -1.0087   -1.3930 C   0  0  0  0  0  0  0  0  0  0  0  0
   -0.0609    0.1078   -1.3713 C   0  0  0  0  0  0  0  0  0  0  0  0
    2.6937   -2.7622   -5.7938 C   0  0  0  0  0  0  0  0  0  0  0  0
    3.8457   -2.1000   -6.2200 C   0  0  0  0  0  0  0  0  0  0  0  0
    3.7894   -0.8097   -6.7721 O   0  0  0  0  0  0  0  0  0  0  0  0
    4.8710   -0.1703   -7.4448 C   0  0  0  0  0  0  0  0  0  0  0  0
    4.3704    1.0727   -8.1591 C   0  0  0  0  0  0  0  0  0  0  0  0
    5.0282   -2.8487   -5.9848 C   0  0  0  0  0  0  0  0  0  0  0  0
    6.3145   -2.3258   -6.1348 O   0  0  0  0  0  0  0  0  0  0  0  0
    6.9558   -1.6499   -5.0551 C   0  0  0  0  0  0  0  0  0  0  0  0
    8.2666   -1.0469   -5.5303 C   0  0  0  0  0  0  0  0  0  0  0  0
    4.7984   -4.1303   -5.4753 C   0  0  0  0  0  0  0  0  0  0  0  0
    3.1497   -4.2472   -5.1673 S   0  0  0  0  0  0  0  0  0  0  0  0
    5.8370   -5.0409   -4.9416 C   0  0  0  0  0  0  0  0  0  0  0  0
    5.6501   -6.3470   -4.6566 C   0  0  0  0  0  0  0  0  0  0  0  0
    4.4562   -7.1457   -4.9498 C   0  0  0  0  0  0  0  0  0  0  0  0
    3.7043   -7.0235   -5.9527 O   0  0  0  0  0  0  0  0  0  0  0  0
    4.3562   -8.1932   -3.9549 C   0  0  0  0  0  0  0  0  0  0  0  0
    3.2905   -9.0594   -3.7166 C   0  0  0  0  0  0  0  0  0  0  0  0
    3.3467   -9.8895   -2.5909 C   0  0  0  0  0  0  0  0  0  0  0  0
    4.4442   -9.8163   -1.7021 C   0  0  0  0  0  0  0  0  0  0  0  0
    4.4797  -10.6830   -0.4791 C   0  0  0  0  0  0  0  0  0  0  0  0
    5.5212   -8.9505   -1.9853 C   0  0  0  0  0  0  0  0  0  0  0  0
    5.4733   -8.1568   -3.1399 C   0  0  0  0  0  0  0  0  0  0  0  0
    6.4187   -7.1224   -3.6363 C   0  0  0  0  0  0  0  0  0  0  0  0
    7.7531   -7.0661   -3.4046 C   0  0  0  0  0  0  0  0  0  0  0  0
    8.6236   -6.2014   -4.1614 C   0  0  0  0  0  0  0  0  0  0  0  0
    9.3291   -5.5109   -4.7650 N   0  0  0  0  0  0  0  0  0  0  0  0
    8.4121   -7.9668   -2.4944 C   0  0  0  0  0  0  0  0  0  0  0  0
    8.9524   -8.6869   -1.7649 N   0  0  0  0  0  0  0  0  0  0  0  0
   -1.3028    2.7413    9.5611 H   0  0  0  0  0  0  0  0  0  0  0  0
   -1.2645   -1.9498   12.1248 H   0  0  0  0  0  0  0  0  0  0  0  0
   -1.6720   -4.3067   12.7922 H   0  0  0  0  0  0  0  0  0  0  0  0
   -2.4069   -6.5869   12.2119 H   0  0  0  0  0  0  0  0  0  0  0  0
   -3.0989   -5.3859    8.1498 H   0  0  0  0  0  0  0  0  0  0  0  0
   -2.6623   -3.0745    7.4656 H   0  0  0  0  0  0  0  0  0  0  0  0
   -0.6951    6.9713    2.4032 H   0  0  0  0  0  0  0  0  0  0  0  0
   -0.0172    5.4187    1.7766 H   0  0  0  0  0  0  0  0  0  0  0  0
    2.2186    6.5050    1.4903 H   0  0  0  0  0  0  0  0  0  0  0  0
    0.9274    7.3665    0.5728 H   0  0  0  0  0  0  0  0  0  0  0  0
    1.5366    8.0666    2.1190 H   0  0  0  0  0  0  0  0  0  0  0  0
    2.9094    4.4616    7.4111 H   0  0  0  0  0  0  0  0  0  0  0  0
    2.2824    6.0509    8.0045 H   0  0  0  0  0  0  0  0  0  0  0  0
    3.9908    7.2354    6.6003 H   0  0  0  0  0  0  0  0  0  0  0  0
    4.7418    6.0868    7.7692 H   0  0  0  0  0  0  0  0  0  0  0  0
    4.6174    5.6307    6.0277 H   0  0  0  0  0  0  0  0  0  0  0  0
   -7.3006    4.4794    2.5513 H   0  0  0  0  0  0  0  0  0  0  0  0
   -8.5405    6.4566    3.2928 H   0  0  0  0  0  0  0  0  0  0  0  0
   -7.5614    8.0181    4.9273 H   0  0  0  0  0  0  0  0  0  0  0  0
   -5.4259    8.9126    5.9233 H   0  0  0  0  0  0  0  0  0  0  0  0
   -3.9967    7.8428    6.0782 H   0  0  0  0  0  0  0  0  0  0  0  0
   -5.2469    6.4172    7.7423 H   0  0  0  0  0  0  0  0  0  0  0  0
   -6.6672    7.5318    7.6003 H   0  0  0  0  0  0  0  0  0  0  0  0
   -5.1065    8.1381    8.2720 H   0  0  0  0  0  0  0  0  0  0  0  0
   -3.9781    5.6740    5.0350 H   0  0  0  0  0  0  0  0  0  0  0  0
    0.4711    1.1194   -7.5854 H   0  0  0  0  0  0  0  0  0  0  0  0
    0.8376    1.6299   -9.9657 H   0  0  0  0  0  0  0  0  0  0  0  0
    1.5221   -0.1498  -11.5351 H   0  0  0  0  0  0  0  0  0  0  0  0
    2.3897   -3.6476  -10.4602 H   0  0  0  0  0  0  0  0  0  0  0  0
    2.6539   -2.4175  -11.7372 H   0  0  0  0  0  0  0  0  0  0  0  0
    0.9579   -4.1058  -12.4373 H   0  0  0  0  0  0  0  0  0  0  0  0
   -0.0649   -3.7007  -11.0046 H   0  0  0  0  0  0  0  0  0  0  0  0
    0.2067   -2.4706  -12.3062 H   0  0  0  0  0  0  0  0  0  0  0  0
    1.4200   -3.0169   -8.3269 H   0  0  0  0  0  0  0  0  0  0  0  0
   -3.6680   -1.7545   -0.4016 H   0  0  0  0  0  0  0  0  0  0  0  0
   -5.0571   -1.2395    0.5665 H   0  0  0  0  0  0  0  0  0  0  0  0
   -2.9520   -2.4936    1.6758 H   0  0  0  0  0  0  0  0  0  0  0  0
   -3.8537   -1.2385    2.5710 H   0  0  0  0  0  0  0  0  0  0  0  0
   -2.2746   -0.8257    1.7791 H   0  0  0  0  0  0  0  0  0  0  0  0
   -1.5650   -1.0477   -0.4029 H   0  0  0  0  0  0  0  0  0  0  0  0
   -0.6084   -1.9894   -1.5438 H   0  0  0  0  0  0  0  0  0  0  0  0
    0.4570    0.1865   -2.3496 H   0  0  0  0  0  0  0  0  0  0  0  0
    0.6951   -0.1057   -0.5859 H   0  0  0  0  0  0  0  0  0  0  0  0
   -0.5513    1.0808   -1.1404 H   0  0  0  0  0  0  0  0  0  0  0  0
    5.3116   -0.8614   -8.1937 H   0  0  0  0  0  0  0  0  0  0  0  0
    5.6448    0.1339   -6.7136 H   0  0  0  0  0  0  0  0  0  0  0  0
    3.6659    0.7849   -8.9639 H   0  0  0  0  0  0  0  0  0  0  0  0
    5.2279    1.6131   -8.6153 H   0  0  0  0  0  0  0  0  0  0  0  0
    3.8572    1.7467   -7.4419 H   0  0  0  0  0  0  0  0  0  0  0  0
    6.2983   -0.8424   -4.6690 H   0  0  0  0  0  0  0  0  0  0  0  0
    7.1570   -2.3525   -4.2206 H   0  0  0  0  0  0  0  0  0  0  0  0
    8.7393   -0.4819   -4.6989 H   0  0  0  0  0  0  0  0  0  0  0  0
    8.9561   -1.8502   -5.8601 H   0  0  0  0  0  0  0  0  0  0  0  0
    8.0796   -0.3532   -6.3752 H   0  0  0  0  0  0  0  0  0  0  0  0
    6.7448   -4.5659   -4.6099 H   0  0  0  0  0  0  0  0  0  0  0  0
    2.4238   -9.0703   -4.3694 H   0  0  0  0  0  0  0  0  0  0  0  0
    2.5253  -10.5638   -2.3907 H   0  0  0  0  0  0  0  0  0  0  0  0
    5.0029  -11.6344   -0.7127 H   0  0  0  0  0  0  0  0  0  0  0  0
    3.4498  -10.9100   -0.1292 H   0  0  0  0  0  0  0  0  0  0  0  0
    5.0129  -10.1688    0.3483 H   0  0  0  0  0  0  0  0  0  0  0  0
    6.3385   -8.8735   -1.2842 H   0  0  0  0  0  0  0  0  0  0  0  0
  1  2  2  3
  2  3  1  0
  3  4  2  0
  3  5  1  0
  5  6  2  0
  6  7  1  0
  7  8  2  0
  8  9  1  0
  9 10  2  0
 10 11  1  0
 10 12  1  0
 12 13  2  0
 13 14  1  0
 14 15  2  0
 15 16  1  0
 16 17  2  3
 17 18  1  0
 18 19  3  0
 17 20  1  0
 20 21  3  0
  1 22  1  0
 22 23  1  0
 23 24  1  0
 24 25  2  0
 25 26  1  0
 26 27  2  0
 26 28  1  0
 28 29  2  0
 29 30  1  0
 30 31  1  0
 29 32  1  0
 32 33  1  0
 33 34  1  0
 34 35  1  0
 33 36  2  0
 36 37  1  0
 37 38  2  0
 37 39  1  0
 24 40  1  0
 40 41  2  0
 41 42  1  0
 42 43  2  0
 43 44  1  0
 44 45  2  0
 45 46  1  0
 46 47  1  0
 47 48  1  0
 46 49  2  0
 41 50  1  0
 50 51  1  0
 51 52  1  0
 52 53  1  0
 53 54  1  0
 54 55  1  0
 55 56  2  0
 56 57  1  0
 57 58  1  0
 55 59  1  0
 59 60  1  0
 60 61  1  0
 61 62  1  0
 62 63  1  0
 63 64  1  0
 64 65  2  0
 65 66  1  0
 66 67  2  0
 67 68  1  0
 68 69  1  0
 69 70  1  0
 68 71  2  0
 63 72  2  0
 72 73  1  0
 73 74  1  0
 74 75  1  0
 75 76  1  0
 76 77  1  0
 77 78  1  0
 78 79  1  0
 79 80  1  0
 80 81  1  0
 81 82  1  0
 79 83  1  0
 83 84  1  0
 76 85  1  0
 85 86  1  0
 72 87  1  0
 87 88  2  0
 88 89  1  0
 89 90  1  0
 90 91  1  0
 88 92  1  0
 92 93  1  0
 93 94  1  0
 94 95  1  0
 92 96  2  0
 96 97  1  0
 96 98  1  0
 98 99  2  3
 99100  1  0
100101  2  0
100102  1  0
102103  2  0
103104  1  0
104105  2  0
105106  1  0
105107  1  0
107108  2  0
108109  1  0
109110  2  3
110111  1  0
111112  3  0
110113  1  0
113114  3  0
 16  2  1  0
 39 22  2  0
 82 40  1  0
 97 87  1  0
109 99  1  0
 15  5  1  0
 39 25  1  0
 49 42  1  0
 81 50  2  0
108102  1  0
 13  7  1  0
 36 28  1  0
 80 52  2  0
 78 53  2  0
 58 54  2  0
 77 59  2  0
 75 60  2  0
 74 62  2  0
 71 64  1  0
  1115  1  0
  6116  1  0
  8117  1  0
  9118  1  0
 12119  1  0
 14120  1  0
 30121  1  0
 30122  1  0
 31123  1  0
 31124  1  0
 31125  1  0
 34126  1  0
 34127  1  0
 35128  1  0
 35129  1  0
 35130  1  0
 43131  1  0
 44132  1  0
 45133  1  0
 47134  1  0
 47135  1  0
 48136  1  0
 48137  1  0
 48138  1  0
 49139  1  0
 65140  1  0
 66141  1  0
 67142  1  0
 69143  1  0
 69144  1  0
 70145  1  0
 70146  1  0
 70147  1  0
 71148  1  0
 83149  1  0
 83150  1  0
 84151  1  0
 84152  1  0
 84153  1  0
 85154  1  0
 85155  1  0
 86156  1  0
 86157  1  0
 86158  1  0
 90159  1  0
 90160  1  0
 91161  1  0
 91162  1  0
 91163  1  0
 94164  1  0
 94165  1  0
 95166  1  0
 95167  1  0
 95168  1  0
 98169  1  0
103170  1  0
104171  1  0
106172  1  0
106173  1  0
106174  1  0
107175  1  0
M  END

