
     RDKit          3D

177194  0  0  0  0  0  0  0  0999 V2000
    6.2059   -0.9285   -5.9018 C   0  0  0  0  0  0  0  0  0  0  0  0
    5.9823   -2.2340   -5.6538 C   0  0  0  0  0  0  0  0  0  0  0  0
    5.2810   -2.7689   -4.4784 C   0  0  0  0  0  0  0  0  0  0  0  0
    4.5626   -2.1234   -3.6696 O   0  0  0  0  0  0  0  0  0  0  0  0
    5.6197   -4.1679   -4.3436 C   0  0  0  0  0  0  0  0  0  0  0  0
    5.2813   -5.0295   -3.3030 C   0  0  0  0  0  0  0  0  0  0  0  0
    5.8205   -6.3262   -3.3016 C   0  0  0  0  0  0  0  0  0  0  0  0
    5.5126   -7.2197   -2.2662 C   0  0  0  0  0  0  0  0  0  0  0  0
    6.0664   -8.5028   -2.2576 C   0  0  0  0  0  0  0  0  0  0  0  0
    6.9358   -8.9022   -3.2793 C   0  0  0  0  0  0  0  0  0  0  0  0
    7.4713  -10.1481   -3.2590 F   0  0  0  0  0  0  0  0  0  0  0  0
    7.2547   -8.0206   -4.3167 C   0  0  0  0  0  0  0  0  0  0  0  0
    6.7044   -6.7282   -4.3421 C   0  0  0  0  0  0  0  0  0  0  0  0
    7.0307   -5.8302   -5.3788 C   0  0  0  0  0  0  0  0  0  0  0  0
    6.4551   -4.5486   -5.3805 C   0  0  0  0  0  0  0  0  0  0  0  0
    6.6434   -3.4002   -6.3155 C   0  0  0  0  0  0  0  0  0  0  0  0
    7.1010   -3.4573   -7.5934 C   0  0  0  0  0  0  0  0  0  0  0  0
    7.0244   -2.3328   -8.4893 C   0  0  0  0  0  0  0  0  0  0  0  0
    6.9630   -1.4343   -9.2159 N   0  0  0  0  0  0  0  0  0  0  0  0
    7.5854   -4.6745   -8.1920 C   0  0  0  0  0  0  0  0  0  0  0  0
    7.9756   -5.6459   -8.6898 N   0  0  0  0  0  0  0  0  0  0  0  0
    5.6010    0.1507   -5.1008 C   0  0  0  0  0  0  0  0  0  0  0  0
    6.4267    0.8879   -4.2406 C   0  0  0  0  0  0  0  0  0  0  0  0
    5.8786    1.8318   -3.3512 C   0  0  0  0  0  0  0  0  0  0  0  0
    6.6733    2.5834   -2.4668 O   0  0  0  0  0  0  0  0  0  0  0  0
    8.0516    2.3487   -2.1772 C   0  0  0  0  0  0  0  0  0  0  0  0
    8.2064    1.1199   -1.2880 C   0  0  0  0  0  0  0  0  0  0  0  0
    4.4887    2.0342   -3.3403 C   0  0  0  0  0  0  0  0  0  0  0  0
    3.6680    1.3192   -4.2191 C   0  0  0  0  0  0  0  0  0  0  0  0
    4.2135    0.4096   -5.1268 C   0  0  0  0  0  0  0  0  0  0  0  0
    3.3470   -0.2163   -6.0333 O   0  0  0  0  0  0  0  0  0  0  0  0
    3.5104   -0.1618   -7.4541 C   0  0  0  0  0  0  0  0  0  0  0  0
    3.6928    1.2738   -7.9382 C   0  0  0  0  0  0  0  0  0  0  0  0
    3.8785    2.9093   -2.3300 C   0  0  0  0  0  0  0  0  0  0  0  0
    3.2811    4.1625   -2.5516 C   0  0  0  0  0  0  0  0  0  0  0  0
    3.1926    4.8411   -3.8536 C   0  0  0  0  0  0  0  0  0  0  0  0
    2.3005    4.3873   -4.8352 C   0  0  0  0  0  0  0  0  0  0  0  0
    2.2149    5.0467   -6.0634 C   0  0  0  0  0  0  0  0  0  0  0  0
    3.0042    6.1705   -6.3135 C   0  0  0  0  0  0  0  0  0  0  0  0
    3.8978    6.6384   -5.3341 C   0  0  0  0  0  0  0  0  0  0  0  0
    4.7186    7.8744   -5.5800 C   0  0  0  0  0  0  0  0  0  0  0  0
    3.9915    9.1142   -5.0694 C   0  0  0  0  0  0  0  0  0  0  0  0
    3.9789    5.9740   -4.1007 C   0  0  0  0  0  0  0  0  0  0  0  0
    2.7740    4.6886   -1.3624 C   0  0  0  0  0  0  0  0  0  0  0  0
    1.7605    6.0217   -1.0267 S   0  0  0  0  0  0  0  0  0  0  0  0
    1.5841    5.4980    0.5786 C   0  0  0  0  0  0  0  0  0  0  0  0
    0.7959    5.7596    1.6585 C   0  0  0  0  0  0  0  0  0  0  0  0
   -0.1214    6.7790    1.9153 C   0  0  0  0  0  0  0  0  0  0  0  0
   -0.9040    6.7075    3.1034 C   0  0  0  0  0  0  0  0  0  0  0  0
   -1.8110    7.6969    3.2966 N   0  0  0  0  0  0  0  0  0  0  0  0
   -1.5321    8.6073    1.9400 S   0  0  0  0  0  0  0  0  0  0  0  0
   -0.3386    7.8340    1.0920 N   0  0  0  0  0  0  0  0  0  0  0  0
   -0.7712    5.5879    3.9411 C   0  0  0  0  0  0  0  0  0  0  0  0
   -1.6878    5.0805    4.8271 C   0  0  0  0  0  0  0  0  0  0  0  0
   -3.3376    5.4179    5.0534 S   0  0  0  0  0  0  0  0  0  0  0  0
   -3.6990    3.7941    5.3956 C   0  0  0  0  0  0  0  0  0  0  0  0
   -4.9154    3.0978    5.3269 C   0  0  0  0  0  0  0  0  0  0  0  0
   -6.2311    3.7783    5.3227 C   0  0  0  0  0  0  0  0  0  0  0  0
   -7.1841    3.5368    4.3189 C   0  0  0  0  0  0  0  0  0  0  0  0
   -8.4078    4.2115    4.3298 C   0  0  0  0  0  0  0  0  0  0  0  0
   -8.6858    5.1478    5.3294 C   0  0  0  0  0  0  0  0  0  0  0  0
   -7.7324    5.4268    6.3190 C   0  0  0  0  0  0  0  0  0  0  0  0
   -8.0342    6.4243    7.4042 C   0  0  0  0  0  0  0  0  0  0  0  0
   -8.7111    5.7446    8.5897 C   0  0  0  0  0  0  0  0  0  0  0  0
   -6.5125    4.7307    6.3167 C   0  0  0  0  0  0  0  0  0  0  0  0
   -4.6901    1.7125    5.1730 C   0  0  0  0  0  0  0  0  0  0  0  0
   -3.0225    1.4239    5.0963 S   0  0  0  0  0  0  0  0  0  0  0  0
   -2.5669    3.0206    5.2854 C   0  0  0  0  0  0  0  0  0  0  0  0
   -1.4195    3.7470    4.9507 C   0  0  0  0  0  0  0  0  0  0  0  0
   -0.3251    3.3721    4.2335 N   0  0  0  0  0  0  0  0  0  0  0  0
    0.1082    4.5312    3.6369 C   0  0  0  0  0  0  0  0  0  0  0  0
    0.9944    4.6818    2.5326 C   0  0  0  0  0  0  0  0  0  0  0  0
    1.9666    3.8296    2.0645 N   0  0  0  0  0  0  0  0  0  0  0  0
    2.2573    4.3539    0.8471 C   0  0  0  0  0  0  0  0  0  0  0  0
    2.9503    3.8905   -0.2585 C   0  0  0  0  0  0  0  0  0  0  0  0
    3.7367    2.4767   -0.6907 S   0  0  0  0  0  0  0  0  0  0  0  0
    2.9815    3.1795    2.9096 C   0  0  0  0  0  0  0  0  0  0  0  0
    3.2438    1.7255    2.5025 C   0  0  0  0  0  0  0  0  0  0  0  0
   -0.0411    1.9913    3.8236 C   0  0  0  0  0  0  0  0  0  0  0  0
   -0.6600    1.6724    2.4628 C   0  0  0  0  0  0  0  0  0  0  0  0
   -5.6297    0.7167    4.6422 C   0  0  0  0  0  0  0  0  0  0  0  0
   -5.6812    0.5609    3.2512 C   0  0  0  0  0  0  0  0  0  0  0  0
   -6.2913   -0.5616    2.6790 C   0  0  0  0  0  0  0  0  0  0  0  0
   -6.2836   -0.7863    1.2909 O   0  0  0  0  0  0  0  0  0  0  0  0
   -5.6345    0.0509    0.3353 C   0  0  0  0  0  0  0  0  0  0  0  0
   -5.7605   -0.5664   -1.0474 C   0  0  0  0  0  0  0  0  0  0  0  0
   -6.8759   -1.5254    3.5142 C   0  0  0  0  0  0  0  0  0  0  0  0
   -6.8933   -1.3379    4.9048 C   0  0  0  0  0  0  0  0  0  0  0  0
   -6.2347   -0.2329    5.4842 C   0  0  0  0  0  0  0  0  0  0  0  0
   -6.1255   -0.0615    6.8752 O   0  0  0  0  0  0  0  0  0  0  0  0
   -6.5673   -0.9896    7.8684 C   0  0  0  0  0  0  0  0  0  0  0  0
   -5.6263   -2.1887    7.9588 C   0  0  0  0  0  0  0  0  0  0  0  0
   -7.2584   -2.8245    2.9340 C   0  0  0  0  0  0  0  0  0  0  0  0
   -6.3427   -3.7962    2.7486 C   0  0  0  0  0  0  0  0  0  0  0  0
   -4.9386   -3.7113    3.1730 C   0  0  0  0  0  0  0  0  0  0  0  0
   -4.4690   -2.9647    4.0719 O   0  0  0  0  0  0  0  0  0  0  0  0
   -4.1630   -4.6314    2.3775 C   0  0  0  0  0  0  0  0  0  0  0  0
   -2.7814   -4.8007    2.3866 C   0  0  0  0  0  0  0  0  0  0  0  0
   -2.2104   -5.7113    1.4841 C   0  0  0  0  0  0  0  0  0  0  0  0
   -0.8227   -5.9122    1.4597 C   0  0  0  0  0  0  0  0  0  0  0  0
   -0.2597   -6.8137    0.5516 C   0  0  0  0  0  0  0  0  0  0  0  0
   -1.0744   -7.5167   -0.3396 C   0  0  0  0  0  0  0  0  0  0  0  0
   -0.5181   -8.3915   -1.2157 F   0  0  0  0  0  0  0  0  0  0  0  0
   -2.4603   -7.3280   -0.3285 C   0  0  0  0  0  0  0  0  0  0  0  0
   -3.0444   -6.4281    0.5794 C   0  0  0  0  0  0  0  0  0  0  0  0
   -4.4421   -6.2323    0.5973 C   0  0  0  0  0  0  0  0  0  0  0  0
   -4.9975   -5.3294    1.5219 C   0  0  0  0  0  0  0  0  0  0  0  0
   -6.4182   -4.9283    1.7738 C   0  0  0  0  0  0  0  0  0  0  0  0
   -7.5431   -5.5406    1.3250 C   0  0  0  0  0  0  0  0  0  0  0  0
   -8.8469   -5.2283    1.8513 C   0  0  0  0  0  0  0  0  0  0  0  0
   -9.8991   -4.9879    2.2733 N   0  0  0  0  0  0  0  0  0  0  0  0
   -7.5203   -6.5956    0.3439 C   0  0  0  0  0  0  0  0  0  0  0  0
   -7.5151   -7.4361   -0.4548 N   0  0  0  0  0  0  0  0  0  0  0  0
    6.9565   -0.6300   -6.6138 H   0  0  0  0  0  0  0  0  0  0  0  0
    4.6340   -4.6880   -2.5039 H   0  0  0  0  0  0  0  0  0  0  0  0
    4.8442   -6.9272   -1.4644 H   0  0  0  0  0  0  0  0  0  0  0  0
    5.8247   -9.1862   -1.4544 H   0  0  0  0  0  0  0  0  0  0  0  0
    7.9294   -8.3484   -5.0989 H   0  0  0  0  0  0  0  0  0  0  0  0
    7.7465   -6.1297   -6.1262 H   0  0  0  0  0  0  0  0  0  0  0  0
    7.4881    0.6904   -4.2463 H   0  0  0  0  0  0  0  0  0  0  0  0
    8.6419    2.2458   -3.1118 H   0  0  0  0  0  0  0  0  0  0  0  0
    8.4463    3.2303   -1.6286 H   0  0  0  0  0  0  0  0  0  0  0  0
    9.2768    0.9770   -1.0296 H   0  0  0  0  0  0  0  0  0  0  0  0
    7.8386    0.2087   -1.8110 H   0  0  0  0  0  0  0  0  0  0  0  0
    7.6236    1.2551   -0.3488 H   0  0  0  0  0  0  0  0  0  0  0  0
    2.5950    1.4535   -4.1945 H   0  0  0  0  0  0  0  0  0  0  0  0
    4.3733   -0.7822   -7.7741 H   0  0  0  0  0  0  0  0  0  0  0  0
    2.6033   -0.5887   -7.9290 H   0  0  0  0  0  0  0  0  0  0  0  0
    2.8592    1.9084   -7.5734 H   0  0  0  0  0  0  0  0  0  0  0  0
    4.6516    1.6826   -7.5632 H   0  0  0  0  0  0  0  0  0  0  0  0
    3.7086    1.3012   -9.0480 H   0  0  0  0  0  0  0  0  0  0  0  0
    1.6567    3.5386   -4.6432 H   0  0  0  0  0  0  0  0  0  0  0  0
    1.5245    4.6941   -6.8191 H   0  0  0  0  0  0  0  0  0  0  0  0
    2.9208    6.6806   -7.2645 H   0  0  0  0  0  0  0  0  0  0  0  0
    4.9228    7.9909   -6.6666 H   0  0  0  0  0  0  0  0  0  0  0  0
    5.7027    7.7876   -5.0670 H   0  0  0  0  0  0  0  0  0  0  0  0
    3.0388    9.2552   -5.6222 H   0  0  0  0  0  0  0  0  0  0  0  0
    3.7737    9.0197   -3.9841 H   0  0  0  0  0  0  0  0  0  0  0  0
    4.6286   10.0088   -5.2277 H   0  0  0  0  0  0  0  0  0  0  0  0
    4.6529    6.3381   -3.3329 H   0  0  0  0  0  0  0  0  0  0  0  0
   -6.9792    2.8545    3.5095 H   0  0  0  0  0  0  0  0  0  0  0  0
   -9.1382    4.0177    3.5553 H   0  0  0  0  0  0  0  0  0  0  0  0
   -9.6398    5.6609    5.3262 H   0  0  0  0  0  0  0  0  0  0  0  0
   -7.0973    6.9126    7.7477 H   0  0  0  0  0  0  0  0  0  0  0  0
   -8.6999    7.2234    7.0127 H   0  0  0  0  0  0  0  0  0  0  0  0
   -8.0469    4.9636    9.0214 H   0  0  0  0  0  0  0  0  0  0  0  0
   -9.6684    5.2765    8.2718 H   0  0  0  0  0  0  0  0  0  0  0  0
   -8.9299    6.4999    9.3739 H   0  0  0  0  0  0  0  0  0  0  0  0
   -5.7844    4.9282    7.0944 H   0  0  0  0  0  0  0  0  0  0  0  0
    3.9370    3.7526    2.8496 H   0  0  0  0  0  0  0  0  0  0  0  0
    2.6809    3.2292    3.9797 H   0  0  0  0  0  0  0  0  0  0  0  0
    4.1748    1.6552    1.9045 H   0  0  0  0  0  0  0  0  0  0  0  0
    2.3959    1.3072    1.9219 H   0  0  0  0  0  0  0  0  0  0  0  0
    3.3932    1.1041    3.4109 H   0  0  0  0  0  0  0  0  0  0  0  0
   -0.4148    1.2779    4.5832 H   0  0  0  0  0  0  0  0  0  0  0  0
    1.0314    1.7955    3.8169 H   0  0  0  0  0  0  0  0  0  0  0  0
   -1.7507    1.8715    2.4763 H   0  0  0  0  0  0  0  0  0  0  0  0
   -0.4907    0.6035    2.2177 H   0  0  0  0  0  0  0  0  0  0  0  0
   -0.1972    2.2873    1.6663 H   0  0  0  0  0  0  0  0  0  0  0  0
   -5.1751    1.2840    2.6255 H   0  0  0  0  0  0  0  0  0  0  0  0
   -4.5565    0.1478    0.5885 H   0  0  0  0  0  0  0  0  0  0  0  0
   -6.1063    1.0567    0.3357 H   0  0  0  0  0  0  0  0  0  0  0  0
   -5.2525    0.0799   -1.7961 H   0  0  0  0  0  0  0  0  0  0  0  0
   -6.8301   -0.6648   -1.3246 H   0  0  0  0  0  0  0  0  0  0  0  0
   -5.2875   -1.5712   -1.0567 H   0  0  0  0  0  0  0  0  0  0  0  0
   -7.3437   -2.1022    5.5226 H   0  0  0  0  0  0  0  0  0  0  0  0
   -6.5616   -0.4712    8.8507 H   0  0  0  0  0  0  0  0  0  0  0  0
   -7.6105   -1.3125    7.6717 H   0  0  0  0  0  0  0  0  0  0  0  0
   -5.9111   -2.8189    8.8296 H   0  0  0  0  0  0  0  0  0  0  0  0
   -5.6871   -2.8083    7.0413 H   0  0  0  0  0  0  0  0  0  0  0  0
   -4.5802   -1.8402    8.0924 H   0  0  0  0  0  0  0  0  0  0  0  0
   -8.2028   -2.8496    2.4176 H   0  0  0  0  0  0  0  0  0  0  0  0
   -2.1684   -4.2294    3.0731 H   0  0  0  0  0  0  0  0  0  0  0  0
   -0.1754   -5.3715    2.1394 H   0  0  0  0  0  0  0  0  0  0  0  0
    0.8115   -6.9656    0.5397 H   0  0  0  0  0  0  0  0  0  0  0  0
   -3.0748   -7.8844   -1.0262 H   0  0  0  0  0  0  0  0  0  0  0  0
   -5.0497   -6.7641   -0.1146 H   0  0  0  0  0  0  0  0  0  0  0  0
  1  2  2  3
  2  3  1  0
  3  4  2  0
  3  5  1  0
  5  6  2  0
  6  7  1  0
  7  8  2  0
  8  9  1  0
  9 10  2  0
 10 11  1  0
 10 12  1  0
 12 13  2  0
 13 14  1  0
 14 15  2  0
 15 16  1  0
 16 17  2  3
 17 18  1  0
 18 19  3  0
 17 20  1  0
 20 21  3  0
  1 22  1  0
 22 23  2  0
 23 24  1  0
 24 25  1  0
 25 26  1  0
 26 27  1  0
 24 28  2  0
 28 29  1  0
 29 30  2  0
 30 31  1  0
 31 32  1  0
 32 33  1  0
 28 34  1  0
 34 35  2  0
 35 36  1  0
 36 37  2  0
 37 38  1  0
 38 39  2  0
 39 40  1  0
 40 41  1  0
 41 42  1  0
 40 43  2  0
 35 44  1  0
 44 45  1  0
 45 46  1  0
 46 47  1  0
 47 48  1  0
 48 49  1  0
 49 50  2  0
 50 51  1  0
 51 52  1  0
 49 53  1  0
 53 54  1  0
 54 55  1  0
 55 56  1  0
 56 57  1  0
 57 58  1  0
 58 59  2  0
 59 60  1  0
 60 61  2  0
 61 62  1  0
 62 63  1  0
 63 64  1  0
 62 65  2  0
 57 66  2  0
 66 67  1  0
 67 68  1  0
 68 69  1  0
 69 70  1  0
 70 71  1  0
 71 72  1  0
 72 73  1  0
 73 74  1  0
 74 75  1  0
 75 76  1  0
 73 77  1  0
 77 78  1  0
 70 79  1  0
 79 80  1  0
 66 81  1  0
 81 82  2  0
 82 83  1  0
 83 84  1  0
 84 85  1  0
 85 86  1  0
 83 87  2  0
 87 88  1  0
 88 89  2  0
 89 90  1  0
 90 91  1  0
 91 92  1  0
 87 93  1  0
 93 94  2  3
 94 95  1  0
 95 96  2  0
 95 97  1  0
 97 98  2  0
 98 99  1  0
 99100  2  0
100101  1  0
101102  2  0
102103  1  0
102104  1  0
104105  2  0
105106  1  0
106107  2  0
107108  1  0
108109  2  3
109110  1  0
110111  3  0
109112  1  0
112113  3  0
 16  2  1  0
 30 22  1  0
 76 34  1  0
 89 81  1  0
108 94  1  0
 15  5  1  0
 43 36  1  0
 75 44  2  0
107 97  1  0
 13  7  1  0
 74 46  2  0
105 99  1  0
 72 47  2  0
 52 48  2  0
 71 53  2  0
 69 54  2  0
 68 56  2  0
 65 58  1  0
  1114  1  0
  6115  1  0
  8116  1  0
  9117  1  0
 12118  1  0
 14119  1  0
 23120  1  0
 26121  1  0
 26122  1  0
 27123  1  0
 27124  1  0
 27125  1  0
 29126  1  0
 32127  1  0
 32128  1  0
 33129  1  0
 33130  1  0
 33131  1  0
 37132  1  0
 38133  1  0
 39134  1  0
 41135  1  0
 41136  1  0
 42137  1  0
 42138  1  0
 42139  1  0
 43140  1  0
 59141  1  0
 60142  1  0
 61143  1  0
 63144  1  0
 63145  1  0
 64146  1  0
 64147  1  0
 64148  1  0
 65149  1  0
 77150  1  0
 77151  1  0
 78152  1  0
 78153  1  0
 78154  1  0
 79155  1  0
 79156  1  0
 80157  1  0
 80158  1  0
 80159  1  0
 82160  1  0
 85161  1  0
 85162  1  0
 86163  1  0
 86164  1  0
 86165  1  0
 88166  1  0
 91167  1  0
 91168  1  0
 92169  1  0
 92170  1  0
 92171  1  0
 93172  1  0
 98173  1  0
100174  1  0
101175  1  0
104176  1  0
106177  1  0
M  END

