
     RDKit          3D

175193  0  0  0  0  0  0  0  0999 V2000
   -3.6767   -8.0428   -3.2127 C   0  0  0  0  0  0  0  0  0  0  0  0
   -4.5875   -7.1659   -3.6890 C   0  0  0  0  0  0  0  0  0  0  0  0
   -4.3209   -5.7539   -4.0020 C   0  0  0  0  0  0  0  0  0  0  0  0
   -3.3371   -5.0685   -3.6133 O   0  0  0  0  0  0  0  0  0  0  0  0
   -5.3732   -5.2684   -4.8617 C   0  0  0  0  0  0  0  0  0  0  0  0
   -5.4312   -4.0472   -5.5322 C   0  0  0  0  0  0  0  0  0  0  0  0
   -6.4714   -3.8349   -6.4497 C   0  0  0  0  0  0  0  0  0  0  0  0
   -6.5575   -2.6264   -7.1584 C   0  0  0  0  0  0  0  0  0  0  0  0
   -7.5723   -2.4345   -8.1011 C   0  0  0  0  0  0  0  0  0  0  0  0
   -8.5090   -3.4449   -8.3420 C   0  0  0  0  0  0  0  0  0  0  0  0
   -9.4886   -3.2505   -9.2569 F   0  0  0  0  0  0  0  0  0  0  0  0
   -8.4394   -4.6530   -7.6378 C   0  0  0  0  0  0  0  0  0  0  0  0
   -7.4279   -4.8617   -6.6895 C   0  0  0  0  0  0  0  0  0  0  0  0
   -7.3435   -6.0861   -5.9913 C   0  0  0  0  0  0  0  0  0  0  0  0
   -6.3147   -6.2658   -5.0505 C   0  0  0  0  0  0  0  0  0  0  0  0
   -5.9460   -7.4599   -4.2360 C   0  0  0  0  0  0  0  0  0  0  0  0
   -6.7709   -8.4753   -3.8738 C   0  0  0  0  0  0  0  0  0  0  0  0
   -6.3766   -9.4963   -2.9343 C   0  0  0  0  0  0  0  0  0  0  0  0
   -6.0726  -10.3201   -2.1817 N   0  0  0  0  0  0  0  0  0  0  0  0
   -8.1505   -8.5288   -4.2827 C   0  0  0  0  0  0  0  0  0  0  0  0
   -9.2619   -8.5748   -4.5967 N   0  0  0  0  0  0  0  0  0  0  0  0
   -2.3047   -7.6158   -2.8892 C   0  0  0  0  0  0  0  0  0  0  0  0
   -1.3800   -7.5212   -3.9264 C   0  0  0  0  0  0  0  0  0  0  0  0
   -1.5137   -7.9462   -5.1957 N   0  0  0  0  0  0  0  0  0  0  0  0
   -0.4702   -7.4311   -5.8382 N   0  0  0  0  0  0  0  0  0  0  0  0
   -0.2410   -7.6019   -7.2668 C   0  0  0  0  0  0  0  0  0  0  0  0
   -1.0386   -6.5720   -8.0535 C   0  0  0  0  0  0  0  0  0  0  0  0
    0.2822   -6.6529   -5.0652 N   0  0  0  0  0  0  0  0  0  0  0  0
   -0.2766   -6.7329   -3.8465 C   0  0  0  0  0  0  0  0  0  0  0  0
    0.0157   -5.9804   -2.7141 C   0  0  0  0  0  0  0  0  0  0  0  0
   -0.8235   -6.1305   -1.5836 C   0  0  0  0  0  0  0  0  0  0  0  0
   -1.9837   -6.9757   -1.6570 C   0  0  0  0  0  0  0  0  0  0  0  0
   -2.8127   -7.0971   -0.5309 O   0  0  0  0  0  0  0  0  0  0  0  0
   -3.5389   -8.2715   -0.1753 C   0  0  0  0  0  0  0  0  0  0  0  0
   -0.4705   -5.3966   -0.4346 O   0  0  0  0  0  0  0  0  0  0  0  0
   -1.1832   -5.3487    0.7997 C   0  0  0  0  0  0  0  0  0  0  0  0
    0.8741   -4.7932   -2.8303 C   0  0  0  0  0  0  0  0  0  0  0  0
    2.2612   -4.6928   -2.6049 C   0  0  0  0  0  0  0  0  0  0  0  0
    3.1295   -5.7942   -2.1441 C   0  0  0  0  0  0  0  0  0  0  0  0
    3.2199   -6.9874   -2.8754 C   0  0  0  0  0  0  0  0  0  0  0  0
    4.0630   -8.0164   -2.4425 C   0  0  0  0  0  0  0  0  0  0  0  0
    4.8178   -7.8618   -1.2771 C   0  0  0  0  0  0  0  0  0  0  0  0
    4.7373   -6.6744   -0.5350 C   0  0  0  0  0  0  0  0  0  0  0  0
    5.5205   -6.5225    0.7405 C   0  0  0  0  0  0  0  0  0  0  0  0
    4.7663   -7.1491    1.9108 C   0  0  0  0  0  0  0  0  0  0  0  0
    3.8801   -5.6505   -0.9648 C   0  0  0  0  0  0  0  0  0  0  0  0
    2.6739   -3.3553   -2.6876 C   0  0  0  0  0  0  0  0  0  0  0  0
    4.1656   -2.5573   -2.4317 S   0  0  0  0  0  0  0  0  0  0  0  0
    3.4127   -1.0434   -2.6017 C   0  0  0  0  0  0  0  0  0  0  0  0
    3.7014    0.2876   -2.4969 C   0  0  0  0  0  0  0  0  0  0  0  0
    4.9059    0.9885   -2.3622 C   0  0  0  0  0  0  0  0  0  0  0  0
    4.8588    2.4162   -2.2768 C   0  0  0  0  0  0  0  0  0  0  0  0
    6.0417    3.0585   -2.1185 N   0  0  0  0  0  0  0  0  0  0  0  0
    7.0677    1.7535   -2.1240 S   0  0  0  0  0  0  0  0  0  0  0  0
    6.1255    0.4053   -2.3004 N   0  0  0  0  0  0  0  0  0  0  0  0
    3.6099    3.0592   -2.2782 C   0  0  0  0  0  0  0  0  0  0  0  0
    3.2706    4.3040   -1.8008 C   0  0  0  0  0  0  0  0  0  0  0  0
    4.1106    5.4998   -0.9338 S   0  0  0  0  0  0  0  0  0  0  0  0
    2.7132    5.9654   -0.0770 C   0  0  0  0  0  0  0  0  0  0  0  0
    2.5083    6.7450    1.0741 C   0  0  0  0  0  0  0  0  0  0  0  0
    3.4650    7.7419    1.6088 C   0  0  0  0  0  0  0  0  0  0  0  0
    4.8314    7.4483    1.7379 C   0  0  0  0  0  0  0  0  0  0  0  0
    5.7045    8.3905    2.2834 C   0  0  0  0  0  0  0  0  0  0  0  0
    5.2298    9.6338    2.7064 C   0  0  0  0  0  0  0  0  0  0  0  0
    3.8672    9.9395    2.5989 C   0  0  0  0  0  0  0  0  0  0  0  0
    3.3518   11.2879    3.0289 C   0  0  0  0  0  0  0  0  0  0  0  0
    3.3714   12.2726    1.8604 C   0  0  0  0  0  0  0  0  0  0  0  0
    2.9913    8.9956    2.0411 C   0  0  0  0  0  0  0  0  0  0  0  0
    1.2477    6.4684    1.6533 C   0  0  0  0  0  0  0  0  0  0  0  0
    0.4389    5.3193    0.6965 S   0  0  0  0  0  0  0  0  0  0  0  0
    1.6552    5.1681   -0.4348 C   0  0  0  0  0  0  0  0  0  0  0  0
    1.9583    4.2356   -1.4255 C   0  0  0  0  0  0  0  0  0  0  0  0
    1.3987    3.0285   -1.7048 N   0  0  0  0  0  0  0  0  0  0  0  0
    2.4078    2.3272   -2.3134 C   0  0  0  0  0  0  0  0  0  0  0  0
    2.4646    0.9352   -2.5672 C   0  0  0  0  0  0  0  0  0  0  0  0
    1.4483    0.0560   -2.8490 N   0  0  0  0  0  0  0  0  0  0  0  0
    2.0794   -1.1436   -2.8300 C   0  0  0  0  0  0  0  0  0  0  0  0
    1.6628   -2.4570   -2.9196 C   0  0  0  0  0  0  0  0  0  0  0  0
    0.2039   -3.2469   -3.0675 S   0  0  0  0  0  0  0  0  0  0  0  0
    0.2467    0.3516   -3.6439 C   0  0  0  0  0  0  0  0  0  0  0  0
   -1.0314   -0.2126   -3.0053 C   0  0  0  0  0  0  0  0  0  0  0  0
    0.2672    2.4618   -0.9580 C   0  0  0  0  0  0  0  0  0  0  0  0
    0.7392    1.7735    0.3251 C   0  0  0  0  0  0  0  0  0  0  0  0
    0.8586    6.6578    3.0729 C   0  0  0  0  0  0  0  0  0  0  0  0
    1.7755    6.3618    4.0877 C   0  0  0  0  0  0  0  0  0  0  0  0
    3.0920    6.1216    3.9741 N   0  0  0  0  0  0  0  0  0  0  0  0
    3.4757    5.6881    5.1679 N   0  0  0  0  0  0  0  0  0  0  0  0
    4.8333    5.2452    5.4506 C   0  0  0  0  0  0  0  0  0  0  0  0
    5.0482    3.8368    4.9102 C   0  0  0  0  0  0  0  0  0  0  0  0
    2.4679    5.5769    6.0260 N   0  0  0  0  0  0  0  0  0  0  0  0
    1.3907    6.0195    5.3507 C   0  0  0  0  0  0  0  0  0  0  0  0
    0.0508    5.9053    5.7123 C   0  0  0  0  0  0  0  0  0  0  0  0
   -0.9162    6.3612    4.7670 C   0  0  0  0  0  0  0  0  0  0  0  0
   -0.5113    6.7303    3.4567 C   0  0  0  0  0  0  0  0  0  0  0  0
   -1.5092    7.1656    2.5749 O   0  0  0  0  0  0  0  0  0  0  0  0
   -1.3524    8.2692    1.6860 C   0  0  0  0  0  0  0  0  0  0  0  0
   -2.2834    6.4721    5.0732 O   0  0  0  0  0  0  0  0  0  0  0  0
   -2.7874    6.9376    6.3227 C   0  0  0  0  0  0  0  0  0  0  0  0
   -0.2879    5.2061    6.9661 C   0  0  0  0  0  0  0  0  0  0  0  0
   -1.1179    4.1482    7.0562 C   0  0  0  0  0  0  0  0  0  0  0  0
   -1.7258    3.7454    8.3214 C   0  0  0  0  0  0  0  0  0  0  0  0
   -1.2907    4.0290    9.4703 O   0  0  0  0  0  0  0  0  0  0  0  0
   -2.9741    3.0620    8.0280 C   0  0  0  0  0  0  0  0  0  0  0  0
   -3.9738    2.6255    8.9062 C   0  0  0  0  0  0  0  0  0  0  0  0
   -3.7973    2.7443   10.6534 Cl  0  0  0  0  0  0  0  0  0  0  0  0
   -5.1523    2.0923    8.3612 C   0  0  0  0  0  0  0  0  0  0  0  0
   -5.3258    2.0278    6.9681 C   0  0  0  0  0  0  0  0  0  0  0  0
   -4.3132    2.4687    6.1039 C   0  0  0  0  0  0  0  0  0  0  0  0
   -3.1194    2.9629    6.6508 C   0  0  0  0  0  0  0  0  0  0  0  0
   -1.8982    3.4747    5.9761 C   0  0  0  0  0  0  0  0  0  0  0  0
   -1.4135    3.0384    4.7870 C   0  0  0  0  0  0  0  0  0  0  0  0
   -2.2009    2.2587    3.8686 C   0  0  0  0  0  0  0  0  0  0  0  0
   -2.8148    1.6275    3.1183 N   0  0  0  0  0  0  0  0  0  0  0  0
   -0.0145    3.1227    4.4596 C   0  0  0  0  0  0  0  0  0  0  0  0
    1.1060    3.1656    4.1794 N   0  0  0  0  0  0  0  0  0  0  0  0
   -3.8826   -9.1049   -3.1894 H   0  0  0  0  0  0  0  0  0  0  0  0
   -4.6599   -3.2965   -5.3690 H   0  0  0  0  0  0  0  0  0  0  0  0
   -5.8410   -1.8323   -6.9896 H   0  0  0  0  0  0  0  0  0  0  0  0
   -7.6314   -1.4991   -8.6453 H   0  0  0  0  0  0  0  0  0  0  0  0
   -9.1739   -5.4186   -7.8383 H   0  0  0  0  0  0  0  0  0  0  0  0
   -8.0373   -6.8795   -6.2250 H   0  0  0  0  0  0  0  0  0  0  0  0
   -0.5448   -8.6230   -7.5749 H   0  0  0  0  0  0  0  0  0  0  0  0
    0.8390   -7.4787   -7.4903 H   0  0  0  0  0  0  0  0  0  0  0  0
   -0.8511   -6.7022   -9.1408 H   0  0  0  0  0  0  0  0  0  0  0  0
   -2.1272   -6.7002   -7.8590 H   0  0  0  0  0  0  0  0  0  0  0  0
   -0.7316   -5.5442   -7.7562 H   0  0  0  0  0  0  0  0  0  0  0  0
   -2.9157   -9.1809   -0.3330 H   0  0  0  0  0  0  0  0  0  0  0  0
   -3.7955   -8.2120    0.9029 H   0  0  0  0  0  0  0  0  0  0  0  0
   -4.4860   -8.3360   -0.7482 H   0  0  0  0  0  0  0  0  0  0  0  0
   -1.2050   -6.3573    1.2653 H   0  0  0  0  0  0  0  0  0  0  0  0
   -0.6535   -4.6636    1.4940 H   0  0  0  0  0  0  0  0  0  0  0  0
   -2.2118   -4.9543    0.6466 H   0  0  0  0  0  0  0  0  0  0  0  0
    2.6628   -7.1132   -3.7928 H   0  0  0  0  0  0  0  0  0  0  0  0
    4.1379   -8.9355   -3.0140 H   0  0  0  0  0  0  0  0  0  0  0  0
    5.4612   -8.6668   -0.9460 H   0  0  0  0  0  0  0  0  0  0  0  0
    5.7026   -5.4478    0.9594 H   0  0  0  0  0  0  0  0  0  0  0  0
    6.5089   -7.0135    0.6352 H   0  0  0  0  0  0  0  0  0  0  0  0
    4.6156   -8.2315    1.7293 H   0  0  0  0  0  0  0  0  0  0  0  0
    5.3605   -7.0300    2.8412 H   0  0  0  0  0  0  0  0  0  0  0  0
    3.7779   -6.6604    2.0465 H   0  0  0  0  0  0  0  0  0  0  0  0
    3.7930   -4.7425   -0.3809 H   0  0  0  0  0  0  0  0  0  0  0  0
    5.2186    6.4819    1.4520 H   0  0  0  0  0  0  0  0  0  0  0  0
    6.7573    8.1559    2.3816 H   0  0  0  0  0  0  0  0  0  0  0  0
    5.9239   10.3593    3.1190 H   0  0  0  0  0  0  0  0  0  0  0  0
    3.9744   11.6936    3.8559 H   0  0  0  0  0  0  0  0  0  0  0  0
    2.3117   11.1949    3.4116 H   0  0  0  0  0  0  0  0  0  0  0  0
    2.7849   11.8783    1.0045 H   0  0  0  0  0  0  0  0  0  0  0  0
    2.9277   13.2384    2.1822 H   0  0  0  0  0  0  0  0  0  0  0  0
    4.4157   12.4572    1.5337 H   0  0  0  0  0  0  0  0  0  0  0  0
    1.9397    9.2390    1.9475 H   0  0  0  0  0  0  0  0  0  0  0  0
    0.3703   -0.0756   -4.6645 H   0  0  0  0  0  0  0  0  0  0  0  0
    0.1394    1.4503   -3.7846 H   0  0  0  0  0  0  0  0  0  0  0  0
   -0.8479   -0.5653   -1.9661 H   0  0  0  0  0  0  0  0  0  0  0  0
   -1.4205   -1.0526   -3.6155 H   0  0  0  0  0  0  0  0  0  0  0  0
   -1.8208    0.5646   -2.9855 H   0  0  0  0  0  0  0  0  0  0  0  0
   -0.4754    3.2489   -0.7251 H   0  0  0  0  0  0  0  0  0  0  0  0
   -0.2846    1.7456   -1.5625 H   0  0  0  0  0  0  0  0  0  0  0  0
    1.4070    2.4494    0.9037 H   0  0  0  0  0  0  0  0  0  0  0  0
    1.2938    0.8418    0.0749 H   0  0  0  0  0  0  0  0  0  0  0  0
   -0.1366    1.5094    0.9500 H   0  0  0  0  0  0  0  0  0  0  0  0
    5.5526    5.9377    4.9679 H   0  0  0  0  0  0  0  0  0  0  0  0
    5.0153    5.2588    6.5482 H   0  0  0  0  0  0  0  0  0  0  0  0
    6.1008    3.5288    5.0742 H   0  0  0  0  0  0  0  0  0  0  0  0
    4.8304    3.8084    3.8174 H   0  0  0  0  0  0  0  0  0  0  0  0
    4.3752    3.1229    5.4309 H   0  0  0  0  0  0  0  0  0  0  0  0
   -0.7380    7.9873    0.8068 H   0  0  0  0  0  0  0  0  0  0  0  0
   -0.8831    9.1249    2.2175 H   0  0  0  0  0  0  0  0  0  0  0  0
   -2.3571    8.5779    1.3271 H   0  0  0  0  0  0  0  0  0  0  0  0
   -2.9461    6.0938    7.0214 H   0  0  0  0  0  0  0  0  0  0  0  0
   -3.7710    7.4212    6.1531 H   0  0  0  0  0  0  0  0  0  0  0  0
   -2.0969    7.6854    6.7709 H   0  0  0  0  0  0  0  0  0  0  0  0
    0.1540    5.5967    7.8741 H   0  0  0  0  0  0  0  0  0  0  0  0
   -5.9415    1.7464    9.0160 H   0  0  0  0  0  0  0  0  0  0  0  0
   -6.2489    1.6364    6.5642 H   0  0  0  0  0  0  0  0  0  0  0  0
   -4.4888    2.4444    5.0428 H   0  0  0  0  0  0  0  0  0  0  0  0
  1  2  2  3
  2  3  1  0
  3  4  2  0
  3  5  1  0
  5  6  2  0
  6  7  1  0
  7  8  2  0
  8  9  1  0
  9 10  2  0
 10 11  1  0
 10 12  1  0
 12 13  2  0
 13 14  1  0
 14 15  2  0
 15 16  1  0
 16 17  2  3
 17 18  1  0
 18 19  3  0
 17 20  1  0
 20 21  3  0
  1 22  1  0
 22 23  1  0
 23 24  2  0
 24 25  1  0
 25 26  1  0
 26 27  1  0
 25 28  1  0
 28 29  2  0
 29 30  1  0
 30 31  2  0
 31 32  1  0
 32 33  1  0
 33 34  1  0
 31 35  1  0
 35 36  1  0
 30 37  1  0
 37 38  2  0
 38 39  1  0
 39 40  2  0
 40 41  1  0
 41 42  2  0
 42 43  1  0
 43 44  1  0
 44 45  1  0
 43 46  2  0
 38 47  1  0
 47 48  1  0
 48 49  1  0
 49 50  1  0
 50 51  1  0
 51 52  1  0
 52 53  2  0
 53 54  1  0
 54 55  1  0
 52 56  1  0
 56 57  1  0
 57 58  1  0
 58 59  1  0
 59 60  1  0
 60 61  1  0
 61 62  2  0
 62 63  1  0
 63 64  2  0
 64 65  1  0
 65 66  1  0
 66 67  1  0
 65 68  2  0
 60 69  2  0
 69 70  1  0
 70 71  1  0
 71 72  1  0
 72 73  1  0
 73 74  1  0
 74 75  1  0
 75 76  1  0
 76 77  1  0
 77 78  1  0
 78 79  1  0
 76 80  1  0
 80 81  1  0
 73 82  1  0
 82 83  1  0
 69 84  1  0
 84 85  1  0
 85 86  2  0
 86 87  1  0
 87 88  1  0
 88 89  1  0
 87 90  1  0
 90 91  2  0
 91 92  1  0
 92 93  2  0
 93 94  1  0
 94 95  1  0
 95 96  1  0
 93 97  1  0
 97 98  1  0
 92 99  1  0
 99100  2  3
100101  1  0
101102  2  0
101103  1  0
103104  2  0
104105  1  0
104106  1  0
106107  2  0
107108  1  0
108109  2  0
109110  1  0
110111  2  3
111112  1  0
112113  3  0
111114  1  0
114115  3  0
 16  2  1  0
 32 22  2  0
 79 37  1  0
 94 84  2  0
110100  1  0
 15  5  1  0
 29 23  1  0
 46 39  1  0
 78 47  2  0
 91 85  1  0
109103  1  0
 13  7  1  0
 77 49  2  0
 75 50  2  0
 55 51  2  0
 74 56  2  0
 72 57  2  0
 71 59  2  0
 68 61  1  0
  1116  1  0
  6117  1  0
  8118  1  0
  9119  1  0
 12120  1  0
 14121  1  0
 26122  1  0
 26123  1  0
 27124  1  0
 27125  1  0
 27126  1  0
 34127  1  0
 34128  1  0
 34129  1  0
 36130  1  0
 36131  1  0
 36132  1  0
 40133  1  0
 41134  1  0
 42135  1  0
 44136  1  0
 44137  1  0
 45138  1  0
 45139  1  0
 45140  1  0
 46141  1  0
 62142  1  0
 63143  1  0
 64144  1  0
 66145  1  0
 66146  1  0
 67147  1  0
 67148  1  0
 67149  1  0
 68150  1  0
 80151  1  0
 80152  1  0
 81153  1  0
 81154  1  0
 81155  1  0
 82156  1  0
 82157  1  0
 83158  1  0
 83159  1  0
 83160  1  0
 88161  1  0
 88162  1  0
 89163  1  0
 89164  1  0
 89165  1  0
 96166  1  0
 96167  1  0
 96168  1  0
 98169  1  0
 98170  1  0
 98171  1  0
 99172  1  0
106173  1  0
107174  1  0
108175  1  0
M  END

