
     RDKit          3D

169188  0  0  0  0  0  0  0  0999 V2000
    9.0195   -6.8125   -0.1517 C   0  0  0  0  0  0  0  0  0  0  0  0
    8.9005   -7.5667   -1.2613 C   0  0  0  0  0  0  0  0  0  0  0  0
    8.7431   -7.0527   -2.6275 C   0  0  0  0  0  0  0  0  0  0  0  0
    8.4011   -5.8853   -2.9579 O   0  0  0  0  0  0  0  0  0  0  0  0
    9.0424   -8.1194   -3.5531 C   0  0  0  0  0  0  0  0  0  0  0  0
    9.1505   -8.0398   -4.9409 C   0  0  0  0  0  0  0  0  0  0  0  0
    9.5525   -9.1841   -5.6503 C   0  0  0  0  0  0  0  0  0  0  0  0
    9.6863   -9.1457   -7.0466 C   0  0  0  0  0  0  0  0  0  0  0  0
   10.1120  -10.2794   -7.7442 C   0  0  0  0  0  0  0  0  0  0  0  0
   10.4098  -11.4594   -7.0542 C   0  0  0  0  0  0  0  0  0  0  0  0
   10.8314  -12.5510   -7.7392 F   0  0  0  0  0  0  0  0  0  0  0  0
   10.2881  -11.5121   -5.6611 C   0  0  0  0  0  0  0  0  0  0  0  0
    9.8598  -10.3830   -4.9456 C   0  0  0  0  0  0  0  0  0  0  0  0
    9.7500  -10.4250   -3.5400 C   0  0  0  0  0  0  0  0  0  0  0  0
    9.3111   -9.2827   -2.8512 C   0  0  0  0  0  0  0  0  0  0  0  0
    9.1231   -9.0392   -1.3915 C   0  0  0  0  0  0  0  0  0  0  0  0
    8.9244   -9.9792   -0.4325 C   0  0  0  0  0  0  0  0  0  0  0  0
    8.4422   -9.6463    0.8816 C   0  0  0  0  0  0  0  0  0  0  0  0
    8.0533   -9.3892    1.9416 N   0  0  0  0  0  0  0  0  0  0  0  0
    9.0526  -11.3933   -0.6835 C   0  0  0  0  0  0  0  0  0  0  0  0
    9.1607  -12.5328   -0.8569 N   0  0  0  0  0  0  0  0  0  0  0  0
    8.8895   -5.3487   -0.1899 C   0  0  0  0  0  0  0  0  0  0  0  0
    7.6606   -4.7549    0.1325 C   0  0  0  0  0  0  0  0  0  0  0  0
    7.4277   -3.3988   -0.1358 C   0  0  0  0  0  0  0  0  0  0  0  0
    8.4266   -2.6044   -0.7247 C   0  0  0  0  0  0  0  0  0  0  0  0
    9.6938   -3.1644   -0.9453 C   0  0  0  0  0  0  0  0  0  0  0  0
   10.7301   -2.4635   -1.4743 N   0  0  0  0  0  0  0  0  0  0  0  0
   11.8760   -3.6520   -1.5666 S   0  0  0  0  0  0  0  0  0  0  0  0
   11.1591   -5.0241   -0.9857 N   0  0  0  0  0  0  0  0  0  0  0  0
    9.9260   -4.5429   -0.6811 C   0  0  0  0  0  0  0  0  0  0  0  0
    8.0635   -1.2972   -1.2957 C   0  0  0  0  0  0  0  0  0  0  0  0
    7.8713   -1.0642   -2.6737 C   0  0  0  0  0  0  0  0  0  0  0  0
    8.0187   -2.1062   -3.7476 C   0  0  0  0  0  0  0  0  0  0  0  0
    6.7235   -2.8962   -3.9200 C   0  0  0  0  0  0  0  0  0  0  0  0
    7.2237    0.1539   -2.8882 C   0  0  0  0  0  0  0  0  0  0  0  0
    6.4192    0.7840   -4.2544 S   0  0  0  0  0  0  0  0  0  0  0  0
    5.6775    1.9648   -3.2992 C   0  0  0  0  0  0  0  0  0  0  0  0
    4.6891    2.8896   -3.3977 C   0  0  0  0  0  0  0  0  0  0  0  0
    3.9652    3.3764   -4.4792 C   0  0  0  0  0  0  0  0  0  0  0  0
    2.9749    4.2880   -4.2904 C   0  0  0  0  0  0  0  0  0  0  0  0
    2.4045    4.5591   -5.4752 N   0  0  0  0  0  0  0  0  0  0  0  0
    3.0806    3.8065   -6.3458 N   0  0  0  0  0  0  0  0  0  0  0  0
    2.8484    3.8376   -7.7864 C   0  0  0  0  0  0  0  0  0  0  0  0
    3.8776    4.7370   -8.4612 C   0  0  0  0  0  0  0  0  0  0  0  0
    4.0405    3.0732   -5.7824 N   0  0  0  0  0  0  0  0  0  0  0  0
    2.6473    4.7279   -3.0037 C   0  0  0  0  0  0  0  0  0  0  0  0
    1.5171    5.3357   -2.5382 C   0  0  0  0  0  0  0  0  0  0  0  0
   -0.0360    5.5812   -3.1890 S   0  0  0  0  0  0  0  0  0  0  0  0
   -0.7453    5.5055   -1.6416 C   0  0  0  0  0  0  0  0  0  0  0  0
   -2.0722    5.3923   -1.2101 C   0  0  0  0  0  0  0  0  0  0  0  0
   -3.2761    5.5682   -2.0928 C   0  0  0  0  0  0  0  0  0  0  0  0
   -3.8921    6.9482   -1.8831 C   0  0  0  0  0  0  0  0  0  0  0  0
   -2.1237    5.0656    0.1561 C   0  0  0  0  0  0  0  0  0  0  0  0
   -0.5534    4.8670    0.7713 S   0  0  0  0  0  0  0  0  0  0  0  0
    0.1982    5.2506   -0.6793 C   0  0  0  0  0  0  0  0  0  0  0  0
    1.4892    5.1335   -1.1907 C   0  0  0  0  0  0  0  0  0  0  0  0
    2.5665    4.4319   -0.7418 N   0  0  0  0  0  0  0  0  0  0  0  0
    3.3183    4.2112   -1.8713 C   0  0  0  0  0  0  0  0  0  0  0  0
    4.4226    3.3187   -2.0848 C   0  0  0  0  0  0  0  0  0  0  0  0
    5.2934    2.7233   -1.2000 N   0  0  0  0  0  0  0  0  0  0  0  0
    6.0100    1.8820   -1.9902 C   0  0  0  0  0  0  0  0  0  0  0  0
    6.9143    0.8562   -1.7459 C   0  0  0  0  0  0  0  0  0  0  0  0
    7.3875   -0.0137   -0.3960 S   0  0  0  0  0  0  0  0  0  0  0  0
    5.8386    3.3194    0.0265 C   0  0  0  0  0  0  0  0  0  0  0  0
    5.7354    2.3728    1.2302 C   0  0  0  0  0  0  0  0  0  0  0  0
    2.5839    3.6845    0.5197 C   0  0  0  0  0  0  0  0  0  0  0  0
    2.8467    4.6156    1.7008 C   0  0  0  0  0  0  0  0  0  0  0  0
   -3.3177    4.6595    0.8960 C   0  0  0  0  0  0  0  0  0  0  0  0
   -3.9392    5.3907    1.9003 C   0  0  0  0  0  0  0  0  0  0  0  0
   -4.9963    4.6890    2.5009 C   0  0  0  0  0  0  0  0  0  0  0  0
   -5.8548    5.1693    3.5125 C   0  0  0  0  0  0  0  0  0  0  0  0
   -5.7530    6.5442    4.0187 C   0  0  0  0  0  0  0  0  0  0  0  0
   -4.4725    7.1460    4.9276 S   0  0  0  0  0  0  0  0  0  0  0  0
   -5.0431    8.7272    5.0126 C   0  0  0  0  0  0  0  0  0  0  0  0
   -4.3217    9.8602    5.6762 C   0  0  0  0  0  0  0  0  0  0  0  0
   -3.3701   10.5427    4.7005 C   0  0  0  0  0  0  0  0  0  0  0  0
   -6.2369    8.8088    4.2992 C   0  0  0  0  0  0  0  0  0  0  0  0
   -7.1350   10.3059    4.0757 Cl  0  0  0  0  0  0  0  0  0  0  0  0
   -6.6427    7.5789    3.7537 C   0  0  0  0  0  0  0  0  0  0  0  0
   -8.0835    7.3907    2.7622 Cl  0  0  0  0  0  0  0  0  0  0  0  0
   -6.8679    4.2984    3.9560 C   0  0  0  0  0  0  0  0  0  0  0  0
   -7.0352    3.0161    3.4196 C   0  0  0  0  0  0  0  0  0  0  0  0
   -6.1985    2.5469    2.3935 C   0  0  0  0  0  0  0  0  0  0  0  0
   -6.4238    1.2345    1.7631 C   0  0  0  0  0  0  0  0  0  0  0  0
   -5.5718    0.1401    1.8393 C   0  0  0  0  0  0  0  0  0  0  0  0
   -6.1186   -1.0188    1.2728 C   0  0  0  0  0  0  0  0  0  0  0  0
   -7.3909   -0.8260    0.7365 C   0  0  0  0  0  0  0  0  0  0  0  0
   -8.2660   -1.8751    0.1258 C   0  0  0  0  0  0  0  0  0  0  0  0
   -7.6039   -2.5148   -1.0922 C   0  0  0  0  0  0  0  0  0  0  0  0
   -7.8373    0.7762    0.9809 S   0  0  0  0  0  0  0  0  0  0  0  0
   -5.1794    3.4079    1.9632 C   0  0  0  0  0  0  0  0  0  0  0  0
   -4.0474    3.1451    0.7475 S   0  0  0  0  0  0  0  0  0  0  0  0
   -8.0858    2.3070    4.0024 C   0  0  0  0  0  0  0  0  0  0  0  0
   -8.7674    3.0400    4.9666 C   0  0  0  0  0  0  0  0  0  0  0  0
   -8.0419    4.5550    5.1462 S   0  0  0  0  0  0  0  0  0  0  0  0
   -9.9624    2.5320    5.6540 C   0  0  0  0  0  0  0  0  0  0  0  0
  -11.0204    2.1058    4.9386 C   0  0  0  0  0  0  0  0  0  0  0  0
  -11.2124    2.3823    3.5106 C   0  0  0  0  0  0  0  0  0  0  0  0
  -10.8069    3.4045    2.8925 O   0  0  0  0  0  0  0  0  0  0  0  0
  -11.9055    1.2658    2.9142 C   0  0  0  0  0  0  0  0  0  0  0  0
  -12.0508    0.9804    1.5587 C   0  0  0  0  0  0  0  0  0  0  0  0
  -12.5110   -0.2953    1.1774 C   0  0  0  0  0  0  0  0  0  0  0  0
  -12.6201   -0.6204   -0.2883 C   0  0  0  0  0  0  0  0  0  0  0  0
  -12.7789   -1.2757    2.1781 C   0  0  0  0  0  0  0  0  0  0  0  0
  -13.1001   -2.6965    1.8023 C   0  0  0  0  0  0  0  0  0  0  0  0
  -12.6368   -0.9372    3.5445 C   0  0  0  0  0  0  0  0  0  0  0  0
  -12.2372    0.3555    3.8991 C   0  0  0  0  0  0  0  0  0  0  0  0
  -11.8492    0.8991    5.2322 C   0  0  0  0  0  0  0  0  0  0  0  0
  -12.2837    0.4738    6.4449 C   0  0  0  0  0  0  0  0  0  0  0  0
  -11.9116    1.1419    7.6649 C   0  0  0  0  0  0  0  0  0  0  0  0
  -11.6093    1.6801    8.6421 N   0  0  0  0  0  0  0  0  0  0  0  0
  -13.2565   -0.5793    6.5829 C   0  0  0  0  0  0  0  0  0  0  0  0
  -14.0499   -1.4134    6.7042 N   0  0  0  0  0  0  0  0  0  0  0  0
    9.2627   -7.2567    0.8024 H   0  0  0  0  0  0  0  0  0  0  0  0
    8.9425   -7.1092   -5.4518 H   0  0  0  0  0  0  0  0  0  0  0  0
    9.4693   -8.2367   -7.5956 H   0  0  0  0  0  0  0  0  0  0  0  0
   10.2122  -10.2424   -8.8211 H   0  0  0  0  0  0  0  0  0  0  0  0
   10.5392  -12.4285   -5.1443 H   0  0  0  0  0  0  0  0  0  0  0  0
   10.0400  -11.3216   -3.0168 H   0  0  0  0  0  0  0  0  0  0  0  0
    6.8550   -5.3665    0.5227 H   0  0  0  0  0  0  0  0  0  0  0  0
    6.4422   -2.9913    0.0438 H   0  0  0  0  0  0  0  0  0  0  0  0
    8.8420   -2.8075   -3.5035 H   0  0  0  0  0  0  0  0  0  0  0  0
    8.2804   -1.6166   -4.7087 H   0  0  0  0  0  0  0  0  0  0  0  0
    6.4293   -3.3759   -2.9628 H   0  0  0  0  0  0  0  0  0  0  0  0
    6.8686   -3.6875   -4.6828 H   0  0  0  0  0  0  0  0  0  0  0  0
    5.9021   -2.2257   -4.2604 H   0  0  0  0  0  0  0  0  0  0  0  0
    2.9339    2.8092   -8.1922 H   0  0  0  0  0  0  0  0  0  0  0  0
    1.8244    4.2154   -7.9986 H   0  0  0  0  0  0  0  0  0  0  0  0
    3.7108    4.7365   -9.5579 H   0  0  0  0  0  0  0  0  0  0  0  0
    3.7813    5.7742   -8.0806 H   0  0  0  0  0  0  0  0  0  0  0  0
    4.9066    4.3668   -8.2553 H   0  0  0  0  0  0  0  0  0  0  0  0
   -2.9928    5.4546   -3.1608 H   0  0  0  0  0  0  0  0  0  0  0  0
   -4.0311    4.7870   -1.8612 H   0  0  0  0  0  0  0  0  0  0  0  0
   -4.8071    7.0476   -2.5007 H   0  0  0  0  0  0  0  0  0  0  0  0
   -3.1719    7.7407   -2.1827 H   0  0  0  0  0  0  0  0  0  0  0  0
   -4.1680    7.0955   -0.8163 H   0  0  0  0  0  0  0  0  0  0  0  0
    5.3286    4.2762    0.2395 H   0  0  0  0  0  0  0  0  0  0  0  0
    6.9081    3.5818   -0.1403 H   0  0  0  0  0  0  0  0  0  0  0  0
    6.7492    2.0504    1.5542 H   0  0  0  0  0  0  0  0  0  0  0  0
    5.2631    2.8970    2.0893 H   0  0  0  0  0  0  0  0  0  0  0  0
    5.1347    1.4686    0.9897 H   0  0  0  0  0  0  0  0  0  0  0  0
    1.6123    3.1696    0.6604 H   0  0  0  0  0  0  0  0  0  0  0  0
    3.3135    2.8645    0.4851 H   0  0  0  0  0  0  0  0  0  0  0  0
    2.0564    5.3966    1.7721 H   0  0  0  0  0  0  0  0  0  0  0  0
    2.8546    4.0279    2.6456 H   0  0  0  0  0  0  0  0  0  0  0  0
    3.8229    5.1389    1.5982 H   0  0  0  0  0  0  0  0  0  0  0  0
   -3.6300    6.3898    2.1784 H   0  0  0  0  0  0  0  0  0  0  0  0
   -5.0535   10.6021    6.0678 H   0  0  0  0  0  0  0  0  0  0  0  0
   -3.7442    9.4730    6.5447 H   0  0  0  0  0  0  0  0  0  0  0  0
   -2.5811    9.8297    4.3815 H   0  0  0  0  0  0  0  0  0  0  0  0
   -2.8914   11.4110    5.1977 H   0  0  0  0  0  0  0  0  0  0  0  0
   -3.9175   10.9037    3.8042 H   0  0  0  0  0  0  0  0  0  0  0  0
   -4.6119    0.1624    2.3346 H   0  0  0  0  0  0  0  0  0  0  0  0
   -5.6110   -1.9747    1.2748 H   0  0  0  0  0  0  0  0  0  0  0  0
   -9.2306   -1.4181   -0.1873 H   0  0  0  0  0  0  0  0  0  0  0  0
   -8.4871   -2.6587    0.8839 H   0  0  0  0  0  0  0  0  0  0  0  0
   -8.2859   -3.2789   -1.5255 H   0  0  0  0  0  0  0  0  0  0  0  0
   -7.3900   -1.7445   -1.8656 H   0  0  0  0  0  0  0  0  0  0  0  0
   -6.6570   -3.0182   -0.7977 H   0  0  0  0  0  0  0  0  0  0  0  0
   -8.3635    1.3005    3.7283 H   0  0  0  0  0  0  0  0  0  0  0  0
   -9.8144    2.2142    6.6741 H   0  0  0  0  0  0  0  0  0  0  0  0
  -11.7608    1.7165    0.8171 H   0  0  0  0  0  0  0  0  0  0  0  0
  -12.4674    0.2856   -0.9180 H   0  0  0  0  0  0  0  0  0  0  0  0
  -11.8484   -1.3708   -0.5709 H   0  0  0  0  0  0  0  0  0  0  0  0
  -13.6294   -1.0190   -0.5185 H   0  0  0  0  0  0  0  0  0  0  0  0
  -13.9747   -2.7252    1.1217 H   0  0  0  0  0  0  0  0  0  0  0  0
  -13.3458   -3.3075    2.6997 H   0  0  0  0  0  0  0  0  0  0  0  0
  -12.2239   -3.1561    1.2985 H   0  0  0  0  0  0  0  0  0  0  0  0
  -12.7675   -1.6984    4.3007 H   0  0  0  0  0  0  0  0  0  0  0  0
  1  2  2  3
  2  3  1  0
  3  4  2  0
  3  5  1  0
  5  6  2  0
  6  7  1  0
  7  8  2  0
  8  9  1  0
  9 10  2  0
 10 11  1  0
 10 12  1  0
 12 13  2  0
 13 14  1  0
 14 15  2  0
 15 16  1  0
 16 17  2  3
 17 18  1  0
 18 19  3  0
 17 20  1  0
 20 21  3  0
  1 22  1  0
 22 23  2  0
 23 24  1  0
 24 25  2  0
 25 26  1  0
 26 27  2  0
 27 28  1  0
 28 29  1  0
 29 30  2  0
 25 31  1  0
 31 32  2  0
 32 33  1  0
 33 34  1  0
 32 35  1  0
 35 36  1  0
 36 37  1  0
 37 38  1  0
 38 39  1  0
 39 40  1  0
 40 41  2  0
 41 42  1  0
 42 43  1  0
 43 44  1  0
 42 45  1  0
 40 46  1  0
 46 47  1  0
 47 48  1  0
 48 49  1  0
 49 50  1  0
 50 51  1  0
 51 52  1  0
 50 53  2  0
 53 54  1  0
 54 55  1  0
 55 56  1  0
 56 57  1  0
 57 58  1  0
 58 59  1  0
 59 60  1  0
 60 61  1  0
 61 62  1  0
 62 63  1  0
 60 64  1  0
 64 65  1  0
 57 66  1  0
 66 67  1  0
 53 68  1  0
 68 69  2  0
 69 70  1  0
 70 71  2  0
 71 72  1  0
 72 73  1  0
 73 74  1  0
 74 75  1  0
 75 76  1  0
 74 77  2  0
 77 78  1  0
 77 79  1  0
 79 80  1  0
 71 81  1  0
 81 82  2  0
 82 83  1  0
 83 84  1  0
 84 85  2  0
 85 86  1  0
 86 87  2  0
 87 88  1  0
 88 89  1  0
 87 90  1  0
 83 91  2  0
 91 92  1  0
 82 93  1  0
 93 94  2  0
 94 95  1  0
 94 96  1  0
 96 97  2  3
 97 98  1  0
 98 99  2  0
 98100  1  0
100101  2  0
101102  1  0
102103  1  0
102104  2  0
104105  1  0
104106  1  0
106107  2  0
107108  1  0
108109  2  3
109110  1  0
110111  3  0
109112  1  0
112113  3  0
 16  2  1  0
 30 22  1  0
 63 31  1  0
 92 68  1  0
108 97  1  0
 15  5  1  0
 30 26  1  0
 62 35  2  0
 91 70  1  0
107100  1  0
 13  7  1  0
 61 37  2  0
 79 72  2  0
 95 81  1  0
 59 38  2  0
 90 84  1  0
 45 39  2  0
 58 46  2  0
 56 47  2  0
 55 49  2  0
  1114  1  0
  6115  1  0
  8116  1  0
  9117  1  0
 12118  1  0
 14119  1  0
 23120  1  0
 24121  1  0
 33122  1  0
 33123  1  0
 34124  1  0
 34125  1  0
 34126  1  0
 43127  1  0
 43128  1  0
 44129  1  0
 44130  1  0
 44131  1  0
 51132  1  0
 51133  1  0
 52134  1  0
 52135  1  0
 52136  1  0
 64137  1  0
 64138  1  0
 65139  1  0
 65140  1  0
 65141  1  0
 66142  1  0
 66143  1  0
 67144  1  0
 67145  1  0
 67146  1  0
 69147  1  0
 75148  1  0
 75149  1  0
 76150  1  0
 76151  1  0
 76152  1  0
 85153  1  0
 86154  1  0
 88155  1  0
 88156  1  0
 89157  1  0
 89158  1  0
 89159  1  0
 93160  1  0
 96161  1  0
101162  1  0
103163  1  0
103164  1  0
103165  1  0
105166  1  0
105167  1  0
105168  1  0
106169  1  0
M  END

