
     RDKit          3D

142156  0  0  0  0  0  0  0  0999 V2000
    3.2691   -1.8070    3.2596 C   0  0  0  0  0  0  0  0  0  0  0  0
    4.2172   -2.2152    2.3929 C   0  0  0  0  0  0  0  0  0  0  0  0
    5.6429   -1.8609    2.4189 C   0  0  0  0  0  0  0  0  0  0  0  0
    6.2900   -1.3784    3.3845 O   0  0  0  0  0  0  0  0  0  0  0  0
    6.2075   -2.1495    1.1161 C   0  0  0  0  0  0  0  0  0  0  0  0
    7.5120   -1.9211    0.6773 C   0  0  0  0  0  0  0  0  0  0  0  0
    7.8513   -2.2746   -0.6397 C   0  0  0  0  0  0  0  0  0  0  0  0
    9.1580   -2.0865   -1.1145 C   0  0  0  0  0  0  0  0  0  0  0  0
    9.4897   -2.4425   -2.4252 C   0  0  0  0  0  0  0  0  0  0  0  0
    8.5220   -2.9917   -3.2712 C   0  0  0  0  0  0  0  0  0  0  0  0
    8.8530   -3.3408   -4.5398 F   0  0  0  0  0  0  0  0  0  0  0  0
    7.2151   -3.1925   -2.8125 C   0  0  0  0  0  0  0  0  0  0  0  0
    6.8654   -2.8362   -1.5007 C   0  0  0  0  0  0  0  0  0  0  0  0
    5.5539   -3.0425   -1.0315 C   0  0  0  0  0  0  0  0  0  0  0  0
    5.2384   -2.7039    0.2962 C   0  0  0  0  0  0  0  0  0  0  0  0
    3.9686   -2.8604    1.0647 C   0  0  0  0  0  0  0  0  0  0  0  0
    2.8837   -3.6066    0.7209 C   0  0  0  0  0  0  0  0  0  0  0  0
    2.6551   -4.1063   -0.6066 C   0  0  0  0  0  0  0  0  0  0  0  0
    2.4434   -4.5058   -1.6767 N   0  0  0  0  0  0  0  0  0  0  0  0
    1.9145   -4.0402    1.6974 C   0  0  0  0  0  0  0  0  0  0  0  0
    1.1421   -4.3909    2.4864 N   0  0  0  0  0  0  0  0  0  0  0  0
    3.5069   -1.1050    4.5395 C   0  0  0  0  0  0  0  0  0  0  0  0
    2.4615   -0.7192    5.2709 C   0  0  0  0  0  0  0  0  0  0  0  0
    2.6202    0.0352    6.5257 C   0  0  0  0  0  0  0  0  0  0  0  0
    1.9354    1.1535    6.8190 C   0  0  0  0  0  0  0  0  0  0  0  0
    1.0571    1.8612    5.8581 C   0  0  0  0  0  0  0  0  0  0  0  0
    1.2743    3.1784    5.3912 C   0  0  0  0  0  0  0  0  0  0  0  0
    2.2281    4.1369    5.9882 C   0  0  0  0  0  0  0  0  0  0  0  0
    2.1788    4.4008    7.3681 C   0  0  0  0  0  0  0  0  0  0  0  0
    3.0324    5.3488    7.9414 C   0  0  0  0  0  0  0  0  0  0  0  0
    3.9191    6.0662    7.1404 C   0  0  0  0  0  0  0  0  0  0  0  0
    3.9822    5.8199    5.7607 C   0  0  0  0  0  0  0  0  0  0  0  0
    4.8971    6.6388    4.8918 C   0  0  0  0  0  0  0  0  0  0  0  0
    4.1435    7.8239    4.2890 C   0  0  0  0  0  0  0  0  0  0  0  0
    3.1361    4.8530    5.1877 C   0  0  0  0  0  0  0  0  0  0  0  0
    0.4789    3.4479    4.2703 C   0  0  0  0  0  0  0  0  0  0  0  0
    0.5076    4.6727    3.0672 S   0  0  0  0  0  0  0  0  0  0  0  0
   -0.5829    3.7906    2.1106 C   0  0  0  0  0  0  0  0  0  0  0  0
   -1.0820    3.7793    0.8397 C   0  0  0  0  0  0  0  0  0  0  0  0
   -1.0059    4.6974   -0.2083 C   0  0  0  0  0  0  0  0  0  0  0  0
   -1.5916    4.3489   -1.4638 C   0  0  0  0  0  0  0  0  0  0  0  0
   -1.4849    5.2557   -2.4632 N   0  0  0  0  0  0  0  0  0  0  0  0
   -0.6699    6.4598   -1.6621 S   0  0  0  0  0  0  0  0  0  0  0  0
   -0.4140    5.9155   -0.1179 N   0  0  0  0  0  0  0  0  0  0  0  0
   -2.1879    3.0902   -1.6058 C   0  0  0  0  0  0  0  0  0  0  0  0
   -2.5435    2.3996   -2.7292 C   0  0  0  0  0  0  0  0  0  0  0  0
   -2.3832    2.6001   -4.4107 S   0  0  0  0  0  0  0  0  0  0  0  0
   -2.5899    0.9246   -4.6616 C   0  0  0  0  0  0  0  0  0  0  0  0
   -2.5822    0.0993   -5.7908 C   0  0  0  0  0  0  0  0  0  0  0  0
   -2.3859    0.5699   -7.1736 C   0  0  0  0  0  0  0  0  0  0  0  0
   -3.3107    0.2250   -8.1721 C   0  0  0  0  0  0  0  0  0  0  0  0
   -3.1025    0.6371   -9.4905 C   0  0  0  0  0  0  0  0  0  0  0  0
   -1.9706    1.3898   -9.8241 C   0  0  0  0  0  0  0  0  0  0  0  0
   -1.0396    1.7397   -8.8335 C   0  0  0  0  0  0  0  0  0  0  0  0
    0.2125    2.4868   -9.2052 C   0  0  0  0  0  0  0  0  0  0  0  0
    1.2981    1.5208   -9.6793 C   0  0  0  0  0  0  0  0  0  0  0  0
   -1.2504    1.3253   -7.5074 C   0  0  0  0  0  0  0  0  0  0  0  0
   -2.7717   -1.2471   -5.4265 C   0  0  0  0  0  0  0  0  0  0  0  0
   -2.8627   -1.3843   -3.7338 S   0  0  0  0  0  0  0  0  0  0  0  0
   -2.7267    0.2595   -3.4703 C   0  0  0  0  0  0  0  0  0  0  0  0
   -2.6907    1.0975   -2.3664 C   0  0  0  0  0  0  0  0  0  0  0  0
   -2.4267    0.8752   -1.0513 N   0  0  0  0  0  0  0  0  0  0  0  0
   -2.1999    2.1429   -0.5641 C   0  0  0  0  0  0  0  0  0  0  0  0
   -1.7237    2.5383    0.7094 C   0  0  0  0  0  0  0  0  0  0  0  0
   -1.7256    1.8520    1.8939 N   0  0  0  0  0  0  0  0  0  0  0  0
   -0.9634    2.6292    2.6937 C   0  0  0  0  0  0  0  0  0  0  0  0
   -0.3725    2.4315    3.9232 C   0  0  0  0  0  0  0  0  0  0  0  0
   -0.1621    1.1128    4.9253 S   0  0  0  0  0  0  0  0  0  0  0  0
   -2.7678    0.9379    2.3825 C   0  0  0  0  0  0  0  0  0  0  0  0
   -3.6658    1.6184    3.4203 C   0  0  0  0  0  0  0  0  0  0  0  0
   -1.8264   -0.3819   -0.5665 C   0  0  0  0  0  0  0  0  0  0  0  0
   -0.3112   -0.3880   -0.7846 C   0  0  0  0  0  0  0  0  0  0  0  0
   -2.6652   -2.4025   -6.3334 C   0  0  0  0  0  0  0  0  0  0  0  0
   -3.6436   -3.2933   -6.5149 C   0  0  0  0  0  0  0  0  0  0  0  0
   -4.9986   -3.1376   -5.9538 C   0  0  0  0  0  0  0  0  0  0  0  0
   -5.3840   -3.6248   -4.7688 C   0  0  0  0  0  0  0  0  0  0  0  0
   -4.4539   -4.2439   -3.7929 C   0  0  0  0  0  0  0  0  0  0  0  0
   -4.8444   -4.7244   -2.5963 C   0  0  0  0  0  0  0  0  0  0  0  0
   -6.2373   -4.9815   -2.1891 C   0  0  0  0  0  0  0  0  0  0  0  0
   -7.2472   -5.0341   -2.9443 O   0  0  0  0  0  0  0  0  0  0  0  0
   -6.2520   -5.3333   -0.7907 C   0  0  0  0  0  0  0  0  0  0  0  0
   -7.3555   -5.6683   -0.0052 C   0  0  0  0  0  0  0  0  0  0  0  0
   -7.1409   -6.0660    1.3265 C   0  0  0  0  0  0  0  0  0  0  0  0
   -8.3115   -6.3942    2.2011 C   0  0  0  0  0  0  0  0  0  0  0  0
   -5.8256   -6.1424    1.8258 C   0  0  0  0  0  0  0  0  0  0  0  0
   -4.7290   -5.8191    1.0072 C   0  0  0  0  0  0  0  0  0  0  0  0
   -4.9591   -5.3660   -0.3038 C   0  0  0  0  0  0  0  0  0  0  0  0
   -3.9989   -4.9715   -1.3766 C   0  0  0  0  0  0  0  0  0  0  0  0
   -2.6756   -4.6947   -1.1981 C   0  0  0  0  0  0  0  0  0  0  0  0
   -2.1031   -4.5341    0.1120 C   0  0  0  0  0  0  0  0  0  0  0  0
   -1.6396   -4.3768    1.1663 N   0  0  0  0  0  0  0  0  0  0  0  0
   -1.7535   -4.4471   -2.2760 C   0  0  0  0  0  0  0  0  0  0  0  0
   -0.9959   -4.2510   -3.1279 N   0  0  0  0  0  0  0  0  0  0  0  0
    2.2319   -1.9404    2.9922 H   0  0  0  0  0  0  0  0  0  0  0  0
    8.2426   -1.4859    1.3483 H   0  0  0  0  0  0  0  0  0  0  0  0
    9.9242   -1.6696   -0.4732 H   0  0  0  0  0  0  0  0  0  0  0  0
   10.5026   -2.2959   -2.7797 H   0  0  0  0  0  0  0  0  0  0  0  0
    6.4826   -3.6261   -3.4812 H   0  0  0  0  0  0  0  0  0  0  0  0
    4.8208   -3.4513   -1.7065 H   0  0  0  0  0  0  0  0  0  0  0  0
    4.5066   -0.8717    4.8797 H   0  0  0  0  0  0  0  0  0  0  0  0
    1.4674   -0.9742    4.9363 H   0  0  0  0  0  0  0  0  0  0  0  0
    3.3717   -0.2991    7.2296 H   0  0  0  0  0  0  0  0  0  0  0  0
    2.1844    1.6570    7.7455 H   0  0  0  0  0  0  0  0  0  0  0  0
    1.4629    3.8951    8.0016 H   0  0  0  0  0  0  0  0  0  0  0  0
    2.9876    5.5405    9.0045 H   0  0  0  0  0  0  0  0  0  0  0  0
    4.5537    6.8209    7.5956 H   0  0  0  0  0  0  0  0  0  0  0  0
    5.3071    6.0160    4.0720 H   0  0  0  0  0  0  0  0  0  0  0  0
    5.7554    7.0202    5.4877 H   0  0  0  0  0  0  0  0  0  0  0  0
    3.4094    7.4650    3.5360 H   0  0  0  0  0  0  0  0  0  0  0  0
    4.8667    8.5062    3.7865 H   0  0  0  0  0  0  0  0  0  0  0  0
    3.6151    8.4016    5.0802 H   0  0  0  0  0  0  0  0  0  0  0  0
    3.1872    4.6652    4.1213 H   0  0  0  0  0  0  0  0  0  0  0  0
   -4.1817   -0.3692   -7.9324 H   0  0  0  0  0  0  0  0  0  0  0  0
   -3.8243    0.3774  -10.2569 H   0  0  0  0  0  0  0  0  0  0  0  0
   -1.8224    1.6930  -10.8546 H   0  0  0  0  0  0  0  0  0  0  0  0
    0.5949    3.0618   -8.3350 H   0  0  0  0  0  0  0  0  0  0  0  0
   -0.0088    3.2202  -10.0127 H   0  0  0  0  0  0  0  0  0  0  0  0
    2.1932    2.0931   -9.9948 H   0  0  0  0  0  0  0  0  0  0  0  0
    1.5855    0.8328   -8.8566 H   0  0  0  0  0  0  0  0  0  0  0  0
    0.9322    0.9274  -10.5457 H   0  0  0  0  0  0  0  0  0  0  0  0
   -0.5234    1.5712   -6.7446 H   0  0  0  0  0  0  0  0  0  0  0  0
   -2.3032    0.0314    2.8276 H   0  0  0  0  0  0  0  0  0  0  0  0
   -3.4430    0.6367    1.5522 H   0  0  0  0  0  0  0  0  0  0  0  0
   -4.0880    2.5629    3.0056 H   0  0  0  0  0  0  0  0  0  0  0  0
   -4.5024    0.9407    3.6916 H   0  0  0  0  0  0  0  0  0  0  0  0
   -3.0925    1.8452    4.3462 H   0  0  0  0  0  0  0  0  0  0  0  0
   -2.2756   -1.2531   -1.0875 H   0  0  0  0  0  0  0  0  0  0  0  0
   -2.0215   -0.5621    0.4990 H   0  0  0  0  0  0  0  0  0  0  0  0
    0.0917   -1.3976   -0.5666 H   0  0  0  0  0  0  0  0  0  0  0  0
   -0.0781   -0.1251   -1.8379 H   0  0  0  0  0  0  0  0  0  0  0  0
    0.1680    0.3485   -0.1041 H   0  0  0  0  0  0  0  0  0  0  0  0
   -1.7606   -2.4949   -6.9247 H   0  0  0  0  0  0  0  0  0  0  0  0
   -3.4975   -4.0721   -7.2442 H   0  0  0  0  0  0  0  0  0  0  0  0
   -5.7373   -2.6477   -6.5768 H   0  0  0  0  0  0  0  0  0  0  0  0
   -6.4155   -3.4501   -4.4959 H   0  0  0  0  0  0  0  0  0  0  0  0
   -3.4144   -4.2002   -4.0389 H   0  0  0  0  0  0  0  0  0  0  0  0
   -8.3564   -5.6301   -0.4210 H   0  0  0  0  0  0  0  0  0  0  0  0
   -7.9892   -6.8935    3.1386 H   0  0  0  0  0  0  0  0  0  0  0  0
   -8.8457   -5.4573    2.4611 H   0  0  0  0  0  0  0  0  0  0  0  0
   -9.0101   -7.0733    1.6671 H   0  0  0  0  0  0  0  0  0  0  0  0
   -5.6424   -6.4749    2.8405 H   0  0  0  0  0  0  0  0  0  0  0  0
   -3.7382   -5.9492    1.4120 H   0  0  0  0  0  0  0  0  0  0  0  0
  1  2  2  3
  2  3  1  0
  3  4  2  0
  3  5  1  0
  5  6  2  0
  6  7  1  0
  7  8  2  0
  8  9  1  0
  9 10  2  0
 10 11  1  0
 10 12  1  0
 12 13  2  0
 13 14  1  0
 14 15  2  0
 15 16  1  0
 16 17  2  3
 17 18  1  0
 18 19  3  0
 17 20  1  0
 20 21  3  0
  1 22  1  0
 22 23  2  3
 23 24  1  0
 24 25  2  3
 25 26  1  0
 26 27  2  0
 27 28  1  0
 28 29  2  0
 29 30  1  0
 30 31  2  0
 31 32  1  0
 32 33  1  0
 33 34  1  0
 32 35  2  0
 27 36  1  0
 36 37  1  0
 37 38  1  0
 38 39  1  0
 39 40  1  0
 40 41  1  0
 41 42  2  0
 42 43  1  0
 43 44  1  0
 41 45  1  0
 45 46  1  0
 46 47  1  0
 47 48  1  0
 48 49  1  0
 49 50  1  0
 50 51  2  0
 51 52  1  0
 52 53  2  0
 53 54  1  0
 54 55  1  0
 55 56  1  0
 54 57  2  0
 49 58  2  0
 58 59  1  0
 59 60  1  0
 60 61  1  0
 61 62  1  0
 62 63  1  0
 63 64  1  0
 64 65  1  0
 65 66  1  0
 66 67  1  0
 67 68  1  0
 65 69  1  0
 69 70  1  0
 62 71  1  0
 71 72  1  0
 58 73  1  0
 73 74  2  3
 74 75  1  0
 75 76  2  3
 76 77  1  0
 77 78  2  3
 78 79  1  0
 79 80  2  0
 79 81  1  0
 81 82  2  0
 82 83  1  0
 83 84  1  0
 83 85  2  0
 85 86  1  0
 86 87  2  0
 87 88  1  0
 88 89  2  3
 89 90  1  0
 90 91  3  0
 89 92  1  0
 92 93  3  0
 16  2  1  0
 68 26  1  0
 88 78  1  0
 15  5  1  0
 35 28  1  0
 67 36  2  0
 87 81  1  0
 13  7  1  0
 66 38  2  0
 64 39  2  0
 44 40  2  0
 63 45  2  0
 61 46  2  0
 60 48  2  0
 57 50  1  0
  1 94  1  0
  6 95  1  0
  8 96  1  0
  9 97  1  0
 12 98  1  0
 14 99  1  0
 22100  1  0
 23101  1  0
 24102  1  0
 25103  1  0
 29104  1  0
 30105  1  0
 31106  1  0
 33107  1  0
 33108  1  0
 34109  1  0
 34110  1  0
 34111  1  0
 35112  1  0
 51113  1  0
 52114  1  0
 53115  1  0
 55116  1  0
 55117  1  0
 56118  1  0
 56119  1  0
 56120  1  0
 57121  1  0
 69122  1  0
 69123  1  0
 70124  1  0
 70125  1  0
 70126  1  0
 71127  1  0
 71128  1  0
 72129  1  0
 72130  1  0
 72131  1  0
 73132  1  0
 74133  1  0
 75134  1  0
 76135  1  0
 77136  1  0
 82137  1  0
 84138  1  0
 84139  1  0
 84140  1  0
 85141  1  0
 86142  1  0
M  END

