
     RDKit          3D

151170  0  0  0  0  0  0  0  0999 V2000
    2.7442   -7.6265   -1.1871 C   0  0  0  0  0  0  0  0  0  0  0  0
    3.8307   -8.2728   -1.6478 C   0  0  0  0  0  0  0  0  0  0  0  0
    4.2676   -8.3248   -3.0496 C   0  0  0  0  0  0  0  0  0  0  0  0
    3.7864   -7.6658   -4.0099 O   0  0  0  0  0  0  0  0  0  0  0  0
    5.2674   -9.3651   -3.1775 C   0  0  0  0  0  0  0  0  0  0  0  0
    5.9393   -9.7694   -4.3342 C   0  0  0  0  0  0  0  0  0  0  0  0
    6.8693  -10.8174   -4.2367 C   0  0  0  0  0  0  0  0  0  0  0  0
    7.5970  -11.2348   -5.3624 C   0  0  0  0  0  0  0  0  0  0  0  0
    8.5264  -12.2718   -5.2568 C   0  0  0  0  0  0  0  0  0  0  0  0
    8.7258  -12.9166   -4.0297 C   0  0  0  0  0  0  0  0  0  0  0  0
    9.6351  -13.9180   -3.9340 F   0  0  0  0  0  0  0  0  0  0  0  0
    8.0036  -12.5182   -2.8976 C   0  0  0  0  0  0  0  0  0  0  0  0
    7.0808  -11.4643   -2.9857 C   0  0  0  0  0  0  0  0  0  0  0  0
    6.3723  -11.0425   -1.8406 C   0  0  0  0  0  0  0  0  0  0  0  0
    5.4823   -9.9599   -1.9448 C   0  0  0  0  0  0  0  0  0  0  0  0
    4.6671   -9.2683   -0.9035 C   0  0  0  0  0  0  0  0  0  0  0  0
    4.8472   -9.3344    0.4431 C   0  0  0  0  0  0  0  0  0  0  0  0
    4.1749   -8.4423    1.3582 C   0  0  0  0  0  0  0  0  0  0  0  0
    3.6390   -7.7316    2.1051 N   0  0  0  0  0  0  0  0  0  0  0  0
    5.8111  -10.2045    1.0655 C   0  0  0  0  0  0  0  0  0  0  0  0
    6.5861  -10.8915    1.5827 N   0  0  0  0  0  0  0  0  0  0  0  0
    2.0013   -6.5541   -1.8905 C   0  0  0  0  0  0  0  0  0  0  0  0
    0.6004   -6.5794   -1.8374 C   0  0  0  0  0  0  0  0  0  0  0  0
   -0.1633   -5.4787   -2.2502 C   0  0  0  0  0  0  0  0  0  0  0  0
   -1.5110   -5.5320   -2.1126 F   0  0  0  0  0  0  0  0  0  0  0  0
    0.4522   -4.3046   -2.7210 C   0  0  0  0  0  0  0  0  0  0  0  0
    1.8507   -4.2805   -2.8329 C   0  0  0  0  0  0  0  0  0  0  0  0
    2.6310   -5.4005   -2.3982 C   0  0  0  0  0  0  0  0  0  0  0  0
    3.9796   -5.2542   -2.4514 N   0  0  0  0  0  0  0  0  0  0  0  0
    4.0972   -3.7242   -3.0634 S   0  0  0  0  0  0  0  0  0  0  0  0
    2.5441   -3.1951   -3.2607 N   0  0  0  0  0  0  0  0  0  0  0  0
   -0.3512   -3.0700   -2.8251 C   0  0  0  0  0  0  0  0  0  0  0  0
   -0.4786   -2.1885   -3.9234 C   0  0  0  0  0  0  0  0  0  0  0  0
    0.1667   -2.3334   -5.2347 C   0  0  0  0  0  0  0  0  0  0  0  0
    1.0867   -1.3683   -5.6748 C   0  0  0  0  0  0  0  0  0  0  0  0
    1.5837   -1.4152   -6.9798 C   0  0  0  0  0  0  0  0  0  0  0  0
    1.1464   -2.4072   -7.8595 C   0  0  0  0  0  0  0  0  0  0  0  0
    0.2366   -3.3840   -7.4286 C   0  0  0  0  0  0  0  0  0  0  0  0
   -0.3142   -4.3917   -8.4027 C   0  0  0  0  0  0  0  0  0  0  0  0
   -1.6801   -3.9473   -8.9193 C   0  0  0  0  0  0  0  0  0  0  0  0
   -0.2417   -3.3513   -6.1082 C   0  0  0  0  0  0  0  0  0  0  0  0
   -1.3932   -1.1692   -3.6423 C   0  0  0  0  0  0  0  0  0  0  0  0
   -2.0136    0.1572   -4.5237 S   0  0  0  0  0  0  0  0  0  0  0  0
   -3.0097    0.5963   -3.2114 C   0  0  0  0  0  0  0  0  0  0  0  0
   -3.7022    1.6936   -2.7748 C   0  0  0  0  0  0  0  0  0  0  0  0
   -3.8815    2.9555   -3.3498 C   0  0  0  0  0  0  0  0  0  0  0  0
   -4.4191    4.0059   -2.5432 C   0  0  0  0  0  0  0  0  0  0  0  0
   -4.5307    5.2289   -3.1221 N   0  0  0  0  0  0  0  0  0  0  0  0
   -3.9192    4.8835   -4.6224 S   0  0  0  0  0  0  0  0  0  0  0  0
   -3.5130    3.2755   -4.6150 N   0  0  0  0  0  0  0  0  0  0  0  0
   -4.8106    3.7160   -1.2314 C   0  0  0  0  0  0  0  0  0  0  0  0
   -5.3221    4.5109   -0.2360 C   0  0  0  0  0  0  0  0  0  0  0  0
   -5.0319    6.1190    0.1985 S   0  0  0  0  0  0  0  0  0  0  0  0
   -5.1582    5.7620    1.8611 C   0  0  0  0  0  0  0  0  0  0  0  0
   -4.5608    6.4147    2.9479 C   0  0  0  0  0  0  0  0  0  0  0  0
   -4.0624    7.7871    2.7964 C   0  0  0  0  0  0  0  0  0  0  0  0
   -4.8484    8.8617    3.2363 C   0  0  0  0  0  0  0  0  0  0  0  0
   -4.3571   10.1648    3.1492 C   0  0  0  0  0  0  0  0  0  0  0  0
   -3.0924   10.4041    2.6008 C   0  0  0  0  0  0  0  0  0  0  0  0
   -2.3132    9.3362    2.1227 C   0  0  0  0  0  0  0  0  0  0  0  0
   -0.9373    9.5858    1.5701 C   0  0  0  0  0  0  0  0  0  0  0  0
    0.1113    9.4470    2.6691 C   0  0  0  0  0  0  0  0  0  0  0  0
   -2.8016    8.0240    2.2297 C   0  0  0  0  0  0  0  0  0  0  0  0
   -4.2670    5.5268    4.0276 C   0  0  0  0  0  0  0  0  0  0  0  0
   -4.8219    3.9831    3.5402 S   0  0  0  0  0  0  0  0  0  0  0  0
   -5.4050    4.4260    2.0460 C   0  0  0  0  0  0  0  0  0  0  0  0
   -5.4779    3.7130    0.8567 C   0  0  0  0  0  0  0  0  0  0  0  0
   -5.1225    2.4288    0.6261 N   0  0  0  0  0  0  0  0  0  0  0  0
   -4.6369    2.4507   -0.6581 C   0  0  0  0  0  0  0  0  0  0  0  0
   -3.9693    1.4518   -1.4145 C   0  0  0  0  0  0  0  0  0  0  0  0
   -3.3160    0.3244   -0.9849 N   0  0  0  0  0  0  0  0  0  0  0  0
   -2.8347   -0.2087   -2.1349 C   0  0  0  0  0  0  0  0  0  0  0  0
   -1.9208   -1.2117   -2.3817 C   0  0  0  0  0  0  0  0  0  0  0  0
   -1.3203   -2.5139   -1.5282 S   0  0  0  0  0  0  0  0  0  0  0  0
   -2.6256    0.1654    0.3030 C   0  0  0  0  0  0  0  0  0  0  0  0
   -1.2170    0.7588    0.2545 C   0  0  0  0  0  0  0  0  0  0  0  0
   -5.6419    1.3185    1.4497 C   0  0  0  0  0  0  0  0  0  0  0  0
   -6.1600    0.1402    0.6243 C   0  0  0  0  0  0  0  0  0  0  0  0
   -3.2388    5.7158    5.1164 C   0  0  0  0  0  0  0  0  0  0  0  0
   -2.6771    6.9854    5.3859 C   0  0  0  0  0  0  0  0  0  0  0  0
   -1.4094    7.1161    5.9686 C   0  0  0  0  0  0  0  0  0  0  0  0
   -0.8287    8.3434    6.0306 F   0  0  0  0  0  0  0  0  0  0  0  0
   -0.7017    5.9821    6.3899 C   0  0  0  0  0  0  0  0  0  0  0  0
   -1.3486    4.7468    6.3779 C   0  0  0  0  0  0  0  0  0  0  0  0
   -2.6265    4.6099    5.7588 C   0  0  0  0  0  0  0  0  0  0  0  0
   -3.1669    3.3614    5.7970 N   0  0  0  0  0  0  0  0  0  0  0  0
   -1.9823    2.5201    6.5791 S   0  0  0  0  0  0  0  0  0  0  0  0
   -0.7931    3.6201    6.9022 N   0  0  0  0  0  0  0  0  0  0  0  0
    0.7466    6.0583    6.6495 C   0  0  0  0  0  0  0  0  0  0  0  0
    1.6456    5.9064    5.6537 C   0  0  0  0  0  0  0  0  0  0  0  0
    1.3233    5.8676    4.2196 C   0  0  0  0  0  0  0  0  0  0  0  0
    0.1797    5.7209    3.7091 O   0  0  0  0  0  0  0  0  0  0  0  0
    2.5463    6.0451    3.4737 C   0  0  0  0  0  0  0  0  0  0  0  0
    2.6854    6.2003    2.0955 C   0  0  0  0  0  0  0  0  0  0  0  0
    3.9646    6.4427    1.5715 C   0  0  0  0  0  0  0  0  0  0  0  0
    4.1487    6.5889    0.1885 C   0  0  0  0  0  0  0  0  0  0  0  0
    5.4260    6.8341   -0.3264 C   0  0  0  0  0  0  0  0  0  0  0  0
    6.5259    6.9358    0.5319 C   0  0  0  0  0  0  0  0  0  0  0  0
    7.7595    7.1597    0.0207 F   0  0  0  0  0  0  0  0  0  0  0  0
    6.3535    6.8066    1.9156 C   0  0  0  0  0  0  0  0  0  0  0  0
    5.0801    6.5538    2.4500 C   0  0  0  0  0  0  0  0  0  0  0  0
    4.9009    6.4171    3.8433 C   0  0  0  0  0  0  0  0  0  0  0  0
    3.6181    6.1294    4.3449 C   0  0  0  0  0  0  0  0  0  0  0  0
    3.1378    5.9438    5.7498 C   0  0  0  0  0  0  0  0  0  0  0  0
    3.8912    5.6197    6.8325 C   0  0  0  0  0  0  0  0  0  0  0  0
    3.3077    5.2178    8.0893 C   0  0  0  0  0  0  0  0  0  0  0  0
    2.8450    4.8990    9.0983 N   0  0  0  0  0  0  0  0  0  0  0  0
    5.3254    5.5047    6.7739 C   0  0  0  0  0  0  0  0  0  0  0  0
    6.4802    5.4071    6.7348 N   0  0  0  0  0  0  0  0  0  0  0  0
    2.3253   -7.9145   -0.2358 H   0  0  0  0  0  0  0  0  0  0  0  0
    5.7479   -9.2768   -5.2834 H   0  0  0  0  0  0  0  0  0  0  0  0
    7.4560  -10.7500   -6.3207 H   0  0  0  0  0  0  0  0  0  0  0  0
    9.0903  -12.5829   -6.1257 H   0  0  0  0  0  0  0  0  0  0  0  0
    8.1733  -13.0305   -1.9573 H   0  0  0  0  0  0  0  0  0  0  0  0
    6.5060  -11.5796   -0.9167 H   0  0  0  0  0  0  0  0  0  0  0  0
    0.0900   -7.4341   -1.4152 H   0  0  0  0  0  0  0  0  0  0  0  0
    1.4056   -0.5699   -5.0112 H   0  0  0  0  0  0  0  0  0  0  0  0
    2.2807   -0.6571   -7.3218 H   0  0  0  0  0  0  0  0  0  0  0  0
    1.5067   -2.4022   -8.8792 H   0  0  0  0  0  0  0  0  0  0  0  0
    0.3761   -4.5123   -9.2637 H   0  0  0  0  0  0  0  0  0  0  0  0
   -0.4037   -5.3810   -7.9098 H   0  0  0  0  0  0  0  0  0  0  0  0
   -1.5956   -2.9793   -9.4551 H   0  0  0  0  0  0  0  0  0  0  0  0
   -2.3946   -3.8344   -8.0765 H   0  0  0  0  0  0  0  0  0  0  0  0
   -2.0761   -4.7078   -9.6223 H   0  0  0  0  0  0  0  0  0  0  0  0
   -0.9757   -4.0790   -5.7791 H   0  0  0  0  0  0  0  0  0  0  0  0
   -5.8270    8.6836    3.6660 H   0  0  0  0  0  0  0  0  0  0  0  0
   -4.9544   10.9926    3.5144 H   0  0  0  0  0  0  0  0  0  0  0  0
   -2.7182   11.4217    2.5585 H   0  0  0  0  0  0  0  0  0  0  0  0
   -0.7198    8.8600    0.7569 H   0  0  0  0  0  0  0  0  0  0  0  0
   -0.8802   10.6042    1.1287 H   0  0  0  0  0  0  0  0  0  0  0  0
   -0.0757   10.1931    3.4678 H   0  0  0  0  0  0  0  0  0  0  0  0
    1.1202    9.6281    2.2424 H   0  0  0  0  0  0  0  0  0  0  0  0
    0.0848    8.4285    3.1059 H   0  0  0  0  0  0  0  0  0  0  0  0
   -2.1965    7.1888    1.8914 H   0  0  0  0  0  0  0  0  0  0  0  0
   -3.1473    0.6949    1.1008 H   0  0  0  0  0  0  0  0  0  0  0  0
   -2.5773   -0.9090    0.5770 H   0  0  0  0  0  0  0  0  0  0  0  0
   -1.2663    1.8325   -0.0185 H   0  0  0  0  0  0  0  0  0  0  0  0
   -0.5778    0.2262   -0.4780 H   0  0  0  0  0  0  0  0  0  0  0  0
   -0.7451    0.6693    1.2556 H   0  0  0  0  0  0  0  0  0  0  0  0
   -4.9067    0.9939    2.2111 H   0  0  0  0  0  0  0  0  0  0  0  0
   -6.5042    1.6943    2.0437 H   0  0  0  0  0  0  0  0  0  0  0  0
   -5.3335   -0.5338    0.3401 H   0  0  0  0  0  0  0  0  0  0  0  0
   -6.8731   -0.4546    1.2313 H   0  0  0  0  0  0  0  0  0  0  0  0
   -6.6892    0.4949   -0.2836 H   0  0  0  0  0  0  0  0  0  0  0  0
   -3.1732    7.8925    5.0955 H   0  0  0  0  0  0  0  0  0  0  0  0
    1.0546    6.2511    7.6625 H   0  0  0  0  0  0  0  0  0  0  0  0
    1.8172    6.1374    1.4484 H   0  0  0  0  0  0  0  0  0  0  0  0
    3.3109    6.5078   -0.4922 H   0  0  0  0  0  0  0  0  0  0  0  0
    5.5651    6.9333   -1.3948 H   0  0  0  0  0  0  0  0  0  0  0  0
    7.2185    6.8910    2.5641 H   0  0  0  0  0  0  0  0  0  0  0  0
    5.7444    6.5533    4.5009 H   0  0  0  0  0  0  0  0  0  0  0  0
  1  2  2  3
  2  3  1  0
  3  4  2  0
  3  5  1  0
  5  6  2  0
  6  7  1  0
  7  8  2  0
  8  9  1  0
  9 10  2  0
 10 11  1  0
 10 12  1  0
 12 13  2  0
 13 14  1  0
 14 15  2  0
 15 16  1  0
 16 17  2  3
 17 18  1  0
 18 19  3  0
 17 20  1  0
 20 21  3  0
  1 22  1  0
 22 23  2  0
 23 24  1  0
 24 25  1  0
 24 26  2  0
 26 27  1  0
 27 28  1  0
 28 29  2  0
 29 30  1  0
 30 31  1  0
 26 32  1  0
 32 33  2  0
 33 34  1  0
 34 35  2  0
 35 36  1  0
 36 37  2  0
 37 38  1  0
 38 39  1  0
 39 40  1  0
 38 41  2  0
 33 42  1  0
 42 43  1  0
 43 44  1  0
 44 45  1  0
 45 46  1  0
 46 47  1  0
 47 48  2  0
 48 49  1  0
 49 50  1  0
 47 51  1  0
 51 52  1  0
 52 53  1  0
 53 54  1  0
 54 55  1  0
 55 56  1  0
 56 57  2  0
 57 58  1  0
 58 59  2  0
 59 60  1  0
 60 61  1  0
 61 62  1  0
 60 63  2  0
 55 64  2  0
 64 65  1  0
 65 66  1  0
 66 67  1  0
 67 68  1  0
 68 69  1  0
 69 70  1  0
 70 71  1  0
 71 72  1  0
 72 73  1  0
 73 74  1  0
 71 75  1  0
 75 76  1  0
 68 77  1  0
 77 78  1  0
 64 79  1  0
 79 80  2  0
 80 81  1  0
 81 82  1  0
 81 83  2  0
 83 84  1  0
 84 85  1  0
 85 86  2  0
 86 87  1  0
 87 88  1  0
 83 89  1  0
 89 90  2  3
 90 91  1  0
 91 92  2  0
 91 93  1  0
 93 94  2  0
 94 95  1  0
 95 96  2  0
 96 97  1  0
 97 98  2  0
 98 99  1  0
 98100  1  0
100101  2  0
101102  1  0
102103  2  0
103104  1  0
104105  2  3
105106  1  0
106107  3  0
105108  1  0
108109  3  0
 16  2  1  0
 28 22  1  0
 74 32  1  0
 85 79  1  0
104 90  1  0
 15  5  1  0
 31 27  2  0
 41 34  1  0
 73 42  2  0
 88 84  2  0
103 93  1  0
 13  7  1  0
 72 44  2  0
101 95  1  0
 70 45  2  0
 50 46  2  0
 69 51  2  0
 67 52  2  0
 66 54  2  0
 63 56  1  0
  1110  1  0
  6111  1  0
  8112  1  0
  9113  1  0
 12114  1  0
 14115  1  0
 23116  1  0
 35117  1  0
 36118  1  0
 37119  1  0
 39120  1  0
 39121  1  0
 40122  1  0
 40123  1  0
 40124  1  0
 41125  1  0
 57126  1  0
 58127  1  0
 59128  1  0
 61129  1  0
 61130  1  0
 62131  1  0
 62132  1  0
 62133  1  0
 63134  1  0
 75135  1  0
 75136  1  0
 76137  1  0
 76138  1  0
 76139  1  0
 77140  1  0
 77141  1  0
 78142  1  0
 78143  1  0
 78144  1  0
 80145  1  0
 89146  1  0
 94147  1  0
 96148  1  0
 97149  1  0
100150  1  0
102151  1  0
M  END

