
     RDKit          3D

160180  0  0  0  0  0  0  0  0999 V2000
   -7.1874   -4.5985    3.3629 C   0  0  0  0  0  0  0  0  0  0  0  0
   -5.9812   -5.1293    3.0848 C   0  0  0  0  0  0  0  0  0  0  0  0
   -4.6924   -4.4267    3.2033 C   0  0  0  0  0  0  0  0  0  0  0  0
   -4.5142   -3.1813    3.2812 O   0  0  0  0  0  0  0  0  0  0  0  0
   -3.6421   -5.4151    3.2902 C   0  0  0  0  0  0  0  0  0  0  0  0
   -2.2899   -5.2015    3.5510 C   0  0  0  0  0  0  0  0  0  0  0  0
   -1.4578   -6.3164    3.7334 C   0  0  0  0  0  0  0  0  0  0  0  0
   -0.0908   -6.1437    3.9993 C   0  0  0  0  0  0  0  0  0  0  0  0
    0.7283   -7.2545    4.2166 C   0  0  0  0  0  0  0  0  0  0  0  0
    0.1907   -8.5449    4.1645 C   0  0  0  0  0  0  0  0  0  0  0  0
    0.9872   -9.6162    4.3859 F   0  0  0  0  0  0  0  0  0  0  0  0
   -1.1666   -8.7335    3.8908 C   0  0  0  0  0  0  0  0  0  0  0  0
   -2.0059   -7.6278    3.6728 C   0  0  0  0  0  0  0  0  0  0  0  0
   -3.3793   -7.8116    3.4041 C   0  0  0  0  0  0  0  0  0  0  0  0
   -4.1876   -6.6836    3.1853 C   0  0  0  0  0  0  0  0  0  0  0  0
   -5.6522   -6.5771    2.9280 C   0  0  0  0  0  0  0  0  0  0  0  0
   -6.4568   -7.5298    2.3936 C   0  0  0  0  0  0  0  0  0  0  0  0
   -5.9938   -8.8645    2.1155 C   0  0  0  0  0  0  0  0  0  0  0  0
   -5.6303   -9.9386    1.8861 N   0  0  0  0  0  0  0  0  0  0  0  0
   -7.7827   -7.2276    1.9162 C   0  0  0  0  0  0  0  0  0  0  0  0
   -8.8439   -6.9884    1.5256 N   0  0  0  0  0  0  0  0  0  0  0  0
   -7.3462   -3.1678    3.6760 C   0  0  0  0  0  0  0  0  0  0  0  0
   -7.3416   -2.7227    5.0168 C   0  0  0  0  0  0  0  0  0  0  0  0
   -7.4296   -3.6227    6.0280 F   0  0  0  0  0  0  0  0  0  0  0  0
   -7.1083   -1.3606    5.3191 C   0  0  0  0  0  0  0  0  0  0  0  0
   -6.9970   -0.9802    6.6175 F   0  0  0  0  0  0  0  0  0  0  0  0
   -6.9064   -0.4218    4.2812 C   0  0  0  0  0  0  0  0  0  0  0  0
   -7.0157   -0.8919    2.9673 C   0  0  0  0  0  0  0  0  0  0  0  0
   -7.2329   -2.1988    2.6790 C   0  0  0  0  0  0  0  0  0  0  0  0
   -7.1035   -2.3696    1.3548 N   0  0  0  0  0  0  0  0  0  0  0  0
   -6.8258   -1.1764    0.8957 O   0  0  0  0  0  0  0  0  0  0  0  0
   -6.7419   -0.2528    1.8196 N   0  0  0  0  0  0  0  0  0  0  0  0
   -6.2704    0.8764    4.5688 C   0  0  0  0  0  0  0  0  0  0  0  0
   -6.6064    2.1240    4.0075 C   0  0  0  0  0  0  0  0  0  0  0  0
   -7.7895    2.3566    3.1557 C   0  0  0  0  0  0  0  0  0  0  0  0
   -7.6458    2.9211    1.8758 C   0  0  0  0  0  0  0  0  0  0  0  0
   -8.7514    3.0492    1.0326 C   0  0  0  0  0  0  0  0  0  0  0  0
  -10.0110    2.6230    1.4635 C   0  0  0  0  0  0  0  0  0  0  0  0
  -10.1745    2.0707    2.7425 C   0  0  0  0  0  0  0  0  0  0  0  0
  -11.5202    1.5658    3.1885 C   0  0  0  0  0  0  0  0  0  0  0  0
  -11.6760    0.0844    2.8545 C   0  0  0  0  0  0  0  0  0  0  0  0
   -9.0600    1.9324    3.5821 C   0  0  0  0  0  0  0  0  0  0  0  0
   -5.5766    3.0541    4.2106 C   0  0  0  0  0  0  0  0  0  0  0  0
   -5.2637    4.5999    3.5712 S   0  0  0  0  0  0  0  0  0  0  0  0
   -3.6665    4.5833    4.1493 C   0  0  0  0  0  0  0  0  0  0  0  0
   -2.5045    5.0848    3.6289 C   0  0  0  0  0  0  0  0  0  0  0  0
   -2.3256    6.0095    2.5884 C   0  0  0  0  0  0  0  0  0  0  0  0
   -1.0653    6.0683    1.9263 C   0  0  0  0  0  0  0  0  0  0  0  0
   -0.9513    6.9292    0.8864 N   0  0  0  0  0  0  0  0  0  0  0  0
   -2.4822    7.5596    0.8740 S   0  0  0  0  0  0  0  0  0  0  0  0
   -3.3033    6.8194    2.1079 N   0  0  0  0  0  0  0  0  0  0  0  0
   -0.0366    5.2385    2.3760 C   0  0  0  0  0  0  0  0  0  0  0  0
    1.2322    5.0177    1.9083 C   0  0  0  0  0  0  0  0  0  0  0  0
    2.1762    5.3469    0.5355 S   0  0  0  0  0  0  0  0  0  0  0  0
    3.3374    4.1867    1.0388 C   0  0  0  0  0  0  0  0  0  0  0  0
    4.3950    3.5736    0.3752 C   0  0  0  0  0  0  0  0  0  0  0  0
    4.8623    4.0333   -0.9423 C   0  0  0  0  0  0  0  0  0  0  0  0
    5.7869    5.0831   -1.0224 C   0  0  0  0  0  0  0  0  0  0  0  0
    6.1879    5.5705   -2.2707 C   0  0  0  0  0  0  0  0  0  0  0  0
    5.6452    5.0264   -3.4387 C   0  0  0  0  0  0  0  0  0  0  0  0
    4.7253    3.9706   -3.3684 C   0  0  0  0  0  0  0  0  0  0  0  0
    4.0897    3.4296   -4.6208 C   0  0  0  0  0  0  0  0  0  0  0  0
    2.7106    4.0438   -4.8385 C   0  0  0  0  0  0  0  0  0  0  0  0
    4.3396    3.4711   -2.1140 C   0  0  0  0  0  0  0  0  0  0  0  0
    4.8290    2.4167    1.0628 C   0  0  0  0  0  0  0  0  0  0  0  0
    3.8804    2.2029    2.4681 S   0  0  0  0  0  0  0  0  0  0  0  0
    2.9698    3.5811    2.2121 C   0  0  0  0  0  0  0  0  0  0  0  0
    1.7762    4.0657    2.7031 C   0  0  0  0  0  0  0  0  0  0  0  0
    0.9532    3.6609    3.6959 N   0  0  0  0  0  0  0  0  0  0  0  0
   -0.2041    4.3450    3.4457 C   0  0  0  0  0  0  0  0  0  0  0  0
   -1.4930    4.1953    4.0208 C   0  0  0  0  0  0  0  0  0  0  0  0
   -2.0302    3.1026    4.6555 N   0  0  0  0  0  0  0  0  0  0  0  0
   -3.3543    3.4018    4.7617 C   0  0  0  0  0  0  0  0  0  0  0  0
   -4.4624    2.5611    4.8427 C   0  0  0  0  0  0  0  0  0  0  0  0
   -4.7007    0.9528    5.2192 S   0  0  0  0  0  0  0  0  0  0  0  0
   -1.5123    1.7237    4.6186 C   0  0  0  0  0  0  0  0  0  0  0  0
   -1.3254    1.1544    6.0281 C   0  0  0  0  0  0  0  0  0  0  0  0
    1.4016    3.0779    4.9656 C   0  0  0  0  0  0  0  0  0  0  0  0
    2.4555    3.9653    5.6321 C   0  0  0  0  0  0  0  0  0  0  0  0
    5.7775    1.3930    0.5753 C   0  0  0  0  0  0  0  0  0  0  0  0
    5.6189   -0.2819    0.9359 S   0  0  0  0  0  0  0  0  0  0  0  0
    6.8861   -0.7112   -0.0676 C   0  0  0  0  0  0  0  0  0  0  0  0
    7.2526   -1.8061   -0.7992 C   0  0  0  0  0  0  0  0  0  0  0  0
    7.9281   -1.3288   -1.8809 C   0  0  0  0  0  0  0  0  0  0  0  0
    8.0395    0.0240   -1.8630 N   0  0  0  0  0  0  0  0  0  0  0  0
    8.4152    0.9115   -2.9684 C   0  0  0  0  0  0  0  0  0  0  0  0
    7.2205    1.1910   -3.8759 C   0  0  0  0  0  0  0  0  0  0  0  0
    7.3800    0.3751   -0.7298 C   0  0  0  0  0  0  0  0  0  0  0  0
    6.7882    1.5868   -0.3841 C   0  0  0  0  0  0  0  0  0  0  0  0
    8.0382   -2.2237   -2.9394 C   0  0  0  0  0  0  0  0  0  0  0  0
    7.4139   -3.4380   -2.6131 C   0  0  0  0  0  0  0  0  0  0  0  0
    6.6836   -3.3637   -1.0656 S   0  0  0  0  0  0  0  0  0  0  0  0
    7.2364   -4.5500   -3.5574 C   0  0  0  0  0  0  0  0  0  0  0  0
    6.4604   -4.4410   -4.6454 C   0  0  0  0  0  0  0  0  0  0  0  0
    6.5184   -5.3342   -5.7970 C   0  0  0  0  0  0  0  0  0  0  0  0
    7.1509   -6.4216   -5.8639 O   0  0  0  0  0  0  0  0  0  0  0  0
    5.7393   -4.7348   -6.8630 C   0  0  0  0  0  0  0  0  0  0  0  0
    5.4312   -5.2647   -8.1159 C   0  0  0  0  0  0  0  0  0  0  0  0
    4.5318   -4.5643   -8.9391 C   0  0  0  0  0  0  0  0  0  0  0  0
    4.1771   -5.0741  -10.1958 C   0  0  0  0  0  0  0  0  0  0  0  0
    3.2553   -4.3903  -10.9985 C   0  0  0  0  0  0  0  0  0  0  0  0
    2.6784   -3.1986  -10.5491 C   0  0  0  0  0  0  0  0  0  0  0  0
    1.7748   -2.5489  -11.3253 F   0  0  0  0  0  0  0  0  0  0  0  0
    3.0182   -2.6787   -9.2958 C   0  0  0  0  0  0  0  0  0  0  0  0
    3.9521   -3.3434   -8.4847 C   0  0  0  0  0  0  0  0  0  0  0  0
    4.2859   -2.8347   -7.2169 C   0  0  0  0  0  0  0  0  0  0  0  0
    5.1985   -3.5387   -6.4144 C   0  0  0  0  0  0  0  0  0  0  0  0
    5.5770   -3.3011   -4.9977 C   0  0  0  0  0  0  0  0  0  0  0  0
    4.7258   -2.7416   -4.1215 C   0  0  0  0  0  0  0  0  0  0  0  0
    4.1876   -1.4223   -4.3435 C   0  0  0  0  0  0  0  0  0  0  0  0
    3.7277   -0.3588   -4.5045 N   0  0  0  0  0  0  0  0  0  0  0  0
    4.0150   -3.5810   -3.1817 C   0  0  0  0  0  0  0  0  0  0  0  0
    3.4054   -4.2780   -2.4781 N   0  0  0  0  0  0  0  0  0  0  0  0
   -8.0411   -5.2356    3.5187 H   0  0  0  0  0  0  0  0  0  0  0  0
   -1.9047   -4.1897    3.6371 H   0  0  0  0  0  0  0  0  0  0  0  0
    0.3408   -5.1511    4.0527 H   0  0  0  0  0  0  0  0  0  0  0  0
    1.7808   -7.1150    4.4255 H   0  0  0  0  0  0  0  0  0  0  0  0
   -1.5673   -9.7407    3.8622 H   0  0  0  0  0  0  0  0  0  0  0  0
   -3.7921   -8.8104    3.4072 H   0  0  0  0  0  0  0  0  0  0  0  0
   -6.6711    3.2091    1.5058 H   0  0  0  0  0  0  0  0  0  0  0  0
   -8.6339    3.4694    0.0444 H   0  0  0  0  0  0  0  0  0  0  0  0
  -10.8561    2.7145    0.7925 H   0  0  0  0  0  0  0  0  0  0  0  0
  -11.6340    1.7125    4.2864 H   0  0  0  0  0  0  0  0  0  0  0  0
  -12.3330    2.1406    2.6894 H   0  0  0  0  0  0  0  0  0  0  0  0
  -10.8597   -0.5072    3.3300 H   0  0  0  0  0  0  0  0  0  0  0  0
  -11.6333   -0.0668    1.7515 H   0  0  0  0  0  0  0  0  0  0  0  0
  -12.6555   -0.2781    3.2338 H   0  0  0  0  0  0  0  0  0  0  0  0
   -9.1822    1.4889    4.5594 H   0  0  0  0  0  0  0  0  0  0  0  0
    6.1843    5.5363   -0.1256 H   0  0  0  0  0  0  0  0  0  0  0  0
    6.9027    6.3788   -2.3355 H   0  0  0  0  0  0  0  0  0  0  0  0
    5.9465    5.4255   -4.3941 H   0  0  0  0  0  0  0  0  0  0  0  0
    4.7293    3.6416   -5.5038 H   0  0  0  0  0  0  0  0  0  0  0  0
    3.9924    2.3252   -4.5377 H   0  0  0  0  0  0  0  0  0  0  0  0
    2.0461    3.8197   -3.9747 H   0  0  0  0  0  0  0  0  0  0  0  0
    2.7938    5.1494   -4.9566 H   0  0  0  0  0  0  0  0  0  0  0  0
    2.2482    3.6097   -5.7515 H   0  0  0  0  0  0  0  0  0  0  0  0
    3.6147    2.6679   -2.0490 H   0  0  0  0  0  0  0  0  0  0  0  0
   -0.5607    1.6637    4.0557 H   0  0  0  0  0  0  0  0  0  0  0  0
   -2.1898    1.0696    4.0291 H   0  0  0  0  0  0  0  0  0  0  0  0
   -1.2552    1.9629    6.7818 H   0  0  0  0  0  0  0  0  0  0  0  0
   -0.4045    0.5344    6.0735 H   0  0  0  0  0  0  0  0  0  0  0  0
   -2.1612    0.4838    6.3071 H   0  0  0  0  0  0  0  0  0  0  0  0
    0.5596    3.0198    5.6784 H   0  0  0  0  0  0  0  0  0  0  0  0
    1.8170    2.0571    4.7975 H   0  0  0  0  0  0  0  0  0  0  0  0
    3.3738    4.0187    5.0173 H   0  0  0  0  0  0  0  0  0  0  0  0
    2.7235    3.5399    6.6209 H   0  0  0  0  0  0  0  0  0  0  0  0
    2.0558    4.9902    5.7758 H   0  0  0  0  0  0  0  0  0  0  0  0
    8.7962    1.8710   -2.5511 H   0  0  0  0  0  0  0  0  0  0  0  0
    9.2359    0.4541   -3.5557 H   0  0  0  0  0  0  0  0  0  0  0  0
    6.9860    0.2965   -4.4856 H   0  0  0  0  0  0  0  0  0  0  0  0
    6.3312    1.4599   -3.2750 H   0  0  0  0  0  0  0  0  0  0  0  0
    7.4669    2.0406   -4.5499 H   0  0  0  0  0  0  0  0  0  0  0  0
    7.0225    2.5232   -0.8626 H   0  0  0  0  0  0  0  0  0  0  0  0
    8.4529   -1.9865   -3.9115 H   0  0  0  0  0  0  0  0  0  0  0  0
    7.8405   -5.4366   -3.4137 H   0  0  0  0  0  0  0  0  0  0  0  0
    5.8608   -6.2128   -8.4281 H   0  0  0  0  0  0  0  0  0  0  0  0
    4.6073   -5.9980  -10.5639 H   0  0  0  0  0  0  0  0  0  0  0  0
    2.9797   -4.7900  -11.9662 H   0  0  0  0  0  0  0  0  0  0  0  0
    2.5538   -1.7580   -8.9627 H   0  0  0  0  0  0  0  0  0  0  0  0
    3.8280   -1.9205   -6.8759 H   0  0  0  0  0  0  0  0  0  0  0  0
  1  2  2  3
  2  3  1  0
  3  4  2  0
  3  5  1  0
  5  6  2  0
  6  7  1  0
  7  8  2  0
  8  9  1  0
  9 10  2  0
 10 11  1  0
 10 12  1  0
 12 13  2  0
 13 14  1  0
 14 15  2  0
 15 16  1  0
 16 17  2  3
 17 18  1  0
 18 19  3  0
 17 20  1  0
 20 21  3  0
  1 22  1  0
 22 23  2  0
 23 24  1  0
 23 25  1  0
 25 26  1  0
 25 27  2  0
 27 28  1  0
 28 29  1  0
 29 30  2  0
 30 31  1  0
 31 32  1  0
 27 33  1  0
 33 34  2  0
 34 35  1  0
 35 36  2  0
 36 37  1  0
 37 38  2  0
 38 39  1  0
 39 40  1  0
 40 41  1  0
 39 42  2  0
 34 43  1  0
 43 44  1  0
 44 45  1  0
 45 46  1  0
 46 47  1  0
 47 48  1  0
 48 49  2  0
 49 50  1  0
 50 51  1  0
 48 52  1  0
 52 53  1  0
 53 54  1  0
 54 55  1  0
 55 56  1  0
 56 57  1  0
 57 58  2  0
 58 59  1  0
 59 60  2  0
 60 61  1  0
 61 62  1  0
 62 63  1  0
 61 64  2  0
 56 65  2  0
 65 66  1  0
 66 67  1  0
 67 68  1  0
 68 69  1  0
 69 70  1  0
 70 71  1  0
 71 72  1  0
 72 73  1  0
 73 74  1  0
 74 75  1  0
 72 76  1  0
 76 77  1  0
 69 78  1  0
 78 79  1  0
 65 80  1  0
 80 81  1  0
 81 82  1  0
 82 83  1  0
 83 84  2  0
 84 85  1  0
 85 86  1  0
 86 87  1  0
 85 88  1  0
 88 89  1  0
 84 90  1  0
 90 91  2  0
 91 92  1  0
 91 93  1  0
 93 94  2  3
 94 95  1  0
 95 96  2  0
 95 97  1  0
 97 98  2  0
 98 99  1  0
 99100  2  0
100101  1  0
101102  2  0
102103  1  0
102104  1  0
104105  2  0
105106  1  0
106107  2  0
107108  1  0
108109  2  3
109110  1  0
110111  3  0
109112  1  0
112113  3  0
 16  2  1  0
 29 22  1  0
 75 33  1  0
 89 80  2  0
108 94  1  0
 15  5  1  0
 32 28  2  0
 42 35  1  0
 74 43  2  0
 88 82  2  0
107 97  1  0
 13  7  1  0
 73 45  2  0
 92 83  1  0
105 99  1  0
 71 46  2  0
 51 47  2  0
 70 52  2  0
 68 53  2  0
 67 55  2  0
 64 57  1  0
  1114  1  0
  6115  1  0
  8116  1  0
  9117  1  0
 12118  1  0
 14119  1  0
 36120  1  0
 37121  1  0
 38122  1  0
 40123  1  0
 40124  1  0
 41125  1  0
 41126  1  0
 41127  1  0
 42128  1  0
 58129  1  0
 59130  1  0
 60131  1  0
 62132  1  0
 62133  1  0
 63134  1  0
 63135  1  0
 63136  1  0
 64137  1  0
 76138  1  0
 76139  1  0
 77140  1  0
 77141  1  0
 77142  1  0
 78143  1  0
 78144  1  0
 79145  1  0
 79146  1  0
 79147  1  0
 86148  1  0
 86149  1  0
 87150  1  0
 87151  1  0
 87152  1  0
 89153  1  0
 90154  1  0
 93155  1  0
 98156  1  0
100157  1  0
101158  1  0
104159  1  0
106160  1  0
M  END

