
     RDKit          3D

199218  0  0  0  0  0  0  0  0999 V2000
    3.7346    8.5545   -0.6454 C   0  0  0  0  0  0  0  0  0  0  0  0
    3.7370    8.9672   -1.9299 C   0  0  0  0  0  0  0  0  0  0  0  0
    3.4962    8.2035   -3.1516 C   0  0  0  0  0  0  0  0  0  0  0  0
    4.1540    7.1916   -3.5102 O   0  0  0  0  0  0  0  0  0  0  0  0
    2.7242    9.0393   -4.0578 C   0  0  0  0  0  0  0  0  0  0  0  0
    1.9713    8.6629   -5.1744 C   0  0  0  0  0  0  0  0  0  0  0  0
    1.1280    9.6246   -5.7657 C   0  0  0  0  0  0  0  0  0  0  0  0
    0.3168    9.2846   -6.8579 C   0  0  0  0  0  0  0  0  0  0  0  0
   -0.5649   10.2239   -7.3975 C   0  0  0  0  0  0  0  0  0  0  0  0
   -0.6355   11.5180   -6.8653 C   0  0  0  0  0  0  0  0  0  0  0  0
   -1.4992   12.4233   -7.3925 F   0  0  0  0  0  0  0  0  0  0  0  0
    0.1743   11.8761   -5.7816 C   0  0  0  0  0  0  0  0  0  0  0  0
    1.0588   10.9421   -5.2230 C   0  0  0  0  0  0  0  0  0  0  0  0
    1.8486   11.2880   -4.1086 C   0  0  0  0  0  0  0  0  0  0  0  0
    2.6908   10.3233   -3.5518 C   0  0  0  0  0  0  0  0  0  0  0  0
    3.5036   10.3851   -2.3166 C   0  0  0  0  0  0  0  0  0  0  0  0
    4.1649   11.4654   -1.8404 C   0  0  0  0  0  0  0  0  0  0  0  0
    5.1373   11.3538   -0.7808 C   0  0  0  0  0  0  0  0  0  0  0  0
    5.9244   11.2532    0.0631 N   0  0  0  0  0  0  0  0  0  0  0  0
    4.0674   12.7547   -2.4802 C   0  0  0  0  0  0  0  0  0  0  0  0
    4.0132   13.7882   -2.9950 N   0  0  0  0  0  0  0  0  0  0  0  0
    3.4134    7.2373   -0.0361 C   0  0  0  0  0  0  0  0  0  0  0  0
    2.7016    6.0998   -0.4886 C   0  0  0  0  0  0  0  0  0  0  0  0
    2.3763    5.7155   -1.8742 C   0  0  0  0  0  0  0  0  0  0  0  0
    1.1398    6.1043   -2.4564 C   0  0  0  0  0  0  0  0  0  0  0  0
    0.7833    5.5715   -3.7133 C   0  0  0  0  0  0  0  0  0  0  0  0
    1.6441    4.7139   -4.4098 C   0  0  0  0  0  0  0  0  0  0  0  0
    1.2640    4.1661   -5.7632 C   0  0  0  0  0  0  0  0  0  0  0  0
    0.8876    2.6902   -5.6748 C   0  0  0  0  0  0  0  0  0  0  0  0
    2.8465    4.3224   -3.8187 C   0  0  0  0  0  0  0  0  0  0  0  0
    3.2109    4.7823   -2.5468 C   0  0  0  0  0  0  0  0  0  0  0  0
    4.4857    4.2426   -1.9421 C   0  0  0  0  0  0  0  0  0  0  0  0
    4.2685    2.8413   -1.3749 C   0  0  0  0  0  0  0  0  0  0  0  0
    0.1621    6.9637   -1.6646 C   0  0  0  0  0  0  0  0  0  0  0  0
   -0.8213    7.7691   -2.5160 C   0  0  0  0  0  0  0  0  0  0  0  0
    2.3179    5.2322    0.5460 C   0  0  0  0  0  0  0  0  0  0  0  0
    2.7134    5.6290    1.8104 C   0  0  0  0  0  0  0  0  0  0  0  0
    3.5370    7.0786    1.6480 S   0  0  0  0  0  0  0  0  0  0  0  0
    2.3591    4.9172    3.0483 C   0  0  0  0  0  0  0  0  0  0  0  0
    3.2280    4.5779    4.1095 C   0  0  0  0  0  0  0  0  0  0  0  0
    4.5979    5.0997    4.2801 C   0  0  0  0  0  0  0  0  0  0  0  0
    5.7040    4.2516    4.1281 C   0  0  0  0  0  0  0  0  0  0  0  0
    6.9962    4.7485    4.3018 C   0  0  0  0  0  0  0  0  0  0  0  0
    7.1994    6.0960    4.6193 C   0  0  0  0  0  0  0  0  0  0  0  0
    6.1023    6.9613    4.7591 C   0  0  0  0  0  0  0  0  0  0  0  0
    6.3188    8.4128    5.1014 C   0  0  0  0  0  0  0  0  0  0  0  0
    6.2398    8.6369    6.6086 C   0  0  0  0  0  0  0  0  0  0  0  0
    4.7987    6.4507    4.6052 C   0  0  0  0  0  0  0  0  0  0  0  0
    2.6834    3.5370    4.8845 C   0  0  0  0  0  0  0  0  0  0  0  0
    3.4133    2.3434    5.8706 S   0  0  0  0  0  0  0  0  0  0  0  0
    2.0473    1.3388    5.7662 C   0  0  0  0  0  0  0  0  0  0  0  0
    1.8343   -0.0203    5.7541 C   0  0  0  0  0  0  0  0  0  0  0  0
    2.4746   -1.0960    6.3849 C   0  0  0  0  0  0  0  0  0  0  0  0
    1.9847   -2.4197    6.1485 C   0  0  0  0  0  0  0  0  0  0  0  0
    2.6316   -3.4334    6.7704 N   0  0  0  0  0  0  0  0  0  0  0  0
    3.7723   -2.5657    7.6068 S   0  0  0  0  0  0  0  0  0  0  0  0
    3.5247   -0.9696    7.2323 N   0  0  0  0  0  0  0  0  0  0  0  0
    0.9361   -2.6014    5.2297 C   0  0  0  0  0  0  0  0  0  0  0  0
    0.4369   -3.7218    4.6122 C   0  0  0  0  0  0  0  0  0  0  0  0
    0.6251   -5.4175    4.6249 S   0  0  0  0  0  0  0  0  0  0  0  0
   -0.2373   -5.5559    3.1506 C   0  0  0  0  0  0  0  0  0  0  0  0
   -0.6360   -6.6193    2.3334 C   0  0  0  0  0  0  0  0  0  0  0  0
   -0.5538   -8.0373    2.7344 C   0  0  0  0  0  0  0  0  0  0  0  0
    0.0917   -8.9738    1.9198 C   0  0  0  0  0  0  0  0  0  0  0  0
    0.0913  -10.3270    2.2659 C   0  0  0  0  0  0  0  0  0  0  0  0
   -0.5393  -10.7490    3.4401 C   0  0  0  0  0  0  0  0  0  0  0  0
   -1.1632   -9.8156    4.2827 C   0  0  0  0  0  0  0  0  0  0  0  0
   -1.8801  -10.2706    5.5301 C   0  0  0  0  0  0  0  0  0  0  0  0
   -3.3330  -10.6198    5.2159 C   0  0  0  0  0  0  0  0  0  0  0  0
   -1.1671   -8.4580    3.9219 C   0  0  0  0  0  0  0  0  0  0  0  0
   -1.2970   -6.1445    1.1754 C   0  0  0  0  0  0  0  0  0  0  0  0
   -1.3483   -4.4434    1.2015 S   0  0  0  0  0  0  0  0  0  0  0  0
   -0.5757   -4.3204    2.6688 C   0  0  0  0  0  0  0  0  0  0  0  0
   -0.2422   -3.2889    3.5207 C   0  0  0  0  0  0  0  0  0  0  0  0
   -0.2387   -1.9461    3.3715 N   0  0  0  0  0  0  0  0  0  0  0  0
    0.4076   -1.5221    4.5032 C   0  0  0  0  0  0  0  0  0  0  0  0
    0.7591   -0.2145    4.8802 C   0  0  0  0  0  0  0  0  0  0  0  0
    0.2466    0.9701    4.4470 N   0  0  0  0  0  0  0  0  0  0  0  0
    1.0852    1.8896    4.9768 C   0  0  0  0  0  0  0  0  0  0  0  0
    1.4315    3.1333    4.4927 C   0  0  0  0  0  0  0  0  0  0  0  0
    0.9615    3.9541    3.1225 S   0  0  0  0  0  0  0  0  0  0  0  0
   -1.1325    1.2457    4.0147 C   0  0  0  0  0  0  0  0  0  0  0  0
   -1.9187    1.9753    5.1040 C   0  0  0  0  0  0  0  0  0  0  0  0
   -0.2411   -1.2895    2.0479 C   0  0  0  0  0  0  0  0  0  0  0  0
    1.0602   -1.5862    1.2854 C   0  0  0  0  0  0  0  0  0  0  0  0
   -2.0698   -6.9341    0.2054 C   0  0  0  0  0  0  0  0  0  0  0  0
   -3.4100   -6.7151   -0.1292 C   0  0  0  0  0  0  0  0  0  0  0  0
   -4.2573   -5.6964    0.5279 C   0  0  0  0  0  0  0  0  0  0  0  0
   -4.4171   -4.4143   -0.0679 C   0  0  0  0  0  0  0  0  0  0  0  0
   -5.1446   -3.4239    0.6129 C   0  0  0  0  0  0  0  0  0  0  0  0
   -5.6974   -3.6741    1.8725 C   0  0  0  0  0  0  0  0  0  0  0  0
   -6.4976   -2.6089    2.5737 C   0  0  0  0  0  0  0  0  0  0  0  0
   -7.9497   -2.6353    2.1114 C   0  0  0  0  0  0  0  0  0  0  0  0
   -5.5480   -4.9403    2.4533 C   0  0  0  0  0  0  0  0  0  0  0  0
   -4.8211   -5.9518    1.8048 C   0  0  0  0  0  0  0  0  0  0  0  0
   -4.6980   -7.2954    2.4873 C   0  0  0  0  0  0  0  0  0  0  0  0
   -5.9202   -8.1639    2.2113 C   0  0  0  0  0  0  0  0  0  0  0  0
   -3.7860   -4.0498   -1.3926 C   0  0  0  0  0  0  0  0  0  0  0  0
   -4.7835   -4.1980   -2.5370 C   0  0  0  0  0  0  0  0  0  0  0  0
   -3.8379   -7.4429   -1.2480 C   0  0  0  0  0  0  0  0  0  0  0  0
   -2.8255   -8.2024   -1.8227 C   0  0  0  0  0  0  0  0  0  0  0  0
   -1.4171   -8.0043   -0.9220 S   0  0  0  0  0  0  0  0  0  0  0  0
   -2.9298   -8.8973   -3.1117 C   0  0  0  0  0  0  0  0  0  0  0  0
   -2.3904   -8.4072   -4.2473 C   0  0  0  0  0  0  0  0  0  0  0  0
   -1.5395   -7.2110   -4.3497 C   0  0  0  0  0  0  0  0  0  0  0  0
   -1.4244   -6.2934   -3.4948 O   0  0  0  0  0  0  0  0  0  0  0  0
   -0.8719   -7.2377   -5.6298 C   0  0  0  0  0  0  0  0  0  0  0  0
    0.1206   -6.3757   -6.0950 C   0  0  0  0  0  0  0  0  0  0  0  0
    0.7131   -6.6459   -7.3403 C   0  0  0  0  0  0  0  0  0  0  0  0
    1.7154   -5.8040   -7.8479 C   0  0  0  0  0  0  0  0  0  0  0  0
    2.3106   -6.0863   -9.0823 C   0  0  0  0  0  0  0  0  0  0  0  0
    1.9100   -7.2042   -9.8179 C   0  0  0  0  0  0  0  0  0  0  0  0
    2.4836   -7.4647  -11.0207 F   0  0  0  0  0  0  0  0  0  0  0  0
    0.9141   -8.0527   -9.3265 C   0  0  0  0  0  0  0  0  0  0  0  0
    0.3078   -7.7882   -8.0883 C   0  0  0  0  0  0  0  0  0  0  0  0
   -0.6983   -8.6412   -7.5871 C   0  0  0  0  0  0  0  0  0  0  0  0
   -1.3043   -8.3325   -6.3576 C   0  0  0  0  0  0  0  0  0  0  0  0
   -2.3658   -9.0527   -5.5979 C   0  0  0  0  0  0  0  0  0  0  0  0
   -3.2976   -9.8964   -6.1126 C   0  0  0  0  0  0  0  0  0  0  0  0
   -3.3123  -10.2823   -7.5003 C   0  0  0  0  0  0  0  0  0  0  0  0
   -3.3471  -10.5981   -8.6106 N   0  0  0  0  0  0  0  0  0  0  0  0
   -4.4361  -10.3420   -5.3499 C   0  0  0  0  0  0  0  0  0  0  0  0
   -5.3603  -10.7060   -4.7537 N   0  0  0  0  0  0  0  0  0  0  0  0
    3.8427    9.3275    0.1017 H   0  0  0  0  0  0  0  0  0  0  0  0
    2.0010    7.6422   -5.5396 H   0  0  0  0  0  0  0  0  0  0  0  0
    0.3445    8.2878   -7.2782 H   0  0  0  0  0  0  0  0  0  0  0  0
   -1.2003    9.9447   -8.2300 H   0  0  0  0  0  0  0  0  0  0  0  0
    0.0995   12.8799   -5.3736 H   0  0  0  0  0  0  0  0  0  0  0  0
    1.7493   12.2619   -3.6521 H   0  0  0  0  0  0  0  0  0  0  0  0
   -0.1684    5.8131   -4.1663 H   0  0  0  0  0  0  0  0  0  0  0  0
    2.1170    4.2938   -6.4639 H   0  0  0  0  0  0  0  0  0  0  0  0
    0.4084    4.7344   -6.1911 H   0  0  0  0  0  0  0  0  0  0  0  0
    0.5634    2.3364   -6.6743 H   0  0  0  0  0  0  0  0  0  0  0  0
    1.7609    2.0849   -5.3507 H   0  0  0  0  0  0  0  0  0  0  0  0
    0.0560    2.5449   -4.9545 H   0  0  0  0  0  0  0  0  0  0  0  0
    3.4956    3.6311   -4.3407 H   0  0  0  0  0  0  0  0  0  0  0  0
    5.2752    4.1944   -2.7263 H   0  0  0  0  0  0  0  0  0  0  0  0
    4.8856    4.9028   -1.1445 H   0  0  0  0  0  0  0  0  0  0  0  0
    5.2410    2.4107   -1.0617 H   0  0  0  0  0  0  0  0  0  0  0  0
    3.5861    2.8758   -0.4983 H   0  0  0  0  0  0  0  0  0  0  0  0
    3.8257    2.1724   -2.1463 H   0  0  0  0  0  0  0  0  0  0  0  0
    0.7214    7.6985   -1.0468 H   0  0  0  0  0  0  0  0  0  0  0  0
   -0.4060    6.3083   -0.9694 H   0  0  0  0  0  0  0  0  0  0  0  0
   -0.2822    8.3179   -3.3151 H   0  0  0  0  0  0  0  0  0  0  0  0
   -1.5882    7.1025   -2.9634 H   0  0  0  0  0  0  0  0  0  0  0  0
   -1.3486    8.5095   -1.8788 H   0  0  0  0  0  0  0  0  0  0  0  0
    1.7493    4.3297    0.3678 H   0  0  0  0  0  0  0  0  0  0  0  0
    5.5634    3.2071    3.8709 H   0  0  0  0  0  0  0  0  0  0  0  0
    7.8503    4.0898    4.1944 H   0  0  0  0  0  0  0  0  0  0  0  0
    8.2063    6.4692    4.7424 H   0  0  0  0  0  0  0  0  0  0  0  0
    5.5555    9.0439    4.5970 H   0  0  0  0  0  0  0  0  0  0  0  0
    7.3118    8.7463    4.7341 H   0  0  0  0  0  0  0  0  0  0  0  0
    6.4074    9.7117    6.8334 H   0  0  0  0  0  0  0  0  0  0  0  0
    5.2374    8.3488    6.9911 H   0  0  0  0  0  0  0  0  0  0  0  0
    7.0190    8.0402    7.1297 H   0  0  0  0  0  0  0  0  0  0  0  0
    3.9418    7.1071    4.7280 H   0  0  0  0  0  0  0  0  0  0  0  0
    0.5899   -8.6617    1.0129 H   0  0  0  0  0  0  0  0  0  0  0  0
    0.5708  -11.0519    1.6247 H   0  0  0  0  0  0  0  0  0  0  0  0
   -0.5567  -11.8079    3.6886 H   0  0  0  0  0  0  0  0  0  0  0  0
   -1.8495   -9.4692    6.3008 H   0  0  0  0  0  0  0  0  0  0  0  0
   -1.3709  -11.1607    5.9592 H   0  0  0  0  0  0  0  0  0  0  0  0
   -3.3761  -11.4843    4.5220 H   0  0  0  0  0  0  0  0  0  0  0  0
   -3.8523   -9.7516    4.7596 H   0  0  0  0  0  0  0  0  0  0  0  0
   -3.8535  -10.8944    6.1566 H   0  0  0  0  0  0  0  0  0  0  0  0
   -1.6838   -7.7371    4.5524 H   0  0  0  0  0  0  0  0  0  0  0  0
   -1.6761    0.3007    3.8057 H   0  0  0  0  0  0  0  0  0  0  0  0
   -1.1224    1.8753    3.0938 H   0  0  0  0  0  0  0  0  0  0  0  0
   -1.9297    1.3776    6.0436 H   0  0  0  0  0  0  0  0  0  0  0  0
   -1.4807    2.9758    5.3081 H   0  0  0  0  0  0  0  0  0  0  0  0
   -2.9716    2.1111    4.7709 H   0  0  0  0  0  0  0  0  0  0  0  0
   -1.1097   -1.6515    1.4587 H   0  0  0  0  0  0  0  0  0  0  0  0
   -0.3335   -0.1954    2.1164 H   0  0  0  0  0  0  0  0  0  0  0  0
    1.8550   -0.8850    1.6204 H   0  0  0  0  0  0  0  0  0  0  0  0
    1.3941   -2.6294    1.4528 H   0  0  0  0  0  0  0  0  0  0  0  0
    0.8936   -1.4440    0.1953 H   0  0  0  0  0  0  0  0  0  0  0  0
   -5.2702   -2.4449    0.1607 H   0  0  0  0  0  0  0  0  0  0  0  0
   -6.4609   -2.7600    3.6731 H   0  0  0  0  0  0  0  0  0  0  0  0
   -6.0666   -1.6073    2.3655 H   0  0  0  0  0  0  0  0  0  0  0  0
   -8.5170   -1.8356    2.6348 H   0  0  0  0  0  0  0  0  0  0  0  0
   -8.0116   -2.4547    1.0158 H   0  0  0  0  0  0  0  0  0  0  0  0
   -8.4150   -3.6176    2.3479 H   0  0  0  0  0  0  0  0  0  0  0  0
   -5.9962   -5.1393    3.4189 H   0  0  0  0  0  0  0  0  0  0  0  0
   -3.7888   -7.8417    2.1663 H   0  0  0  0  0  0  0  0  0  0  0  0
   -4.5953   -7.1440    3.5849 H   0  0  0  0  0  0  0  0  0  0  0  0
   -5.8464   -9.0955    2.8060 H   0  0  0  0  0  0  0  0  0  0  0  0
   -5.9655   -8.4264    1.1311 H   0  0  0  0  0  0  0  0  0  0  0  0
   -6.8506   -7.6342    2.5026 H   0  0  0  0  0  0  0  0  0  0  0  0
   -2.8882   -4.6601   -1.6072 H   0  0  0  0  0  0  0  0  0  0  0  0
   -3.4345   -2.9956   -1.3619 H   0  0  0  0  0  0  0  0  0  0  0  0
   -5.1666   -5.2383   -2.5939 H   0  0  0  0  0  0  0  0  0  0  0  0
   -5.6417   -3.5089   -2.3891 H   0  0  0  0  0  0  0  0  0  0  0  0
   -4.2874   -3.9515   -3.4988 H   0  0  0  0  0  0  0  0  0  0  0  0
   -4.8329   -7.3702   -1.6651 H   0  0  0  0  0  0  0  0  0  0  0  0
   -3.4318   -9.8499   -3.1009 H   0  0  0  0  0  0  0  0  0  0  0  0
    0.4327   -5.5301   -5.4966 H   0  0  0  0  0  0  0  0  0  0  0  0
    2.0433   -4.9353   -7.2889 H   0  0  0  0  0  0  0  0  0  0  0  0
    3.0825   -5.4340   -9.4660 H   0  0  0  0  0  0  0  0  0  0  0  0
    0.6194   -8.9171   -9.9111 H   0  0  0  0  0  0  0  0  0  0  0  0
   -0.9596   -9.5345   -8.1374 H   0  0  0  0  0  0  0  0  0  0  0  0
  1  2  2  3
  2  3  1  0
  3  4  2  0
  3  5  1  0
  5  6  2  0
  6  7  1  0
  7  8  2  0
  8  9  1  0
  9 10  2  0
 10 11  1  0
 10 12  1  0
 12 13  2  0
 13 14  1  0
 14 15  2  0
 15 16  1  0
 16 17  2  3
 17 18  1  0
 18 19  3  0
 17 20  1  0
 20 21  3  0
  1 22  1  0
 22 23  2  0
 23 24  1  0
 24 25  2  0
 25 26  1  0
 26 27  2  0
 27 28  1  0
 28 29  1  0
 27 30  1  0
 30 31  2  0
 31 32  1  0
 32 33  1  0
 25 34  1  0
 34 35  1  0
 23 36  1  0
 36 37  2  0
 37 38  1  0
 37 39  1  0
 39 40  2  0
 40 41  1  0
 41 42  2  0
 42 43  1  0
 43 44  2  0
 44 45  1  0
 45 46  1  0
 46 47  1  0
 45 48  2  0
 40 49  1  0
 49 50  1  0
 50 51  1  0
 51 52  1  0
 52 53  1  0
 53 54  1  0
 54 55  2  0
 55 56  1  0
 56 57  1  0
 54 58  1  0
 58 59  1  0
 59 60  1  0
 60 61  1  0
 61 62  1  0
 62 63  1  0
 63 64  2  0
 64 65  1  0
 65 66  2  0
 66 67  1  0
 67 68  1  0
 68 69  1  0
 67 70  2  0
 62 71  2  0
 71 72  1  0
 72 73  1  0
 73 74  1  0
 74 75  1  0
 75 76  1  0
 76 77  1  0
 77 78  1  0
 78 79  1  0
 79 80  1  0
 80 81  1  0
 78 82  1  0
 82 83  1  0
 75 84  1  0
 84 85  1  0
 71 86  1  0
 86 87  2  0
 87 88  1  0
 88 89  2  0
 89 90  1  0
 90 91  2  0
 91 92  1  0
 92 93  1  0
 91 94  1  0
 94 95  2  0
 95 96  1  0
 96 97  1  0
 89 98  1  0
 98 99  1  0
 87100  1  0
100101  2  0
101102  1  0
101103  1  0
103104  2  3
104105  1  0
105106  2  0
105107  1  0
107108  2  0
108109  1  0
109110  2  0
110111  1  0
111112  2  0
112113  1  0
112114  1  0
114115  2  0
115116  1  0
116117  2  0
117118  1  0
118119  2  3
119120  1  0
120121  3  0
119122  1  0
122123  3  0
 16  2  1  0
 38 22  1  0
 81 39  1  0
102 86  1  0
118104  1  0
 15  5  1  0
 31 24  1  0
 48 41  1  0
 80 49  2  0
 95 88  1  0
117107  1  0
 13  7  1  0
 79 51  2  0
115109  1  0
 77 52  2  0
 57 53  2  0
 76 58  2  0
 74 59  2  0
 73 61  2  0
 70 63  1  0
  1124  1  0
  6125  1  0
  8126  1  0
  9127  1  0
 12128  1  0
 14129  1  0
 26130  1  0
 28131  1  0
 28132  1  0
 29133  1  0
 29134  1  0
 29135  1  0
 30136  1  0
 32137  1  0
 32138  1  0
 33139  1  0
 33140  1  0
 33141  1  0
 34142  1  0
 34143  1  0
 35144  1  0
 35145  1  0
 35146  1  0
 36147  1  0
 42148  1  0
 43149  1  0
 44150  1  0
 46151  1  0
 46152  1  0
 47153  1  0
 47154  1  0
 47155  1  0
 48156  1  0
 64157  1  0
 65158  1  0
 66159  1  0
 68160  1  0
 68161  1  0
 69162  1  0
 69163  1  0
 69164  1  0
 70165  1  0
 82166  1  0
 82167  1  0
 83168  1  0
 83169  1  0
 83170  1  0
 84171  1  0
 84172  1  0
 85173  1  0
 85174  1  0
 85175  1  0
 90176  1  0
 92177  1  0
 92178  1  0
 93179  1  0
 93180  1  0
 93181  1  0
 94182  1  0
 96183  1  0
 96184  1  0
 97185  1  0
 97186  1  0
 97187  1  0
 98188  1  0
 98189  1  0
 99190  1  0
 99191  1  0
 99192  1  0
100193  1  0
103194  1  0
108195  1  0
110196  1  0
111197  1  0
114198  1  0
116199  1  0
M  END

