
     RDKit          3D

196214  0  0  0  0  0  0  0  0999 V2000
    4.4737   -5.0287   -7.7723 C   0  0  0  0  0  0  0  0  0  0  0  0
    4.4253   -4.0864   -8.7362 C   0  0  0  0  0  0  0  0  0  0  0  0
    4.7986   -4.3828  -10.1206 C   0  0  0  0  0  0  0  0  0  0  0  0
    4.8819   -5.5288  -10.6386 O   0  0  0  0  0  0  0  0  0  0  0  0
    5.1573   -3.1404  -10.7685 C   0  0  0  0  0  0  0  0  0  0  0  0
    5.6707   -2.9497  -12.0496 C   0  0  0  0  0  0  0  0  0  0  0  0
    6.0151   -1.6482  -12.4496 C   0  0  0  0  0  0  0  0  0  0  0  0
    6.5154   -1.4087  -13.7363 C   0  0  0  0  0  0  0  0  0  0  0  0
    6.8708   -0.1130  -14.1212 C   0  0  0  0  0  0  0  0  0  0  0  0
    6.7408    0.9501  -13.2232 C   0  0  0  0  0  0  0  0  0  0  0  0
    7.0931    2.2024  -13.6058 F   0  0  0  0  0  0  0  0  0  0  0  0
    6.2401    0.7287  -11.9349 C   0  0  0  0  0  0  0  0  0  0  0  0
    5.8672   -0.5644  -11.5372 C   0  0  0  0  0  0  0  0  0  0  0  0
    5.3499   -0.7915  -10.2449 C   0  0  0  0  0  0  0  0  0  0  0  0
    4.9649   -2.0929   -9.8859 C   0  0  0  0  0  0  0  0  0  0  0  0
    4.3331   -2.5992   -8.6380 C   0  0  0  0  0  0  0  0  0  0  0  0
    3.4211   -1.9097   -7.9085 C   0  0  0  0  0  0  0  0  0  0  0  0
    3.2699   -0.4799   -8.0121 C   0  0  0  0  0  0  0  0  0  0  0  0
    3.1341    0.6652   -8.0891 N   0  0  0  0  0  0  0  0  0  0  0  0
    2.4178   -2.5670   -7.1122 C   0  0  0  0  0  0  0  0  0  0  0  0
    1.5981   -3.0704   -6.4707 N   0  0  0  0  0  0  0  0  0  0  0  0
    4.5690   -4.8039   -6.3105 C   0  0  0  0  0  0  0  0  0  0  0  0
    4.3021   -5.7684   -5.3323 C   0  0  0  0  0  0  0  0  0  0  0  0
    3.9552   -7.1743   -5.6366 C   0  0  0  0  0  0  0  0  0  0  0  0
    2.6128   -7.5409   -5.9075 C   0  0  0  0  0  0  0  0  0  0  0  0
    2.3181   -8.8614   -6.2779 C   0  0  0  0  0  0  0  0  0  0  0  0
    3.3319   -9.8185   -6.3920 C   0  0  0  0  0  0  0  0  0  0  0  0
    3.0103  -11.2047   -6.8822 C   0  0  0  0  0  0  0  0  0  0  0  0
    3.0244  -11.2457   -8.4079 C   0  0  0  0  0  0  0  0  0  0  0  0
    4.6548   -9.4581   -6.1131 C   0  0  0  0  0  0  0  0  0  0  0  0
    4.9775   -8.1531   -5.7080 C   0  0  0  0  0  0  0  0  0  0  0  0
    6.4254   -7.8356   -5.3964 C   0  0  0  0  0  0  0  0  0  0  0  0
    7.1947   -7.4602   -6.6590 C   0  0  0  0  0  0  0  0  0  0  0  0
    1.4651   -6.5708   -5.7455 C   0  0  0  0  0  0  0  0  0  0  0  0
    0.8499   -6.6782   -4.3564 C   0  0  0  0  0  0  0  0  0  0  0  0
    4.3978   -5.2811   -4.0219 C   0  0  0  0  0  0  0  0  0  0  0  0
    4.8262   -3.9620   -3.9591 C   0  0  0  0  0  0  0  0  0  0  0  0
    5.0443   -3.3903   -5.5221 S   0  0  0  0  0  0  0  0  0  0  0  0
    4.6299   -3.0809   -2.8114 C   0  0  0  0  0  0  0  0  0  0  0  0
    5.6093   -2.2786   -2.1836 C   0  0  0  0  0  0  0  0  0  0  0  0
    7.0709   -2.4188   -2.3860 C   0  0  0  0  0  0  0  0  0  0  0  0
    7.6504   -3.6976   -2.4454 C   0  0  0  0  0  0  0  0  0  0  0  0
    9.0331   -3.8440   -2.5832 C   0  0  0  0  0  0  0  0  0  0  0  0
    9.8503   -2.7170   -2.6800 C   0  0  0  0  0  0  0  0  0  0  0  0
    9.2840   -1.4305   -2.6559 C   0  0  0  0  0  0  0  0  0  0  0  0
   10.1652   -0.2132   -2.7647 C   0  0  0  0  0  0  0  0  0  0  0  0
   10.4690    0.3689   -1.3879 C   0  0  0  0  0  0  0  0  0  0  0  0
    7.8963   -1.2868   -2.4913 C   0  0  0  0  0  0  0  0  0  0  0  0
    4.9995   -1.3763   -1.2981 C   0  0  0  0  0  0  0  0  0  0  0  0
    5.5494   -0.1283   -0.2544 S   0  0  0  0  0  0  0  0  0  0  0  0
    3.9535    0.2290    0.2177 C   0  0  0  0  0  0  0  0  0  0  0  0
    3.2395    1.2023    0.8657 C   0  0  0  0  0  0  0  0  0  0  0  0
    3.6221    2.3757    1.5248 C   0  0  0  0  0  0  0  0  0  0  0  0
    2.6039    3.2501    2.0207 C   0  0  0  0  0  0  0  0  0  0  0  0
    3.0145    4.3624    2.6779 N   0  0  0  0  0  0  0  0  0  0  0  0
    4.6575    4.1581    2.5712 S   0  0  0  0  0  0  0  0  0  0  0  0
    4.9118    2.7384    1.7557 N   0  0  0  0  0  0  0  0  0  0  0  0
    1.2588    2.8850    1.8515 C   0  0  0  0  0  0  0  0  0  0  0  0
    0.1175    3.3511    2.4513 C   0  0  0  0  0  0  0  0  0  0  0  0
   -0.3082    4.4730    3.6591 S   0  0  0  0  0  0  0  0  0  0  0  0
   -1.8220    3.7068    3.8786 C   0  0  0  0  0  0  0  0  0  0  0  0
   -2.8886    3.8963    4.7640 C   0  0  0  0  0  0  0  0  0  0  0  0
   -2.9179    4.9877    5.7413 C   0  0  0  0  0  0  0  0  0  0  0  0
   -3.0342    6.3168    5.3036 C   0  0  0  0  0  0  0  0  0  0  0  0
   -2.9421    7.3669    6.2190 C   0  0  0  0  0  0  0  0  0  0  0  0
   -2.6883    7.1003    7.5666 C   0  0  0  0  0  0  0  0  0  0  0  0
   -2.5561    5.7743    8.0134 C   0  0  0  0  0  0  0  0  0  0  0  0
   -2.1684    5.4948    9.4391 C   0  0  0  0  0  0  0  0  0  0  0  0
   -0.6494    5.4627    9.5803 C   0  0  0  0  0  0  0  0  0  0  0  0
   -2.6829    4.7204    7.0960 C   0  0  0  0  0  0  0  0  0  0  0  0
   -3.8288    2.8492    4.6529 C   0  0  0  0  0  0  0  0  0  0  0  0
   -3.2973    1.7372    3.4812 S   0  0  0  0  0  0  0  0  0  0  0  0
   -1.9219    2.5907    3.0954 C   0  0  0  0  0  0  0  0  0  0  0  0
   -0.8365    2.4056    2.2618 C   0  0  0  0  0  0  0  0  0  0  0  0
   -0.4067    1.3489    1.5342 N   0  0  0  0  0  0  0  0  0  0  0  0
    0.8854    1.6829    1.2269 C   0  0  0  0  0  0  0  0  0  0  0  0
    1.8921    0.8876    0.6362 C   0  0  0  0  0  0  0  0  0  0  0  0
    1.7685   -0.1538   -0.2401 N   0  0  0  0  0  0  0  0  0  0  0  0
    3.0469   -0.5631   -0.4043 C   0  0  0  0  0  0  0  0  0  0  0  0
    3.6347   -1.4693   -1.2614 C   0  0  0  0  0  0  0  0  0  0  0  0
    3.0707   -2.6570   -2.2899 S   0  0  0  0  0  0  0  0  0  0  0  0
    0.7247   -0.3156   -1.2659 C   0  0  0  0  0  0  0  0  0  0  0  0
    1.0920    0.4307   -2.5545 C   0  0  0  0  0  0  0  0  0  0  0  0
   -1.0388    0.0191    1.5378 C   0  0  0  0  0  0  0  0  0  0  0  0
   -2.2928   -0.0044    0.6543 C   0  0  0  0  0  0  0  0  0  0  0  0
   -5.1339    2.6786    5.3100 C   0  0  0  0  0  0  0  0  0  0  0  0
   -6.2271    3.5575    5.2505 C   0  0  0  0  0  0  0  0  0  0  0  0
   -6.1632    4.9709    4.8036 C   0  0  0  0  0  0  0  0  0  0  0  0
   -6.2734    6.0055    5.7720 C   0  0  0  0  0  0  0  0  0  0  0  0
   -6.3060    7.3473    5.3370 C   0  0  0  0  0  0  0  0  0  0  0  0
   -6.2357    7.6652    3.9752 C   0  0  0  0  0  0  0  0  0  0  0  0
   -6.2564    9.1003    3.5203 C   0  0  0  0  0  0  0  0  0  0  0  0
   -4.8519    9.5884    3.1777 C   0  0  0  0  0  0  0  0  0  0  0  0
   -6.1484    6.6403    3.0302 C   0  0  0  0  0  0  0  0  0  0  0  0
   -6.1016    5.2937    3.4215 C   0  0  0  0  0  0  0  0  0  0  0  0
   -6.0738    4.2457    2.3244 C   0  0  0  0  0  0  0  0  0  0  0  0
   -4.8041    4.3481    1.4778 C   0  0  0  0  0  0  0  0  0  0  0  0
   -6.4259    5.6450    7.2465 C   0  0  0  0  0  0  0  0  0  0  0  0
   -6.3117    6.8008    8.2430 C   0  0  0  0  0  0  0  0  0  0  0  0
   -7.4657    2.9248    5.4978 C   0  0  0  0  0  0  0  0  0  0  0  0
   -7.3674    1.5607    5.7341 C   0  0  0  0  0  0  0  0  0  0  0  0
   -5.7548    1.1452    5.6160 S   0  0  0  0  0  0  0  0  0  0  0  0
   -8.4335    0.5977    5.4470 C   0  0  0  0  0  0  0  0  0  0  0  0
   -9.3063    0.1331    6.3537 C   0  0  0  0  0  0  0  0  0  0  0  0
   -9.2720    0.4148    7.7932 C   0  0  0  0  0  0  0  0  0  0  0  0
   -8.5779    1.3006    8.3678 O   0  0  0  0  0  0  0  0  0  0  0  0
  -10.0992   -0.5615    8.4693 C   0  0  0  0  0  0  0  0  0  0  0  0
  -10.3107   -0.7141    9.8424 C   0  0  0  0  0  0  0  0  0  0  0  0
  -11.1390   -1.7601   10.2862 C   0  0  0  0  0  0  0  0  0  0  0  0
  -11.4404   -1.9245   11.7443 C   0  0  0  0  0  0  0  0  0  0  0  0
  -11.7331   -2.6249    9.3427 C   0  0  0  0  0  0  0  0  0  0  0  0
  -11.4988   -2.4615    7.9696 C   0  0  0  0  0  0  0  0  0  0  0  0
  -10.6783   -1.4091    7.5364 C   0  0  0  0  0  0  0  0  0  0  0  0
  -10.2855   -0.9863    6.1609 C   0  0  0  0  0  0  0  0  0  0  0  0
  -10.7959   -1.4363    4.9808 C   0  0  0  0  0  0  0  0  0  0  0  0
  -10.5627   -0.7645    3.7291 C   0  0  0  0  0  0  0  0  0  0  0  0
  -10.3820   -0.2458    2.7129 N   0  0  0  0  0  0  0  0  0  0  0  0
  -11.6383   -2.6006    4.8790 C   0  0  0  0  0  0  0  0  0  0  0  0
  -12.3007   -3.5434    4.7676 N   0  0  0  0  0  0  0  0  0  0  0  0
    4.5387   -6.0614   -8.0916 H   0  0  0  0  0  0  0  0  0  0  0  0
    5.8021   -3.7962  -12.7163 H   0  0  0  0  0  0  0  0  0  0  0  0
    6.6330   -2.2226  -14.4434 H   0  0  0  0  0  0  0  0  0  0  0  0
    7.2596    0.0629  -15.1144 H   0  0  0  0  0  0  0  0  0  0  0  0
    6.1430    1.5656  -11.2536 H   0  0  0  0  0  0  0  0  0  0  0  0
    5.2776    0.0252   -9.5422 H   0  0  0  0  0  0  0  0  0  0  0  0
    1.2940   -9.1439   -6.4949 H   0  0  0  0  0  0  0  0  0  0  0  0
    2.0084  -11.5156   -6.5173 H   0  0  0  0  0  0  0  0  0  0  0  0
    3.7473  -11.9362   -6.4896 H   0  0  0  0  0  0  0  0  0  0  0  0
    4.0323  -10.9700   -8.7883 H   0  0  0  0  0  0  0  0  0  0  0  0
    2.2762  -10.5340   -8.8185 H   0  0  0  0  0  0  0  0  0  0  0  0
    2.7721  -12.2684   -8.7571 H   0  0  0  0  0  0  0  0  0  0  0  0
    5.4415  -10.1994   -6.2118 H   0  0  0  0  0  0  0  0  0  0  0  0
    6.9098   -8.7215   -4.9312 H   0  0  0  0  0  0  0  0  0  0  0  0
    6.5104   -7.0144   -4.6543 H   0  0  0  0  0  0  0  0  0  0  0  0
    6.7907   -6.5312   -7.1028 H   0  0  0  0  0  0  0  0  0  0  0  0
    8.2623   -7.2945   -6.4023 H   0  0  0  0  0  0  0  0  0  0  0  0
    7.1349   -8.2806   -7.4027 H   0  0  0  0  0  0  0  0  0  0  0  0
    0.6844   -6.7749   -6.5117 H   0  0  0  0  0  0  0  0  0  0  0  0
    1.8002   -5.5320   -5.9161 H   0  0  0  0  0  0  0  0  0  0  0  0
   -0.0033   -5.9723   -4.2727 H   0  0  0  0  0  0  0  0  0  0  0  0
    1.5989   -6.4274   -3.5779 H   0  0  0  0  0  0  0  0  0  0  0  0
    0.4761   -7.7085   -4.1806 H   0  0  0  0  0  0  0  0  0  0  0  0
    4.1373   -5.8648   -3.1500 H   0  0  0  0  0  0  0  0  0  0  0  0
    7.0390   -4.5847   -2.3549 H   0  0  0  0  0  0  0  0  0  0  0  0
    9.4722   -4.8319   -2.6069 H   0  0  0  0  0  0  0  0  0  0  0  0
   10.9211   -2.8458   -2.7876 H   0  0  0  0  0  0  0  0  0  0  0  0
   11.1227   -0.4691   -3.2705 H   0  0  0  0  0  0  0  0  0  0  0  0
    9.6599    0.5584   -3.3858 H   0  0  0  0  0  0  0  0  0  0  0  0
   10.9703   -0.3907   -0.7508 H   0  0  0  0  0  0  0  0  0  0  0  0
    9.5299    0.7013   -0.8942 H   0  0  0  0  0  0  0  0  0  0  0  0
   11.1431    1.2454   -1.4974 H   0  0  0  0  0  0  0  0  0  0  0  0
    7.4654   -0.2944   -2.4635 H   0  0  0  0  0  0  0  0  0  0  0  0
   -3.1926    6.5371    4.2557 H   0  0  0  0  0  0  0  0  0  0  0  0
   -3.0434    8.3918    5.8853 H   0  0  0  0  0  0  0  0  0  0  0  0
   -2.5836    7.9260    8.2612 H   0  0  0  0  0  0  0  0  0  0  0  0
   -2.5896    4.5204    9.7656 H   0  0  0  0  0  0  0  0  0  0  0  0
   -2.5839    6.2785   10.1112 H   0  0  0  0  0  0  0  0  0  0  0  0
   -0.2140    6.4394    9.2718 H   0  0  0  0  0  0  0  0  0  0  0  0
   -0.2227    4.6577    8.9431 H   0  0  0  0  0  0  0  0  0  0  0  0
   -0.3705    5.2643   10.6382 H   0  0  0  0  0  0  0  0  0  0  0  0
   -2.5414    3.6979    7.4225 H   0  0  0  0  0  0  0  0  0  0  0  0
    0.5628   -1.3947   -1.4775 H   0  0  0  0  0  0  0  0  0  0  0  0
   -0.2263    0.1159   -0.9305 H   0  0  0  0  0  0  0  0  0  0  0  0
    0.2456    0.3770   -3.2719 H   0  0  0  0  0  0  0  0  0  0  0  0
    1.3203    1.4939   -2.3322 H   0  0  0  0  0  0  0  0  0  0  0  0
    1.9741   -0.0337   -3.0410 H   0  0  0  0  0  0  0  0  0  0  0  0
   -0.3243   -0.7610    1.2044 H   0  0  0  0  0  0  0  0  0  0  0  0
   -1.3121   -0.2638    2.5789 H   0  0  0  0  0  0  0  0  0  0  0  0
   -2.3762   -0.9823    0.1338 H   0  0  0  0  0  0  0  0  0  0  0  0
   -3.2142    0.1368    1.2536 H   0  0  0  0  0  0  0  0  0  0  0  0
   -2.2635    0.8011   -0.1088 H   0  0  0  0  0  0  0  0  0  0  0  0
   -6.3909    8.1635    6.0430 H   0  0  0  0  0  0  0  0  0  0  0  0
   -6.6925    9.7577    4.3039 H   0  0  0  0  0  0  0  0  0  0  0  0
   -6.9025    9.1939    2.6204 H   0  0  0  0  0  0  0  0  0  0  0  0
   -4.4217    8.9881    2.3466 H   0  0  0  0  0  0  0  0  0  0  0  0
   -4.8933   10.6532    2.8575 H   0  0  0  0  0  0  0  0  0  0  0  0
   -4.1908    9.5123    4.0675 H   0  0  0  0  0  0  0  0  0  0  0  0
   -6.1343    6.8974    1.9788 H   0  0  0  0  0  0  0  0  0  0  0  0
   -6.9561    4.3965    1.6631 H   0  0  0  0  0  0  0  0  0  0  0  0
   -6.1516    3.2146    2.7254 H   0  0  0  0  0  0  0  0  0  0  0  0
   -4.7785    5.3074    0.9258 H   0  0  0  0  0  0  0  0  0  0  0  0
   -3.9084    4.2955    2.1195 H   0  0  0  0  0  0  0  0  0  0  0  0
   -4.7750    3.5166    0.7447 H   0  0  0  0  0  0  0  0  0  0  0  0
   -7.4182    5.1678    7.3941 H   0  0  0  0  0  0  0  0  0  0  0  0
   -5.6520    4.8947    7.5151 H   0  0  0  0  0  0  0  0  0  0  0  0
   -5.3617    7.3479    8.0960 H   0  0  0  0  0  0  0  0  0  0  0  0
   -7.1685    7.4954    8.1321 H   0  0  0  0  0  0  0  0  0  0  0  0
   -6.3248    6.3937    9.2749 H   0  0  0  0  0  0  0  0  0  0  0  0
   -8.4211    3.4276    5.3770 H   0  0  0  0  0  0  0  0  0  0  0  0
   -8.3637    0.1310    4.4739 H   0  0  0  0  0  0  0  0  0  0  0  0
   -9.8496   -0.0343   10.5472 H   0  0  0  0  0  0  0  0  0  0  0  0
  -11.5678   -2.9994   11.9967 H   0  0  0  0  0  0  0  0  0  0  0  0
  -12.3785   -1.3812   11.9916 H   0  0  0  0  0  0  0  0  0  0  0  0
  -10.6113   -1.5209   12.3683 H   0  0  0  0  0  0  0  0  0  0  0  0
  -12.3778   -3.4335    9.6743 H   0  0  0  0  0  0  0  0  0  0  0  0
  -11.9615   -3.1592    7.2942 H   0  0  0  0  0  0  0  0  0  0  0  0
  1  2  2  3
  2  3  1  0
  3  4  2  0
  3  5  1  0
  5  6  2  0
  6  7  1  0
  7  8  2  0
  8  9  1  0
  9 10  2  0
 10 11  1  0
 10 12  1  0
 12 13  2  0
 13 14  1  0
 14 15  2  0
 15 16  1  0
 16 17  2  3
 17 18  1  0
 18 19  3  0
 17 20  1  0
 20 21  3  0
  1 22  1  0
 22 23  2  0
 23 24  1  0
 24 25  2  0
 25 26  1  0
 26 27  2  0
 27 28  1  0
 28 29  1  0
 27 30  1  0
 30 31  2  0
 31 32  1  0
 32 33  1  0
 25 34  1  0
 34 35  1  0
 23 36  1  0
 36 37  2  0
 37 38  1  0
 37 39  1  0
 39 40  2  0
 40 41  1  0
 41 42  2  0
 42 43  1  0
 43 44  2  0
 44 45  1  0
 45 46  1  0
 46 47  1  0
 45 48  2  0
 40 49  1  0
 49 50  1  0
 50 51  1  0
 51 52  1  0
 52 53  1  0
 53 54  1  0
 54 55  2  0
 55 56  1  0
 56 57  1  0
 54 58  1  0
 58 59  1  0
 59 60  1  0
 60 61  1  0
 61 62  1  0
 62 63  1  0
 63 64  2  0
 64 65  1  0
 65 66  2  0
 66 67  1  0
 67 68  1  0
 68 69  1  0
 67 70  2  0
 62 71  2  0
 71 72  1  0
 72 73  1  0
 73 74  1  0
 74 75  1  0
 75 76  1  0
 76 77  1  0
 77 78  1  0
 78 79  1  0
 79 80  1  0
 80 81  1  0
 78 82  1  0
 82 83  1  0
 75 84  1  0
 84 85  1  0
 71 86  1  0
 86 87  2  0
 87 88  1  0
 88 89  2  0
 89 90  1  0
 90 91  2  0
 91 92  1  0
 92 93  1  0
 91 94  1  0
 94 95  2  0
 95 96  1  0
 96 97  1  0
 89 98  1  0
 98 99  1  0
 87100  1  0
100101  2  0
101102  1  0
101103  1  0
103104  2  3
104105  1  0
105106  2  0
105107  1  0
107108  2  0
108109  1  0
109110  1  0
109111  2  0
111112  1  0
112113  2  0
113114  1  0
114115  2  3
115116  1  0
116117  3  0
115118  1  0
118119  3  0
 16  2  1  0
 38 22  1  0
 81 39  1  0
102 86  1  0
114104  1  0
 15  5  1  0
 31 24  1  0
 48 41  1  0
 80 49  2  0
 95 88  1  0
113107  1  0
 13  7  1  0
 79 51  2  0
 77 52  2  0
 57 53  2  0
 76 58  2  0
 74 59  2  0
 73 61  2  0
 70 63  1  0
  1120  1  0
  6121  1  0
  8122  1  0
  9123  1  0
 12124  1  0
 14125  1  0
 26126  1  0
 28127  1  0
 28128  1  0
 29129  1  0
 29130  1  0
 29131  1  0
 30132  1  0
 32133  1  0
 32134  1  0
 33135  1  0
 33136  1  0
 33137  1  0
 34138  1  0
 34139  1  0
 35140  1  0
 35141  1  0
 35142  1  0
 36143  1  0
 42144  1  0
 43145  1  0
 44146  1  0
 46147  1  0
 46148  1  0
 47149  1  0
 47150  1  0
 47151  1  0
 48152  1  0
 64153  1  0
 65154  1  0
 66155  1  0
 68156  1  0
 68157  1  0
 69158  1  0
 69159  1  0
 69160  1  0
 70161  1  0
 82162  1  0
 82163  1  0
 83164  1  0
 83165  1  0
 83166  1  0
 84167  1  0
 84168  1  0
 85169  1  0
 85170  1  0
 85171  1  0
 90172  1  0
 92173  1  0
 92174  1  0
 93175  1  0
 93176  1  0
 93177  1  0
 94178  1  0
 96179  1  0
 96180  1  0
 97181  1  0
 97182  1  0
 97183  1  0
 98184  1  0
 98185  1  0
 99186  1  0
 99187  1  0
 99188  1  0
100189  1  0
103190  1  0
108191  1  0
110192  1  0
110193  1  0
110194  1  0
111195  1  0
112196  1  0
M  END

