
     RDKit          3D

155171  0  0  0  0  0  0  0  0999 V2000
   -5.9603    0.9076    2.4520 C   0  0  0  0  0  0  0  0  0  0  0  0
   -7.2499    1.0373    2.0795 C   0  0  0  0  0  0  0  0  0  0  0  0
   -7.7044    1.4624    0.7472 C   0  0  0  0  0  0  0  0  0  0  0  0
   -6.9888    1.8944   -0.1948 O   0  0  0  0  0  0  0  0  0  0  0  0
   -9.1110    1.1737    0.6271 C   0  0  0  0  0  0  0  0  0  0  0  0
   -9.9330    1.4223   -0.4697 C   0  0  0  0  0  0  0  0  0  0  0  0
  -11.2866    1.0725   -0.3877 C   0  0  0  0  0  0  0  0  0  0  0  0
  -12.1477    1.3128   -1.4682 C   0  0  0  0  0  0  0  0  0  0  0  0
  -13.4985    0.9719   -1.3759 C   0  0  0  0  0  0  0  0  0  0  0  0
  -14.0013    0.3856   -0.2104 C   0  0  0  0  0  0  0  0  0  0  0  0
  -15.3154    0.0555   -0.1336 F   0  0  0  0  0  0  0  0  0  0  0  0
  -13.1531    0.1369    0.8732 C   0  0  0  0  0  0  0  0  0  0  0  0
  -11.7928    0.4729    0.8004 C   0  0  0  0  0  0  0  0  0  0  0  0
  -10.9329    0.2344    1.8921 C   0  0  0  0  0  0  0  0  0  0  0  0
   -9.5742    0.5835    1.7900 C   0  0  0  0  0  0  0  0  0  0  0  0
   -8.4564    0.4954    2.7815 C   0  0  0  0  0  0  0  0  0  0  0  0
   -8.5385    0.1277    4.0889 C   0  0  0  0  0  0  0  0  0  0  0  0
   -7.4846    0.3913    5.0328 C   0  0  0  0  0  0  0  0  0  0  0  0
   -6.6416    0.6029    5.7977 N   0  0  0  0  0  0  0  0  0  0  0  0
   -9.7028   -0.5037    4.6519 C   0  0  0  0  0  0  0  0  0  0  0  0
  -10.6268   -1.0220    5.1215 N   0  0  0  0  0  0  0  0  0  0  0  0
   -4.8315    1.4636    1.6917 C   0  0  0  0  0  0  0  0  0  0  0  0
   -3.6865    0.7675    1.3085 C   0  0  0  0  0  0  0  0  0  0  0  0
   -3.4023   -0.6434    1.6539 C   0  0  0  0  0  0  0  0  0  0  0  0
   -2.7099   -0.9467    2.8573 C   0  0  0  0  0  0  0  0  0  0  0  0
   -2.2871   -2.2720    3.0838 C   0  0  0  0  0  0  0  0  0  0  0  0
   -2.6145   -3.2946    2.1903 C   0  0  0  0  0  0  0  0  0  0  0  0
   -2.1175   -4.6989    2.4279 C   0  0  0  0  0  0  0  0  0  0  0  0
   -0.7338   -4.8922    1.8137 C   0  0  0  0  0  0  0  0  0  0  0  0
   -3.3385   -2.9954    1.0337 C   0  0  0  0  0  0  0  0  0  0  0  0
   -3.7257   -1.6794    0.7440 C   0  0  0  0  0  0  0  0  0  0  0  0
   -4.5062   -1.4280   -0.5279 C   0  0  0  0  0  0  0  0  0  0  0  0
   -5.9794   -1.7739   -0.3390 C   0  0  0  0  0  0  0  0  0  0  0  0
   -2.3273    0.1664    3.8270 C   0  0  0  0  0  0  0  0  0  0  0  0
   -2.1255   -0.2817    5.2763 C   0  0  0  0  0  0  0  0  0  0  0  0
   -2.7908    1.5453    0.5665 C   0  0  0  0  0  0  0  0  0  0  0  0
   -3.2015    2.8623    0.4089 C   0  0  0  0  0  0  0  0  0  0  0  0
   -4.6790    3.0669    1.1806 S   0  0  0  0  0  0  0  0  0  0  0  0
   -2.4983    3.8635   -0.3998 C   0  0  0  0  0  0  0  0  0  0  0  0
   -2.1302    5.1627   -0.0045 C   0  0  0  0  0  0  0  0  0  0  0  0
   -2.4382    5.7866    1.3299 C   0  0  0  0  0  0  0  0  0  0  0  0
   -3.5654    6.8064    1.2021 C   0  0  0  0  0  0  0  0  0  0  0  0
   -1.3001    5.7537   -0.9654 C   0  0  0  0  0  0  0  0  0  0  0  0
   -0.1952    7.0395   -0.8593 S   0  0  0  0  0  0  0  0  0  0  0  0
    0.5789    6.5805   -2.3017 C   0  0  0  0  0  0  0  0  0  0  0  0
    1.8926    6.6143   -2.6915 C   0  0  0  0  0  0  0  0  0  0  0  0
    2.9521    7.2732   -2.0594 C   0  0  0  0  0  0  0  0  0  0  0  0
    4.2780    6.8141   -2.2836 C   0  0  0  0  0  0  0  0  0  0  0  0
    5.2715    7.4211   -1.5869 N   0  0  0  0  0  0  0  0  0  0  0  0
    4.3748    8.5139   -0.7232 S   0  0  0  0  0  0  0  0  0  0  0  0
    2.7942    8.2783   -1.1596 N   0  0  0  0  0  0  0  0  0  0  0  0
    4.4835    5.7672   -3.1846 C   0  0  0  0  0  0  0  0  0  0  0  0
    5.6131    5.0444   -3.4520 C   0  0  0  0  0  0  0  0  0  0  0  0
    6.9259    4.5813   -2.4794 S   0  0  0  0  0  0  0  0  0  0  0  0
    7.0442    3.0763   -3.2607 C   0  0  0  0  0  0  0  0  0  0  0  0
    7.5955    1.8742   -2.8178 C   0  0  0  0  0  0  0  0  0  0  0  0
    8.5185    1.8362   -1.7636 O   0  0  0  0  0  0  0  0  0  0  0  0
    9.4833    0.8049   -1.5515 C   0  0  0  0  0  0  0  0  0  0  0  0
   10.4682    0.7377   -2.7159 C   0  0  0  0  0  0  0  0  0  0  0  0
    7.0279    0.7641   -3.4883 C   0  0  0  0  0  0  0  0  0  0  0  0
    5.8102    1.3280   -4.5395 S   0  0  0  0  0  0  0  0  0  0  0  0
    6.0660    2.9455   -4.2175 C   0  0  0  0  0  0  0  0  0  0  0  0
    5.2411    4.0563   -4.3114 C   0  0  0  0  0  0  0  0  0  0  0  0
    3.9311    4.1078   -4.6425 N   0  0  0  0  0  0  0  0  0  0  0  0
    3.4354    5.1443   -3.8857 C   0  0  0  0  0  0  0  0  0  0  0  0
    2.0894    5.5064   -3.5490 C   0  0  0  0  0  0  0  0  0  0  0  0
    0.9253    4.7717   -3.6166 N   0  0  0  0  0  0  0  0  0  0  0  0
    0.0442    5.4445   -2.8298 C   0  0  0  0  0  0  0  0  0  0  0  0
   -1.0253    4.9743   -2.0644 C   0  0  0  0  0  0  0  0  0  0  0  0
   -1.7657    3.4834   -1.8810 S   0  0  0  0  0  0  0  0  0  0  0  0
    0.6672    3.4366   -4.1623 C   0  0  0  0  0  0  0  0  0  0  0  0
    1.3235    2.3436   -3.3209 C   0  0  0  0  0  0  0  0  0  0  0  0
    3.4499    3.5421   -5.9107 C   0  0  0  0  0  0  0  0  0  0  0  0
    2.8292    4.6080   -6.8138 C   0  0  0  0  0  0  0  0  0  0  0  0
    6.9682   -0.6111   -2.9758 C   0  0  0  0  0  0  0  0  0  0  0  0
    6.1885   -0.8776   -1.8427 C   0  0  0  0  0  0  0  0  0  0  0  0
    5.6317    0.1425   -1.1367 F   0  0  0  0  0  0  0  0  0  0  0  0
    5.8870   -2.1958   -1.4843 C   0  0  0  0  0  0  0  0  0  0  0  0
    5.0201   -2.4119   -0.4617 F   0  0  0  0  0  0  0  0  0  0  0  0
    6.4091   -3.2724   -2.2304 C   0  0  0  0  0  0  0  0  0  0  0  0
    7.2185   -2.9994   -3.3484 C   0  0  0  0  0  0  0  0  0  0  0  0
    7.7060   -4.0155   -4.1050 F   0  0  0  0  0  0  0  0  0  0  0  0
    7.4927   -1.6763   -3.7225 C   0  0  0  0  0  0  0  0  0  0  0  0
    8.2226   -1.4350   -4.8410 F   0  0  0  0  0  0  0  0  0  0  0  0
    5.9655   -4.6608   -1.9674 C   0  0  0  0  0  0  0  0  0  0  0  0
    5.8564   -5.1999   -0.7383 C   0  0  0  0  0  0  0  0  0  0  0  0
    6.5737   -4.7385    0.4555 C   0  0  0  0  0  0  0  0  0  0  0  0
    7.3759   -3.7670    0.5188 O   0  0  0  0  0  0  0  0  0  0  0  0
    6.3089   -5.6610    1.5343 C   0  0  0  0  0  0  0  0  0  0  0  0
    6.7079   -5.5423    2.8650 C   0  0  0  0  0  0  0  0  0  0  0  0
    6.2406   -6.4848    3.7930 C   0  0  0  0  0  0  0  0  0  0  0  0
    6.5758   -6.3721    5.1532 C   0  0  0  0  0  0  0  0  0  0  0  0
    6.0669   -7.2878    6.0783 C   0  0  0  0  0  0  0  0  0  0  0  0
    5.2346   -8.3282    5.6567 C   0  0  0  0  0  0  0  0  0  0  0  0
    4.7434   -9.2098    6.5623 F   0  0  0  0  0  0  0  0  0  0  0  0
    4.9050   -8.4611    4.3063 C   0  0  0  0  0  0  0  0  0  0  0  0
    5.3937   -7.5431    3.3626 C   0  0  0  0  0  0  0  0  0  0  0  0
    5.0235   -7.6447    2.0052 C   0  0  0  0  0  0  0  0  0  0  0  0
    5.4893   -6.6867    1.0891 C   0  0  0  0  0  0  0  0  0  0  0  0
    5.1388   -6.4581   -0.3474 C   0  0  0  0  0  0  0  0  0  0  0  0
    4.2033   -7.1229   -1.0775 C   0  0  0  0  0  0  0  0  0  0  0  0
    3.6419   -6.5756   -2.2857 C   0  0  0  0  0  0  0  0  0  0  0  0
    3.1663   -6.1329   -3.2409 N   0  0  0  0  0  0  0  0  0  0  0  0
    3.6060   -8.3599   -0.6549 C   0  0  0  0  0  0  0  0  0  0  0  0
    3.0987   -9.3513   -0.3283 N   0  0  0  0  0  0  0  0  0  0  0  0
   -5.6996    0.2874    3.2937 H   0  0  0  0  0  0  0  0  0  0  0  0
   -9.5263    1.8863   -1.3605 H   0  0  0  0  0  0  0  0  0  0  0  0
  -11.7798    1.7709   -2.3774 H   0  0  0  0  0  0  0  0  0  0  0  0
  -14.1592    1.1629   -2.2117 H   0  0  0  0  0  0  0  0  0  0  0  0
  -13.5604   -0.3130    1.7713 H   0  0  0  0  0  0  0  0  0  0  0  0
  -11.3398   -0.2105    2.7838 H   0  0  0  0  0  0  0  0  0  0  0  0
   -1.6962   -2.5223    3.9538 H   0  0  0  0  0  0  0  0  0  0  0  0
   -2.0689   -4.9104    3.5181 H   0  0  0  0  0  0  0  0  0  0  0  0
   -2.8205   -5.4365    1.9814 H   0  0  0  0  0  0  0  0  0  0  0  0
    0.0012   -4.2129    2.2967 H   0  0  0  0  0  0  0  0  0  0  0  0
   -0.4023   -5.9398    1.9691 H   0  0  0  0  0  0  0  0  0  0  0  0
   -0.7628   -4.6896    0.7206 H   0  0  0  0  0  0  0  0  0  0  0  0
   -3.5826   -3.7894    0.3379 H   0  0  0  0  0  0  0  0  0  0  0  0
   -4.4177   -0.3750   -0.8659 H   0  0  0  0  0  0  0  0  0  0  0  0
   -4.0914   -2.0528   -1.3481 H   0  0  0  0  0  0  0  0  0  0  0  0
   -6.0983   -2.8609   -0.1426 H   0  0  0  0  0  0  0  0  0  0  0  0
   -6.5428   -1.5207   -1.2606 H   0  0  0  0  0  0  0  0  0  0  0  0
   -6.4082   -1.2037    0.5086 H   0  0  0  0  0  0  0  0  0  0  0  0
   -1.3997    0.6621    3.4657 H   0  0  0  0  0  0  0  0  0  0  0  0
   -3.1270    0.9360    3.8503 H   0  0  0  0  0  0  0  0  0  0  0  0
   -2.9676   -0.9279    5.6064 H   0  0  0  0  0  0  0  0  0  0  0  0
   -1.1604   -0.8238    5.3850 H   0  0  0  0  0  0  0  0  0  0  0  0
   -2.0873    0.6103    5.9392 H   0  0  0  0  0  0  0  0  0  0  0  0
   -1.8640    1.1590    0.1613 H   0  0  0  0  0  0  0  0  0  0  0  0
   -2.7272    5.0077    2.0640 H   0  0  0  0  0  0  0  0  0  0  0  0
   -1.5331    6.2889    1.7306 H   0  0  0  0  0  0  0  0  0  0  0  0
   -4.4407    6.3621    0.6849 H   0  0  0  0  0  0  0  0  0  0  0  0
   -3.8743    7.1445    2.2129 H   0  0  0  0  0  0  0  0  0  0  0  0
   -3.2143    7.6890    0.6246 H   0  0  0  0  0  0  0  0  0  0  0  0
    8.9935   -0.1764   -1.3946 H   0  0  0  0  0  0  0  0  0  0  0  0
   10.0424    1.0440   -0.6230 H   0  0  0  0  0  0  0  0  0  0  0  0
    9.9722    0.3196   -3.6143 H   0  0  0  0  0  0  0  0  0  0  0  0
   11.3260    0.0962   -2.4330 H   0  0  0  0  0  0  0  0  0  0  0  0
   10.8433    1.7565   -2.9476 H   0  0  0  0  0  0  0  0  0  0  0  0
   -0.4229    3.2457   -4.1921 H   0  0  0  0  0  0  0  0  0  0  0  0
    0.9265    3.3884   -5.2261 H   0  0  0  0  0  0  0  0  0  0  0  0
    1.0324    2.4462   -2.2545 H   0  0  0  0  0  0  0  0  0  0  0  0
    2.4298    2.3738   -3.3960 H   0  0  0  0  0  0  0  0  0  0  0  0
    0.9855    1.3481   -3.6813 H   0  0  0  0  0  0  0  0  0  0  0  0
    2.8010    2.6659   -5.7430 H   0  0  0  0  0  0  0  0  0  0  0  0
    4.3090    3.1217   -6.4775 H   0  0  0  0  0  0  0  0  0  0  0  0
    1.9564    5.0949   -6.3337 H   0  0  0  0  0  0  0  0  0  0  0  0
    3.5859    5.3866   -7.0513 H   0  0  0  0  0  0  0  0  0  0  0  0
    2.4890    4.1414   -7.7618 H   0  0  0  0  0  0  0  0  0  0  0  0
    5.6776   -5.2345   -2.8351 H   0  0  0  0  0  0  0  0  0  0  0  0
    7.3407   -4.7185    3.1756 H   0  0  0  0  0  0  0  0  0  0  0  0
    7.2129   -5.5653    5.4991 H   0  0  0  0  0  0  0  0  0  0  0  0
    6.3165   -7.1875    7.1259 H   0  0  0  0  0  0  0  0  0  0  0  0
    4.2513   -9.2689    3.9976 H   0  0  0  0  0  0  0  0  0  0  0  0
    4.3706   -8.4441    1.7098 H   0  0  0  0  0  0  0  0  0  0  0  0
  1  2  2  3
  2  3  1  0
  3  4  2  0
  3  5  1  0
  5  6  2  0
  6  7  1  0
  7  8  2  0
  8  9  1  0
  9 10  2  0
 10 11  1  0
 10 12  1  0
 12 13  2  0
 13 14  1  0
 14 15  2  0
 15 16  1  0
 16 17  2  3
 17 18  1  0
 18 19  3  0
 17 20  1  0
 20 21  3  0
  1 22  1  0
 22 23  2  0
 23 24  1  0
 24 25  2  0
 25 26  1  0
 26 27  2  0
 27 28  1  0
 28 29  1  0
 27 30  1  0
 30 31  2  0
 31 32  1  0
 32 33  1  0
 25 34  1  0
 34 35  1  0
 23 36  1  0
 36 37  2  0
 37 38  1  0
 37 39  1  0
 39 40  2  0
 40 41  1  0
 41 42  1  0
 40 43  1  0
 43 44  1  0
 44 45  1  0
 45 46  1  0
 46 47  1  0
 47 48  1  0
 48 49  2  0
 49 50  1  0
 50 51  1  0
 48 52  1  0
 52 53  1  0
 53 54  1  0
 54 55  1  0
 55 56  1  0
 56 57  1  0
 57 58  1  0
 58 59  1  0
 56 60  2  0
 60 61  1  0
 61 62  1  0
 62 63  1  0
 63 64  1  0
 64 65  1  0
 65 66  1  0
 66 67  1  0
 67 68  1  0
 68 69  1  0
 69 70  1  0
 67 71  1  0
 71 72  1  0
 64 73  1  0
 73 74  1  0
 60 75  1  0
 75 76  2  0
 76 77  1  0
 76 78  1  0
 78 79  1  0
 78 80  2  0
 80 81  1  0
 81 82  1  0
 81 83  2  0
 83 84  1  0
 80 85  1  0
 85 86  2  3
 86 87  1  0
 87 88  2  0
 87 89  1  0
 89 90  2  0
 90 91  1  0
 91 92  2  0
 92 93  1  0
 93 94  2  0
 94 95  1  0
 94 96  1  0
 96 97  2  0
 97 98  1  0
 98 99  2  0
 99100  1  0
100101  2  3
101102  1  0
102103  3  0
101104  1  0
104105  3  0
 16  2  1  0
 38 22  1  0
 70 39  1  0
 83 75  1  0
100 86  1  0
 15  5  1  0
 31 24  1  0
 69 43  2  0
 99 89  1  0
 13  7  1  0
 68 45  2  0
 97 91  1  0
 66 46  2  0
 51 47  2  0
 65 52  2  0
 63 53  2  0
 62 55  2  0
  1106  1  0
  6107  1  0
  8108  1  0
  9109  1  0
 12110  1  0
 14111  1  0
 26112  1  0
 28113  1  0
 28114  1  0
 29115  1  0
 29116  1  0
 29117  1  0
 30118  1  0
 32119  1  0
 32120  1  0
 33121  1  0
 33122  1  0
 33123  1  0
 34124  1  0
 34125  1  0
 35126  1  0
 35127  1  0
 35128  1  0
 36129  1  0
 41130  1  0
 41131  1  0
 42132  1  0
 42133  1  0
 42134  1  0
 58135  1  0
 58136  1  0
 59137  1  0
 59138  1  0
 59139  1  0
 71140  1  0
 71141  1  0
 72142  1  0
 72143  1  0
 72144  1  0
 73145  1  0
 73146  1  0
 74147  1  0
 74148  1  0
 74149  1  0
 85150  1  0
 90151  1  0
 92152  1  0
 93153  1  0
 96154  1  0
 98155  1  0
M  END

