
     RDKit          3D

212233  0  0  0  0  0  0  0  0999 V2000
    3.0689   -6.9851    5.2391 C   0  0  0  0  0  0  0  0  0  0  0  0
    3.1136   -6.0964    6.2518 C   0  0  0  0  0  0  0  0  0  0  0  0
    3.8858   -4.8498    6.2663 C   0  0  0  0  0  0  0  0  0  0  0  0
    4.4404   -4.2981    5.2768 O   0  0  0  0  0  0  0  0  0  0  0  0
    3.9980   -4.4025    7.6471 C   0  0  0  0  0  0  0  0  0  0  0  0
    4.6097   -3.2469    8.1338 C   0  0  0  0  0  0  0  0  0  0  0  0
    4.5444   -2.9728    9.5133 C   0  0  0  0  0  0  0  0  0  0  0  0
    5.1527   -1.8232   10.0489 C   0  0  0  0  0  0  0  0  0  0  0  0
    5.0628   -1.5534   11.4180 C   0  0  0  0  0  0  0  0  0  0  0  0
    4.3575   -2.4204   12.2619 C   0  0  0  0  0  0  0  0  0  0  0  0
    4.2582   -2.1464   13.5868 F   0  0  0  0  0  0  0  0  0  0  0  0
    3.7456   -3.5667   11.7411 C   0  0  0  0  0  0  0  0  0  0  0  0
    3.8481   -3.8647   10.3734 C   0  0  0  0  0  0  0  0  0  0  0  0
    3.2370   -5.0206    9.8547 C   0  0  0  0  0  0  0  0  0  0  0  0
    3.3326   -5.2870    8.4816 C   0  0  0  0  0  0  0  0  0  0  0  0
    2.7146   -6.3670    7.6651 C   0  0  0  0  0  0  0  0  0  0  0  0
    1.8466   -7.3204    8.0985 C   0  0  0  0  0  0  0  0  0  0  0  0
    0.9725   -8.0246    7.1973 C   0  0  0  0  0  0  0  0  0  0  0  0
    0.2657   -8.5974    6.4783 N   0  0  0  0  0  0  0  0  0  0  0  0
    1.8492   -7.8001    9.4519 C   0  0  0  0  0  0  0  0  0  0  0  0
    1.8841   -8.2203   10.5289 N   0  0  0  0  0  0  0  0  0  0  0  0
    3.3391   -6.6552    3.8283 C   0  0  0  0  0  0  0  0  0  0  0  0
    3.9919   -7.4779    2.8981 C   0  0  0  0  0  0  0  0  0  0  0  0
    4.7699   -8.6881    3.2414 C   0  0  0  0  0  0  0  0  0  0  0  0
    4.1075   -9.8930    3.6040 C   0  0  0  0  0  0  0  0  0  0  0  0
    4.8664  -11.0150    3.9650 C   0  0  0  0  0  0  0  0  0  0  0  0
    6.2643  -10.9858    3.9203 C   0  0  0  0  0  0  0  0  0  0  0  0
    7.0678  -12.1956    4.3007 C   0  0  0  0  0  0  0  0  0  0  0  0
    7.7034  -12.0147    5.6762 C   0  0  0  0  0  0  0  0  0  0  0  0
    6.9157   -9.8180    3.5168 C   0  0  0  0  0  0  0  0  0  0  0  0
    6.1931   -8.6723    3.1619 C   0  0  0  0  0  0  0  0  0  0  0  0
    6.9797   -7.4388    2.7505 C   0  0  0  0  0  0  0  0  0  0  0  0
    7.2539   -6.5325    3.9465 C   0  0  0  0  0  0  0  0  0  0  0  0
    2.6030  -10.0585    3.5247 C   0  0  0  0  0  0  0  0  0  0  0  0
    2.2002  -10.7699    2.2380 C   0  0  0  0  0  0  0  0  0  0  0  0
    3.8863   -7.0176    1.5790 C   0  0  0  0  0  0  0  0  0  0  0  0
    3.1313   -5.8653    1.4607 C   0  0  0  0  0  0  0  0  0  0  0  0
    2.5785   -5.4068    2.9863 S   0  0  0  0  0  0  0  0  0  0  0  0
    2.8427   -5.1968    0.1943 C   0  0  0  0  0  0  0  0  0  0  0  0
    3.8066   -4.7874   -0.7539 C   0  0  0  0  0  0  0  0  0  0  0  0
    5.2481   -4.6481   -0.4691 C   0  0  0  0  0  0  0  0  0  0  0  0
    5.6732   -4.0851    0.7476 C   0  0  0  0  0  0  0  0  0  0  0  0
    7.0353   -3.9422    1.0259 C   0  0  0  0  0  0  0  0  0  0  0  0
    7.9834   -4.3474    0.0869 C   0  0  0  0  0  0  0  0  0  0  0  0
    7.5765   -4.9119   -1.1347 C   0  0  0  0  0  0  0  0  0  0  0  0
    8.5972   -5.3093   -2.1658 C   0  0  0  0  0  0  0  0  0  0  0  0
    8.8062   -4.1911   -3.1834 C   0  0  0  0  0  0  0  0  0  0  0  0
    6.2064   -5.0485   -1.4112 C   0  0  0  0  0  0  0  0  0  0  0  0
    3.1837   -4.4074   -1.9462 C   0  0  0  0  0  0  0  0  0  0  0  0
    3.7333   -3.6555   -3.3828 S   0  0  0  0  0  0  0  0  0  0  0  0
    2.1375   -3.4936   -3.9408 C   0  0  0  0  0  0  0  0  0  0  0  0
    1.4273   -2.8316   -4.9037 C   0  0  0  0  0  0  0  0  0  0  0  0
    1.8135   -2.1528   -6.0587 C   0  0  0  0  0  0  0  0  0  0  0  0
    0.8135   -1.4502   -6.8022 C   0  0  0  0  0  0  0  0  0  0  0  0
    1.2368   -0.7722   -7.8999 N   0  0  0  0  0  0  0  0  0  0  0  0
    2.8540   -1.1458   -7.8554 S   0  0  0  0  0  0  0  0  0  0  0  0
    3.0902   -2.1067   -6.5252 N   0  0  0  0  0  0  0  0  0  0  0  0
   -0.5055   -1.4081   -6.3071 C   0  0  0  0  0  0  0  0  0  0  0  0
   -1.4573   -0.4437   -6.5254 C   0  0  0  0  0  0  0  0  0  0  0  0
   -1.3159    1.0783   -7.2635 S   0  0  0  0  0  0  0  0  0  0  0  0
   -2.3144    1.8196   -6.1193 C   0  0  0  0  0  0  0  0  0  0  0  0
   -2.3551    3.1667   -5.7255 C   0  0  0  0  0  0  0  0  0  0  0  0
   -1.9929    4.2785   -6.6398 C   0  0  0  0  0  0  0  0  0  0  0  0
   -1.2031    5.3621   -6.2262 C   0  0  0  0  0  0  0  0  0  0  0  0
   -0.9056    6.4026   -7.1089 C   0  0  0  0  0  0  0  0  0  0  0  0
   -1.3860    6.3658   -8.4231 C   0  0  0  0  0  0  0  0  0  0  0  0
   -2.1597    5.2819   -8.8624 C   0  0  0  0  0  0  0  0  0  0  0  0
   -2.7425    5.2762  -10.2467 C   0  0  0  0  0  0  0  0  0  0  0  0
   -4.1601    5.8398  -10.2366 C   0  0  0  0  0  0  0  0  0  0  0  0
   -2.4637    4.2468   -7.9654 C   0  0  0  0  0  0  0  0  0  0  0  0
   -2.7995    3.2913   -4.3904 C   0  0  0  0  0  0  0  0  0  0  0  0
   -3.1370    1.7479   -3.7911 S   0  0  0  0  0  0  0  0  0  0  0  0
   -2.7207    0.9051   -5.1783 C   0  0  0  0  0  0  0  0  0  0  0  0
   -2.2317   -0.3910   -5.3975 C   0  0  0  0  0  0  0  0  0  0  0  0
   -1.8908   -1.3544   -4.4944 N   0  0  0  0  0  0  0  0  0  0  0  0
   -0.8506   -2.0216   -5.0923 C   0  0  0  0  0  0  0  0  0  0  0  0
    0.0966   -2.8719   -4.4758 C   0  0  0  0  0  0  0  0  0  0  0  0
   -0.0394   -3.6514   -3.3647 N   0  0  0  0  0  0  0  0  0  0  0  0
    1.2340   -3.9710   -3.0549 C   0  0  0  0  0  0  0  0  0  0  0  0
    1.8170   -4.5026   -1.9267 C   0  0  0  0  0  0  0  0  0  0  0  0
    1.2699   -5.0432   -0.4388 S   0  0  0  0  0  0  0  0  0  0  0  0
   -1.2182   -4.4325   -2.9662 C   0  0  0  0  0  0  0  0  0  0  0  0
   -1.1293   -5.8614   -3.5042 C   0  0  0  0  0  0  0  0  0  0  0  0
   -2.1877   -1.2796   -3.0524 C   0  0  0  0  0  0  0  0  0  0  0  0
   -3.6712   -1.5502   -2.7793 C   0  0  0  0  0  0  0  0  0  0  0  0
   -2.3954    4.3289   -3.4277 C   0  0  0  0  0  0  0  0  0  0  0  0
   -3.3438    5.1985   -2.8659 C   0  0  0  0  0  0  0  0  0  0  0  0
   -4.5492    5.3902   -3.4563 N   0  0  0  0  0  0  0  0  0  0  0  0
   -5.5088    6.1736   -2.8987 C   0  0  0  0  0  0  0  0  0  0  0  0
   -6.6978    6.5089   -3.7305 C   0  0  0  0  0  0  0  0  0  0  0  0
   -7.2988    5.5165   -4.5302 C   0  0  0  0  0  0  0  0  0  0  0  0
   -8.2905    5.8536   -5.4603 C   0  0  0  0  0  0  0  0  0  0  0  0
   -8.6979    7.1927   -5.6078 C   0  0  0  0  0  0  0  0  0  0  0  0
   -9.6089    7.6240   -6.5871 O   0  0  0  0  0  0  0  0  0  0  0  0
  -10.0409    6.8501   -7.7053 C   0  0  0  0  0  0  0  0  0  0  0  0
  -10.7176    7.7641   -8.7122 C   0  0  0  0  0  0  0  0  0  0  0  0
   -8.1432    8.1691   -4.7706 C   0  0  0  0  0  0  0  0  0  0  0  0
   -7.1395    7.8405   -3.8591 C   0  0  0  0  0  0  0  0  0  0  0  0
   -6.5317    8.8472   -3.1791 F   0  0  0  0  0  0  0  0  0  0  0  0
   -8.5412    9.4597   -4.8911 F   0  0  0  0  0  0  0  0  0  0  0  0
   -8.8391    4.8581   -6.2020 F   0  0  0  0  0  0  0  0  0  0  0  0
   -6.8972    4.2247   -4.4319 F   0  0  0  0  0  0  0  0  0  0  0  0
   -5.2793    6.7087   -1.6086 C   0  0  0  0  0  0  0  0  0  0  0  0
   -6.3577    7.2951   -0.7761 C   0  0  0  0  0  0  0  0  0  0  0  0
   -7.6079    6.6556   -0.6559 C   0  0  0  0  0  0  0  0  0  0  0  0
   -7.8559    5.4892   -1.3043 F   0  0  0  0  0  0  0  0  0  0  0  0
   -8.5913    7.1757    0.1861 C   0  0  0  0  0  0  0  0  0  0  0  0
   -9.7885    6.5509    0.2855 F   0  0  0  0  0  0  0  0  0  0  0  0
   -8.3327    8.3157    0.9557 C   0  0  0  0  0  0  0  0  0  0  0  0
   -9.3202    8.7865    1.8269 O   0  0  0  0  0  0  0  0  0  0  0  0
   -9.1272    8.8722    3.2377 C   0  0  0  0  0  0  0  0  0  0  0  0
   -9.1156    7.4786    3.8621 C   0  0  0  0  0  0  0  0  0  0  0  0
   -7.0942    8.9624    0.8391 C   0  0  0  0  0  0  0  0  0  0  0  0
   -6.8490   10.1070    1.5245 F   0  0  0  0  0  0  0  0  0  0  0  0
   -6.1104    8.4542   -0.0177 C   0  0  0  0  0  0  0  0  0  0  0  0
   -4.9217    9.1020   -0.1190 F   0  0  0  0  0  0  0  0  0  0  0  0
   -4.0424    6.5818   -1.0593 N   0  0  0  0  0  0  0  0  0  0  0  0
   -3.0490    5.8834   -1.6701 C   0  0  0  0  0  0  0  0  0  0  0  0
   -1.7640    5.7881   -1.1017 C   0  0  0  0  0  0  0  0  0  0  0  0
   -0.7937    4.9911   -1.7200 C   0  0  0  0  0  0  0  0  0  0  0  0
   -1.1181    4.2404   -2.8512 C   0  0  0  0  0  0  0  0  0  0  0  0
   -0.1929    3.3860   -3.3595 F   0  0  0  0  0  0  0  0  0  0  0  0
    0.4539    4.8920   -1.1874 F   0  0  0  0  0  0  0  0  0  0  0  0
   -1.3935    6.5408    0.1134 C   0  0  0  0  0  0  0  0  0  0  0  0
   -1.4882    6.0166    1.3511 C   0  0  0  0  0  0  0  0  0  0  0  0
   -2.0178    4.6860    1.6577 C   0  0  0  0  0  0  0  0  0  0  0  0
   -2.7057    3.9593    0.8912 O   0  0  0  0  0  0  0  0  0  0  0  0
   -1.6360    4.3432    3.0055 C   0  0  0  0  0  0  0  0  0  0  0  0
   -1.9158    3.1634    3.7002 C   0  0  0  0  0  0  0  0  0  0  0  0
   -1.4406    3.0249    5.0120 C   0  0  0  0  0  0  0  0  0  0  0  0
   -1.6947    1.8536    5.7491 C   0  0  0  0  0  0  0  0  0  0  0  0
   -1.2057    1.7224    7.0519 C   0  0  0  0  0  0  0  0  0  0  0  0
   -0.4537    2.7485    7.6265 C   0  0  0  0  0  0  0  0  0  0  0  0
    0.0358    2.6045    8.8834 F   0  0  0  0  0  0  0  0  0  0  0  0
   -0.1881    3.9171    6.9066 C   0  0  0  0  0  0  0  0  0  0  0  0
   -0.6813    4.0740    5.6002 C   0  0  0  0  0  0  0  0  0  0  0  0
   -0.4276    5.2576    4.8778 C   0  0  0  0  0  0  0  0  0  0  0  0
   -0.9213    5.3878    3.5697 C   0  0  0  0  0  0  0  0  0  0  0  0
   -0.8517    6.5263    2.6076 C   0  0  0  0  0  0  0  0  0  0  0  0
   -0.4009    7.7868    2.8511 C   0  0  0  0  0  0  0  0  0  0  0  0
    0.2948    8.1575    4.0519 C   0  0  0  0  0  0  0  0  0  0  0  0
    0.8776    8.4650    5.0082 N   0  0  0  0  0  0  0  0  0  0  0  0
   -0.6048    8.8754    1.9346 C   0  0  0  0  0  0  0  0  0  0  0  0
   -0.7667    9.7671    1.2105 N   0  0  0  0  0  0  0  0  0  0  0  0
    2.7915   -7.9952    5.4421 H   0  0  0  0  0  0  0  0  0  0  0  0
    5.1284   -2.5777    7.4570 H   0  0  0  0  0  0  0  0  0  0  0  0
    5.6761   -1.1236    9.4129 H   0  0  0  0  0  0  0  0  0  0  0  0
    5.5320   -0.6706   11.8310 H   0  0  0  0  0  0  0  0  0  0  0  0
    3.1910   -4.2195   12.4105 H   0  0  0  0  0  0  0  0  0  0  0  0
    2.7093   -5.6757   10.5240 H   0  0  0  0  0  0  0  0  0  0  0  0
    4.3701  -11.9321    4.2527 H   0  0  0  0  0  0  0  0  0  0  0  0
    7.8641  -12.3671    3.5439 H   0  0  0  0  0  0  0  0  0  0  0  0
    6.4256  -13.0990    4.3204 H   0  0  0  0  0  0  0  0  0  0  0  0
    8.3491  -11.1078    5.6983 H   0  0  0  0  0  0  0  0  0  0  0  0
    6.9181  -11.9203    6.4575 H   0  0  0  0  0  0  0  0  0  0  0  0
    8.3363  -12.8984    5.9106 H   0  0  0  0  0  0  0  0  0  0  0  0
    8.0014   -9.7979    3.4868 H   0  0  0  0  0  0  0  0  0  0  0  0
    7.9534   -7.7395    2.3015 H   0  0  0  0  0  0  0  0  0  0  0  0
    6.4613   -6.8576    1.9625 H   0  0  0  0  0  0  0  0  0  0  0  0
    7.8385   -7.0726    4.7217 H   0  0  0  0  0  0  0  0  0  0  0  0
    7.8343   -5.6476    3.6149 H   0  0  0  0  0  0  0  0  0  0  0  0
    6.2980   -6.1796    4.3880 H   0  0  0  0  0  0  0  0  0  0  0  0
    2.0590   -9.0959    3.5573 H   0  0  0  0  0  0  0  0  0  0  0  0
    2.2428  -10.6471    4.3966 H   0  0  0  0  0  0  0  0  0  0  0  0
    2.7388  -11.7386    2.1332 H   0  0  0  0  0  0  0  0  0  0  0  0
    2.4307  -10.1198    1.3632 H   0  0  0  0  0  0  0  0  0  0  0  0
    1.1053  -10.9760    2.2534 H   0  0  0  0  0  0  0  0  0  0  0  0
    4.3394   -7.5202    0.7312 H   0  0  0  0  0  0  0  0  0  0  0  0
    4.9561   -3.7279    1.4722 H   0  0  0  0  0  0  0  0  0  0  0  0
    7.3514   -3.5099    1.9648 H   0  0  0  0  0  0  0  0  0  0  0  0
    9.0354   -4.2091    0.3015 H   0  0  0  0  0  0  0  0  0  0  0  0
    9.5697   -5.5461   -1.6794 H   0  0  0  0  0  0  0  0  0  0  0  0
    8.2588   -6.2288   -2.6917 H   0  0  0  0  0  0  0  0  0  0  0  0
    9.2633   -3.3036   -2.6946 H   0  0  0  0  0  0  0  0  0  0  0  0
    9.4859   -4.5473   -3.9836 H   0  0  0  0  0  0  0  0  0  0  0  0
    7.8398   -3.9012   -3.6451 H   0  0  0  0  0  0  0  0  0  0  0  0
    5.8914   -5.4896   -2.3499 H   0  0  0  0  0  0  0  0  0  0  0  0
   -0.7873    5.4080   -5.2340 H   0  0  0  0  0  0  0  0  0  0  0  0
   -0.3001    7.2393   -6.7791 H   0  0  0  0  0  0  0  0  0  0  0  0
   -1.1599    7.1871   -9.0913 H   0  0  0  0  0  0  0  0  0  0  0  0
   -2.1132    5.8827  -10.9323 H   0  0  0  0  0  0  0  0  0  0  0  0
   -2.7566    4.2384  -10.6494 H   0  0  0  0  0  0  0  0  0  0  0  0
   -4.8404    5.1632   -9.6757 H   0  0  0  0  0  0  0  0  0  0  0  0
   -4.1713    6.8493   -9.7758 H   0  0  0  0  0  0  0  0  0  0  0  0
   -4.5314    5.9328  -11.2842 H   0  0  0  0  0  0  0  0  0  0  0  0
   -3.0929    3.4270   -8.2961 H   0  0  0  0  0  0  0  0  0  0  0  0
   -1.3079   -4.4564   -1.8576 H   0  0  0  0  0  0  0  0  0  0  0  0
   -2.1383   -3.9866   -3.3849 H   0  0  0  0  0  0  0  0  0  0  0  0
   -0.2191   -6.3639   -3.1177 H   0  0  0  0  0  0  0  0  0  0  0  0
   -2.0217   -6.4396   -3.1820 H   0  0  0  0  0  0  0  0  0  0  0  0
   -1.0919   -5.8455   -4.6149 H   0  0  0  0  0  0  0  0  0  0  0  0
   -1.8996   -0.2859   -2.6539 H   0  0  0  0  0  0  0  0  0  0  0  0
   -1.5743   -1.9679   -2.4525 H   0  0  0  0  0  0  0  0  0  0  0  0
   -4.3093   -0.8719   -3.3799 H   0  0  0  0  0  0  0  0  0  0  0  0
   -3.9349   -2.5982   -3.0227 H   0  0  0  0  0  0  0  0  0  0  0  0
   -3.8810   -1.3670   -1.7066 H   0  0  0  0  0  0  0  0  0  0  0  0
  -10.7639    6.0824   -7.3632 H   0  0  0  0  0  0  0  0  0  0  0  0
   -9.1750    6.3594   -8.1991 H   0  0  0  0  0  0  0  0  0  0  0  0
  -11.0443    7.1741   -9.5981 H   0  0  0  0  0  0  0  0  0  0  0  0
  -10.0004    8.5405   -9.0577 H   0  0  0  0  0  0  0  0  0  0  0  0
  -11.6012    8.2554   -8.2542 H   0  0  0  0  0  0  0  0  0  0  0  0
   -9.9670    9.4495    3.6753 H   0  0  0  0  0  0  0  0  0  0  0  0
   -8.1833    9.3994    3.4826 H   0  0  0  0  0  0  0  0  0  0  0  0
  -10.0703    6.9604    3.6382 H   0  0  0  0  0  0  0  0  0  0  0  0
   -8.2722    6.8824    3.4571 H   0  0  0  0  0  0  0  0  0  0  0  0
   -9.0019    7.5574    4.9659 H   0  0  0  0  0  0  0  0  0  0  0  0
   -0.8284    7.4395   -0.0696 H   0  0  0  0  0  0  0  0  0  0  0  0
   -2.5024    2.3749    3.2329 H   0  0  0  0  0  0  0  0  0  0  0  0
   -2.2660    1.0450    5.3124 H   0  0  0  0  0  0  0  0  0  0  0  0
   -1.3882    0.8146    7.6036 H   0  0  0  0  0  0  0  0  0  0  0  0
    0.4196    4.6961    7.3622 H   0  0  0  0  0  0  0  0  0  0  0  0
    0.1481    6.0306    5.3489 H   0  0  0  0  0  0  0  0  0  0  0  0
  1  2  2  3
  2  3  1  0
  3  4  2  0
  3  5  1  0
  5  6  2  0
  6  7  1  0
  7  8  2  0
  8  9  1  0
  9 10  2  0
 10 11  1  0
 10 12  1  0
 12 13  2  0
 13 14  1  0
 14 15  2  0
 15 16  1  0
 16 17  2  3
 17 18  1  0
 18 19  3  0
 17 20  1  0
 20 21  3  0
  1 22  1  0
 22 23  2  0
 23 24  1  0
 24 25  2  0
 25 26  1  0
 26 27  2  0
 27 28  1  0
 28 29  1  0
 27 30  1  0
 30 31  2  0
 31 32  1  0
 32 33  1  0
 25 34  1  0
 34 35  1  0
 23 36  1  0
 36 37  2  0
 37 38  1  0
 37 39  1  0
 39 40  2  0
 40 41  1  0
 41 42  2  0
 42 43  1  0
 43 44  2  0
 44 45  1  0
 45 46  1  0
 46 47  1  0
 45 48  2  0
 40 49  1  0
 49 50  1  0
 50 51  1  0
 51 52  1  0
 52 53  1  0
 53 54  1  0
 54 55  2  0
 55 56  1  0
 56 57  1  0
 54 58  1  0
 58 59  1  0
 59 60  1  0
 60 61  1  0
 61 62  1  0
 62 63  1  0
 63 64  2  0
 64 65  1  0
 65 66  2  0
 66 67  1  0
 67 68  1  0
 68 69  1  0
 67 70  2  0
 62 71  2  0
 71 72  1  0
 72 73  1  0
 73 74  1  0
 74 75  1  0
 75 76  1  0
 76 77  1  0
 77 78  1  0
 78 79  1  0
 79 80  1  0
 80 81  1  0
 78 82  1  0
 82 83  1  0
 75 84  1  0
 84 85  1  0
 71 86  1  0
 86 87  1  0
 87 88  2  0
 88 89  1  0
 89 90  1  0
 90 91  2  0
 91 92  1  0
 92 93  2  0
 93 94  1  0
 94 95  1  0
 95 96  1  0
 93 97  1  0
 97 98  2  0
 98 99  1  0
 97100  1  0
 92101  1  0
 91102  1  0
 89103  2  0
103104  1  0
104105  2  0
105106  1  0
105107  1  0
107108  1  0
107109  2  0
109110  1  0
110111  1  0
111112  1  0
109113  1  0
113114  1  0
113115  2  0
115116  1  0
103117  1  0
117118  2  0
118119  1  0
119120  2  0
120121  1  0
121122  1  0
120123  1  0
119124  1  0
124125  2  3
125126  1  0
126127  2  0
126128  1  0
128129  2  0
129130  1  0
130131  2  0
131132  1  0
132133  2  0
133134  1  0
133135  1  0
135136  2  0
136137  1  0
137138  2  0
138139  1  0
139140  2  3
140141  1  0
141142  3  0
140143  1  0
143144  3  0
 16  2  1  0
 38 22  1  0
 81 39  1  0
121 86  2  0
139125  1  0
 15  5  1  0
 31 24  1  0
 48 41  1  0
 80 49  2  0
118 87  1  0
138128  1  0
 13  7  1  0
 79 51  2  0
 98 90  1  0
115104  1  0
136130  1  0
 77 52  2  0
 57 53  2  0
 76 58  2  0
 74 59  2  0
 73 61  2  0
 70 63  1  0
  1145  1  0
  6146  1  0
  8147  1  0
  9148  1  0
 12149  1  0
 14150  1  0
 26151  1  0
 28152  1  0
 28153  1  0
 29154  1  0
 29155  1  0
 29156  1  0
 30157  1  0
 32158  1  0
 32159  1  0
 33160  1  0
 33161  1  0
 33162  1  0
 34163  1  0
 34164  1  0
 35165  1  0
 35166  1  0
 35167  1  0
 36168  1  0
 42169  1  0
 43170  1  0
 44171  1  0
 46172  1  0
 46173  1  0
 47174  1  0
 47175  1  0
 47176  1  0
 48177  1  0
 64178  1  0
 65179  1  0
 66180  1  0
 68181  1  0
 68182  1  0
 69183  1  0
 69184  1  0
 69185  1  0
 70186  1  0
 82187  1  0
 82188  1  0
 83189  1  0
 83190  1  0
 83191  1  0
 84192  1  0
 84193  1  0
 85194  1  0
 85195  1  0
 85196  1  0
 95197  1  0
 95198  1  0
 96199  1  0
 96200  1  0
 96201  1  0
111202  1  0
111203  1  0
112204  1  0
112205  1  0
112206  1  0
124207  1  0
129208  1  0
131209  1  0
132210  1  0
135211  1  0
137212  1  0
M  END

