
     RDKit          3D

165183  0  0  0  0  0  0  0  0999 V2000
   -6.9051   -3.4269    4.1118 C   0  0  0  0  0  0  0  0  0  0  0  0
   -7.4450   -2.2162    3.8654 C   0  0  0  0  0  0  0  0  0  0  0  0
   -8.7882   -1.9075    4.3650 C   0  0  0  0  0  0  0  0  0  0  0  0
   -9.4865   -2.6517    5.1012 O   0  0  0  0  0  0  0  0  0  0  0  0
   -9.2008   -0.6211    3.8716 C   0  0  0  0  0  0  0  0  0  0  0  0
  -10.3593    0.0790    4.2072 C   0  0  0  0  0  0  0  0  0  0  0  0
  -10.4971    1.4019    3.7643 C   0  0  0  0  0  0  0  0  0  0  0  0
  -11.6255    2.1575    4.1184 C   0  0  0  0  0  0  0  0  0  0  0  0
  -11.7276    3.4948    3.7228 C   0  0  0  0  0  0  0  0  0  0  0  0
  -10.7117    4.0860    2.9684 C   0  0  0  0  0  0  0  0  0  0  0  0
  -10.8160    5.3844    2.5957 F   0  0  0  0  0  0  0  0  0  0  0  0
   -9.5833    3.3442    2.6008 C   0  0  0  0  0  0  0  0  0  0  0  0
   -9.4613    2.0011    2.9951 C   0  0  0  0  0  0  0  0  0  0  0  0
   -8.3045    1.2611    2.6696 C   0  0  0  0  0  0  0  0  0  0  0  0
   -8.1941   -0.0793    3.0941 C   0  0  0  0  0  0  0  0  0  0  0  0
   -7.0242   -1.0216    3.0377 C   0  0  0  0  0  0  0  0  0  0  0  0
   -5.8214   -0.7363    2.4684 C   0  0  0  0  0  0  0  0  0  0  0  0
   -4.5740   -1.3241    2.8623 C   0  0  0  0  0  0  0  0  0  0  0  0
   -3.5391   -1.7689    3.1385 N   0  0  0  0  0  0  0  0  0  0  0  0
   -5.6796    0.2544    1.4355 C   0  0  0  0  0  0  0  0  0  0  0  0
   -5.5540    1.0380    0.5931 N   0  0  0  0  0  0  0  0  0  0  0  0
   -5.6923   -4.0282    3.5478 C   0  0  0  0  0  0  0  0  0  0  0  0
   -4.7840   -4.7896    4.2845 C   0  0  0  0  0  0  0  0  0  0  0  0
   -4.9068   -5.0577    5.7405 C   0  0  0  0  0  0  0  0  0  0  0  0
   -4.3851   -4.1477    6.6945 C   0  0  0  0  0  0  0  0  0  0  0  0
   -4.4459   -4.4601    8.0611 C   0  0  0  0  0  0  0  0  0  0  0  0
   -5.0580   -5.6362    8.5010 C   0  0  0  0  0  0  0  0  0  0  0  0
   -5.1560   -5.9251    9.9759 C   0  0  0  0  0  0  0  0  0  0  0  0
   -6.3622   -5.2156   10.5845 C   0  0  0  0  0  0  0  0  0  0  0  0
   -5.6262   -6.5086    7.5657 C   0  0  0  0  0  0  0  0  0  0  0  0
   -5.5594   -6.2342    6.1888 C   0  0  0  0  0  0  0  0  0  0  0  0
   -6.1738   -7.2383    5.2361 C   0  0  0  0  0  0  0  0  0  0  0  0
   -5.2118   -8.3938    4.9706 C   0  0  0  0  0  0  0  0  0  0  0  0
   -3.7426   -2.8422    6.2923 C   0  0  0  0  0  0  0  0  0  0  0  0
   -2.2683   -3.0267    5.9444 C   0  0  0  0  0  0  0  0  0  0  0  0
   -3.7739   -5.3529    3.4988 C   0  0  0  0  0  0  0  0  0  0  0  0
   -3.9248   -5.1098    2.1370 C   0  0  0  0  0  0  0  0  0  0  0  0
   -5.3065   -4.1711    1.9110 S   0  0  0  0  0  0  0  0  0  0  0  0
   -2.8914   -5.3529    1.1184 C   0  0  0  0  0  0  0  0  0  0  0  0
   -2.0196   -6.4693    1.0460 C   0  0  0  0  0  0  0  0  0  0  0  0
   -2.1974   -7.7867    1.7538 C   0  0  0  0  0  0  0  0  0  0  0  0
   -2.6891   -8.8581    0.7833 C   0  0  0  0  0  0  0  0  0  0  0  0
   -0.9413   -6.2027    0.1985 C   0  0  0  0  0  0  0  0  0  0  0  0
    0.6054   -6.9252    0.0688 S   0  0  0  0  0  0  0  0  0  0  0  0
    1.1907   -5.5780   -0.7789 C   0  0  0  0  0  0  0  0  0  0  0  0
    2.4051   -4.9911   -1.0110 C   0  0  0  0  0  0  0  0  0  0  0  0
    3.7149   -5.4792   -0.9420 C   0  0  0  0  0  0  0  0  0  0  0  0
    4.7947   -4.5721   -1.1734 C   0  0  0  0  0  0  0  0  0  0  0  0
    6.0496   -5.0763   -1.0878 N   0  0  0  0  0  0  0  0  0  0  0  0
    5.6892   -6.6590   -0.7419 S   0  0  0  0  0  0  0  0  0  0  0  0
    4.0370   -6.7692   -0.6791 N   0  0  0  0  0  0  0  0  0  0  0  0
    4.5013   -3.2194   -1.3876 C   0  0  0  0  0  0  0  0  0  0  0  0
    5.3014   -2.1163   -1.3713 C   0  0  0  0  0  0  0  0  0  0  0  0
    6.9377   -1.7169   -1.1717 S   0  0  0  0  0  0  0  0  0  0  0  0
    6.5598   -0.0543   -1.0358 C   0  0  0  0  0  0  0  0  0  0  0  0
    7.3115    1.1295   -0.9808 C   0  0  0  0  0  0  0  0  0  0  0  0
    8.7034    1.2021   -0.8468 O   0  0  0  0  0  0  0  0  0  0  0  0
    9.4791    0.3152   -0.0421 C   0  0  0  0  0  0  0  0  0  0  0  0
    9.0996    0.4577    1.4303 C   0  0  0  0  0  0  0  0  0  0  0  0
    6.4820    2.2664   -1.0893 C   0  0  0  0  0  0  0  0  0  0  0  0
    4.8475    1.7737   -1.1884 S   0  0  0  0  0  0  0  0  0  0  0  0
    5.2049    0.1407   -1.1127 C   0  0  0  0  0  0  0  0  0  0  0  0
    4.4938   -1.0348   -1.2957 C   0  0  0  0  0  0  0  0  0  0  0  0
    3.1775   -1.3508   -1.2141 N   0  0  0  0  0  0  0  0  0  0  0  0
    3.1868   -2.7205   -1.3658 C   0  0  0  0  0  0  0  0  0  0  0  0
    2.1192   -3.6447   -1.2752 C   0  0  0  0  0  0  0  0  0  0  0  0
    0.7705   -3.4240   -1.3058 N   0  0  0  0  0  0  0  0  0  0  0  0
    0.2498   -4.6154   -0.9407 C   0  0  0  0  0  0  0  0  0  0  0  0
   -0.9671   -4.9630   -0.3894 C   0  0  0  0  0  0  0  0  0  0  0  0
   -2.2917   -4.0916    0.1369 S   0  0  0  0  0  0  0  0  0  0  0  0
    0.0553   -2.4186   -2.1038 C   0  0  0  0  0  0  0  0  0  0  0  0
   -0.7109   -3.0604   -3.2645 C   0  0  0  0  0  0  0  0  0  0  0  0
    2.2266   -0.5522   -0.4170 C   0  0  0  0  0  0  0  0  0  0  0  0
    2.1651   -1.0611    1.0242 C   0  0  0  0  0  0  0  0  0  0  0  0
    6.9006    3.6755   -1.2290 C   0  0  0  0  0  0  0  0  0  0  0  0
    5.8696    4.8850   -1.8647 S   0  0  0  0  0  0  0  0  0  0  0  0
    7.0497    6.0617   -1.8312 C   0  0  0  0  0  0  0  0  0  0  0  0
    7.3404    7.1597   -2.5831 C   0  0  0  0  0  0  0  0  0  0  0  0
    8.6958    7.2792   -2.5912 C   0  0  0  0  0  0  0  0  0  0  0  0
    9.2910    6.3030   -1.8497 N   0  0  0  0  0  0  0  0  0  0  0  0
   10.7115    5.9392   -1.8165 C   0  0  0  0  0  0  0  0  0  0  0  0
   11.2301    5.9441   -0.3828 C   0  0  0  0  0  0  0  0  0  0  0  0
    8.2415    5.5476   -1.4256 C   0  0  0  0  0  0  0  0  0  0  0  0
    8.2008    4.1971   -1.0719 C   0  0  0  0  0  0  0  0  0  0  0  0
    9.1970    8.0691   -3.6306 C   0  0  0  0  0  0  0  0  0  0  0  0
    8.1520    8.5116   -4.4615 C   0  0  0  0  0  0  0  0  0  0  0  0
    6.6458    7.9127   -3.9042 S   0  0  0  0  0  0  0  0  0  0  0  0
    8.3368    9.3373   -5.6691 C   0  0  0  0  0  0  0  0  0  0  0  0
    7.6216    9.1848   -6.8016 C   0  0  0  0  0  0  0  0  0  0  0  0
    7.3668   10.2817   -7.7350 C   0  0  0  0  0  0  0  0  0  0  0  0
    7.9827   11.3824   -7.7780 O   0  0  0  0  0  0  0  0  0  0  0  0
    6.1946    9.9379   -8.5225 C   0  0  0  0  0  0  0  0  0  0  0  0
    5.4943   10.7345   -9.4307 C   0  0  0  0  0  0  0  0  0  0  0  0
    4.2984   10.2332   -9.9809 C   0  0  0  0  0  0  0  0  0  0  0  0
    3.5572   10.9984  -10.8938 C   0  0  0  0  0  0  0  0  0  0  0  0
    2.3480   10.5181  -11.3963 C   0  0  0  0  0  0  0  0  0  0  0  0
    1.8646    9.2693  -10.9981 C   0  0  0  0  0  0  0  0  0  0  0  0
    0.6840    8.8192  -11.4808 F   0  0  0  0  0  0  0  0  0  0  0  0
    2.5966    8.4862  -10.0972 C   0  0  0  0  0  0  0  0  0  0  0  0
    3.8141    8.9563   -9.5826 C   0  0  0  0  0  0  0  0  0  0  0  0
    4.5439    8.1791   -8.6588 C   0  0  0  0  0  0  0  0  0  0  0  0
    5.7582    8.6721   -8.1632 C   0  0  0  0  0  0  0  0  0  0  0  0
    6.7109    8.0702   -7.1965 C   0  0  0  0  0  0  0  0  0  0  0  0
    6.9824    6.7477   -7.0853 C   0  0  0  0  0  0  0  0  0  0  0  0
    6.1669    5.7395   -7.7145 C   0  0  0  0  0  0  0  0  0  0  0  0
    5.5208    4.9273   -8.2238 N   0  0  0  0  0  0  0  0  0  0  0  0
    8.2089    6.2704   -6.5035 C   0  0  0  0  0  0  0  0  0  0  0  0
    9.2061    5.8864   -6.0552 N   0  0  0  0  0  0  0  0  0  0  0  0
   -7.4213   -4.0691    4.8187 H   0  0  0  0  0  0  0  0  0  0  0  0
  -11.1243   -0.3824    4.8235 H   0  0  0  0  0  0  0  0  0  0  0  0
  -12.4194    1.7241    4.7169 H   0  0  0  0  0  0  0  0  0  0  0  0
  -12.5955    4.0773    4.0145 H   0  0  0  0  0  0  0  0  0  0  0  0
   -8.7989    3.8233    2.0246 H   0  0  0  0  0  0  0  0  0  0  0  0
   -7.5091    1.7595    2.1510 H   0  0  0  0  0  0  0  0  0  0  0  0
   -4.0233   -3.7735    8.7863 H   0  0  0  0  0  0  0  0  0  0  0  0
   -4.2258   -5.5922   10.4939 H   0  0  0  0  0  0  0  0  0  0  0  0
   -5.2543   -7.0220   10.1496 H   0  0  0  0  0  0  0  0  0  0  0  0
   -6.2783   -4.1189   10.4415 H   0  0  0  0  0  0  0  0  0  0  0  0
   -7.2958   -5.5782   10.1079 H   0  0  0  0  0  0  0  0  0  0  0  0
   -6.4069   -5.4278   11.6731 H   0  0  0  0  0  0  0  0  0  0  0  0
   -6.1202   -7.4083    7.9121 H   0  0  0  0  0  0  0  0  0  0  0  0
   -7.1123   -7.6453    5.6793 H   0  0  0  0  0  0  0  0  0  0  0  0
   -6.4684   -6.7663    4.2729 H   0  0  0  0  0  0  0  0  0  0  0  0
   -4.9642   -8.9158    5.9193 H   0  0  0  0  0  0  0  0  0  0  0  0
   -5.6855   -9.1156    4.2721 H   0  0  0  0  0  0  0  0  0  0  0  0
   -4.2770   -8.0174    4.5157 H   0  0  0  0  0  0  0  0  0  0  0  0
   -3.8166   -2.0957    7.1144 H   0  0  0  0  0  0  0  0  0  0  0  0
   -4.2964   -2.3971    5.4427 H   0  0  0  0  0  0  0  0  0  0  0  0
   -1.6894   -3.2776    6.8583 H   0  0  0  0  0  0  0  0  0  0  0  0
   -1.8671   -2.0805    5.5237 H   0  0  0  0  0  0  0  0  0  0  0  0
   -2.1300   -3.8293    5.1933 H   0  0  0  0  0  0  0  0  0  0  0  0
   -2.9364   -5.8886    3.9213 H   0  0  0  0  0  0  0  0  0  0  0  0
   -2.9410   -7.7072    2.5669 H   0  0  0  0  0  0  0  0  0  0  0  0
   -1.2328   -8.1034    2.2057 H   0  0  0  0  0  0  0  0  0  0  0  0
   -3.6650   -8.5543    0.3450 H   0  0  0  0  0  0  0  0  0  0  0  0
   -2.8238   -9.8129    1.3302 H   0  0  0  0  0  0  0  0  0  0  0  0
   -1.9456   -9.0045   -0.0289 H   0  0  0  0  0  0  0  0  0  0  0  0
   10.5499    0.5836   -0.1635 H   0  0  0  0  0  0  0  0  0  0  0  0
    9.3588   -0.7403   -0.3672 H   0  0  0  0  0  0  0  0  0  0  0  0
    8.0443    0.1527    1.5805 H   0  0  0  0  0  0  0  0  0  0  0  0
    9.2243    1.5175    1.7500 H   0  0  0  0  0  0  0  0  0  0  0  0
    9.7522   -0.1897    2.0495 H   0  0  0  0  0  0  0  0  0  0  0  0
    0.7814   -1.7180   -2.5673 H   0  0  0  0  0  0  0  0  0  0  0  0
   -0.6568   -1.8583   -1.4613 H   0  0  0  0  0  0  0  0  0  0  0  0
   -1.0740   -2.2694   -3.9525 H   0  0  0  0  0  0  0  0  0  0  0  0
   -1.5906   -3.6196   -2.8834 H   0  0  0  0  0  0  0  0  0  0  0  0
   -0.0522   -3.7554   -3.8249 H   0  0  0  0  0  0  0  0  0  0  0  0
    2.5404    0.5117   -0.3959 H   0  0  0  0  0  0  0  0  0  0  0  0
    1.2164   -0.5357   -0.8494 H   0  0  0  0  0  0  0  0  0  0  0  0
    3.1908   -1.1687    1.4349 H   0  0  0  0  0  0  0  0  0  0  0  0
    1.6001   -0.3483    1.6575 H   0  0  0  0  0  0  0  0  0  0  0  0
    1.6539   -2.0442    1.0648 H   0  0  0  0  0  0  0  0  0  0  0  0
   10.8487    4.9328   -2.2641 H   0  0  0  0  0  0  0  0  0  0  0  0
   11.3080    6.6657   -2.4082 H   0  0  0  0  0  0  0  0  0  0  0  0
   10.6242    5.2655    0.2583 H   0  0  0  0  0  0  0  0  0  0  0  0
   11.1878    6.9716    0.0379 H   0  0  0  0  0  0  0  0  0  0  0  0
   12.2825    5.5925   -0.3668 H   0  0  0  0  0  0  0  0  0  0  0  0
    9.0733    3.6194   -0.8182 H   0  0  0  0  0  0  0  0  0  0  0  0
   10.2475    8.2209   -3.8411 H   0  0  0  0  0  0  0  0  0  0  0  0
    8.9843   10.2007   -5.5699 H   0  0  0  0  0  0  0  0  0  0  0  0
    5.8555   11.7245   -9.6803 H   0  0  0  0  0  0  0  0  0  0  0  0
    3.9103   11.9741  -11.2087 H   0  0  0  0  0  0  0  0  0  0  0  0
    1.7771   11.1192  -12.0907 H   0  0  0  0  0  0  0  0  0  0  0  0
    2.2148    7.5157   -9.8036 H   0  0  0  0  0  0  0  0  0  0  0  0
    4.1477    7.2363   -8.3130 H   0  0  0  0  0  0  0  0  0  0  0  0
  1  2  2  3
  2  3  1  0
  3  4  2  0
  3  5  1  0
  5  6  2  0
  6  7  1  0
  7  8  2  0
  8  9  1  0
  9 10  2  0
 10 11  1  0
 10 12  1  0
 12 13  2  0
 13 14  1  0
 14 15  2  0
 15 16  1  0
 16 17  2  3
 17 18  1  0
 18 19  3  0
 17 20  1  0
 20 21  3  0
  1 22  1  0
 22 23  2  0
 23 24  1  0
 24 25  2  0
 25 26  1  0
 26 27  2  0
 27 28  1  0
 28 29  1  0
 27 30  1  0
 30 31  2  0
 31 32  1  0
 32 33  1  0
 25 34  1  0
 34 35  1  0
 23 36  1  0
 36 37  2  0
 37 38  1  0
 37 39  1  0
 39 40  2  0
 40 41  1  0
 41 42  1  0
 40 43  1  0
 43 44  1  0
 44 45  1  0
 45 46  1  0
 46 47  1  0
 47 48  1  0
 48 49  2  0
 49 50  1  0
 50 51  1  0
 48 52  1  0
 52 53  1  0
 53 54  1  0
 54 55  1  0
 55 56  1  0
 56 57  1  0
 57 58  1  0
 58 59  1  0
 56 60  2  0
 60 61  1  0
 61 62  1  0
 62 63  1  0
 63 64  1  0
 64 65  1  0
 65 66  1  0
 66 67  1  0
 67 68  1  0
 68 69  1  0
 69 70  1  0
 67 71  1  0
 71 72  1  0
 64 73  1  0
 73 74  1  0
 60 75  1  0
 75 76  1  0
 76 77  1  0
 77 78  1  0
 78 79  2  0
 79 80  1  0
 80 81  1  0
 81 82  1  0
 80 83  1  0
 83 84  1  0
 79 85  1  0
 85 86  2  0
 86 87  1  0
 86 88  1  0
 88 89  2  3
 89 90  1  0
 90 91  2  0
 90 92  1  0
 92 93  2  0
 93 94  1  0
 94 95  2  0
 95 96  1  0
 96 97  2  0
 97 98  1  0
 97 99  1  0
 99100  2  0
100101  1  0
101102  2  0
102103  1  0
103104  2  3
104105  1  0
105106  3  0
104107  1  0
107108  3  0
 16  2  1  0
 38 22  1  0
 70 39  1  0
 84 75  2  0
103 89  1  0
 15  5  1  0
 31 24  1  0
 69 43  2  0
 83 77  2  0
102 92  1  0
 13  7  1  0
 68 45  2  0
 87 78  1  0
100 94  1  0
 66 46  2  0
 51 47  2  0
 65 52  2  0
 63 53  2  0
 62 55  2  0
  1109  1  0
  6110  1  0
  8111  1  0
  9112  1  0
 12113  1  0
 14114  1  0
 26115  1  0
 28116  1  0
 28117  1  0
 29118  1  0
 29119  1  0
 29120  1  0
 30121  1  0
 32122  1  0
 32123  1  0
 33124  1  0
 33125  1  0
 33126  1  0
 34127  1  0
 34128  1  0
 35129  1  0
 35130  1  0
 35131  1  0
 36132  1  0
 41133  1  0
 41134  1  0
 42135  1  0
 42136  1  0
 42137  1  0
 58138  1  0
 58139  1  0
 59140  1  0
 59141  1  0
 59142  1  0
 71143  1  0
 71144  1  0
 72145  1  0
 72146  1  0
 72147  1  0
 73148  1  0
 73149  1  0
 74150  1  0
 74151  1  0
 74152  1  0
 81153  1  0
 81154  1  0
 82155  1  0
 82156  1  0
 82157  1  0
 84158  1  0
 85159  1  0
 88160  1  0
 93161  1  0
 95162  1  0
 96163  1  0
 99164  1  0
101165  1  0
M  END

