
     RDKit          3D

249274  0  0  0  0  0  0  0  0999 V2000
    9.0984   -1.6041   -6.7335 C   0  0  0  0  0  0  0  0  0  0  0  0
    9.2562   -1.9384   -8.0240 C   0  0  0  0  0  0  0  0  0  0  0  0
    8.8236   -3.1509   -8.7186 C   0  0  0  0  0  0  0  0  0  0  0  0
    8.1099   -4.0746   -8.2420 O   0  0  0  0  0  0  0  0  0  0  0  0
    9.3633   -3.0935  -10.0702 C   0  0  0  0  0  0  0  0  0  0  0  0
    9.2093   -4.0064  -11.1188 C   0  0  0  0  0  0  0  0  0  0  0  0
    9.7987   -3.6971  -12.3620 C   0  0  0  0  0  0  0  0  0  0  0  0
    9.6317   -4.5414  -13.4743 C   0  0  0  0  0  0  0  0  0  0  0  0
   10.2089   -4.2092  -14.7038 C   0  0  0  0  0  0  0  0  0  0  0  0
   10.9578   -3.0354  -14.8375 C   0  0  0  0  0  0  0  0  0  0  0  0
   11.5431   -2.7479  -16.0254 F   0  0  0  0  0  0  0  0  0  0  0  0
   11.1569   -2.1975  -13.7382 C   0  0  0  0  0  0  0  0  0  0  0  0
   10.5854   -2.5173  -12.4972 C   0  0  0  0  0  0  0  0  0  0  0  0
   10.7333   -1.6314  -11.4190 C   0  0  0  0  0  0  0  0  0  0  0  0
   10.0991   -1.9246  -10.2102 C   0  0  0  0  0  0  0  0  0  0  0  0
   10.0330   -1.1019   -8.9831 C   0  0  0  0  0  0  0  0  0  0  0  0
    9.8575    0.2349   -9.1040 C   0  0  0  0  0  0  0  0  0  0  0  0
    8.6348    0.8558   -8.6272 C   0  0  0  0  0  0  0  0  0  0  0  0
    7.6301    1.3044   -8.2435 N   0  0  0  0  0  0  0  0  0  0  0  0
   11.0030    1.1000   -9.3029 C   0  0  0  0  0  0  0  0  0  0  0  0
   11.9073    1.8319   -9.3795 N   0  0  0  0  0  0  0  0  0  0  0  0
    8.1395   -2.1988   -5.8073 C   0  0  0  0  0  0  0  0  0  0  0  0
    8.5543   -2.8739   -4.6470 C   0  0  0  0  0  0  0  0  0  0  0  0
    9.6662   -3.7827   -4.6095 N   0  0  0  0  0  0  0  0  0  0  0  0
    9.5944   -4.9755   -5.4174 C   0  0  0  0  0  0  0  0  0  0  0  0
    8.3863   -5.7025   -5.4963 C   0  0  0  0  0  0  0  0  0  0  0  0
    8.2951   -6.8381   -6.3026 C   0  0  0  0  0  0  0  0  0  0  0  0
    9.4033   -7.2608   -7.0531 C   0  0  0  0  0  0  0  0  0  0  0  0
    9.3081   -8.4864   -7.9120 C   0  0  0  0  0  0  0  0  0  0  0  0
   10.6251   -6.5709   -6.9394 C   0  0  0  0  0  0  0  0  0  0  0  0
   10.7179   -5.4272   -6.1340 C   0  0  0  0  0  0  0  0  0  0  0  0
   10.6912   -3.6170   -3.6081 C   0  0  0  0  0  0  0  0  0  0  0  0
   11.1881   -4.7266   -2.8978 C   0  0  0  0  0  0  0  0  0  0  0  0
   12.1726   -4.5574   -1.9202 C   0  0  0  0  0  0  0  0  0  0  0  0
   12.6740   -3.2817   -1.6326 C   0  0  0  0  0  0  0  0  0  0  0  0
   13.7713   -3.1100   -0.6275 C   0  0  0  0  0  0  0  0  0  0  0  0
   12.1959   -2.1752   -2.3517 C   0  0  0  0  0  0  0  0  0  0  0  0
   11.1993   -2.3381   -3.3172 C   0  0  0  0  0  0  0  0  0  0  0  0
    7.6846   -2.6629   -3.5817 C   0  0  0  0  0  0  0  0  0  0  0  0
    7.7103   -3.0146   -1.9404 S   0  0  0  0  0  0  0  0  0  0  0  0
    6.3140   -2.1040   -1.5728 C   0  0  0  0  0  0  0  0  0  0  0  0
    5.8274   -1.5363   -2.7656 C   0  0  0  0  0  0  0  0  0  0  0  0
    4.6410   -0.7278   -2.8732 N   0  0  0  0  0  0  0  0  0  0  0  0
    3.3558   -1.3421   -2.6465 C   0  0  0  0  0  0  0  0  0  0  0  0
    2.3067   -0.6024   -2.0692 C   0  0  0  0  0  0  0  0  0  0  0  0
    1.0409   -1.1692   -1.9261 C   0  0  0  0  0  0  0  0  0  0  0  0
    0.8047   -2.4908   -2.3324 C   0  0  0  0  0  0  0  0  0  0  0  0
   -0.5773   -3.0634   -2.2417 C   0  0  0  0  0  0  0  0  0  0  0  0
    1.8517   -3.2402   -2.8909 C   0  0  0  0  0  0  0  0  0  0  0  0
    3.1180   -2.6713   -3.0404 C   0  0  0  0  0  0  0  0  0  0  0  0
    4.7159    0.6046   -3.4195 C   0  0  0  0  0  0  0  0  0  0  0  0
    3.7581    1.0475   -4.3473 C   0  0  0  0  0  0  0  0  0  0  0  0
    3.7670    2.3704   -4.7969 C   0  0  0  0  0  0  0  0  0  0  0  0
    4.7148    3.2805   -4.3048 C   0  0  0  0  0  0  0  0  0  0  0  0
    4.7057    4.7100   -4.7521 C   0  0  0  0  0  0  0  0  0  0  0  0
    5.7053    2.8296   -3.4176 C   0  0  0  0  0  0  0  0  0  0  0  0
    5.7059    1.4999   -2.9861 C   0  0  0  0  0  0  0  0  0  0  0  0
    6.6248   -1.8663   -3.8589 C   0  0  0  0  0  0  0  0  0  0  0  0
    6.7022   -1.3455   -5.4436 S   0  0  0  0  0  0  0  0  0  0  0  0
    5.9523   -1.6060   -0.2317 C   0  0  0  0  0  0  0  0  0  0  0  0
    6.4679   -0.3799    0.2693 C   0  0  0  0  0  0  0  0  0  0  0  0
    7.8621    0.0797    0.0505 C   0  0  0  0  0  0  0  0  0  0  0  0
    8.9163   -0.8335    0.2118 C   0  0  0  0  0  0  0  0  0  0  0  0
   10.2410   -0.4300    0.0394 C   0  0  0  0  0  0  0  0  0  0  0  0
   10.5330    0.8950   -0.2832 C   0  0  0  0  0  0  0  0  0  0  0  0
    9.4996    1.8240   -0.4449 C   0  0  0  0  0  0  0  0  0  0  0  0
    9.8209    3.2768   -0.7041 C   0  0  0  0  0  0  0  0  0  0  0  0
    9.8593    4.0565    0.6057 C   0  0  0  0  0  0  0  0  0  0  0  0
    8.1666    1.4180   -0.2603 C   0  0  0  0  0  0  0  0  0  0  0  0
    5.5017    0.2991    1.0338 C   0  0  0  0  0  0  0  0  0  0  0  0
    5.2859    1.9603    1.4154 S   0  0  0  0  0  0  0  0  0  0  0  0
    3.6534    1.6868    1.7920 C   0  0  0  0  0  0  0  0  0  0  0  0
    2.5012    2.3932    2.0187 C   0  0  0  0  0  0  0  0  0  0  0  0
    2.2556    3.7613    2.2278 C   0  0  0  0  0  0  0  0  0  0  0  0
    0.9168    4.1858    2.5004 C   0  0  0  0  0  0  0  0  0  0  0  0
    0.7190    5.5148    2.6973 N   0  0  0  0  0  0  0  0  0  0  0  0
    2.2810    6.0476    2.5225 S   0  0  0  0  0  0  0  0  0  0  0  0
    3.2154    4.7199    2.2091 N   0  0  0  0  0  0  0  0  0  0  0  0
   -0.0999    3.2165    2.5096 C   0  0  0  0  0  0  0  0  0  0  0  0
   -1.4526    3.3004    2.7084 C   0  0  0  0  0  0  0  0  0  0  0  0
   -2.6810    4.4447    3.0357 S   0  0  0  0  0  0  0  0  0  0  0  0
   -3.8692    3.2081    2.9646 C   0  0  0  0  0  0  0  0  0  0  0  0
   -5.2460    3.1603    3.1887 C   0  0  0  0  0  0  0  0  0  0  0  0
   -6.0945    4.3591    3.1956 C   0  0  0  0  0  0  0  0  0  0  0  0
   -5.9461    5.3453    4.1823 C   0  0  0  0  0  0  0  0  0  0  0  0
   -6.6378    6.5562    4.0649 C   0  0  0  0  0  0  0  0  0  0  0  0
   -7.4523    6.7990    2.9500 C   0  0  0  0  0  0  0  0  0  0  0  0
   -7.6020    5.8187    1.9591 C   0  0  0  0  0  0  0  0  0  0  0  0
   -8.4074    6.0986    0.7201 C   0  0  0  0  0  0  0  0  0  0  0  0
   -7.5147    6.5769   -0.4237 C   0  0  0  0  0  0  0  0  0  0  0  0
   -6.9216    4.5990    2.0890 C   0  0  0  0  0  0  0  0  0  0  0  0
   -5.7199    1.8268    3.1256 C   0  0  0  0  0  0  0  0  0  0  0  0
   -4.4446    0.7812    2.6721 S   0  0  0  0  0  0  0  0  0  0  0  0
   -3.3176    1.9998    2.6401 C   0  0  0  0  0  0  0  0  0  0  0  0
   -1.9511    2.0592    2.4965 C   0  0  0  0  0  0  0  0  0  0  0  0
   -1.0304    1.1671    2.0729 N   0  0  0  0  0  0  0  0  0  0  0  0
    0.1403    1.8669    2.1976 C   0  0  0  0  0  0  0  0  0  0  0  0
    1.4751    1.4337    2.0196 C   0  0  0  0  0  0  0  0  0  0  0  0
    1.9821    0.1679    1.8759 N   0  0  0  0  0  0  0  0  0  0  0  0
    3.3033    0.3867    1.6761 C   0  0  0  0  0  0  0  0  0  0  0  0
    4.3399   -0.4070    1.2288 C   0  0  0  0  0  0  0  0  0  0  0  0
    4.3873   -1.8535    0.3989 S   0  0  0  0  0  0  0  0  0  0  0  0
    1.4169   -1.1032    2.3624 C   0  0  0  0  0  0  0  0  0  0  0  0
    2.1744   -1.6297    3.5767 C   0  0  0  0  0  0  0  0  0  0  0  0
   -1.3296    0.1125    1.0858 C   0  0  0  0  0  0  0  0  0  0  0  0
   -1.9705    0.6915   -0.1762 C   0  0  0  0  0  0  0  0  0  0  0  0
   -6.9964    1.3047    3.6607 C   0  0  0  0  0  0  0  0  0  0  0  0
   -7.1063    0.1190    4.4174 C   0  0  0  0  0  0  0  0  0  0  0  0
   -6.0195   -0.4025    5.2143 N   0  0  0  0  0  0  0  0  0  0  0  0
   -5.1749    0.5233    5.9321 C   0  0  0  0  0  0  0  0  0  0  0  0
   -5.7153    1.6876    6.5119 C   0  0  0  0  0  0  0  0  0  0  0  0
   -4.8792    2.6765    7.0296 C   0  0  0  0  0  0  0  0  0  0  0  0
   -3.4897    2.5189    6.9804 C   0  0  0  0  0  0  0  0  0  0  0  0
   -2.5823    3.5967    7.4967 C   0  0  0  0  0  0  0  0  0  0  0  0
   -2.9453    1.3374    6.4558 C   0  0  0  0  0  0  0  0  0  0  0  0
   -3.7815    0.3410    5.9416 C   0  0  0  0  0  0  0  0  0  0  0  0
   -5.9067   -1.8061    5.4704 C   0  0  0  0  0  0  0  0  0  0  0  0
   -5.5130   -2.6778    4.4439 C   0  0  0  0  0  0  0  0  0  0  0  0
   -5.3505   -4.0403    4.7062 C   0  0  0  0  0  0  0  0  0  0  0  0
   -5.5771   -4.5471    5.9986 C   0  0  0  0  0  0  0  0  0  0  0  0
   -5.4584   -6.0130    6.2784 C   0  0  0  0  0  0  0  0  0  0  0  0
   -6.0151   -3.6759    7.0122 C   0  0  0  0  0  0  0  0  0  0  0  0
   -6.1460   -2.3080    6.7554 C   0  0  0  0  0  0  0  0  0  0  0  0
   -8.4462   -0.1790    4.6811 C   0  0  0  0  0  0  0  0  0  0  0  0
   -9.2543   -1.5020    5.3036 S   0  0  0  0  0  0  0  0  0  0  0  0
  -10.8046   -0.8357    5.0825 C   0  0  0  0  0  0  0  0  0  0  0  0
  -10.6807    0.4990    4.6220 C   0  0  0  0  0  0  0  0  0  0  0  0
  -11.7418    1.4889    4.6637 N   0  0  0  0  0  0  0  0  0  0  0  0
  -12.8816    1.3311    5.5290 C   0  0  0  0  0  0  0  0  0  0  0  0
  -12.7214    0.9589    6.8756 C   0  0  0  0  0  0  0  0  0  0  0  0
  -13.8423    0.7677    7.6907 C   0  0  0  0  0  0  0  0  0  0  0  0
  -15.1315    0.9356    7.1696 C   0  0  0  0  0  0  0  0  0  0  0  0
  -16.3275    0.6907    8.0454 C   0  0  0  0  0  0  0  0  0  0  0  0
  -15.2913    1.3473    5.8404 C   0  0  0  0  0  0  0  0  0  0  0  0
  -14.1716    1.5621    5.0308 C   0  0  0  0  0  0  0  0  0  0  0  0
  -11.4731    2.8333    4.2449 C   0  0  0  0  0  0  0  0  0  0  0  0
  -11.7186    3.2279    2.9215 C   0  0  0  0  0  0  0  0  0  0  0  0
  -11.5651    4.5681    2.5502 C   0  0  0  0  0  0  0  0  0  0  0  0
  -11.1505    5.5233    3.4934 C   0  0  0  0  0  0  0  0  0  0  0  0
  -11.1891    6.9855    3.1577 C   0  0  0  0  0  0  0  0  0  0  0  0
  -10.8409    5.1133    4.7964 C   0  0  0  0  0  0  0  0  0  0  0  0
  -11.0049    3.7767    5.1704 C   0  0  0  0  0  0  0  0  0  0  0  0
   -9.3433    0.7736    4.3016 C   0  0  0  0  0  0  0  0  0  0  0  0
   -8.5307    2.0190    3.5097 S   0  0  0  0  0  0  0  0  0  0  0  0
  -12.0251   -1.6641    5.0033 C   0  0  0  0  0  0  0  0  0  0  0  0
  -13.0883   -1.4048    4.1465 C   0  0  0  0  0  0  0  0  0  0  0  0
  -13.9827   -2.4645    4.0030 C   0  0  0  0  0  0  0  0  0  0  0  0
  -13.6131   -3.6038    4.7115 C   0  0  0  0  0  0  0  0  0  0  0  0
  -14.1640   -4.9562    4.4505 C   0  0  0  0  0  0  0  0  0  0  0  0
  -15.4843   -5.1628    4.2031 C   0  0  0  0  0  0  0  0  0  0  0  0
  -16.4959   -4.1959    4.5630 C   0  0  0  0  0  0  0  0  0  0  0  0
  -17.3082   -3.4214    4.8450 N   0  0  0  0  0  0  0  0  0  0  0  0
  -15.9363   -6.3605    3.5401 C   0  0  0  0  0  0  0  0  0  0  0  0
  -16.2741   -7.3049    2.9632 N   0  0  0  0  0  0  0  0  0  0  0  0
  -13.2107   -6.0329    4.2873 C   0  0  0  0  0  0  0  0  0  0  0  0
  -12.4520   -6.9005    4.1756 N   0  0  0  0  0  0  0  0  0  0  0  0
  -12.1634   -3.2669    5.5141 S   0  0  0  0  0  0  0  0  0  0  0  0
    9.5701   -0.6981   -6.3754 H   0  0  0  0  0  0  0  0  0  0  0  0
    8.6545   -4.9314  -10.9825 H   0  0  0  0  0  0  0  0  0  0  0  0
    9.0904   -5.4769  -13.3864 H   0  0  0  0  0  0  0  0  0  0  0  0
   10.0916   -4.8769  -15.5550 H   0  0  0  0  0  0  0  0  0  0  0  0
   11.7590   -1.3077  -13.8565 H   0  0  0  0  0  0  0  0  0  0  0  0
   11.3318   -0.7381  -11.5149 H   0  0  0  0  0  0  0  0  0  0  0  0
    7.5147   -5.3882   -4.9348 H   0  0  0  0  0  0  0  0  0  0  0  0
    7.3510   -7.3744   -6.3580 H   0  0  0  0  0  0  0  0  0  0  0  0
    9.9406   -8.3804   -8.8192 H   0  0  0  0  0  0  0  0  0  0  0  0
    8.2601   -8.6442   -8.2462 H   0  0  0  0  0  0  0  0  0  0  0  0
    9.6403   -9.3756   -7.3342 H   0  0  0  0  0  0  0  0  0  0  0  0
   11.5002   -6.9112   -7.4885 H   0  0  0  0  0  0  0  0  0  0  0  0
   11.6596   -4.8891   -6.0693 H   0  0  0  0  0  0  0  0  0  0  0  0
   10.8096   -5.7226   -3.0859 H   0  0  0  0  0  0  0  0  0  0  0  0
   12.5462   -5.4301   -1.4011 H   0  0  0  0  0  0  0  0  0  0  0  0
   13.6431   -2.1609   -0.0672 H   0  0  0  0  0  0  0  0  0  0  0  0
   13.7735   -3.9464    0.1069 H   0  0  0  0  0  0  0  0  0  0  0  0
   14.7529   -3.0955   -1.1483 H   0  0  0  0  0  0  0  0  0  0  0  0
   12.5867   -1.1892   -2.1633 H   0  0  0  0  0  0  0  0  0  0  0  0
   10.8390   -1.4716   -3.8588 H   0  0  0  0  0  0  0  0  0  0  0  0
    2.4709    0.4192   -1.7417 H   0  0  0  0  0  0  0  0  0  0  0  0
    0.2376   -0.5704   -1.5264 H   0  0  0  0  0  0  0  0  0  0  0  0
   -1.0941   -2.6933   -1.3322 H   0  0  0  0  0  0  0  0  0  0  0  0
   -1.1566   -2.7614   -3.1410 H   0  0  0  0  0  0  0  0  0  0  0  0
   -0.5410   -4.1790   -2.1923 H   0  0  0  0  0  0  0  0  0  0  0  0
    1.6819   -4.2554   -3.2321 H   0  0  0  0  0  0  0  0  0  0  0  0
    3.9068   -3.2602   -3.4879 H   0  0  0  0  0  0  0  0  0  0  0  0
    3.0033    0.3690   -4.7228 H   0  0  0  0  0  0  0  0  0  0  0  0
    3.0127    2.6888   -5.5026 H   0  0  0  0  0  0  0  0  0  0  0  0
    3.7318    4.9803   -5.2152 H   0  0  0  0  0  0  0  0  0  0  0  0
    4.8674    5.3891   -3.8866 H   0  0  0  0  0  0  0  0  0  0  0  0
    5.5181    4.8703   -5.4934 H   0  0  0  0  0  0  0  0  0  0  0  0
    6.4684    3.5075   -3.0520 H   0  0  0  0  0  0  0  0  0  0  0  0
    6.4552    1.1688   -2.2942 H   0  0  0  0  0  0  0  0  0  0  0  0
    8.7211   -1.8645    0.4962 H   0  0  0  0  0  0  0  0  0  0  0  0
   11.0456   -1.1446    0.1779 H   0  0  0  0  0  0  0  0  0  0  0  0
   11.5685    1.1991   -0.3907 H   0  0  0  0  0  0  0  0  0  0  0  0
    9.0514    3.7203   -1.3744 H   0  0  0  0  0  0  0  0  0  0  0  0
   10.8023    3.3699   -1.2150 H   0  0  0  0  0  0  0  0  0  0  0  0
   10.6661    3.6666    1.2613 H   0  0  0  0  0  0  0  0  0  0  0  0
   10.0482    5.1343    0.3968 H   0  0  0  0  0  0  0  0  0  0  0  0
    8.8830    3.9634    1.1362 H   0  0  0  0  0  0  0  0  0  0  0  0
    7.3725    2.1419   -0.3690 H   0  0  0  0  0  0  0  0  0  0  0  0
   -5.2909    5.1849    5.0309 H   0  0  0  0  0  0  0  0  0  0  0  0
   -6.5316    7.3187    4.8297 H   0  0  0  0  0  0  0  0  0  0  0  0
   -7.9588    7.7554    2.8630 H   0  0  0  0  0  0  0  0  0  0  0  0
   -8.9566    5.1834    0.4012 H   0  0  0  0  0  0  0  0  0  0  0  0
   -9.1600    6.8905    0.9215 H   0  0  0  0  0  0  0  0  0  0  0  0
   -6.9077    7.4494   -0.1033 H   0  0  0  0  0  0  0  0  0  0  0  0
   -8.1415    6.8787   -1.2861 H   0  0  0  0  0  0  0  0  0  0  0  0
   -6.8342    5.7602   -0.7500 H   0  0  0  0  0  0  0  0  0  0  0  0
   -6.9945    3.8586    1.3007 H   0  0  0  0  0  0  0  0  0  0  0  0
    0.3756   -0.9657    2.7136 H   0  0  0  0  0  0  0  0  0  0  0  0
    1.4296   -1.8594    1.5510 H   0  0  0  0  0  0  0  0  0  0  0  0
    3.2000   -1.9505    3.3023 H   0  0  0  0  0  0  0  0  0  0  0  0
    2.2303   -0.8448    4.3598 H   0  0  0  0  0  0  0  0  0  0  0  0
    1.6384   -2.5115    3.9972 H   0  0  0  0  0  0  0  0  0  0  0  0
   -0.4173   -0.4047    0.7475 H   0  0  0  0  0  0  0  0  0  0  0  0
   -2.0071   -0.6456    1.5345 H   0  0  0  0  0  0  0  0  0  0  0  0
   -1.3229    1.4795   -0.6072 H   0  0  0  0  0  0  0  0  0  0  0  0
   -2.9672    1.1280    0.0467 H   0  0  0  0  0  0  0  0  0  0  0  0
   -2.1109   -0.1082   -0.9326 H   0  0  0  0  0  0  0  0  0  0  0  0
   -6.7863    1.8478    6.5264 H   0  0  0  0  0  0  0  0  0  0  0  0
   -5.3230    3.5761    7.4420 H   0  0  0  0  0  0  0  0  0  0  0  0
   -2.0794    3.2482    8.4234 H   0  0  0  0  0  0  0  0  0  0  0  0
   -1.8147    3.8370    6.7307 H   0  0  0  0  0  0  0  0  0  0  0  0
   -3.1507    4.5253    7.7278 H   0  0  0  0  0  0  0  0  0  0  0  0
   -1.8715    1.1981    6.4200 H   0  0  0  0  0  0  0  0  0  0  0  0
   -3.3399   -0.5403    5.4859 H   0  0  0  0  0  0  0  0  0  0  0  0
   -5.3092   -2.2852    3.4545 H   0  0  0  0  0  0  0  0  0  0  0  0
   -5.0131   -4.6949    3.9099 H   0  0  0  0  0  0  0  0  0  0  0  0
   -4.8795   -6.5299    5.4831 H   0  0  0  0  0  0  0  0  0  0  0  0
   -4.9381   -6.1831    7.2463 H   0  0  0  0  0  0  0  0  0  0  0  0
   -6.4737   -6.4633    6.3282 H   0  0  0  0  0  0  0  0  0  0  0  0
   -6.2345   -4.0504    8.0020 H   0  0  0  0  0  0  0  0  0  0  0  0
   -6.4781   -1.6427    7.5453 H   0  0  0  0  0  0  0  0  0  0  0  0
  -11.7289    0.8244    7.2901 H   0  0  0  0  0  0  0  0  0  0  0  0
  -13.7043    0.4831    8.7235 H   0  0  0  0  0  0  0  0  0  0  0  0
  -16.2371   -0.2973    8.5460 H   0  0  0  0  0  0  0  0  0  0  0  0
  -16.3885    1.4819    8.8200 H   0  0  0  0  0  0  0  0  0  0  0  0
  -17.2703    0.6937    7.4580 H   0  0  0  0  0  0  0  0  0  0  0  0
  -16.2799    1.4839    5.4200 H   0  0  0  0  0  0  0  0  0  0  0  0
  -14.3111    1.8659    3.9996 H   0  0  0  0  0  0  0  0  0  0  0  0
  -12.0586    2.5022    2.1935 H   0  0  0  0  0  0  0  0  0  0  0  0
  -11.7896    4.8649    1.5322 H   0  0  0  0  0  0  0  0  0  0  0  0
  -10.4190    7.5411    3.7310 H   0  0  0  0  0  0  0  0  0  0  0  0
  -11.0138    7.1426    2.0805 H   0  0  0  0  0  0  0  0  0  0  0  0
  -12.1938    7.3789    3.4100 H   0  0  0  0  0  0  0  0  0  0  0  0
  -10.5022    5.8296    5.5338 H   0  0  0  0  0  0  0  0  0  0  0  0
  -10.7887    3.4762    6.1870 H   0  0  0  0  0  0  0  0  0  0  0  0
  -13.1773   -0.5115    3.5382 H   0  0  0  0  0  0  0  0  0  0  0  0
  -14.8142   -2.4317    3.3033 H   0  0  0  0  0  0  0  0  0  0  0  0
  1  2  2  3
  2  3  1  0
  3  4  2  0
  3  5  1  0
  5  6  2  0
  6  7  1  0
  7  8  2  0
  8  9  1  0
  9 10  2  0
 10 11  1  0
 10 12  1  0
 12 13  2  0
 13 14  1  0
 14 15  2  0
 15 16  1  0
 16 17  2  3
 17 18  1  0
 18 19  3  0
 17 20  1  0
 20 21  3  0
  1 22  1  0
 22 23  2  0
 23 24  1  0
 24 25  1  0
 25 26  2  0
 26 27  1  0
 27 28  2  0
 28 29  1  0
 28 30  1  0
 30 31  2  0
 24 32  1  0
 32 33  2  0
 33 34  1  0
 34 35  2  0
 35 36  1  0
 35 37  1  0
 37 38  2  0
 23 39  1  0
 39 40  1  0
 40 41  1  0
 41 42  2  0
 42 43  1  0
 43 44  1  0
 44 45  2  0
 45 46  1  0
 46 47  2  0
 47 48  1  0
 47 49  1  0
 49 50  2  0
 43 51  1  0
 51 52  2  0
 52 53  1  0
 53 54  2  0
 54 55  1  0
 54 56  1  0
 56 57  2  0
 42 58  1  0
 58 59  1  0
 41 60  1  0
 60 61  2  0
 61 62  1  0
 62 63  2  0
 63 64  1  0
 64 65  2  0
 65 66  1  0
 66 67  1  0
 67 68  1  0
 66 69  2  0
 61 70  1  0
 70 71  1  0
 71 72  1  0
 72 73  1  0
 73 74  1  0
 74 75  1  0
 75 76  2  0
 76 77  1  0
 77 78  1  0
 75 79  1  0
 79 80  1  0
 80 81  1  0
 81 82  1  0
 82 83  1  0
 83 84  1  0
 84 85  2  0
 85 86  1  0
 86 87  2  0
 87 88  1  0
 88 89  1  0
 89 90  1  0
 88 91  2  0
 83 92  2  0
 92 93  1  0
 93 94  1  0
 94 95  1  0
 95 96  1  0
 96 97  1  0
 97 98  1  0
 98 99  1  0
 99100  1  0
100101  1  0
101102  1  0
 99103  1  0
103104  1  0
 96105  1  0
105106  1  0
 92107  1  0
107108  2  0
108109  1  0
109110  1  0
110111  2  0
111112  1  0
112113  2  0
113114  1  0
113115  1  0
115116  2  0
109117  1  0
117118  2  0
118119  1  0
119120  2  0
120121  1  0
120122  1  0
122123  2  0
108124  1  0
124125  1  0
125126  1  0
126127  2  0
127128  1  0
128129  1  0
129130  2  0
130131  1  0
131132  2  0
132133  1  0
132134  1  0
134135  2  0
128136  1  0
136137  2  0
137138  1  0
138139  2  0
139140  1  0
139141  1  0
141142  2  0
127143  1  0
143144  1  0
126145  1  0
145146  2  0
146147  1  0
147148  2  0
148149  1  0
149150  2  3
150151  1  0
151152  3  0
150153  1  0
153154  3  0
149155  1  0
155156  3  0
148157  1  0
 16  2  1  0
 59 22  1  0
102 60  1  0
144107  1  0
157145  1  0
 15  5  1  0
 31 25  1  0
 38 32  1  0
 58 39  2  0
 69 62  1  0
101 70  2  0
116110  1  0
123117  1  0
143124  2  0
 13  7  1  0
 50 44  1  0
 57 51  1  0
100 72  2  0
135129  1  0
142136  1  0
 98 73  2  0
 78 74  2  0
 97 79  2  0
 95 80  2  0
 94 82  2  0
 91 84  1  0
  1158  1  0
  6159  1  0
  8160  1  0
  9161  1  0
 12162  1  0
 14163  1  0
 26164  1  0
 27165  1  0
 29166  1  0
 29167  1  0
 29168  1  0
 30169  1  0
 31170  1  0
 33171  1  0
 34172  1  0
 36173  1  0
 36174  1  0
 36175  1  0
 37176  1  0
 38177  1  0
 45178  1  0
 46179  1  0
 48180  1  0
 48181  1  0
 48182  1  0
 49183  1  0
 50184  1  0
 52185  1  0
 53186  1  0
 55187  1  0
 55188  1  0
 55189  1  0
 56190  1  0
 57191  1  0
 63192  1  0
 64193  1  0
 65194  1  0
 67195  1  0
 67196  1  0
 68197  1  0
 68198  1  0
 68199  1  0
 69200  1  0
 85201  1  0
 86202  1  0
 87203  1  0
 89204  1  0
 89205  1  0
 90206  1  0
 90207  1  0
 90208  1  0
 91209  1  0
103210  1  0
103211  1  0
104212  1  0
104213  1  0
104214  1  0
105215  1  0
105216  1  0
106217  1  0
106218  1  0
106219  1  0
111220  1  0
112221  1  0
114222  1  0
114223  1  0
114224  1  0
115225  1  0
116226  1  0
118227  1  0
119228  1  0
121229  1  0
121230  1  0
121231  1  0
122232  1  0
123233  1  0
130234  1  0
131235  1  0
133236  1  0
133237  1  0
133238  1  0
134239  1  0
135240  1  0
137241  1  0
138242  1  0
140243  1  0
140244  1  0
140245  1  0
141246  1  0
142247  1  0
146248  1  0
147249  1  0
M  END

