
     RDKit          3D

217239  0  0  0  0  0  0  0  0999 V2000
    2.7948   -8.2358    2.5398 C   0  0  0  0  0  0  0  0  0  0  0  0
    1.5422   -7.8979    3.0015 C   0  0  0  0  0  0  0  0  0  0  0  0
    0.5478   -7.1753    2.3617 C   0  0  0  0  0  0  0  0  0  0  0  0
    0.3473   -7.0827    1.0880 O   0  0  0  0  0  0  0  0  0  0  0  0
   -0.2814   -6.5021    3.3381 C   0  0  0  0  0  0  0  0  0  0  0  0
   -1.4395   -5.7859    3.1254 C   0  0  0  0  0  0  0  0  0  0  0  0
   -2.1676   -5.3336    4.1999 C   0  0  0  0  0  0  0  0  0  0  0  0
   -3.3642   -4.7002    3.9783 C   0  0  0  0  0  0  0  0  0  0  0  0
   -4.1593   -4.2908    5.0164 C   0  0  0  0  0  0  0  0  0  0  0  0
   -3.7149   -4.5425    6.3070 C   0  0  0  0  0  0  0  0  0  0  0  0
   -4.4729   -4.1615    7.3633 F   0  0  0  0  0  0  0  0  0  0  0  0
   -2.4916   -5.1942    6.5022 C   0  0  0  0  0  0  0  0  0  0  0  0
   -1.7057   -5.5984    5.4301 C   0  0  0  0  0  0  0  0  0  0  0  0
   -0.5200   -6.3294    5.6434 C   0  0  0  0  0  0  0  0  0  0  0  0
    0.2010   -6.7937    4.5737 C   0  0  0  0  0  0  0  0  0  0  0  0
    1.4403   -7.7403    4.5169 C   0  0  0  0  0  0  0  0  0  0  0  0
    1.6743   -8.5014    5.4915 C   0  0  0  0  0  0  0  0  0  0  0  0
    1.4486   -7.9041    6.8495 C   0  0  0  0  0  0  0  0  0  0  0  0
    1.2778   -7.4079    7.9955 N   0  0  0  0  0  0  0  0  0  0  0  0
    2.2929   -9.6746    5.5812 C   0  0  0  0  0  0  0  0  0  0  0  0
    2.9186  -10.8371    5.6504 N   0  0  0  0  0  0  0  0  0  0  0  0
    3.0059   -7.6471    1.1821 C   0  0  0  0  0  0  0  0  0  0  0  0
    3.2897   -6.2682    1.1305 C   0  0  0  0  0  0  0  0  0  0  0  0
    3.8112   -5.5044    2.2371 N   0  0  0  0  0  0  0  0  0  0  0  0
    3.2654   -5.0184    3.3930 C   0  0  0  0  0  0  0  0  0  0  0  0
    2.0941   -4.3519    3.5606 C   0  0  0  0  0  0  0  0  0  0  0  0
    1.6680   -3.8338    4.7912 C   0  0  0  0  0  0  0  0  0  0  0  0
    2.4744   -4.0001    5.9176 C   0  0  0  0  0  0  0  0  0  0  0  0
    2.1270   -3.4602    7.2637 C   0  0  0  0  0  0  0  0  0  0  0  0
    3.6435   -4.6703    5.7445 C   0  0  0  0  0  0  0  0  0  0  0  0
    4.0698   -5.1798    4.5591 C   0  0  0  0  0  0  0  0  0  0  0  0
    5.2393   -5.1200    2.0746 C   0  0  0  0  0  0  0  0  0  0  0  0
    6.1610   -5.9858    1.6728 C   0  0  0  0  0  0  0  0  0  0  0  0
    7.4671   -5.5819    1.4411 C   0  0  0  0  0  0  0  0  0  0  0  0
    7.7852   -4.2562    1.6441 C   0  0  0  0  0  0  0  0  0  0  0  0
    9.1859   -3.8554    1.3885 C   0  0  0  0  0  0  0  0  0  0  0  0
    6.8420   -3.3501    2.0653 C   0  0  0  0  0  0  0  0  0  0  0  0
    5.5492   -3.7682    2.2887 C   0  0  0  0  0  0  0  0  0  0  0  0
    3.3202   -5.7254   -0.1236 C   0  0  0  0  0  0  0  0  0  0  0  0
    3.4368   -4.1423   -0.7734 S   0  0  0  0  0  0  0  0  0  0  0  0
    3.2289   -4.5502   -2.5149 C   0  0  0  0  0  0  0  0  0  0  0  0
    3.1092   -5.8349   -2.4436 C   0  0  0  0  0  0  0  0  0  0  0  0
    3.1879   -6.7151   -3.6149 N   0  0  0  0  0  0  0  0  0  0  0  0
    2.3291   -7.8764   -3.7038 C   0  0  0  0  0  0  0  0  0  0  0  0
    1.0152   -7.9224   -3.4080 C   0  0  0  0  0  0  0  0  0  0  0  0
    0.2570   -9.0746   -3.4142 C   0  0  0  0  0  0  0  0  0  0  0  0
    0.9016  -10.2563   -3.7447 C   0  0  0  0  0  0  0  0  0  0  0  0
    0.1262  -11.5322   -3.7561 C   0  0  0  0  0  0  0  0  0  0  0  0
    2.2301  -10.2301   -4.0497 C   0  0  0  0  0  0  0  0  0  0  0  0
    2.9902   -9.0501   -4.0422 C   0  0  0  0  0  0  0  0  0  0  0  0
    4.1850   -6.4979   -4.5700 C   0  0  0  0  0  0  0  0  0  0  0  0
    4.0665   -6.4991   -5.9162 C   0  0  0  0  0  0  0  0  0  0  0  0
    5.1305   -6.2107   -6.7733 C   0  0  0  0  0  0  0  0  0  0  0  0
    6.3705   -5.9057   -6.2776 C   0  0  0  0  0  0  0  0  0  0  0  0
    7.4950   -5.5432   -7.1924 C   0  0  0  0  0  0  0  0  0  0  0  0
    6.5379   -5.8994   -4.9081 C   0  0  0  0  0  0  0  0  0  0  0  0
    5.4686   -6.1863   -4.0613 C   0  0  0  0  0  0  0  0  0  0  0  0
    3.1373   -6.4677   -1.1791 C   0  0  0  0  0  0  0  0  0  0  0  0
    2.8626   -8.0319   -0.4231 S   0  0  0  0  0  0  0  0  0  0  0  0
    3.0940   -3.3937   -3.4339 C   0  0  0  0  0  0  0  0  0  0  0  0
    2.4768   -3.0614   -4.5313 C   0  0  0  0  0  0  0  0  0  0  0  0
    1.6050   -4.0398   -5.3181 C   0  0  0  0  0  0  0  0  0  0  0  0
    0.2808   -3.9878   -4.5389 C   0  0  0  0  0  0  0  0  0  0  0  0
    2.4427   -1.7303   -4.8909 C   0  0  0  0  0  0  0  0  0  0  0  0
    1.6726   -0.6927   -6.0710 S   0  0  0  0  0  0  0  0  0  0  0  0
    2.1669    0.8542   -5.4313 C   0  0  0  0  0  0  0  0  0  0  0  0
    1.9289    2.2145   -5.4666 C   0  0  0  0  0  0  0  0  0  0  0  0
    1.0447    2.9724   -6.2724 C   0  0  0  0  0  0  0  0  0  0  0  0
    0.7752    4.2177   -5.8785 C   0  0  0  0  0  0  0  0  0  0  0  0
   -0.0308    4.9576   -6.6530 N   0  0  0  0  0  0  0  0  0  0  0  0
   -0.5539    4.1361   -8.0068 Se  0  0  0  0  0  2  0  0  0  0  0  0
    0.5544    2.4167   -7.3854 N   0  0  0  0  0  0  0  0  0  0  0  0
    1.3696    4.6922   -4.6960 C   0  0  0  0  0  0  0  0  0  0  0  0
    0.8667    5.7270   -3.8731 C   0  0  0  0  0  0  0  0  0  0  0  0
   -0.3883    6.8893   -3.7155 S   0  0  0  0  0  0  0  0  0  0  0  0
   -0.1862    7.2580   -2.0127 C   0  0  0  0  0  0  0  0  0  0  0  0
   -0.9680    7.8482   -0.9884 C   0  0  0  0  0  0  0  0  0  0  0  0
   -2.0382    8.8450   -1.3712 C   0  0  0  0  0  0  0  0  0  0  0  0
   -1.3251    9.9953   -2.1592 C   0  0  0  0  0  0  0  0  0  0  0  0
   -0.6486    7.5707    0.2419 C   0  0  0  0  0  0  0  0  0  0  0  0
    0.7579    6.5505    0.0647 S   0  0  0  0  0  0  0  0  0  0  0  0
    0.8046    6.5113   -1.6913 C   0  0  0  0  0  0  0  0  0  0  0  0
    1.4112    5.6782   -2.6453 C   0  0  0  0  0  0  0  0  0  0  0  0
    2.3032    4.6074   -2.6785 N   0  0  0  0  0  0  0  0  0  0  0  0
    2.2396    4.0396   -3.9027 C   0  0  0  0  0  0  0  0  0  0  0  0
    2.5524    2.6965   -4.3452 C   0  0  0  0  0  0  0  0  0  0  0  0
    3.1471    1.7115   -3.7054 N   0  0  0  0  0  0  0  0  0  0  0  0
    2.8977    0.5091   -4.3600 C   0  0  0  0  0  0  0  0  0  0  0  0
    3.0169   -0.8381   -4.1286 C   0  0  0  0  0  0  0  0  0  0  0  0
    3.6527   -1.8367   -2.8746 S   0  0  0  0  0  0  0  0  0  0  0  0
    4.2224    1.8245   -2.7346 C   0  0  0  0  0  0  0  0  0  0  0  0
    5.5472    1.2673   -3.4379 C   0  0  0  0  0  0  0  0  0  0  0  0
    3.0884    4.3296   -1.5253 C   0  0  0  0  0  0  0  0  0  0  0  0
    4.4057    5.1176   -1.6169 C   0  0  0  0  0  0  0  0  0  0  0  0
   -1.4237    7.3779    1.5670 C   0  0  0  0  0  0  0  0  0  0  0  0
   -0.6898    6.7057    2.5558 C   0  0  0  0  0  0  0  0  0  0  0  0
   -1.3231    5.7700    3.3341 C   0  0  0  0  0  0  0  0  0  0  0  0
   -2.6909    5.4755    3.1672 C   0  0  0  0  0  0  0  0  0  0  0  0
   -3.4091    6.1047    2.2771 C   0  0  0  0  0  0  0  0  0  0  0  0
   -4.7460    5.9381    2.1383 N   0  0  0  0  0  0  0  0  0  0  0  0
   -5.4719    6.7100    1.2489 C   0  0  0  0  0  0  0  0  0  0  0  0
   -6.8477    6.3393    0.9358 C   0  0  0  0  0  0  0  0  0  0  0  0
   -7.2749    6.3434   -0.4019 C   0  0  0  0  0  0  0  0  0  0  0  0
   -8.5308    5.8992   -0.7008 C   0  0  0  0  0  0  0  0  0  0  0  0
   -9.3987    5.4271    0.2790 C   0  0  0  0  0  0  0  0  0  0  0  0
   -9.0002    5.4007    1.6036 C   0  0  0  0  0  0  0  0  0  0  0  0
   -9.8779    4.8832    2.5805 O   0  0  0  0  0  0  0  0  0  0  0  0
  -11.1113    4.3796    2.0599 C   0  0  0  0  0  0  0  0  0  0  0  0
  -12.0016    3.7525    3.0690 C   0  0  0  0  0  0  0  0  0  0  0  0
   -7.7266    5.8657    1.8859 C   0  0  0  0  0  0  0  0  0  0  0  0
   -4.8340    7.6652    0.5097 C   0  0  0  0  0  0  0  0  0  0  0  0
   -3.5077    7.8011    0.6391 N   0  0  0  0  0  0  0  0  0  0  0  0
   -2.7466    7.1024    1.4472 C   0  0  0  0  0  0  0  0  0  0  0  0
   -5.5546    8.7971   -0.1343 C   0  0  0  0  0  0  0  0  0  0  0  0
   -5.7288    9.0807   -1.4277 C   0  0  0  0  0  0  0  0  0  0  0  0
   -6.3927   10.2636   -1.7781 C   0  0  0  0  0  0  0  0  0  0  0  0
   -6.8724   11.1535   -0.8202 C   0  0  0  0  0  0  0  0  0  0  0  0
   -6.6913   10.8652    0.5228 C   0  0  0  0  0  0  0  0  0  0  0  0
   -7.1493   11.7329    1.5609 O   0  0  0  0  0  0  0  0  0  0  0  0
   -6.8564   11.2860    2.8932 C   0  0  0  0  0  0  0  0  0  0  0  0
   -7.3245   12.2692    3.9547 C   0  0  0  0  0  0  0  0  0  0  0  0
   -6.0477    9.7173    0.8145 C   0  0  0  0  0  0  0  0  0  0  0  0
   -3.1412    4.2845    3.9391 C   0  0  0  0  0  0  0  0  0  0  0  0
   -3.4071    3.1506    3.3210 C   0  0  0  0  0  0  0  0  0  0  0  0
   -3.3245    2.9289    1.8491 C   0  0  0  0  0  0  0  0  0  0  0  0
   -3.1730    3.8010    0.9641 O   0  0  0  0  0  0  0  0  0  0  0  0
   -3.4604    1.4953    1.5934 C   0  0  0  0  0  0  0  0  0  0  0  0
   -3.6157    0.8399    2.7801 C   0  0  0  0  0  0  0  0  0  0  0  0
   -3.7728   -0.5334    2.7729 C   0  0  0  0  0  0  0  0  0  0  0  0
   -3.7783   -1.2552    1.5743 C   0  0  0  0  0  0  0  0  0  0  0  0
   -3.9497   -2.5787    1.5629 F   0  0  0  0  0  0  0  0  0  0  0  0
   -3.6165   -0.5827    0.4040 C   0  0  0  0  0  0  0  0  0  0  0  0
   -3.6185   -1.3096   -0.7418 F   0  0  0  0  0  0  0  0  0  0  0  0
   -3.4532    0.8059    0.4027 C   0  0  0  0  0  0  0  0  0  0  0  0
   -3.2709    1.4363   -0.7496 F   0  0  0  0  0  0  0  0  0  0  0  0
   -3.5856    1.8499    3.8674 C   0  0  0  0  0  0  0  0  0  0  0  0
   -3.8611    1.4382    5.1357 C   0  0  0  0  0  0  0  0  0  0  0  0
   -4.0549    2.5957    6.1321 C   0  0  0  0  0  0  0  0  0  0  0  0
   -4.2063    3.5218    6.9189 N   0  0  0  0  0  0  0  0  0  0  0  0
   -3.7612    0.3782    5.6203 C   0  0  0  0  0  0  0  0  0  0  0  0
   -3.6205   -0.9941    6.2616 N   0  0  0  0  0  0  0  0  0  0  0  0
    3.4191   -8.7925    3.0887 H   0  0  0  0  0  0  0  0  0  0  0  0
   -1.8056   -5.5653    2.1488 H   0  0  0  0  0  0  0  0  0  0  0  0
   -3.7595   -4.5333    2.9774 H   0  0  0  0  0  0  0  0  0  0  0  0
   -5.0924   -3.8077    4.8474 H   0  0  0  0  0  0  0  0  0  0  0  0
   -2.1961   -5.3966    7.4850 H   0  0  0  0  0  0  0  0  0  0  0  0
   -0.3014   -6.4367    6.6698 H   0  0  0  0  0  0  0  0  0  0  0  0
    1.4545   -4.2199    2.6720 H   0  0  0  0  0  0  0  0  0  0  0  0
    0.7496   -3.2996    4.9293 H   0  0  0  0  0  0  0  0  0  0  0  0
    2.5989   -2.4674    7.4242 H   0  0  0  0  0  0  0  0  0  0  0  0
    2.6370   -4.1175    8.0285 H   0  0  0  0  0  0  0  0  0  0  0  0
    1.0563   -3.4532    7.4812 H   0  0  0  0  0  0  0  0  0  0  0  0
    4.2901   -4.8142    6.6277 H   0  0  0  0  0  0  0  0  0  0  0  0
    4.9831   -5.6915    4.5111 H   0  0  0  0  0  0  0  0  0  0  0  0
    5.8938   -7.0207    1.5333 H   0  0  0  0  0  0  0  0  0  0  0  0
    8.1888   -6.2930    1.1085 H   0  0  0  0  0  0  0  0  0  0  0  0
    9.8130   -4.2697    2.2352 H   0  0  0  0  0  0  0  0  0  0  0  0
    9.5390   -4.3241    0.4626 H   0  0  0  0  0  0  0  0  0  0  0  0
    9.3384   -2.7491    1.3586 H   0  0  0  0  0  0  0  0  0  0  0  0
    7.1452   -2.3078    2.2193 H   0  0  0  0  0  0  0  0  0  0  0  0
    4.7616   -3.1167    2.6232 H   0  0  0  0  0  0  0  0  0  0  0  0
    0.4903   -6.9984   -3.1331 H   0  0  0  0  0  0  0  0  0  0  0  0
   -0.7898   -9.0999   -3.1694 H   0  0  0  0  0  0  0  0  0  0  0  0
    0.5188  -12.2498   -2.9612 H   0  0  0  0  0  0  0  0  0  0  0  0
    0.1872  -11.9729   -4.7364 H   0  0  0  0  0  0  0  0  0  0  0  0
   -0.9655  -11.3017   -3.5574 H   0  0  0  0  0  0  0  0  0  0  0  0
    2.7447  -11.1520   -4.3089 H   0  0  0  0  0  0  0  0  0  0  0  0
    4.0413   -9.0845   -4.2947 H   0  0  0  0  0  0  0  0  0  0  0  0
    3.1023   -6.7571   -6.3391 H   0  0  0  0  0  0  0  0  0  0  0  0
    4.9471   -6.2335   -7.8607 H   0  0  0  0  0  0  0  0  0  0  0  0
    7.2339   -4.7230   -7.8896 H   0  0  0  0  0  0  0  0  0  0  0  0
    8.3893   -5.2300   -6.6318 H   0  0  0  0  0  0  0  0  0  0  0  0
    7.7575   -6.4222   -7.8568 H   0  0  0  0  0  0  0  0  0  0  0  0
    7.5249   -5.6659   -4.5498 H   0  0  0  0  0  0  0  0  0  0  0  0
    5.6250   -6.1704   -2.9775 H   0  0  0  0  0  0  0  0  0  0  0  0
    1.9824   -5.0177   -5.3234 H   0  0  0  0  0  0  0  0  0  0  0  0
    1.4111   -3.6344   -6.3194 H   0  0  0  0  0  0  0  0  0  0  0  0
   -0.3487   -3.1286   -4.8712 H   0  0  0  0  0  0  0  0  0  0  0  0
    0.3891   -3.9258   -3.4746 H   0  0  0  0  0  0  0  0  0  0  0  0
   -0.3389   -4.9058   -4.8016 H   0  0  0  0  0  0  0  0  0  0  0  0
   -2.8206    8.4452   -1.9582 H   0  0  0  0  0  0  0  0  0  0  0  0
   -2.3410    9.4137   -0.4563 H   0  0  0  0  0  0  0  0  0  0  0  0
   -0.4273   10.3272   -1.6308 H   0  0  0  0  0  0  0  0  0  0  0  0
   -0.9909    9.5095   -3.1197 H   0  0  0  0  0  0  0  0  0  0  0  0
   -2.0564   10.8014   -2.3681 H   0  0  0  0  0  0  0  0  0  0  0  0
    4.0841    1.1734   -1.9070 H   0  0  0  0  0  0  0  0  0  0  0  0
    4.5579    2.8293   -2.6161 H   0  0  0  0  0  0  0  0  0  0  0  0
    6.3456    1.5657   -2.7305 H   0  0  0  0  0  0  0  0  0  0  0  0
    5.6188    1.8461   -4.3757 H   0  0  0  0  0  0  0  0  0  0  0  0
    5.3826    0.2122   -3.5065 H   0  0  0  0  0  0  0  0  0  0  0  0
    2.6528    4.8710   -0.5699 H   0  0  0  0  0  0  0  0  0  0  0  0
    3.0919    3.3594   -1.1121 H   0  0  0  0  0  0  0  0  0  0  0  0
    5.0793    4.6100   -0.9049 H   0  0  0  0  0  0  0  0  0  0  0  0
    4.7738    5.1228   -2.6380 H   0  0  0  0  0  0  0  0  0  0  0  0
    4.2790    6.1657   -1.2883 H   0  0  0  0  0  0  0  0  0  0  0  0
    0.3748    6.9660    2.6409 H   0  0  0  0  0  0  0  0  0  0  0  0
   -0.7376    5.2612    4.0776 H   0  0  0  0  0  0  0  0  0  0  0  0
   -6.5860    6.6479   -1.1790 H   0  0  0  0  0  0  0  0  0  0  0  0
   -8.8178    5.9169   -1.7736 H   0  0  0  0  0  0  0  0  0  0  0  0
  -10.3551    5.0828   -0.0038 H   0  0  0  0  0  0  0  0  0  0  0  0
  -11.6509    5.2160    1.5962 H   0  0  0  0  0  0  0  0  0  0  0  0
  -10.9093    3.6422    1.2179 H   0  0  0  0  0  0  0  0  0  0  0  0
  -12.1462    2.6496    2.7758 H   0  0  0  0  0  0  0  0  0  0  0  0
  -11.4698    3.7250    4.0576 H   0  0  0  0  0  0  0  0  0  0  0  0
  -12.9891    4.1833    3.0751 H   0  0  0  0  0  0  0  0  0  0  0  0
   -7.4405    5.8556    2.9422 H   0  0  0  0  0  0  0  0  0  0  0  0
   -5.3380    8.4184   -2.1838 H   0  0  0  0  0  0  0  0  0  0  0  0
   -6.5435   10.4993   -2.8145 H   0  0  0  0  0  0  0  0  0  0  0  0
   -7.3954   12.0530   -1.0688 H   0  0  0  0  0  0  0  0  0  0  0  0
   -7.4051   10.3464    3.0843 H   0  0  0  0  0  0  0  0  0  0  0  0
   -5.7703   11.2308    2.9685 H   0  0  0  0  0  0  0  0  0  0  0  0
   -6.6055   13.1085    4.0144 H   0  0  0  0  0  0  0  0  0  0  0  0
   -7.2789   11.7231    4.9291 H   0  0  0  0  0  0  0  0  0  0  0  0
   -8.3603   12.6027    3.8067 H   0  0  0  0  0  0  0  0  0  0  0  0
   -5.8812    9.4886    1.8790 H   0  0  0  0  0  0  0  0  0  0  0  0
   -3.1905    4.4225    4.9650 H   0  0  0  0  0  0  0  0  0  0  0  0
   -3.9211   -1.1242    3.6489 H   0  0  0  0  0  0  0  0  0  0  0  0
  1  2  2  3
  2  3  1  0
  3  4  2  0
  3  5  1  0
  5  6  2  0
  6  7  1  0
  7  8  2  0
  8  9  1  0
  9 10  2  0
 10 11  1  0
 10 12  1  0
 12 13  2  0
 13 14  1  0
 14 15  2  0
 15 16  1  0
 16 17  2  3
 17 18  1  0
 18 19  3  0
 17 20  1  0
 20 21  3  0
  1 22  1  0
 22 23  2  0
 23 24  1  0
 24 25  1  0
 25 26  2  0
 26 27  1  0
 27 28  2  0
 28 29  1  0
 28 30  1  0
 30 31  2  0
 24 32  1  0
 32 33  2  0
 33 34  1  0
 34 35  2  0
 35 36  1  0
 35 37  1  0
 37 38  2  0
 23 39  1  0
 39 40  1  0
 40 41  1  0
 41 42  2  0
 42 43  1  0
 43 44  1  0
 44 45  2  0
 45 46  1  0
 46 47  2  0
 47 48  1  0
 47 49  1  0
 49 50  2  0
 43 51  1  0
 51 52  2  0
 52 53  1  0
 53 54  2  0
 54 55  1  0
 54 56  1  0
 56 57  2  0
 42 58  1  0
 58 59  1  0
 41 60  1  0
 60 61  2  0
 61 62  1  0
 62 63  1  0
 61 64  1  0
 64 65  1  0
 65 66  1  0
 66 67  1  0
 67 68  1  0
 68 69  1  0
 69 70  2  0
 70 71  1  0
 71 72  1  0
 69 73  1  0
 73 74  1  0
 74 75  1  0
 75 76  1  0
 76 77  1  0
 77 78  1  0
 78 79  1  0
 77 80  2  0
 80 81  1  0
 81 82  1  0
 82 83  1  0
 83 84  1  0
 84 85  1  0
 85 86  1  0
 86 87  1  0
 87 88  1  0
 88 89  1  0
 89 90  1  0
 87 91  1  0
 91 92  1  0
 84 93  1  0
 93 94  1  0
 80 95  1  0
 95 96  2  0
 96 97  1  0
 97 98  2  0
 98 99  1  0
 99100  2  0
100101  1  0
101102  1  0
102103  2  0
103104  1  0
104105  2  0
105106  1  0
106107  1  0
107108  1  0
108109  1  0
106110  2  0
101111  2  0
111112  1  0
112113  2  0
111114  1  0
114115  2  0
115116  1  0
116117  2  0
117118  1  0
118119  1  0
119120  1  0
120121  1  0
118122  2  0
 98123  1  0
123124  2  3
124125  1  0
125126  2  0
125127  1  0
127128  2  0
128129  1  0
129130  2  0
130131  1  0
130132  1  0
132133  1  0
132134  2  0
134135  1  0
128136  1  0
136137  2  3
137138  1  0
138139  3  0
137140  1  0
140141  3  0
 16  2  1  0
 59 22  1  0
 90 60  1  0
113 95  1  0
122114  1  0
136124  1  0
 15  5  1  0
 31 25  1  0
 38 32  1  0
 58 39  2  0
 89 64  2  0
113 99  1  0
134127  1  0
 13  7  1  0
 50 44  1  0
 57 51  1  0
 88 66  2  0
110102  1  0
 86 67  2  0
 72 68  2  0
 85 73  2  0
 83 74  2  0
 82 76  2  0
  1142  1  0
  6143  1  0
  8144  1  0
  9145  1  0
 12146  1  0
 14147  1  0
 26148  1  0
 27149  1  0
 29150  1  0
 29151  1  0
 29152  1  0
 30153  1  0
 31154  1  0
 33155  1  0
 34156  1  0
 36157  1  0
 36158  1  0
 36159  1  0
 37160  1  0
 38161  1  0
 45162  1  0
 46163  1  0
 48164  1  0
 48165  1  0
 48166  1  0
 49167  1  0
 50168  1  0
 52169  1  0
 53170  1  0
 55171  1  0
 55172  1  0
 55173  1  0
 56174  1  0
 57175  1  0
 62176  1  0
 62177  1  0
 63178  1  0
 63179  1  0
 63180  1  0
 78181  1  0
 78182  1  0
 79183  1  0
 79184  1  0
 79185  1  0
 91186  1  0
 91187  1  0
 92188  1  0
 92189  1  0
 92190  1  0
 93191  1  0
 93192  1  0
 94193  1  0
 94194  1  0
 94195  1  0
 96196  1  0
 97197  1  0
103198  1  0
104199  1  0
105200  1  0
108201  1  0
108202  1  0
109203  1  0
109204  1  0
109205  1  0
110206  1  0
115207  1  0
116208  1  0
117209  1  0
120210  1  0
120211  1  0
121212  1  0
121213  1  0
121214  1  0
122215  1  0
123216  1  0
129217  1  0
M  END

