
     RDKit          3D

261288  0  0  0  0  0  0  0  0999 V2000
   -4.2378    6.9927   -1.7802 C   0  0  0  0  0  0  0  0  0  0  0  0
   -3.3570    7.3675   -2.7294 C   0  0  0  0  0  0  0  0  0  0  0  0
   -1.9045    7.1639   -2.6615 C   0  0  0  0  0  0  0  0  0  0  0  0
   -1.2897    6.3640   -1.9111 O   0  0  0  0  0  0  0  0  0  0  0  0
   -1.2704    8.0866   -3.5745 C   0  0  0  0  0  0  0  0  0  0  0  0
    0.0911    8.3537   -3.7065 C   0  0  0  0  0  0  0  0  0  0  0  0
    0.4963    9.3897   -4.5593 C   0  0  0  0  0  0  0  0  0  0  0  0
    1.8561    9.6966   -4.7206 C   0  0  0  0  0  0  0  0  0  0  0  0
    2.2467   10.7644   -5.5319 C   0  0  0  0  0  0  0  0  0  0  0  0
    1.2849   11.5338   -6.1932 C   0  0  0  0  0  0  0  0  0  0  0  0
    1.6714   12.5752   -6.9744 F   0  0  0  0  0  0  0  0  0  0  0  0
   -0.0744   11.2416   -6.0503 C   0  0  0  0  0  0  0  0  0  0  0  0
   -0.4821   10.1691   -5.2387 C   0  0  0  0  0  0  0  0  0  0  0  0
   -1.8544    9.8834   -5.0683 C   0  0  0  0  0  0  0  0  0  0  0  0
   -2.2371    8.8097   -4.2459 C   0  0  0  0  0  0  0  0  0  0  0  0
   -3.5931    8.3307   -3.8466 C   0  0  0  0  0  0  0  0  0  0  0  0
   -4.7624    8.5595   -4.4954 C   0  0  0  0  0  0  0  0  0  0  0  0
   -5.9770    7.8663   -4.1495 C   0  0  0  0  0  0  0  0  0  0  0  0
   -6.9551    7.3056   -3.8810 N   0  0  0  0  0  0  0  0  0  0  0  0
   -4.8381    9.3923   -5.6641 C   0  0  0  0  0  0  0  0  0  0  0  0
   -4.9100   10.0590   -6.6066 N   0  0  0  0  0  0  0  0  0  0  0  0
   -3.8093    6.2839   -0.5709 C   0  0  0  0  0  0  0  0  0  0  0  0
   -3.2971    6.9058    0.5782 C   0  0  0  0  0  0  0  0  0  0  0  0
   -3.5308    8.2769    0.9196 N   0  0  0  0  0  0  0  0  0  0  0  0
   -2.8717    9.3012    0.1552 C   0  0  0  0  0  0  0  0  0  0  0  0
   -3.6225   10.2906   -0.4996 C   0  0  0  0  0  0  0  0  0  0  0  0
   -2.9838   11.2588   -1.2794 C   0  0  0  0  0  0  0  0  0  0  0  0
   -1.5871   11.2507   -1.4205 C   0  0  0  0  0  0  0  0  0  0  0  0
   -0.9101   12.2980   -2.2482 C   0  0  0  0  0  0  0  0  0  0  0  0
   -0.8373   10.2562   -0.7662 C   0  0  0  0  0  0  0  0  0  0  0  0
   -1.4768    9.2881    0.0096 C   0  0  0  0  0  0  0  0  0  0  0  0
   -4.5110    8.5973    1.9343 C   0  0  0  0  0  0  0  0  0  0  0  0
   -5.5731    7.7147    2.2155 C   0  0  0  0  0  0  0  0  0  0  0  0
   -6.4950    8.0026    3.2245 C   0  0  0  0  0  0  0  0  0  0  0  0
   -6.3815    9.1890    3.9666 C   0  0  0  0  0  0  0  0  0  0  0  0
   -7.3869    9.5220    5.0323 C   0  0  0  0  0  0  0  0  0  0  0  0
   -5.3469   10.0856    3.6707 C   0  0  0  0  0  0  0  0  0  0  0  0
   -4.4177    9.7938    2.6681 C   0  0  0  0  0  0  0  0  0  0  0  0
   -2.7308    5.9844    1.4452 C   0  0  0  0  0  0  0  0  0  0  0  0
   -1.6987    6.1353    2.7487 S   0  0  0  0  0  0  0  0  0  0  0  0
   -1.3925    4.4635    2.8673 C   0  0  0  0  0  0  0  0  0  0  0  0
   -2.1600    3.7668    1.8923 C   0  0  0  0  0  0  0  0  0  0  0  0
   -2.3980    2.3221    1.8705 N   0  0  0  0  0  0  0  0  0  0  0  0
   -3.5421    1.7635    1.1946 C   0  0  0  0  0  0  0  0  0  0  0  0
   -3.4054    0.5814    0.4503 C   0  0  0  0  0  0  0  0  0  0  0  0
   -4.5240   -0.0324   -0.1186 C   0  0  0  0  0  0  0  0  0  0  0  0
   -5.7941    0.5406    0.0230 C   0  0  0  0  0  0  0  0  0  0  0  0
   -6.9699   -0.0801   -0.6664 C   0  0  0  0  0  0  0  0  0  0  0  0
   -5.9398    1.7154    0.7743 C   0  0  0  0  0  0  0  0  0  0  0  0
   -4.8287    2.3011    1.3876 C   0  0  0  0  0  0  0  0  0  0  0  0
   -1.7127    1.4235    2.7717 C   0  0  0  0  0  0  0  0  0  0  0  0
   -2.3958    0.8594    3.8606 C   0  0  0  0  0  0  0  0  0  0  0  0
   -1.7835   -0.1177    4.6510 C   0  0  0  0  0  0  0  0  0  0  0  0
   -0.4953   -0.5736    4.3336 C   0  0  0  0  0  0  0  0  0  0  0  0
    0.1734   -1.6259    5.1685 C   0  0  0  0  0  0  0  0  0  0  0  0
    0.1856   -0.0124    3.2467 C   0  0  0  0  0  0  0  0  0  0  0  0
   -0.4296    0.9689    2.4655 C   0  0  0  0  0  0  0  0  0  0  0  0
   -2.8261    4.6852    1.0643 C   0  0  0  0  0  0  0  0  0  0  0  0
   -3.5641    4.6008   -0.4552 S   0  0  0  0  0  0  0  0  0  0  0  0
   -0.0729    4.0064    3.3018 C   0  0  0  0  0  0  0  0  0  0  0  0
    0.2875    3.4825    4.5604 C   0  0  0  0  0  0  0  0  0  0  0  0
   -0.5120    3.5929    5.8100 C   0  0  0  0  0  0  0  0  0  0  0  0
   -1.9174    3.5316    5.8056 C   0  0  0  0  0  0  0  0  0  0  0  0
   -2.6407    3.7443    6.9839 C   0  0  0  0  0  0  0  0  0  0  0  0
   -1.9757    4.0542    8.1721 C   0  0  0  0  0  0  0  0  0  0  0  0
   -0.5755    4.1293    8.1964 C   0  0  0  0  0  0  0  0  0  0  0  0
    0.1435    4.5577    9.4511 C   0  0  0  0  0  0  0  0  0  0  0  0
    0.5464    6.0290    9.3751 C   0  0  0  0  0  0  0  0  0  0  0  0
    0.1475    3.8900    7.0173 C   0  0  0  0  0  0  0  0  0  0  0  0
    1.5968    2.9714    4.5026 C   0  0  0  0  0  0  0  0  0  0  0  0
    2.3906    1.7679    5.4211 S   0  0  0  0  0  0  0  0  0  0  0  0
    3.5945    1.6008    4.2331 C   0  0  0  0  0  0  0  0  0  0  0  0
    4.5285    0.6826    3.8449 C   0  0  0  0  0  0  0  0  0  0  0  0
    4.9959   -0.4634    4.4799 C   0  0  0  0  0  0  0  0  0  0  0  0
    5.8616   -1.3367    3.7583 C   0  0  0  0  0  0  0  0  0  0  0  0
    6.2568   -2.4664    4.3994 N   0  0  0  0  0  0  0  0  0  0  0  0
    5.4845   -2.2502    5.8509 S   0  0  0  0  0  0  0  0  0  0  0  0
    4.6543   -0.8230    5.7417 N   0  0  0  0  0  0  0  0  0  0  0  0
    6.1802   -1.0358    2.4195 C   0  0  0  0  0  0  0  0  0  0  0  0
    6.6377   -1.8876    1.4429 C   0  0  0  0  0  0  0  0  0  0  0  0
    6.5332   -3.5762    1.3698 S   0  0  0  0  0  0  0  0  0  0  0  0
    6.1628   -3.5932   -0.2832 C   0  0  0  0  0  0  0  0  0  0  0  0
    5.3926   -4.5283   -1.0023 C   0  0  0  0  0  0  0  0  0  0  0  0
    4.9369   -5.7571   -0.3283 C   0  0  0  0  0  0  0  0  0  0  0  0
    3.7281   -5.7567    0.3839 C   0  0  0  0  0  0  0  0  0  0  0  0
    3.4154   -6.8184    1.2379 C   0  0  0  0  0  0  0  0  0  0  0  0
    4.3017   -7.8910    1.3831 C   0  0  0  0  0  0  0  0  0  0  0  0
    5.5147   -7.9050    0.6723 C   0  0  0  0  0  0  0  0  0  0  0  0
    6.4805   -9.0536    0.8197 C   0  0  0  0  0  0  0  0  0  0  0  0
    6.4236   -9.9845   -0.3875 C   0  0  0  0  0  0  0  0  0  0  0  0
    5.8280   -6.8313   -0.1782 C   0  0  0  0  0  0  0  0  0  0  0  0
    4.7895   -3.9456   -2.1456 C   0  0  0  0  0  0  0  0  0  0  0  0
    5.2724   -2.3229   -2.1967 S   0  0  0  0  0  0  0  0  0  0  0  0
    6.1403   -2.3066   -0.7679 C   0  0  0  0  0  0  0  0  0  0  0  0
    6.3191   -1.3250    0.2314 C   0  0  0  0  0  0  0  0  0  0  0  0
    5.6756   -0.1239    0.3908 N   0  0  0  0  0  0  0  0  0  0  0  0
    5.6375    0.0766    1.7530 C   0  0  0  0  0  0  0  0  0  0  0  0
    4.8599    1.0046    2.5164 C   0  0  0  0  0  0  0  0  0  0  0  0
    4.1997    2.1408    2.1232 N   0  0  0  0  0  0  0  0  0  0  0  0
    3.4001    2.4214    3.1807 C   0  0  0  0  0  0  0  0  0  0  0  0
    2.2553    3.1857    3.3121 C   0  0  0  0  0  0  0  0  0  0  0  0
    1.2438    3.9340    2.2189 S   0  0  0  0  0  0  0  0  0  0  0  0
    4.7112    3.1848    1.2209 C   0  0  0  0  0  0  0  0  0  0  0  0
    5.5087    4.2324    1.9902 C   0  0  0  0  0  0  0  0  0  0  0  0
    4.7352    0.4282   -0.5998 C   0  0  0  0  0  0  0  0  0  0  0  0
    5.4743    1.0425   -1.7902 C   0  0  0  0  0  0  0  0  0  0  0  0
    3.4682   -4.3049   -2.6967 C   0  0  0  0  0  0  0  0  0  0  0  0
    2.9001   -5.5830   -2.8726 C   0  0  0  0  0  0  0  0  0  0  0  0
    3.6576   -6.7540   -3.2523 N   0  0  0  0  0  0  0  0  0  0  0  0
    3.0468   -8.0541   -3.1850 C   0  0  0  0  0  0  0  0  0  0  0  0
    2.6123   -8.6968   -4.3561 C   0  0  0  0  0  0  0  0  0  0  0  0
    2.0036   -9.9545   -4.2892 C   0  0  0  0  0  0  0  0  0  0  0  0
    1.8128  -10.5852   -3.0469 C   0  0  0  0  0  0  0  0  0  0  0  0
    1.1794  -11.9422   -2.9612 C   0  0  0  0  0  0  0  0  0  0  0  0
    2.2580   -9.9470   -1.8778 C   0  0  0  0  0  0  0  0  0  0  0  0
    2.8698   -8.6909   -1.9498 C   0  0  0  0  0  0  0  0  0  0  0  0
    4.8243   -6.6079   -4.0973 C   0  0  0  0  0  0  0  0  0  0  0  0
    5.9278   -7.4613   -3.9346 C   0  0  0  0  0  0  0  0  0  0  0  0
    7.0211   -7.3795   -4.8049 C   0  0  0  0  0  0  0  0  0  0  0  0
    7.0247   -6.4538   -5.8561 C   0  0  0  0  0  0  0  0  0  0  0  0
    8.2004   -6.3557   -6.7824 C   0  0  0  0  0  0  0  0  0  0  0  0
    5.9308   -5.5899   -6.0174 C   0  0  0  0  0  0  0  0  0  0  0  0
    4.8333   -5.6748   -5.1515 C   0  0  0  0  0  0  0  0  0  0  0  0
    1.4958   -5.4828   -2.9375 C   0  0  0  0  0  0  0  0  0  0  0  0
    0.2275   -6.5723   -2.8590 S   0  0  0  0  0  0  0  0  0  0  0  0
   -0.9928   -5.3801   -2.7660 C   0  0  0  0  0  0  0  0  0  0  0  0
   -0.4040   -4.1054   -2.8684 C   0  0  0  0  0  0  0  0  0  0  0  0
   -1.1205   -2.8401   -2.9190 N   0  0  0  0  0  0  0  0  0  0  0  0
   -0.5297   -1.6625   -2.3259 C   0  0  0  0  0  0  0  0  0  0  0  0
   -0.0203   -1.6936   -1.0141 C   0  0  0  0  0  0  0  0  0  0  0  0
    0.6238   -0.5696   -0.4808 C   0  0  0  0  0  0  0  0  0  0  0  0
    0.7288    0.6095   -1.2361 C   0  0  0  0  0  0  0  0  0  0  0  0
    1.3722    1.8417   -0.6726 C   0  0  0  0  0  0  0  0  0  0  0  0
    0.1921    0.6497   -2.5272 C   0  0  0  0  0  0  0  0  0  0  0  0
   -0.4200   -0.4750   -3.0705 C   0  0  0  0  0  0  0  0  0  0  0  0
   -2.2949   -2.6885   -3.7621 C   0  0  0  0  0  0  0  0  0  0  0  0
   -2.4329   -3.4158   -4.9552 C   0  0  0  0  0  0  0  0  0  0  0  0
   -3.5303   -3.2001   -5.7960 C   0  0  0  0  0  0  0  0  0  0  0  0
   -4.4950   -2.2310   -5.4754 C   0  0  0  0  0  0  0  0  0  0  0  0
   -5.6684   -1.9917   -6.3760 C   0  0  0  0  0  0  0  0  0  0  0  0
   -4.3635   -1.5010   -4.2877 C   0  0  0  0  0  0  0  0  0  0  0  0
   -3.2806   -1.7335   -3.4363 C   0  0  0  0  0  0  0  0  0  0  0  0
    0.9870   -4.2200   -2.9251 C   0  0  0  0  0  0  0  0  0  0  0  0
    2.2334   -3.1382   -2.7885 S   0  0  0  0  0  0  0  0  0  0  0  0
   -2.3945   -5.6505   -2.4016 C   0  0  0  0  0  0  0  0  0  0  0  0
   -2.7489   -6.1878   -1.2163 C   0  0  0  0  0  0  0  0  0  0  0  0
   -1.8349   -6.6086   -0.1460 C   0  0  0  0  0  0  0  0  0  0  0  0
   -0.6504   -6.2062    0.0024 O   0  0  0  0  0  0  0  0  0  0  0  0
   -2.5523   -7.4861    0.7706 C   0  0  0  0  0  0  0  0  0  0  0  0
   -3.8780   -7.5724    0.3404 C   0  0  0  0  0  0  0  0  0  0  0  0
   -4.7747   -8.4273    1.0047 C   0  0  0  0  0  0  0  0  0  0  0  0
   -4.3537   -9.1075    2.1521 C   0  0  0  0  0  0  0  0  0  0  0  0
   -3.0293   -8.9787    2.6176 C   0  0  0  0  0  0  0  0  0  0  0  0
   -2.6290   -9.6294    3.7949 C   0  0  0  0  0  0  0  0  0  0  0  0
   -1.3123   -9.5195    4.2462 C   0  0  0  0  0  0  0  0  0  0  0  0
   -0.3848   -8.7697    3.5269 C   0  0  0  0  0  0  0  0  0  0  0  0
   -0.7671   -8.1014    2.3664 C   0  0  0  0  0  0  0  0  0  0  0  0
   -2.0953   -8.1778    1.9066 C   0  0  0  0  0  0  0  0  0  0  0  0
   -4.0995   -6.6760   -0.8305 C   0  0  0  0  0  0  0  0  0  0  0  0
   -5.2883   -6.1882   -1.2677 C   0  0  0  0  0  0  0  0  0  0  0  0
   -6.5538   -6.6459   -0.7622 C   0  0  0  0  0  0  0  0  0  0  0  0
   -7.5815   -6.9880   -0.3589 N   0  0  0  0  0  0  0  0  0  0  0  0
   -5.3767   -5.0454   -2.1430 C   0  0  0  0  0  0  0  0  0  0  0  0
   -5.4531   -4.1178   -2.8271 N   0  0  0  0  0  0  0  0  0  0  0  0
   -5.2452    7.3563   -1.7868 H   0  0  0  0  0  0  0  0  0  0  0  0
    0.8155    7.7886   -3.1324 H   0  0  0  0  0  0  0  0  0  0  0  0
    2.6146    9.1137   -4.2144 H   0  0  0  0  0  0  0  0  0  0  0  0
    3.2965   10.9982   -5.6456 H   0  0  0  0  0  0  0  0  0  0  0  0
   -0.8055   11.8562   -6.5648 H   0  0  0  0  0  0  0  0  0  0  0  0
   -2.5836   10.5231   -5.5361 H   0  0  0  0  0  0  0  0  0  0  0  0
   -4.7050   10.3003   -0.4224 H   0  0  0  0  0  0  0  0  0  0  0  0
   -3.5792   12.0137   -1.7841 H   0  0  0  0  0  0  0  0  0  0  0  0
   -0.9878   13.2771   -1.7387 H   0  0  0  0  0  0  0  0  0  0  0  0
    0.1613   12.0562   -2.4082 H   0  0  0  0  0  0  0  0  0  0  0  0
   -1.3964   12.3631   -3.2382 H   0  0  0  0  0  0  0  0  0  0  0  0
    0.2400   10.2251   -0.8615 H   0  0  0  0  0  0  0  0  0  0  0  0
   -0.8927    8.5234    0.5033 H   0  0  0  0  0  0  0  0  0  0  0  0
   -5.6956    6.7954    1.6525 H   0  0  0  0  0  0  0  0  0  0  0  0
   -7.2952    7.3031    3.4263 H   0  0  0  0  0  0  0  0  0  0  0  0
   -6.8914   10.0321    5.8881 H   0  0  0  0  0  0  0  0  0  0  0  0
   -7.8796    8.6048    5.4157 H   0  0  0  0  0  0  0  0  0  0  0  0
   -8.1602   10.2024    4.6182 H   0  0  0  0  0  0  0  0  0  0  0  0
   -5.2533   11.0167    4.2181 H   0  0  0  0  0  0  0  0  0  0  0  0
   -3.6129   10.4900    2.4732 H   0  0  0  0  0  0  0  0  0  0  0  0
   -2.4291    0.1315    0.3298 H   0  0  0  0  0  0  0  0  0  0  0  0
   -4.4032   -0.9576   -0.6585 H   0  0  0  0  0  0  0  0  0  0  0  0
   -7.9247    0.3484   -0.3002 H   0  0  0  0  0  0  0  0  0  0  0  0
   -6.9865   -1.1771   -0.4839 H   0  0  0  0  0  0  0  0  0  0  0  0
   -6.8894    0.1026   -1.7602 H   0  0  0  0  0  0  0  0  0  0  0  0
   -6.9185    2.1743    0.8958 H   0  0  0  0  0  0  0  0  0  0  0  0
   -4.9767    3.1764    2.0150 H   0  0  0  0  0  0  0  0  0  0  0  0
   -3.4078    1.1656    4.0893 H   0  0  0  0  0  0  0  0  0  0  0  0
   -2.3270   -0.5373    5.4886 H   0  0  0  0  0  0  0  0  0  0  0  0
   -0.5788   -2.2413    5.7066 H   0  0  0  0  0  0  0  0  0  0  0  0
    0.8486   -1.1450    5.9074 H   0  0  0  0  0  0  0  0  0  0  0  0
    0.7673   -2.3049    4.5190 H   0  0  0  0  0  0  0  0  0  0  0  0
    1.1803   -0.3509    2.9904 H   0  0  0  0  0  0  0  0  0  0  0  0
    0.0849    1.3632    1.6137 H   0  0  0  0  0  0  0  0  0  0  0  0
   -2.4717    3.3219    4.9034 H   0  0  0  0  0  0  0  0  0  0  0  0
   -3.7241    3.6875    6.9705 H   0  0  0  0  0  0  0  0  0  0  0  0
   -2.5567    4.2398    9.0703 H   0  0  0  0  0  0  0  0  0  0  0  0
   -0.5062    4.4111   10.3381 H   0  0  0  0  0  0  0  0  0  0  0  0
    1.0470    3.9353    9.5983 H   0  0  0  0  0  0  0  0  0  0  0  0
    1.0186    6.3382   10.3333 H   0  0  0  0  0  0  0  0  0  0  0  0
    1.2744    6.1891    8.5469 H   0  0  0  0  0  0  0  0  0  0  0  0
   -0.3438    6.6661    9.1969 H   0  0  0  0  0  0  0  0  0  0  0  0
    1.2260    3.9838    7.0348 H   0  0  0  0  0  0  0  0  0  0  0  0
    3.0527   -4.9093    0.3221 H   0  0  0  0  0  0  0  0  0  0  0  0
    2.4868   -6.8106    1.7950 H   0  0  0  0  0  0  0  0  0  0  0  0
    4.0465   -8.7083    2.0446 H   0  0  0  0  0  0  0  0  0  0  0  0
    6.2603   -9.6372    1.7412 H   0  0  0  0  0  0  0  0  0  0  0  0
    7.5124   -8.6578    0.9221 H   0  0  0  0  0  0  0  0  0  0  0  0
    5.3995  -10.3797   -0.5442 H   0  0  0  0  0  0  0  0  0  0  0  0
    6.7531   -9.4462   -1.3001 H   0  0  0  0  0  0  0  0  0  0  0  0
    7.1142  -10.8361   -0.2248 H   0  0  0  0  0  0  0  0  0  0  0  0
    6.7818   -6.8107   -0.6948 H   0  0  0  0  0  0  0  0  0  0  0  0
    5.4089    2.7607    0.4787 H   0  0  0  0  0  0  0  0  0  0  0  0
    3.8641    3.6690    0.6941 H   0  0  0  0  0  0  0  0  0  0  0  0
    5.8759    5.0116    1.2863 H   0  0  0  0  0  0  0  0  0  0  0  0
    6.3879    3.7495    2.4683 H   0  0  0  0  0  0  0  0  0  0  0  0
    4.8939    4.7227    2.7727 H   0  0  0  0  0  0  0  0  0  0  0  0
    4.0703    1.1736   -0.1578 H   0  0  0  0  0  0  0  0  0  0  0  0
    4.0310   -0.3551   -0.9356 H   0  0  0  0  0  0  0  0  0  0  0  0
    6.0751    0.2811   -2.3267 H   0  0  0  0  0  0  0  0  0  0  0  0
    4.7325    1.4794   -2.5012 H   0  0  0  0  0  0  0  0  0  0  0  0
    6.1612    1.8485   -1.4651 H   0  0  0  0  0  0  0  0  0  0  0  0
    2.7359   -8.2086   -5.3113 H   0  0  0  0  0  0  0  0  0  0  0  0
    1.6806  -10.4335   -5.2046 H   0  0  0  0  0  0  0  0  0  0  0  0
    0.4215  -11.9621   -2.1492 H   0  0  0  0  0  0  0  0  0  0  0  0
    1.9528  -12.7092   -2.7402 H   0  0  0  0  0  0  0  0  0  0  0  0
    0.6709  -12.2162   -3.9114 H   0  0  0  0  0  0  0  0  0  0  0  0
    2.1335  -10.4267   -0.9120 H   0  0  0  0  0  0  0  0  0  0  0  0
    3.2056   -8.2182   -1.0453 H   0  0  0  0  0  0  0  0  0  0  0  0
    5.9272   -8.1949   -3.1454 H   0  0  0  0  0  0  0  0  0  0  0  0
    7.8527   -8.0539   -4.6650 H   0  0  0  0  0  0  0  0  0  0  0  0
    8.7453   -5.4070   -6.5914 H   0  0  0  0  0  0  0  0  0  0  0  0
    8.9026   -7.2033   -6.6332 H   0  0  0  0  0  0  0  0  0  0  0  0
    7.8589   -6.3697   -7.8404 H   0  0  0  0  0  0  0  0  0  0  0  0
    5.9135   -4.8728   -6.8317 H   0  0  0  0  0  0  0  0  0  0  0  0
    3.9809   -5.0317   -5.3319 H   0  0  0  0  0  0  0  0  0  0  0  0
   -0.0968   -2.5999   -0.4217 H   0  0  0  0  0  0  0  0  0  0  0  0
    1.0348   -0.6315    0.5180 H   0  0  0  0  0  0  0  0  0  0  0  0
    2.0854    2.2745   -1.4038 H   0  0  0  0  0  0  0  0  0  0  0  0
    1.9259    1.6244    0.2673 H   0  0  0  0  0  0  0  0  0  0  0  0
    0.5894    2.5975   -0.4482 H   0  0  0  0  0  0  0  0  0  0  0  0
    0.2460    1.5611   -3.1074 H   0  0  0  0  0  0  0  0  0  0  0  0
   -0.7967   -0.4224   -4.0812 H   0  0  0  0  0  0  0  0  0  0  0  0
   -1.6818   -4.1328   -5.2562 H   0  0  0  0  0  0  0  0  0  0  0  0
   -3.6203   -3.7795   -6.7095 H   0  0  0  0  0  0  0  0  0  0  0  0
   -5.9619   -0.9183   -6.3483 H   0  0  0  0  0  0  0  0  0  0  0  0
   -6.5291   -2.6037   -6.0412 H   0  0  0  0  0  0  0  0  0  0  0  0
   -5.4183   -2.2536   -7.4231 H   0  0  0  0  0  0  0  0  0  0  0  0
   -5.0891   -0.7427   -4.0288 H   0  0  0  0  0  0  0  0  0  0  0  0
   -3.1818   -1.1396   -2.5391 H   0  0  0  0  0  0  0  0  0  0  0  0
   -3.1311   -5.4660   -3.1661 H   0  0  0  0  0  0  0  0  0  0  0  0
   -5.7854   -8.5834    0.6622 H   0  0  0  0  0  0  0  0  0  0  0  0
   -5.0609   -9.7352    2.6837 H   0  0  0  0  0  0  0  0  0  0  0  0
   -3.3281  -10.2268    4.3659 H   0  0  0  0  0  0  0  0  0  0  0  0
   -1.0087  -10.0041    5.1668 H   0  0  0  0  0  0  0  0  0  0  0  0
    0.6365   -8.7037    3.8721 H   0  0  0  0  0  0  0  0  0  0  0  0
   -0.0199   -7.5199    1.8604 H   0  0  0  0  0  0  0  0  0  0  0  0
  1  2  2  3
  2  3  1  0
  3  4  2  0
  3  5  1  0
  5  6  2  0
  6  7  1  0
  7  8  2  0
  8  9  1  0
  9 10  2  0
 10 11  1  0
 10 12  1  0
 12 13  2  0
 13 14  1  0
 14 15  2  0
 15 16  1  0
 16 17  2  3
 17 18  1  0
 18 19  3  0
 17 20  1  0
 20 21  3  0
  1 22  1  0
 22 23  2  0
 23 24  1  0
 24 25  1  0
 25 26  2  0
 26 27  1  0
 27 28  2  0
 28 29  1  0
 28 30  1  0
 30 31  2  0
 24 32  1  0
 32 33  2  0
 33 34  1  0
 34 35  2  0
 35 36  1  0
 35 37  1  0
 37 38  2  0
 23 39  1  0
 39 40  1  0
 40 41  1  0
 41 42  2  0
 42 43  1  0
 43 44  1  0
 44 45  2  0
 45 46  1  0
 46 47  2  0
 47 48  1  0
 47 49  1  0
 49 50  2  0
 43 51  1  0
 51 52  2  0
 52 53  1  0
 53 54  2  0
 54 55  1  0
 54 56  1  0
 56 57  2  0
 42 58  1  0
 58 59  1  0
 41 60  1  0
 60 61  2  0
 61 62  1  0
 62 63  2  0
 63 64  1  0
 64 65  2  0
 65 66  1  0
 66 67  1  0
 67 68  1  0
 66 69  2  0
 61 70  1  0
 70 71  1  0
 71 72  1  0
 72 73  1  0
 73 74  1  0
 74 75  1  0
 75 76  2  0
 76 77  1  0
 77 78  1  0
 75 79  1  0
 79 80  1  0
 80 81  1  0
 81 82  1  0
 82 83  1  0
 83 84  1  0
 84 85  2  0
 85 86  1  0
 86 87  2  0
 87 88  1  0
 88 89  1  0
 89 90  1  0
 88 91  2  0
 83 92  2  0
 92 93  1  0
 93 94  1  0
 94 95  1  0
 95 96  1  0
 96 97  1  0
 97 98  1  0
 98 99  1  0
 99100  1  0
100101  1  0
101102  1  0
 99103  1  0
103104  1  0
 96105  1  0
105106  1  0
 92107  1  0
107108  2  0
108109  1  0
109110  1  0
110111  2  0
111112  1  0
112113  2  0
113114  1  0
113115  1  0
115116  2  0
109117  1  0
117118  2  0
118119  1  0
119120  2  0
120121  1  0
120122  1  0
122123  2  0
108124  1  0
124125  1  0
125126  1  0
126127  2  0
127128  1  0
128129  1  0
129130  2  0
130131  1  0
131132  2  0
132133  1  0
132134  1  0
134135  2  0
128136  1  0
136137  2  0
137138  1  0
138139  2  0
139140  1  0
139141  1  0
141142  2  0
127143  1  0
143144  1  0
126145  1  0
145146  2  3
146147  1  0
147148  2  0
147149  1  0
149150  2  0
150151  1  0
151152  2  0
152153  1  0
153154  2  0
154155  1  0
155156  2  0
156157  1  0
157158  2  0
150159  1  0
159160  2  3
160161  1  0
161162  3  0
160163  1  0
163164  3  0
 16  2  1  0
 59 22  1  0
102 60  1  0
144107  1  0
159146  1  0
 15  5  1  0
 31 25  1  0
 38 32  1  0
 58 39  2  0
 69 62  1  0
101 70  2  0
116110  1  0
123117  1  0
143124  2  0
158149  1  0
 13  7  1  0
 50 44  1  0
 57 51  1  0
100 72  2  0
135129  1  0
142136  1  0
158153  1  0
 98 73  2  0
 78 74  2  0
 97 79  2  0
 95 80  2  0
 94 82  2  0
 91 84  1  0
  1165  1  0
  6166  1  0
  8167  1  0
  9168  1  0
 12169  1  0
 14170  1  0
 26171  1  0
 27172  1  0
 29173  1  0
 29174  1  0
 29175  1  0
 30176  1  0
 31177  1  0
 33178  1  0
 34179  1  0
 36180  1  0
 36181  1  0
 36182  1  0
 37183  1  0
 38184  1  0
 45185  1  0
 46186  1  0
 48187  1  0
 48188  1  0
 48189  1  0
 49190  1  0
 50191  1  0
 52192  1  0
 53193  1  0
 55194  1  0
 55195  1  0
 55196  1  0
 56197  1  0
 57198  1  0
 63199  1  0
 64200  1  0
 65201  1  0
 67202  1  0
 67203  1  0
 68204  1  0
 68205  1  0
 68206  1  0
 69207  1  0
 85208  1  0
 86209  1  0
 87210  1  0
 89211  1  0
 89212  1  0
 90213  1  0
 90214  1  0
 90215  1  0
 91216  1  0
103217  1  0
103218  1  0
104219  1  0
104220  1  0
104221  1  0
105222  1  0
105223  1  0
106224  1  0
106225  1  0
106226  1  0
111227  1  0
112228  1  0
114229  1  0
114230  1  0
114231  1  0
115232  1  0
116233  1  0
118234  1  0
119235  1  0
121236  1  0
121237  1  0
121238  1  0
122239  1  0
123240  1  0
130241  1  0
131242  1  0
133243  1  0
133244  1  0
133245  1  0
134246  1  0
135247  1  0
137248  1  0
138249  1  0
140250  1  0
140251  1  0
140252  1  0
141253  1  0
142254  1  0
145255  1  0
151256  1  0
152257  1  0
154258  1  0
155259  1  0
156260  1  0
157261  1  0
M  END

