
     RDKit          3D

243268  0  0  0  0  0  0  0  0999 V2000
   -2.2095    3.3768   -4.1678 C   0  0  0  0  0  0  0  0  0  0  0  0
   -2.3510    2.2979   -4.9588 C   0  0  0  0  0  0  0  0  0  0  0  0
   -2.3792    0.9183   -4.4698 C   0  0  0  0  0  0  0  0  0  0  0  0
   -2.5740    0.5611   -3.2780 O   0  0  0  0  0  0  0  0  0  0  0  0
   -2.3273    0.0252   -5.6011 C   0  0  0  0  0  0  0  0  0  0  0  0
   -2.1982   -1.3635   -5.5830 C   0  0  0  0  0  0  0  0  0  0  0  0
   -2.0825   -2.0447   -6.8087 C   0  0  0  0  0  0  0  0  0  0  0  0
   -1.9502   -3.4423   -6.8393 C   0  0  0  0  0  0  0  0  0  0  0  0
   -1.8311   -4.1076   -8.0639 C   0  0  0  0  0  0  0  0  0  0  0  0
   -1.8352   -3.3868   -9.2615 C   0  0  0  0  0  0  0  0  0  0  0  0
   -1.7229   -4.0431  -10.4424 F   0  0  0  0  0  0  0  0  0  0  0  0
   -1.9552   -1.9944   -9.2450 C   0  0  0  0  0  0  0  0  0  0  0  0
   -2.0833   -1.3097   -8.0274 C   0  0  0  0  0  0  0  0  0  0  0  0
   -2.2020    0.0960   -8.0068 C   0  0  0  0  0  0  0  0  0  0  0  0
   -2.3537    0.7604   -6.7758 C   0  0  0  0  0  0  0  0  0  0  0  0
   -2.4374    2.2223   -6.4582 C   0  0  0  0  0  0  0  0  0  0  0  0
   -2.5335    3.2461   -7.3497 C   0  0  0  0  0  0  0  0  0  0  0  0
   -2.4769    4.6317   -6.9705 C   0  0  0  0  0  0  0  0  0  0  0  0
   -2.4314    5.7536   -6.6883 N   0  0  0  0  0  0  0  0  0  0  0  0
   -2.7372    3.0367   -8.7586 C   0  0  0  0  0  0  0  0  0  0  0  0
   -2.9067    2.8885   -9.8944 N   0  0  0  0  0  0  0  0  0  0  0  0
   -1.6347    3.2990   -2.8157 C   0  0  0  0  0  0  0  0  0  0  0  0
   -0.3147    2.9088   -2.5177 C   0  0  0  0  0  0  0  0  0  0  0  0
    0.6326    2.4240   -3.4862 N   0  0  0  0  0  0  0  0  0  0  0  0
    1.1693    1.0804   -3.3804 C   0  0  0  0  0  0  0  0  0  0  0  0
    0.4663    0.0754   -2.6892 C   0  0  0  0  0  0  0  0  0  0  0  0
    0.8885   -1.2550   -2.7424 C   0  0  0  0  0  0  0  0  0  0  0  0
    2.0723   -1.5960   -3.4076 C   0  0  0  0  0  0  0  0  0  0  0  0
    2.4964   -3.0309   -3.4946 C   0  0  0  0  0  0  0  0  0  0  0  0
    2.8199   -0.5918   -4.0382 C   0  0  0  0  0  0  0  0  0  0  0  0
    2.3773    0.7340   -4.0188 C   0  0  0  0  0  0  0  0  0  0  0  0
    0.9048    3.2532   -4.6369 C   0  0  0  0  0  0  0  0  0  0  0  0
    0.8558    2.7166   -5.9362 C   0  0  0  0  0  0  0  0  0  0  0  0
    1.0346    3.5408   -7.0498 C   0  0  0  0  0  0  0  0  0  0  0  0
    1.2788    4.9120   -6.8824 C   0  0  0  0  0  0  0  0  0  0  0  0
    1.3959    5.8061   -8.0799 C   0  0  0  0  0  0  0  0  0  0  0  0
    1.3194    5.4523   -5.5884 C   0  0  0  0  0  0  0  0  0  0  0  0
    1.1348    4.6287   -4.4745 C   0  0  0  0  0  0  0  0  0  0  0  0
    0.0254    3.2374   -1.2111 C   0  0  0  0  0  0  0  0  0  0  0  0
    1.4582    3.2500   -0.3512 S   0  0  0  0  0  0  0  0  0  0  0  0
    0.7938    4.0252    1.0201 C   0  0  0  0  0  0  0  0  0  0  0  0
   -0.5867    4.2428    0.7996 C   0  0  0  0  0  0  0  0  0  0  0  0
   -1.5206    4.7870    1.7593 N   0  0  0  0  0  0  0  0  0  0  0  0
   -1.1071    5.8554    2.6360 C   0  0  0  0  0  0  0  0  0  0  0  0
   -0.3709    6.9410    2.1344 C   0  0  0  0  0  0  0  0  0  0  0  0
    0.0761    7.9472    2.9934 C   0  0  0  0  0  0  0  0  0  0  0  0
   -0.2002    7.8809    4.3676 C   0  0  0  0  0  0  0  0  0  0  0  0
    0.2549    8.9746    5.2878 C   0  0  0  0  0  0  0  0  0  0  0  0
   -0.9649    6.8138    4.8649 C   0  0  0  0  0  0  0  0  0  0  0  0
   -1.4118    5.8065    4.0072 C   0  0  0  0  0  0  0  0  0  0  0  0
   -2.8694    4.2588    1.8337 C   0  0  0  0  0  0  0  0  0  0  0  0
   -3.9586    5.1020    2.1270 C   0  0  0  0  0  0  0  0  0  0  0  0
   -5.2602    4.5898    2.1805 C   0  0  0  0  0  0  0  0  0  0  0  0
   -5.4970    3.2304    1.9321 C   0  0  0  0  0  0  0  0  0  0  0  0
   -6.8887    2.6758    2.0071 C   0  0  0  0  0  0  0  0  0  0  0  0
   -4.4167    2.3817    1.6620 C   0  0  0  0  0  0  0  0  0  0  0  0
   -3.1211    2.8927    1.5979 C   0  0  0  0  0  0  0  0  0  0  0  0
   -0.9526    3.8333   -0.4855 C   0  0  0  0  0  0  0  0  0  0  0  0
   -2.3151    4.0524   -1.4484 S   0  0  0  0  0  0  0  0  0  0  0  0
    1.5738    4.2596    2.2557 C   0  0  0  0  0  0  0  0  0  0  0  0
    2.9448    4.5823    2.2913 C   0  0  0  0  0  0  0  0  0  0  0  0
    3.6737    5.1505    1.1381 C   0  0  0  0  0  0  0  0  0  0  0  0
    4.7806    4.4917    0.5832 C   0  0  0  0  0  0  0  0  0  0  0  0
    5.4132    5.0090   -0.5501 C   0  0  0  0  0  0  0  0  0  0  0  0
    4.9493    6.1894   -1.1354 C   0  0  0  0  0  0  0  0  0  0  0  0
    3.8533    6.8682   -0.5815 C   0  0  0  0  0  0  0  0  0  0  0  0
    3.3246    8.1203   -1.2256 C   0  0  0  0  0  0  0  0  0  0  0  0
    2.1881    7.7916   -2.1883 C   0  0  0  0  0  0  0  0  0  0  0  0
    3.2122    6.3357    0.5470 C   0  0  0  0  0  0  0  0  0  0  0  0
    3.5401    4.2011    3.5037 C   0  0  0  0  0  0  0  0  0  0  0  0
    5.1491    3.8312    3.8701 S   0  0  0  0  0  0  0  0  0  0  0  0
    4.7240    2.8975    5.2234 C   0  0  0  0  0  0  0  0  0  0  0  0
    5.2280    1.6866    5.6363 C   0  0  0  0  0  0  0  0  0  0  0  0
    6.3851    1.0525    5.1512 C   0  0  0  0  0  0  0  0  0  0  0  0
    6.4292   -0.3702    5.1213 C   0  0  0  0  0  0  0  0  0  0  0  0
    7.4885   -0.9413    4.4971 N   0  0  0  0  0  0  0  0  0  0  0  0
    8.3077    0.4168    4.0265 S   0  0  0  0  0  0  0  0  0  0  0  0
    7.4070    1.7053    4.5441 N   0  0  0  0  0  0  0  0  0  0  0  0
    5.3689   -1.0912    5.6750 C   0  0  0  0  0  0  0  0  0  0  0  0
    4.9941   -2.3961    5.4603 C   0  0  0  0  0  0  0  0  0  0  0  0
    5.1362   -3.2844    4.0224 S   0  0  0  0  0  0  0  0  0  0  0  0
    3.5351   -3.8421    4.0927 C   0  0  0  0  0  0  0  0  0  0  0  0
    2.6586   -4.2412    3.0663 C   0  0  0  0  0  0  0  0  0  0  0  0
    3.0753   -4.5842    1.6892 C   0  0  0  0  0  0  0  0  0  0  0  0
    2.5683   -5.7413    1.0783 C   0  0  0  0  0  0  0  0  0  0  0  0
    2.9684   -6.0931   -0.2108 C   0  0  0  0  0  0  0  0  0  0  0  0
    3.8828   -5.2938   -0.9027 C   0  0  0  0  0  0  0  0  0  0  0  0
    4.3795   -4.1195   -0.3183 C   0  0  0  0  0  0  0  0  0  0  0  0
    5.3791   -3.2638   -1.0510 C   0  0  0  0  0  0  0  0  0  0  0  0
    6.7624   -3.3753   -0.4171 C   0  0  0  0  0  0  0  0  0  0  0  0
    3.9578   -3.7591    0.9710 C   0  0  0  0  0  0  0  0  0  0  0  0
    1.3138   -4.0633    3.4395 C   0  0  0  0  0  0  0  0  0  0  0  0
    1.2702   -3.3665    4.9904 S   0  0  0  0  0  0  0  0  0  0  0  0
    2.9262   -3.3596    5.2248 C   0  0  0  0  0  0  0  0  0  0  0  0
    3.7297   -2.5190    5.9940 C   0  0  0  0  0  0  0  0  0  0  0  0
    3.3145   -1.3711    6.5794 N   0  0  0  0  0  0  0  0  0  0  0  0
    4.2813   -0.4622    6.2830 C   0  0  0  0  0  0  0  0  0  0  0  0
    4.1346    0.9499    6.1317 C   0  0  0  0  0  0  0  0  0  0  0  0
    2.9762    1.6721    5.9673 N   0  0  0  0  0  0  0  0  0  0  0  0
    3.3641    2.8396    5.3832 C   0  0  0  0  0  0  0  0  0  0  0  0
    2.6982    3.6149    4.4161 C   0  0  0  0  0  0  0  0  0  0  0  0
    1.1701    3.5463    3.7374 S   0  0  0  0  0  0  0  0  0  0  0  0
    1.5732    1.2373    6.0872 C   0  0  0  0  0  0  0  0  0  0  0  0
    0.8626    2.0016    7.1982 C   0  0  0  0  0  0  0  0  0  0  0  0
    2.5672   -1.3868    7.8476 C   0  0  0  0  0  0  0  0  0  0  0  0
    3.3623   -2.0752    8.9509 C   0  0  0  0  0  0  0  0  0  0  0  0
    0.2308   -3.8522    2.4665 C   0  0  0  0  0  0  0  0  0  0  0  0
   -0.0845   -2.6088    1.9049 C   0  0  0  0  0  0  0  0  0  0  0  0
    0.3897   -1.3644    2.4266 N   0  0  0  0  0  0  0  0  0  0  0  0
    1.6426   -0.8330    1.9567 C   0  0  0  0  0  0  0  0  0  0  0  0
    2.5744   -0.3033    2.8592 C   0  0  0  0  0  0  0  0  0  0  0  0
    3.7935    0.2035    2.4005 C   0  0  0  0  0  0  0  0  0  0  0  0
    4.0946    0.1956    1.0310 C   0  0  0  0  0  0  0  0  0  0  0  0
    5.4238    0.6839    0.5345 C   0  0  0  0  0  0  0  0  0  0  0  0
    3.1609   -0.3300    0.1261 C   0  0  0  0  0  0  0  0  0  0  0  0
    1.9503   -0.8504    0.5889 C   0  0  0  0  0  0  0  0  0  0  0  0
   -0.4911   -0.6043    3.2868 C   0  0  0  0  0  0  0  0  0  0  0  0
   -1.3165   -1.2551    4.2275 C   0  0  0  0  0  0  0  0  0  0  0  0
   -2.1788   -0.5247    5.0500 C   0  0  0  0  0  0  0  0  0  0  0  0
   -2.2575    0.8679    4.9245 C   0  0  0  0  0  0  0  0  0  0  0  0
   -3.1484    1.6748    5.8209 C   0  0  0  0  0  0  0  0  0  0  0  0
   -1.4706    1.5140    3.9660 C   0  0  0  0  0  0  0  0  0  0  0  0
   -0.6078    0.7831    3.1402 C   0  0  0  0  0  0  0  0  0  0  0  0
   -1.2083   -2.6830    1.0991 C   0  0  0  0  0  0  0  0  0  0  0  0
   -2.1753   -1.5070    0.4008 S   0  0  0  0  0  0  0  0  0  0  0  0
   -3.4343   -2.5904    0.0361 C   0  0  0  0  0  0  0  0  0  0  0  0
   -3.0926   -3.8785    0.4982 C   0  0  0  0  0  0  0  0  0  0  0  0
   -4.0433   -4.9288    0.7149 N   0  0  0  0  0  0  0  0  0  0  0  0
   -5.0706   -4.7398    1.7143 C   0  0  0  0  0  0  0  0  0  0  0  0
   -4.7880   -4.0441    2.9060 C   0  0  0  0  0  0  0  0  0  0  0  0
   -5.7849   -3.8335    3.8611 C   0  0  0  0  0  0  0  0  0  0  0  0
   -7.0839   -4.3166    3.6448 C   0  0  0  0  0  0  0  0  0  0  0  0
   -8.1704   -4.0652    4.6497 C   0  0  0  0  0  0  0  0  0  0  0  0
   -7.3802   -4.9823    2.4475 C   0  0  0  0  0  0  0  0  0  0  0  0
   -6.3821   -5.1973    1.4921 C   0  0  0  0  0  0  0  0  0  0  0  0
   -3.8935   -6.1735   -0.0027 C   0  0  0  0  0  0  0  0  0  0  0  0
   -3.4180   -6.1765   -1.3266 C   0  0  0  0  0  0  0  0  0  0  0  0
   -3.2653   -7.3786   -2.0240 C   0  0  0  0  0  0  0  0  0  0  0  0
   -3.5764   -8.5997   -1.4060 C   0  0  0  0  0  0  0  0  0  0  0  0
   -3.4073   -9.8836   -2.1649 C   0  0  0  0  0  0  0  0  0  0  0  0
   -4.0525   -8.6023   -0.0864 C   0  0  0  0  0  0  0  0  0  0  0  0
   -4.2017   -7.3993    0.6123 C   0  0  0  0  0  0  0  0  0  0  0  0
   -1.8167   -3.8921    1.0613 C   0  0  0  0  0  0  0  0  0  0  0  0
   -0.9624   -4.9867    2.0174 S   0  0  0  0  0  0  0  0  0  0  0  0
   -4.6948   -2.1683   -0.6047 C   0  0  0  0  0  0  0  0  0  0  0  0
   -5.6604   -2.9915   -1.1782 C   0  0  0  0  0  0  0  0  0  0  0  0
   -6.7315   -2.2841   -1.7398 C   0  0  0  0  0  0  0  0  0  0  0  0
   -6.5934   -0.9091   -1.6251 C   0  0  0  0  0  0  0  0  0  0  0  0
   -7.5218    0.0682   -2.1179 C   0  0  0  0  0  0  0  0  0  0  0  0
   -8.2710    0.8551   -2.5141 N   0  0  0  0  0  0  0  0  0  0  0  0
   -5.1580   -0.5621   -0.8304 S   0  0  0  0  0  0  0  0  0  0  0  0
   -2.3636    4.3735   -4.5330 H   0  0  0  0  0  0  0  0  0  0  0  0
   -2.1693   -1.8965   -4.6394 H   0  0  0  0  0  0  0  0  0  0  0  0
   -1.9437   -4.0177   -5.9205 H   0  0  0  0  0  0  0  0  0  0  0  0
   -1.7342   -5.1861   -8.0823 H   0  0  0  0  0  0  0  0  0  0  0  0
   -1.9544   -1.4534  -10.1840 H   0  0  0  0  0  0  0  0  0  0  0  0
   -2.1442    0.6279   -8.9400 H   0  0  0  0  0  0  0  0  0  0  0  0
   -0.4276    0.3048   -2.1298 H   0  0  0  0  0  0  0  0  0  0  0  0
    0.2939   -2.0196   -2.2529 H   0  0  0  0  0  0  0  0  0  0  0  0
    3.5887   -3.1098   -3.6672 H   0  0  0  0  0  0  0  0  0  0  0  0
    2.2523   -3.5628   -2.5515 H   0  0  0  0  0  0  0  0  0  0  0  0
    1.9646   -3.5239   -4.3342 H   0  0  0  0  0  0  0  0  0  0  0  0
    3.7364   -0.8373   -4.5601 H   0  0  0  0  0  0  0  0  0  0  0  0
    2.9671    1.4866   -4.5249 H   0  0  0  0  0  0  0  0  0  0  0  0
    0.6378    1.6673   -6.0879 H   0  0  0  0  0  0  0  0  0  0  0  0
    0.9610    3.1133   -8.0425 H   0  0  0  0  0  0  0  0  0  0  0  0
    2.0209    6.6943   -7.8469 H   0  0  0  0  0  0  0  0  0  0  0  0
    1.8684    5.2634   -8.9262 H   0  0  0  0  0  0  0  0  0  0  0  0
    0.3824    6.1430   -8.3835 H   0  0  0  0  0  0  0  0  0  0  0  0
    1.4772    6.5158   -5.4442 H   0  0  0  0  0  0  0  0  0  0  0  0
    1.1605    5.0649   -3.4832 H   0  0  0  0  0  0  0  0  0  0  0  0
   -0.1466    7.0075    1.0769 H   0  0  0  0  0  0  0  0  0  0  0  0
    0.6413    8.7781    2.5895 H   0  0  0  0  0  0  0  0  0  0  0  0
    0.4585    8.5691    6.3032 H   0  0  0  0  0  0  0  0  0  0  0  0
   -0.5389    9.7473    5.3582 H   0  0  0  0  0  0  0  0  0  0  0  0
    1.1884    9.4414    4.9105 H   0  0  0  0  0  0  0  0  0  0  0  0
   -1.2070    6.7576    5.9194 H   0  0  0  0  0  0  0  0  0  0  0  0
   -1.9781    4.9769    4.4148 H   0  0  0  0  0  0  0  0  0  0  0  0
   -3.8063    6.1590    2.3008 H   0  0  0  0  0  0  0  0  0  0  0  0
   -6.0848    5.2554    2.4124 H   0  0  0  0  0  0  0  0  0  0  0  0
   -6.9986    1.8048    1.3264 H   0  0  0  0  0  0  0  0  0  0  0  0
   -7.1044    2.3548    3.0473 H   0  0  0  0  0  0  0  0  0  0  0  0
   -7.6328    3.4430    1.7029 H   0  0  0  0  0  0  0  0  0  0  0  0
   -4.5775    1.3234    1.4984 H   0  0  0  0  0  0  0  0  0  0  0  0
   -2.3106    2.2147    1.3682 H   0  0  0  0  0  0  0  0  0  0  0  0
    5.1337    3.5606    1.0045 H   0  0  0  0  0  0  0  0  0  0  0  0
    6.2557    4.4852   -0.9846 H   0  0  0  0  0  0  0  0  0  0  0  0
    5.4410    6.5722   -2.0208 H   0  0  0  0  0  0  0  0  0  0  0  0
    2.9553    8.8214   -0.4455 H   0  0  0  0  0  0  0  0  0  0  0  0
    4.1335    8.6397   -1.7814 H   0  0  0  0  0  0  0  0  0  0  0  0
    1.3547    7.2889   -1.6517 H   0  0  0  0  0  0  0  0  0  0  0  0
    2.5549    7.1290   -3.0002 H   0  0  0  0  0  0  0  0  0  0  0  0
    1.8009    8.7297   -2.6417 H   0  0  0  0  0  0  0  0  0  0  0  0
    2.3530    6.8452    0.9653 H   0  0  0  0  0  0  0  0  0  0  0  0
    1.8748   -6.3806    1.6115 H   0  0  0  0  0  0  0  0  0  0  0  0
    2.5800   -6.9941   -0.6719 H   0  0  0  0  0  0  0  0  0  0  0  0
    4.1953   -5.5924   -1.8962 H   0  0  0  0  0  0  0  0  0  0  0  0
    5.0488   -2.2060   -1.0326 H   0  0  0  0  0  0  0  0  0  0  0  0
    5.4507   -3.5693   -2.1173 H   0  0  0  0  0  0  0  0  0  0  0  0
    7.0930   -4.4360   -0.4001 H   0  0  0  0  0  0  0  0  0  0  0  0
    6.7493   -2.9821    0.6231 H   0  0  0  0  0  0  0  0  0  0  0  0
    7.4909   -2.7852   -1.0109 H   0  0  0  0  0  0  0  0  0  0  0  0
    4.3155   -2.8370    1.4072 H   0  0  0  0  0  0  0  0  0  0  0  0
    1.0462    1.3920    5.1405 H   0  0  0  0  0  0  0  0  0  0  0  0
    1.4651    0.1597    6.2295 H   0  0  0  0  0  0  0  0  0  0  0  0
   -0.1829    1.6407    7.2851 H   0  0  0  0  0  0  0  0  0  0  0  0
    1.3774    1.8462    8.1672 H   0  0  0  0  0  0  0  0  0  0  0  0
    0.8450    3.0864    6.9638 H   0  0  0  0  0  0  0  0  0  0  0  0
    2.3577   -0.3555    8.1873 H   0  0  0  0  0  0  0  0  0  0  0  0
    1.6007   -1.9144    7.7023 H   0  0  0  0  0  0  0  0  0  0  0  0
    4.3164   -1.5332    9.1296 H   0  0  0  0  0  0  0  0  0  0  0  0
    2.7754   -2.0720    9.8937 H   0  0  0  0  0  0  0  0  0  0  0  0
    3.5867   -3.1282    8.6814 H   0  0  0  0  0  0  0  0  0  0  0  0
    2.3681   -0.3160    3.9169 H   0  0  0  0  0  0  0  0  0  0  0  0
    4.5074    0.5926    3.1106 H   0  0  0  0  0  0  0  0  0  0  0  0
    5.2797    1.3829   -0.3166 H   0  0  0  0  0  0  0  0  0  0  0  0
    5.9847    1.2134    1.3341 H   0  0  0  0  0  0  0  0  0  0  0  0
    6.0305   -0.1811    0.1962 H   0  0  0  0  0  0  0  0  0  0  0  0
    3.3764   -0.3511   -0.9361 H   0  0  0  0  0  0  0  0  0  0  0  0
    1.2451   -1.2708   -0.1088 H   0  0  0  0  0  0  0  0  0  0  0  0
   -1.3017   -2.3312    4.3271 H   0  0  0  0  0  0  0  0  0  0  0  0
   -2.7841   -1.0483    5.7796 H   0  0  0  0  0  0  0  0  0  0  0  0
   -3.7780    2.3566    5.2113 H   0  0  0  0  0  0  0  0  0  0  0  0
   -3.8174    1.0216    6.4221 H   0  0  0  0  0  0  0  0  0  0  0  0
   -2.5271    2.2814    6.5137 H   0  0  0  0  0  0  0  0  0  0  0  0
   -1.5281    2.5874    3.8599 H   0  0  0  0  0  0  0  0  0  0  0  0
   -0.0358    1.2982    2.3799 H   0  0  0  0  0  0  0  0  0  0  0  0
   -3.7921   -3.6714    3.1061 H   0  0  0  0  0  0  0  0  0  0  0  0
   -5.5445   -3.2894    4.7662 H   0  0  0  0  0  0  0  0  0  0  0  0
   -8.8582   -3.2847    4.2617 H   0  0  0  0  0  0  0  0  0  0  0  0
   -7.7503   -3.7218    5.6194 H   0  0  0  0  0  0  0  0  0  0  0  0
   -8.7422   -4.9996    4.8299 H   0  0  0  0  0  0  0  0  0  0  0  0
   -8.3854   -5.3339    2.2541 H   0  0  0  0  0  0  0  0  0  0  0  0
   -6.6342   -5.7077    0.5702 H   0  0  0  0  0  0  0  0  0  0  0  0
   -3.1778   -5.2478   -1.8273 H   0  0  0  0  0  0  0  0  0  0  0  0
   -2.9035   -7.3590   -3.0453 H   0  0  0  0  0  0  0  0  0  0  0  0
   -3.6584  -10.7643   -1.5375 H   0  0  0  0  0  0  0  0  0  0  0  0
   -2.3534   -9.9828   -2.4988 H   0  0  0  0  0  0  0  0  0  0  0  0
   -4.0737   -9.8798   -3.0525 H   0  0  0  0  0  0  0  0  0  0  0  0
   -4.2989   -9.5344    0.4077 H   0  0  0  0  0  0  0  0  0  0  0  0
   -4.5486   -7.4283    1.6366 H   0  0  0  0  0  0  0  0  0  0  0  0
   -5.5958   -4.0700   -1.2176 H   0  0  0  0  0  0  0  0  0  0  0  0
   -7.5702   -2.7660   -2.2278 H   0  0  0  0  0  0  0  0  0  0  0  0
  1  2  2  3
  2  3  1  0
  3  4  2  0
  3  5  1  0
  5  6  2  0
  6  7  1  0
  7  8  2  0
  8  9  1  0
  9 10  2  0
 10 11  1  0
 10 12  1  0
 12 13  2  0
 13 14  1  0
 14 15  2  0
 15 16  1  0
 16 17  2  3
 17 18  1  0
 18 19  3  0
 17 20  1  0
 20 21  3  0
  1 22  1  0
 22 23  2  0
 23 24  1  0
 24 25  1  0
 25 26  2  0
 26 27  1  0
 27 28  2  0
 28 29  1  0
 28 30  1  0
 30 31  2  0
 24 32  1  0
 32 33  2  0
 33 34  1  0
 34 35  2  0
 35 36  1  0
 35 37  1  0
 37 38  2  0
 23 39  1  0
 39 40  1  0
 40 41  1  0
 41 42  2  0
 42 43  1  0
 43 44  1  0
 44 45  2  0
 45 46  1  0
 46 47  2  0
 47 48  1  0
 47 49  1  0
 49 50  2  0
 43 51  1  0
 51 52  2  0
 52 53  1  0
 53 54  2  0
 54 55  1  0
 54 56  1  0
 56 57  2  0
 42 58  1  0
 58 59  1  0
 41 60  1  0
 60 61  2  0
 61 62  1  0
 62 63  2  0
 63 64  1  0
 64 65  2  0
 65 66  1  0
 66 67  1  0
 67 68  1  0
 66 69  2  0
 61 70  1  0
 70 71  1  0
 71 72  1  0
 72 73  1  0
 73 74  1  0
 74 75  1  0
 75 76  2  0
 76 77  1  0
 77 78  1  0
 75 79  1  0
 79 80  1  0
 80 81  1  0
 81 82  1  0
 82 83  1  0
 83 84  1  0
 84 85  2  0
 85 86  1  0
 86 87  2  0
 87 88  1  0
 88 89  1  0
 89 90  1  0
 88 91  2  0
 83 92  2  0
 92 93  1  0
 93 94  1  0
 94 95  1  0
 95 96  1  0
 96 97  1  0
 97 98  1  0
 98 99  1  0
 99100  1  0
100101  1  0
101102  1  0
 99103  1  0
103104  1  0
 96105  1  0
105106  1  0
 92107  1  0
107108  2  0
108109  1  0
109110  1  0
110111  2  0
111112  1  0
112113  2  0
113114  1  0
113115  1  0
115116  2  0
109117  1  0
117118  2  0
118119  1  0
119120  2  0
120121  1  0
120122  1  0
122123  2  0
108124  1  0
124125  1  0
125126  1  0
126127  2  0
127128  1  0
128129  1  0
129130  2  0
130131  1  0
131132  2  0
132133  1  0
132134  1  0
134135  2  0
128136  1  0
136137  2  0
137138  1  0
138139  2  0
139140  1  0
139141  1  0
141142  2  0
127143  1  0
143144  1  0
126145  1  0
145146  2  0
146147  1  0
147148  2  0
148149  1  0
149150  3  0
148151  1  0
 16  2  1  0
 59 22  1  0
102 60  1  0
144107  1  0
151145  1  0
 15  5  1  0
 31 25  1  0
 38 32  1  0
 58 39  2  0
 69 62  1  0
101 70  2  0
116110  1  0
123117  1  0
143124  2  0
 13  7  1  0
 50 44  1  0
 57 51  1  0
100 72  2  0
135129  1  0
142136  1  0
 98 73  2  0
 78 74  2  0
 97 79  2  0
 95 80  2  0
 94 82  2  0
 91 84  1  0
  1152  1  0
  6153  1  0
  8154  1  0
  9155  1  0
 12156  1  0
 14157  1  0
 26158  1  0
 27159  1  0
 29160  1  0
 29161  1  0
 29162  1  0
 30163  1  0
 31164  1  0
 33165  1  0
 34166  1  0
 36167  1  0
 36168  1  0
 36169  1  0
 37170  1  0
 38171  1  0
 45172  1  0
 46173  1  0
 48174  1  0
 48175  1  0
 48176  1  0
 49177  1  0
 50178  1  0
 52179  1  0
 53180  1  0
 55181  1  0
 55182  1  0
 55183  1  0
 56184  1  0
 57185  1  0
 63186  1  0
 64187  1  0
 65188  1  0
 67189  1  0
 67190  1  0
 68191  1  0
 68192  1  0
 68193  1  0
 69194  1  0
 85195  1  0
 86196  1  0
 87197  1  0
 89198  1  0
 89199  1  0
 90200  1  0
 90201  1  0
 90202  1  0
 91203  1  0
103204  1  0
103205  1  0
104206  1  0
104207  1  0
104208  1  0
105209  1  0
105210  1  0
106211  1  0
106212  1  0
106213  1  0
111214  1  0
112215  1  0
114216  1  0
114217  1  0
114218  1  0
115219  1  0
116220  1  0
118221  1  0
119222  1  0
121223  1  0
121224  1  0
121225  1  0
122226  1  0
123227  1  0
130228  1  0
131229  1  0
133230  1  0
133231  1  0
133232  1  0
134233  1  0
135234  1  0
137235  1  0
138236  1  0
140237  1  0
140238  1  0
140239  1  0
141240  1  0
142241  1  0
146242  1  0
147243  1  0
M  END

