
     RDKit          3D

255281  0  0  0  0  0  0  0  0999 V2000
    3.7890   -2.7819   -1.1206 C   0  0  0  0  0  0  0  0  0  0  0  0
    5.0324   -3.2216   -1.3776 C   0  0  0  0  0  0  0  0  0  0  0  0
    5.3793   -4.3689   -2.2190 C   0  0  0  0  0  0  0  0  0  0  0  0
    4.5787   -5.0616   -2.9067 O   0  0  0  0  0  0  0  0  0  0  0  0
    6.7981   -4.6253   -2.0814 C   0  0  0  0  0  0  0  0  0  0  0  0
    7.5354   -5.6913   -2.6064 C   0  0  0  0  0  0  0  0  0  0  0  0
    8.8857   -5.8196   -2.2432 C   0  0  0  0  0  0  0  0  0  0  0  0
    9.6567   -6.8911   -2.7274 C   0  0  0  0  0  0  0  0  0  0  0  0
   10.9894   -7.0285   -2.3345 C   0  0  0  0  0  0  0  0  0  0  0  0
   11.5673   -6.1045   -1.4492 C   0  0  0  0  0  0  0  0  0  0  0  0
   12.8577   -6.2547   -1.0678 F   0  0  0  0  0  0  0  0  0  0  0  0
   10.8083   -5.0429   -0.9522 C   0  0  0  0  0  0  0  0  0  0  0  0
    9.4686   -4.8848   -1.3395 C   0  0  0  0  0  0  0  0  0  0  0  0
    8.6975   -3.8273   -0.8186 C   0  0  0  0  0  0  0  0  0  0  0  0
    7.3588   -3.6872   -1.2305 C   0  0  0  0  0  0  0  0  0  0  0  0
    6.3241   -2.6955   -0.8177 C   0  0  0  0  0  0  0  0  0  0  0  0
    6.5542   -1.4838   -0.2357 C   0  0  0  0  0  0  0  0  0  0  0  0
    7.8801   -1.0100    0.0834 C   0  0  0  0  0  0  0  0  0  0  0  0
    8.9346   -0.6149    0.3372 N   0  0  0  0  0  0  0  0  0  0  0  0
    5.5259   -0.5098    0.0155 C   0  0  0  0  0  0  0  0  0  0  0  0
    4.7130    0.2898    0.2243 N   0  0  0  0  0  0  0  0  0  0  0  0
    2.5736   -3.2554   -1.8011 C   0  0  0  0  0  0  0  0  0  0  0  0
    1.7130   -2.3946   -2.5125 C   0  0  0  0  0  0  0  0  0  0  0  0
    2.1544   -1.1771   -3.1601 N   0  0  0  0  0  0  0  0  0  0  0  0
    3.5015   -1.1039   -3.6667 C   0  0  0  0  0  0  0  0  0  0  0  0
    4.3446   -0.0569   -3.2735 C   0  0  0  0  0  0  0  0  0  0  0  0
    5.6940   -0.0700   -3.6281 C   0  0  0  0  0  0  0  0  0  0  0  0
    6.2107   -1.1188   -4.4092 C   0  0  0  0  0  0  0  0  0  0  0  0
    7.6825   -1.1972   -4.6962 C   0  0  0  0  0  0  0  0  0  0  0  0
    5.3592   -2.1468   -4.8323 C   0  0  0  0  0  0  0  0  0  0  0  0
    4.0115   -2.1366   -4.4715 C   0  0  0  0  0  0  0  0  0  0  0  0
    1.2383   -0.1184   -3.4823 C   0  0  0  0  0  0  0  0  0  0  0  0
    1.0665    0.2734   -4.8200 C   0  0  0  0  0  0  0  0  0  0  0  0
    0.1866    1.3104   -5.1429 C   0  0  0  0  0  0  0  0  0  0  0  0
   -0.5296    1.9712   -4.1350 C   0  0  0  0  0  0  0  0  0  0  0  0
   -1.4444    3.1054   -4.4999 C   0  0  0  0  0  0  0  0  0  0  0  0
   -0.3468    1.5896   -2.7945 C   0  0  0  0  0  0  0  0  0  0  0  0
    0.5265    0.5447   -2.4719 C   0  0  0  0  0  0  0  0  0  0  0  0
    0.4278   -2.9388   -2.6030 C   0  0  0  0  0  0  0  0  0  0  0  0
   -1.0802   -2.3618   -3.0811 S   0  0  0  0  0  0  0  0  0  0  0  0
   -1.9417   -3.7433   -2.5634 C   0  0  0  0  0  0  0  0  0  0  0  0
   -1.0197   -4.6681   -2.0352 C   0  0  0  0  0  0  0  0  0  0  0  0
   -1.3372   -6.0266   -1.6899 N   0  0  0  0  0  0  0  0  0  0  0  0
   -1.7808   -6.3808   -0.3578 C   0  0  0  0  0  0  0  0  0  0  0  0
   -2.6709   -7.4575   -0.1679 C   0  0  0  0  0  0  0  0  0  0  0  0
   -3.2370   -7.7067    1.0823 C   0  0  0  0  0  0  0  0  0  0  0  0
   -2.9431   -6.8718    2.1647 C   0  0  0  0  0  0  0  0  0  0  0  0
   -3.5792   -7.1070    3.5007 C   0  0  0  0  0  0  0  0  0  0  0  0
   -2.0155   -5.8373    2.0053 C   0  0  0  0  0  0  0  0  0  0  0  0
   -1.4390   -5.5867    0.7559 C   0  0  0  0  0  0  0  0  0  0  0  0
   -1.2695   -7.0144   -2.7334 C   0  0  0  0  0  0  0  0  0  0  0  0
   -0.5350   -8.1957   -2.5401 C   0  0  0  0  0  0  0  0  0  0  0  0
   -0.5068   -9.1829   -3.5275 C   0  0  0  0  0  0  0  0  0  0  0  0
   -1.2097   -8.9977   -4.7286 C   0  0  0  0  0  0  0  0  0  0  0  0
   -1.2017  -10.0500   -5.7935 C   0  0  0  0  0  0  0  0  0  0  0  0
   -1.9409   -7.8172   -4.9261 C   0  0  0  0  0  0  0  0  0  0  0  0
   -1.9639   -6.8287   -3.9408 C   0  0  0  0  0  0  0  0  0  0  0  0
    0.2810   -4.1691   -2.0571 C   0  0  0  0  0  0  0  0  0  0  0  0
    1.7137   -4.6590   -1.3467 S   0  0  0  0  0  0  0  0  0  0  0  0
   -3.4036   -3.7594   -2.3205 C   0  0  0  0  0  0  0  0  0  0  0  0
   -4.3984   -3.0272   -2.9959 C   0  0  0  0  0  0  0  0  0  0  0  0
   -4.1972   -2.3119   -4.2633 C   0  0  0  0  0  0  0  0  0  0  0  0
   -3.8496   -0.9530   -4.2737 C   0  0  0  0  0  0  0  0  0  0  0  0
   -3.6790   -0.2917   -5.4940 C   0  0  0  0  0  0  0  0  0  0  0  0
   -3.8814   -0.9725   -6.6982 C   0  0  0  0  0  0  0  0  0  0  0  0
   -4.2433   -2.3323   -6.6939 C   0  0  0  0  0  0  0  0  0  0  0  0
   -4.5234   -3.0573   -7.9850 C   0  0  0  0  0  0  0  0  0  0  0  0
   -6.0237   -3.0919   -8.2675 C   0  0  0  0  0  0  0  0  0  0  0  0
   -4.3911   -2.9971   -5.4682 C   0  0  0  0  0  0  0  0  0  0  0  0
   -5.6081   -3.0049   -2.2827 C   0  0  0  0  0  0  0  0  0  0  0  0
   -6.8858   -1.8890   -2.2834 S   0  0  0  0  0  0  0  0  0  0  0  0
   -7.3966   -2.3326   -0.7167 C   0  0  0  0  0  0  0  0  0  0  0  0
   -7.7557   -1.5258    0.3397 C   0  0  0  0  0  0  0  0  0  0  0  0
   -8.5009   -0.3464    0.3817 C   0  0  0  0  0  0  0  0  0  0  0  0
   -8.5001    0.4199    1.5862 C   0  0  0  0  0  0  0  0  0  0  0  0
   -9.2212    1.5664    1.5775 N   0  0  0  0  0  0  0  0  0  0  0  0
   -9.8345    1.5090    0.0445 S   0  0  0  0  0  0  0  0  0  0  0  0
   -9.2350    0.1316   -0.6548 N   0  0  0  0  0  0  0  0  0  0  0  0
   -7.6471    0.0366    2.6403 C   0  0  0  0  0  0  0  0  0  0  0  0
   -7.0373    0.8611    3.5559 C   0  0  0  0  0  0  0  0  0  0  0  0
   -7.0215    2.5548    3.6847 S   0  0  0  0  0  0  0  0  0  0  0  0
   -5.3807    2.5880    4.1197 C   0  0  0  0  0  0  0  0  0  0  0  0
   -4.4276    3.6185    4.0939 C   0  0  0  0  0  0  0  0  0  0  0  0
   -4.7372    5.0620    3.9848 C   0  0  0  0  0  0  0  0  0  0  0  0
   -5.6762    5.5496    3.0617 C   0  0  0  0  0  0  0  0  0  0  0  0
   -5.8924    6.9223    2.9287 C   0  0  0  0  0  0  0  0  0  0  0  0
   -5.1422    7.8277    3.6858 C   0  0  0  0  0  0  0  0  0  0  0  0
   -4.1894    7.3597    4.6036 C   0  0  0  0  0  0  0  0  0  0  0  0
   -3.3105    8.3197    5.3583 C   0  0  0  0  0  0  0  0  0  0  0  0
   -1.9058    8.3404    4.7568 C   0  0  0  0  0  0  0  0  0  0  0  0
   -4.0093    5.9772    4.7646 C   0  0  0  0  0  0  0  0  0  0  0  0
   -3.1127    3.1081    4.0769 C   0  0  0  0  0  0  0  0  0  0  0  0
   -3.2038    1.4115    4.0807 S   0  0  0  0  0  0  0  0  0  0  0  0
   -4.8685    1.3142    4.1361 C   0  0  0  0  0  0  0  0  0  0  0  0
   -5.8034    0.3239    3.8118 C   0  0  0  0  0  0  0  0  0  0  0  0
   -5.6303   -0.8751    3.1928 N   0  0  0  0  0  0  0  0  0  0  0  0
   -6.8093   -1.0879    2.5183 C   0  0  0  0  0  0  0  0  0  0  0  0
   -7.0274   -1.9741    1.4385 C   0  0  0  0  0  0  0  0  0  0  0  0
   -6.3534   -3.1131    1.1338 N   0  0  0  0  0  0  0  0  0  0  0  0
   -6.5520   -3.2864   -0.1926 C   0  0  0  0  0  0  0  0  0  0  0  0
   -5.5814   -3.6843   -1.0979 C   0  0  0  0  0  0  0  0  0  0  0  0
   -4.0558   -4.2915   -0.8499 S   0  0  0  0  0  0  0  0  0  0  0  0
   -6.0566   -4.2099    2.0673 C   0  0  0  0  0  0  0  0  0  0  0  0
   -7.0409   -5.3679    1.8975 C   0  0  0  0  0  0  0  0  0  0  0  0
   -4.3134   -1.4817    2.9176 C   0  0  0  0  0  0  0  0  0  0  0  0
   -3.7452   -1.0247    1.5764 C   0  0  0  0  0  0  0  0  0  0  0  0
   -1.9431    3.8327    3.5470 C   0  0  0  0  0  0  0  0  0  0  0  0
   -0.5843    3.5924    3.8254 C   0  0  0  0  0  0  0  0  0  0  0  0
   -0.0908    2.6801    4.8198 N   0  0  0  0  0  0  0  0  0  0  0  0
   -0.0449    1.2633    4.5333 C   0  0  0  0  0  0  0  0  0  0  0  0
    0.0658    0.7966    3.2043 C   0  0  0  0  0  0  0  0  0  0  0  0
   -0.0050   -0.5675    2.9244 C   0  0  0  0  0  0  0  0  0  0  0  0
   -0.1967   -1.4905    3.9602 C   0  0  0  0  0  0  0  0  0  0  0  0
   -0.2891   -2.9534    3.6562 C   0  0  0  0  0  0  0  0  0  0  0  0
   -0.2653   -1.0439    5.2819 C   0  0  0  0  0  0  0  0  0  0  0  0
   -0.1959    0.3229    5.5678 C   0  0  0  0  0  0  0  0  0  0  0  0
    0.4866    3.2286    6.0232 C   0  0  0  0  0  0  0  0  0  0  0  0
    1.7028    2.7327    6.5259 C   0  0  0  0  0  0  0  0  0  0  0  0
    2.2615    3.2727    7.6857 C   0  0  0  0  0  0  0  0  0  0  0  0
    1.6131    4.3148    8.3679 C   0  0  0  0  0  0  0  0  0  0  0  0
    2.2266    4.9085    9.6033 C   0  0  0  0  0  0  0  0  0  0  0  0
    0.4192    4.8335    7.8509 C   0  0  0  0  0  0  0  0  0  0  0  0
   -0.1425    4.2937    6.6890 C   0  0  0  0  0  0  0  0  0  0  0  0
    0.2554    4.2277    2.9092 C   0  0  0  0  0  0  0  0  0  0  0  0
    1.8670    4.0326    2.5279 S   0  0  0  0  0  0  0  0  0  0  0  0
    1.7840    4.9123    1.0643 C   0  0  0  0  0  0  0  0  0  0  0  0
    0.4483    5.3523    0.8564 C   0  0  0  0  0  0  0  0  0  0  0  0
   -0.0502    6.0594   -0.3126 N   0  0  0  0  0  0  0  0  0  0  0  0
   -1.4097    6.5228   -0.3742 C   0  0  0  0  0  0  0  0  0  0  0  0
   -2.3676    5.8100   -1.1091 C   0  0  0  0  0  0  0  0  0  0  0  0
   -3.6928    6.2482   -1.1468 C   0  0  0  0  0  0  0  0  0  0  0  0
   -4.0795    7.4009   -0.4444 C   0  0  0  0  0  0  0  0  0  0  0  0
   -5.4971    7.8911   -0.5255 C   0  0  0  0  0  0  0  0  0  0  0  0
   -3.1173    8.1198    0.2821 C   0  0  0  0  0  0  0  0  0  0  0  0
   -1.7903    7.6820    0.3206 C   0  0  0  0  0  0  0  0  0  0  0  0
    0.7939    6.4363   -1.4088 C   0  0  0  0  0  0  0  0  0  0  0  0
    1.6899    7.5094   -1.2796 C   0  0  0  0  0  0  0  0  0  0  0  0
    2.5492    7.8380   -2.3325 C   0  0  0  0  0  0  0  0  0  0  0  0
    2.5242    7.0993   -3.5246 C   0  0  0  0  0  0  0  0  0  0  0  0
    3.4352    7.4726   -4.6613 C   0  0  0  0  0  0  0  0  0  0  0  0
    1.6022    6.0491   -3.6669 C   0  0  0  0  0  0  0  0  0  0  0  0
    0.7444    5.7190   -2.6112 C   0  0  0  0  0  0  0  0  0  0  0  0
   -0.3658    4.9351    1.9287 C   0  0  0  0  0  0  0  0  0  0  0  0
   -2.0218    4.8072    2.1567 S   0  0  0  0  0  0  0  0  0  0  0  0
    2.8709    4.8782    0.0584 C   0  0  0  0  0  0  0  0  0  0  0  0
    4.1856    4.8897    0.3215 C   0  0  0  0  0  0  0  0  0  0  0  0
    5.1693    4.3557   -0.6186 C   0  0  0  0  0  0  0  0  0  0  0  0
    4.9833    4.1468   -1.8489 O   0  0  0  0  0  0  0  0  0  0  0  0
    6.3678    4.0086    0.1166 C   0  0  0  0  0  0  0  0  0  0  0  0
    7.4907    3.3135   -0.3342 C   0  0  0  0  0  0  0  0  0  0  0  0
    8.4785    2.9795    0.5980 C   0  0  0  0  0  0  0  0  0  0  0  0
    8.3282    3.3256    1.9563 C   0  0  0  0  0  0  0  0  0  0  0  0
    9.6737    2.8321    3.2224 Br  0  0  0  0  0  0  0  0  0  0  0  0
    7.1771    4.0127    2.3884 C   0  0  0  0  0  0  0  0  0  0  0  0
    6.2102    4.3761    1.4406 C   0  0  0  0  0  0  0  0  0  0  0  0
    4.9051    5.0817    1.6135 C   0  0  0  0  0  0  0  0  0  0  0  0
    4.6367    6.0221    2.5563 C   0  0  0  0  0  0  0  0  0  0  0  0
    3.5332    6.9410    2.4220 C   0  0  0  0  0  0  0  0  0  0  0  0
    2.6509    7.6879    2.3309 N   0  0  0  0  0  0  0  0  0  0  0  0
    5.5125    6.2738    3.6669 C   0  0  0  0  0  0  0  0  0  0  0  0
    6.2099    6.4883    4.5632 N   0  0  0  0  0  0  0  0  0  0  0  0
    3.6221   -1.9817   -0.4273 H   0  0  0  0  0  0  0  0  0  0  0  0
    7.0598   -6.4165   -3.2553 H   0  0  0  0  0  0  0  0  0  0  0  0
    9.2204   -7.6337   -3.3904 H   0  0  0  0  0  0  0  0  0  0  0  0
   11.5783   -7.8582   -2.7010 H   0  0  0  0  0  0  0  0  0  0  0  0
   11.2672   -4.3527   -0.2546 H   0  0  0  0  0  0  0  0  0  0  0  0
    9.1319   -3.1827   -0.0726 H   0  0  0  0  0  0  0  0  0  0  0  0
    3.9659    0.7457   -2.6472 H   0  0  0  0  0  0  0  0  0  0  0  0
    6.3491    0.7237   -3.2789 H   0  0  0  0  0  0  0  0  0  0  0  0
    8.1859   -1.7755   -3.8936 H   0  0  0  0  0  0  0  0  0  0  0  0
    7.8621   -1.6994   -5.6712 H   0  0  0  0  0  0  0  0  0  0  0  0
    8.1284   -0.1842   -4.7416 H   0  0  0  0  0  0  0  0  0  0  0  0
    5.7456   -2.9699   -5.4190 H   0  0  0  0  0  0  0  0  0  0  0  0
    3.3734   -2.9467   -4.7850 H   0  0  0  0  0  0  0  0  0  0  0  0
    1.6127   -0.2301   -5.6074 H   0  0  0  0  0  0  0  0  0  0  0  0
    0.0725    1.6023   -6.1797 H   0  0  0  0  0  0  0  0  0  0  0  0
   -2.1255    2.7914   -5.3212 H   0  0  0  0  0  0  0  0  0  0  0  0
   -2.0594    3.4248   -3.6335 H   0  0  0  0  0  0  0  0  0  0  0  0
   -0.8414    3.9696   -4.8544 H   0  0  0  0  0  0  0  0  0  0  0  0
   -0.8778    2.0991   -2.0028 H   0  0  0  0  0  0  0  0  0  0  0  0
    0.6614    0.2631   -1.4343 H   0  0  0  0  0  0  0  0  0  0  0  0
   -2.9691   -8.0774   -1.0052 H   0  0  0  0  0  0  0  0  0  0  0  0
   -3.9394   -8.5252    1.1944 H   0  0  0  0  0  0  0  0  0  0  0  0
   -4.5419   -7.6512    3.3909 H   0  0  0  0  0  0  0  0  0  0  0  0
   -3.7875   -6.1378    4.0021 H   0  0  0  0  0  0  0  0  0  0  0  0
   -2.8905   -7.7064    4.1334 H   0  0  0  0  0  0  0  0  0  0  0  0
   -1.7725   -5.2021    2.8385 H   0  0  0  0  0  0  0  0  0  0  0  0
   -0.7568   -4.7557    0.6480 H   0  0  0  0  0  0  0  0  0  0  0  0
   -0.0028   -8.3535   -1.6135 H   0  0  0  0  0  0  0  0  0  0  0  0
    0.0468  -10.0956   -3.3525 H   0  0  0  0  0  0  0  0  0  0  0  0
   -0.7284   -9.6393   -6.7133 H   0  0  0  0  0  0  0  0  0  0  0  0
   -2.2456  -10.3596   -6.0251 H   0  0  0  0  0  0  0  0  0  0  0  0
   -0.6323  -10.9500   -5.4787 H   0  0  0  0  0  0  0  0  0  0  0  0
   -2.4988   -7.6668   -5.8445 H   0  0  0  0  0  0  0  0  0  0  0  0
   -2.5519   -5.9364   -4.1047 H   0  0  0  0  0  0  0  0  0  0  0  0
   -3.6983   -0.4176   -3.3448 H   0  0  0  0  0  0  0  0  0  0  0  0
   -3.3932    0.7558   -5.5069 H   0  0  0  0  0  0  0  0  0  0  0  0
   -3.7701   -0.4386   -7.6314 H   0  0  0  0  0  0  0  0  0  0  0  0
   -4.0046   -2.5586   -8.8316 H   0  0  0  0  0  0  0  0  0  0  0  0
   -4.1386   -4.0984   -7.9262 H   0  0  0  0  0  0  0  0  0  0  0  0
   -6.2148   -3.6582   -9.2060 H   0  0  0  0  0  0  0  0  0  0  0  0
   -6.4144   -2.0574   -8.3856 H   0  0  0  0  0  0  0  0  0  0  0  0
   -6.5694   -3.5903   -7.4331 H   0  0  0  0  0  0  0  0  0  0  0  0
   -4.6827   -4.0383   -5.4557 H   0  0  0  0  0  0  0  0  0  0  0  0
   -6.2217    4.8773    2.4149 H   0  0  0  0  0  0  0  0  0  0  0  0
   -6.6247    7.2873    2.2186 H   0  0  0  0  0  0  0  0  0  0  0  0
   -5.2942    8.8893    3.5466 H   0  0  0  0  0  0  0  0  0  0  0  0
   -3.2515    8.0113    6.4229 H   0  0  0  0  0  0  0  0  0  0  0  0
   -3.7363    9.3465    5.3287 H   0  0  0  0  0  0  0  0  0  0  0  0
   -1.2736    9.0610    5.3129 H   0  0  0  0  0  0  0  0  0  0  0  0
   -1.9531    8.6491    3.6879 H   0  0  0  0  0  0  0  0  0  0  0  0
   -1.4393    7.3329    4.8194 H   0  0  0  0  0  0  0  0  0  0  0  0
   -3.2784    5.6167    5.4752 H   0  0  0  0  0  0  0  0  0  0  0  0
   -5.0224   -4.5812    1.9067 H   0  0  0  0  0  0  0  0  0  0  0  0
   -6.1493   -3.8530    3.1218 H   0  0  0  0  0  0  0  0  0  0  0  0
   -6.8604   -6.1290    2.6825 H   0  0  0  0  0  0  0  0  0  0  0  0
   -6.9117   -5.8410    0.8997 H   0  0  0  0  0  0  0  0  0  0  0  0
   -8.0797   -4.9916    1.9904 H   0  0  0  0  0  0  0  0  0  0  0  0
   -3.6025   -1.2368    3.7347 H   0  0  0  0  0  0  0  0  0  0  0  0
   -4.3612   -2.5779    2.9432 H   0  0  0  0  0  0  0  0  0  0  0  0
   -2.7353   -1.4626    1.4320 H   0  0  0  0  0  0  0  0  0  0  0  0
   -4.3841   -1.3650    0.7384 H   0  0  0  0  0  0  0  0  0  0  0  0
   -3.6644    0.0820    1.5394 H   0  0  0  0  0  0  0  0  0  0  0  0
    0.1833    1.4841    2.3804 H   0  0  0  0  0  0  0  0  0  0  0  0
    0.0662   -0.9014    1.8955 H   0  0  0  0  0  0  0  0  0  0  0  0
    0.7027   -3.4296    3.7968 H   0  0  0  0  0  0  0  0  0  0  0  0
   -0.6163   -3.1130    2.6074 H   0  0  0  0  0  0  0  0  0  0  0  0
   -1.0270   -3.4368    4.3280 H   0  0  0  0  0  0  0  0  0  0  0  0
   -0.3949   -1.7495    6.0960 H   0  0  0  0  0  0  0  0  0  0  0  0
   -0.2986    0.6483    6.5955 H   0  0  0  0  0  0  0  0  0  0  0  0
    2.2259    1.9317    6.0105 H   0  0  0  0  0  0  0  0  0  0  0  0
    3.2028    2.8811    8.0511 H   0  0  0  0  0  0  0  0  0  0  0  0
    2.9064    5.7433    9.3181 H   0  0  0  0  0  0  0  0  0  0  0  0
    1.4399    5.2972   10.2874 H   0  0  0  0  0  0  0  0  0  0  0  0
    2.8111    4.1446   10.1563 H   0  0  0  0  0  0  0  0  0  0  0  0
   -0.0826    5.6549    8.3490 H   0  0  0  0  0  0  0  0  0  0  0  0
   -1.0718    4.7046    6.3142 H   0  0  0  0  0  0  0  0  0  0  0  0
   -2.0916    4.9076   -1.6381 H   0  0  0  0  0  0  0  0  0  0  0  0
   -4.4219    5.6856   -1.7218 H   0  0  0  0  0  0  0  0  0  0  0  0
   -5.7066    8.6470    0.2558 H   0  0  0  0  0  0  0  0  0  0  0  0
   -6.1942    7.0387   -0.3848 H   0  0  0  0  0  0  0  0  0  0  0  0
   -5.6767    8.3424   -1.5240 H   0  0  0  0  0  0  0  0  0  0  0  0
   -3.3927    9.0164    0.8224 H   0  0  0  0  0  0  0  0  0  0  0  0
   -1.0583    8.2370    0.8904 H   0  0  0  0  0  0  0  0  0  0  0  0
    1.7267    8.0758   -0.3594 H   0  0  0  0  0  0  0  0  0  0  0  0
    3.2435    8.6631   -2.2139 H   0  0  0  0  0  0  0  0  0  0  0  0
    4.4291    7.7779   -4.2737 H   0  0  0  0  0  0  0  0  0  0  0  0
    3.5861    6.6132   -5.3493 H   0  0  0  0  0  0  0  0  0  0  0  0
    2.9908    8.3189   -5.2265 H   0  0  0  0  0  0  0  0  0  0  0  0
    1.5529    5.4752   -4.5855 H   0  0  0  0  0  0  0  0  0  0  0  0
    0.0693    4.8868   -2.7183 H   0  0  0  0  0  0  0  0  0  0  0  0
    2.5739    4.6299   -0.9506 H   0  0  0  0  0  0  0  0  0  0  0  0
    7.5861    3.0154   -1.3739 H   0  0  0  0  0  0  0  0  0  0  0  0
    9.3561    2.4350    0.2781 H   0  0  0  0  0  0  0  0  0  0  0  0
    7.0480    4.2148    3.4388 H   0  0  0  0  0  0  0  0  0  0  0  0
  1  2  2  3
  2  3  1  0
  3  4  2  0
  3  5  1  0
  5  6  2  0
  6  7  1  0
  7  8  2  0
  8  9  1  0
  9 10  2  0
 10 11  1  0
 10 12  1  0
 12 13  2  0
 13 14  1  0
 14 15  2  0
 15 16  1  0
 16 17  2  3
 17 18  1  0
 18 19  3  0
 17 20  1  0
 20 21  3  0
  1 22  1  0
 22 23  2  0
 23 24  1  0
 24 25  1  0
 25 26  2  0
 26 27  1  0
 27 28  2  0
 28 29  1  0
 28 30  1  0
 30 31  2  0
 24 32  1  0
 32 33  2  0
 33 34  1  0
 34 35  2  0
 35 36  1  0
 35 37  1  0
 37 38  2  0
 23 39  1  0
 39 40  1  0
 40 41  1  0
 41 42  2  0
 42 43  1  0
 43 44  1  0
 44 45  2  0
 45 46  1  0
 46 47  2  0
 47 48  1  0
 47 49  1  0
 49 50  2  0
 43 51  1  0
 51 52  2  0
 52 53  1  0
 53 54  2  0
 54 55  1  0
 54 56  1  0
 56 57  2  0
 42 58  1  0
 58 59  1  0
 41 60  1  0
 60 61  2  0
 61 62  1  0
 62 63  2  0
 63 64  1  0
 64 65  2  0
 65 66  1  0
 66 67  1  0
 67 68  1  0
 66 69  2  0
 61 70  1  0
 70 71  1  0
 71 72  1  0
 72 73  1  0
 73 74  1  0
 74 75  1  0
 75 76  2  0
 76 77  1  0
 77 78  1  0
 75 79  1  0
 79 80  1  0
 80 81  1  0
 81 82  1  0
 82 83  1  0
 83 84  1  0
 84 85  2  0
 85 86  1  0
 86 87  2  0
 87 88  1  0
 88 89  1  0
 89 90  1  0
 88 91  2  0
 83 92  2  0
 92 93  1  0
 93 94  1  0
 94 95  1  0
 95 96  1  0
 96 97  1  0
 97 98  1  0
 98 99  1  0
 99100  1  0
100101  1  0
101102  1  0
 99103  1  0
103104  1  0
 96105  1  0
105106  1  0
 92107  1  0
107108  2  0
108109  1  0
109110  1  0
110111  2  0
111112  1  0
112113  2  0
113114  1  0
113115  1  0
115116  2  0
109117  1  0
117118  2  0
118119  1  0
119120  2  0
120121  1  0
120122  1  0
122123  2  0
108124  1  0
124125  1  0
125126  1  0
126127  2  0
127128  1  0
128129  1  0
129130  2  0
130131  1  0
131132  2  0
132133  1  0
132134  1  0
134135  2  0
128136  1  0
136137  2  0
137138  1  0
138139  2  0
139140  1  0
139141  1  0
141142  2  0
127143  1  0
143144  1  0
126145  1  0
145146  2  3
146147  1  0
147148  2  0
147149  1  0
149150  2  0
150151  1  0
151152  2  0
152153  1  0
152154  1  0
154155  2  0
155156  1  0
156157  2  3
157158  1  0
158159  3  0
157160  1  0
160161  3  0
 16  2  1  0
 59 22  1  0
102 60  1  0
144107  1  0
156146  1  0
 15  5  1  0
 31 25  1  0
 38 32  1  0
 58 39  2  0
 69 62  1  0
101 70  2  0
116110  1  0
123117  1  0
143124  2  0
155149  1  0
 13  7  1  0
 50 44  1  0
 57 51  1  0
100 72  2  0
135129  1  0
142136  1  0
 98 73  2  0
 78 74  2  0
 97 79  2  0
 95 80  2  0
 94 82  2  0
 91 84  1  0
  1162  1  0
  6163  1  0
  8164  1  0
  9165  1  0
 12166  1  0
 14167  1  0
 26168  1  0
 27169  1  0
 29170  1  0
 29171  1  0
 29172  1  0
 30173  1  0
 31174  1  0
 33175  1  0
 34176  1  0
 36177  1  0
 36178  1  0
 36179  1  0
 37180  1  0
 38181  1  0
 45182  1  0
 46183  1  0
 48184  1  0
 48185  1  0
 48186  1  0
 49187  1  0
 50188  1  0
 52189  1  0
 53190  1  0
 55191  1  0
 55192  1  0
 55193  1  0
 56194  1  0
 57195  1  0
 63196  1  0
 64197  1  0
 65198  1  0
 67199  1  0
 67200  1  0
 68201  1  0
 68202  1  0
 68203  1  0
 69204  1  0
 85205  1  0
 86206  1  0
 87207  1  0
 89208  1  0
 89209  1  0
 90210  1  0
 90211  1  0
 90212  1  0
 91213  1  0
103214  1  0
103215  1  0
104216  1  0
104217  1  0
104218  1  0
105219  1  0
105220  1  0
106221  1  0
106222  1  0
106223  1  0
111224  1  0
112225  1  0
114226  1  0
114227  1  0
114228  1  0
115229  1  0
116230  1  0
118231  1  0
119232  1  0
121233  1  0
121234  1  0
121235  1  0
122236  1  0
123237  1  0
130238  1  0
131239  1  0
133240  1  0
133241  1  0
133242  1  0
134243  1  0
135244  1  0
137245  1  0
138246  1  0
140247  1  0
140248  1  0
140249  1  0
141250  1  0
142251  1  0
145252  1  0
150253  1  0
151254  1  0
154255  1  0
M  END

