
     RDKit          3D

346380  0  0  0  0  0  0  0  0999 V2000
   -6.8733    3.2787   -8.2765 C   0  0  0  0  0  0  0  0  0  0  0  0
   -5.8179    3.5895   -9.0563 C   0  0  0  0  0  0  0  0  0  0  0  0
   -5.2112    4.9249   -9.0106 C   0  0  0  0  0  0  0  0  0  0  0  0
   -5.8150    5.9984   -8.7300 O   0  0  0  0  0  0  0  0  0  0  0  0
   -3.7763    4.7739   -9.1250 C   0  0  0  0  0  0  0  0  0  0  0  0
   -2.7893    5.7025   -8.8294 C   0  0  0  0  0  0  0  0  0  0  0  0
   -1.4501    5.2702   -8.7609 C   0  0  0  0  0  0  0  0  0  0  0  0
   -0.4273    6.1654   -8.3960 C   0  0  0  0  0  0  0  0  0  0  0  0
    0.8881    5.7141   -8.2722 C   0  0  0  0  0  0  0  0  0  0  0  0
    1.2009    4.3770   -8.5408 C   0  0  0  0  0  0  0  0  0  0  0  0
    2.4842    3.9508   -8.4303 F   0  0  0  0  0  0  0  0  0  0  0  0
    0.1953    3.4696   -8.8933 C   0  0  0  0  0  0  0  0  0  0  0  0
   -1.1358    3.9043   -9.0007 C   0  0  0  0  0  0  0  0  0  0  0  0
   -2.1589    2.9860   -9.3044 C   0  0  0  0  0  0  0  0  0  0  0  0
   -3.4751    3.4466   -9.3675 C   0  0  0  0  0  0  0  0  0  0  0  0
   -4.7302    2.6832   -9.5140 C   0  0  0  0  0  0  0  0  0  0  0  0
   -4.9176    1.5770  -10.2653 C   0  0  0  0  0  0  0  0  0  0  0  0
   -6.2444    1.0925  -10.5642 C   0  0  0  0  0  0  0  0  0  0  0  0
   -7.3084    0.6933  -10.7813 N   0  0  0  0  0  0  0  0  0  0  0  0
   -3.8117    0.8627  -10.8553 C   0  0  0  0  0  0  0  0  0  0  0  0
   -2.9329    0.2986  -11.3541 N   0  0  0  0  0  0  0  0  0  0  0  0
   -6.8499    2.1621   -7.2978 C   0  0  0  0  0  0  0  0  0  0  0  0
   -7.4074    2.2685   -6.0087 C   0  0  0  0  0  0  0  0  0  0  0  0
   -8.4682    3.1684   -5.6695 N   0  0  0  0  0  0  0  0  0  0  0  0
   -8.2534    4.1523   -4.6474 C   0  0  0  0  0  0  0  0  0  0  0  0
   -9.1208    4.2363   -3.5476 C   0  0  0  0  0  0  0  0  0  0  0  0
   -8.9567    5.2365   -2.5872 C   0  0  0  0  0  0  0  0  0  0  0  0
   -7.9240    6.1812   -2.7182 C   0  0  0  0  0  0  0  0  0  0  0  0
   -7.7888    7.2998   -1.7293 C   0  0  0  0  0  0  0  0  0  0  0  0
   -7.0560    6.1051   -3.8206 C   0  0  0  0  0  0  0  0  0  0  0  0
   -7.2111    5.0924   -4.7729 C   0  0  0  0  0  0  0  0  0  0  0  0
   -9.7828    2.9600   -6.2321 C   0  0  0  0  0  0  0  0  0  0  0  0
  -10.6537    4.0496   -6.4382 C   0  0  0  0  0  0  0  0  0  0  0  0
  -11.9214    3.8478   -6.9880 C   0  0  0  0  0  0  0  0  0  0  0  0
  -12.3413    2.5595   -7.3558 C   0  0  0  0  0  0  0  0  0  0  0  0
  -13.7220    2.3382   -7.9064 C   0  0  0  0  0  0  0  0  0  0  0  0
  -11.4839    1.4714   -7.1471 C   0  0  0  0  0  0  0  0  0  0  0  0
  -10.2152    1.6713   -6.5957 C   0  0  0  0  0  0  0  0  0  0  0  0
   -6.9749    1.2477   -5.1743 C   0  0  0  0  0  0  0  0  0  0  0  0
   -7.2045    0.8768   -3.5612 S   0  0  0  0  0  0  0  0  0  0  0  0
   -6.2494   -0.5429   -3.6013 C   0  0  0  0  0  0  0  0  0  0  0  0
   -5.7951   -0.7447   -4.9229 C   0  0  0  0  0  0  0  0  0  0  0  0
   -5.3293   -1.9997   -5.4480 N   0  0  0  0  0  0  0  0  0  0  0  0
   -4.0326   -2.0942   -6.0862 C   0  0  0  0  0  0  0  0  0  0  0  0
   -3.6977   -3.2036   -6.8885 C   0  0  0  0  0  0  0  0  0  0  0  0
   -2.4665   -3.2583   -7.5547 C   0  0  0  0  0  0  0  0  0  0  0  0
   -1.5374   -2.2196   -7.4136 C   0  0  0  0  0  0  0  0  0  0  0  0
   -0.2476   -2.2592   -8.1753 C   0  0  0  0  0  0  0  0  0  0  0  0
   -1.8558   -1.1219   -6.6035 C   0  0  0  0  0  0  0  0  0  0  0  0
   -3.0803   -1.0652   -5.9347 C   0  0  0  0  0  0  0  0  0  0  0  0
   -6.3701   -2.9505   -5.7404 C   0  0  0  0  0  0  0  0  0  0  0  0
   -7.2250   -2.7415   -6.8336 C   0  0  0  0  0  0  0  0  0  0  0  0
   -8.3277   -3.5734   -7.0433 C   0  0  0  0  0  0  0  0  0  0  0  0
   -8.5843   -4.6401   -6.1703 C   0  0  0  0  0  0  0  0  0  0  0  0
   -9.8107   -5.4790   -6.3600 C   0  0  0  0  0  0  0  0  0  0  0  0
   -7.7114   -4.8739   -5.0958 C   0  0  0  0  0  0  0  0  0  0  0  0
   -6.6104   -4.0339   -4.8840 C   0  0  0  0  0  0  0  0  0  0  0  0
   -6.1888    0.3114   -5.7498 C   0  0  0  0  0  0  0  0  0  0  0  0
   -5.9071    0.7311   -7.3456 S   0  0  0  0  0  0  0  0  0  0  0  0
   -5.7835   -1.2123   -2.3718 C   0  0  0  0  0  0  0  0  0  0  0  0
   -4.8591   -2.2553   -2.2368 C   0  0  0  0  0  0  0  0  0  0  0  0
   -4.4782   -2.4884   -0.8977 C   0  0  0  0  0  0  0  0  0  0  0  0
   -3.6431   -3.5243   -0.4148 C   0  0  0  0  0  0  0  0  0  0  0  0
   -3.1567   -4.6075   -1.2839 C   0  0  0  0  0  0  0  0  0  0  0  0
   -3.9475   -5.4223   -2.0793 C   0  0  0  0  0  0  0  0  0  0  0  0
   -3.2148   -6.3654   -2.8097 C   0  0  0  0  0  0  0  0  0  0  0  0
   -1.8501   -6.3022   -2.5671 C   0  0  0  0  0  0  0  0  0  0  0  0
   -0.8122   -7.1590   -3.2256 C   0  0  0  0  0  0  0  0  0  0  0  0
    0.0186   -6.3475   -4.2120 C   0  0  0  0  0  0  0  0  0  0  0  0
   -1.5496   -5.0702   -1.4619 S   0  0  0  0  0  0  0  0  0  0  0  0
   -3.3144   -3.4854    0.9600 C   0  0  0  0  0  0  0  0  0  0  0  0
   -2.3858   -4.5761    1.8674 S   0  0  0  0  0  0  0  0  0  0  0  0
   -2.4656   -3.6771    3.2968 C   0  0  0  0  0  0  0  0  0  0  0  0
   -1.4870   -3.5367    4.3437 C   0  0  0  0  0  0  0  0  0  0  0  0
   -0.5734   -4.4744    4.8463 C   0  0  0  0  0  0  0  0  0  0  0  0
    0.4699   -3.9716    5.6531 C   0  0  0  0  0  0  0  0  0  0  0  0
    1.6865   -4.6499    6.2978 C   0  0  0  0  0  0  0  0  0  0  0  0
    2.2510   -5.9249    5.6780 C   0  0  0  0  0  0  0  0  0  0  0  0
    1.8678   -6.4034    4.4096 C   0  0  0  0  0  0  0  0  0  0  0  0
    2.0918   -7.7416    4.0559 C   0  0  0  0  0  0  0  0  0  0  0  0
    2.7823   -8.6020    4.9256 C   0  0  0  0  0  0  0  0  0  0  0  0
    2.9036  -10.0719    4.6254 C   0  0  0  0  0  0  0  0  0  0  0  0
    1.8374  -10.8612    5.3816 C   0  0  0  0  0  0  0  0  0  0  0  0
    3.3011   -8.0900    6.1192 C   0  0  0  0  0  0  0  0  0  0  0  0
    3.0452   -6.7711    6.4862 C   0  0  0  0  0  0  0  0  0  0  0  0
    1.2045   -4.9879    7.7416 C   0  0  0  0  0  0  0  0  0  0  0  0
    1.8764   -4.5042    8.8924 C   0  0  0  0  0  0  0  0  0  0  0  0
    1.2745   -4.5695   10.1501 C   0  0  0  0  0  0  0  0  0  0  0  0
    0.0164   -5.1591   10.3040 C   0  0  0  0  0  0  0  0  0  0  0  0
   -0.7083   -5.0440   11.6226 C   0  0  0  0  0  0  0  0  0  0  0  0
   -1.4274   -3.7008   11.7186 C   0  0  0  0  0  0  0  0  0  0  0  0
   -0.6012   -5.7577    9.1969 C   0  0  0  0  0  0  0  0  0  0  0  0
    0.0046   -5.7041    7.9356 C   0  0  0  0  0  0  0  0  0  0  0  0
    2.6025   -3.4060    6.3401 C   0  0  0  0  0  0  0  0  0  0  0  0
    1.7636   -2.3455    6.5986 C   0  0  0  0  0  0  0  0  0  0  0  0
    0.4704   -2.6267    6.0367 C   0  0  0  0  0  0  0  0  0  0  0  0
   -0.4812   -1.7157    5.5932 C   0  0  0  0  0  0  0  0  0  0  0  0
   -1.4569   -2.1946    4.7136 C   0  0  0  0  0  0  0  0  0  0  0  0
   -2.3507   -1.3524    3.8194 C   0  0  0  0  0  0  0  0  0  0  0  0
   -3.3129   -0.4877    4.6392 C   0  0  0  0  0  0  0  0  0  0  0  0
   -3.7887    0.7366    4.1331 C   0  0  0  0  0  0  0  0  0  0  0  0
   -4.6642    1.5305    4.8746 C   0  0  0  0  0  0  0  0  0  0  0  0
   -5.1188    1.0961    6.1238 C   0  0  0  0  0  0  0  0  0  0  0  0
   -6.1203    1.9186    6.8903 C   0  0  0  0  0  0  0  0  0  0  0  0
   -5.4277    2.9971    7.7155 C   0  0  0  0  0  0  0  0  0  0  0  0
   -4.6582   -0.1205    6.6379 C   0  0  0  0  0  0  0  0  0  0  0  0
   -3.7845   -0.9179    5.8964 C   0  0  0  0  0  0  0  0  0  0  0  0
   -1.3453   -0.5483    2.9499 C   0  0  0  0  0  0  0  0  0  0  0  0
   -0.8018    0.6620    3.4407 C   0  0  0  0  0  0  0  0  0  0  0  0
    0.3643    1.2108    2.8967 C   0  0  0  0  0  0  0  0  0  0  0  0
    1.0459    0.5517    1.8737 C   0  0  0  0  0  0  0  0  0  0  0  0
    2.3911    1.0462    1.4038 C   0  0  0  0  0  0  0  0  0  0  0  0
    2.2815    1.7718    0.0646 C   0  0  0  0  0  0  0  0  0  0  0  0
    0.4940   -0.6152    1.3316 C   0  0  0  0  0  0  0  0  0  0  0  0
   -0.6732   -1.1630    1.8689 C   0  0  0  0  0  0  0  0  0  0  0  0
   -3.0959   -2.4701    3.0621 C   0  0  0  0  0  0  0  0  0  0  0  0
   -3.7159   -2.4223    1.7950 C   0  0  0  0  0  0  0  0  0  0  0  0
   -4.7132   -1.5285    1.3623 C   0  0  0  0  0  0  0  0  0  0  0  0
   -5.0347   -1.5705   -0.0036 C   0  0  0  0  0  0  0  0  0  0  0  0
   -6.0896   -0.5817   -0.8469 S   0  0  0  0  0  0  0  0  0  0  0  0
   -5.6562   -0.9195    2.3258 C   0  0  0  0  0  0  0  0  0  0  0  0
   -6.2844    0.3207    2.2221 C   0  0  0  0  0  0  0  0  0  0  0  0
   -7.2624    0.5383    3.2020 C   0  0  0  0  0  0  0  0  0  0  0  0
   -7.3955   -0.5183    4.0964 C   0  0  0  0  0  0  0  0  0  0  0  0
   -8.3977   -0.5760    5.2187 C   0  0  0  0  0  0  0  0  0  0  0  0
   -8.0372   -1.6242    6.2719 C   0  0  0  0  0  0  0  0  0  0  0  0
   -6.3487   -1.7514    3.6173 S   0  0  0  0  0  0  0  0  0  0  0  0
    2.5675   -0.9059    6.7547 S   0  0  0  0  0  0  0  0  0  0  0  0
    4.0700   -1.5996    6.4169 C   0  0  0  0  0  0  0  0  0  0  0  0
    5.1828   -0.8156    6.0922 C   0  0  0  0  0  0  0  0  0  0  0  0
    5.5930    0.3336    6.9635 C   0  0  0  0  0  0  0  0  0  0  0  0
    5.0215    0.6865    8.1892 C   0  0  0  0  0  0  0  0  0  0  0  0
    5.6707    1.7372    8.8570 C   0  0  0  0  0  0  0  0  0  0  0  0
    6.7995    2.1906    8.1917 C   0  0  0  0  0  0  0  0  0  0  0  0
    7.6481    3.3559    8.5812 C   0  0  0  0  0  0  0  0  0  0  0  0
    7.1018    4.6461    7.9718 C   0  0  0  0  0  0  0  0  0  0  0  0
    6.9699    1.2943    6.7841 S   0  0  0  0  0  0  0  0  0  0  0  0
    5.8105   -1.1604    4.8827 C   0  0  0  0  0  0  0  0  0  0  0  0
    6.4289   -0.2425    4.0304 C   0  0  0  0  0  0  0  0  0  0  0  0
    6.6275   -0.6996    2.7267 C   0  0  0  0  0  0  0  0  0  0  0  0
    6.1212   -2.3107    2.6808 S   0  0  0  0  0  0  0  0  0  0  0  0
    5.5723   -2.4011    4.2834 C   0  0  0  0  0  0  0  0  0  0  0  0
    4.7251   -3.3763    4.8751 C   0  0  0  0  0  0  0  0  0  0  0  0
    4.7213   -4.7346    4.3126 C   0  0  0  0  0  0  0  0  0  0  0  0
    5.4773   -5.7748    4.8379 C   0  0  0  0  0  0  0  0  0  0  0  0
    5.6537   -6.8526    3.9563 C   0  0  0  0  0  0  0  0  0  0  0  0
    5.0852   -6.6402    2.7103 C   0  0  0  0  0  0  0  0  0  0  0  0
    5.2512   -7.5271    1.5131 C   0  0  0  0  0  0  0  0  0  0  0  0
    3.9430   -8.2012    1.1237 C   0  0  0  0  0  0  0  0  0  0  0  0
    4.3574   -5.1202    2.7094 S   0  0  0  0  0  0  0  0  0  0  0  0
    3.8916   -2.9289    5.9500 C   0  0  0  0  0  0  0  0  0  0  0  0
    6.7734    0.2584    1.5989 C   0  0  0  0  0  0  0  0  0  0  0  0
    6.8877    0.0608    0.1963 C   0  0  0  0  0  0  0  0  0  0  0  0
    7.1246   -1.1932   -0.4745 N   0  0  0  0  0  0  0  0  0  0  0  0
    8.2457   -1.2496   -1.3889 C   0  0  0  0  0  0  0  0  0  0  0  0
    9.5065   -0.7755   -0.9940 C   0  0  0  0  0  0  0  0  0  0  0  0
   10.5611   -0.7177   -1.9093 C   0  0  0  0  0  0  0  0  0  0  0  0
   10.3759   -1.1422   -3.2311 C   0  0  0  0  0  0  0  0  0  0  0  0
   11.5035   -1.0252   -4.2183 C   0  0  0  0  0  0  0  0  0  0  0  0
    9.1192   -1.6191   -3.6283 C   0  0  0  0  0  0  0  0  0  0  0  0
    8.0639   -1.6681   -2.7188 C   0  0  0  0  0  0  0  0  0  0  0  0
    6.0930   -2.2025   -0.5431 C   0  0  0  0  0  0  0  0  0  0  0  0
    4.7329   -1.8582   -0.4742 C   0  0  0  0  0  0  0  0  0  0  0  0
    3.7448   -2.8379   -0.6124 C   0  0  0  0  0  0  0  0  0  0  0  0
    4.1006   -4.1751   -0.8469 C   0  0  0  0  0  0  0  0  0  0  0  0
    3.0292   -5.2108   -1.0191 C   0  0  0  0  0  0  0  0  0  0  0  0
    5.4560   -4.5181   -0.9289 C   0  0  0  0  0  0  0  0  0  0  0  0
    6.4417   -3.5475   -0.7491 C   0  0  0  0  0  0  0  0  0  0  0  0
    6.8986    1.2922   -0.4879 C   0  0  0  0  0  0  0  0  0  0  0  0
    7.0251    1.7837   -2.0997 S   0  0  0  0  0  0  0  0  0  0  0  0
    6.9514    3.4555   -1.7255 C   0  0  0  0  0  0  0  0  0  0  0  0
    6.8370    3.6116   -0.3467 C   0  0  0  0  0  0  0  0  0  0  0  0
    6.8063    4.8779    0.3319 N   0  0  0  0  0  0  0  0  0  0  0  0
    5.6877    5.1984    1.1858 C   0  0  0  0  0  0  0  0  0  0  0  0
    5.8972    5.7436    2.4612 C   0  0  0  0  0  0  0  0  0  0  0  0
    4.8119    6.0380    3.2943 C   0  0  0  0  0  0  0  0  0  0  0  0
    3.5026    5.7807    2.8648 C   0  0  0  0  0  0  0  0  0  0  0  0
    2.3348    6.1379    3.7356 C   0  0  0  0  0  0  0  0  0  0  0  0
    3.2912    5.2438    1.5859 C   0  0  0  0  0  0  0  0  0  0  0  0
    4.3742    4.9436    0.7605 C   0  0  0  0  0  0  0  0  0  0  0  0
    7.9561    5.7457    0.2599 C   0  0  0  0  0  0  0  0  0  0  0  0
    7.7927    7.1332    0.1511 C   0  0  0  0  0  0  0  0  0  0  0  0
    8.9101    7.9760    0.1159 C   0  0  0  0  0  0  0  0  0  0  0  0
   10.2038    7.4388    0.1775 C   0  0  0  0  0  0  0  0  0  0  0  0
   11.3975    8.3467    0.2130 C   0  0  0  0  0  0  0  0  0  0  0  0
   10.3675    6.0508    0.2857 C   0  0  0  0  0  0  0  0  0  0  0  0
    9.2540    5.2097    0.3173 C   0  0  0  0  0  0  0  0  0  0  0  0
    6.7963    2.3894    0.2974 C   0  0  0  0  0  0  0  0  0  0  0  0
    6.7048    1.9430    1.8896 S   0  0  0  0  0  0  0  0  0  0  0  0
    6.9016    4.5777   -2.6637 C   0  0  0  0  0  0  0  0  0  0  0  0
    5.7254    5.0650   -3.1079 C   0  0  0  0  0  0  0  0  0  0  0  0
    4.4388    4.3768   -2.9686 C   0  0  0  0  0  0  0  0  0  0  0  0
    4.2667    3.1438   -2.7801 O   0  0  0  0  0  0  0  0  0  0  0  0
    3.3783    5.3452   -3.0845 C   0  0  0  0  0  0  0  0  0  0  0  0
    2.0120    5.1248   -2.9408 C   0  0  0  0  0  0  0  0  0  0  0  0
    1.1407    6.2202   -3.0490 C   0  0  0  0  0  0  0  0  0  0  0  0
   -0.2456    6.0436   -2.9082 C   0  0  0  0  0  0  0  0  0  0  0  0
   -1.1045    7.1393   -3.0047 C   0  0  0  0  0  0  0  0  0  0  0  0
   -0.5922    8.4185   -3.2439 C   0  0  0  0  0  0  0  0  0  0  0  0
   -1.4379    9.4773   -3.3359 F   0  0  0  0  0  0  0  0  0  0  0  0
    0.7850    8.6085   -3.3927 C   0  0  0  0  0  0  0  0  0  0  0  0
    1.6629    7.5181   -3.2960 C   0  0  0  0  0  0  0  0  0  0  0  0
    3.0532    7.7044   -3.4399 C   0  0  0  0  0  0  0  0  0  0  0  0
    3.9157    6.5987   -3.3331 C   0  0  0  0  0  0  0  0  0  0  0  0
    5.4071    6.4944   -3.4349 C   0  0  0  0  0  0  0  0  0  0  0  0
    6.2803    7.4846   -3.7677 C   0  0  0  0  0  0  0  0  0  0  0  0
    7.6773    7.2326   -4.0205 C   0  0  0  0  0  0  0  0  0  0  0  0
    8.8043    7.0490   -4.2182 N   0  0  0  0  0  0  0  0  0  0  0  0
    5.8878    8.8549   -3.9525 C   0  0  0  0  0  0  0  0  0  0  0  0
    5.5958    9.9664   -4.0934 N   0  0  0  0  0  0  0  0  0  0  0  0
   -7.4734    4.1147   -7.9408 H   0  0  0  0  0  0  0  0  0  0  0  0
   -3.0544    6.7280   -8.5853 H   0  0  0  0  0  0  0  0  0  0  0  0
   -0.6507    7.2050   -8.1894 H   0  0  0  0  0  0  0  0  0  0  0  0
    1.6653    6.4039   -7.9879 H   0  0  0  0  0  0  0  0  0  0  0  0
    0.4528    2.4310   -9.0538 H   0  0  0  0  0  0  0  0  0  0  0  0
   -1.9269    1.9359   -9.4336 H   0  0  0  0  0  0  0  0  0  0  0  0
   -9.9270    3.5232   -3.4360 H   0  0  0  0  0  0  0  0  0  0  0  0
   -9.6470    5.2928   -1.7551 H   0  0  0  0  0  0  0  0  0  0  0  0
   -8.3651    8.1771   -2.0926 H   0  0  0  0  0  0  0  0  0  0  0  0
   -8.1931    6.9940   -0.7449 H   0  0  0  0  0  0  0  0  0  0  0  0
   -6.7231    7.5725   -1.5923 H   0  0  0  0  0  0  0  0  0  0  0  0
   -6.2670    6.8361   -3.9505 H   0  0  0  0  0  0  0  0  0  0  0  0
   -6.5404    5.0486   -5.6197 H   0  0  0  0  0  0  0  0  0  0  0  0
  -10.3487    5.0540   -6.1784 H   0  0  0  0  0  0  0  0  0  0  0  0
  -12.5786    4.6927   -7.1285 H   0  0  0  0  0  0  0  0  0  0  0  0
  -14.0321    3.1995   -8.5346 H   0  0  0  0  0  0  0  0  0  0  0  0
  -14.4371    2.2208   -7.0680 H   0  0  0  0  0  0  0  0  0  0  0  0
  -13.7509    1.4261   -8.5380 H   0  0  0  0  0  0  0  0  0  0  0  0
  -11.7949    0.4681   -7.4118 H   0  0  0  0  0  0  0  0  0  0  0  0
   -9.5835    0.8107   -6.4352 H   0  0  0  0  0  0  0  0  0  0  0  0
   -4.3945   -4.0161   -7.0415 H   0  0  0  0  0  0  0  0  0  0  0  0
   -2.2449   -4.0994   -8.2008 H   0  0  0  0  0  0  0  0  0  0  0  0
    0.4554   -1.4747   -7.8249 H   0  0  0  0  0  0  0  0  0  0  0  0
    0.2430   -3.2475   -8.0327 H   0  0  0  0  0  0  0  0  0  0  0  0
   -0.4487   -2.1043   -9.2577 H   0  0  0  0  0  0  0  0  0  0  0  0
   -1.1545   -0.3073   -6.4836 H   0  0  0  0  0  0  0  0  0  0  0  0
   -3.2848   -0.2066   -5.3106 H   0  0  0  0  0  0  0  0  0  0  0  0
   -7.0506   -1.9230   -7.5169 H   0  0  0  0  0  0  0  0  0  0  0  0
   -8.9926   -3.3810   -7.8764 H   0  0  0  0  0  0  0  0  0  0  0  0
   -9.7862   -6.3845   -5.7180 H   0  0  0  0  0  0  0  0  0  0  0  0
  -10.7117   -4.8843   -6.0985 H   0  0  0  0  0  0  0  0  0  0  0  0
   -9.8906   -5.8044   -7.4198 H   0  0  0  0  0  0  0  0  0  0  0  0
   -7.8905   -5.6930   -4.4096 H   0  0  0  0  0  0  0  0  0  0  0  0
   -5.9665   -4.2172   -4.0424 H   0  0  0  0  0  0  0  0  0  0  0  0
   -4.4379   -2.7921   -3.0743 H   0  0  0  0  0  0  0  0  0  0  0  0
   -5.0256   -5.3381   -2.1362 H   0  0  0  0  0  0  0  0  0  0  0  0
   -3.6726   -7.0785   -3.4830 H   0  0  0  0  0  0  0  0  0  0  0  0
   -1.3073   -7.9989   -3.7676 H   0  0  0  0  0  0  0  0  0  0  0  0
   -0.1488   -7.5972   -2.4548 H   0  0  0  0  0  0  0  0  0  0  0  0
    0.6608   -5.6238   -3.6666 H   0  0  0  0  0  0  0  0  0  0  0  0
   -0.6476   -5.7976   -4.9098 H   0  0  0  0  0  0  0  0  0  0  0  0
    0.6641   -7.0307   -4.8056 H   0  0  0  0  0  0  0  0  0  0  0  0
   -0.6503   -5.5219    4.5870 H   0  0  0  0  0  0  0  0  0  0  0  0
    1.3712   -5.7654    3.7036 H   0  0  0  0  0  0  0  0  0  0  0  0
    1.7023   -8.1108    3.1184 H   0  0  0  0  0  0  0  0  0  0  0  0
    2.7839  -10.2704    3.5410 H   0  0  0  0  0  0  0  0  0  0  0  0
    3.9095  -10.4346    4.9334 H   0  0  0  0  0  0  0  0  0  0  0  0
    1.9631  -11.9478    5.1861 H   0  0  0  0  0  0  0  0  0  0  0  0
    1.9237  -10.6847    6.4771 H   0  0  0  0  0  0  0  0  0  0  0  0
    0.8236  -10.5559    5.0372 H   0  0  0  0  0  0  0  0  0  0  0  0
    3.8513   -8.7299    6.7979 H   0  0  0  0  0  0  0  0  0  0  0  0
    3.4150   -6.4283    7.4438 H   0  0  0  0  0  0  0  0  0  0  0  0
    2.8188   -3.9790    8.8147 H   0  0  0  0  0  0  0  0  0  0  0  0
    1.7731   -4.1142   10.9965 H   0  0  0  0  0  0  0  0  0  0  0  0
   -1.4446   -5.8683   11.7374 H   0  0  0  0  0  0  0  0  0  0  0  0
    0.0240   -5.1266   12.4593 H   0  0  0  0  0  0  0  0  0  0  0  0
   -1.9933   -3.6441   12.6722 H   0  0  0  0  0  0  0  0  0  0  0  0
   -0.6913   -2.8666   11.6956 H   0  0  0  0  0  0  0  0  0  0  0  0
   -2.1401   -3.5805   10.8704 H   0  0  0  0  0  0  0  0  0  0  0  0
   -1.5744   -6.2179    9.2959 H   0  0  0  0  0  0  0  0  0  0  0  0
   -0.5080   -6.1519    7.0991 H   0  0  0  0  0  0  0  0  0  0  0  0
   -0.3961   -0.6601    5.8247 H   0  0  0  0  0  0  0  0  0  0  0  0
   -3.4973    1.0756    3.1427 H   0  0  0  0  0  0  0  0  0  0  0  0
   -5.0189    2.4605    4.4549 H   0  0  0  0  0  0  0  0  0  0  0  0
   -6.7272    1.2703    7.5594 H   0  0  0  0  0  0  0  0  0  0  0  0
   -6.8233    2.4061    6.1797 H   0  0  0  0  0  0  0  0  0  0  0  0
   -4.8045    3.6492    7.0646 H   0  0  0  0  0  0  0  0  0  0  0  0
   -4.7830    2.5268    8.4863 H   0  0  0  0  0  0  0  0  0  0  0  0
   -6.1956    3.6231    8.2195 H   0  0  0  0  0  0  0  0  0  0  0  0
   -4.9924   -0.4605    7.6066 H   0  0  0  0  0  0  0  0  0  0  0  0
   -3.4814   -1.8679    6.3153 H   0  0  0  0  0  0  0  0  0  0  0  0
   -1.2035    1.1348    4.3232 H   0  0  0  0  0  0  0  0  0  0  0  0
    0.7779    2.1086    3.3409 H   0  0  0  0  0  0  0  0  0  0  0  0
    3.0821    0.1813    1.2978 H   0  0  0  0  0  0  0  0  0  0  0  0
    2.8324    1.7414    2.1575 H   0  0  0  0  0  0  0  0  0  0  0  0
    3.2898    2.1026   -0.2546 H   0  0  0  0  0  0  0  0  0  0  0  0
    1.6330    2.6686    0.1623 H   0  0  0  0  0  0  0  0  0  0  0  0
    1.8696    1.0923   -0.7132 H   0  0  0  0  0  0  0  0  0  0  0  0
    1.0018   -1.1399    0.5333 H   0  0  0  0  0  0  0  0  0  0  0  0
   -0.9959   -2.1094    1.4691 H   0  0  0  0  0  0  0  0  0  0  0  0
   -6.0484    1.0575    1.4607 H   0  0  0  0  0  0  0  0  0  0  0  0
   -7.8427    1.4573    3.2735 H   0  0  0  0  0  0  0  0  0  0  0  0
   -8.4433    0.4233    5.7035 H   0  0  0  0  0  0  0  0  0  0  0  0
   -9.3944   -0.8052    4.8045 H   0  0  0  0  0  0  0  0  0  0  0  0
   -6.9946   -1.4829    6.6140 H   0  0  0  0  0  0  0  0  0  0  0  0
   -8.7083   -1.5214    7.1514 H   0  0  0  0  0  0  0  0  0  0  0  0
   -8.1423   -2.6491    5.8430 H   0  0  0  0  0  0  0  0  0  0  0  0
    4.1709    0.1891    8.6368 H   0  0  0  0  0  0  0  0  0  0  0  0
    5.3299    2.1368    9.8038 H   0  0  0  0  0  0  0  0  0  0  0  0
    7.6808    3.4503    9.6875 H   0  0  0  0  0  0  0  0  0  0  0  0
    8.6874    3.1942    8.2204 H   0  0  0  0  0  0  0  0  0  0  0  0
    7.0643    4.5677    6.8630 H   0  0  0  0  0  0  0  0  0  0  0  0
    6.0777    4.8465    8.3555 H   0  0  0  0  0  0  0  0  0  0  0  0
    7.7572    5.4943    8.2523 H   0  0  0  0  0  0  0  0  0  0  0  0
    6.5270    0.7964    4.2803 H   0  0  0  0  0  0  0  0  0  0  0  0
    5.9396   -5.7412    5.8140 H   0  0  0  0  0  0  0  0  0  0  0  0
    6.2300   -7.7324    4.2074 H   0  0  0  0  0  0  0  0  0  0  0  0
    5.6094   -6.9151    0.6672 H   0  0  0  0  0  0  0  0  0  0  0  0
    6.0204   -8.3052    1.7165 H   0  0  0  0  0  0  0  0  0  0  0  0
    3.1181   -7.4588    1.0528 H   0  0  0  0  0  0  0  0  0  0  0  0
    4.0581   -8.7025    0.1388 H   0  0  0  0  0  0  0  0  0  0  0  0
    3.6883   -8.9699    1.8804 H   0  0  0  0  0  0  0  0  0  0  0  0
    9.6642   -0.4314    0.0203 H   0  0  0  0  0  0  0  0  0  0  0  0
   11.5232   -0.3309   -1.5883 H   0  0  0  0  0  0  0  0  0  0  0  0
   11.2381   -1.4932   -5.1881 H   0  0  0  0  0  0  0  0  0  0  0  0
   11.7352    0.0457   -4.3897 H   0  0  0  0  0  0  0  0  0  0  0  0
   12.4007   -1.5360   -3.8135 H   0  0  0  0  0  0  0  0  0  0  0  0
    8.9494   -1.9338   -4.6548 H   0  0  0  0  0  0  0  0  0  0  0  0
    7.0918   -2.0013   -3.0658 H   0  0  0  0  0  0  0  0  0  0  0  0
    4.4318   -0.8285   -0.3445 H   0  0  0  0  0  0  0  0  0  0  0  0
    2.7022   -2.5532   -0.5583 H   0  0  0  0  0  0  0  0  0  0  0  0
    2.4158   -5.2637   -0.0941 H   0  0  0  0  0  0  0  0  0  0  0  0
    2.3777   -4.9378   -1.8736 H   0  0  0  0  0  0  0  0  0  0  0  0
    3.4649   -6.2138   -1.2125 H   0  0  0  0  0  0  0  0  0  0  0  0
    5.7550   -5.5364   -1.1504 H   0  0  0  0  0  0  0  0  0  0  0  0
    7.4823   -3.8424   -0.8000 H   0  0  0  0  0  0  0  0  0  0  0  0
    6.9003    5.9316    2.8206 H   0  0  0  0  0  0  0  0  0  0  0  0
    4.9963    6.4586    4.2763 H   0  0  0  0  0  0  0  0  0  0  0  0
    1.4963    5.4275    3.5729 H   0  0  0  0  0  0  0  0  0  0  0  0
    2.6152    6.1009    4.8091 H   0  0  0  0  0  0  0  0  0  0  0  0
    1.9906    7.1645    3.4852 H   0  0  0  0  0  0  0  0  0  0  0  0
    2.2848    5.0583    1.2295 H   0  0  0  0  0  0  0  0  0  0  0  0
    4.1893    4.5248   -0.2172 H   0  0  0  0  0  0  0  0  0  0  0  0
    6.8012    7.5661    0.0931 H   0  0  0  0  0  0  0  0  0  0  0  0
    8.7623    9.0462    0.0469 H   0  0  0  0  0  0  0  0  0  0  0  0
   11.6113    8.6327    1.2658 H   0  0  0  0  0  0  0  0  0  0  0  0
   11.2078    9.2668   -0.3769 H   0  0  0  0  0  0  0  0  0  0  0  0
   12.2904    7.8401   -0.2114 H   0  0  0  0  0  0  0  0  0  0  0  0
   11.3598    5.6210    0.3574 H   0  0  0  0  0  0  0  0  0  0  0  0
    9.4050    4.1417    0.4126 H   0  0  0  0  0  0  0  0  0  0  0  0
    7.7826    5.1852   -2.6561 H   0  0  0  0  0  0  0  0  0  0  0  0
    1.6372    4.1287   -2.7394 H   0  0  0  0  0  0  0  0  0  0  0  0
   -0.6618    5.0622   -2.7177 H   0  0  0  0  0  0  0  0  0  0  0  0
   -2.1732    6.9975   -2.8952 H   0  0  0  0  0  0  0  0  0  0  0  0
    1.1628    9.6083   -3.5733 H   0  0  0  0  0  0  0  0  0  0  0  0
    3.4225    8.6956   -3.6182 H   0  0  0  0  0  0  0  0  0  0  0  0
  1  2  2  3
  2  3  1  0
  3  4  2  0
  3  5  1  0
  5  6  2  0
  6  7  1  0
  7  8  2  0
  8  9  1  0
  9 10  2  0
 10 11  1  0
 10 12  1  0
 12 13  2  0
 13 14  1  0
 14 15  2  0
 15 16  1  0
 16 17  2  3
 17 18  1  0
 18 19  3  0
 17 20  1  0
 20 21  3  0
  1 22  1  0
 22 23  2  0
 23 24  1  0
 24 25  1  0
 25 26  2  0
 26 27  1  0
 27 28  2  0
 28 29  1  0
 28 30  1  0
 30 31  2  0
 24 32  1  0
 32 33  2  0
 33 34  1  0
 34 35  2  0
 35 36  1  0
 35 37  1  0
 37 38  2  0
 23 39  1  0
 39 40  1  0
 40 41  1  0
 41 42  2  0
 42 43  1  0
 43 44  1  0
 44 45  2  0
 45 46  1  0
 46 47  2  0
 47 48  1  0
 47 49  1  0
 49 50  2  0
 43 51  1  0
 51 52  2  0
 52 53  1  0
 53 54  2  0
 54 55  1  0
 54 56  1  0
 56 57  2  0
 42 58  1  0
 58 59  1  0
 41 60  1  0
 60 61  2  0
 61 62  1  0
 62 63  2  0
 63 64  1  0
 64 65  2  0
 65 66  1  0
 66 67  2  0
 67 68  1  0
 68 69  1  0
 67 70  1  0
 63 71  1  0
 71 72  1  0
 72 73  1  0
 73 74  1  0
 74 75  2  0
 75 76  1  0
 76 77  1  0
 77 78  1  0
 78 79  2  0
 79 80  1  0
 80 81  2  0
 81 82  1  0
 82 83  1  0
 81 84  1  0
 84 85  2  0
 77 86  1  0
 86 87  2  0
 87 88  1  0
 88 89  2  0
 89 90  1  0
 90 91  1  0
 89 92  1  0
 92 93  2  0
 77 94  1  0
 94 95  2  0
 95 96  1  0
 96 97  1  0
 97 98  2  0
 98 99  1  0
 99100  1  0
100101  2  0
101102  1  0
102103  2  0
103104  1  0
104105  1  0
103106  1  0
106107  2  0
 99108  1  0
108109  2  0
109110  1  0
110111  2  0
111112  1  0
112113  1  0
111114  1  0
114115  2  0
 99116  1  0
116117  1  0
117118  1  0
118119  2  0
119120  1  0
118121  1  0
121122  2  0
122123  1  0
123124  2  0
124125  1  0
125126  1  0
124127  1  0
 95128  1  0
128129  1  0
129130  2  0
130131  1  0
131132  2  0
132133  1  0
133134  2  0
134135  1  0
135136  1  0
134137  1  0
130138  1  0
138139  1  0
139140  2  0
140141  1  0
141142  1  0
142143  1  0
143144  1  0
144145  2  0
145146  1  0
146147  2  0
147148  1  0
148149  1  0
147150  1  0
143151  2  0
140152  1  0
152153  2  0
153154  1  0
154155  1  0
155156  2  0
156157  1  0
157158  2  0
158159  1  0
158160  1  0
160161  2  0
154162  1  0
162163  2  0
163164  1  0
164165  2  0
165166  1  0
165167  1  0
167168  2  0
153169  1  0
169170  1  0
170171  1  0
171172  2  0
172173  1  0
173174  1  0
174175  2  0
175176  1  0
176177  2  0
177178  1  0
177179  1  0
179180  2  0
173181  1  0
181182  2  0
182183  1  0
183184  2  0
184185  1  0
184186  1  0
186187  2  0
172188  1  0
188189  1  0
171190  1  0
190191  2  3
191192  1  0
192193  2  0
192194  1  0
194195  2  0
195196  1  0
196197  2  0
197198  1  0
198199  2  0
199200  1  0
199201  1  0
201202  2  0
202203  1  0
203204  2  0
204205  1  0
205206  2  3
206207  1  0
207208  3  0
206209  1  0
209210  3  0
 16  2  1  0
 59 22  1  0
120 60  1  0
127121  1  0
151129  1  0
189152  1  0
205191  1  0
 15  5  1  0
 31 25  1  0
 38 32  1  0
 58 39  2  0
119 62  1  0
137131  1  0
142138  2  0
150144  1  0
161155  1  0
168162  1  0
188169  2  0
204194  1  0
 13  7  1  0
 50 44  1  0
 57 51  1  0
 70 64  1  0
117 71  2  0
180174  1  0
187181  1  0
202196  1  0
116 73  2  0
 98 74  1  0
107100  1  0
115108  1  0
 96 76  2  0
 85 78  1  0
 93 86  1  0
151 94  1  0
  1211  1  0
  6212  1  0
  8213  1  0
  9214  1  0
 12215  1  0
 14216  1  0
 26217  1  0
 27218  1  0
 29219  1  0
 29220  1  0
 29221  1  0
 30222  1  0
 31223  1  0
 33224  1  0
 34225  1  0
 36226  1  0
 36227  1  0
 36228  1  0
 37229  1  0
 38230  1  0
 45231  1  0
 46232  1  0
 48233  1  0
 48234  1  0
 48235  1  0
 49236  1  0
 50237  1  0
 52238  1  0
 53239  1  0
 55240  1  0
 55241  1  0
 55242  1  0
 56243  1  0
 57244  1  0
 61245  1  0
 65246  1  0
 66247  1  0
 68248  1  0
 68249  1  0
 69250  1  0
 69251  1  0
 69252  1  0
 75253  1  0
 79254  1  0
 80255  1  0
 82256  1  0
 82257  1  0
 83258  1  0
 83259  1  0
 83260  1  0
 84261  1  0
 85262  1  0
 87263  1  0
 88264  1  0
 90265  1  0
 90266  1  0
 91267  1  0
 91268  1  0
 91269  1  0
 92270  1  0
 93271  1  0
 97272  1  0
101273  1  0
102274  1  0
104275  1  0
104276  1  0
105277  1  0
105278  1  0
105279  1  0
106280  1  0
107281  1  0
109282  1  0
110283  1  0
112284  1  0
112285  1  0
113286  1  0
113287  1  0
113288  1  0
114289  1  0
115290  1  0
122291  1  0
123292  1  0
125293  1  0
125294  1  0
126295  1  0
126296  1  0
126297  1  0
132298  1  0
133299  1  0
135300  1  0
135301  1  0
136302  1  0
136303  1  0
136304  1  0
139305  1  0
145306  1  0
146307  1  0
148308  1  0
148309  1  0
149310  1  0
149311  1  0
149312  1  0
156313  1  0
157314  1  0
159315  1  0
159316  1  0
159317  1  0
160318  1  0
161319  1  0
163320  1  0
164321  1  0
166322  1  0
166323  1  0
166324  1  0
167325  1  0
168326  1  0
175327  1  0
176328  1  0
178329  1  0
178330  1  0
178331  1  0
179332  1  0
180333  1  0
182334  1  0
183335  1  0
185336  1  0
185337  1  0
185338  1  0
186339  1  0
187340  1  0
190341  1  0
195342  1  0
197343  1  0
198344  1  0
201345  1  0
203346  1  0
M  END

