
     RDKit          3D

290317  0  0  0  0  0  0  0  0999 V2000
   -1.6121   -6.4700    4.5845 C   0  0  0  0  0  0  0  0  0  0  0  0
   -2.1044   -6.1984    5.8046 C   0  0  0  0  0  0  0  0  0  0  0  0
   -3.5372   -6.2132    6.0968 C   0  0  0  0  0  0  0  0  0  0  0  0
   -4.4401   -6.7097    5.3702 O   0  0  0  0  0  0  0  0  0  0  0  0
   -3.7676   -5.4893    7.3319 C   0  0  0  0  0  0  0  0  0  0  0  0
   -4.9834   -5.2186    7.9656 C   0  0  0  0  0  0  0  0  0  0  0  0
   -4.9695   -4.4790    9.1620 C   0  0  0  0  0  0  0  0  0  0  0  0
   -6.1672   -4.1924    9.8393 C   0  0  0  0  0  0  0  0  0  0  0  0
   -6.1395   -3.4450   11.0208 C   0  0  0  0  0  0  0  0  0  0  0  0
   -4.9244   -2.9785   11.5401 C   0  0  0  0  0  0  0  0  0  0  0  0
   -4.9091   -2.2513   12.6842 F   0  0  0  0  0  0  0  0  0  0  0  0
   -3.7244   -3.2580   10.8779 C   0  0  0  0  0  0  0  0  0  0  0  0
   -3.7286   -4.0036    9.6847 C   0  0  0  0  0  0  0  0  0  0  0  0
   -2.5228   -4.2787    9.0091 C   0  0  0  0  0  0  0  0  0  0  0  0
   -2.5566   -5.0595    7.8469 C   0  0  0  0  0  0  0  0  0  0  0  0
   -1.4380   -5.5902    7.0044 C   0  0  0  0  0  0  0  0  0  0  0  0
   -0.2057   -5.9124    7.4767 C   0  0  0  0  0  0  0  0  0  0  0  0
    0.3166   -5.4035    8.7188 C   0  0  0  0  0  0  0  0  0  0  0  0
    0.7524   -5.0105    9.7199 N   0  0  0  0  0  0  0  0  0  0  0  0
    0.5569   -7.0044    6.9305 C   0  0  0  0  0  0  0  0  0  0  0  0
    1.1784   -7.8919    6.5306 N   0  0  0  0  0  0  0  0  0  0  0  0
   -0.3314   -5.9795    4.0624 C   0  0  0  0  0  0  0  0  0  0  0  0
   -0.0603   -4.6553    3.6665 C   0  0  0  0  0  0  0  0  0  0  0  0
   -0.9306   -3.5395    3.8857 N   0  0  0  0  0  0  0  0  0  0  0  0
   -2.2443   -3.4964    3.2795 C   0  0  0  0  0  0  0  0  0  0  0  0
   -3.3227   -2.9013    3.9656 C   0  0  0  0  0  0  0  0  0  0  0  0
   -4.5592   -2.7395    3.3320 C   0  0  0  0  0  0  0  0  0  0  0  0
   -4.7476   -3.2019    2.0173 C   0  0  0  0  0  0  0  0  0  0  0  0
   -6.0531   -2.9598    1.3160 C   0  0  0  0  0  0  0  0  0  0  0  0
   -3.6848   -3.8227    1.3431 C   0  0  0  0  0  0  0  0  0  0  0  0
   -2.4482   -3.9913    1.9791 C   0  0  0  0  0  0  0  0  0  0  0  0
   -0.4367   -2.4207    4.6526 C   0  0  0  0  0  0  0  0  0  0  0  0
   -0.7051   -1.0991    4.2549 C   0  0  0  0  0  0  0  0  0  0  0  0
   -0.1521   -0.0217    4.9489 C   0  0  0  0  0  0  0  0  0  0  0  0
    0.6758   -0.2466    6.0596 C   0  0  0  0  0  0  0  0  0  0  0  0
    1.2486    0.9105    6.8164 C   0  0  0  0  0  0  0  0  0  0  0  0
    0.9090   -1.5615    6.4949 C   0  0  0  0  0  0  0  0  0  0  0  0
    0.3714   -2.6388    5.7879 C   0  0  0  0  0  0  0  0  0  0  0  0
    1.2160   -4.5439    3.1120 C   0  0  0  0  0  0  0  0  0  0  0  0
    2.2025   -3.2661    2.6525 S   0  0  0  0  0  0  0  0  0  0  0  0
    3.5585   -4.2397    2.3378 C   0  0  0  0  0  0  0  0  0  0  0  0
    3.2587   -5.5759    2.6562 C   0  0  0  0  0  0  0  0  0  0  0  0
    4.2534   -6.5058    3.1249 N   0  0  0  0  0  0  0  0  0  0  0  0
    4.7906   -7.5080    2.2472 C   0  0  0  0  0  0  0  0  0  0  0  0
    3.9754   -8.1358    1.2856 C   0  0  0  0  0  0  0  0  0  0  0  0
    4.4812   -9.1748    0.4958 C   0  0  0  0  0  0  0  0  0  0  0  0
    5.8185   -9.5802    0.6411 C   0  0  0  0  0  0  0  0  0  0  0  0
    6.3421  -10.7447   -0.1464 C   0  0  0  0  0  0  0  0  0  0  0  0
    6.6344   -8.9482    1.5906 C   0  0  0  0  0  0  0  0  0  0  0  0
    6.1254   -7.9182    2.3868 C   0  0  0  0  0  0  0  0  0  0  0  0
    4.4836   -6.5616    4.5547 C   0  0  0  0  0  0  0  0  0  0  0  0
    4.6187   -5.3701    5.2898 C   0  0  0  0  0  0  0  0  0  0  0  0
    4.6785   -5.3945    6.6834 C   0  0  0  0  0  0  0  0  0  0  0  0
    4.6269   -6.6163    7.3738 C   0  0  0  0  0  0  0  0  0  0  0  0
    4.5951   -6.6239    8.8711 C   0  0  0  0  0  0  0  0  0  0  0  0
    4.5050   -7.8137    6.6475 C   0  0  0  0  0  0  0  0  0  0  0  0
    4.4406   -7.7878    5.2460 C   0  0  0  0  0  0  0  0  0  0  0  0
    1.9175   -5.6990    3.0354 C   0  0  0  0  0  0  0  0  0  0  0  0
    0.9857   -6.9598    3.6214 S   0  0  0  0  0  0  0  0  0  0  0  0
    4.8809   -3.6700    2.0406 C   0  0  0  0  0  0  0  0  0  0  0  0
    5.4868   -3.7067    0.7798 C   0  0  0  0  0  0  0  0  0  0  0  0
    6.3939   -2.6479    0.5784 C   0  0  0  0  0  0  0  0  0  0  0  0
    6.7435   -1.9134   -0.7162 C   0  0  0  0  0  0  0  0  0  0  0  0
    5.6499   -2.1147   -1.7651 C   0  0  0  0  0  0  0  0  0  0  0  0
    4.3245   -1.7350   -1.4625 C   0  0  0  0  0  0  0  0  0  0  0  0
    3.3173   -1.8358   -2.4187 C   0  0  0  0  0  0  0  0  0  0  0  0
    3.5887   -2.3388   -3.6975 C   0  0  0  0  0  0  0  0  0  0  0  0
    2.4891   -2.4248   -4.7194 C   0  0  0  0  0  0  0  0  0  0  0  0
    2.2186   -3.8715   -5.1285 C   0  0  0  0  0  0  0  0  0  0  0  0
    4.9034   -2.7281   -4.0135 C   0  0  0  0  0  0  0  0  0  0  0  0
    5.9214   -2.6194   -3.0581 C   0  0  0  0  0  0  0  0  0  0  0  0
    8.1506   -2.3489   -1.1418 C   0  0  0  0  0  0  0  0  0  0  0  0
    9.1947   -1.4178   -1.3567 C   0  0  0  0  0  0  0  0  0  0  0  0
   10.5065   -1.8457   -1.5845 C   0  0  0  0  0  0  0  0  0  0  0  0
   10.8094   -3.2146   -1.6123 C   0  0  0  0  0  0  0  0  0  0  0  0
   12.2338   -3.6695   -1.7838 C   0  0  0  0  0  0  0  0  0  0  0  0
   12.5662   -3.8554   -3.2596 C   0  0  0  0  0  0  0  0  0  0  0  0
    9.7714   -4.1515   -1.4767 C   0  0  0  0  0  0  0  0  0  0  0  0
    8.4607   -3.7240   -1.2451 C   0  0  0  0  0  0  0  0  0  0  0  0
    6.7505   -0.4769   -0.1769 C   0  0  0  0  0  0  0  0  0  0  0  0
    6.7482   -0.4867    1.2039 C   0  0  0  0  0  0  0  0  0  0  0  0
    6.5399   -1.8310    1.6744 C   0  0  0  0  0  0  0  0  0  0  0  0
    5.4752   -2.3283    2.8710 S   0  0  0  0  0  0  0  0  0  0  0  0
    6.0189    0.8998    1.8033 S   0  0  0  0  0  0  0  0  0  0  0  0
    5.7728    1.5954    0.2853 C   0  0  0  0  0  0  0  0  0  0  0  0
    4.9358    2.6793    0.0093 C   0  0  0  0  0  0  0  0  0  0  0  0
    4.3943    3.4566    1.0352 O   0  0  0  0  0  0  0  0  0  0  0  0
    5.1635    4.1224    2.0327 C   0  0  0  0  0  0  0  0  0  0  0  0
    4.3195    4.2606    3.2949 C   0  0  0  0  0  0  0  0  0  0  0  0
    4.5670    2.8911   -1.3329 C   0  0  0  0  0  0  0  0  0  0  0  0
    5.1479    2.1313   -2.3688 C   0  0  0  0  0  0  0  0  0  0  0  0
    6.0113    1.0422   -2.0897 C   0  0  0  0  0  0  0  0  0  0  0  0
    6.2360    0.7308   -0.7223 C   0  0  0  0  0  0  0  0  0  0  0  0
    6.5742    0.2492   -3.1012 O   0  0  0  0  0  0  0  0  0  0  0  0
    7.2562    0.7495   -4.2550 C   0  0  0  0  0  0  0  0  0  0  0  0
    8.6984    1.0939   -3.8964 C   0  0  0  0  0  0  0  0  0  0  0  0
    4.4026    2.5795   -3.8381 S   0  0  0  0  0  0  0  0  0  0  0  0
    3.4461    3.7894   -3.1542 C   0  0  0  0  0  0  0  0  0  0  0  0
    2.1490    4.3274   -3.5033 C   0  0  0  0  0  0  0  0  0  0  0  0
    1.4304    4.5233   -2.3623 C   0  0  0  0  0  0  0  0  0  0  0  0
    2.1846    4.0348   -1.1407 C   0  0  0  0  0  0  0  0  0  0  0  0
    3.5456    3.7455   -1.7833 C   0  0  0  0  0  0  0  0  0  0  0  0
    1.6108    2.6907   -0.6523 C   0  0  0  0  0  0  0  0  0  0  0  0
    1.6465    2.2946    0.7048 C   0  0  0  0  0  0  0  0  0  0  0  0
    1.1865    1.0356    1.1071 C   0  0  0  0  0  0  0  0  0  0  0  0
    0.6877    0.1214    0.1663 C   0  0  0  0  0  0  0  0  0  0  0  0
    0.0435   -1.1554    0.6181 C   0  0  0  0  0  0  0  0  0  0  0  0
    0.4961   -2.3722   -0.1819 C   0  0  0  0  0  0  0  0  0  0  0  0
    0.6472    0.5067   -1.1856 C   0  0  0  0  0  0  0  0  0  0  0  0
    1.1357    1.7427   -1.5933 C   0  0  0  0  0  0  0  0  0  0  0  0
    2.1516    5.1502   -0.1010 C   0  0  0  0  0  0  0  0  0  0  0  0
    0.9708    5.3498    0.6453 C   0  0  0  0  0  0  0  0  0  0  0  0
    0.8932    6.3581    1.6045 C   0  0  0  0  0  0  0  0  0  0  0  0
    1.9860    7.2014    1.8284 C   0  0  0  0  0  0  0  0  0  0  0  0
    1.8779    8.2905    2.8575 C   0  0  0  0  0  0  0  0  0  0  0  0
    1.4626    9.5997    2.1994 C   0  0  0  0  0  0  0  0  0  0  0  0
    3.1396    7.0716    1.0372 C   0  0  0  0  0  0  0  0  0  0  0  0
    3.2155    6.0568    0.0695 C   0  0  0  0  0  0  0  0  0  0  0  0
    0.0732    4.7766   -2.5630 C   0  0  0  0  0  0  0  0  0  0  0  0
   -0.2639    4.7390   -3.9139 C   0  0  0  0  0  0  0  0  0  0  0  0
    1.1222    4.3440   -4.8283 S   0  0  0  0  0  0  0  0  0  0  0  0
   -1.6503    4.8308   -4.4158 C   0  0  0  0  0  0  0  0  0  0  0  0
   -2.2556    3.9440   -5.3289 C   0  0  0  0  0  0  0  0  0  0  0  0
   -1.6665    2.6780   -5.6770 N   0  0  0  0  0  0  0  0  0  0  0  0
   -1.8724    1.5260   -4.8013 C   0  0  0  0  0  0  0  0  0  0  0  0
   -2.4358    1.6813   -3.5083 C   0  0  0  0  0  0  0  0  0  0  0  0
   -2.6589    0.5844   -2.6817 C   0  0  0  0  0  0  0  0  0  0  0  0
   -2.2998   -0.7026   -3.1006 C   0  0  0  0  0  0  0  0  0  0  0  0
   -2.5860   -1.8783   -2.2257 C   0  0  0  0  0  0  0  0  0  0  0  0
   -1.7453   -0.8822   -4.3743 C   0  0  0  0  0  0  0  0  0  0  0  0
   -1.5671    0.2117   -5.2271 C   0  0  0  0  0  0  0  0  0  0  0  0
   -0.8951    2.6042   -6.8988 C   0  0  0  0  0  0  0  0  0  0  0  0
    0.3613    1.9678   -6.9226 C   0  0  0  0  0  0  0  0  0  0  0  0
    1.0950    1.8791   -8.1086 C   0  0  0  0  0  0  0  0  0  0  0  0
    0.6063    2.4612   -9.2865 C   0  0  0  0  0  0  0  0  0  0  0  0
    1.3978    2.3395  -10.5565 C   0  0  0  0  0  0  0  0  0  0  0  0
   -0.6317    3.1341   -9.2660 C   0  0  0  0  0  0  0  0  0  0  0  0
   -1.3711    3.2136   -8.0765 C   0  0  0  0  0  0  0  0  0  0  0  0
   -3.6366    4.1455   -5.3930 C   0  0  0  0  0  0  0  0  0  0  0  0
   -4.8923    3.2224   -6.0133 S   0  0  0  0  0  0  0  0  0  0  0  0
   -6.1314    4.0499   -5.1813 C   0  0  0  0  0  0  0  0  0  0  0  0
   -5.5368    5.0333   -4.3493 C   0  0  0  0  0  0  0  0  0  0  0  0
   -6.2143    5.7169   -3.2756 N   0  0  0  0  0  0  0  0  0  0  0  0
   -5.8571    7.0873   -2.9917 C   0  0  0  0  0  0  0  0  0  0  0  0
   -5.6188    7.5020   -1.6684 C   0  0  0  0  0  0  0  0  0  0  0  0
   -5.1799    8.8038   -1.4018 C   0  0  0  0  0  0  0  0  0  0  0  0
   -4.9435    9.7038   -2.4590 C   0  0  0  0  0  0  0  0  0  0  0  0
   -4.5122   11.1090   -2.1684 C   0  0  0  0  0  0  0  0  0  0  0  0
   -5.1957    9.3006   -3.7780 C   0  0  0  0  0  0  0  0  0  0  0  0
   -5.6390    7.9999   -4.0397 C   0  0  0  0  0  0  0  0  0  0  0  0
   -7.1495    4.9904   -2.4304 C   0  0  0  0  0  0  0  0  0  0  0  0
   -8.2410    5.6421   -1.8252 C   0  0  0  0  0  0  0  0  0  0  0  0
   -9.2093    4.9112   -1.1243 C   0  0  0  0  0  0  0  0  0  0  0  0
   -9.0879    3.5221   -0.9933 C   0  0  0  0  0  0  0  0  0  0  0  0
  -10.1241    2.7355   -0.2408 C   0  0  0  0  0  0  0  0  0  0  0  0
   -7.9391    2.8811   -1.4915 C   0  0  0  0  0  0  0  0  0  0  0  0
   -6.9755    3.6098   -2.1963 C   0  0  0  0  0  0  0  0  0  0  0  0
   -4.1401    5.0767   -4.5378 C   0  0  0  0  0  0  0  0  0  0  0  0
   -2.8742    5.7499   -3.6544 S   0  0  0  0  0  0  0  0  0  0  0  0
   -7.5556    3.6502   -5.3133 C   0  0  0  0  0  0  0  0  0  0  0  0
   -8.4788    4.4096   -5.9276 C   0  0  0  0  0  0  0  0  0  0  0  0
   -9.4520    3.7119   -6.7869 C   0  0  0  0  0  0  0  0  0  0  0  0
  -10.2447    2.8184   -6.4004 O   0  0  0  0  0  0  0  0  0  0  0  0
   -9.1969    4.1099   -8.1755 C   0  0  0  0  0  0  0  0  0  0  0  0
   -8.2915    5.1484   -8.1576 C   0  0  0  0  0  0  0  0  0  0  0  0
   -7.6915    5.6019   -9.3423 C   0  0  0  0  0  0  0  0  0  0  0  0
   -8.0646    5.0073  -10.5583 C   0  0  0  0  0  0  0  0  0  0  0  0
   -9.0429    3.9817  -10.5866 C   0  0  0  0  0  0  0  0  0  0  0  0
   -9.4874    3.1778  -12.2735 Br  0  0  0  0  0  0  0  0  0  0  0  0
   -9.6349    3.5305   -9.3790 C   0  0  0  0  0  0  0  0  0  0  0  0
  -10.8689    2.2635   -9.3701 Cl  0  0  0  0  0  0  0  0  0  0  0  0
   -8.0604    5.5642   -6.7614 C   0  0  0  0  0  0  0  0  0  0  0  0
   -8.1597    6.8486   -6.3703 C   0  0  0  0  0  0  0  0  0  0  0  0
   -7.9814    7.9477   -7.2910 C   0  0  0  0  0  0  0  0  0  0  0  0
   -7.9191    8.8421   -8.0172 N   0  0  0  0  0  0  0  0  0  0  0  0
   -8.7032    7.1996   -5.0958 C   0  0  0  0  0  0  0  0  0  0  0  0
   -9.1960    7.5392   -4.0959 N   0  0  0  0  0  0  0  0  0  0  0  0
   -2.2678   -6.9141    3.8531 H   0  0  0  0  0  0  0  0  0  0  0  0
   -5.9111   -5.5762    7.5270 H   0  0  0  0  0  0  0  0  0  0  0  0
   -7.1203   -4.5431    9.4565 H   0  0  0  0  0  0  0  0  0  0  0  0
   -7.0649   -3.2294   11.5366 H   0  0  0  0  0  0  0  0  0  0  0  0
   -2.7980   -2.8850   11.2963 H   0  0  0  0  0  0  0  0  0  0  0  0
   -1.5937   -3.8849    9.4015 H   0  0  0  0  0  0  0  0  0  0  0  0
   -3.1974   -2.5231    4.9751 H   0  0  0  0  0  0  0  0  0  0  0  0
   -5.3610   -2.2444    3.8597 H   0  0  0  0  0  0  0  0  0  0  0  0
   -5.9845   -2.0287    0.7142 H   0  0  0  0  0  0  0  0  0  0  0  0
   -6.8857   -2.8540    2.0475 H   0  0  0  0  0  0  0  0  0  0  0  0
   -6.2969   -3.8119    0.6428 H   0  0  0  0  0  0  0  0  0  0  0  0
   -3.8046   -4.1725    0.3240 H   0  0  0  0  0  0  0  0  0  0  0  0
   -1.6391   -4.4657    1.4431 H   0  0  0  0  0  0  0  0  0  0  0  0
   -1.3255   -0.9067    3.3902 H   0  0  0  0  0  0  0  0  0  0  0  0
   -0.3617    0.9844    4.6087 H   0  0  0  0  0  0  0  0  0  0  0  0
    0.4786    1.3096    7.5116 H   0  0  0  0  0  0  0  0  0  0  0  0
    1.5621    1.7086    6.1089 H   0  0  0  0  0  0  0  0  0  0  0  0
    2.1452    0.5982    7.3955 H   0  0  0  0  0  0  0  0  0  0  0  0
    1.5267   -1.7601    7.3655 H   0  0  0  0  0  0  0  0  0  0  0  0
    0.5976   -3.6403    6.1257 H   0  0  0  0  0  0  0  0  0  0  0  0
    2.9401   -7.8470    1.1735 H   0  0  0  0  0  0  0  0  0  0  0  0
    3.8288   -9.6646   -0.2154 H   0  0  0  0  0  0  0  0  0  0  0  0
    7.3994  -10.5667   -0.4393 H   0  0  0  0  0  0  0  0  0  0  0  0
    6.2832  -11.6648    0.4734 H   0  0  0  0  0  0  0  0  0  0  0  0
    5.7517  -10.8933   -1.0786 H   0  0  0  0  0  0  0  0  0  0  0  0
    7.6645   -9.2589    1.7239 H   0  0  0  0  0  0  0  0  0  0  0  0
    6.7706   -7.4498    3.1213 H   0  0  0  0  0  0  0  0  0  0  0  0
    4.6522   -4.4082    4.8003 H   0  0  0  0  0  0  0  0  0  0  0  0
    4.7527   -4.4539    7.2222 H   0  0  0  0  0  0  0  0  0  0  0  0
    5.0519   -7.5569    9.2625 H   0  0  0  0  0  0  0  0  0  0  0  0
    5.1605   -5.7559    9.2796 H   0  0  0  0  0  0  0  0  0  0  0  0
    3.5392   -6.5615    9.2132 H   0  0  0  0  0  0  0  0  0  0  0  0
    4.4354   -8.7660    7.1683 H   0  0  0  0  0  0  0  0  0  0  0  0
    4.3043   -8.7174    4.7112 H   0  0  0  0  0  0  0  0  0  0  0  0
    5.1033   -4.3132   -0.0342 H   0  0  0  0  0  0  0  0  0  0  0  0
    4.0727   -1.3344   -0.4887 H   0  0  0  0  0  0  0  0  0  0  0  0
    2.3240   -1.4959   -2.1656 H   0  0  0  0  0  0  0  0  0  0  0  0
    2.7687   -1.8277   -5.6095 H   0  0  0  0  0  0  0  0  0  0  0  0
    1.5473   -2.0076   -4.3059 H   0  0  0  0  0  0  0  0  0  0  0  0
    2.0282   -4.5004   -4.2305 H   0  0  0  0  0  0  0  0  0  0  0  0
    1.3191   -3.9077   -5.7770 H   0  0  0  0  0  0  0  0  0  0  0  0
    3.0803   -4.2865   -5.6932 H   0  0  0  0  0  0  0  0  0  0  0  0
    5.1490   -3.1034   -5.0026 H   0  0  0  0  0  0  0  0  0  0  0  0
    6.9210   -2.9057   -3.3619 H   0  0  0  0  0  0  0  0  0  0  0  0
    9.0196   -0.3515   -1.3089 H   0  0  0  0  0  0  0  0  0  0  0  0
   11.2905   -1.1053   -1.7158 H   0  0  0  0  0  0  0  0  0  0  0  0
   12.3850   -4.6275   -1.2489 H   0  0  0  0  0  0  0  0  0  0  0  0
   12.9283   -2.9268   -1.3400 H   0  0  0  0  0  0  0  0  0  0  0  0
   11.8286   -4.5300   -3.7494 H   0  0  0  0  0  0  0  0  0  0  0  0
   13.5770   -4.3065   -3.3588 H   0  0  0  0  0  0  0  0  0  0  0  0
   12.5652   -2.8708   -3.7744 H   0  0  0  0  0  0  0  0  0  0  0  0
    9.9830   -5.2158   -1.5243 H   0  0  0  0  0  0  0  0  0  0  0  0
    7.6896   -4.4724   -1.1118 H   0  0  0  0  0  0  0  0  0  0  0  0
    5.4470    5.1274    1.6547 H   0  0  0  0  0  0  0  0  0  0  0  0
    6.0938    3.5747    2.2695 H   0  0  0  0  0  0  0  0  0  0  0  0
    4.8480    4.9073    4.0238 H   0  0  0  0  0  0  0  0  0  0  0  0
    4.1545    3.2541    3.7407 H   0  0  0  0  0  0  0  0  0  0  0  0
    3.3330    4.7151    3.0545 H   0  0  0  0  0  0  0  0  0  0  0  0
    6.7488    1.6301   -4.6746 H   0  0  0  0  0  0  0  0  0  0  0  0
    7.2604   -0.0498   -5.0421 H   0  0  0  0  0  0  0  0  0  0  0  0
    9.2747    0.1594   -3.7160 H   0  0  0  0  0  0  0  0  0  0  0  0
    8.7241    1.7298   -2.9817 H   0  0  0  0  0  0  0  0  0  0  0  0
    9.1640    1.6497   -4.7378 H   0  0  0  0  0  0  0  0  0  0  0  0
    2.0000    2.9668    1.4679 H   0  0  0  0  0  0  0  0  0  0  0  0
    1.1924    0.7899    2.1625 H   0  0  0  0  0  0  0  0  0  0  0  0
   -1.0520   -1.0377    0.5551 H   0  0  0  0  0  0  0  0  0  0  0  0
    0.2856   -1.3368    1.6792 H   0  0  0  0  0  0  0  0  0  0  0  0
    0.2935   -2.2553   -1.2703 H   0  0  0  0  0  0  0  0  0  0  0  0
   -0.0358   -3.2807    0.1675 H   0  0  0  0  0  0  0  0  0  0  0  0
    1.5898   -2.5263   -0.0525 H   0  0  0  0  0  0  0  0  0  0  0  0
    0.2458   -0.1581   -1.9429 H   0  0  0  0  0  0  0  0  0  0  0  0
    1.1150    1.9495   -2.6588 H   0  0  0  0  0  0  0  0  0  0  0  0
    0.1086    4.7098    0.5087 H   0  0  0  0  0  0  0  0  0  0  0  0
   -0.0263    6.4744    2.1670 H   0  0  0  0  0  0  0  0  0  0  0  0
    1.1242    8.0192    3.6245 H   0  0  0  0  0  0  0  0  0  0  0  0
    2.8459    8.4136    3.3828 H   0  0  0  0  0  0  0  0  0  0  0  0
    0.5716    9.4520    1.5394 H   0  0  0  0  0  0  0  0  0  0  0  0
    1.1986   10.3339    2.9931 H   0  0  0  0  0  0  0  0  0  0  0  0
    2.2976   10.0115    1.5876 H   0  0  0  0  0  0  0  0  0  0  0  0
    3.9828    7.7406    1.1657 H   0  0  0  0  0  0  0  0  0  0  0  0
    4.1167    5.9689   -0.5173 H   0  0  0  0  0  0  0  0  0  0  0  0
   -0.6467    4.8453   -1.7593 H   0  0  0  0  0  0  0  0  0  0  0  0
   -2.7175    2.6495   -3.1256 H   0  0  0  0  0  0  0  0  0  0  0  0
   -3.1236    0.7365   -1.7125 H   0  0  0  0  0  0  0  0  0  0  0  0
   -2.6125   -1.5790   -1.1571 H   0  0  0  0  0  0  0  0  0  0  0  0
   -1.7962   -2.6460   -2.3498 H   0  0  0  0  0  0  0  0  0  0  0  0
   -3.5664   -2.3098   -2.5034 H   0  0  0  0  0  0  0  0  0  0  0  0
   -1.4844   -1.8721   -4.7250 H   0  0  0  0  0  0  0  0  0  0  0  0
   -1.2012    0.0122   -6.2216 H   0  0  0  0  0  0  0  0  0  0  0  0
    0.7669    1.5368   -6.0168 H   0  0  0  0  0  0  0  0  0  0  0  0
    2.0481    1.3626   -8.0972 H   0  0  0  0  0  0  0  0  0  0  0  0
    2.4536    2.6321  -10.3692 H   0  0  0  0  0  0  0  0  0  0  0  0
    1.3682    1.2883  -10.9113 H   0  0  0  0  0  0  0  0  0  0  0  0
    0.9828    2.9961  -11.3566 H   0  0  0  0  0  0  0  0  0  0  0  0
   -1.0288    3.5919  -10.1655 H   0  0  0  0  0  0  0  0  0  0  0  0
   -2.3282    3.7235   -8.0839 H   0  0  0  0  0  0  0  0  0  0  0  0
   -5.7432    6.8097   -0.8434 H   0  0  0  0  0  0  0  0  0  0  0  0
   -5.0001    9.1072   -0.3716 H   0  0  0  0  0  0  0  0  0  0  0  0
   -3.7997   11.1231   -1.3136 H   0  0  0  0  0  0  0  0  0  0  0  0
   -5.4121   11.7064   -1.9087 H   0  0  0  0  0  0  0  0  0  0  0  0
   -4.0169   11.5634   -3.0578 H   0  0  0  0  0  0  0  0  0  0  0  0
   -5.0471    9.9813   -4.6085 H   0  0  0  0  0  0  0  0  0  0  0  0
   -5.8034    7.6921   -5.0620 H   0  0  0  0  0  0  0  0  0  0  0  0
   -8.3448    6.7142   -1.8822 H   0  0  0  0  0  0  0  0  0  0  0  0
  -10.0602    5.4321   -0.6964 H   0  0  0  0  0  0  0  0  0  0  0  0
  -11.1366    3.1380   -0.4699 H   0  0  0  0  0  0  0  0  0  0  0  0
  -10.1023    1.6649   -0.5429 H   0  0  0  0  0  0  0  0  0  0  0  0
   -9.9264    2.8097    0.8497 H   0  0  0  0  0  0  0  0  0  0  0  0
   -7.7918    1.8153   -1.3439 H   0  0  0  0  0  0  0  0  0  0  0  0
   -6.0991    3.0837   -2.5624 H   0  0  0  0  0  0  0  0  0  0  0  0
   -7.6604    2.5667   -5.3629 H   0  0  0  0  0  0  0  0  0  0  0  0
   -6.9252    6.3616   -9.3186 H   0  0  0  0  0  0  0  0  0  0  0  0
   -7.5663    5.3157  -11.4827 H   0  0  0  0  0  0  0  0  0  0  0  0
  1  2  2  3
  2  3  1  0
  3  4  2  0
  3  5  1  0
  5  6  2  0
  6  7  1  0
  7  8  2  0
  8  9  1  0
  9 10  2  0
 10 11  1  0
 10 12  1  0
 12 13  2  0
 13 14  1  0
 14 15  2  0
 15 16  1  0
 16 17  2  3
 17 18  1  0
 18 19  3  0
 17 20  1  0
 20 21  3  0
  1 22  1  0
 22 23  2  0
 23 24  1  0
 24 25  1  0
 25 26  2  0
 26 27  1  0
 27 28  2  0
 28 29  1  0
 28 30  1  0
 30 31  2  0
 24 32  1  0
 32 33  2  0
 33 34  1  0
 34 35  2  0
 35 36  1  0
 35 37  1  0
 37 38  2  0
 23 39  1  0
 39 40  1  0
 40 41  1  0
 41 42  2  0
 42 43  1  0
 43 44  1  0
 44 45  2  0
 45 46  1  0
 46 47  2  0
 47 48  1  0
 47 49  1  0
 49 50  2  0
 43 51  1  0
 51 52  2  0
 52 53  1  0
 53 54  2  0
 54 55  1  0
 54 56  1  0
 56 57  2  0
 42 58  1  0
 58 59  1  0
 41 60  1  0
 60 61  2  0
 61 62  1  0
 62 63  1  0
 63 64  1  0
 64 65  2  0
 65 66  1  0
 66 67  2  0
 67 68  1  0
 68 69  1  0
 67 70  1  0
 70 71  2  0
 63 72  1  0
 72 73  2  0
 73 74  1  0
 74 75  2  0
 75 76  1  0
 76 77  1  0
 75 78  1  0
 78 79  2  0
 63 80  1  0
 80 81  2  0
 81 82  1  0
 82 83  1  0
 81 84  1  0
 84 85  1  0
 85 86  2  0
 86 87  1  0
 87 88  1  0
 88 89  1  0
 86 90  1  0
 90 91  2  0
 91 92  1  0
 92 93  2  0
 92 94  1  0
 94 95  1  0
 95 96  1  0
 91 97  1  0
 97 98  1  0
 98 99  1  0
 99100  2  0
100101  1  0
101102  1  0
101103  1  0
103104  2  0
104105  1  0
105106  2  0
106107  1  0
107108  1  0
106109  1  0
109110  2  0
101111  1  0
111112  2  0
112113  1  0
113114  2  0
114115  1  0
115116  1  0
114117  1  0
117118  2  0
100119  1  0
119120  2  0
120121  1  0
120122  1  0
122123  2  0
123124  1  0
124125  1  0
125126  2  0
126127  1  0
127128  2  0
128129  1  0
128130  1  0
130131  2  0
124132  1  0
132133  2  0
133134  1  0
134135  2  0
135136  1  0
135137  1  0
137138  2  0
123139  1  0
139140  1  0
140141  1  0
141142  2  0
142143  1  0
143144  1  0
144145  2  0
145146  1  0
146147  2  0
147148  1  0
147149  1  0
149150  2  0
143151  1  0
151152  2  0
152153  1  0
153154  2  0
154155  1  0
154156  1  0
156157  2  0
142158  1  0
158159  1  0
141160  1  0
160161  2  3
161162  1  0
162163  2  0
162164  1  0
164165  2  0
165166  1  0
166167  2  0
167168  1  0
168169  1  0
168170  2  0
170171  1  0
165172  1  0
172173  2  3
173174  1  0
174175  3  0
173176  1  0
176177  3  0
 16  2  1  0
 59 22  1  0
 83 60  1  0
 93 85  1  0
102 98  2  0
110103  1  0
118111  1  0
159122  1  0
172161  1  0
 15  5  1  0
 31 25  1  0
 38 32  1  0
 58 39  2  0
 82 62  2  0
102 90  1  0
131125  1  0
138132  1  0
158139  2  0
170164  1  0
 13  7  1  0
 50 44  1  0
 57 51  1  0
 71 64  1  0
 79 72  1  0
 93 80  1  0
121 99  1  0
150144  1  0
157151  1  0
  1178  1  0
  6179  1  0
  8180  1  0
  9181  1  0
 12182  1  0
 14183  1  0
 26184  1  0
 27185  1  0
 29186  1  0
 29187  1  0
 29188  1  0
 30189  1  0
 31190  1  0
 33191  1  0
 34192  1  0
 36193  1  0
 36194  1  0
 36195  1  0
 37196  1  0
 38197  1  0
 45198  1  0
 46199  1  0
 48200  1  0
 48201  1  0
 48202  1  0
 49203  1  0
 50204  1  0
 52205  1  0
 53206  1  0
 55207  1  0
 55208  1  0
 55209  1  0
 56210  1  0
 57211  1  0
 61212  1  0
 65213  1  0
 66214  1  0
 68215  1  0
 68216  1  0
 69217  1  0
 69218  1  0
 69219  1  0
 70220  1  0
 71221  1  0
 73222  1  0
 74223  1  0
 76224  1  0
 76225  1  0
 77226  1  0
 77227  1  0
 77228  1  0
 78229  1  0
 79230  1  0
 88231  1  0
 88232  1  0
 89233  1  0
 89234  1  0
 89235  1  0
 95236  1  0
 95237  1  0
 96238  1  0
 96239  1  0
 96240  1  0
104241  1  0
105242  1  0
107243  1  0
107244  1  0
108245  1  0
108246  1  0
108247  1  0
109248  1  0
110249  1  0
112250  1  0
113251  1  0
115252  1  0
115253  1  0
116254  1  0
116255  1  0
116256  1  0
117257  1  0
118258  1  0
119259  1  0
126260  1  0
127261  1  0
129262  1  0
129263  1  0
129264  1  0
130265  1  0
131266  1  0
133267  1  0
134268  1  0
136269  1  0
136270  1  0
136271  1  0
137272  1  0
138273  1  0
145274  1  0
146275  1  0
148276  1  0
148277  1  0
148278  1  0
149279  1  0
150280  1  0
152281  1  0
153282  1  0
155283  1  0
155284  1  0
155285  1  0
156286  1  0
157287  1  0
160288  1  0
166289  1  0
167290  1  0
M  END

