
     RDKit          3D

252278  0  0  0  0  0  0  0  0999 V2000
   -0.1952   -2.6508    8.0257 C   0  0  0  0  0  0  0  0  0  0  0  0
    0.9324   -2.4160    7.3207 C   0  0  0  0  0  0  0  0  0  0  0  0
    1.0109   -1.7623    6.0070 C   0  0  0  0  0  0  0  0  0  0  0  0
    0.1317   -1.0377    5.4723 O   0  0  0  0  0  0  0  0  0  0  0  0
    2.2992   -2.0624    5.4168 C   0  0  0  0  0  0  0  0  0  0  0  0
    2.7605   -1.7366    4.1402 C   0  0  0  0  0  0  0  0  0  0  0  0
    4.0331   -2.1879    3.7519 C   0  0  0  0  0  0  0  0  0  0  0  0
    4.5388   -1.8787    2.4797 C   0  0  0  0  0  0  0  0  0  0  0  0
    5.8086   -2.3270    2.0980 C   0  0  0  0  0  0  0  0  0  0  0  0
    6.5831   -3.0827    2.9849 C   0  0  0  0  0  0  0  0  0  0  0  0
    7.8184   -3.4979    2.6107 F   0  0  0  0  0  0  0  0  0  0  0  0
    6.0925   -3.4050    4.2514 C   0  0  0  0  0  0  0  0  0  0  0  0
    4.8167   -2.9660    4.6514 C   0  0  0  0  0  0  0  0  0  0  0  0
    4.3186   -3.2807    5.9331 C   0  0  0  0  0  0  0  0  0  0  0  0
    3.0578   -2.7913    6.3159 C   0  0  0  0  0  0  0  0  0  0  0  0
    2.3011   -2.9483    7.5970 C   0  0  0  0  0  0  0  0  0  0  0  0
    2.8275   -3.2179    8.8188 C   0  0  0  0  0  0  0  0  0  0  0  0
    4.2110   -3.5638    9.0083 C   0  0  0  0  0  0  0  0  0  0  0  0
    5.3251   -3.8440    9.1750 N   0  0  0  0  0  0  0  0  0  0  0  0
    2.0751   -3.0281   10.0324 C   0  0  0  0  0  0  0  0  0  0  0  0
    1.4788   -2.8727   11.0134 N   0  0  0  0  0  0  0  0  0  0  0  0
   -1.4951   -2.1036    7.6217 C   0  0  0  0  0  0  0  0  0  0  0  0
   -2.0611   -0.9265    8.1328 C   0  0  0  0  0  0  0  0  0  0  0  0
   -1.7503   -0.3685    9.4228 N   0  0  0  0  0  0  0  0  0  0  0  0
   -1.9557   -1.1628   10.6151 C   0  0  0  0  0  0  0  0  0  0  0  0
   -1.2853   -0.8358   11.8103 C   0  0  0  0  0  0  0  0  0  0  0  0
   -1.5812   -1.5087   13.0006 C   0  0  0  0  0  0  0  0  0  0  0  0
   -2.5397   -2.5334   13.0131 C   0  0  0  0  0  0  0  0  0  0  0  0
   -2.9340   -3.2028   14.2976 C   0  0  0  0  0  0  0  0  0  0  0  0
   -3.1758   -2.8969   11.8194 C   0  0  0  0  0  0  0  0  0  0  0  0
   -2.8851   -2.2225   10.6313 C   0  0  0  0  0  0  0  0  0  0  0  0
   -1.5757    1.0531    9.5415 C   0  0  0  0  0  0  0  0  0  0  0  0
   -0.4905    1.6862    8.9129 C   0  0  0  0  0  0  0  0  0  0  0  0
   -0.2610    3.0519    9.1226 C   0  0  0  0  0  0  0  0  0  0  0  0
   -1.0860    3.7847    9.9895 C   0  0  0  0  0  0  0  0  0  0  0  0
   -0.8193    5.2390   10.2500 C   0  0  0  0  0  0  0  0  0  0  0  0
   -2.1946    3.1618   10.5844 C   0  0  0  0  0  0  0  0  0  0  0  0
   -2.4357    1.8036   10.3585 C   0  0  0  0  0  0  0  0  0  0  0  0
   -3.1342   -0.5143    7.3478 C   0  0  0  0  0  0  0  0  0  0  0  0
   -4.0492    0.8762    7.2803 S   0  0  0  0  0  0  0  0  0  0  0  0
   -4.8970    0.4448    5.8577 C   0  0  0  0  0  0  0  0  0  0  0  0
   -4.4841   -0.8644    5.4791 C   0  0  0  0  0  0  0  0  0  0  0  0
   -5.2172   -1.6932    4.5450 N   0  0  0  0  0  0  0  0  0  0  0  0
   -6.5844   -2.0146    4.8565 C   0  0  0  0  0  0  0  0  0  0  0  0
   -7.5657   -1.9848    3.8555 C   0  0  0  0  0  0  0  0  0  0  0  0
   -8.8785   -2.3726    4.1446 C   0  0  0  0  0  0  0  0  0  0  0  0
   -9.2221   -2.7960    5.4392 C   0  0  0  0  0  0  0  0  0  0  0  0
  -10.6142   -3.2775    5.7310 C   0  0  0  0  0  0  0  0  0  0  0  0
   -8.2395   -2.8288    6.4370 C   0  0  0  0  0  0  0  0  0  0  0  0
   -6.9323   -2.4305    6.1520 C   0  0  0  0  0  0  0  0  0  0  0  0
   -4.5436   -2.5051    3.5642 C   0  0  0  0  0  0  0  0  0  0  0  0
   -4.1043   -3.7947    3.8936 C   0  0  0  0  0  0  0  0  0  0  0  0
   -3.3779   -4.5495    2.9638 C   0  0  0  0  0  0  0  0  0  0  0  0
   -3.1132   -4.0353    1.6864 C   0  0  0  0  0  0  0  0  0  0  0  0
   -2.3033   -4.8375    0.7029 C   0  0  0  0  0  0  0  0  0  0  0  0
   -3.6716   -2.8042    1.3148 C   0  0  0  0  0  0  0  0  0  0  0  0
   -4.4082   -2.0624    2.2433 C   0  0  0  0  0  0  0  0  0  0  0  0
   -3.4547   -1.3261    6.3063 C   0  0  0  0  0  0  0  0  0  0  0  0
   -2.3776   -2.6211    6.2628 S   0  0  0  0  0  0  0  0  0  0  0  0
   -5.3047    1.4728    4.8658 C   0  0  0  0  0  0  0  0  0  0  0  0
   -5.3110    2.8818    5.0772 C   0  0  0  0  0  0  0  0  0  0  0  0
   -5.5797    3.5068    6.3915 C   0  0  0  0  0  0  0  0  0  0  0  0
   -4.7050    4.4622    6.9360 C   0  0  0  0  0  0  0  0  0  0  0  0
   -4.9171    4.9525    8.2270 C   0  0  0  0  0  0  0  0  0  0  0  0
   -6.0063    4.5107    8.9797 C   0  0  0  0  0  0  0  0  0  0  0  0
   -6.9004    3.5724    8.4417 C   0  0  0  0  0  0  0  0  0  0  0  0
   -8.0597    3.0670    9.2603 C   0  0  0  0  0  0  0  0  0  0  0  0
   -7.6323    1.8934   10.1360 C   0  0  0  0  0  0  0  0  0  0  0  0
   -6.6746    3.0641    7.1526 C   0  0  0  0  0  0  0  0  0  0  0  0
   -4.9512    3.5906    3.9064 C   0  0  0  0  0  0  0  0  0  0  0  0
   -4.4941    5.2093    3.5419 S   0  0  0  0  0  0  0  0  0  0  0  0
   -3.9163    4.7491    2.0018 C   0  0  0  0  0  0  0  0  0  0  0  0
   -3.2156    5.2414    0.9198 C   0  0  0  0  0  0  0  0  0  0  0  0
   -2.9077    6.5438    0.5012 C   0  0  0  0  0  0  0  0  0  0  0  0
   -2.3108    6.7362   -0.7870 C   0  0  0  0  0  0  0  0  0  0  0  0
   -2.0826    8.0142   -1.1752 N   0  0  0  0  0  0  0  0  0  0  0  0
   -2.6688    8.8137    0.1560 S   0  0  0  0  0  0  0  0  0  0  0  0
   -3.1998    7.6570    1.2191 N   0  0  0  0  0  0  0  0  0  0  0  0
   -2.0229    5.6103   -1.5767 C   0  0  0  0  0  0  0  0  0  0  0  0
   -1.4752    5.4547   -2.8295 C   0  0  0  0  0  0  0  0  0  0  0  0
   -0.4932    6.3299   -3.9145 S   0  0  0  0  0  0  0  0  0  0  0  0
    0.0247    4.8911   -4.7043 C   0  0  0  0  0  0  0  0  0  0  0  0
    1.0114    4.5562   -5.6661 C   0  0  0  0  0  0  0  0  0  0  0  0
    1.9649    5.5287   -6.2743 C   0  0  0  0  0  0  0  0  0  0  0  0
    2.4533    5.3340   -7.5763 C   0  0  0  0  0  0  0  0  0  0  0  0
    3.3051    6.2628   -8.1765 C   0  0  0  0  0  0  0  0  0  0  0  0
    3.6953    7.4021   -7.4771 C   0  0  0  0  0  0  0  0  0  0  0  0
    3.2335    7.6185   -6.1715 C   0  0  0  0  0  0  0  0  0  0  0  0
    3.6818    8.8330   -5.3985 C   0  0  0  0  0  0  0  0  0  0  0  0
    4.8962    8.5209   -4.5291 C   0  0  0  0  0  0  0  0  0  0  0  0
    2.3914    6.6698   -5.5689 C   0  0  0  0  0  0  0  0  0  0  0  0
    1.0351    3.1462   -5.8595 C   0  0  0  0  0  0  0  0  0  0  0  0
   -0.0404    2.3890   -4.7847 S   0  0  0  0  0  0  0  0  0  0  0  0
   -0.5768    3.8112   -4.1231 C   0  0  0  0  0  0  0  0  0  0  0  0
   -1.3685    4.1178   -3.0354 C   0  0  0  0  0  0  0  0  0  0  0  0
   -1.6497    3.3919   -1.9305 N   0  0  0  0  0  0  0  0  0  0  0  0
   -2.2104    4.3109   -1.0944 C   0  0  0  0  0  0  0  0  0  0  0  0
   -2.8968    4.1134    0.1381 C   0  0  0  0  0  0  0  0  0  0  0  0
   -3.4486    2.9788    0.6781 N   0  0  0  0  0  0  0  0  0  0  0  0
   -4.0701    3.4227    1.7912 C   0  0  0  0  0  0  0  0  0  0  0  0
   -4.7030    2.7830    2.8324 C   0  0  0  0  0  0  0  0  0  0  0  0
   -4.9534    1.2002    3.2358 S   0  0  0  0  0  0  0  0  0  0  0  0
   -3.4692    1.5912    0.1921 C   0  0  0  0  0  0  0  0  0  0  0  0
   -2.4876    0.7179    0.9937 C   0  0  0  0  0  0  0  0  0  0  0  0
   -0.7442    2.3206   -1.4840 C   0  0  0  0  0  0  0  0  0  0  0  0
    0.6952    2.8113   -1.2962 C   0  0  0  0  0  0  0  0  0  0  0  0
    2.0452    2.3187   -6.5414 C   0  0  0  0  0  0  0  0  0  0  0  0
    1.8372    1.6516   -7.7682 C   0  0  0  0  0  0  0  0  0  0  0  0
    0.6147    1.7703   -8.5237 N   0  0  0  0  0  0  0  0  0  0  0  0
   -0.2354    0.6212   -8.7008 C   0  0  0  0  0  0  0  0  0  0  0  0
   -0.5445   -0.2080   -7.6063 C   0  0  0  0  0  0  0  0  0  0  0  0
   -1.2711   -1.3858   -7.7930 C   0  0  0  0  0  0  0  0  0  0  0  0
   -1.7011   -1.7601   -9.0784 C   0  0  0  0  0  0  0  0  0  0  0  0
   -2.4703   -3.0337   -9.2626 C   0  0  0  0  0  0  0  0  0  0  0  0
   -1.4064   -0.9267  -10.1698 C   0  0  0  0  0  0  0  0  0  0  0  0
   -0.6877    0.2566   -9.9820 C   0  0  0  0  0  0  0  0  0  0  0  0
    0.3458    2.9750   -9.2467 C   0  0  0  0  0  0  0  0  0  0  0  0
    1.1564    3.3450  -10.3276 C   0  0  0  0  0  0  0  0  0  0  0  0
    0.9117    4.5380  -11.0150 C   0  0  0  0  0  0  0  0  0  0  0  0
   -0.1469    5.3726  -10.6189 C   0  0  0  0  0  0  0  0  0  0  0  0
   -0.4302    6.6413  -11.3670 C   0  0  0  0  0  0  0  0  0  0  0  0
   -0.9775    4.9819   -9.5573 C   0  0  0  0  0  0  0  0  0  0  0  0
   -0.7339    3.7870   -8.8766 C   0  0  0  0  0  0  0  0  0  0  0  0
    2.6833    0.5414   -7.9052 C   0  0  0  0  0  0  0  0  0  0  0  0
    2.6762   -0.7583   -8.9744 S   0  0  0  0  0  0  0  0  0  0  0  0
    3.6133   -1.7671   -7.9782 C   0  0  0  0  0  0  0  0  0  0  0  0
    3.8417   -1.1112   -6.7464 C   0  0  0  0  0  0  0  0  0  0  0  0
    4.0913   -1.7922   -5.4966 N   0  0  0  0  0  0  0  0  0  0  0  0
    3.2928   -2.9447   -5.1531 C   0  0  0  0  0  0  0  0  0  0  0  0
    3.9048   -4.0840   -4.6031 C   0  0  0  0  0  0  0  0  0  0  0  0
    3.1436   -5.2193   -4.3069 C   0  0  0  0  0  0  0  0  0  0  0  0
    1.7657   -5.2368   -4.5677 C   0  0  0  0  0  0  0  0  0  0  0  0
    0.9623   -6.4647   -4.2465 C   0  0  0  0  0  0  0  0  0  0  0  0
    1.1507   -4.0970   -5.1048 C   0  0  0  0  0  0  0  0  0  0  0  0
    1.9056   -2.9549   -5.3857 C   0  0  0  0  0  0  0  0  0  0  0  0
    4.9854   -1.2129   -4.5189 C   0  0  0  0  0  0  0  0  0  0  0  0
    6.1715   -0.5765   -4.9225 C   0  0  0  0  0  0  0  0  0  0  0  0
    7.0375   -0.0187   -3.9739 C   0  0  0  0  0  0  0  0  0  0  0  0
    6.7178   -0.0766   -2.6068 C   0  0  0  0  0  0  0  0  0  0  0  0
    7.6247    0.5233   -1.5770 C   0  0  0  0  0  0  0  0  0  0  0  0
    5.5400   -0.7148   -2.1972 C   0  0  0  0  0  0  0  0  0  0  0  0
    4.6814   -1.2803   -3.1469 C   0  0  0  0  0  0  0  0  0  0  0  0
    3.3979    0.2179   -6.7985 C   0  0  0  0  0  0  0  0  0  0  0  0
    3.1148    1.3711   -5.6164 S   0  0  0  0  0  0  0  0  0  0  0  0
    3.7088   -3.2067   -8.1988 C   0  0  0  0  0  0  0  0  0  0  0  0
    4.5482   -3.8848   -9.0029 C   0  0  0  0  0  0  0  0  0  0  0  0
    4.3684   -5.3387   -9.1756 C   0  0  0  0  0  0  0  0  0  0  0  0
    3.5210   -6.0624   -8.5857 O   0  0  0  0  0  0  0  0  0  0  0  0
    5.3152   -5.7920  -10.1560 C   0  0  0  0  0  0  0  0  0  0  0  0
    6.0752   -4.7443  -10.6020 C   0  0  0  0  0  0  0  0  0  0  0  0
    6.9993   -5.1019  -11.5871 C   0  0  0  0  0  0  0  0  0  0  0  0
    6.8036   -6.7646  -11.8540 S   0  0  0  0  0  0  0  0  0  0  0  0
    5.5620   -7.0188  -10.7405 C   0  0  0  0  0  0  0  0  0  0  0  0
    4.7648   -8.5395  -10.4078 Cl  0  0  0  0  0  0  0  0  0  0  0  0
    5.6933   -3.4729   -9.9131 C   0  0  0  0  0  0  0  0  0  0  0  0
    6.3509   -2.2920  -10.0590 C   0  0  0  0  0  0  0  0  0  0  0  0
    6.0919   -1.0958   -9.3064 C   0  0  0  0  0  0  0  0  0  0  0  0
    5.9436   -0.0963   -8.7499 N   0  0  0  0  0  0  0  0  0  0  0  0
    7.4443   -2.1428  -10.9762 C   0  0  0  0  0  0  0  0  0  0  0  0
    8.3234   -1.9888  -11.7181 N   0  0  0  0  0  0  0  0  0  0  0  0
   -0.1809   -3.2624    8.9133 H   0  0  0  0  0  0  0  0  0  0  0  0
    2.1391   -1.1613    3.4672 H   0  0  0  0  0  0  0  0  0  0  0  0
    3.9480   -1.3003    1.7755 H   0  0  0  0  0  0  0  0  0  0  0  0
    6.1939   -2.0813    1.1116 H   0  0  0  0  0  0  0  0  0  0  0  0
    6.7101   -3.9902    4.9237 H   0  0  0  0  0  0  0  0  0  0  0  0
    4.8954   -3.9248    6.5790 H   0  0  0  0  0  0  0  0  0  0  0  0
   -0.5548   -0.0361   11.8330 H   0  0  0  0  0  0  0  0  0  0  0  0
   -1.0800   -1.2117   13.9131 H   0  0  0  0  0  0  0  0  0  0  0  0
   -4.0056   -3.0026   14.5015 H   0  0  0  0  0  0  0  0  0  0  0  0
   -2.3377   -2.8260   15.1555 H   0  0  0  0  0  0  0  0  0  0  0  0
   -2.7826   -4.3006   14.2196 H   0  0  0  0  0  0  0  0  0  0  0  0
   -3.9248   -3.6803   11.8090 H   0  0  0  0  0  0  0  0  0  0  0  0
   -3.4331   -2.4922    9.7386 H   0  0  0  0  0  0  0  0  0  0  0  0
    0.1749    1.1168    8.2725 H   0  0  0  0  0  0  0  0  0  0  0  0
    0.5904    3.5141    8.6387 H   0  0  0  0  0  0  0  0  0  0  0  0
    0.2519    5.4842   10.0652 H   0  0  0  0  0  0  0  0  0  0  0  0
   -1.0476    5.4890   11.3089 H   0  0  0  0  0  0  0  0  0  0  0  0
   -1.4577    5.8567    9.5847 H   0  0  0  0  0  0  0  0  0  0  0  0
   -2.8536    3.7120   11.2370 H   0  0  0  0  0  0  0  0  0  0  0  0
   -3.2921    1.3315   10.8330 H   0  0  0  0  0  0  0  0  0  0  0  0
   -7.3137   -1.6716    2.8497 H   0  0  0  0  0  0  0  0  0  0  0  0
   -9.6206   -2.3603    3.3550 H   0  0  0  0  0  0  0  0  0  0  0  0
  -10.6918   -4.3518    5.4593 H   0  0  0  0  0  0  0  0  0  0  0  0
  -11.3583   -2.6951    5.1432 H   0  0  0  0  0  0  0  0  0  0  0  0
  -10.8520   -3.1516    6.8086 H   0  0  0  0  0  0  0  0  0  0  0  0
   -8.4795   -3.1835    7.4339 H   0  0  0  0  0  0  0  0  0  0  0  0
   -6.1823   -2.4856    6.9323 H   0  0  0  0  0  0  0  0  0  0  0  0
   -4.2954   -4.2016    4.8788 H   0  0  0  0  0  0  0  0  0  0  0  0
   -3.0004   -5.5257    3.2487 H   0  0  0  0  0  0  0  0  0  0  0  0
   -2.9168   -5.6717    0.2995 H   0  0  0  0  0  0  0  0  0  0  0  0
   -1.4068   -5.2549    1.2044 H   0  0  0  0  0  0  0  0  0  0  0  0
   -1.9565   -4.2028   -0.1418 H   0  0  0  0  0  0  0  0  0  0  0  0
   -3.5461   -2.4186    0.3119 H   0  0  0  0  0  0  0  0  0  0  0  0
   -4.8775   -1.1440    1.9265 H   0  0  0  0  0  0  0  0  0  0  0  0
   -3.8325    4.7825    6.3832 H   0  0  0  0  0  0  0  0  0  0  0  0
   -4.2260    5.6711    8.6498 H   0  0  0  0  0  0  0  0  0  0  0  0
   -6.1493    4.8858    9.9832 H   0  0  0  0  0  0  0  0  0  0  0  0
   -8.8901    2.7401    8.5943 H   0  0  0  0  0  0  0  0  0  0  0  0
   -8.4554    3.8817    9.9056 H   0  0  0  0  0  0  0  0  0  0  0  0
   -8.5086    1.5184   10.7058 H   0  0  0  0  0  0  0  0  0  0  0  0
   -6.8501    2.2163   10.8585 H   0  0  0  0  0  0  0  0  0  0  0  0
   -7.2326    1.0659    9.5095 H   0  0  0  0  0  0  0  0  0  0  0  0
   -7.3402    2.3083    6.7506 H   0  0  0  0  0  0  0  0  0  0  0  0
    2.1721    4.4687   -8.1379 H   0  0  0  0  0  0  0  0  0  0  0  0
    3.6512    6.0981   -9.1882 H   0  0  0  0  0  0  0  0  0  0  0  0
    4.3500    8.1163   -7.9560 H   0  0  0  0  0  0  0  0  0  0  0  0
    3.9393    9.6637   -6.0980 H   0  0  0  0  0  0  0  0  0  0  0  0
    2.8493    9.1967   -4.7541 H   0  0  0  0  0  0  0  0  0  0  0  0
    5.1071    9.3884   -3.8758 H   0  0  0  0  0  0  0  0  0  0  0  0
    5.7804    8.3242   -5.1699 H   0  0  0  0  0  0  0  0  0  0  0  0
    4.7004    7.6336   -3.8930 H   0  0  0  0  0  0  0  0  0  0  0  0
    2.1011    6.8154   -4.5420 H   0  0  0  0  0  0  0  0  0  0  0  0
   -4.4965    1.1803    0.3028 H   0  0  0  0  0  0  0  0  0  0  0  0
   -3.2428    1.5557   -0.8882 H   0  0  0  0  0  0  0  0  0  0  0  0
   -2.0010   -0.0264    0.3222 H   0  0  0  0  0  0  0  0  0  0  0  0
   -2.9848    0.1591    1.7984 H   0  0  0  0  0  0  0  0  0  0  0  0
   -1.6979    1.3266    1.4927 H   0  0  0  0  0  0  0  0  0  0  0  0
   -0.7734    1.4606   -2.1858 H   0  0  0  0  0  0  0  0  0  0  0  0
   -1.0239    1.9763   -0.4964 H   0  0  0  0  0  0  0  0  0  0  0  0
    0.7031    3.7065   -0.6292 H   0  0  0  0  0  0  0  0  0  0  0  0
    1.3073    2.0138   -0.8228 H   0  0  0  0  0  0  0  0  0  0  0  0
    1.1764    3.0764   -2.2664 H   0  0  0  0  0  0  0  0  0  0  0  0
   -0.1931    0.0414   -6.6129 H   0  0  0  0  0  0  0  0  0  0  0  0
   -1.4978   -2.0118   -6.9365 H   0  0  0  0  0  0  0  0  0  0  0  0
   -1.9238   -3.8748   -8.7842 H   0  0  0  0  0  0  0  0  0  0  0  0
   -3.4701   -2.9273   -8.7894 H   0  0  0  0  0  0  0  0  0  0  0  0
   -2.6024   -3.2695  -10.3428 H   0  0  0  0  0  0  0  0  0  0  0  0
   -1.7349   -1.1979  -11.1652 H   0  0  0  0  0  0  0  0  0  0  0  0
   -0.4395    0.8642  -10.8437 H   0  0  0  0  0  0  0  0  0  0  0  0
    1.9833    2.7113  -10.6215 H   0  0  0  0  0  0  0  0  0  0  0  0
    1.5515    4.8112  -11.8449 H   0  0  0  0  0  0  0  0  0  0  0  0
   -0.7186    7.4451  -10.6582 H   0  0  0  0  0  0  0  0  0  0  0  0
    0.4683    6.9835  -11.9259 H   0  0  0  0  0  0  0  0  0  0  0  0
   -1.2609    6.4697  -12.0854 H   0  0  0  0  0  0  0  0  0  0  0  0
   -1.8089    5.6081   -9.2522 H   0  0  0  0  0  0  0  0  0  0  0  0
   -1.3638    3.5068   -8.0387 H   0  0  0  0  0  0  0  0  0  0  0  0
    4.9728   -4.0932   -4.4113 H   0  0  0  0  0  0  0  0  0  0  0  0
    3.6289   -6.0840   -3.8758 H   0  0  0  0  0  0  0  0  0  0  0  0
    1.4339   -7.3516   -4.7237 H   0  0  0  0  0  0  0  0  0  0  0  0
    0.9358   -6.6151   -3.1451 H   0  0  0  0  0  0  0  0  0  0  0  0
   -0.0792   -6.3781   -4.6229 H   0  0  0  0  0  0  0  0  0  0  0  0
    0.0875   -4.0930   -5.3116 H   0  0  0  0  0  0  0  0  0  0  0  0
    1.4118   -2.0880   -5.8055 H   0  0  0  0  0  0  0  0  0  0  0  0
    6.4303   -0.5134   -5.9712 H   0  0  0  0  0  0  0  0  0  0  0  0
    7.9444    0.4741   -4.3054 H   0  0  0  0  0  0  0  0  0  0  0  0
    8.0469   -0.2849   -0.9347 H   0  0  0  0  0  0  0  0  0  0  0  0
    8.4691    1.0669   -2.0504 H   0  0  0  0  0  0  0  0  0  0  0  0
    7.0589    1.2409   -0.9519 H   0  0  0  0  0  0  0  0  0  0  0  0
    5.2745   -0.7646   -1.1453 H   0  0  0  0  0  0  0  0  0  0  0  0
    3.7689   -1.7501   -2.8028 H   0  0  0  0  0  0  0  0  0  0  0  0
    2.9293   -3.7781   -7.7114 H   0  0  0  0  0  0  0  0  0  0  0  0
    7.7134   -4.4770  -12.0994 H   0  0  0  0  0  0  0  0  0  0  0  0
  1  2  2  3
  2  3  1  0
  3  4  2  0
  3  5  1  0
  5  6  2  0
  6  7  1  0
  7  8  2  0
  8  9  1  0
  9 10  2  0
 10 11  1  0
 10 12  1  0
 12 13  2  0
 13 14  1  0
 14 15  2  0
 15 16  1  0
 16 17  2  3
 17 18  1  0
 18 19  3  0
 17 20  1  0
 20 21  3  0
  1 22  1  0
 22 23  2  0
 23 24  1  0
 24 25  1  0
 25 26  2  0
 26 27  1  0
 27 28  2  0
 28 29  1  0
 28 30  1  0
 30 31  2  0
 24 32  1  0
 32 33  2  0
 33 34  1  0
 34 35  2  0
 35 36  1  0
 35 37  1  0
 37 38  2  0
 23 39  1  0
 39 40  1  0
 40 41  1  0
 41 42  2  0
 42 43  1  0
 43 44  1  0
 44 45  2  0
 45 46  1  0
 46 47  2  0
 47 48  1  0
 47 49  1  0
 49 50  2  0
 43 51  1  0
 51 52  2  0
 52 53  1  0
 53 54  2  0
 54 55  1  0
 54 56  1  0
 56 57  2  0
 42 58  1  0
 58 59  1  0
 41 60  1  0
 60 61  2  0
 61 62  1  0
 62 63  2  0
 63 64  1  0
 64 65  2  0
 65 66  1  0
 66 67  1  0
 67 68  1  0
 66 69  2  0
 61 70  1  0
 70 71  1  0
 71 72  1  0
 72 73  1  0
 73 74  1  0
 74 75  1  0
 75 76  2  0
 76 77  1  0
 77 78  1  0
 75 79  1  0
 79 80  1  0
 80 81  1  0
 81 82  1  0
 82 83  1  0
 83 84  1  0
 84 85  2  0
 85 86  1  0
 86 87  2  0
 87 88  1  0
 88 89  1  0
 89 90  1  0
 88 91  2  0
 83 92  2  0
 92 93  1  0
 93 94  1  0
 94 95  1  0
 95 96  1  0
 96 97  1  0
 97 98  1  0
 98 99  1  0
 99100  1  0
100101  1  0
101102  1  0
 99103  1  0
103104  1  0
 96105  1  0
105106  1  0
 92107  1  0
107108  2  0
108109  1  0
109110  1  0
110111  2  0
111112  1  0
112113  2  0
113114  1  0
113115  1  0
115116  2  0
109117  1  0
117118  2  0
118119  1  0
119120  2  0
120121  1  0
120122  1  0
122123  2  0
108124  1  0
124125  1  0
125126  1  0
126127  2  0
127128  1  0
128129  1  0
129130  2  0
130131  1  0
131132  2  0
132133  1  0
132134  1  0
134135  2  0
128136  1  0
136137  2  0
137138  1  0
138139  2  0
139140  1  0
139141  1  0
141142  2  0
127143  1  0
143144  1  0
126145  1  0
145146  2  3
146147  1  0
147148  2  0
147149  1  0
149150  1  0
150151  2  0
151152  1  0
152153  1  0
153154  1  0
150155  1  0
155156  2  3
156157  1  0
157158  3  0
156159  1  0
159160  3  0
 16  2  1  0
 59 22  1  0
102 60  1  0
144107  1  0
155146  1  0
 15  5  1  0
 31 25  1  0
 38 32  1  0
 58 39  2  0
 69 62  1  0
101 70  2  0
116110  1  0
123117  1  0
143124  2  0
153149  2  0
 13  7  1  0
 50 44  1  0
 57 51  1  0
100 72  2  0
135129  1  0
142136  1  0
 98 73  2  0
 78 74  2  0
 97 79  2  0
 95 80  2  0
 94 82  2  0
 91 84  1  0
  1161  1  0
  6162  1  0
  8163  1  0
  9164  1  0
 12165  1  0
 14166  1  0
 26167  1  0
 27168  1  0
 29169  1  0
 29170  1  0
 29171  1  0
 30172  1  0
 31173  1  0
 33174  1  0
 34175  1  0
 36176  1  0
 36177  1  0
 36178  1  0
 37179  1  0
 38180  1  0
 45181  1  0
 46182  1  0
 48183  1  0
 48184  1  0
 48185  1  0
 49186  1  0
 50187  1  0
 52188  1  0
 53189  1  0
 55190  1  0
 55191  1  0
 55192  1  0
 56193  1  0
 57194  1  0
 63195  1  0
 64196  1  0
 65197  1  0
 67198  1  0
 67199  1  0
 68200  1  0
 68201  1  0
 68202  1  0
 69203  1  0
 85204  1  0
 86205  1  0
 87206  1  0
 89207  1  0
 89208  1  0
 90209  1  0
 90210  1  0
 90211  1  0
 91212  1  0
103213  1  0
103214  1  0
104215  1  0
104216  1  0
104217  1  0
105218  1  0
105219  1  0
106220  1  0
106221  1  0
106222  1  0
111223  1  0
112224  1  0
114225  1  0
114226  1  0
114227  1  0
115228  1  0
116229  1  0
118230  1  0
119231  1  0
121232  1  0
121233  1  0
121234  1  0
122235  1  0
123236  1  0
130237  1  0
131238  1  0
133239  1  0
133240  1  0
133241  1  0
134242  1  0
135243  1  0
137244  1  0
138245  1  0
140246  1  0
140247  1  0
140248  1  0
141249  1  0
142250  1  0
145251  1  0
151252  1  0
M  END

