
     RDKit          3D

237263  0  0  0  0  0  0  0  0999 V2000
    0.1431    7.1434   -5.0501 C   0  0  0  0  0  0  0  0  0  0  0  0
    0.8865    8.0034   -5.7677 C   0  0  0  0  0  0  0  0  0  0  0  0
    1.1219    7.8422   -7.1997 C   0  0  0  0  0  0  0  0  0  0  0  0
    0.4194    7.1630   -7.9947 O   0  0  0  0  0  0  0  0  0  0  0  0
    2.3825    8.4905   -7.5257 C   0  0  0  0  0  0  0  0  0  0  0  0
    3.1153    8.3936   -8.7094 C   0  0  0  0  0  0  0  0  0  0  0  0
    4.4237    8.9080   -8.7356 C   0  0  0  0  0  0  0  0  0  0  0  0
    5.2208    8.7701   -9.8804 C   0  0  0  0  0  0  0  0  0  0  0  0
    6.5550    9.1858   -9.8629 C   0  0  0  0  0  0  0  0  0  0  0  0
    7.1008    9.7581   -8.7101 C   0  0  0  0  0  0  0  0  0  0  0  0
    8.4004   10.1366   -8.6974 F   0  0  0  0  0  0  0  0  0  0  0  0
    6.3149    9.9263   -7.5681 C   0  0  0  0  0  0  0  0  0  0  0  0
    4.9742    9.5097   -7.5677 C   0  0  0  0  0  0  0  0  0  0  0  0
    4.1921    9.6272   -6.4010 C   0  0  0  0  0  0  0  0  0  0  0  0
    2.8903    9.1081   -6.3960 C   0  0  0  0  0  0  0  0  0  0  0  0
    1.9146    8.9733   -5.2776 C   0  0  0  0  0  0  0  0  0  0  0  0
    1.7790    9.8238   -4.2305 C   0  0  0  0  0  0  0  0  0  0  0  0
    0.5184    9.9863   -3.5554 C   0  0  0  0  0  0  0  0  0  0  0  0
   -0.4969   10.1327   -3.0204 N   0  0  0  0  0  0  0  0  0  0  0  0
    2.7954   10.7727   -3.8676 C   0  0  0  0  0  0  0  0  0  0  0  0
    3.6099   11.5408   -3.5735 N   0  0  0  0  0  0  0  0  0  0  0  0
    0.2431    6.9918   -3.5902 C   0  0  0  0  0  0  0  0  0  0  0  0
    1.4126    6.7474   -2.8480 C   0  0  0  0  0  0  0  0  0  0  0  0
    2.4356    5.8399   -3.3251 N   0  0  0  0  0  0  0  0  0  0  0  0
    2.5052    4.5018   -2.7878 C   0  0  0  0  0  0  0  0  0  0  0  0
    1.3595    3.6942   -2.7334 C   0  0  0  0  0  0  0  0  0  0  0  0
    1.4459    2.3746   -2.2757 C   0  0  0  0  0  0  0  0  0  0  0  0
    2.6765    1.8470   -1.8562 C   0  0  0  0  0  0  0  0  0  0  0  0
    2.7701    0.4101   -1.4343 C   0  0  0  0  0  0  0  0  0  0  0  0
    3.8255    2.6531   -1.9166 C   0  0  0  0  0  0  0  0  0  0  0  0
    3.7411    3.9675   -2.3855 C   0  0  0  0  0  0  0  0  0  0  0  0
    3.2455    6.0965   -4.4787 C   0  0  0  0  0  0  0  0  0  0  0  0
    4.3923    6.8869   -4.3613 C   0  0  0  0  0  0  0  0  0  0  0  0
    5.3730    6.8607   -5.3643 C   0  0  0  0  0  0  0  0  0  0  0  0
    5.1999    6.0537   -6.5003 C   0  0  0  0  0  0  0  0  0  0  0  0
    6.2637    5.9557   -7.5542 C   0  0  0  0  0  0  0  0  0  0  0  0
    4.0295    5.2987   -6.6380 C   0  0  0  0  0  0  0  0  0  0  0  0
    3.0645    5.3137   -5.6299 C   0  0  0  0  0  0  0  0  0  0  0  0
    1.1052    6.7901   -1.4814 C   0  0  0  0  0  0  0  0  0  0  0  0
    1.9931    6.3150   -0.1629 S   0  0  0  0  0  0  0  0  0  0  0  0
    0.6720    5.9206    0.8358 C   0  0  0  0  0  0  0  0  0  0  0  0
   -0.5150    6.1756    0.1066 C   0  0  0  0  0  0  0  0  0  0  0  0
   -1.7920    5.5753    0.4108 N   0  0  0  0  0  0  0  0  0  0  0  0
   -2.4443    4.7501   -0.5759 C   0  0  0  0  0  0  0  0  0  0  0  0
   -1.8002    3.6110   -1.0747 C   0  0  0  0  0  0  0  0  0  0  0  0
   -2.3861    2.8674   -2.1032 C   0  0  0  0  0  0  0  0  0  0  0  0
   -3.6134    3.2640   -2.6595 C   0  0  0  0  0  0  0  0  0  0  0  0
   -4.2462    2.4784   -3.7693 C   0  0  0  0  0  0  0  0  0  0  0  0
   -4.2710    4.3852   -2.1340 C   0  0  0  0  0  0  0  0  0  0  0  0
   -3.6963    5.1210   -1.0945 C   0  0  0  0  0  0  0  0  0  0  0  0
   -2.5557    6.0043    1.5468 C   0  0  0  0  0  0  0  0  0  0  0  0
   -3.1835    5.0517    2.3640 C   0  0  0  0  0  0  0  0  0  0  0  0
   -4.0054    5.4585    3.4166 C   0  0  0  0  0  0  0  0  0  0  0  0
   -4.2071    6.8226    3.6673 C   0  0  0  0  0  0  0  0  0  0  0  0
   -5.0827    7.2623    4.8034 C   0  0  0  0  0  0  0  0  0  0  0  0
   -3.6120    7.7735    2.8284 C   0  0  0  0  0  0  0  0  0  0  0  0
   -2.7787    7.3678    1.7817 C   0  0  0  0  0  0  0  0  0  0  0  0
   -0.2171    6.7204   -1.1630 C   0  0  0  0  0  0  0  0  0  0  0  0
   -1.1119    6.8870   -2.5701 S   0  0  0  0  0  0  0  0  0  0  0  0
    0.8738    4.8724    1.8598 C   0  0  0  0  0  0  0  0  0  0  0  0
    0.3630    4.7525    3.1840 C   0  0  0  0  0  0  0  0  0  0  0  0
   -0.3181    5.8194    3.9559 C   0  0  0  0  0  0  0  0  0  0  0  0
   -1.2180    5.4981    4.9857 C   0  0  0  0  0  0  0  0  0  0  0  0
   -1.7370    6.4951    5.8152 C   0  0  0  0  0  0  0  0  0  0  0  0
   -1.3784    7.8253    5.6195 C   0  0  0  0  0  0  0  0  0  0  0  0
   -0.4748    8.1702    4.6029 C   0  0  0  0  0  0  0  0  0  0  0  0
   -0.0561    9.6011    4.4013 C   0  0  0  0  0  0  0  0  0  0  0  0
   -0.7102   10.1976    3.1566 C   0  0  0  0  0  0  0  0  0  0  0  0
    0.0553    7.1632    3.7802 C   0  0  0  0  0  0  0  0  0  0  0  0
    0.8949    3.5934    3.7913 C   0  0  0  0  0  0  0  0  0  0  0  0
    0.6735    2.7823    5.2899 S   0  0  0  0  0  0  0  0  0  0  0  0
    1.8709    1.6379    4.8996 C   0  0  0  0  0  0  0  0  0  0  0  0
    2.4932    0.5283    5.3968 C   0  0  0  0  0  0  0  0  0  0  0  0
    2.2017   -0.2939    6.4863 C   0  0  0  0  0  0  0  0  0  0  0  0
    2.8804   -1.5451    6.5921 C   0  0  0  0  0  0  0  0  0  0  0  0
    2.4955   -2.3557    7.6084 N   0  0  0  0  0  0  0  0  0  0  0  0
    1.3214   -1.4163    8.3013 S   0  0  0  0  0  0  0  0  0  0  0  0
    1.2355   -0.0323    7.3974 N   0  0  0  0  0  0  0  0  0  0  0  0
    3.8019   -1.9131    5.5971 C   0  0  0  0  0  0  0  0  0  0  0  0
    4.1774   -3.1820    5.2149 C   0  0  0  0  0  0  0  0  0  0  0  0
    3.5029   -4.6967    5.5806 S   0  0  0  0  0  0  0  0  0  0  0  0
    3.6655   -5.2532    3.9844 C   0  0  0  0  0  0  0  0  0  0  0  0
    2.8917   -6.2049    3.3203 C   0  0  0  0  0  0  0  0  0  0  0  0
    2.5566   -7.5027    3.9229 C   0  0  0  0  0  0  0  0  0  0  0  0
    1.5870   -7.6182    4.9308 C   0  0  0  0  0  0  0  0  0  0  0  0
    1.2846   -8.8760    5.4647 C   0  0  0  0  0  0  0  0  0  0  0  0
    1.9657  -10.0153    5.0180 C   0  0  0  0  0  0  0  0  0  0  0  0
    2.9651   -9.8987    4.0383 C   0  0  0  0  0  0  0  0  0  0  0  0
    3.7491  -11.0996    3.5750 C   0  0  0  0  0  0  0  0  0  0  0  0
    3.2763  -11.5703    2.2019 C   0  0  0  0  0  0  0  0  0  0  0  0
    3.2370   -8.6422    3.4815 C   0  0  0  0  0  0  0  0  0  0  0  0
    2.6990   -5.8796    1.9609 C   0  0  0  0  0  0  0  0  0  0  0  0
    3.5372   -4.4394    1.6479 S   0  0  0  0  0  0  0  0  0  0  0  0
    4.1706   -4.2496    3.1902 C   0  0  0  0  0  0  0  0  0  0  0  0
    4.5236   -3.0989    3.8930 C   0  0  0  0  0  0  0  0  0  0  0  0
    4.5610   -1.8222    3.4461 N   0  0  0  0  0  0  0  0  0  0  0  0
    4.0774   -1.0796    4.4948 C   0  0  0  0  0  0  0  0  0  0  0  0
    3.4735    0.2064    4.4487 C   0  0  0  0  0  0  0  0  0  0  0  0
    3.5443    1.1457    3.4522 N   0  0  0  0  0  0  0  0  0  0  0  0
    2.4495    1.8969    3.7090 C   0  0  0  0  0  0  0  0  0  0  0  0
    1.8694    2.9683    3.0648 C   0  0  0  0  0  0  0  0  0  0  0  0
    2.0169    3.6492    1.5706 S   0  0  0  0  0  0  0  0  0  0  0  0
    4.8203    1.8129    3.1272 C   0  0  0  0  0  0  0  0  0  0  0  0
    4.9355    2.1744    1.6432 C   0  0  0  0  0  0  0  0  0  0  0  0
    4.7895   -1.4222    2.0489 C   0  0  0  0  0  0  0  0  0  0  0  0
    5.9710   -2.1742    1.4057 C   0  0  0  0  0  0  0  0  0  0  0  0
    1.5971   -6.3495    1.0865 C   0  0  0  0  0  0  0  0  0  0  0  0
    0.5802   -7.2312    1.4519 C   0  0  0  0  0  0  0  0  0  0  0  0
   -0.5425   -7.1741    0.6165 C   0  0  0  0  0  0  0  0  0  0  0  0
   -1.7468   -7.8663    0.8252 C   0  0  0  0  0  0  0  0  0  0  0  0
   -1.9012   -8.8455    1.9157 C   0  0  0  0  0  0  0  0  0  0  0  0
   -3.0085   -8.7187    3.1733 S   0  0  0  0  0  0  0  0  0  0  0  0
   -2.6320  -10.1844    3.8997 C   0  0  0  0  0  0  0  0  0  0  0  0
   -3.4079  -10.7803    5.0338 C   0  0  0  0  0  0  0  0  0  0  0  0
   -4.6942  -11.4229    4.5188 C   0  0  0  0  0  0  0  0  0  0  0  0
   -1.6328  -10.8064    3.1574 C   0  0  0  0  0  0  0  0  0  0  0  0
   -0.9826  -12.3956    3.5327 Cl  0  0  0  0  0  0  0  0  0  0  0  0
   -1.2147  -10.0501    2.0475 C   0  0  0  0  0  0  0  0  0  0  0  0
   -0.0207  -10.6164    0.8840 Cl  0  0  0  0  0  0  0  0  0  0  0  0
   -2.8235   -7.5198   -0.0019 C   0  0  0  0  0  0  0  0  0  0  0  0
   -2.7268   -6.5623   -1.0186 C   0  0  0  0  0  0  0  0  0  0  0  0
   -1.4869   -5.9360   -1.2946 C   0  0  0  0  0  0  0  0  0  0  0  0
   -1.3245   -5.0094   -2.4367 C   0  0  0  0  0  0  0  0  0  0  0  0
   -0.7749   -3.7287   -2.4033 C   0  0  0  0  0  0  0  0  0  0  0  0
   -0.7842   -3.0886   -3.6543 C   0  0  0  0  0  0  0  0  0  0  0  0
   -1.3319   -3.8679   -4.6668 C   0  0  0  0  0  0  0  0  0  0  0  0
   -1.5704   -3.4301   -6.0832 C   0  0  0  0  0  0  0  0  0  0  0  0
   -0.9138   -4.3799   -7.0807 C   0  0  0  0  0  0  0  0  0  0  0  0
   -1.8160   -5.3397   -4.0132 S   0  0  0  0  0  0  0  0  0  0  0  0
   -0.4191   -6.2493   -0.4255 C   0  0  0  0  0  0  0  0  0  0  0  0
    1.0982   -5.5306   -0.3129 S   0  0  0  0  0  0  0  0  0  0  0  0
   -3.9709   -6.2736   -1.6149 C   0  0  0  0  0  0  0  0  0  0  0  0
   -5.0244   -6.9959   -1.0597 C   0  0  0  0  0  0  0  0  0  0  0  0
   -4.4101   -8.0538    0.1057 S   0  0  0  0  0  0  0  0  0  0  0  0
   -6.4311   -6.9045   -1.4880 C   0  0  0  0  0  0  0  0  0  0  0  0
   -7.4942   -7.0323   -0.6659 C   0  0  0  0  0  0  0  0  0  0  0  0
   -7.4601   -7.2414    0.7848 C   0  0  0  0  0  0  0  0  0  0  0  0
   -6.5946   -6.7992    1.5855 O   0  0  0  0  0  0  0  0  0  0  0  0
   -8.6738   -7.9307    1.1709 C   0  0  0  0  0  0  0  0  0  0  0  0
   -8.9629   -8.5350    2.3929 C   0  0  0  0  0  0  0  0  0  0  0  0
  -10.1365   -9.3005    2.4989 C   0  0  0  0  0  0  0  0  0  0  0  0
  -10.4567   -9.9513    3.7007 C   0  0  0  0  0  0  0  0  0  0  0  0
  -11.6030  -10.7482    3.7847 C   0  0  0  0  0  0  0  0  0  0  0  0
  -12.4384  -10.9016    2.6777 C   0  0  0  0  0  0  0  0  0  0  0  0
  -13.5400  -11.6858    2.7675 F   0  0  0  0  0  0  0  0  0  0  0  0
  -12.1377  -10.2557    1.4713 C   0  0  0  0  0  0  0  0  0  0  0  0
  -10.9918   -9.4518    1.3666 C   0  0  0  0  0  0  0  0  0  0  0  0
  -10.6667   -8.8190    0.1483 C   0  0  0  0  0  0  0  0  0  0  0  0
   -9.5051   -8.0365    0.0738 C   0  0  0  0  0  0  0  0  0  0  0  0
   -8.8931   -7.3290   -1.0845 C   0  0  0  0  0  0  0  0  0  0  0  0
   -9.5366   -6.8237   -2.1638 C   0  0  0  0  0  0  0  0  0  0  0  0
  -10.9354   -7.0670   -2.4039 C   0  0  0  0  0  0  0  0  0  0  0  0
  -12.0610   -7.2573   -2.6023 N   0  0  0  0  0  0  0  0  0  0  0  0
   -8.9037   -5.8904   -3.0592 C   0  0  0  0  0  0  0  0  0  0  0  0
   -8.4081   -5.1308   -3.7799 N   0  0  0  0  0  0  0  0  0  0  0  0
   -0.5436    6.4810   -5.5662 H   0  0  0  0  0  0  0  0  0  0  0  0
    2.6996    7.8772   -9.5661 H   0  0  0  0  0  0  0  0  0  0  0  0
    4.8247    8.3105  -10.7776 H   0  0  0  0  0  0  0  0  0  0  0  0
    7.1728    9.0530  -10.7391 H   0  0  0  0  0  0  0  0  0  0  0  0
    6.7562   10.3632   -6.6769 H   0  0  0  0  0  0  0  0  0  0  0  0
    4.6311   10.0252   -5.5008 H   0  0  0  0  0  0  0  0  0  0  0  0
    0.4083    4.0741   -3.0788 H   0  0  0  0  0  0  0  0  0  0  0  0
    0.5603    1.7533   -2.2606 H   0  0  0  0  0  0  0  0  0  0  0  0
    3.7399    0.1949   -0.9320 H   0  0  0  0  0  0  0  0  0  0  0  0
    2.6858   -0.2423   -2.3314 H   0  0  0  0  0  0  0  0  0  0  0  0
    1.9403    0.1642   -0.7279 H   0  0  0  0  0  0  0  0  0  0  0  0
    4.7852    2.2560   -1.6057 H   0  0  0  0  0  0  0  0  0  0  0  0
    4.6398    4.5674   -2.4387 H   0  0  0  0  0  0  0  0  0  0  0  0
    4.5543    7.4789   -3.4713 H   0  0  0  0  0  0  0  0  0  0  0  0
    6.2675    7.4571   -5.2439 H   0  0  0  0  0  0  0  0  0  0  0  0
    5.8823    6.3734   -8.5105 H   0  0  0  0  0  0  0  0  0  0  0  0
    6.5268    4.8864   -7.7241 H   0  0  0  0  0  0  0  0  0  0  0  0
    7.1890    6.5022   -7.2648 H   0  0  0  0  0  0  0  0  0  0  0  0
    3.8897    4.6601   -7.4973 H   0  0  0  0  0  0  0  0  0  0  0  0
    2.2061    4.6656   -5.7147 H   0  0  0  0  0  0  0  0  0  0  0  0
   -0.8471    3.3115   -0.6650 H   0  0  0  0  0  0  0  0  0  0  0  0
   -1.8766    1.9883   -2.4768 H   0  0  0  0  0  0  0  0  0  0  0  0
   -4.6449    3.1680   -4.5430 H   0  0  0  0  0  0  0  0  0  0  0  0
   -3.5127    1.8016   -4.2561 H   0  0  0  0  0  0  0  0  0  0  0  0
   -5.0851    1.8737   -3.3664 H   0  0  0  0  0  0  0  0  0  0  0  0
   -5.2238    4.6976   -2.5422 H   0  0  0  0  0  0  0  0  0  0  0  0
   -4.2043    6.0025   -0.7228 H   0  0  0  0  0  0  0  0  0  0  0  0
   -3.0203    3.9974    2.1894 H   0  0  0  0  0  0  0  0  0  0  0  0
   -4.4498    4.7144    4.0607 H   0  0  0  0  0  0  0  0  0  0  0  0
   -5.1237    6.4832    5.5954 H   0  0  0  0  0  0  0  0  0  0  0  0
   -6.1086    7.4563    4.4287 H   0  0  0  0  0  0  0  0  0  0  0  0
   -4.6784    8.1907    5.2632 H   0  0  0  0  0  0  0  0  0  0  0  0
   -3.7976    8.8275    2.9818 H   0  0  0  0  0  0  0  0  0  0  0  0
   -2.3390    8.1118    1.1320 H   0  0  0  0  0  0  0  0  0  0  0  0
   -1.5403    4.4785    5.1407 H   0  0  0  0  0  0  0  0  0  0  0  0
   -2.4275    6.2352    6.6052 H   0  0  0  0  0  0  0  0  0  0  0  0
   -1.7940    8.5905    6.2650 H   0  0  0  0  0  0  0  0  0  0  0  0
   -0.3320   10.2215    5.2814 H   0  0  0  0  0  0  0  0  0  0  0  0
    1.0496    9.6501    4.2935 H   0  0  0  0  0  0  0  0  0  0  0  0
   -1.8146   10.2319    3.2825 H   0  0  0  0  0  0  0  0  0  0  0  0
   -0.3370   11.2337    3.0026 H   0  0  0  0  0  0  0  0  0  0  0  0
   -0.4596    9.5936    2.2566 H   0  0  0  0  0  0  0  0  0  0  0  0
    0.7899    7.4324    3.0324 H   0  0  0  0  0  0  0  0  0  0  0  0
    1.0513   -6.7453    5.2847 H   0  0  0  0  0  0  0  0  0  0  0  0
    0.5216   -8.9718    6.2292 H   0  0  0  0  0  0  0  0  0  0  0  0
    1.7305  -10.9800    5.4456 H   0  0  0  0  0  0  0  0  0  0  0  0
    4.8306  -10.8306    3.5167 H   0  0  0  0  0  0  0  0  0  0  0  0
    3.6551  -11.9359    4.3017 H   0  0  0  0  0  0  0  0  0  0  0  0
    3.9294  -12.3999    1.8528 H   0  0  0  0  0  0  0  0  0  0  0  0
    3.3380  -10.7449    1.4630 H   0  0  0  0  0  0  0  0  0  0  0  0
    2.2315  -11.9377    2.2636 H   0  0  0  0  0  0  0  0  0  0  0  0
    4.0010   -8.5468    2.7176 H   0  0  0  0  0  0  0  0  0  0  0  0
    5.6833    1.1748    3.4178 H   0  0  0  0  0  0  0  0  0  0  0  0
    4.9263    2.7382    3.7375 H   0  0  0  0  0  0  0  0  0  0  0  0
    4.1956    1.6073    1.0358 H   0  0  0  0  0  0  0  0  0  0  0  0
    4.7679    3.2622    1.4968 H   0  0  0  0  0  0  0  0  0  0  0  0
    5.9551    1.9377    1.2768 H   0  0  0  0  0  0  0  0  0  0  0  0
    5.0746   -0.3754    1.9987 H   0  0  0  0  0  0  0  0  0  0  0  0
    3.8540   -1.5299    1.4515 H   0  0  0  0  0  0  0  0  0  0  0  0
    5.6066   -2.9205    0.6687 H   0  0  0  0  0  0  0  0  0  0  0  0
    6.6322   -1.4702    0.8565 H   0  0  0  0  0  0  0  0  0  0  0  0
    6.5936   -2.6987    2.1677 H   0  0  0  0  0  0  0  0  0  0  0  0
    0.5949   -7.8278    2.3442 H   0  0  0  0  0  0  0  0  0  0  0  0
   -3.6650   -9.9826    5.7653 H   0  0  0  0  0  0  0  0  0  0  0  0
   -2.7957  -11.5449    5.5600 H   0  0  0  0  0  0  0  0  0  0  0  0
   -5.2410  -11.8943    5.3644 H   0  0  0  0  0  0  0  0  0  0  0  0
   -5.3541  -10.6544    4.0603 H   0  0  0  0  0  0  0  0  0  0  0  0
   -4.4611  -12.2046    3.7639 H   0  0  0  0  0  0  0  0  0  0  0  0
   -0.4034   -3.2550   -1.5034 H   0  0  0  0  0  0  0  0  0  0  0  0
   -0.4216   -2.0820   -3.8028 H   0  0  0  0  0  0  0  0  0  0  0  0
   -1.1709   -2.4060   -6.2380 H   0  0  0  0  0  0  0  0  0  0  0  0
   -2.6662   -3.4006   -6.2682 H   0  0  0  0  0  0  0  0  0  0  0  0
   -1.0941   -4.0187   -8.1156 H   0  0  0  0  0  0  0  0  0  0  0  0
   -1.3435   -5.4020   -6.9837 H   0  0  0  0  0  0  0  0  0  0  0  0
    0.1811   -4.4227   -6.8998 H   0  0  0  0  0  0  0  0  0  0  0  0
   -4.1188   -5.5282   -2.3841 H   0  0  0  0  0  0  0  0  0  0  0  0
   -6.5847   -6.8176   -2.5536 H   0  0  0  0  0  0  0  0  0  0  0  0
   -8.2726   -8.4507    3.2227 H   0  0  0  0  0  0  0  0  0  0  0  0
   -9.8162   -9.8517    4.5703 H   0  0  0  0  0  0  0  0  0  0  0  0
  -11.8381  -11.2505    4.7136 H   0  0  0  0  0  0  0  0  0  0  0  0
  -12.7993  -10.3879    0.6218 H   0  0  0  0  0  0  0  0  0  0  0  0
  -11.2801   -8.9920   -0.7224 H   0  0  0  0  0  0  0  0  0  0  0  0
  1  2  2  3
  2  3  1  0
  3  4  2  0
  3  5  1  0
  5  6  2  0
  6  7  1  0
  7  8  2  0
  8  9  1  0
  9 10  2  0
 10 11  1  0
 10 12  1  0
 12 13  2  0
 13 14  1  0
 14 15  2  0
 15 16  1  0
 16 17  2  3
 17 18  1  0
 18 19  3  0
 17 20  1  0
 20 21  3  0
  1 22  1  0
 22 23  2  0
 23 24  1  0
 24 25  1  0
 25 26  2  0
 26 27  1  0
 27 28  2  0
 28 29  1  0
 28 30  1  0
 30 31  2  0
 24 32  1  0
 32 33  2  0
 33 34  1  0
 34 35  2  0
 35 36  1  0
 35 37  1  0
 37 38  2  0
 23 39  1  0
 39 40  1  0
 40 41  1  0
 41 42  2  0
 42 43  1  0
 43 44  1  0
 44 45  2  0
 45 46  1  0
 46 47  2  0
 47 48  1  0
 47 49  1  0
 49 50  2  0
 43 51  1  0
 51 52  2  0
 52 53  1  0
 53 54  2  0
 54 55  1  0
 54 56  1  0
 56 57  2  0
 42 58  1  0
 58 59  1  0
 41 60  1  0
 60 61  2  0
 61 62  1  0
 62 63  2  0
 63 64  1  0
 64 65  2  0
 65 66  1  0
 66 67  1  0
 67 68  1  0
 66 69  2  0
 61 70  1  0
 70 71  1  0
 71 72  1  0
 72 73  1  0
 73 74  1  0
 74 75  1  0
 75 76  2  0
 76 77  1  0
 77 78  1  0
 75 79  1  0
 79 80  1  0
 80 81  1  0
 81 82  1  0
 82 83  1  0
 83 84  1  0
 84 85  2  0
 85 86  1  0
 86 87  2  0
 87 88  1  0
 88 89  1  0
 89 90  1  0
 88 91  2  0
 83 92  2  0
 92 93  1  0
 93 94  1  0
 94 95  1  0
 95 96  1  0
 96 97  1  0
 97 98  1  0
 98 99  1  0
 99100  1  0
100101  1  0
101102  1  0
 99103  1  0
103104  1  0
 96105  1  0
105106  1  0
 92107  1  0
107108  2  0
108109  1  0
109110  2  0
110111  1  0
111112  1  0
112113  1  0
113114  1  0
114115  1  0
113116  2  0
116117  1  0
116118  1  0
118119  1  0
110120  1  0
120121  2  0
121122  1  0
122123  1  0
123124  2  0
124125  1  0
125126  2  0
126127  1  0
127128  1  0
126129  1  0
122130  2  0
130131  1  0
121132  1  0
132133  2  0
133134  1  0
133135  1  0
135136  2  3
136137  1  0
137138  2  0
137139  1  0
139140  2  0
140141  1  0
141142  2  0
142143  1  0
143144  2  0
144145  1  0
144146  1  0
146147  2  0
147148  1  0
148149  2  0
149150  1  0
150151  2  3
151152  1  0
152153  3  0
151154  1  0
154155  3  0
 16  2  1  0
 59 22  1  0
102 60  1  0
131107  1  0
150136  1  0
 15  5  1  0
 31 25  1  0
 38 32  1  0
 58 39  2  0
 69 62  1  0
101 70  2  0
130109  1  0
149139  1  0
 13  7  1  0
 50 44  1  0
 57 51  1  0
100 72  2  0
118111  2  0
134120  1  0
147141  1  0
 98 73  2  0
129123  1  0
 78 74  2  0
 97 79  2  0
 95 80  2  0
 94 82  2  0
 91 84  1  0
  1156  1  0
  6157  1  0
  8158  1  0
  9159  1  0
 12160  1  0
 14161  1  0
 26162  1  0
 27163  1  0
 29164  1  0
 29165  1  0
 29166  1  0
 30167  1  0
 31168  1  0
 33169  1  0
 34170  1  0
 36171  1  0
 36172  1  0
 36173  1  0
 37174  1  0
 38175  1  0
 45176  1  0
 46177  1  0
 48178  1  0
 48179  1  0
 48180  1  0
 49181  1  0
 50182  1  0
 52183  1  0
 53184  1  0
 55185  1  0
 55186  1  0
 55187  1  0
 56188  1  0
 57189  1  0
 63190  1  0
 64191  1  0
 65192  1  0
 67193  1  0
 67194  1  0
 68195  1  0
 68196  1  0
 68197  1  0
 69198  1  0
 85199  1  0
 86200  1  0
 87201  1  0
 89202  1  0
 89203  1  0
 90204  1  0
 90205  1  0
 90206  1  0
 91207  1  0
103208  1  0
103209  1  0
104210  1  0
104211  1  0
104212  1  0
105213  1  0
105214  1  0
106215  1  0
106216  1  0
106217  1  0
108218  1  0
114219  1  0
114220  1  0
115221  1  0
115222  1  0
115223  1  0
124224  1  0
125225  1  0
127226  1  0
127227  1  0
128228  1  0
128229  1  0
128230  1  0
132231  1  0
135232  1  0
140233  1  0
142234  1  0
143235  1  0
146236  1  0
148237  1  0
M  END

