
     RDKit          3D

255281  0  0  0  0  0  0  0  0999 V2000
   -5.3770    7.1620    0.0783 C   0  0  0  0  0  0  0  0  0  0  0  0
   -6.3450    6.2606    0.3692 C   0  0  0  0  0  0  0  0  0  0  0  0
   -6.1963    4.8055    0.2678 C   0  0  0  0  0  0  0  0  0  0  0  0
   -5.6086    4.1929   -0.6583 O   0  0  0  0  0  0  0  0  0  0  0  0
   -7.0652    4.1628    1.2136 C   0  0  0  0  0  0  0  0  0  0  0  0
   -7.1780    2.7972    1.4628 C   0  0  0  0  0  0  0  0  0  0  0  0
   -8.1055    2.3644    2.4249 C   0  0  0  0  0  0  0  0  0  0  0  0
   -8.2617    0.9991    2.7004 C   0  0  0  0  0  0  0  0  0  0  0  0
   -9.1769    0.5803    3.6696 C   0  0  0  0  0  0  0  0  0  0  0  0
   -9.9510    1.5172    4.3628 C   0  0  0  0  0  0  0  0  0  0  0  0
  -10.8277    1.0907    5.3065 F   0  0  0  0  0  0  0  0  0  0  0  0
   -9.8318    2.8804    4.0762 C   0  0  0  0  0  0  0  0  0  0  0  0
   -8.9078    3.3208    3.1121 C   0  0  0  0  0  0  0  0  0  0  0  0
   -8.7818    4.6927    2.8153 C   0  0  0  0  0  0  0  0  0  0  0  0
   -7.8305    5.1132    1.8640 C   0  0  0  0  0  0  0  0  0  0  0  0
   -7.4890    6.4717    1.3303 C   0  0  0  0  0  0  0  0  0  0  0  0
   -8.0861    7.6534    1.6626 C   0  0  0  0  0  0  0  0  0  0  0  0
   -9.0087    7.7838    2.7659 C   0  0  0  0  0  0  0  0  0  0  0  0
   -9.7337    7.9038    3.6626 N   0  0  0  0  0  0  0  0  0  0  0  0
   -7.8530    8.8711    0.9323 C   0  0  0  0  0  0  0  0  0  0  0  0
   -7.6794    9.8633    0.3503 N   0  0  0  0  0  0  0  0  0  0  0  0
   -3.9468    6.8745    0.3051 C   0  0  0  0  0  0  0  0  0  0  0  0
   -3.1052    5.8856   -0.2669 C   0  0  0  0  0  0  0  0  0  0  0  0
   -3.3199    5.2426   -1.5452 N   0  0  0  0  0  0  0  0  0  0  0  0
   -3.9271    5.9856   -2.6302 C   0  0  0  0  0  0  0  0  0  0  0  0
   -4.8308    5.3573   -3.5029 C   0  0  0  0  0  0  0  0  0  0  0  0
   -5.4144    6.0732   -4.5533 C   0  0  0  0  0  0  0  0  0  0  0  0
   -5.0804    7.4172   -4.7656 C   0  0  0  0  0  0  0  0  0  0  0  0
   -5.7428    8.1943   -5.8625 C   0  0  0  0  0  0  0  0  0  0  0  0
   -4.1783    8.0495   -3.8982 C   0  0  0  0  0  0  0  0  0  0  0  0
   -3.5947    7.3362   -2.8469 C   0  0  0  0  0  0  0  0  0  0  0  0
   -2.7829    3.9232   -1.7922 C   0  0  0  0  0  0  0  0  0  0  0  0
   -2.0939    3.6468   -2.9831 C   0  0  0  0  0  0  0  0  0  0  0  0
   -1.5255    2.3915   -3.1997 C   0  0  0  0  0  0  0  0  0  0  0  0
   -1.6247    1.3916   -2.2242 C   0  0  0  0  0  0  0  0  0  0  0  0
   -1.0316    0.0377   -2.4743 C   0  0  0  0  0  0  0  0  0  0  0  0
   -2.3219    1.6554   -1.0378 C   0  0  0  0  0  0  0  0  0  0  0  0
   -2.8945    2.9118   -0.8215 C   0  0  0  0  0  0  0  0  0  0  0  0
   -1.8985    5.8204    0.4438 C   0  0  0  0  0  0  0  0  0  0  0  0
   -0.5790    4.7849    0.4452 S   0  0  0  0  0  0  0  0  0  0  0  0
    0.2187    5.5529    1.7328 C   0  0  0  0  0  0  0  0  0  0  0  0
   -0.5546    6.6424    2.1713 C   0  0  0  0  0  0  0  0  0  0  0  0
   -0.0716    7.7006    3.0225 N   0  0  0  0  0  0  0  0  0  0  0  0
    0.3582    7.4477    4.3845 C   0  0  0  0  0  0  0  0  0  0  0  0
   -0.1560    6.3596    5.1146 C   0  0  0  0  0  0  0  0  0  0  0  0
    0.2944    6.1023    6.4182 C   0  0  0  0  0  0  0  0  0  0  0  0
    1.2595    6.9260    7.0138 C   0  0  0  0  0  0  0  0  0  0  0  0
    1.7263    6.6721    8.4165 C   0  0  0  0  0  0  0  0  0  0  0  0
    1.7463    8.0310    6.3091 C   0  0  0  0  0  0  0  0  0  0  0  0
    1.3028    8.2890    5.0083 C   0  0  0  0  0  0  0  0  0  0  0  0
    0.1037    8.9931    2.4086 C   0  0  0  0  0  0  0  0  0  0  0  0
    0.7676    9.1018    1.1745 C   0  0  0  0  0  0  0  0  0  0  0  0
    0.9401   10.3446    0.5678 C   0  0  0  0  0  0  0  0  0  0  0  0
    0.4267   11.5030    1.1679 C   0  0  0  0  0  0  0  0  0  0  0  0
    0.6421   12.8338    0.5171 C   0  0  0  0  0  0  0  0  0  0  0  0
   -0.2385   11.3989    2.4021 C   0  0  0  0  0  0  0  0  0  0  0  0
   -0.4086   10.1525    3.0121 C   0  0  0  0  0  0  0  0  0  0  0  0
   -1.7325    6.7385    1.4294 C   0  0  0  0  0  0  0  0  0  0  0  0
   -3.1099    7.6677    1.5607 S   0  0  0  0  0  0  0  0  0  0  0  0
    1.2328    4.8634    2.5333 C   0  0  0  0  0  0  0  0  0  0  0  0
    2.5731    5.2314    2.7469 C   0  0  0  0  0  0  0  0  0  0  0  0
    3.2493    6.3562    2.0756 C   0  0  0  0  0  0  0  0  0  0  0  0
    3.7022    7.4287    2.8620 C   0  0  0  0  0  0  0  0  0  0  0  0
    4.2874    8.5454    2.2664 C   0  0  0  0  0  0  0  0  0  0  0  0
    4.4466    8.5965    0.8837 C   0  0  0  0  0  0  0  0  0  0  0  0
    4.0572    7.5137    0.0928 C   0  0  0  0  0  0  0  0  0  0  0  0
    3.4620    6.3796    0.6728 C   0  0  0  0  0  0  0  0  0  0  0  0
    3.2196    5.1734   -0.2034 C   0  0  0  0  0  0  0  0  0  0  0  0
    4.4335    4.2509   -0.1847 C   0  0  0  0  0  0  0  0  0  0  0  0
    3.2307    4.2736    3.5279 C   0  0  0  0  0  0  0  0  0  0  0  0
    4.8730    3.9827    3.8355 S   0  0  0  0  0  0  0  0  0  0  0  0
    4.5492    2.4346    4.4699 C   0  0  0  0  0  0  0  0  0  0  0  0
    5.2491    1.2657    4.3949 C   0  0  0  0  0  0  0  0  0  0  0  0
    6.5501    1.0714    3.9178 C   0  0  0  0  0  0  0  0  0  0  0  0
    6.9335   -0.2199    3.4475 C   0  0  0  0  0  0  0  0  0  0  0  0
    8.1671   -0.3357    2.9016 N   0  0  0  0  0  0  0  0  0  0  0  0
    8.6965    1.2218    3.0674 S   0  0  0  0  0  0  0  0  0  0  0  0
    7.4577    2.0670    3.7704 N   0  0  0  0  0  0  0  0  0  0  0  0
    6.0208   -1.2714    3.5587 C   0  0  0  0  0  0  0  0  0  0  0  0
    6.0490   -2.5461    3.0513 C   0  0  0  0  0  0  0  0  0  0  0  0
    6.6644   -3.0701    1.5628 S   0  0  0  0  0  0  0  0  0  0  0  0
    5.3117   -4.0624    1.2747 C   0  0  0  0  0  0  0  0  0  0  0  0
    4.7700   -4.5247    0.0662 C   0  0  0  0  0  0  0  0  0  0  0  0
    5.4541   -4.1536   -1.1893 C   0  0  0  0  0  0  0  0  0  0  0  0
    5.2524   -2.8727   -1.7781 C   0  0  0  0  0  0  0  0  0  0  0  0
    4.0854   -1.9748   -1.4064 C   0  0  0  0  0  0  0  0  0  0  0  0
    4.4891   -0.8726   -0.4313 C   0  0  0  0  0  0  0  0  0  0  0  0
    6.1666   -2.4127   -2.7460 C   0  0  0  0  0  0  0  0  0  0  0  0
    7.2377   -3.2098   -3.1498 C   0  0  0  0  0  0  0  0  0  0  0  0
    7.4397   -4.4568   -2.5638 C   0  0  0  0  0  0  0  0  0  0  0  0
    6.5749   -4.9082   -1.5671 C   0  0  0  0  0  0  0  0  0  0  0  0
    3.4297   -4.9708    0.2275 C   0  0  0  0  0  0  0  0  0  0  0  0
    2.9593   -4.5882    1.8276 S   0  0  0  0  0  0  0  0  0  0  0  0
    4.4360   -3.9988    2.3228 C   0  0  0  0  0  0  0  0  0  0  0  0
    4.8202   -3.1000    3.3148 C   0  0  0  0  0  0  0  0  0  0  0  0
    4.0192   -2.2416    3.9857 N   0  0  0  0  0  0  0  0  0  0  0  0
    4.7332   -1.0824    4.0619 C   0  0  0  0  0  0  0  0  0  0  0  0
    4.2932    0.2364    4.3667 C   0  0  0  0  0  0  0  0  0  0  0  0
    3.0219    0.7639    4.2889 N   0  0  0  0  0  0  0  0  0  0  0  0
    3.2236    2.1106    4.3816 C   0  0  0  0  0  0  0  0  0  0  0  0
    2.4759    3.1764    3.8685 C   0  0  0  0  0  0  0  0  0  0  0  0
    0.9356    3.3494    3.2381 S   0  0  0  0  0  0  0  0  0  0  0  0
    1.8722    0.1773    3.5804 C   0  0  0  0  0  0  0  0  0  0  0  0
    0.6233    0.1627    4.4677 C   0  0  0  0  0  0  0  0  0  0  0  0
    2.9162   -2.6460    4.8697 C   0  0  0  0  0  0  0  0  0  0  0  0
    3.4084   -3.5851    5.9752 C   0  0  0  0  0  0  0  0  0  0  0  0
    2.5017   -5.7136   -0.6802 C   0  0  0  0  0  0  0  0  0  0  0  0
    2.4611   -5.8726   -2.0929 C   0  0  0  0  0  0  0  0  0  0  0  0
    3.3847   -5.3650   -3.0637 N   0  0  0  0  0  0  0  0  0  0  0  0
    3.0644   -4.1317   -3.7708 C   0  0  0  0  0  0  0  0  0  0  0  0
    3.9922   -3.5512   -4.6572 C   0  0  0  0  0  0  0  0  0  0  0  0
    3.6876   -2.3774   -5.3493 C   0  0  0  0  0  0  0  0  0  0  0  0
    2.4460   -1.7541   -5.1753 C   0  0  0  0  0  0  0  0  0  0  0  0
    2.1370   -0.4593   -5.8665 C   0  0  0  0  0  0  0  0  0  0  0  0
    1.5171   -2.3167   -4.2916 C   0  0  0  0  0  0  0  0  0  0  0  0
    1.8253   -3.4815   -3.5847 C   0  0  0  0  0  0  0  0  0  0  0  0
    4.2299   -6.3779   -3.6675 C   0  0  0  0  0  0  0  0  0  0  0  0
    4.2296   -6.5943   -5.0583 C   0  0  0  0  0  0  0  0  0  0  0  0
    4.9774   -7.6280   -5.6215 C   0  0  0  0  0  0  0  0  0  0  0  0
    5.7296   -8.4811   -4.8069 C   0  0  0  0  0  0  0  0  0  0  0  0
    6.5217   -9.5940   -5.4309 C   0  0  0  0  0  0  0  0  0  0  0  0
    5.6960   -8.3110   -3.4153 C   0  0  0  0  0  0  0  0  0  0  0  0
    4.9428   -7.2762   -2.8517 C   0  0  0  0  0  0  0  0  0  0  0  0
    1.3899   -6.6683   -2.4912 C   0  0  0  0  0  0  0  0  0  0  0  0
    0.7767   -7.1144   -3.9888 S   0  0  0  0  0  0  0  0  0  0  0  0
   -0.4964   -8.0468   -3.3382 C   0  0  0  0  0  0  0  0  0  0  0  0
   -0.4568   -7.9535   -1.9370 C   0  0  0  0  0  0  0  0  0  0  0  0
   -1.3977   -8.5800   -1.0510 N   0  0  0  0  0  0  0  0  0  0  0  0
   -2.7165   -8.0039   -0.8511 C   0  0  0  0  0  0  0  0  0  0  0  0
   -3.7965   -8.7987   -0.4153 C   0  0  0  0  0  0  0  0  0  0  0  0
   -5.0626   -8.2420   -0.2253 C   0  0  0  0  0  0  0  0  0  0  0  0
   -5.2910   -6.8907   -0.5078 C   0  0  0  0  0  0  0  0  0  0  0  0
   -6.6484   -6.3002   -0.2808 C   0  0  0  0  0  0  0  0  0  0  0  0
   -4.2278   -6.0931   -0.9475 C   0  0  0  0  0  0  0  0  0  0  0  0
   -2.9543   -6.6417   -1.1219 C   0  0  0  0  0  0  0  0  0  0  0  0
   -1.0505   -9.8669   -0.5053 C   0  0  0  0  0  0  0  0  0  0  0  0
   -1.1666  -10.1080    0.8720 C   0  0  0  0  0  0  0  0  0  0  0  0
   -0.9486  -11.3894    1.3853 C   0  0  0  0  0  0  0  0  0  0  0  0
   -0.5627  -12.4361    0.5373 C   0  0  0  0  0  0  0  0  0  0  0  0
   -0.3898  -13.8204    1.0877 C   0  0  0  0  0  0  0  0  0  0  0  0
   -0.4194  -12.1918   -0.8373 C   0  0  0  0  0  0  0  0  0  0  0  0
   -0.6656  -10.9180   -1.3551 C   0  0  0  0  0  0  0  0  0  0  0  0
    0.6174   -7.1710   -1.5086 C   0  0  0  0  0  0  0  0  0  0  0  0
    1.1908   -6.6214   -0.0363 S   0  0  0  0  0  0  0  0  0  0  0  0
   -1.5879   -8.6576   -4.1207 C   0  0  0  0  0  0  0  0  0  0  0  0
   -1.4450   -9.2126   -5.3413 C   0  0  0  0  0  0  0  0  0  0  0  0
   -0.1895   -9.7421   -5.9019 C   0  0  0  0  0  0  0  0  0  0  0  0
    0.9423   -9.7111   -5.3531 O   0  0  0  0  0  0  0  0  0  0  0  0
   -0.5041  -10.4948   -7.1083 C   0  0  0  0  0  0  0  0  0  0  0  0
   -1.8789  -10.4946   -7.2975 C   0  0  0  0  0  0  0  0  0  0  0  0
   -2.4354  -11.2575   -8.3370 C   0  0  0  0  0  0  0  0  0  0  0  0
   -1.5854  -11.9665   -9.1980 C   0  0  0  0  0  0  0  0  0  0  0  0
   -0.1926  -11.9323   -9.0217 C   0  0  0  0  0  0  0  0  0  0  0  0
    0.9044  -12.9113  -10.2522 Br  0  0  0  0  0  0  0  0  0  0  0  0
    0.3654  -11.1968   -7.9593 C   0  0  0  0  0  0  0  0  0  0  0  0
    2.1081  -11.1782   -7.6920 Cl  0  0  0  0  0  0  0  0  0  0  0  0
   -2.5375   -9.6446   -6.2589 C   0  0  0  0  0  0  0  0  0  0  0  0
   -3.8054   -9.1426   -6.3074 C   0  0  0  0  0  0  0  0  0  0  0  0
   -4.2530   -8.0989   -5.4221 C   0  0  0  0  0  0  0  0  0  0  0  0
   -4.6192   -7.2588   -4.7160 N   0  0  0  0  0  0  0  0  0  0  0  0
   -4.7543   -9.5083   -7.3196 C   0  0  0  0  0  0  0  0  0  0  0  0
   -5.5313   -9.7901   -8.1320 N   0  0  0  0  0  0  0  0  0  0  0  0
   -5.5830    8.2067    0.1961 H   0  0  0  0  0  0  0  0  0  0  0  0
   -6.5545    2.0958    0.9128 H   0  0  0  0  0  0  0  0  0  0  0  0
   -7.6635    0.2640    2.1730 H   0  0  0  0  0  0  0  0  0  0  0  0
   -9.2902   -0.4777    3.8694 H   0  0  0  0  0  0  0  0  0  0  0  0
  -10.4507    3.5847    4.6110 H   0  0  0  0  0  0  0  0  0  0  0  0
   -9.4197    5.3887    3.3294 H   0  0  0  0  0  0  0  0  0  0  0  0
   -5.0982    4.3179   -3.3591 H   0  0  0  0  0  0  0  0  0  0  0  0
   -6.1245    5.5757   -5.2017 H   0  0  0  0  0  0  0  0  0  0  0  0
   -6.6550    8.6939   -5.4691 H   0  0  0  0  0  0  0  0  0  0  0  0
   -6.0287    7.5262   -6.7013 H   0  0  0  0  0  0  0  0  0  0  0  0
   -5.0477    8.9681   -6.2602 H   0  0  0  0  0  0  0  0  0  0  0  0
   -3.9207    9.0925   -4.0355 H   0  0  0  0  0  0  0  0  0  0  0  0
   -2.8795    7.8379   -2.2067 H   0  0  0  0  0  0  0  0  0  0  0  0
   -1.9818    4.4098   -3.7396 H   0  0  0  0  0  0  0  0  0  0  0  0
   -1.0062    2.2024   -4.1303 H   0  0  0  0  0  0  0  0  0  0  0  0
   -1.7332   -0.5731   -3.0815 H   0  0  0  0  0  0  0  0  0  0  0  0
   -0.0699    0.1412   -3.0163 H   0  0  0  0  0  0  0  0  0  0  0  0
   -0.8244   -0.4891   -1.5171 H   0  0  0  0  0  0  0  0  0  0  0  0
   -2.4154    0.8904   -0.2773 H   0  0  0  0  0  0  0  0  0  0  0  0
   -3.4127    3.0942    0.1132 H   0  0  0  0  0  0  0  0  0  0  0  0
   -0.9132    5.7182    4.6868 H   0  0  0  0  0  0  0  0  0  0  0  0
   -0.1131    5.2608    6.9605 H   0  0  0  0  0  0  0  0  0  0  0  0
    1.1465    7.3023    9.1245 H   0  0  0  0  0  0  0  0  0  0  0  0
    2.8047    6.9242    8.5190 H   0  0  0  0  0  0  0  0  0  0  0  0
    1.5993    5.6041    8.6983 H   0  0  0  0  0  0  0  0  0  0  0  0
    2.4744    8.6910    6.7592 H   0  0  0  0  0  0  0  0  0  0  0  0
    1.7233    9.1381    4.4871 H   0  0  0  0  0  0  0  0  0  0  0  0
    1.1666    8.2216    0.6937 H   0  0  0  0  0  0  0  0  0  0  0  0
    1.4729   10.4003   -0.3733 H   0  0  0  0  0  0  0  0  0  0  0  0
   -0.1672   13.5446    0.7961 H   0  0  0  0  0  0  0  0  0  0  0  0
    1.6215   13.2566    0.8305 H   0  0  0  0  0  0  0  0  0  0  0  0
    0.6385   12.7266   -0.5897 H   0  0  0  0  0  0  0  0  0  0  0  0
   -0.6314   12.2839    2.8875 H   0  0  0  0  0  0  0  0  0  0  0  0
   -0.9311   10.0872    3.9599 H   0  0  0  0  0  0  0  0  0  0  0  0
    3.6026    7.3952    3.9378 H   0  0  0  0  0  0  0  0  0  0  0  0
    4.6266    9.3686    2.8789 H   0  0  0  0  0  0  0  0  0  0  0  0
    4.9070    9.4632    0.4240 H   0  0  0  0  0  0  0  0  0  0  0  0
    4.2378    7.5559   -0.9737 H   0  0  0  0  0  0  0  0  0  0  0  0
    3.0220    5.4943   -1.2493 H   0  0  0  0  0  0  0  0  0  0  0  0
    2.3342    4.5985    0.1213 H   0  0  0  0  0  0  0  0  0  0  0  0
    4.6024    3.8420    0.8300 H   0  0  0  0  0  0  0  0  0  0  0  0
    4.2644    3.4043   -0.8825 H   0  0  0  0  0  0  0  0  0  0  0  0
    5.3417    4.8032   -0.5108 H   0  0  0  0  0  0  0  0  0  0  0  0
    3.6922   -1.4906   -2.3274 H   0  0  0  0  0  0  0  0  0  0  0  0
    3.2464   -2.5560   -0.9774 H   0  0  0  0  0  0  0  0  0  0  0  0
    4.7789   -1.3023    0.5452 H   0  0  0  0  0  0  0  0  0  0  0  0
    5.3256   -0.2650   -0.8402 H   0  0  0  0  0  0  0  0  0  0  0  0
    3.6201   -0.2011   -0.2581 H   0  0  0  0  0  0  0  0  0  0  0  0
    6.0307   -1.4388   -3.2067 H   0  0  0  0  0  0  0  0  0  0  0  0
    7.9196   -2.8543   -3.9110 H   0  0  0  0  0  0  0  0  0  0  0  0
    8.2908   -5.0586   -2.8541 H   0  0  0  0  0  0  0  0  0  0  0  0
    6.8029   -5.8372   -1.0554 H   0  0  0  0  0  0  0  0  0  0  0  0
    2.0790   -0.8427    3.2184 H   0  0  0  0  0  0  0  0  0  0  0  0
    1.6601    0.7567    2.6577 H   0  0  0  0  0  0  0  0  0  0  0  0
    0.7865   -0.4269    5.3939 H   0  0  0  0  0  0  0  0  0  0  0  0
    0.3481    1.1926    4.7887 H   0  0  0  0  0  0  0  0  0  0  0  0
   -0.2283   -0.2791    3.9052 H   0  0  0  0  0  0  0  0  0  0  0  0
    2.1143   -3.1471    4.2818 H   0  0  0  0  0  0  0  0  0  0  0  0
    2.5012   -1.7645    5.3840 H   0  0  0  0  0  0  0  0  0  0  0  0
    2.6029   -3.7224    6.7268 H   0  0  0  0  0  0  0  0  0  0  0  0
    4.2964   -3.1556    6.4857 H   0  0  0  0  0  0  0  0  0  0  0  0
    3.6672   -4.5783    5.5509 H   0  0  0  0  0  0  0  0  0  0  0  0
    4.9703   -3.9949   -4.8016 H   0  0  0  0  0  0  0  0  0  0  0  0
    4.4312   -1.9405   -6.0083 H   0  0  0  0  0  0  0  0  0  0  0  0
    1.0586   -0.3980   -6.1291 H   0  0  0  0  0  0  0  0  0  0  0  0
    2.7279   -0.3642   -6.8034 H   0  0  0  0  0  0  0  0  0  0  0  0
    2.3913    0.3852   -5.1921 H   0  0  0  0  0  0  0  0  0  0  0  0
    0.5575   -1.8469   -4.1361 H   0  0  0  0  0  0  0  0  0  0  0  0
    1.0832   -3.8686   -2.9003 H   0  0  0  0  0  0  0  0  0  0  0  0
    3.6203   -5.9866   -5.7132 H   0  0  0  0  0  0  0  0  0  0  0  0
    4.9649   -7.7695   -6.6977 H   0  0  0  0  0  0  0  0  0  0  0  0
    7.2204   -9.1768   -6.1869 H   0  0  0  0  0  0  0  0  0  0  0  0
    5.8278  -10.3023   -5.9315 H   0  0  0  0  0  0  0  0  0  0  0  0
    7.1152  -10.1491   -4.6734 H   0  0  0  0  0  0  0  0  0  0  0  0
    6.2456   -8.9813   -2.7642 H   0  0  0  0  0  0  0  0  0  0  0  0
    4.9116   -7.1827   -1.7737 H   0  0  0  0  0  0  0  0  0  0  0  0
   -3.6679   -9.8537   -0.2160 H   0  0  0  0  0  0  0  0  0  0  0  0
   -5.8665   -8.8730    0.1283 H   0  0  0  0  0  0  0  0  0  0  0  0
   -6.8164   -6.1737    0.8095 H   0  0  0  0  0  0  0  0  0  0  0  0
   -6.7450   -5.3107   -0.7742 H   0  0  0  0  0  0  0  0  0  0  0  0
   -7.4340   -6.9714   -0.6937 H   0  0  0  0  0  0  0  0  0  0  0  0
   -4.3854   -5.0441   -1.1628 H   0  0  0  0  0  0  0  0  0  0  0  0
   -2.1539   -5.9927   -1.4571 H   0  0  0  0  0  0  0  0  0  0  0  0
   -1.4573   -9.3074    1.5436 H   0  0  0  0  0  0  0  0  0  0  0  0
   -1.0869  -11.5695    2.4450 H   0  0  0  0  0  0  0  0  0  0  0  0
    0.1484  -14.4768    0.3729 H   0  0  0  0  0  0  0  0  0  0  0  0
    0.1950  -13.7832    2.0305 H   0  0  0  0  0  0  0  0  0  0  0  0
   -1.3872  -14.2616    1.2946 H   0  0  0  0  0  0  0  0  0  0  0  0
   -0.1425  -12.9926   -1.5131 H   0  0  0  0  0  0  0  0  0  0  0  0
   -0.5948  -10.7634   -2.4231 H   0  0  0  0  0  0  0  0  0  0  0  0
   -2.5643   -8.6301   -3.6572 H   0  0  0  0  0  0  0  0  0  0  0  0
   -3.5011  -11.3586   -8.4781 H   0  0  0  0  0  0  0  0  0  0  0  0
   -2.0144  -12.5497  -10.0042 H   0  0  0  0  0  0  0  0  0  0  0  0
  1  2  2  3
  2  3  1  0
  3  4  2  0
  3  5  1  0
  5  6  2  0
  6  7  1  0
  7  8  2  0
  8  9  1  0
  9 10  2  0
 10 11  1  0
 10 12  1  0
 12 13  2  0
 13 14  1  0
 14 15  2  0
 15 16  1  0
 16 17  2  3
 17 18  1  0
 18 19  3  0
 17 20  1  0
 20 21  3  0
  1 22  1  0
 22 23  2  0
 23 24  1  0
 24 25  1  0
 25 26  2  0
 26 27  1  0
 27 28  2  0
 28 29  1  0
 28 30  1  0
 30 31  2  0
 24 32  1  0
 32 33  2  0
 33 34  1  0
 34 35  2  0
 35 36  1  0
 35 37  1  0
 37 38  2  0
 23 39  1  0
 39 40  1  0
 40 41  1  0
 41 42  2  0
 42 43  1  0
 43 44  1  0
 44 45  2  0
 45 46  1  0
 46 47  2  0
 47 48  1  0
 47 49  1  0
 49 50  2  0
 43 51  1  0
 51 52  2  0
 52 53  1  0
 53 54  2  0
 54 55  1  0
 54 56  1  0
 56 57  2  0
 42 58  1  0
 58 59  1  0
 41 60  1  0
 60 61  2  0
 61 62  1  0
 62 63  2  0
 63 64  1  0
 64 65  2  0
 65 66  1  0
 66 67  2  0
 67 68  1  0
 68 69  1  0
 61 70  1  0
 70 71  1  0
 71 72  1  0
 72 73  1  0
 73 74  1  0
 74 75  1  0
 75 76  2  0
 76 77  1  0
 77 78  1  0
 75 79  1  0
 79 80  1  0
 80 81  1  0
 81 82  1  0
 82 83  1  0
 83 84  1  0
 84 85  2  0
 85 86  1  0
 86 87  1  0
 85 88  1  0
 88 89  2  0
 89 90  1  0
 90 91  2  0
 83 92  2  0
 92 93  1  0
 93 94  1  0
 94 95  1  0
 95 96  1  0
 96 97  1  0
 97 98  1  0
 98 99  1  0
 99100  1  0
100101  1  0
101102  1  0
 99103  1  0
103104  1  0
 96105  1  0
105106  1  0
 92107  1  0
107108  2  0
108109  1  0
109110  1  0
110111  2  0
111112  1  0
112113  2  0
113114  1  0
113115  1  0
115116  2  0
109117  1  0
117118  2  0
118119  1  0
119120  2  0
120121  1  0
120122  1  0
122123  2  0
108124  1  0
124125  1  0
125126  1  0
126127  2  0
127128  1  0
128129  1  0
129130  2  0
130131  1  0
131132  2  0
132133  1  0
132134  1  0
134135  2  0
128136  1  0
136137  2  0
137138  1  0
138139  2  0
139140  1  0
139141  1  0
141142  2  0
127143  1  0
143144  1  0
126145  1  0
145146  2  3
146147  1  0
147148  2  0
147149  1  0
149150  2  0
150151  1  0
151152  2  0
152153  1  0
153154  1  0
153155  2  0
155156  1  0
150157  1  0
157158  2  3
158159  1  0
159160  3  0
158161  1  0
161162  3  0
 16  2  1  0
 59 22  1  0
102 60  1  0
144107  1  0
157146  1  0
 15  5  1  0
 31 25  1  0
 38 32  1  0
 58 39  2  0
 67 62  1  0
101 70  2  0
116110  1  0
123117  1  0
143124  2  0
155149  1  0
 13  7  1  0
 50 44  1  0
 57 51  1  0
100 72  2  0
135129  1  0
142136  1  0
 98 73  2  0
 78 74  2  0
 97 79  2  0
 95 80  2  0
 94 82  2  0
 91 84  1  0
  1163  1  0
  6164  1  0
  8165  1  0
  9166  1  0
 12167  1  0
 14168  1  0
 26169  1  0
 27170  1  0
 29171  1  0
 29172  1  0
 29173  1  0
 30174  1  0
 31175  1  0
 33176  1  0
 34177  1  0
 36178  1  0
 36179  1  0
 36180  1  0
 37181  1  0
 38182  1  0
 45183  1  0
 46184  1  0
 48185  1  0
 48186  1  0
 48187  1  0
 49188  1  0
 50189  1  0
 52190  1  0
 53191  1  0
 55192  1  0
 55193  1  0
 55194  1  0
 56195  1  0
 57196  1  0
 63197  1  0
 64198  1  0
 65199  1  0
 66200  1  0
 68201  1  0
 68202  1  0
 69203  1  0
 69204  1  0
 69205  1  0
 86206  1  0
 86207  1  0
 87208  1  0
 87209  1  0
 87210  1  0
 88211  1  0
 89212  1  0
 90213  1  0
 91214  1  0
103215  1  0
103216  1  0
104217  1  0
104218  1  0
104219  1  0
105220  1  0
105221  1  0
106222  1  0
106223  1  0
106224  1  0
111225  1  0
112226  1  0
114227  1  0
114228  1  0
114229  1  0
115230  1  0
116231  1  0
118232  1  0
119233  1  0
121234  1  0
121235  1  0
121236  1  0
122237  1  0
123238  1  0
130239  1  0
131240  1  0
133241  1  0
133242  1  0
133243  1  0
134244  1  0
135245  1  0
137246  1  0
138247  1  0
140248  1  0
140249  1  0
140250  1  0
141251  1  0
142252  1  0
145253  1  0
151254  1  0
152255  1  0
M  END

