
     RDKit          3D

276303  0  0  0  0  0  0  0  0999 V2000
   -0.2642    3.1227   -9.2485 C   0  0  0  0  0  0  0  0  0  0  0  0
    0.6063    4.0845   -8.8845 C   0  0  0  0  0  0  0  0  0  0  0  0
    0.5926    4.8105   -7.6079 C   0  0  0  0  0  0  0  0  0  0  0  0
   -0.3871    4.9511   -6.8244 O   0  0  0  0  0  0  0  0  0  0  0  0
    1.8996    5.3545   -7.3625 C   0  0  0  0  0  0  0  0  0  0  0  0
    2.3456    6.0047   -6.2132 C   0  0  0  0  0  0  0  0  0  0  0  0
    3.7027    6.3357   -6.1153 C   0  0  0  0  0  0  0  0  0  0  0  0
    4.1971    6.9807   -4.9685 C   0  0  0  0  0  0  0  0  0  0  0  0
    5.5584    7.2609   -4.8531 C   0  0  0  0  0  0  0  0  0  0  0  0
    6.4425    6.9045   -5.8774 C   0  0  0  0  0  0  0  0  0  0  0  0
    7.7652    7.1647   -5.7509 F   0  0  0  0  0  0  0  0  0  0  0  0
    5.9644    6.2669   -7.0277 C   0  0  0  0  0  0  0  0  0  0  0  0
    4.5978    5.9814   -7.1650 C   0  0  0  0  0  0  0  0  0  0  0  0
    4.1077    5.3299   -8.3191 C   0  0  0  0  0  0  0  0  0  0  0  0
    2.7335    5.0523   -8.4200 C   0  0  0  0  0  0  0  0  0  0  0  0
    1.9517    4.3587   -9.4893 C   0  0  0  0  0  0  0  0  0  0  0  0
    2.3144    4.2038  -10.7867 C   0  0  0  0  0  0  0  0  0  0  0  0
    1.4056    3.7090  -11.7826 C   0  0  0  0  0  0  0  0  0  0  0  0
    0.6829    3.3174  -12.6035 N   0  0  0  0  0  0  0  0  0  0  0  0
    3.5856    4.6492  -11.2950 C   0  0  0  0  0  0  0  0  0  0  0  0
    4.5960    5.0098  -11.7291 N   0  0  0  0  0  0  0  0  0  0  0  0
   -1.2836    2.6110   -8.3153 C   0  0  0  0  0  0  0  0  0  0  0  0
   -0.9804    1.6581   -7.3261 C   0  0  0  0  0  0  0  0  0  0  0  0
    0.1401    0.7570   -7.4042 N   0  0  0  0  0  0  0  0  0  0  0  0
    0.3774    0.0335   -8.6323 C   0  0  0  0  0  0  0  0  0  0  0  0
    1.6831   -0.1458   -9.1230 C   0  0  0  0  0  0  0  0  0  0  0  0
    1.9042   -0.8591  -10.3068 C   0  0  0  0  0  0  0  0  0  0  0  0
    0.8225   -1.3765  -11.0343 C   0  0  0  0  0  0  0  0  0  0  0  0
    1.0700   -2.1719  -12.2803 C   0  0  0  0  0  0  0  0  0  0  0  0
   -0.4802   -1.2088  -10.5441 C   0  0  0  0  0  0  0  0  0  0  0  0
   -0.7020   -0.5062   -9.3585 C   0  0  0  0  0  0  0  0  0  0  0  0
    0.9985    0.5390   -6.2622 C   0  0  0  0  0  0  0  0  0  0  0  0
    1.4113    1.6161   -5.4591 C   0  0  0  0  0  0  0  0  0  0  0  0
    2.2594    1.3988   -4.3670 C   0  0  0  0  0  0  0  0  0  0  0  0
    2.7172    0.1047   -4.0714 C   0  0  0  0  0  0  0  0  0  0  0  0
    3.6436   -0.1433   -2.9178 C   0  0  0  0  0  0  0  0  0  0  0  0
    2.2998   -0.9684   -4.8624 C   0  0  0  0  0  0  0  0  0  0  0  0
    1.4468   -0.7556   -5.9484 C   0  0  0  0  0  0  0  0  0  0  0  0
   -1.8791    1.7417   -6.2579 C   0  0  0  0  0  0  0  0  0  0  0  0
   -1.8359    1.2199   -4.6656 S   0  0  0  0  0  0  0  0  0  0  0  0
   -3.1177    2.2095   -4.1368 C   0  0  0  0  0  0  0  0  0  0  0  0
   -3.5825    2.9557   -5.2377 C   0  0  0  0  0  0  0  0  0  0  0  0
   -4.5928    3.9695   -5.1651 N   0  0  0  0  0  0  0  0  0  0  0  0
   -4.1902    5.3500   -5.1711 C   0  0  0  0  0  0  0  0  0  0  0  0
   -3.6394    5.9353   -4.0250 C   0  0  0  0  0  0  0  0  0  0  0  0
   -3.3883    7.3097   -3.9854 C   0  0  0  0  0  0  0  0  0  0  0  0
   -3.6624    8.1130   -5.1056 C   0  0  0  0  0  0  0  0  0  0  0  0
   -3.5013    9.6003   -5.0215 C   0  0  0  0  0  0  0  0  0  0  0  0
   -4.1910    7.5235   -6.2605 C   0  0  0  0  0  0  0  0  0  0  0  0
   -4.4498    6.1515   -6.2954 C   0  0  0  0  0  0  0  0  0  0  0  0
   -5.9720    3.6412   -5.4490 C   0  0  0  0  0  0  0  0  0  0  0  0
   -7.0016    4.4499   -4.9385 C   0  0  0  0  0  0  0  0  0  0  0  0
   -8.3314    4.2214   -5.3017 C   0  0  0  0  0  0  0  0  0  0  0  0
   -8.6561    3.1708   -6.1708 C   0  0  0  0  0  0  0  0  0  0  0  0
  -10.0714    2.9905   -6.6355 C   0  0  0  0  0  0  0  0  0  0  0  0
   -7.6383    2.3468   -6.6659 C   0  0  0  0  0  0  0  0  0  0  0  0
   -6.3092    2.5706   -6.3005 C   0  0  0  0  0  0  0  0  0  0  0  0
   -2.8620    2.6687   -6.3964 C   0  0  0  0  0  0  0  0  0  0  0  0
   -2.6868    3.4752   -7.8613 S   0  0  0  0  0  0  0  0  0  0  0  0
   -3.2489    2.6300   -2.7326 C   0  0  0  0  0  0  0  0  0  0  0  0
   -2.1526    3.0181   -1.9543 C   0  0  0  0  0  0  0  0  0  0  0  0
   -2.5573    3.4308   -0.7002 C   0  0  0  0  0  0  0  0  0  0  0  0
   -1.6803    3.7286    0.7013 S   0  0  0  0  0  0  0  0  0  0  0  0
   -3.0798    3.8072    1.6597 C   0  0  0  0  0  0  0  0  0  0  0  0
   -3.2442    3.1954    2.9476 C   0  0  0  0  0  0  0  0  0  0  0  0
   -2.2568    2.9530    3.9030 C   0  0  0  0  0  0  0  0  0  0  0  0
   -2.5056    1.9335    4.8358 C   0  0  0  0  0  0  0  0  0  0  0  0
   -1.5480    1.3345    5.8529 C   0  0  0  0  0  0  0  0  0  0  0  0
   -1.8444    2.0281    7.1993 C   0  0  0  0  0  0  0  0  0  0  0  0
   -1.9767    3.4363    7.2633 C   0  0  0  0  0  0  0  0  0  0  0  0
   -2.2784    4.0718    8.4671 C   0  0  0  0  0  0  0  0  0  0  0  0
   -2.4202    3.3323    9.6467 C   0  0  0  0  0  0  0  0  0  0  0  0
   -2.7349    4.0286   10.9434 C   0  0  0  0  0  0  0  0  0  0  0  0
   -1.4620    4.4980   11.6336 C   0  0  0  0  0  0  0  0  0  0  0  0
   -2.2299    1.9436    9.6142 C   0  0  0  0  0  0  0  0  0  0  0  0
   -1.9436    1.2978    8.4046 C   0  0  0  0  0  0  0  0  0  0  0  0
   -0.0628    1.4168    5.4951 C   0  0  0  0  0  0  0  0  0  0  0  0
    0.3767    1.3051    4.1601 C   0  0  0  0  0  0  0  0  0  0  0  0
    1.7315    1.3957    3.8474 C   0  0  0  0  0  0  0  0  0  0  0  0
    2.6953    1.5039    4.8612 C   0  0  0  0  0  0  0  0  0  0  0  0
    4.1609    1.5057    4.5328 C   0  0  0  0  0  0  0  0  0  0  0  0
    4.6444    2.9004    4.1746 C   0  0  0  0  0  0  0  0  0  0  0  0
    2.2752    1.6098    6.1918 C   0  0  0  0  0  0  0  0  0  0  0  0
    0.9202    1.5573    6.5090 C   0  0  0  0  0  0  0  0  0  0  0  0
   -2.1168   -0.0831    5.8328 C   0  0  0  0  0  0  0  0  0  0  0  0
   -3.4602   -0.0632    5.4723 C   0  0  0  0  0  0  0  0  0  0  0  0
   -3.6892    1.1946    4.7866 C   0  0  0  0  0  0  0  0  0  0  0  0
   -4.7034    1.4877    3.8665 C   0  0  0  0  0  0  0  0  0  0  0  0
   -4.4609    2.5268    2.9460 C   0  0  0  0  0  0  0  0  0  0  0  0
   -5.3350    2.9695    1.7763 C   0  0  0  0  0  0  0  0  0  0  0  0
   -6.2661    4.0909    2.2785 C   0  0  0  0  0  0  0  0  0  0  0  0
   -6.7835    4.0718    3.5942 C   0  0  0  0  0  0  0  0  0  0  0  0
   -7.4903    5.1604    4.1026 C   0  0  0  0  0  0  0  0  0  0  0  0
   -7.7722    6.2622    3.2937 C   0  0  0  0  0  0  0  0  0  0  0  0
   -8.3925    7.4950    3.8980 C   0  0  0  0  0  0  0  0  0  0  0  0
   -7.3264    8.3401    4.5914 C   0  0  0  0  0  0  0  0  0  0  0  0
   -7.3585    6.2513    1.9531 C   0  0  0  0  0  0  0  0  0  0  0  0
   -6.6216    5.1726    1.4487 C   0  0  0  0  0  0  0  0  0  0  0  0
   -6.0709    1.8139    1.0952 C   0  0  0  0  0  0  0  0  0  0  0  0
   -5.4699    0.5380    0.9836 C   0  0  0  0  0  0  0  0  0  0  0  0
   -6.1828   -0.5471    0.4763 C   0  0  0  0  0  0  0  0  0  0  0  0
   -7.4951   -0.3827    0.0159 C   0  0  0  0  0  0  0  0  0  0  0  0
   -8.3102   -1.5720   -0.4087 C   0  0  0  0  0  0  0  0  0  0  0  0
   -9.2186   -2.0311    0.7323 C   0  0  0  0  0  0  0  0  0  0  0  0
   -8.0623    0.9005    0.0219 C   0  0  0  0  0  0  0  0  0  0  0  0
   -7.3617    1.9837    0.5497 C   0  0  0  0  0  0  0  0  0  0  0  0
   -4.2232    3.5522    0.9099 C   0  0  0  0  0  0  0  0  0  0  0  0
   -3.8945    3.3494   -0.4384 C   0  0  0  0  0  0  0  0  0  0  0  0
   -4.6893    2.7667   -1.8133 S   0  0  0  0  0  0  0  0  0  0  0  0
   -4.0003   -1.5899    4.9600 S   0  0  0  0  0  0  0  0  0  0  0  0
   -2.4975   -2.2846    5.2272 C   0  0  0  0  0  0  0  0  0  0  0  0
   -1.8117   -3.6473    4.5487 S   0  0  0  0  0  0  0  0  0  0  0  0
   -0.2307   -3.0535    4.6915 C   0  0  0  0  0  0  0  0  0  0  0  0
   -0.2450   -1.7705    5.2724 C   0  0  0  0  0  0  0  0  0  0  0  0
   -1.5523   -1.3533    5.5731 C   0  0  0  0  0  0  0  0  0  0  0  0
    0.9223   -3.6895    4.0372 C   0  0  0  0  0  0  0  0  0  0  0  0
    1.4887   -3.3144    2.7958 C   0  0  0  0  0  0  0  0  0  0  0  0
    0.8360   -2.4425    1.8459 N   0  0  0  0  0  0  0  0  0  0  0  0
    1.4876   -1.2679    1.2825 C   0  0  0  0  0  0  0  0  0  0  0  0
    2.8457   -0.9830    1.5515 C   0  0  0  0  0  0  0  0  0  0  0  0
    3.4686    0.1420    0.9972 C   0  0  0  0  0  0  0  0  0  0  0  0
    2.7345    1.0512    0.2180 C   0  0  0  0  0  0  0  0  0  0  0  0
    3.3544    2.3443   -0.2283 C   0  0  0  0  0  0  0  0  0  0  0  0
    1.3878    0.7909   -0.0505 C   0  0  0  0  0  0  0  0  0  0  0  0
    0.7758   -0.3590    0.4604 C   0  0  0  0  0  0  0  0  0  0  0  0
   -0.3913   -2.9457    1.2805 C   0  0  0  0  0  0  0  0  0  0  0  0
   -0.3771   -4.1275    0.5191 C   0  0  0  0  0  0  0  0  0  0  0  0
   -1.5642   -4.6419   -0.0094 C   0  0  0  0  0  0  0  0  0  0  0  0
   -2.7866   -3.9920    0.2323 C   0  0  0  0  0  0  0  0  0  0  0  0
   -4.0595   -4.5021   -0.3682 C   0  0  0  0  0  0  0  0  0  0  0  0
   -2.7982   -2.8180    0.9984 C   0  0  0  0  0  0  0  0  0  0  0  0
   -1.6143   -2.3028    1.5290 C   0  0  0  0  0  0  0  0  0  0  0  0
    2.5423   -4.1737    2.4638 C   0  0  0  0  0  0  0  0  0  0  0  0
    3.7032   -4.2302    1.2477 S   0  0  0  0  0  0  0  0  0  0  0  0
    4.5737   -5.5550    1.8956 C   0  0  0  0  0  0  0  0  0  0  0  0
    3.8916   -5.9795    3.0622 C   0  0  0  0  0  0  0  0  0  0  0  0
    4.2047   -7.1555    3.8267 N   0  0  0  0  0  0  0  0  0  0  0  0
    5.3660   -7.1490    4.6892 C   0  0  0  0  0  0  0  0  0  0  0  0
    6.1815   -8.2871    4.8145 C   0  0  0  0  0  0  0  0  0  0  0  0
    7.3284   -8.2583    5.6134 C   0  0  0  0  0  0  0  0  0  0  0  0
    7.6863   -7.0867    6.2961 C   0  0  0  0  0  0  0  0  0  0  0  0
    8.8818   -7.0720    7.1993 C   0  0  0  0  0  0  0  0  0  0  0  0
    6.8710   -5.9530    6.1910 C   0  0  0  0  0  0  0  0  0  0  0  0
    5.7290   -5.9788    5.3856 C   0  0  0  0  0  0  0  0  0  0  0  0
    3.3187   -8.3042    3.7169 C   0  0  0  0  0  0  0  0  0  0  0  0
    2.5067   -8.4768    2.5733 C   0  0  0  0  0  0  0  0  0  0  0  0
    1.6798   -9.5943    2.4412 C   0  0  0  0  0  0  0  0  0  0  0  0
    1.6445  -10.5697    3.4413 C   0  0  0  0  0  0  0  0  0  0  0  0
    0.7288  -11.7528    3.3050 C   0  0  0  0  0  0  0  0  0  0  0  0
    2.3975  -10.3810    4.6078 C   0  0  0  0  0  0  0  0  0  0  0  0
    3.2177   -9.2551    4.7511 C   0  0  0  0  0  0  0  0  0  0  0  0
    2.7963   -5.1688    3.3504 C   0  0  0  0  0  0  0  0  0  0  0  0
    1.7185   -5.0716    4.6397 S   0  0  0  0  0  0  0  0  0  0  0  0
    6.0259   -5.6906    1.6473 C   0  0  0  0  0  0  0  0  0  0  0  0
    6.7720   -6.7920    1.8326 C   0  0  0  0  0  0  0  0  0  0  0  0
    6.3306   -8.1806    1.6515 C   0  0  0  0  0  0  0  0  0  0  0  0
    5.1779   -8.5477    1.3192 O   0  0  0  0  0  0  0  0  0  0  0  0
    7.5038   -9.0484    1.7049 C   0  0  0  0  0  0  0  0  0  0  0  0
    8.6437   -8.2586    1.8087 C   0  0  0  0  0  0  0  0  0  0  0  0
    9.9111   -8.8578    1.7813 C   0  0  0  0  0  0  0  0  0  0  0  0
   10.0052  -10.2534    1.7661 C   0  0  0  0  0  0  0  0  0  0  0  0
    8.8501  -11.0497    1.7877 C   0  0  0  0  0  0  0  0  0  0  0  0
    9.0578  -12.9562    1.8621 Br  0  0  0  0  0  0  0  0  0  0  0  0
    7.5714  -10.4488    1.7316 C   0  0  0  0  0  0  0  0  0  0  0  0
    6.1103  -11.4304    1.7869 Cl  0  0  0  0  0  0  0  0  0  0  0  0
    8.2542   -6.8338    1.9830 C   0  0  0  0  0  0  0  0  0  0  0  0
    9.0313   -5.8473    2.5090 C   0  0  0  0  0  0  0  0  0  0  0  0
    8.4605   -4.6501    3.0767 C   0  0  0  0  0  0  0  0  0  0  0  0
    8.0087   -3.6941    3.5473 N   0  0  0  0  0  0  0  0  0  0  0  0
   10.4584   -5.9724    2.6918 C   0  0  0  0  0  0  0  0  0  0  0  0
   11.6021   -6.0515    2.8318 N   0  0  0  0  0  0  0  0  0  0  0  0
   -0.0613    2.5026  -10.1071 H   0  0  0  0  0  0  0  0  0  0  0  0
    1.6536    6.2201   -5.4043 H   0  0  0  0  0  0  0  0  0  0  0  0
    3.5303    7.2523   -4.1593 H   0  0  0  0  0  0  0  0  0  0  0  0
    5.9342    7.7469   -3.9628 H   0  0  0  0  0  0  0  0  0  0  0  0
    6.6653    5.9923   -7.8071 H   0  0  0  0  0  0  0  0  0  0  0  0
    4.8006    5.0205   -9.0822 H   0  0  0  0  0  0  0  0  0  0  0  0
    2.5289    0.2661   -8.5875 H   0  0  0  0  0  0  0  0  0  0  0  0
    2.9173   -1.0006  -10.6557 H   0  0  0  0  0  0  0  0  0  0  0  0
    1.9302   -1.7533  -12.8466 H   0  0  0  0  0  0  0  0  0  0  0  0
    0.1809   -2.1534  -12.9458 H   0  0  0  0  0  0  0  0  0  0  0  0
    1.2968   -3.2241  -12.0071 H   0  0  0  0  0  0  0  0  0  0  0  0
   -1.3218   -1.6262  -11.0781 H   0  0  0  0  0  0  0  0  0  0  0  0
   -1.7144   -0.3954   -8.9954 H   0  0  0  0  0  0  0  0  0  0  0  0
    1.0906    2.6257   -5.6885 H   0  0  0  0  0  0  0  0  0  0  0  0
    2.5656    2.2444   -3.7614 H   0  0  0  0  0  0  0  0  0  0  0  0
    4.5089   -0.7493   -3.2542 H   0  0  0  0  0  0  0  0  0  0  0  0
    3.1020   -0.6966   -2.1243 H   0  0  0  0  0  0  0  0  0  0  0  0
    4.0337    0.8068   -2.5038 H   0  0  0  0  0  0  0  0  0  0  0  0
    2.6385   -1.9737   -4.6460 H   0  0  0  0  0  0  0  0  0  0  0  0
    1.1408   -1.5998   -6.5507 H   0  0  0  0  0  0  0  0  0  0  0  0
   -3.4551    5.3406   -3.1407 H   0  0  0  0  0  0  0  0  0  0  0  0
   -3.0034    7.7514   -3.0764 H   0  0  0  0  0  0  0  0  0  0  0  0
   -4.4177   10.0407   -4.5751 H   0  0  0  0  0  0  0  0  0  0  0  0
   -2.6272    9.8627   -4.3901 H   0  0  0  0  0  0  0  0  0  0  0  0
   -3.3472   10.0362   -6.0299 H   0  0  0  0  0  0  0  0  0  0  0  0
   -4.4250    8.1260   -7.1296 H   0  0  0  0  0  0  0  0  0  0  0  0
   -4.8810    5.7116   -7.1853 H   0  0  0  0  0  0  0  0  0  0  0  0
   -6.7741    5.2739   -4.2723 H   0  0  0  0  0  0  0  0  0  0  0  0
   -9.1058    4.8744   -4.9190 H   0  0  0  0  0  0  0  0  0  0  0  0
  -10.2767    3.6930   -7.4714 H   0  0  0  0  0  0  0  0  0  0  0  0
  -10.7818    3.1957   -5.8064 H   0  0  0  0  0  0  0  0  0  0  0  0
  -10.2442    1.9511   -6.9901 H   0  0  0  0  0  0  0  0  0  0  0  0
   -7.8664    1.5424   -7.3520 H   0  0  0  0  0  0  0  0  0  0  0  0
   -5.5418    1.9345   -6.7226 H   0  0  0  0  0  0  0  0  0  0  0  0
   -1.1204    2.9697   -2.2720 H   0  0  0  0  0  0  0  0  0  0  0  0
   -1.3028    3.4638    3.8691 H   0  0  0  0  0  0  0  0  0  0  0  0
   -1.8565    4.0460    6.3807 H   0  0  0  0  0  0  0  0  0  0  0  0
   -2.3947    5.1478    8.4796 H   0  0  0  0  0  0  0  0  0  0  0  0
   -3.3960    4.9083   10.7599 H   0  0  0  0  0  0  0  0  0  0  0  0
   -3.2890    3.3431   11.6244 H   0  0  0  0  0  0  0  0  0  0  0  0
   -1.7146    4.9985   12.5929 H   0  0  0  0  0  0  0  0  0  0  0  0
   -0.9194    5.2265   10.9902 H   0  0  0  0  0  0  0  0  0  0  0  0
   -0.7906    3.6347   11.8458 H   0  0  0  0  0  0  0  0  0  0  0  0
   -2.3052    1.3609   10.5215 H   0  0  0  0  0  0  0  0  0  0  0  0
   -1.7978    0.2283    8.4174 H   0  0  0  0  0  0  0  0  0  0  0  0
   -0.3275    1.1514    3.3536 H   0  0  0  0  0  0  0  0  0  0  0  0
    2.0311    1.3827    2.8163 H   0  0  0  0  0  0  0  0  0  0  0  0
    4.7450    1.1384    5.4100 H   0  0  0  0  0  0  0  0  0  0  0  0
    4.3688    0.8026    3.6960 H   0  0  0  0  0  0  0  0  0  0  0  0
    4.4271    3.6093    5.0045 H   0  0  0  0  0  0  0  0  0  0  0  0
    4.1487    3.2572    3.2452 H   0  0  0  0  0  0  0  0  0  0  0  0
    5.7429    2.8818    4.0039 H   0  0  0  0  0  0  0  0  0  0  0  0
    3.0021    1.7102    6.9895 H   0  0  0  0  0  0  0  0  0  0  0  0
    0.6557    1.6092    7.5545 H   0  0  0  0  0  0  0  0  0  0  0  0
   -5.5952    0.8780    3.8046 H   0  0  0  0  0  0  0  0  0  0  0  0
   -6.6019    3.2482    4.2619 H   0  0  0  0  0  0  0  0  0  0  0  0
   -7.8067    5.1498    5.1410 H   0  0  0  0  0  0  0  0  0  0  0  0
   -8.8931    8.1032    3.1166 H   0  0  0  0  0  0  0  0  0  0  0  0
   -9.1708    7.2044    4.6394 H   0  0  0  0  0  0  0  0  0  0  0  0
   -7.7839    9.2557    5.0222 H   0  0  0  0  0  0  0  0  0  0  0  0
   -6.8418    7.7623    5.4108 H   0  0  0  0  0  0  0  0  0  0  0  0
   -6.5484    8.6433    3.8564 H   0  0  0  0  0  0  0  0  0  0  0  0
   -7.5901    7.0902    1.3070 H   0  0  0  0  0  0  0  0  0  0  0  0
   -6.3024    5.2016    0.4134 H   0  0  0  0  0  0  0  0  0  0  0  0
   -4.4554    0.3795    1.3176 H   0  0  0  0  0  0  0  0  0  0  0  0
   -5.7276   -1.5253    0.4604 H   0  0  0  0  0  0  0  0  0  0  0  0
   -7.6473   -2.4171   -0.7039 H   0  0  0  0  0  0  0  0  0  0  0  0
   -8.9343   -1.3075   -1.2900 H   0  0  0  0  0  0  0  0  0  0  0  0
   -8.6145   -2.3440    1.6075 H   0  0  0  0  0  0  0  0  0  0  0  0
   -9.8335   -2.8929    0.3988 H   0  0  0  0  0  0  0  0  0  0  0  0
   -9.9015   -1.2043    1.0355 H   0  0  0  0  0  0  0  0  0  0  0  0
   -9.0684    1.0513   -0.3497 H   0  0  0  0  0  0  0  0  0  0  0  0
   -7.8465    2.9518    0.5428 H   0  0  0  0  0  0  0  0  0  0  0  0
    0.6390   -1.1538    5.3650 H   0  0  0  0  0  0  0  0  0  0  0  0
    3.4246   -1.5977    2.2222 H   0  0  0  0  0  0  0  0  0  0  0  0
    4.5053    0.3436    1.2372 H   0  0  0  0  0  0  0  0  0  0  0  0
    3.1741    3.1232    0.5434 H   0  0  0  0  0  0  0  0  0  0  0  0
    2.9082    2.6805   -1.1896 H   0  0  0  0  0  0  0  0  0  0  0  0
    4.4495    2.2262   -0.3736 H   0  0  0  0  0  0  0  0  0  0  0  0
    0.8047    1.4788   -0.6530 H   0  0  0  0  0  0  0  0  0  0  0  0
   -0.2646   -0.5034    0.2240 H   0  0  0  0  0  0  0  0  0  0  0  0
    0.5559   -4.6426    0.3336 H   0  0  0  0  0  0  0  0  0  0  0  0
   -1.5313   -5.5438   -0.6081 H   0  0  0  0  0  0  0  0  0  0  0  0
   -4.2938   -3.9114   -1.2827 H   0  0  0  0  0  0  0  0  0  0  0  0
   -4.8957   -4.3900    0.3572 H   0  0  0  0  0  0  0  0  0  0  0  0
   -3.9722   -5.5764   -0.6379 H   0  0  0  0  0  0  0  0  0  0  0  0
   -3.7240   -2.3045    1.1995 H   0  0  0  0  0  0  0  0  0  0  0  0
   -1.6552   -1.4078    2.1374 H   0  0  0  0  0  0  0  0  0  0  0  0
    5.9439   -9.1958    4.2771 H   0  0  0  0  0  0  0  0  0  0  0  0
    7.9331   -9.1521    5.6962 H   0  0  0  0  0  0  0  0  0  0  0  0
    9.6682   -7.7599    6.8263 H   0  0  0  0  0  0  0  0  0  0  0  0
    9.3170   -6.0512    7.2510 H   0  0  0  0  0  0  0  0  0  0  0  0
    8.5720   -7.3848    8.2182 H   0  0  0  0  0  0  0  0  0  0  0  0
    7.1180   -5.0430    6.7270 H   0  0  0  0  0  0  0  0  0  0  0  0
    5.1261   -5.0867    5.3048 H   0  0  0  0  0  0  0  0  0  0  0  0
    2.5262   -7.7592    1.7616 H   0  0  0  0  0  0  0  0  0  0  0  0
    1.0685   -9.6991    1.5532 H   0  0  0  0  0  0  0  0  0  0  0  0
   -0.2691  -11.5050    3.7230 H   0  0  0  0  0  0  0  0  0  0  0  0
    0.6075  -12.0318    2.2358 H   0  0  0  0  0  0  0  0  0  0  0  0
    1.1451  -12.6323    3.8398 H   0  0  0  0  0  0  0  0  0  0  0  0
    2.3458  -11.1047    5.4089 H   0  0  0  0  0  0  0  0  0  0  0  0
    3.7688   -9.1321    5.6736 H   0  0  0  0  0  0  0  0  0  0  0  0
    6.5250   -4.7529    1.4472 H   0  0  0  0  0  0  0  0  0  0  0  0
   10.8293   -8.2873    1.7669 H   0  0  0  0  0  0  0  0  0  0  0  0
   10.9820  -10.7222    1.7742 H   0  0  0  0  0  0  0  0  0  0  0  0
  1  2  2  3
  2  3  1  0
  3  4  2  0
  3  5  1  0
  5  6  2  0
  6  7  1  0
  7  8  2  0
  8  9  1  0
  9 10  2  0
 10 11  1  0
 10 12  1  0
 12 13  2  0
 13 14  1  0
 14 15  2  0
 15 16  1  0
 16 17  2  3
 17 18  1  0
 18 19  3  0
 17 20  1  0
 20 21  3  0
  1 22  1  0
 22 23  2  0
 23 24  1  0
 24 25  1  0
 25 26  2  0
 26 27  1  0
 27 28  2  0
 28 29  1  0
 28 30  1  0
 30 31  2  0
 24 32  1  0
 32 33  2  0
 33 34  1  0
 34 35  2  0
 35 36  1  0
 35 37  1  0
 37 38  2  0
 23 39  1  0
 39 40  1  0
 40 41  1  0
 41 42  2  0
 42 43  1  0
 43 44  1  0
 44 45  2  0
 45 46  1  0
 46 47  2  0
 47 48  1  0
 47 49  1  0
 49 50  2  0
 43 51  1  0
 51 52  2  0
 52 53  1  0
 53 54  2  0
 54 55  1  0
 54 56  1  0
 56 57  2  0
 42 58  1  0
 58 59  1  0
 41 60  1  0
 60 61  2  0
 61 62  1  0
 62 63  1  0
 63 64  1  0
 64 65  1  0
 65 66  2  0
 66 67  1  0
 67 68  1  0
 68 69  1  0
 69 70  2  0
 70 71  1  0
 71 72  2  0
 72 73  1  0
 73 74  1  0
 72 75  1  0
 75 76  2  0
 68 77  1  0
 77 78  2  0
 78 79  1  0
 79 80  2  0
 80 81  1  0
 81 82  1  0
 80 83  1  0
 83 84  2  0
 68 85  1  0
 85 86  2  0
 86 87  1  0
 87 88  1  0
 88 89  2  0
 89 90  1  0
 90 91  1  0
 91 92  2  0
 92 93  1  0
 93 94  2  0
 94 95  1  0
 95 96  1  0
 94 97  1  0
 97 98  2  0
 90 99  1  0
 99100  2  0
100101  1  0
101102  2  0
102103  1  0
103104  1  0
102105  1  0
105106  2  0
 90107  1  0
107108  1  0
108109  1  0
 86110  1  0
110111  1  0
111112  1  0
112113  1  0
113114  2  0
114115  1  0
113116  1  0
116117  2  0
117118  1  0
118119  1  0
119120  2  0
120121  1  0
121122  2  0
122123  1  0
122124  1  0
124125  2  0
118126  1  0
126127  2  0
127128  1  0
128129  2  0
129130  1  0
129131  1  0
131132  2  0
117133  1  0
133134  1  0
134135  1  0
135136  2  0
136137  1  0
137138  1  0
138139  2  0
139140  1  0
140141  2  0
141142  1  0
141143  1  0
143144  2  0
137145  1  0
145146  2  0
146147  1  0
147148  2  0
148149  1  0
148150  1  0
150151  2  0
136152  1  0
152153  1  0
135154  1  0
154155  2  3
155156  1  0
156157  2  0
156158  1  0
158159  2  0
159160  1  0
160161  2  0
161162  1  0
162163  1  0
162164  2  0
164165  1  0
159166  1  0
166167  2  3
167168  1  0
168169  3  0
167170  1  0
170171  3  0
 16  2  1  0
 59 22  1  0
109 60  1  0
115111  2  0
153116  1  0
166155  1  0
 15  5  1  0
 31 25  1  0
 38 32  1  0
 58 39  2  0
108 62  2  0
125119  1  0
132126  1  0
152133  2  0
164158  1  0
 13  7  1  0
 50 44  1  0
 57 51  1  0
107 64  2  0
144138  1  0
151145  1  0
 89 65  1  0
 98 91  1  0
106 99  1  0
 87 67  2  0
 76 69  1  0
 84 77  1  0
115 85  1  0
  1172  1  0
  6173  1  0
  8174  1  0
  9175  1  0
 12176  1  0
 14177  1  0
 26178  1  0
 27179  1  0
 29180  1  0
 29181  1  0
 29182  1  0
 30183  1  0
 31184  1  0
 33185  1  0
 34186  1  0
 36187  1  0
 36188  1  0
 36189  1  0
 37190  1  0
 38191  1  0
 45192  1  0
 46193  1  0
 48194  1  0
 48195  1  0
 48196  1  0
 49197  1  0
 50198  1  0
 52199  1  0
 53200  1  0
 55201  1  0
 55202  1  0
 55203  1  0
 56204  1  0
 57205  1  0
 61206  1  0
 66207  1  0
 70208  1  0
 71209  1  0
 73210  1  0
 73211  1  0
 74212  1  0
 74213  1  0
 74214  1  0
 75215  1  0
 76216  1  0
 78217  1  0
 79218  1  0
 81219  1  0
 81220  1  0
 82221  1  0
 82222  1  0
 82223  1  0
 83224  1  0
 84225  1  0
 88226  1  0
 92227  1  0
 93228  1  0
 95229  1  0
 95230  1  0
 96231  1  0
 96232  1  0
 96233  1  0
 97234  1  0
 98235  1  0
100236  1  0
101237  1  0
103238  1  0
103239  1  0
104240  1  0
104241  1  0
104242  1  0
105243  1  0
106244  1  0
114245  1  0
120246  1  0
121247  1  0
123248  1  0
123249  1  0
123250  1  0
124251  1  0
125252  1  0
127253  1  0
128254  1  0
130255  1  0
130256  1  0
130257  1  0
131258  1  0
132259  1  0
139260  1  0
140261  1  0
142262  1  0
142263  1  0
142264  1  0
143265  1  0
144266  1  0
146267  1  0
147268  1  0
149269  1  0
149270  1  0
149271  1  0
150272  1  0
151273  1  0
154274  1  0
160275  1  0
161276  1  0
M  END

