
     RDKit          3D

236258  0  0  0  0  0  0  0  0999 V2000
    2.7224   -0.2494   -9.1903 C   0  0  0  0  0  0  0  0  0  0  0  0
    3.9167   -0.6038   -8.7100 C   0  0  0  0  0  0  0  0  0  0  0  0
    5.1848   -0.1079   -9.2321 C   0  0  0  0  0  0  0  0  0  0  0  0
    5.3266    0.8201  -10.0765 O   0  0  0  0  0  0  0  0  0  0  0  0
    6.2614   -0.8857   -8.6422 C   0  0  0  0  0  0  0  0  0  0  0  0
    7.6296   -0.6020   -8.6636 C   0  0  0  0  0  0  0  0  0  0  0  0
    8.4754   -1.3085   -7.7922 C   0  0  0  0  0  0  0  0  0  0  0  0
    9.8393   -0.9814   -7.6980 C   0  0  0  0  0  0  0  0  0  0  0  0
   10.6599   -1.6480   -6.7935 C   0  0  0  0  0  0  0  0  0  0  0  0
   10.1301   -2.6473   -5.9665 C   0  0  0  0  0  0  0  0  0  0  0  0
   10.9322   -3.2882   -5.0779 F   0  0  0  0  0  0  0  0  0  0  0  0
    8.7754   -2.9730   -6.0312 C   0  0  0  0  0  0  0  0  0  0  0  0
    7.9349   -2.3118   -6.9421 C   0  0  0  0  0  0  0  0  0  0  0  0
    6.5570   -2.5963   -6.9696 C   0  0  0  0  0  0  0  0  0  0  0  0
    5.7203   -1.8736   -7.8315 C   0  0  0  0  0  0  0  0  0  0  0  0
    4.2330   -1.8064   -7.8838 C   0  0  0  0  0  0  0  0  0  0  0  0
    3.3450   -2.5688   -7.1896 C   0  0  0  0  0  0  0  0  0  0  0  0
    3.7088   -3.8082   -6.5603 C   0  0  0  0  0  0  0  0  0  0  0  0
    3.9747   -4.8169   -6.0600 N   0  0  0  0  0  0  0  0  0  0  0  0
    1.9674   -2.1774   -7.0217 C   0  0  0  0  0  0  0  0  0  0  0  0
    0.8681   -1.8577   -6.8702 N   0  0  0  0  0  0  0  0  0  0  0  0
    2.0589    1.0024   -8.7487 C   0  0  0  0  0  0  0  0  0  0  0  0
    2.6063    2.1295   -8.0795 C   0  0  0  0  0  0  0  0  0  0  0  0
    3.9977    2.4325   -7.8955 N   0  0  0  0  0  0  0  0  0  0  0  0
    4.4608    3.6442   -8.5313 C   0  0  0  0  0  0  0  0  0  0  0  0
    5.0376    4.6749   -7.7658 C   0  0  0  0  0  0  0  0  0  0  0  0
    5.4061    5.8793   -8.3644 C   0  0  0  0  0  0  0  0  0  0  0  0
    5.2074    6.0765   -9.7393 C   0  0  0  0  0  0  0  0  0  0  0  0
    5.5763    7.3784  -10.3795 C   0  0  0  0  0  0  0  0  0  0  0  0
    4.5904    5.0704  -10.4943 C   0  0  0  0  0  0  0  0  0  0  0  0
    4.2260    3.8609   -9.8966 C   0  0  0  0  0  0  0  0  0  0  0  0
    4.7637    1.7909   -6.8410 C   0  0  0  0  0  0  0  0  0  0  0  0
    6.1706    1.8805   -6.8293 C   0  0  0  0  0  0  0  0  0  0  0  0
    6.9211    1.2016   -5.8716 C   0  0  0  0  0  0  0  0  0  0  0  0
    6.2868    0.3842   -4.9223 C   0  0  0  0  0  0  0  0  0  0  0  0
    7.0995   -0.3703   -3.9143 C   0  0  0  0  0  0  0  0  0  0  0  0
    4.8889    0.3189   -4.9045 C   0  0  0  0  0  0  0  0  0  0  0  0
    4.1326    1.0114   -5.8552 C   0  0  0  0  0  0  0  0  0  0  0  0
    1.6175    2.8969   -7.4763 C   0  0  0  0  0  0  0  0  0  0  0  0
    1.6806    3.9877   -6.2127 S   0  0  0  0  0  0  0  0  0  0  0  0
    0.0227    3.8715   -5.8258 C   0  0  0  0  0  0  0  0  0  0  0  0
   -0.5716    2.9536   -6.7104 C   0  0  0  0  0  0  0  0  0  0  0  0
   -1.9128    2.4437   -6.6048 N   0  0  0  0  0  0  0  0  0  0  0  0
   -2.0929    1.1508   -5.9689 C   0  0  0  0  0  0  0  0  0  0  0  0
   -2.8983    0.1602   -6.5591 C   0  0  0  0  0  0  0  0  0  0  0  0
   -3.0334   -1.0970   -5.9617 C   0  0  0  0  0  0  0  0  0  0  0  0
   -2.3446   -1.3983   -4.7801 C   0  0  0  0  0  0  0  0  0  0  0  0
   -2.5142   -2.7373   -4.1202 C   0  0  0  0  0  0  0  0  0  0  0  0
   -1.5391   -0.4205   -4.1880 C   0  0  0  0  0  0  0  0  0  0  0  0
   -1.4017    0.8348   -4.7814 C   0  0  0  0  0  0  0  0  0  0  0  0
   -2.9926    3.1483   -7.2804 C   0  0  0  0  0  0  0  0  0  0  0  0
   -4.3351    2.9390   -6.9164 C   0  0  0  0  0  0  0  0  0  0  0  0
   -5.3674    3.6643   -7.5257 C   0  0  0  0  0  0  0  0  0  0  0  0
   -5.0776    4.6396   -8.4914 C   0  0  0  0  0  0  0  0  0  0  0  0
   -6.1816    5.4147   -9.1522 C   0  0  0  0  0  0  0  0  0  0  0  0
   -3.7431    4.8511   -8.8652 C   0  0  0  0  0  0  0  0  0  0  0  0
   -2.7138    4.1200   -8.2654 C   0  0  0  0  0  0  0  0  0  0  0  0
    0.3541    2.4353   -7.6129 C   0  0  0  0  0  0  0  0  0  0  0  0
    0.3662    1.0419   -8.5388 S   0  0  0  0  0  0  0  0  0  0  0  0
   -0.5018    4.2680   -4.5072 C   0  0  0  0  0  0  0  0  0  0  0  0
   -1.8472    4.2473   -4.1205 C   0  0  0  0  0  0  0  0  0  0  0  0
   -1.9851    4.2898   -2.7331 C   0  0  0  0  0  0  0  0  0  0  0  0
   -3.1433    4.0304   -1.7889 C   0  0  0  0  0  0  0  0  0  0  0  0
   -3.8127    2.6491   -2.0629 C   0  0  0  0  0  0  0  0  0  0  0  0
   -4.8476    2.6318   -3.1926 C   0  0  0  0  0  0  0  0  0  0  0  0
   -4.1052    5.2519   -1.8319 C   0  0  0  0  0  0  0  0  0  0  0  0
   -5.1896    5.2506   -0.7514 C   0  0  0  0  0  0  0  0  0  0  0  0
   -2.3552    3.9622   -0.4812 C   0  0  0  0  0  0  0  0  0  0  0  0
   -0.9900    4.1923   -0.6757 C   0  0  0  0  0  0  0  0  0  0  0  0
   -0.8004    4.4101   -2.0754 C   0  0  0  0  0  0  0  0  0  0  0  0
    0.4940    4.3631   -3.1232 S   0  0  0  0  0  0  0  0  0  0  0  0
   -0.0362    4.0496    0.3434 C   0  0  0  0  0  0  0  0  0  0  0  0
   -0.4989    3.6205    1.6024 C   0  0  0  0  0  0  0  0  0  0  0  0
    0.2891    3.3299    2.8912 C   0  0  0  0  0  0  0  0  0  0  0  0
    0.9379    4.6083    3.4869 C   0  0  0  0  0  0  0  0  0  0  0  0
    2.2998    4.9915    2.9025 C   0  0  0  0  0  0  0  0  0  0  0  0
    1.2370    2.0899    2.7895 C   0  0  0  0  0  0  0  0  0  0  0  0
    2.0989    1.9535    1.5266 C   0  0  0  0  0  0  0  0  0  0  0  0
   -0.8821    2.9480    3.7882 C   0  0  0  0  0  0  0  0  0  0  0  0
   -2.0703    2.9736    3.1274 C   0  0  0  0  0  0  0  0  0  0  0  0
   -1.8718    3.3969    1.7844 C   0  0  0  0  0  0  0  0  0  0  0  0
   -2.8175    3.5438    0.7732 C   0  0  0  0  0  0  0  0  0  0  0  0
   -3.1509    1.9127    3.8114 S   0  0  0  0  0  0  0  0  0  0  0  0
   -2.1730    1.5814    5.1671 C   0  0  0  0  0  0  0  0  0  0  0  0
   -0.9194    2.1876    4.9622 C   0  0  0  0  0  0  0  0  0  0  0  0
   -2.4169    0.5105    6.1580 C   0  0  0  0  0  0  0  0  0  0  0  0
   -3.6389   -0.1259    6.5292 C   0  0  0  0  0  0  0  0  0  0  0  0
   -4.9825    0.4322    6.4392 N   0  0  0  0  0  0  0  0  0  0  0  0
   -6.0408   -0.1507    7.2172 C   0  0  0  0  0  0  0  0  0  0  0  0
   -6.0529    0.0003    8.6168 C   0  0  0  0  0  0  0  0  0  0  0  0
   -7.1352   -0.4625    9.3657 C   0  0  0  0  0  0  0  0  0  0  0  0
   -8.2229   -1.0799    8.7323 C   0  0  0  0  0  0  0  0  0  0  0  0
   -9.3806   -1.6020    9.5413 C   0  0  0  0  0  0  0  0  0  0  0  0
   -8.2035   -1.2435    7.3394 C   0  0  0  0  0  0  0  0  0  0  0  0
   -7.1210   -0.7900    6.5899 C   0  0  0  0  0  0  0  0  0  0  0  0
   -5.2436    1.7788    6.0205 C   0  0  0  0  0  0  0  0  0  0  0  0
   -6.1381    2.0221    4.9687 C   0  0  0  0  0  0  0  0  0  0  0  0
   -6.3725    3.3311    4.5287 C   0  0  0  0  0  0  0  0  0  0  0  0
   -5.7192    4.4079    5.1437 C   0  0  0  0  0  0  0  0  0  0  0  0
   -5.9573    5.8030    4.6543 C   0  0  0  0  0  0  0  0  0  0  0  0
   -4.8883    4.1711    6.2524 C   0  0  0  0  0  0  0  0  0  0  0  0
   -4.6559    2.8649    6.6901 C   0  0  0  0  0  0  0  0  0  0  0  0
   -3.3612   -1.3765    7.1191 C   0  0  0  0  0  0  0  0  0  0  0  0
   -4.2713   -2.7697    7.3799 S   0  0  0  0  0  0  0  0  0  0  0  0
   -2.9279   -3.7520    7.7358 C   0  0  0  0  0  0  0  0  0  0  0  0
   -1.7621   -2.9693    7.7445 C   0  0  0  0  0  0  0  0  0  0  0  0
   -0.4930   -3.4022    8.2938 N   0  0  0  0  0  0  0  0  0  0  0  0
   -0.4686   -4.2115    9.4899 C   0  0  0  0  0  0  0  0  0  0  0  0
    0.5314   -5.1790    9.6655 C   0  0  0  0  0  0  0  0  0  0  0  0
    0.5995   -5.9271   10.8484 C   0  0  0  0  0  0  0  0  0  0  0  0
   -0.3485   -5.7333   11.8642 C   0  0  0  0  0  0  0  0  0  0  0  0
   -0.2379   -6.4956   13.1504 C   0  0  0  0  0  0  0  0  0  0  0  0
   -1.3445   -4.7646   11.6926 C   0  0  0  0  0  0  0  0  0  0  0  0
   -1.4048   -4.0086   10.5195 C   0  0  0  0  0  0  0  0  0  0  0  0
    0.7144   -2.7301    7.9033 C   0  0  0  0  0  0  0  0  0  0  0  0
    1.3537   -1.8562    8.7951 C   0  0  0  0  0  0  0  0  0  0  0  0
    2.4363   -1.0802    8.3639 C   0  0  0  0  0  0  0  0  0  0  0  0
    2.9027   -1.1916    7.0423 C   0  0  0  0  0  0  0  0  0  0  0  0
    4.0299   -0.3188    6.5745 C   0  0  0  0  0  0  0  0  0  0  0  0
    2.2897   -2.1098    6.1677 C   0  0  0  0  0  0  0  0  0  0  0  0
    1.2158   -2.8793    6.6057 C   0  0  0  0  0  0  0  0  0  0  0  0
   -2.0479   -1.6644    7.3286 C   0  0  0  0  0  0  0  0  0  0  0  0
   -1.1186   -0.4256    6.7188 S   0  0  0  0  0  0  0  0  0  0  0  0
   -2.9398   -5.2257    7.7035 C   0  0  0  0  0  0  0  0  0  0  0  0
   -2.2054   -5.9363    6.8234 C   0  0  0  0  0  0  0  0  0  0  0  0
   -1.6894   -7.2678    7.1040 C   0  0  0  0  0  0  0  0  0  0  0  0
   -2.1498   -8.0828    7.9486 O   0  0  0  0  0  0  0  0  0  0  0  0
   -0.5045   -7.4730    6.2924 C   0  0  0  0  0  0  0  0  0  0  0  0
    0.3157   -8.6046    6.2184 C   0  0  0  0  0  0  0  0  0  0  0  0
    1.4137   -8.5818    5.3433 C   0  0  0  0  0  0  0  0  0  0  0  0
    2.2604   -9.6938    5.2284 C   0  0  0  0  0  0  0  0  0  0  0  0
    3.3437   -9.6733    4.3436 C   0  0  0  0  0  0  0  0  0  0  0  0
    3.6042   -8.5286    3.5816 C   0  0  0  0  0  0  0  0  0  0  0  0
    4.6635   -8.5035    2.7380 F   0  0  0  0  0  0  0  0  0  0  0  0
    2.7803   -7.4029    3.6960 C   0  0  0  0  0  0  0  0  0  0  0  0
    1.6747   -7.4261    4.5570 C   0  0  0  0  0  0  0  0  0  0  0  0
    0.8221   -6.3144    4.6412 C   0  0  0  0  0  0  0  0  0  0  0  0
   -0.2873   -6.3628    5.4979 C   0  0  0  0  0  0  0  0  0  0  0  0
   -1.4064   -5.4042    5.6827 C   0  0  0  0  0  0  0  0  0  0  0  0
   -1.8483   -4.5248    4.7450 C   0  0  0  0  0  0  0  0  0  0  0  0
   -0.9811   -3.9409    3.7541 C   0  0  0  0  0  0  0  0  0  0  0  0
   -0.2924   -3.4400    2.9642 N   0  0  0  0  0  0  0  0  0  0  0  0
   -3.2436   -4.1980    4.6147 C   0  0  0  0  0  0  0  0  0  0  0  0
   -4.3661   -3.9525    4.4820 N   0  0  0  0  0  0  0  0  0  0  0  0
    2.0143   -1.0524   -9.3669 H   0  0  0  0  0  0  0  0  0  0  0  0
    8.0050    0.2145   -9.2731 H   0  0  0  0  0  0  0  0  0  0  0  0
   10.2672   -0.1973   -8.3128 H   0  0  0  0  0  0  0  0  0  0  0  0
   11.6997   -1.3829   -6.7090 H   0  0  0  0  0  0  0  0  0  0  0  0
    8.3815   -3.7358   -5.3733 H   0  0  0  0  0  0  0  0  0  0  0  0
    6.1593   -3.3063   -6.2650 H   0  0  0  0  0  0  0  0  0  0  0  0
    5.1802    4.5487   -6.7003 H   0  0  0  0  0  0  0  0  0  0  0  0
    5.8454    6.6592   -7.7585 H   0  0  0  0  0  0  0  0  0  0  0  0
    5.9658    7.2123  -11.4029 H   0  0  0  0  0  0  0  0  0  0  0  0
    4.6857    8.0405  -10.4382 H   0  0  0  0  0  0  0  0  0  0  0  0
    6.3667    7.8999   -9.7988 H   0  0  0  0  0  0  0  0  0  0  0  0
    4.3950    5.2226  -11.5520 H   0  0  0  0  0  0  0  0  0  0  0  0
    3.7553    3.0957  -10.4996 H   0  0  0  0  0  0  0  0  0  0  0  0
    6.6972    2.4515   -7.5865 H   0  0  0  0  0  0  0  0  0  0  0  0
    8.0025    1.2773   -5.8925 H   0  0  0  0  0  0  0  0  0  0  0  0
    6.6556   -1.3717   -3.7468 H   0  0  0  0  0  0  0  0  0  0  0  0
    8.1390   -0.5153   -4.2788 H   0  0  0  0  0  0  0  0  0  0  0  0
    7.1271    0.1916   -2.9589 H   0  0  0  0  0  0  0  0  0  0  0  0
    4.3823   -0.2861   -4.1633 H   0  0  0  0  0  0  0  0  0  0  0  0
    3.0568    0.9168   -5.8216 H   0  0  0  0  0  0  0  0  0  0  0  0
   -3.4140    0.3525   -7.4909 H   0  0  0  0  0  0  0  0  0  0  0  0
   -3.6789   -1.8415   -6.4212 H   0  0  0  0  0  0  0  0  0  0  0  0
   -1.5966   -3.0181   -3.5596 H   0  0  0  0  0  0  0  0  0  0  0  0
   -3.3715   -2.6921   -3.4151 H   0  0  0  0  0  0  0  0  0  0  0  0
   -2.7063   -3.5256   -4.8777 H   0  0  0  0  0  0  0  0  0  0  0  0
   -1.0082   -0.6336   -3.2643 H   0  0  0  0  0  0  0  0  0  0  0  0
   -0.7595    1.5586   -4.3007 H   0  0  0  0  0  0  0  0  0  0  0  0
   -4.6008    2.2165   -6.1510 H   0  0  0  0  0  0  0  0  0  0  0  0
   -6.3945    3.4764   -7.2381 H   0  0  0  0  0  0  0  0  0  0  0  0
   -6.6243    4.8030   -9.9666 H   0  0  0  0  0  0  0  0  0  0  0  0
   -5.7966    6.3617   -9.5897 H   0  0  0  0  0  0  0  0  0  0  0  0
   -6.9712    5.6672   -8.4174 H   0  0  0  0  0  0  0  0  0  0  0  0
   -3.4970    5.5877   -9.6175 H   0  0  0  0  0  0  0  0  0  0  0  0
   -1.7016    4.3247   -8.5781 H   0  0  0  0  0  0  0  0  0  0  0  0
   -2.6723    4.1504   -4.8051 H   0  0  0  0  0  0  0  0  0  0  0  0
   -3.0209    1.8986   -2.2838 H   0  0  0  0  0  0  0  0  0  0  0  0
   -4.3314    2.2937   -1.1492 H   0  0  0  0  0  0  0  0  0  0  0  0
   -5.0124    1.5869   -3.5218 H   0  0  0  0  0  0  0  0  0  0  0  0
   -5.8082    3.0463   -2.8318 H   0  0  0  0  0  0  0  0  0  0  0  0
   -4.5065    3.2180   -4.0629 H   0  0  0  0  0  0  0  0  0  0  0  0
   -4.5970    5.3073   -2.8228 H   0  0  0  0  0  0  0  0  0  0  0  0
   -3.5164    6.1890   -1.7067 H   0  0  0  0  0  0  0  0  0  0  0  0
   -5.7644    4.2990   -0.7516 H   0  0  0  0  0  0  0  0  0  0  0  0
   -4.7548    5.4297    0.2543 H   0  0  0  0  0  0  0  0  0  0  0  0
   -5.9082    6.0759   -0.9553 H   0  0  0  0  0  0  0  0  0  0  0  0
    1.0132    4.1940    0.1377 H   0  0  0  0  0  0  0  0  0  0  0  0
    1.0787    4.4739    4.5809 H   0  0  0  0  0  0  0  0  0  0  0  0
    0.2532    5.4765    3.3631 H   0  0  0  0  0  0  0  0  0  0  0  0
    2.2552    5.0818    1.7994 H   0  0  0  0  0  0  0  0  0  0  0  0
    3.0679    4.2480    3.1992 H   0  0  0  0  0  0  0  0  0  0  0  0
    2.6071    5.9767    3.3091 H   0  0  0  0  0  0  0  0  0  0  0  0
    0.6291    1.1593    2.8341 H   0  0  0  0  0  0  0  0  0  0  0  0
    1.9006    2.0716    3.6820 H   0  0  0  0  0  0  0  0  0  0  0  0
    1.4724    1.8735    0.6153 H   0  0  0  0  0  0  0  0  0  0  0  0
    2.6852    1.0169    1.6031 H   0  0  0  0  0  0  0  0  0  0  0  0
    2.8255    2.7861    1.4278 H   0  0  0  0  0  0  0  0  0  0  0  0
   -3.8596    3.3074    0.9476 H   0  0  0  0  0  0  0  0  0  0  0  0
   -0.0379    1.9730    5.5514 H   0  0  0  0  0  0  0  0  0  0  0  0
   -5.2311    0.4969    9.1125 H   0  0  0  0  0  0  0  0  0  0  0  0
   -7.1280   -0.3344   10.4442 H   0  0  0  0  0  0  0  0  0  0  0  0
   -9.2126   -2.6726    9.7737 H   0  0  0  0  0  0  0  0  0  0  0  0
   -9.4783   -1.0338   10.4933 H   0  0  0  0  0  0  0  0  0  0  0  0
  -10.3310   -1.4824    8.9769 H   0  0  0  0  0  0  0  0  0  0  0  0
   -9.0318   -1.7302    6.8363 H   0  0  0  0  0  0  0  0  0  0  0  0
   -7.1221   -0.9165    5.5145 H   0  0  0  0  0  0  0  0  0  0  0  0
   -6.6217    1.2021    4.4554 H   0  0  0  0  0  0  0  0  0  0  0  0
   -7.0375    3.5006    3.6894 H   0  0  0  0  0  0  0  0  0  0  0  0
   -5.1372    6.4827    4.9692 H   0  0  0  0  0  0  0  0  0  0  0  0
   -6.0051    5.8206    3.5428 H   0  0  0  0  0  0  0  0  0  0  0  0
   -6.9165    6.1799    5.0675 H   0  0  0  0  0  0  0  0  0  0  0  0
   -4.4163    4.9987    6.7674 H   0  0  0  0  0  0  0  0  0  0  0  0
   -4.0059    2.6935    7.5423 H   0  0  0  0  0  0  0  0  0  0  0  0
    1.2687   -5.3389    8.8917 H   0  0  0  0  0  0  0  0  0  0  0  0
    1.3892   -6.6586   10.9655 H   0  0  0  0  0  0  0  0  0  0  0  0
   -1.1826   -6.4407   13.7337 H   0  0  0  0  0  0  0  0  0  0  0  0
   -0.0206   -7.5670   12.9455 H   0  0  0  0  0  0  0  0  0  0  0  0
    0.5874   -6.0712   13.7646 H   0  0  0  0  0  0  0  0  0  0  0  0
   -2.0644   -4.5723   12.4782 H   0  0  0  0  0  0  0  0  0  0  0  0
   -2.1648   -3.2385   10.4295 H   0  0  0  0  0  0  0  0  0  0  0  0
    0.9639   -1.7102    9.7957 H   0  0  0  0  0  0  0  0  0  0  0  0
    2.8947   -0.3764    9.0506 H   0  0  0  0  0  0  0  0  0  0  0  0
    4.9571   -0.5916    7.1149 H   0  0  0  0  0  0  0  0  0  0  0  0
    4.1953   -0.4309    5.4829 H   0  0  0  0  0  0  0  0  0  0  0  0
    3.7847    0.7418    6.7758 H   0  0  0  0  0  0  0  0  0  0  0  0
    2.6392   -2.2149    5.1532 H   0  0  0  0  0  0  0  0  0  0  0  0
    0.7371   -3.5632    5.9258 H   0  0  0  0  0  0  0  0  0  0  0  0
   -3.4198   -5.7288    8.5319 H   0  0  0  0  0  0  0  0  0  0  0  0
    0.1006   -9.4749    6.8302 H   0  0  0  0  0  0  0  0  0  0  0  0
    2.0826  -10.5842    5.8154 H   0  0  0  0  0  0  0  0  0  0  0  0
    3.9915  -10.5409    4.2438 H   0  0  0  0  0  0  0  0  0  0  0  0
    3.0015   -6.5248    3.0992 H   0  0  0  0  0  0  0  0  0  0  0  0
    1.0370   -5.4382    4.0495 H   0  0  0  0  0  0  0  0  0  0  0  0
  1  2  2  3
  2  3  1  0
  3  4  2  0
  3  5  1  0
  5  6  2  0
  6  7  1  0
  7  8  2  0
  8  9  1  0
  9 10  2  0
 10 11  1  0
 10 12  1  0
 12 13  2  0
 13 14  1  0
 14 15  2  0
 15 16  1  0
 16 17  2  3
 17 18  1  0
 18 19  3  0
 17 20  1  0
 20 21  3  0
  1 22  1  0
 22 23  2  0
 23 24  1  0
 24 25  1  0
 25 26  2  0
 26 27  1  0
 27 28  2  0
 28 29  1  0
 28 30  1  0
 30 31  2  0
 24 32  1  0
 32 33  2  0
 33 34  1  0
 34 35  2  0
 35 36  1  0
 35 37  1  0
 37 38  2  0
 23 39  1  0
 39 40  1  0
 40 41  1  0
 41 42  2  0
 42 43  1  0
 43 44  1  0
 44 45  2  0
 45 46  1  0
 46 47  2  0
 47 48  1  0
 47 49  1  0
 49 50  2  0
 43 51  1  0
 51 52  2  0
 52 53  1  0
 53 54  2  0
 54 55  1  0
 54 56  1  0
 56 57  2  0
 42 58  1  0
 58 59  1  0
 41 60  1  0
 60 61  2  0
 61 62  1  0
 62 63  1  0
 63 64  1  0
 64 65  1  0
 63 66  1  0
 66 67  1  0
 63 68  1  0
 68 69  2  0
 69 70  1  0
 70 71  1  0
 69 72  1  0
 72 73  2  0
 73 74  1  0
 74 75  1  0
 75 76  1  0
 74 77  1  0
 77 78  1  0
 74 79  1  0
 79 80  2  0
 80 81  1  0
 81 82  2  0
 80 83  1  0
 83 84  1  0
 84 85  2  0
 84 86  1  0
 86 87  2  0
 87 88  1  0
 88 89  1  0
 89 90  2  0
 90 91  1  0
 91 92  2  0
 92 93  1  0
 92 94  1  0
 94 95  2  0
 88 96  1  0
 96 97  2  0
 97 98  1  0
 98 99  2  0
 99100  1  0
 99101  1  0
101102  2  0
 87103  1  0
103104  1  0
104105  1  0
105106  2  0
106107  1  0
107108  1  0
108109  2  0
109110  1  0
110111  2  0
111112  1  0
111113  1  0
113114  2  0
107115  1  0
115116  2  0
116117  1  0
117118  2  0
118119  1  0
118120  1  0
120121  2  0
106122  1  0
122123  1  0
105124  1  0
124125  2  3
125126  1  0
126127  2  0
126128  1  0
128129  2  0
129130  1  0
130131  2  0
131132  1  0
132133  2  0
133134  1  0
133135  1  0
135136  2  0
136137  1  0
137138  2  0
138139  1  0
139140  2  3
140141  1  0
141142  3  0
140143  1  0
143144  3  0
 16  2  1  0
 59 22  1  0
 71 60  1  0
 81 73  1  0
123 86  1  0
139125  1  0
 15  5  1  0
 31 25  1  0
 38 32  1  0
 58 39  2  0
 70 62  2  0
 85 79  1  0
 95 89  1  0
102 96  1  0
122103  2  0
138128  1  0
 13  7  1  0
 50 44  1  0
 57 51  1  0
 82 68  1  0
114108  1  0
121115  1  0
136130  1  0
  1145  1  0
  6146  1  0
  8147  1  0
  9148  1  0
 12149  1  0
 14150  1  0
 26151  1  0
 27152  1  0
 29153  1  0
 29154  1  0
 29155  1  0
 30156  1  0
 31157  1  0
 33158  1  0
 34159  1  0
 36160  1  0
 36161  1  0
 36162  1  0
 37163  1  0
 38164  1  0
 45165  1  0
 46166  1  0
 48167  1  0
 48168  1  0
 48169  1  0
 49170  1  0
 50171  1  0
 52172  1  0
 53173  1  0
 55174  1  0
 55175  1  0
 55176  1  0
 56177  1  0
 57178  1  0
 61179  1  0
 64180  1  0
 64181  1  0
 65182  1  0
 65183  1  0
 65184  1  0
 66185  1  0
 66186  1  0
 67187  1  0
 67188  1  0
 67189  1  0
 72190  1  0
 75191  1  0
 75192  1  0
 76193  1  0
 76194  1  0
 76195  1  0
 77196  1  0
 77197  1  0
 78198  1  0
 78199  1  0
 78200  1  0
 82201  1  0
 85202  1  0
 90203  1  0
 91204  1  0
 93205  1  0
 93206  1  0
 93207  1  0
 94208  1  0
 95209  1  0
 97210  1  0
 98211  1  0
100212  1  0
100213  1  0
100214  1  0
101215  1  0
102216  1  0
109217  1  0
110218  1  0
112219  1  0
112220  1  0
112221  1  0
113222  1  0
114223  1  0
116224  1  0
117225  1  0
119226  1  0
119227  1  0
119228  1  0
120229  1  0
121230  1  0
124231  1  0
129232  1  0
131233  1  0
132234  1  0
135235  1  0
137236  1  0
M  END

