
     RDKit          3D

225249  0  0  0  0  0  0  0  0999 V2000
    5.4321    1.2598   -3.9754 C   0  0  0  0  0  0  0  0  0  0  0  0
    5.7795    0.3486   -4.8970 C   0  0  0  0  0  0  0  0  0  0  0  0
    5.0610    0.2011   -6.1600 C   0  0  0  0  0  0  0  0  0  0  0  0
    4.3200    1.0704   -6.6949 O   0  0  0  0  0  0  0  0  0  0  0  0
    5.2459   -1.1585   -6.6320 C   0  0  0  0  0  0  0  0  0  0  0  0
    4.6245   -1.7875   -7.7098 C   0  0  0  0  0  0  0  0  0  0  0  0
    4.8765   -3.1537   -7.9249 C   0  0  0  0  0  0  0  0  0  0  0  0
    4.2634   -3.8338   -8.9867 C   0  0  0  0  0  0  0  0  0  0  0  0
    4.5020   -5.1984   -9.1819 C   0  0  0  0  0  0  0  0  0  0  0  0
    5.3444   -5.8967   -8.3108 C   0  0  0  0  0  0  0  0  0  0  0  0
    5.5576   -7.2232   -8.4900 F   0  0  0  0  0  0  0  0  0  0  0  0
    5.9610   -5.2344   -7.2446 C   0  0  0  0  0  0  0  0  0  0  0  0
    5.7374   -3.8638   -7.0415 C   0  0  0  0  0  0  0  0  0  0  0  0
    6.3395   -3.2001   -5.9578 C   0  0  0  0  0  0  0  0  0  0  0  0
    6.0913   -1.8329   -5.7693 C   0  0  0  0  0  0  0  0  0  0  0  0
    6.5727   -0.9071   -4.7131 C   0  0  0  0  0  0  0  0  0  0  0  0
    7.7351   -1.0224   -4.0271 C   0  0  0  0  0  0  0  0  0  0  0  0
    8.4905   -2.2496   -3.9663 C   0  0  0  0  0  0  0  0  0  0  0  0
    9.1083   -3.2243   -3.9243 N   0  0  0  0  0  0  0  0  0  0  0  0
    8.4241    0.1289   -3.5123 C   0  0  0  0  0  0  0  0  0  0  0  0
    9.0055    1.0445   -3.1109 N   0  0  0  0  0  0  0  0  0  0  0  0
    5.5969    1.0253   -2.5363 C   0  0  0  0  0  0  0  0  0  0  0  0
    4.8409    0.1208   -1.7720 C   0  0  0  0  0  0  0  0  0  0  0  0
    3.5815   -0.4233   -2.2076 N   0  0  0  0  0  0  0  0  0  0  0  0
    2.3526    0.1722   -1.7187 C   0  0  0  0  0  0  0  0  0  0  0  0
    1.2148   -0.6239   -1.4726 C   0  0  0  0  0  0  0  0  0  0  0  0
    0.0243   -0.0438   -1.0214 C   0  0  0  0  0  0  0  0  0  0  0  0
   -0.0531    1.3386   -0.7984 C   0  0  0  0  0  0  0  0  0  0  0  0
   -1.3244    1.9659   -0.3035 C   0  0  0  0  0  0  0  0  0  0  0  0
    1.0865    2.1304   -0.9979 C   0  0  0  0  0  0  0  0  0  0  0  0
    2.2750    1.5545   -1.4587 C   0  0  0  0  0  0  0  0  0  0  0  0
    3.5458   -1.5815   -3.0675 C   0  0  0  0  0  0  0  0  0  0  0  0
    4.3898   -2.6761   -2.8243 C   0  0  0  0  0  0  0  0  0  0  0  0
    4.2323   -3.8610   -3.5604 C   0  0  0  0  0  0  0  0  0  0  0  0
    3.2599   -3.9449   -4.5662 C   0  0  0  0  0  0  0  0  0  0  0  0
    3.0204   -5.2438   -5.2840 C   0  0  0  0  0  0  0  0  0  0  0  0
    2.4446   -2.8385   -4.8329 C   0  0  0  0  0  0  0  0  0  0  0  0
    2.6028   -1.6543   -4.1058 C   0  0  0  0  0  0  0  0  0  0  0  0
    5.1834    0.2121   -0.4280 C   0  0  0  0  0  0  0  0  0  0  0  0
    4.5794   -0.5122    0.9440 S   0  0  0  0  0  0  0  0  0  0  0  0
    5.5328    0.4118    2.0118 C   0  0  0  0  0  0  0  0  0  0  0  0
    6.3303    1.3327    1.2837 C   0  0  0  0  0  0  0  0  0  0  0  0
    7.2588    2.3031    1.8391 N   0  0  0  0  0  0  0  0  0  0  0  0
    7.4541    2.4663    3.2518 C   0  0  0  0  0  0  0  0  0  0  0  0
    6.6157    3.3122    3.9918 C   0  0  0  0  0  0  0  0  0  0  0  0
    6.8366    3.4964    5.3615 C   0  0  0  0  0  0  0  0  0  0  0  0
    7.9020    2.8383    5.9993 C   0  0  0  0  0  0  0  0  0  0  0  0
    8.1628    3.0483    7.4608 C   0  0  0  0  0  0  0  0  0  0  0  0
    8.7671    2.0304    5.2423 C   0  0  0  0  0  0  0  0  0  0  0  0
    8.5437    1.8484    3.8765 C   0  0  0  0  0  0  0  0  0  0  0  0
    8.1761    2.9903    0.9823 C   0  0  0  0  0  0  0  0  0  0  0  0
    9.2422    2.2976    0.3916 C   0  0  0  0  0  0  0  0  0  0  0  0
   10.0654    2.9382   -0.5348 C   0  0  0  0  0  0  0  0  0  0  0  0
    9.8289    4.2743   -0.8851 C   0  0  0  0  0  0  0  0  0  0  0  0
   10.6889    4.9467   -1.9143 C   0  0  0  0  0  0  0  0  0  0  0  0
    8.7987    4.9826   -0.2475 C   0  0  0  0  0  0  0  0  0  0  0  0
    7.9803    4.3436    0.6851 C   0  0  0  0  0  0  0  0  0  0  0  0
    6.0863    1.1732   -0.0924 C   0  0  0  0  0  0  0  0  0  0  0  0
    6.5263    1.9954   -1.4915 S   0  0  0  0  0  0  0  0  0  0  0  0
    5.3136    0.3004    3.4579 C   0  0  0  0  0  0  0  0  0  0  0  0
    5.3738   -0.9412    4.1261 C   0  0  0  0  0  0  0  0  0  0  0  0
    6.1541   -2.0865    3.6131 C   0  0  0  0  0  0  0  0  0  0  0  0
    7.5210   -1.9129    3.3416 C   0  0  0  0  0  0  0  0  0  0  0  0
    8.2809   -2.9685    2.8370 C   0  0  0  0  0  0  0  0  0  0  0  0
    7.6880   -4.2089    2.6014 C   0  0  0  0  0  0  0  0  0  0  0  0
    6.3187   -4.4000    2.8511 C   0  0  0  0  0  0  0  0  0  0  0  0
    5.6787   -5.7305    2.5702 C   0  0  0  0  0  0  0  0  0  0  0  0
    5.5222   -5.9602    1.0686 C   0  0  0  0  0  0  0  0  0  0  0  0
    5.5522   -3.3252    3.3366 C   0  0  0  0  0  0  0  0  0  0  0  0
    4.4611   -1.0011    5.1970 C   0  0  0  0  0  0  0  0  0  0  0  0
    3.6355   -2.3238    5.8784 S   0  0  0  0  0  0  0  0  0  0  0  0
    2.3634   -1.3534    6.4346 C   0  0  0  0  0  0  0  0  0  0  0  0
    1.0082   -1.5543    6.4282 C   0  0  0  0  0  0  0  0  0  0  0  0
    0.2453   -2.7088    6.6374 C   0  0  0  0  0  0  0  0  0  0  0  0
   -1.1712   -2.6311    6.4929 C   0  0  0  0  0  0  0  0  0  0  0  0
   -1.8737   -3.7746    6.6815 N   0  0  0  0  0  0  0  0  0  0  0  0
   -0.6325   -4.8077    7.0615 S   0  0  0  0  0  0  0  0  0  0  0  0
    0.7622   -3.9145    6.9889 N   0  0  0  0  0  0  0  0  0  0  0  0
   -1.7456   -1.4173    6.0991 C   0  0  0  0  0  0  0  0  0  0  0  0
   -3.0023   -1.1424    5.6221 C   0  0  0  0  0  0  0  0  0  0  0  0
   -4.4302   -1.9882    5.2403 S   0  0  0  0  0  0  0  0  0  0  0  0
   -4.9657   -0.7059    4.2358 C   0  0  0  0  0  0  0  0  0  0  0  0
   -6.0958   -0.4796    3.4339 C   0  0  0  0  0  0  0  0  0  0  0  0
   -7.3194   -1.3124    3.4501 C   0  0  0  0  0  0  0  0  0  0  0  0
   -7.2450   -2.7114    3.3770 C   0  0  0  0  0  0  0  0  0  0  0  0
   -8.4097   -3.4818    3.4421 C   0  0  0  0  0  0  0  0  0  0  0  0
   -9.6532   -2.8647    3.6102 C   0  0  0  0  0  0  0  0  0  0  0  0
   -9.7458   -1.4680    3.6830 C   0  0  0  0  0  0  0  0  0  0  0  0
  -11.0760   -0.8039    3.9247 C   0  0  0  0  0  0  0  0  0  0  0  0
  -11.2673   -0.4873    5.4069 C   0  0  0  0  0  0  0  0  0  0  0  0
   -8.5770   -0.6965    3.6032 C   0  0  0  0  0  0  0  0  0  0  0  0
   -5.9653    0.7391    2.7406 C   0  0  0  0  0  0  0  0  0  0  0  0
   -4.4973    1.4951    3.1471 S   0  0  0  0  0  0  0  0  0  0  0  0
   -4.0293    0.2958    4.1984 C   0  0  0  0  0  0  0  0  0  0  0  0
   -2.9248    0.0585    4.9970 C   0  0  0  0  0  0  0  0  0  0  0  0
   -1.6904    0.6134    5.0442 N   0  0  0  0  0  0  0  0  0  0  0  0
   -0.9635   -0.2809    5.7908 C   0  0  0  0  0  0  0  0  0  0  0  0
    0.4324   -0.3315    6.0550 C   0  0  0  0  0  0  0  0  0  0  0  0
    1.3957    0.6310    5.9094 N   0  0  0  0  0  0  0  0  0  0  0  0
    2.5544   -0.0420    6.0893 C   0  0  0  0  0  0  0  0  0  0  0  0
    3.7409    0.1499    5.3969 C   0  0  0  0  0  0  0  0  0  0  0  0
    4.1170    1.2534    4.1964 S   0  0  0  0  0  0  0  0  0  0  0  0
    1.3046    2.0689    6.2097 C   0  0  0  0  0  0  0  0  0  0  0  0
    0.5116    2.3215    7.4921 C   0  0  0  0  0  0  0  0  0  0  0  0
   -1.2045    1.5832    4.0595 C   0  0  0  0  0  0  0  0  0  0  0  0
   -1.6032    3.0096    4.4406 C   0  0  0  0  0  0  0  0  0  0  0  0
   -6.8242    1.2641    1.6701 C   0  0  0  0  0  0  0  0  0  0  0  0
   -6.8295    2.5890    1.2637 C   0  0  0  0  0  0  0  0  0  0  0  0
   -7.6386    2.6213    0.1538 C   0  0  0  0  0  0  0  0  0  0  0  0
   -7.8789    3.6620   -0.7669 C   0  0  0  0  0  0  0  0  0  0  0  0
   -7.2267    4.9813   -0.6070 C   0  0  0  0  0  0  0  0  0  0  0  0
   -7.3191    5.6696    0.6134 C   0  0  0  0  0  0  0  0  0  0  0  0
   -6.4908    6.7614    0.8791 C   0  0  0  0  0  0  0  0  0  0  0  0
   -6.5320    7.3444    2.1064 F   0  0  0  0  0  0  0  0  0  0  0  0
   -5.5669    7.2008   -0.0850 C   0  0  0  0  0  0  0  0  0  0  0  0
   -4.5770    8.2876    0.2538 C   0  0  0  0  0  0  0  0  0  0  0  0
   -3.3641    7.7058    0.9737 C   0  0  0  0  0  0  0  0  0  0  0  0
   -5.5101    6.5446   -1.3271 C   0  0  0  0  0  0  0  0  0  0  0  0
   -4.6031    6.9150   -2.2692 F   0  0  0  0  0  0  0  0  0  0  0  0
   -6.3403    5.4477   -1.5867 C   0  0  0  0  0  0  0  0  0  0  0  0
   -8.6129    3.2939   -1.9108 C   0  0  0  0  0  0  0  0  0  0  0  0
   -9.0805    2.0016   -2.0978 C   0  0  0  0  0  0  0  0  0  0  0  0
   -8.8237    0.9566   -1.1815 C   0  0  0  0  0  0  0  0  0  0  0  0
   -9.1494   -0.4536   -1.4901 C   0  0  0  0  0  0  0  0  0  0  0  0
   -8.1287   -1.4151   -1.5203 C   0  0  0  0  0  0  0  0  0  0  0  0
   -8.4016   -2.7251   -1.9218 C   0  0  0  0  0  0  0  0  0  0  0  0
   -9.7051   -3.0971   -2.2964 C   0  0  0  0  0  0  0  0  0  0  0  0
   -9.9724   -4.4821   -2.8268 C   0  0  0  0  0  0  0  0  0  0  0  0
   -9.6298   -4.5689   -4.3125 C   0  0  0  0  0  0  0  0  0  0  0  0
  -10.7352   -2.1372   -2.2412 C   0  0  0  0  0  0  0  0  0  0  0  0
  -10.4556   -0.8277   -1.8334 C   0  0  0  0  0  0  0  0  0  0  0  0
  -12.0033   -2.4606   -2.6023 F   0  0  0  0  0  0  0  0  0  0  0  0
   -7.3870   -3.6237   -1.9792 F   0  0  0  0  0  0  0  0  0  0  0  0
   -8.0711    1.3189   -0.0509 C   0  0  0  0  0  0  0  0  0  0  0  0
   -7.5902    0.5275    0.8827 O   0  0  0  0  0  0  0  0  0  0  0  0
   -9.6781    1.9797   -3.3384 C   0  0  0  0  0  0  0  0  0  0  0  0
   -9.5475    3.2771   -3.8221 C   0  0  0  0  0  0  0  0  0  0  0  0
   -8.9128    4.0413   -2.9494 O   0  0  0  0  0  0  0  0  0  0  0  0
  -10.0207    3.7358   -5.1331 C   0  0  0  0  0  0  0  0  0  0  0  0
   -9.9094    5.0313   -5.6294 C   0  0  0  0  0  0  0  0  0  0  0  0
  -10.4144    5.1673   -6.9300 C   0  0  0  0  0  0  0  0  0  0  0  0
  -10.9193    3.9823   -7.4433 C   0  0  0  0  0  0  0  0  0  0  0  0
  -11.5028    3.8171   -8.7465 C   0  0  0  0  0  0  0  0  0  0  0  0
  -11.9729    3.6828   -9.7948 N   0  0  0  0  0  0  0  0  0  0  0  0
  -10.7471    2.7651   -6.3005 S   0  0  0  0  0  0  0  0  0  0  0  0
    4.7872    2.0802   -4.2587 H   0  0  0  0  0  0  0  0  0  0  0  0
    3.9567   -1.2299   -8.3565 H   0  0  0  0  0  0  0  0  0  0  0  0
    3.5932   -3.3130   -9.6610 H   0  0  0  0  0  0  0  0  0  0  0  0
    4.0229   -5.7225   -9.9991 H   0  0  0  0  0  0  0  0  0  0  0  0
    6.5939   -5.7973   -6.5647 H   0  0  0  0  0  0  0  0  0  0  0  0
    6.9327   -3.7685   -5.2570 H   0  0  0  0  0  0  0  0  0  0  0  0
    1.2457   -1.6929   -1.6263 H   0  0  0  0  0  0  0  0  0  0  0  0
   -0.8403   -0.6725   -0.8477 H   0  0  0  0  0  0  0  0  0  0  0  0
   -1.5212    2.9140   -0.8496 H   0  0  0  0  0  0  0  0  0  0  0  0
   -2.1944    1.2920   -0.4600 H   0  0  0  0  0  0  0  0  0  0  0  0
   -1.2284    2.1872    0.7795 H   0  0  0  0  0  0  0  0  0  0  0  0
    1.0488    3.1977   -0.8046 H   0  0  0  0  0  0  0  0  0  0  0  0
    3.1281    2.1973   -1.6239 H   0  0  0  0  0  0  0  0  0  0  0  0
    5.1282   -2.6409   -2.0351 H   0  0  0  0  0  0  0  0  0  0  0  0
    4.8715   -4.7044   -3.3414 H   0  0  0  0  0  0  0  0  0  0  0  0
    2.7635   -5.0594   -6.3485 H   0  0  0  0  0  0  0  0  0  0  0  0
    2.1787   -5.7870   -4.7985 H   0  0  0  0  0  0  0  0  0  0  0  0
    3.9256   -5.8877   -5.2500 H   0  0  0  0  0  0  0  0  0  0  0  0
    1.6822   -2.8877   -5.5987 H   0  0  0  0  0  0  0  0  0  0  0  0
    1.9427   -0.8192   -4.3064 H   0  0  0  0  0  0  0  0  0  0  0  0
    5.7919    3.8206    3.5115 H   0  0  0  0  0  0  0  0  0  0  0  0
    6.1916    4.1586    5.9231 H   0  0  0  0  0  0  0  0  0  0  0  0
    7.2085    3.2089    8.0102 H   0  0  0  0  0  0  0  0  0  0  0  0
    8.8182    3.9359    7.5985 H   0  0  0  0  0  0  0  0  0  0  0  0
    8.6626    2.1586    7.8977 H   0  0  0  0  0  0  0  0  0  0  0  0
    9.6109    1.5434    5.7124 H   0  0  0  0  0  0  0  0  0  0  0  0
    9.2271    1.2339    3.2980 H   0  0  0  0  0  0  0  0  0  0  0  0
    9.4064    1.2519    0.6279 H   0  0  0  0  0  0  0  0  0  0  0  0
   10.8693    2.3854   -1.0016 H   0  0  0  0  0  0  0  0  0  0  0  0
   11.6069    5.3441   -1.4355 H   0  0  0  0  0  0  0  0  0  0  0  0
   10.9742    4.2268   -2.7091 H   0  0  0  0  0  0  0  0  0  0  0  0
   10.1458    5.7877   -2.3938 H   0  0  0  0  0  0  0  0  0  0  0  0
    8.6232    6.0280   -0.4797 H   0  0  0  0  0  0  0  0  0  0  0  0
    7.1675    4.8883    1.1470 H   0  0  0  0  0  0  0  0  0  0  0  0
    7.9960   -0.9601    3.5261 H   0  0  0  0  0  0  0  0  0  0  0  0
    9.3348   -2.8241    2.6338 H   0  0  0  0  0  0  0  0  0  0  0  0
    8.2965   -5.0205    2.2176 H   0  0  0  0  0  0  0  0  0  0  0  0
    4.6776   -5.7936    3.0515 H   0  0  0  0  0  0  0  0  0  0  0  0
    6.3028   -6.5426    3.0061 H   0  0  0  0  0  0  0  0  0  0  0  0
    4.9586   -6.8998    0.8932 H   0  0  0  0  0  0  0  0  0  0  0  0
    6.5206   -6.0511    0.5917 H   0  0  0  0  0  0  0  0  0  0  0  0
    4.9673   -5.1161    0.6047 H   0  0  0  0  0  0  0  0  0  0  0  0
    4.4852   -3.4563    3.4778 H   0  0  0  0  0  0  0  0  0  0  0  0
   -6.2909   -3.2065    3.2681 H   0  0  0  0  0  0  0  0  0  0  0  0
   -8.3469   -4.5607    3.3768 H   0  0  0  0  0  0  0  0  0  0  0  0
  -10.5406   -3.4806    3.7017 H   0  0  0  0  0  0  0  0  0  0  0  0
  -11.9039   -1.4653    3.5867 H   0  0  0  0  0  0  0  0  0  0  0  0
  -11.1411    0.1360    3.3362 H   0  0  0  0  0  0  0  0  0  0  0  0
  -12.2453    0.0180    5.5536 H   0  0  0  0  0  0  0  0  0  0  0  0
  -11.2569   -1.4245    6.0040 H   0  0  0  0  0  0  0  0  0  0  0  0
  -10.4599    0.1869    5.7657 H   0  0  0  0  0  0  0  0  0  0  0  0
   -8.6426    0.3816    3.6929 H   0  0  0  0  0  0  0  0  0  0  0  0
    0.9072    2.6493    5.3672 H   0  0  0  0  0  0  0  0  0  0  0  0
    2.3213    2.4866    6.3651 H   0  0  0  0  0  0  0  0  0  0  0  0
   -0.5492    2.0106    7.3788 H   0  0  0  0  0  0  0  0  0  0  0  0
    0.5371    3.4052    7.7289 H   0  0  0  0  0  0  0  0  0  0  0  0
    0.9734    1.7604    8.3357 H   0  0  0  0  0  0  0  0  0  0  0  0
   -0.1190    1.4760    3.9029 H   0  0  0  0  0  0  0  0  0  0  0  0
   -1.6306    1.3460    3.0640 H   0  0  0  0  0  0  0  0  0  0  0  0
   -1.1824    3.7206    3.6975 H   0  0  0  0  0  0  0  0  0  0  0  0
   -1.2408    3.2796    5.4472 H   0  0  0  0  0  0  0  0  0  0  0  0
   -2.7038    3.1239    4.4462 H   0  0  0  0  0  0  0  0  0  0  0  0
   -6.2426    3.3985    1.6771 H   0  0  0  0  0  0  0  0  0  0  0  0
   -7.9849    5.3140    1.3902 H   0  0  0  0  0  0  0  0  0  0  0  0
   -4.2371    8.8111   -0.6675 H   0  0  0  0  0  0  0  0  0  0  0  0
   -5.0527    9.0543    0.9025 H   0  0  0  0  0  0  0  0  0  0  0  0
   -2.6066    8.5028    1.1293 H   0  0  0  0  0  0  0  0  0  0  0  0
   -3.6607    7.2940    1.9605 H   0  0  0  0  0  0  0  0  0  0  0  0
   -2.9021    6.8985    0.3663 H   0  0  0  0  0  0  0  0  0  0  0  0
   -6.2359    4.9178   -2.5248 H   0  0  0  0  0  0  0  0  0  0  0  0
   -7.1102   -1.1397   -1.2827 H   0  0  0  0  0  0  0  0  0  0  0  0
   -9.3628   -5.2277   -2.2687 H   0  0  0  0  0  0  0  0  0  0  0  0
  -11.0369   -4.7682   -2.6829 H   0  0  0  0  0  0  0  0  0  0  0  0
   -8.5707   -4.2805   -4.4820 H   0  0  0  0  0  0  0  0  0  0  0  0
  -10.2890   -3.8964   -4.8987 H   0  0  0  0  0  0  0  0  0  0  0  0
   -9.7682   -5.6099   -4.6703 H   0  0  0  0  0  0  0  0  0  0  0  0
  -11.2567   -0.0987   -1.8136 H   0  0  0  0  0  0  0  0  0  0  0  0
  -10.1200    1.1314   -3.8438 H   0  0  0  0  0  0  0  0  0  0  0  0
   -9.4734    5.8520   -5.0736 H   0  0  0  0  0  0  0  0  0  0  0  0
  -10.4079    6.1038   -7.4735 H   0  0  0  0  0  0  0  0  0  0  0  0
  1  2  2  3
  2  3  1  0
  3  4  2  0
  3  5  1  0
  5  6  2  0
  6  7  1  0
  7  8  2  0
  8  9  1  0
  9 10  2  0
 10 11  1  0
 10 12  1  0
 12 13  2  0
 13 14  1  0
 14 15  2  0
 15 16  1  0
 16 17  2  3
 17 18  1  0
 18 19  3  0
 17 20  1  0
 20 21  3  0
  1 22  1  0
 22 23  2  0
 23 24  1  0
 24 25  1  0
 25 26  2  0
 26 27  1  0
 27 28  2  0
 28 29  1  0
 28 30  1  0
 30 31  2  0
 24 32  1  0
 32 33  2  0
 33 34  1  0
 34 35  2  0
 35 36  1  0
 35 37  1  0
 37 38  2  0
 23 39  1  0
 39 40  1  0
 40 41  1  0
 41 42  2  0
 42 43  1  0
 43 44  1  0
 44 45  2  0
 45 46  1  0
 46 47  2  0
 47 48  1  0
 47 49  1  0
 49 50  2  0
 43 51  1  0
 51 52  2  0
 52 53  1  0
 53 54  2  0
 54 55  1  0
 54 56  1  0
 56 57  2  0
 42 58  1  0
 58 59  1  0
 41 60  1  0
 60 61  2  0
 61 62  1  0
 62 63  2  0
 63 64  1  0
 64 65  2  0
 65 66  1  0
 66 67  1  0
 67 68  1  0
 66 69  2  0
 61 70  1  0
 70 71  1  0
 71 72  1  0
 72 73  1  0
 73 74  1  0
 74 75  1  0
 75 76  2  0
 76 77  1  0
 77 78  1  0
 75 79  1  0
 79 80  1  0
 80 81  1  0
 81 82  1  0
 82 83  1  0
 83 84  1  0
 84 85  2  0
 85 86  1  0
 86 87  2  0
 87 88  1  0
 88 89  1  0
 89 90  1  0
 88 91  2  0
 83 92  2  0
 92 93  1  0
 93 94  1  0
 94 95  1  0
 95 96  1  0
 96 97  1  0
 97 98  1  0
 98 99  1  0
 99100  1  0
100101  1  0
101102  1  0
 99103  1  0
103104  1  0
 96105  1  0
105106  1  0
 92107  1  0
107108  2  0
108109  1  0
109110  2  0
110111  1  0
111112  2  0
112113  1  0
113114  1  0
113115  2  0
115116  1  0
116117  1  0
115118  1  0
118119  1  0
118120  2  0
110121  1  0
121122  2  0
122123  1  0
123124  1  0
124125  2  0
125126  1  0
126127  2  0
127128  1  0
128129  1  0
127130  1  0
130131  2  0
130132  1  0
126133  1  0
123134  2  0
134135  1  0
122136  1  0
136137  2  0
137138  1  0
137139  1  0
139140  2  0
140141  1  0
141142  2  0
142143  1  0
143144  3  0
142145  1  0
 16  2  1  0
 59 22  1  0
102 60  1  0
135107  1  0
145139  1  0
 15  5  1  0
 31 25  1  0
 38 32  1  0
 58 39  2  0
 69 62  1  0
101 70  2  0
134109  1  0
 13  7  1  0
 50 44  1  0
 57 51  1  0
100 72  2  0
120111  1  0
138121  1  0
 98 73  2  0
131124  1  0
 78 74  2  0
 97 79  2  0
 95 80  2  0
 94 82  2  0
 91 84  1  0
  1146  1  0
  6147  1  0
  8148  1  0
  9149  1  0
 12150  1  0
 14151  1  0
 26152  1  0
 27153  1  0
 29154  1  0
 29155  1  0
 29156  1  0
 30157  1  0
 31158  1  0
 33159  1  0
 34160  1  0
 36161  1  0
 36162  1  0
 36163  1  0
 37164  1  0
 38165  1  0
 45166  1  0
 46167  1  0
 48168  1  0
 48169  1  0
 48170  1  0
 49171  1  0
 50172  1  0
 52173  1  0
 53174  1  0
 55175  1  0
 55176  1  0
 55177  1  0
 56178  1  0
 57179  1  0
 63180  1  0
 64181  1  0
 65182  1  0
 67183  1  0
 67184  1  0
 68185  1  0
 68186  1  0
 68187  1  0
 69188  1  0
 85189  1  0
 86190  1  0
 87191  1  0
 89192  1  0
 89193  1  0
 90194  1  0
 90195  1  0
 90196  1  0
 91197  1  0
103198  1  0
103199  1  0
104200  1  0
104201  1  0
104202  1  0
105203  1  0
105204  1  0
106205  1  0
106206  1  0
106207  1  0
108208  1  0
112209  1  0
116210  1  0
116211  1  0
117212  1  0
117213  1  0
117214  1  0
120215  1  0
125216  1  0
128217  1  0
128218  1  0
129219  1  0
129220  1  0
129221  1  0
131222  1  0
136223  1  0
140224  1  0
141225  1  0
M  END

