
     RDKit          3D

223247  0  0  0  0  0  0  0  0999 V2000
   -4.9463    3.4846   -6.7803 C   0  0  0  0  0  0  0  0  0  0  0  0
   -3.9354    2.6564   -7.1393 C   0  0  0  0  0  0  0  0  0  0  0  0
   -3.3000    1.6631   -6.2538 C   0  0  0  0  0  0  0  0  0  0  0  0
   -3.6675    1.3367   -5.0922 O   0  0  0  0  0  0  0  0  0  0  0  0
   -2.1638    1.0969   -6.9370 C   0  0  0  0  0  0  0  0  0  0  0  0
   -1.2519    0.1687   -6.4373 C   0  0  0  0  0  0  0  0  0  0  0  0
   -0.1705   -0.2111   -7.2474 C   0  0  0  0  0  0  0  0  0  0  0  0
    0.7673   -1.1459   -6.7881 C   0  0  0  0  0  0  0  0  0  0  0  0
    1.8451   -1.5155   -7.5951 C   0  0  0  0  0  0  0  0  0  0  0  0
    2.0022   -0.9486   -8.8610 C   0  0  0  0  0  0  0  0  0  0  0  0
    3.0518   -1.3166   -9.6401 F   0  0  0  0  0  0  0  0  0  0  0  0
    1.0810   -0.0055   -9.3321 C   0  0  0  0  0  0  0  0  0  0  0  0
   -0.0145    0.3728   -8.5390 C   0  0  0  0  0  0  0  0  0  0  0  0
   -0.9520    1.3198   -9.0075 C   0  0  0  0  0  0  0  0  0  0  0  0
   -2.0584    1.6481   -8.2011 C   0  0  0  0  0  0  0  0  0  0  0  0
   -3.1965    2.5853   -8.4434 C   0  0  0  0  0  0  0  0  0  0  0  0
   -3.6004    3.0682   -9.6486 C   0  0  0  0  0  0  0  0  0  0  0  0
   -4.8071    3.8296   -9.8153 C   0  0  0  0  0  0  0  0  0  0  0  0
   -5.7782    4.4375   -9.9671 N   0  0  0  0  0  0  0  0  0  0  0  0
   -2.9360    2.7291  -10.8807 C   0  0  0  0  0  0  0  0  0  0  0  0
   -2.4267    2.4588  -11.8836 N   0  0  0  0  0  0  0  0  0  0  0  0
   -5.5783    3.4080   -5.4520 C   0  0  0  0  0  0  0  0  0  0  0  0
   -6.5437    2.4648   -5.0652 C   0  0  0  0  0  0  0  0  0  0  0  0
   -7.4601    1.7962   -5.9556 N   0  0  0  0  0  0  0  0  0  0  0  0
   -6.9692    1.1837   -7.1604 C   0  0  0  0  0  0  0  0  0  0  0  0
   -6.0608    0.1165   -7.0875 C   0  0  0  0  0  0  0  0  0  0  0  0
   -5.4972   -0.4059   -8.2575 C   0  0  0  0  0  0  0  0  0  0  0  0
   -5.8400    0.1287   -9.5070 C   0  0  0  0  0  0  0  0  0  0  0  0
   -5.2076   -0.4063  -10.7547 C   0  0  0  0  0  0  0  0  0  0  0  0
   -6.7974    1.1538   -9.5801 C   0  0  0  0  0  0  0  0  0  0  0  0
   -7.3532    1.6838   -8.4140 C   0  0  0  0  0  0  0  0  0  0  0  0
   -8.8848    1.9518   -5.7572 C   0  0  0  0  0  0  0  0  0  0  0  0
   -9.4154    3.1439   -5.2246 C   0  0  0  0  0  0  0  0  0  0  0  0
  -10.7958    3.3060   -5.0763 C   0  0  0  0  0  0  0  0  0  0  0  0
  -11.6739    2.2786   -5.4523 C   0  0  0  0  0  0  0  0  0  0  0  0
  -13.1577    2.4776   -5.3583 C   0  0  0  0  0  0  0  0  0  0  0  0
  -11.1527    1.0932   -5.9930 C   0  0  0  0  0  0  0  0  0  0  0  0
   -9.7747    0.9297   -6.1430 C   0  0  0  0  0  0  0  0  0  0  0  0
   -6.5684    2.3043   -3.6820 C   0  0  0  0  0  0  0  0  0  0  0  0
   -6.9582    0.9628   -2.7559 S   0  0  0  0  0  0  0  0  0  0  0  0
   -6.0316    1.4351   -1.4073 C   0  0  0  0  0  0  0  0  0  0  0  0
   -5.4462    2.6968   -1.6734 C   0  0  0  0  0  0  0  0  0  0  0  0
   -4.6611    3.4717   -0.7250 N   0  0  0  0  0  0  0  0  0  0  0  0
   -4.6909    3.1459    0.6761 C   0  0  0  0  0  0  0  0  0  0  0  0
   -3.5200    2.7703    1.3437 C   0  0  0  0  0  0  0  0  0  0  0  0
   -3.5634    2.4114    2.6929 C   0  0  0  0  0  0  0  0  0  0  0  0
   -4.7768    2.4682    3.4024 C   0  0  0  0  0  0  0  0  0  0  0  0
   -4.8384    2.0379    4.8352 C   0  0  0  0  0  0  0  0  0  0  0  0
   -5.9450    2.8747    2.7420 C   0  0  0  0  0  0  0  0  0  0  0  0
   -5.8997    3.2256    1.3893 C   0  0  0  0  0  0  0  0  0  0  0  0
   -4.3106    4.8316   -1.0278 C   0  0  0  0  0  0  0  0  0  0  0  0
   -5.3191    5.7937   -1.2034 C   0  0  0  0  0  0  0  0  0  0  0  0
   -4.9864    7.1067   -1.5415 C   0  0  0  0  0  0  0  0  0  0  0  0
   -3.6443    7.4742   -1.7090 C   0  0  0  0  0  0  0  0  0  0  0  0
   -3.2938    8.8929   -2.0543 C   0  0  0  0  0  0  0  0  0  0  0  0
   -2.6337    6.5190   -1.4941 C   0  0  0  0  0  0  0  0  0  0  0  0
   -2.9665    5.2027   -1.1613 C   0  0  0  0  0  0  0  0  0  0  0  0
   -5.7181    3.1047   -2.9844 C   0  0  0  0  0  0  0  0  0  0  0  0
   -4.8297    4.0402   -4.0627 S   0  0  0  0  0  0  0  0  0  0  0  0
   -5.4269    0.4370   -0.5160 C   0  0  0  0  0  0  0  0  0  0  0  0
   -6.0755   -0.4483    0.3709 C   0  0  0  0  0  0  0  0  0  0  0  0
   -7.5471   -0.5844    0.5398 C   0  0  0  0  0  0  0  0  0  0  0  0
   -8.1384   -1.8610    0.5803 C   0  0  0  0  0  0  0  0  0  0  0  0
   -9.5226   -2.0041    0.6584 C   0  0  0  0  0  0  0  0  0  0  0  0
  -10.3466   -0.8773    0.7006 C   0  0  0  0  0  0  0  0  0  0  0  0
   -9.7816    0.4056    0.6761 C   0  0  0  0  0  0  0  0  0  0  0  0
  -10.6656    1.6215    0.6801 C   0  0  0  0  0  0  0  0  0  0  0  0
  -10.9126    2.1146   -0.7440 C   0  0  0  0  0  0  0  0  0  0  0  0
   -8.3856    0.5442    0.5868 C   0  0  0  0  0  0  0  0  0  0  0  0
   -5.1370   -1.2636    1.0186 C   0  0  0  0  0  0  0  0  0  0  0  0
   -5.2072   -2.2508    2.4093 S   0  0  0  0  0  0  0  0  0  0  0  0
   -3.5232   -2.5089    2.3562 C   0  0  0  0  0  0  0  0  0  0  0  0
   -2.5408   -2.8044    3.2660 C   0  0  0  0  0  0  0  0  0  0  0  0
   -2.6414   -3.0647    4.6397 C   0  0  0  0  0  0  0  0  0  0  0  0
   -1.4728   -2.9590    5.4506 C   0  0  0  0  0  0  0  0  0  0  0  0
   -1.6203   -3.1875    6.7810 N   0  0  0  0  0  0  0  0  0  0  0  0
   -3.2488   -3.4757    6.8361 S   0  0  0  0  0  0  0  0  0  0  0  0
   -3.8029   -3.3444    5.2803 N   0  0  0  0  0  0  0  0  0  0  0  0
   -0.2515   -2.6584    4.8337 C   0  0  0  0  0  0  0  0  0  0  0  0
    1.0265   -2.6268    5.3194 C   0  0  0  0  0  0  0  0  0  0  0  0
    1.8569   -2.7456    6.7962 S   0  0  0  0  0  0  0  0  0  0  0  0
    3.3589   -2.6815    5.9804 C   0  0  0  0  0  0  0  0  0  0  0  0
    4.6916   -2.6367    6.4086 C   0  0  0  0  0  0  0  0  0  0  0  0
    5.1089   -2.5281    7.8224 C   0  0  0  0  0  0  0  0  0  0  0  0
    6.0249   -1.5352    8.2091 C   0  0  0  0  0  0  0  0  0  0  0  0
    6.4372   -1.4333    9.5393 C   0  0  0  0  0  0  0  0  0  0  0  0
    5.9418   -2.3244   10.4962 C   0  0  0  0  0  0  0  0  0  0  0  0
    5.0200   -3.3181   10.1288 C   0  0  0  0  0  0  0  0  0  0  0  0
    4.4324   -4.2259   11.1715 C   0  0  0  0  0  0  0  0  0  0  0  0
    3.1569   -3.6246   11.7509 C   0  0  0  0  0  0  0  0  0  0  0  0
    4.5960   -3.4070    8.7919 C   0  0  0  0  0  0  0  0  0  0  0  0
    5.5676   -2.5565    5.3011 C   0  0  0  0  0  0  0  0  0  0  0  0
    4.6684   -2.5088    3.8528 S   0  0  0  0  0  0  0  0  0  0  0  0
    3.1863   -2.6021    4.6224 C   0  0  0  0  0  0  0  0  0  0  0  0
    1.8533   -2.5400    4.2527 C   0  0  0  0  0  0  0  0  0  0  0  0
    1.1920   -2.4668    3.0666 N   0  0  0  0  0  0  0  0  0  0  0  0
   -0.1321   -2.4664    3.4441 C   0  0  0  0  0  0  0  0  0  0  0  0
   -1.3246   -2.4194    2.6668 C   0  0  0  0  0  0  0  0  0  0  0  0
   -1.5727   -1.7676    1.4837 N   0  0  0  0  0  0  0  0  0  0  0  0
   -2.9188   -1.8543    1.3338 C   0  0  0  0  0  0  0  0  0  0  0  0
   -3.8368   -1.1162    0.5902 C   0  0  0  0  0  0  0  0  0  0  0  0
   -3.7555    0.0999   -0.5505 S   0  0  0  0  0  0  0  0  0  0  0  0
   -0.7238   -0.8044    0.7844 C   0  0  0  0  0  0  0  0  0  0  0  0
   -0.3965   -1.2936   -0.6268 C   0  0  0  0  0  0  0  0  0  0  0  0
    1.7800   -2.8780    1.7769 C   0  0  0  0  0  0  0  0  0  0  0  0
    1.2489   -4.2455    1.3487 C   0  0  0  0  0  0  0  0  0  0  0  0
    7.0513   -2.5651    5.3358 C   0  0  0  0  0  0  0  0  0  0  0  0
    7.8152   -1.5958    4.6542 C   0  0  0  0  0  0  0  0  0  0  0  0
    7.3294   -0.4290    4.0408 C   0  0  0  0  0  0  0  0  0  0  0  0
    8.3349    0.3445    3.4679 C   0  0  0  0  0  0  0  0  0  0  0  0
    8.1313    1.6287    2.7324 C   0  0  0  0  0  0  0  0  0  0  0  0
    7.9057    1.3746    1.2480 C   0  0  0  0  0  0  0  0  0  0  0  0
    9.8212   -0.4125    3.7017 S   0  0  0  0  0  0  0  0  0  0  0  0
    9.2027   -1.7254    4.5553 C   0  0  0  0  0  0  0  0  0  0  0  0
    9.9073   -2.7960    5.1337 C   0  0  0  0  0  0  0  0  0  0  0  0
    9.1636   -3.7010    5.9141 C   0  0  0  0  0  0  0  0  0  0  0  0
    7.7665   -3.6011    5.9731 C   0  0  0  0  0  0  0  0  0  0  0  0
    7.1700   -4.9238    6.8284 S   0  0  0  0  0  0  0  0  0  0  0  0
    8.6784   -5.5897    7.1876 C   0  0  0  0  0  0  0  0  0  0  0  0
    8.8851   -6.8701    7.9408 C   0  0  0  0  0  0  0  0  0  0  0  0
    9.1129   -8.0332    6.9807 C   0  0  0  0  0  0  0  0  0  0  0  0
    9.6770   -4.8157    6.6045 C   0  0  0  0  0  0  0  0  0  0  0  0
   11.3629   -2.9597    4.9358 C   0  0  0  0  0  0  0  0  0  0  0  0
   11.9406   -3.0612    3.7228 C   0  0  0  0  0  0  0  0  0  0  0  0
   13.3301   -2.6849    3.4820 C   0  0  0  0  0  0  0  0  0  0  0  0
   14.2260   -2.6221    4.3646 O   0  0  0  0  0  0  0  0  0  0  0  0
   13.4792   -2.3128    2.0758 C   0  0  0  0  0  0  0  0  0  0  0  0
   12.2549   -2.5114    1.4429 C   0  0  0  0  0  0  0  0  0  0  0  0
   12.0690   -2.1082    0.1163 C   0  0  0  0  0  0  0  0  0  0  0  0
   13.1439   -1.5655   -0.5933 C   0  0  0  0  0  0  0  0  0  0  0  0
   14.4020   -1.3964    0.0245 C   0  0  0  0  0  0  0  0  0  0  0  0
   15.4731   -0.8509   -0.7024 C   0  0  0  0  0  0  0  0  0  0  0  0
   16.7129   -0.6629   -0.0869 C   0  0  0  0  0  0  0  0  0  0  0  0
   16.8968   -1.0223    1.2498 C   0  0  0  0  0  0  0  0  0  0  0  0
   15.8404   -1.5725    1.9832 C   0  0  0  0  0  0  0  0  0  0  0  0
   14.5805   -1.7621    1.3875 C   0  0  0  0  0  0  0  0  0  0  0  0
   11.2883   -3.1317    2.3847 C   0  0  0  0  0  0  0  0  0  0  0  0
   10.2542   -3.9434    2.0386 C   0  0  0  0  0  0  0  0  0  0  0  0
    9.7550   -4.0434    0.6944 C   0  0  0  0  0  0  0  0  0  0  0  0
    9.3425   -4.1393   -0.3842 N   0  0  0  0  0  0  0  0  0  0  0  0
    9.7316   -4.9354    2.9410 C   0  0  0  0  0  0  0  0  0  0  0  0
    9.3013   -5.7545    3.6395 N   0  0  0  0  0  0  0  0  0  0  0  0
   -5.3000    4.2686   -7.4267 H   0  0  0  0  0  0  0  0  0  0  0  0
   -1.3742   -0.2310   -5.4399 H   0  0  0  0  0  0  0  0  0  0  0  0
    0.6646   -1.5994   -5.8088 H   0  0  0  0  0  0  0  0  0  0  0  0
    2.5615   -2.2436   -7.2361 H   0  0  0  0  0  0  0  0  0  0  0  0
    1.2182    0.4243  -10.3166 H   0  0  0  0  0  0  0  0  0  0  0  0
   -0.7876    1.7935   -9.9601 H   0  0  0  0  0  0  0  0  0  0  0  0
   -5.7762   -0.2906   -6.1281 H   0  0  0  0  0  0  0  0  0  0  0  0
   -4.7790   -1.2103   -8.1855 H   0  0  0  0  0  0  0  0  0  0  0  0
   -4.1268   -0.5974  -10.5833 H   0  0  0  0  0  0  0  0  0  0  0  0
   -5.2946    0.3220  -11.5919 H   0  0  0  0  0  0  0  0  0  0  0  0
   -5.7060   -1.3520  -11.0520 H   0  0  0  0  0  0  0  0  0  0  0  0
   -7.0848    1.5696  -10.5389 H   0  0  0  0  0  0  0  0  0  0  0  0
   -8.0550    2.5057   -8.4834 H   0  0  0  0  0  0  0  0  0  0  0  0
   -8.7604    3.9611   -4.9428 H   0  0  0  0  0  0  0  0  0  0  0  0
  -11.1811    4.2410   -4.6871 H   0  0  0  0  0  0  0  0  0  0  0  0
  -13.4146    3.1490   -4.5104 H   0  0  0  0  0  0  0  0  0  0  0  0
  -13.5275    2.9277   -6.3017 H   0  0  0  0  0  0  0  0  0  0  0  0
  -13.6718    1.5055   -5.1952 H   0  0  0  0  0  0  0  0  0  0  0  0
  -11.8214    0.3035   -6.3131 H   0  0  0  0  0  0  0  0  0  0  0  0
   -9.3961    0.0075   -6.5630 H   0  0  0  0  0  0  0  0  0  0  0  0
   -2.5824    2.7161    0.8060 H   0  0  0  0  0  0  0  0  0  0  0  0
   -2.6541    2.0878    3.1873 H   0  0  0  0  0  0  0  0  0  0  0  0
   -5.6025    2.6287    5.3912 H   0  0  0  0  0  0  0  0  0  0  0  0
   -3.8573    2.1938    5.3398 H   0  0  0  0  0  0  0  0  0  0  0  0
   -5.0986    0.9627    4.8919 H   0  0  0  0  0  0  0  0  0  0  0  0
   -6.8903    2.9200    3.2691 H   0  0  0  0  0  0  0  0  0  0  0  0
   -6.8032    3.5630    0.8945 H   0  0  0  0  0  0  0  0  0  0  0  0
   -6.3590    5.5209   -1.1011 H   0  0  0  0  0  0  0  0  0  0  0  0
   -5.7749    7.8358   -1.6820 H   0  0  0  0  0  0  0  0  0  0  0  0
   -3.3206    9.5082   -1.1327 H   0  0  0  0  0  0  0  0  0  0  0  0
   -4.0222    9.3017   -2.7833 H   0  0  0  0  0  0  0  0  0  0  0  0
   -2.2804    8.9576   -2.5040 H   0  0  0  0  0  0  0  0  0  0  0  0
   -1.5903    6.7906   -1.5976 H   0  0  0  0  0  0  0  0  0  0  0  0
   -2.1830    4.4660   -1.0371 H   0  0  0  0  0  0  0  0  0  0  0  0
   -7.5212   -2.7505    0.5139 H   0  0  0  0  0  0  0  0  0  0  0  0
   -9.9635   -2.9939    0.6792 H   0  0  0  0  0  0  0  0  0  0  0  0
  -11.4179   -1.0116    0.7537 H   0  0  0  0  0  0  0  0  0  0  0  0
  -10.1894    2.4344    1.2698 H   0  0  0  0  0  0  0  0  0  0  0  0
  -11.6414    1.3969    1.1681 H   0  0  0  0  0  0  0  0  0  0  0  0
  -11.3760    1.3127   -1.3546 H   0  0  0  0  0  0  0  0  0  0  0  0
   -9.9575    2.4297   -1.2144 H   0  0  0  0  0  0  0  0  0  0  0  0
  -11.5978    2.9906   -0.7182 H   0  0  0  0  0  0  0  0  0  0  0  0
   -7.9604    1.5363    0.5516 H   0  0  0  0  0  0  0  0  0  0  0  0
    6.4056   -0.8237    7.4888 H   0  0  0  0  0  0  0  0  0  0  0  0
    7.1316   -0.6531    9.8328 H   0  0  0  0  0  0  0  0  0  0  0  0
    6.2654   -2.2312   11.5285 H   0  0  0  0  0  0  0  0  0  0  0  0
    5.1643   -4.3869   11.9893 H   0  0  0  0  0  0  0  0  0  0  0  0
    4.1978   -5.2166   10.7314 H   0  0  0  0  0  0  0  0  0  0  0  0
    3.3525   -2.6209   12.1833 H   0  0  0  0  0  0  0  0  0  0  0  0
    2.3789   -3.5362   10.9630 H   0  0  0  0  0  0  0  0  0  0  0  0
    2.7677   -4.2839   12.5562 H   0  0  0  0  0  0  0  0  0  0  0  0
    3.8891   -4.1722    8.5015 H   0  0  0  0  0  0  0  0  0  0  0  0
    0.1950   -0.5848    1.3688 H   0  0  0  0  0  0  0  0  0  0  0  0
   -1.2443    0.1787    0.7152 H   0  0  0  0  0  0  0  0  0  0  0  0
   -0.0503   -2.3463   -0.6229 H   0  0  0  0  0  0  0  0  0  0  0  0
    0.4021   -0.6597   -1.0689 H   0  0  0  0  0  0  0  0  0  0  0  0
   -1.2929   -1.2363   -1.2792 H   0  0  0  0  0  0  0  0  0  0  0  0
    1.6135   -2.1287    0.9889 H   0  0  0  0  0  0  0  0  0  0  0  0
    2.8816   -2.9546    1.8684 H   0  0  0  0  0  0  0  0  0  0  0  0
    0.2158   -4.1514    0.9706 H   0  0  0  0  0  0  0  0  0  0  0  0
    1.2326   -4.9400    2.2138 H   0  0  0  0  0  0  0  0  0  0  0  0
    1.8876   -4.6693    0.5471 H   0  0  0  0  0  0  0  0  0  0  0  0
    6.2874   -0.1296    4.0279 H   0  0  0  0  0  0  0  0  0  0  0  0
    9.0280    2.2766    2.8632 H   0  0  0  0  0  0  0  0  0  0  0  0
    7.2514    2.1547    3.1552 H   0  0  0  0  0  0  0  0  0  0  0  0
    8.8030    0.8989    0.7984 H   0  0  0  0  0  0  0  0  0  0  0  0
    7.0292    0.7120    1.0926 H   0  0  0  0  0  0  0  0  0  0  0  0
    7.7156    2.3376    0.7319 H   0  0  0  0  0  0  0  0  0  0  0  0
    7.9913   -7.0856    8.5720 H   0  0  0  0  0  0  0  0  0  0  0  0
    9.7659   -6.7673    8.6172 H   0  0  0  0  0  0  0  0  0  0  0  0
   10.0760   -7.9008    6.4437 H   0  0  0  0  0  0  0  0  0  0  0  0
    9.1571   -8.9876    7.5469 H   0  0  0  0  0  0  0  0  0  0  0  0
    8.2899   -8.0909    6.2444 H   0  0  0  0  0  0  0  0  0  0  0  0
   10.7283   -5.0698    6.6616 H   0  0  0  0  0  0  0  0  0  0  0  0
   11.9897   -2.8810    5.8135 H   0  0  0  0  0  0  0  0  0  0  0  0
   11.1073   -2.1597   -0.3645 H   0  0  0  0  0  0  0  0  0  0  0  0
   12.9890   -1.2629   -1.6270 H   0  0  0  0  0  0  0  0  0  0  0  0
   15.3511   -0.5705   -1.7466 H   0  0  0  0  0  0  0  0  0  0  0  0
   17.5353   -0.2410   -0.6469 H   0  0  0  0  0  0  0  0  0  0  0  0
   17.8629   -0.8831    1.7230 H   0  0  0  0  0  0  0  0  0  0  0  0
   16.0313   -1.8517    3.0049 H   0  0  0  0  0  0  0  0  0  0  0  0
  1  2  2  3
  2  3  1  0
  3  4  2  0
  3  5  1  0
  5  6  2  0
  6  7  1  0
  7  8  2  0
  8  9  1  0
  9 10  2  0
 10 11  1  0
 10 12  1  0
 12 13  2  0
 13 14  1  0
 14 15  2  0
 15 16  1  0
 16 17  2  3
 17 18  1  0
 18 19  3  0
 17 20  1  0
 20 21  3  0
  1 22  1  0
 22 23  2  0
 23 24  1  0
 24 25  1  0
 25 26  2  0
 26 27  1  0
 27 28  2  0
 28 29  1  0
 28 30  1  0
 30 31  2  0
 24 32  1  0
 32 33  2  0
 33 34  1  0
 34 35  2  0
 35 36  1  0
 35 37  1  0
 37 38  2  0
 23 39  1  0
 39 40  1  0
 40 41  1  0
 41 42  2  0
 42 43  1  0
 43 44  1  0
 44 45  2  0
 45 46  1  0
 46 47  2  0
 47 48  1  0
 47 49  1  0
 49 50  2  0
 43 51  1  0
 51 52  2  0
 52 53  1  0
 53 54  2  0
 54 55  1  0
 54 56  1  0
 56 57  2  0
 42 58  1  0
 58 59  1  0
 41 60  1  0
 60 61  2  0
 61 62  1  0
 62 63  2  0
 63 64  1  0
 64 65  2  0
 65 66  1  0
 66 67  1  0
 67 68  1  0
 66 69  2  0
 61 70  1  0
 70 71  1  0
 71 72  1  0
 72 73  1  0
 73 74  1  0
 74 75  1  0
 75 76  2  0
 76 77  1  0
 77 78  1  0
 75 79  1  0
 79 80  1  0
 80 81  1  0
 81 82  1  0
 82 83  1  0
 83 84  1  0
 84 85  2  0
 85 86  1  0
 86 87  2  0
 87 88  1  0
 88 89  1  0
 89 90  1  0
 88 91  2  0
 83 92  2  0
 92 93  1  0
 93 94  1  0
 94 95  1  0
 95 96  1  0
 96 97  1  0
 97 98  1  0
 98 99  1  0
 99100  1  0
100101  1  0
101102  1  0
 99103  1  0
103104  1  0
 96105  1  0
105106  1  0
 92107  1  0
107108  2  0
108109  1  0
109110  2  0
110111  1  0
111112  1  0
110113  1  0
113114  1  0
114115  2  0
115116  1  0
116117  2  0
117118  1  0
118119  1  0
119120  1  0
120121  1  0
119122  2  0
115123  1  0
123124  2  3
124125  1  0
125126  2  0
125127  1  0
127128  2  0
128129  1  0
129130  2  0
130131  1  0
131132  2  0
132133  1  0
133134  2  0
134135  1  0
135136  2  0
128137  1  0
137138  2  3
138139  1  0
139140  3  0
138141  1  0
141142  3  0
 16  2  1  0
 59 22  1  0
102 60  1  0
117107  1  0
137124  1  0
 15  5  1  0
 31 25  1  0
 38 32  1  0
 58 39  2  0
 69 62  1  0
101 70  2  0
114108  1  0
122116  1  0
136127  1  0
 13  7  1  0
 50 44  1  0
 57 51  1  0
100 72  2  0
136131  1  0
 98 73  2  0
 78 74  2  0
 97 79  2  0
 95 80  2  0
 94 82  2  0
 91 84  1  0
  1143  1  0
  6144  1  0
  8145  1  0
  9146  1  0
 12147  1  0
 14148  1  0
 26149  1  0
 27150  1  0
 29151  1  0
 29152  1  0
 29153  1  0
 30154  1  0
 31155  1  0
 33156  1  0
 34157  1  0
 36158  1  0
 36159  1  0
 36160  1  0
 37161  1  0
 38162  1  0
 45163  1  0
 46164  1  0
 48165  1  0
 48166  1  0
 48167  1  0
 49168  1  0
 50169  1  0
 52170  1  0
 53171  1  0
 55172  1  0
 55173  1  0
 55174  1  0
 56175  1  0
 57176  1  0
 63177  1  0
 64178  1  0
 65179  1  0
 67180  1  0
 67181  1  0
 68182  1  0
 68183  1  0
 68184  1  0
 69185  1  0
 85186  1  0
 86187  1  0
 87188  1  0
 89189  1  0
 89190  1  0
 90191  1  0
 90192  1  0
 90193  1  0
 91194  1  0
103195  1  0
103196  1  0
104197  1  0
104198  1  0
104199  1  0
105200  1  0
105201  1  0
106202  1  0
106203  1  0
106204  1  0
109205  1  0
111206  1  0
111207  1  0
112208  1  0
112209  1  0
112210  1  0
120211  1  0
120212  1  0
121213  1  0
121214  1  0
121215  1  0
122216  1  0
123217  1  0
129218  1  0
130219  1  0
132220  1  0
133221  1  0
134222  1  0
135223  1  0
M  END

