
     RDKit          3D

241267  0  0  0  0  0  0  0  0999 V2000
   -2.0769    3.0492   -2.7850 C   0  0  0  0  0  0  0  0  0  0  0  0
   -3.1306    2.3901   -2.9240 C   0  0  0  0  0  0  0  0  0  0  0  0
   -4.3903    3.1987   -3.2552 C   0  0  0  0  0  0  0  0  0  0  0  0
   -4.3759    4.4385   -3.3821 O   0  0  0  0  0  0  0  0  0  0  0  0
   -5.4620    2.2593   -3.3750 C   0  0  0  0  0  0  0  0  0  0  0  0
   -6.7873    2.4629   -3.6565 C   0  0  0  0  0  0  0  0  0  0  0  0
   -7.6828    1.4145   -3.7435 C   0  0  0  0  0  0  0  0  0  0  0  0
   -9.0156    1.6241   -4.0400 C   0  0  0  0  0  0  0  0  0  0  0  0
   -9.8819    0.5316   -4.1378 C   0  0  0  0  0  0  0  0  0  0  0  0
   -9.4308   -0.7535   -3.9437 C   0  0  0  0  0  0  0  0  0  0  0  0
  -10.2474   -1.8257   -4.0424 F   0  0  0  0  0  0  0  0  0  0  0  0
   -8.0758   -0.9432   -3.6383 C   0  0  0  0  0  0  0  0  0  0  0  0
   -7.2337    0.1567   -3.5461 C   0  0  0  0  0  0  0  0  0  0  0  0
   -5.8875   -0.0768   -3.2535 C   0  0  0  0  0  0  0  0  0  0  0  0
   -4.9976    0.9575   -3.1619 C   0  0  0  0  0  0  0  0  0  0  0  0
   -3.5714    1.0024   -2.8813 C   0  0  0  0  0  0  0  0  0  0  0  0
   -2.7109   -0.0231   -2.7699 C   0  0  0  0  0  0  0  0  0  0  0  0
   -1.3643    0.0644   -2.7160 C   0  0  0  0  0  0  0  0  0  0  0  0
   -0.0779    0.1625   -2.6500 N   0  0  0  0  0  0  0  0  0  0  0  0
   -3.3001   -1.3813   -2.5444 C   0  0  0  0  0  0  0  0  0  0  0  0
   -3.7634   -2.4804   -2.3543 N   0  0  0  0  0  0  0  0  0  0  0  0
   -0.8700    3.7327   -2.6157 C   0  0  0  0  0  0  0  0  0  0  0  0
   -0.5933    4.6028   -1.5216 C   0  0  0  0  0  0  0  0  0  0  0  0
   -1.7300    5.1753   -0.8784 N   0  0  0  0  0  0  0  0  0  0  0  0
   -2.0375    6.5145   -1.3451 C   0  0  0  0  0  0  0  0  0  0  0  0
   -2.3442    7.5666   -0.5692 C   0  0  0  0  0  0  0  0  0  0  0  0
   -2.6767    8.7909   -1.1570 C   0  0  0  0  0  0  0  0  0  0  0  0
   -2.7079    8.9831   -2.5036 C   0  0  0  0  0  0  0  0  0  0  0  0
   -3.0930   10.2632   -3.1596 C   0  0  0  0  0  0  0  0  0  0  0  0
   -2.3787    7.8713   -3.2884 C   0  0  0  0  0  0  0  0  0  0  0  0
   -2.0474    6.6588   -2.7430 C   0  0  0  0  0  0  0  0  0  0  0  0
   -2.5946    4.5581    0.0476 C   0  0  0  0  0  0  0  0  0  0  0  0
   -3.9803    4.7569   -0.1208 C   0  0  0  0  0  0  0  0  0  0  0  0
   -4.9397    4.2371    0.6902 C   0  0  0  0  0  0  0  0  0  0  0  0
   -4.5679    3.4655    1.7558 C   0  0  0  0  0  0  0  0  0  0  0  0
   -5.6117    2.9411    2.6684 C   0  0  0  0  0  0  0  0  0  0  0  0
   -3.2207    3.2347    1.9678 C   0  0  0  0  0  0  0  0  0  0  0  0
   -2.2528    3.7798    1.1156 C   0  0  0  0  0  0  0  0  0  0  0  0
    0.6939    4.9562   -1.3650 C   0  0  0  0  0  0  0  0  0  0  0  0
    1.6881    5.5891   -0.0426 S   0  0  0  0  0  0  0  0  0  0  0  0
    3.2348    5.2768   -0.6779 C   0  0  0  0  0  0  0  0  0  0  0  0
    2.9662    4.7175   -1.9099 C   0  0  0  0  0  0  0  0  0  0  0  0
    3.9930    4.5983   -2.9135 N   0  0  0  0  0  0  0  0  0  0  0  0
    4.7294    3.4811   -3.3200 C   0  0  0  0  0  0  0  0  0  0  0  0
    4.1471    2.2532   -3.5094 C   0  0  0  0  0  0  0  0  0  0  0  0
    4.9285    1.2130   -3.9801 C   0  0  0  0  0  0  0  0  0  0  0  0
    6.2683    1.3569   -4.2625 C   0  0  0  0  0  0  0  0  0  0  0  0
    7.1221    0.2671   -4.7550 C   0  0  0  0  0  0  0  0  0  0  0  0
    6.8331    2.6039   -4.0630 C   0  0  0  0  0  0  0  0  0  0  0  0
    6.0982    3.6341   -3.6111 C   0  0  0  0  0  0  0  0  0  0  0  0
    4.3326    5.8361   -3.6075 C   0  0  0  0  0  0  0  0  0  0  0  0
    4.5248    5.9505   -4.9445 C   0  0  0  0  0  0  0  0  0  0  0  0
    4.8125    7.1735   -5.5693 C   0  0  0  0  0  0  0  0  0  0  0  0
    4.9099    8.3021   -4.8454 C   0  0  0  0  0  0  0  0  0  0  0  0
    5.1731    9.6322   -5.5059 C   0  0  0  0  0  0  0  0  0  0  0  0
    4.7282    8.2382   -3.4840 C   0  0  0  0  0  0  0  0  0  0  0  0
    4.4431    7.0263   -2.8710 C   0  0  0  0  0  0  0  0  0  0  0  0
    1.6257    4.5578   -2.2035 C   0  0  0  0  0  0  0  0  0  0  0  0
    0.6599    3.5661   -3.3073 S   0  0  0  0  0  0  0  0  0  0  0  0
    4.4795    5.0262    0.1264 C   0  0  0  0  0  0  0  0  0  0  0  0
    4.9213    5.2581    1.3313 C   0  0  0  0  0  0  0  0  0  0  0  0
    4.2156    6.1995    2.3059 C   0  0  0  0  0  0  0  0  0  0  0  0
    3.1487    5.3947    3.0437 C   0  0  0  0  0  0  0  0  0  0  0  0
    5.9861    4.4796    1.8085 C   0  0  0  0  0  0  0  0  0  0  0  0
    6.7575    4.1034    3.3213 S   0  0  0  0  0  0  0  0  0  0  0  0
    7.6503    2.6979    2.8260 C   0  0  0  0  0  0  0  0  0  0  0  0
    8.2106    1.4790    3.3275 C   0  0  0  0  0  0  0  0  0  0  0  0
    8.3654    1.0565    4.6461 C   0  0  0  0  0  0  0  0  0  0  0  0
    8.4599   -0.2519    4.8491 C   0  0  0  0  0  0  0  0  0  0  0  0
    8.6402   -0.7077    6.0734 N   0  0  0  0  0  0  0  0  0  0  0  0
    8.7221    0.5960    7.1974 Se  0  0  0  0  0  2  0  0  0  0  0  0
    8.4440    1.9354    5.6370 N   0  0  0  0  0  0  0  0  0  0  0  0
    8.3631   -1.1262    3.7248 C   0  0  0  0  0  0  0  0  0  0  0  0
    7.7508   -2.4350    3.7517 C   0  0  0  0  0  0  0  0  0  0  0  0
    7.0843   -3.5949    4.8434 S   0  0  0  0  0  0  0  0  0  0  0  0
    6.1426   -4.4945    3.6491 C   0  0  0  0  0  0  0  0  0  0  0  0
    5.0794   -5.3738    3.7115 C   0  0  0  0  0  0  0  0  0  0  0  0
    4.8167   -6.3157    4.8730 C   0  0  0  0  0  0  0  0  0  0  0  0
    5.6700   -7.5794    4.6308 C   0  0  0  0  0  0  0  0  0  0  0  0
    4.3571   -5.5154    2.5826 C   0  0  0  0  0  0  0  0  0  0  0  0
    5.1514   -4.5065    1.4867 S   0  0  0  0  0  0  0  0  0  0  0  0
    6.4168   -3.8748    2.5627 C   0  0  0  0  0  0  0  0  0  0  0  0
    7.2864   -2.7588    2.5457 C   0  0  0  0  0  0  0  0  0  0  0  0
    7.6172   -1.7116    1.6676 N   0  0  0  0  0  0  0  0  0  0  0  0
    8.2422   -0.7545    2.4394 C   0  0  0  0  0  0  0  0  0  0  0  0
    8.1879    0.6853    2.2022 C   0  0  0  0  0  0  0  0  0  0  0  0
    7.7367    1.3159    1.1648 N   0  0  0  0  0  0  0  0  0  0  0  0
    7.3461    2.6022    1.5283 C   0  0  0  0  0  0  0  0  0  0  0  0
    6.4817    3.5487    1.0119 C   0  0  0  0  0  0  0  0  0  0  0  0
    5.5307    3.7411   -0.3951 S   0  0  0  0  0  0  0  0  0  0  0  0
    8.0443    0.9926   -0.2237 C   0  0  0  0  0  0  0  0  0  0  0  0
    9.1035    2.1059   -0.6559 C   0  0  0  0  0  0  0  0  0  0  0  0
    7.3043   -1.8806    0.3068 C   0  0  0  0  0  0  0  0  0  0  0  0
    8.3899   -2.5245   -0.5327 C   0  0  0  0  0  0  0  0  0  0  0  0
    2.9033   -5.9277    2.4438 C   0  0  0  0  0  0  0  0  0  0  0  0
    1.9535   -4.9315    2.8250 C   0  0  0  0  0  0  0  0  0  0  0  0
    0.6799   -5.1502    2.5533 C   0  0  0  0  0  0  0  0  0  0  0  0
   -0.4224   -4.3182    2.7992 C   0  0  0  0  0  0  0  0  0  0  0  0
   -0.2092   -2.8925    3.1265 C   0  0  0  0  0  0  0  0  0  0  0  0
    0.8090   -2.1221    2.5522 C   0  0  0  0  0  0  0  0  0  0  0  0
    0.8011   -0.8217    2.7957 C   0  0  0  0  0  0  0  0  0  0  0  0
   -0.1876   -0.3147    3.5879 C   0  0  0  0  0  0  0  0  0  0  0  0
   -0.3687    1.1042    3.9126 C   0  0  0  0  0  0  0  0  0  0  0  0
   -1.1810    1.5286    4.8231 C   0  0  0  0  0  0  0  0  0  0  0  0
   -1.3387    2.9510    5.1208 C   0  0  0  0  0  0  0  0  0  0  0  0
   -2.0285    3.4533    6.2137 C   0  0  0  0  0  0  0  0  0  0  0  0
   -2.1318    4.7591    6.3094 C   0  0  0  0  0  0  0  0  0  0  0  0
   -1.5705    5.5524    5.3403 C   0  0  0  0  0  0  0  0  0  0  0  0
   -1.6210    7.3541    5.3283 S   0  0  0  0  0  0  0  0  0  0  0  0
   -1.2415    8.0296    3.7399 C   0  0  0  0  0  0  0  0  0  0  0  0
    0.1641    7.7709    3.3353 C   0  0  0  0  0  0  0  0  0  0  0  0
   -0.8877    4.3882    4.3023 S   0  0  0  0  0  0  0  0  0  0  0  0
   -1.0951   -1.7194    3.9665 S   0  0  0  0  0  0  0  0  0  0  0  0
   -1.6927   -4.6892    2.4713 C   0  0  0  0  0  0  0  0  0  0  0  0
   -1.9969   -5.8838    1.8800 C   0  0  0  0  0  0  0  0  0  0  0  0
   -0.8889   -6.7270    1.6030 C   0  0  0  0  0  0  0  0  0  0  0  0
   -1.0833   -7.9501    0.8121 C   0  0  0  0  0  0  0  0  0  0  0  0
   -0.3967   -9.1178    0.7562 C   0  0  0  0  0  0  0  0  0  0  0  0
   -0.8924  -10.0914   -0.0272 C   0  0  0  0  0  0  0  0  0  0  0  0
   -2.0155   -9.8771   -0.7176 C   0  0  0  0  0  0  0  0  0  0  0  0
   -2.9189  -10.7294   -1.5139 C   0  0  0  0  0  0  0  0  0  0  0  0
   -3.2286  -10.3657   -2.7391 C   0  0  0  0  0  0  0  0  0  0  0  0
   -2.6324   -9.1314   -3.3102 C   0  0  0  0  0  0  0  0  0  0  0  0
   -2.8955   -8.5011   -4.4885 C   0  0  0  0  0  0  0  0  0  0  0  0
   -2.1329   -7.4570   -4.8298 C   0  0  0  0  0  0  0  0  0  0  0  0
   -1.1366   -7.0823   -3.9757 C   0  0  0  0  0  0  0  0  0  0  0  0
    0.0653   -5.7585   -4.0362 S   0  0  0  0  0  0  0  0  0  0  0  0
   -0.1822   -4.7409   -5.4755 C   0  0  0  0  0  0  0  0  0  0  0  0
    0.8170   -3.5608   -5.4149 C   0  0  0  0  0  0  0  0  0  0  0  0
   -1.3113   -8.2371   -2.7056 S   0  0  0  0  0  0  0  0  0  0  0  0
   -2.4155   -8.2490   -0.2540 S   0  0  0  0  0  0  0  0  0  0  0  0
    0.3816   -6.3535    1.9286 C   0  0  0  0  0  0  0  0  0  0  0  0
    1.9540   -7.0656    1.7657 S   0  0  0  0  0  0  0  0  0  0  0  0
   -3.2711   -6.1520    1.6529 C   0  0  0  0  0  0  0  0  0  0  0  0
   -4.2112   -5.1532    2.0470 C   0  0  0  0  0  0  0  0  0  0  0  0
   -3.2613   -3.9768    2.6742 S   0  0  0  0  0  0  0  0  0  0  0  0
   -5.6416   -5.4372    1.8294 C   0  0  0  0  0  0  0  0  0  0  0  0
   -6.0669   -6.5680    2.4118 C   0  0  0  0  0  0  0  0  0  0  0  0
   -5.3554   -7.5163    3.2416 C   0  0  0  0  0  0  0  0  0  0  0  0
   -4.2690   -7.1982    3.8406 O   0  0  0  0  0  0  0  0  0  0  0  0
   -6.0136   -8.8040    3.2930 C   0  0  0  0  0  0  0  0  0  0  0  0
   -5.6086  -10.0052    3.8890 C   0  0  0  0  0  0  0  0  0  0  0  0
   -6.3840  -11.1503    3.6781 C   0  0  0  0  0  0  0  0  0  0  0  0
   -5.9747  -12.3740    4.1523 C   0  0  0  0  0  0  0  0  0  0  0  0
   -6.6592  -13.5353    3.8822 C   0  0  0  0  0  0  0  0  0  0  0  0
   -7.7998  -13.4515    3.1082 C   0  0  0  0  0  0  0  0  0  0  0  0
   -8.4604  -14.6257    2.8200 F   0  0  0  0  0  0  0  0  0  0  0  0
   -8.2437  -12.2617    2.6198 C   0  0  0  0  0  0  0  0  0  0  0  0
   -7.5165  -11.0760    2.9092 C   0  0  0  0  0  0  0  0  0  0  0  0
   -7.8907   -9.8677    2.3387 C   0  0  0  0  0  0  0  0  0  0  0  0
   -7.0721   -8.7452    2.5703 C   0  0  0  0  0  0  0  0  0  0  0  0
   -7.2443   -7.3140    1.9136 C   0  0  0  0  0  0  0  0  0  0  0  0
   -8.1784   -7.2807    1.0689 C   0  0  0  0  0  0  0  0  0  0  0  0
   -9.1171   -7.0091    0.0417 C   0  0  0  0  0  0  0  0  0  0  0  0
   -9.8719   -6.8009   -0.7564 N   0  0  0  0  0  0  0  0  0  0  0  0
   -7.2478   -6.3757    0.1539 C   0  0  0  0  0  0  0  0  0  0  0  0
   -6.2400   -5.3637   -0.8782 N   0  0  0  0  0  0  0  0  0  0  0  0
   -1.6636    2.0468   -1.8384 H   0  0  0  0  0  0  0  0  0  0  0  0
   -7.1735    3.4646   -3.8248 H   0  0  0  0  0  0  0  0  0  0  0  0
   -9.4059    2.6413   -4.1778 H   0  0  0  0  0  0  0  0  0  0  0  0
  -10.9191    0.7021   -4.3843 H   0  0  0  0  0  0  0  0  0  0  0  0
   -7.7232   -1.9429   -3.4646 H   0  0  0  0  0  0  0  0  0  0  0  0
   -5.6367   -1.1099   -3.1383 H   0  0  0  0  0  0  0  0  0  0  0  0
   -2.3249    7.4589    0.5087 H   0  0  0  0  0  0  0  0  0  0  0  0
   -2.9177    9.5915   -0.4814 H   0  0  0  0  0  0  0  0  0  0  0  0
   -3.3993    9.9782   -4.2027 H   0  0  0  0  0  0  0  0  0  0  0  0
   -4.0123   10.6405   -2.6803 H   0  0  0  0  0  0  0  0  0  0  0  0
   -2.2806   10.9882   -3.1537 H   0  0  0  0  0  0  0  0  0  0  0  0
   -2.4002    8.0252   -4.3599 H   0  0  0  0  0  0  0  0  0  0  0  0
   -1.8015    5.8315   -3.3856 H   0  0  0  0  0  0  0  0  0  0  0  0
   -4.3040    5.3715   -0.9385 H   0  0  0  0  0  0  0  0  0  0  0  0
   -6.0093    4.3841    0.5202 H   0  0  0  0  0  0  0  0  0  0  0  0
   -6.5852    3.4581    2.5211 H   0  0  0  0  0  0  0  0  0  0  0  0
   -5.7695    1.8624    2.6072 H   0  0  0  0  0  0  0  0  0  0  0  0
   -5.2909    3.2167    3.7177 H   0  0  0  0  0  0  0  0  0  0  0  0
   -2.9594    2.6122    2.8109 H   0  0  0  0  0  0  0  0  0  0  0  0
   -1.2194    3.5679    1.2981 H   0  0  0  0  0  0  0  0  0  0  0  0
    3.0834    2.0820   -3.2981 H   0  0  0  0  0  0  0  0  0  0  0  0
    4.4704    0.2441   -4.1399 H   0  0  0  0  0  0  0  0  0  0  0  0
    6.8787    0.0630   -5.8151 H   0  0  0  0  0  0  0  0  0  0  0  0
    7.0363   -0.6453   -4.1255 H   0  0  0  0  0  0  0  0  0  0  0  0
    8.1812    0.5832   -4.6694 H   0  0  0  0  0  0  0  0  0  0  0  0
    7.9218    2.7297   -4.2837 H   0  0  0  0  0  0  0  0  0  0  0  0
    6.5500    4.6391   -3.4644 H   0  0  0  0  0  0  0  0  0  0  0  0
    4.4559    5.0454   -5.5385 H   0  0  0  0  0  0  0  0  0  0  0  0
    4.9527    7.1679   -6.6574 H   0  0  0  0  0  0  0  0  0  0  0  0
    4.3216    9.8049   -6.2236 H   0  0  0  0  0  0  0  0  0  0  0  0
    5.0738   10.4131   -4.6980 H   0  0  0  0  0  0  0  0  0  0  0  0
    6.1206    9.6744   -6.0308 H   0  0  0  0  0  0  0  0  0  0  0  0
    4.8111    9.1315   -2.9075 H   0  0  0  0  0  0  0  0  0  0  0  0
    4.2937    6.9869   -1.8095 H   0  0  0  0  0  0  0  0  0  0  0  0
    3.6916    6.9467    1.6956 H   0  0  0  0  0  0  0  0  0  0  0  0
    4.9352    6.5901    3.0200 H   0  0  0  0  0  0  0  0  0  0  0  0
    2.1833    5.8268    2.8775 H   0  0  0  0  0  0  0  0  0  0  0  0
    3.1512    4.3275    2.6839 H   0  0  0  0  0  0  0  0  0  0  0  0
    3.4150    5.4107    4.1327 H   0  0  0  0  0  0  0  0  0  0  0  0
    3.7767   -6.5765    4.9516 H   0  0  0  0  0  0  0  0  0  0  0  0
    5.1995   -5.9146    5.8207 H   0  0  0  0  0  0  0  0  0  0  0  0
    5.2609   -8.4582    5.1455 H   0  0  0  0  0  0  0  0  0  0  0  0
    6.7341   -7.3973    4.7291 H   0  0  0  0  0  0  0  0  0  0  0  0
    5.5088   -7.7914    3.5266 H   0  0  0  0  0  0  0  0  0  0  0  0
    8.7627    0.1765   -0.3057 H   0  0  0  0  0  0  0  0  0  0  0  0
    7.2691    1.1336   -0.9388 H   0  0  0  0  0  0  0  0  0  0  0  0
    9.9189    1.9968    0.0856 H   0  0  0  0  0  0  0  0  0  0  0  0
    8.6238    3.0811   -0.6414 H   0  0  0  0  0  0  0  0  0  0  0  0
    9.4964    1.7664   -1.6310 H   0  0  0  0  0  0  0  0  0  0  0  0
    6.9008   -1.0647   -0.2105 H   0  0  0  0  0  0  0  0  0  0  0  0
    6.5097   -2.7458    0.1840 H   0  0  0  0  0  0  0  0  0  0  0  0
    9.2444   -1.9144   -0.8016 H   0  0  0  0  0  0  0  0  0  0  0  0
    7.9514   -2.8729   -1.5205 H   0  0  0  0  0  0  0  0  0  0  0  0
    8.8286   -3.4052    0.0069 H   0  0  0  0  0  0  0  0  0  0  0  0
    2.3481   -4.0524    3.3783 H   0  0  0  0  0  0  0  0  0  0  0  0
    1.5641   -2.6250    1.9017 H   0  0  0  0  0  0  0  0  0  0  0  0
    1.5803   -0.1399    2.3630 H   0  0  0  0  0  0  0  0  0  0  0  0
    0.1972    1.8220    3.3504 H   0  0  0  0  0  0  0  0  0  0  0  0
   -1.7784    0.8123    5.3502 H   0  0  0  0  0  0  0  0  0  0  0  0
   -2.4711    2.7447    6.9593 H   0  0  0  0  0  0  0  0  0  0  0  0
   -2.6602    5.2672    7.1659 H   0  0  0  0  0  0  0  0  0  0  0  0
   -1.4687    9.1388    3.7775 H   0  0  0  0  0  0  0  0  0  0  0  0
   -1.9432    7.6652    2.9346 H   0  0  0  0  0  0  0  0  0  0  0  0
    0.1601    7.1137    2.4215 H   0  0  0  0  0  0  0  0  0  0  0  0
    0.7860    7.2806    4.0881 H   0  0  0  0  0  0  0  0  0  0  0  0
    0.7163    8.7122    3.0557 H   0  0  0  0  0  0  0  0  0  0  0  0
    0.5549   -9.2332    1.3329 H   0  0  0  0  0  0  0  0  0  0  0  0
   -0.3775  -11.0924   -0.1048 H   0  0  0  0  0  0  0  0  0  0  0  0
   -3.2622  -11.6076   -1.0462 H   0  0  0  0  0  0  0  0  0  0  0  0
   -3.9174  -10.9004   -3.3584 H   0  0  0  0  0  0  0  0  0  0  0  0
   -3.7232   -8.8787   -5.1405 H   0  0  0  0  0  0  0  0  0  0  0  0
   -2.2741   -6.8844   -5.7740 H   0  0  0  0  0  0  0  0  0  0  0  0
   -1.1714   -4.2481   -5.5198 H   0  0  0  0  0  0  0  0  0  0  0  0
    0.0791   -5.2926   -6.3901 H   0  0  0  0  0  0  0  0  0  0  0  0
    1.7933   -3.8191   -5.8177 H   0  0  0  0  0  0  0  0  0  0  0  0
    0.4247   -2.6648   -5.9002 H   0  0  0  0  0  0  0  0  0  0  0  0
    0.9668   -3.3803   -4.3121 H   0  0  0  0  0  0  0  0  0  0  0  0
   -3.7035   -7.0699    1.2189 H   0  0  0  0  0  0  0  0  0  0  0  0
   -6.2271   -4.7160    1.3612 H   0  0  0  0  0  0  0  0  0  0  0  0
   -4.7365  -10.0343    4.4781 H   0  0  0  0  0  0  0  0  0  0  0  0
   -5.0849  -12.4159    4.7532 H   0  0  0  0  0  0  0  0  0  0  0  0
   -6.3098  -14.4849    4.2535 H   0  0  0  0  0  0  0  0  0  0  0  0
   -9.1219  -12.2009    2.0291 H   0  0  0  0  0  0  0  0  0  0  0  0
   -8.7787   -9.8207    1.7637 H   0  0  0  0  0  0  0  0  0  0  0  0
  1  2  2  3
  2  3  1  0
  3  4  2  0
  3  5  1  0
  5  6  2  0
  6  7  1  0
  7  8  2  0
  8  9  1  0
  9 10  2  0
 10 11  1  0
 10 12  1  0
 12 13  2  0
 13 14  1  0
 14 15  2  0
 15 16  1  0
 16 17  2  3
 17 18  1  0
 18 19  3  0
 17 20  1  0
 20 21  3  0
  1 22  1  0
 22 23  2  0
 23 24  1  0
 24 25  1  0
 25 26  2  0
 26 27  1  0
 27 28  2  0
 28 29  1  0
 28 30  1  0
 30 31  2  0
 24 32  1  0
 32 33  2  0
 33 34  1  0
 34 35  2  0
 35 36  1  0
 35 37  1  0
 37 38  2  0
 23 39  1  0
 39 40  1  0
 40 41  1  0
 41 42  2  0
 42 43  1  0
 43 44  1  0
 44 45  2  0
 45 46  1  0
 46 47  2  0
 47 48  1  0
 47 49  1  0
 49 50  2  0
 43 51  1  0
 51 52  2  0
 52 53  1  0
 53 54  2  0
 54 55  1  0
 54 56  1  0
 56 57  2  0
 42 58  1  0
 58 59  1  0
 41 60  1  0
 60 61  2  0
 61 62  1  0
 62 63  1  0
 61 64  1  0
 64 65  1  0
 65 66  1  0
 66 67  1  0
 67 68  1  0
 68 69  1  0
 69 70  2  0
 70 71  1  0
 71 72  1  0
 69 73  1  0
 73 74  1  0
 74 75  1  0
 75 76  1  0
 76 77  1  0
 77 78  1  0
 78 79  1  0
 77 80  2  0
 80 81  1  0
 81 82  1  0
 82 83  1  0
 83 84  1  0
 84 85  1  0
 85 86  1  0
 86 87  1  0
 87 88  1  0
 88 89  1  0
 89 90  1  0
 87 91  1  0
 91 92  1  0
 84 93  1  0
 93 94  1  0
 80 95  1  0
 95 96  2  0
 96 97  1  0
 97 98  2  0
 98 99  1  0
 99100  2  0
100101  1  0
101102  2  0
102103  1  0
103104  2  3
104105  1  0
105106  2  0
106107  1  0
107108  2  0
108109  1  0
109110  1  0
110111  1  0
108112  1  0
102113  1  0
 98114  1  0
114115  2  0
115116  1  0
116117  1  0
117118  2  0
118119  1  0
119120  2  0
120121  1  0
121122  2  3
122123  1  0
123124  2  0
124125  1  0
125126  2  0
126127  1  0
127128  1  0
128129  1  0
126130  1  0
120131  1  0
116132  2  0
132133  1  0
115134  1  0
134135  2  0
135136  1  0
135137  1  0
137138  2  3
138139  1  0
139140  2  0
139141  1  0
141142  2  0
142143  1  0
143144  2  0
144145  1  0
145146  2  0
146147  1  0
146148  1  0
148149  2  0
149150  1  0
150151  2  0
151152  1  0
152153  2  3
153154  1  0
154155  3  0
153156  1  0
156157  3  0
 16  2  1  0
 59 22  1  0
 90 60  1  0
133 95  1  0
152138  1  0
 15  5  1  0
 31 25  1  0
 38 32  1  0
 58 39  2  0
 89 64  2  0
132 97  1  0
151141  1  0
 13  7  1  0
 50 44  1  0
 57 51  1  0
 88 66  2  0
113 99  1  0
136114  1  0
149143  1  0
 86 67  2  0
112105  1  0
131117  1  0
 72 68  2  0
 85 73  2  0
130123  1  0
 83 74  2  0
 82 76  2  0
  1158  1  0
  6159  1  0
  8160  1  0
  9161  1  0
 12162  1  0
 14163  1  0
 26164  1  0
 27165  1  0
 29166  1  0
 29167  1  0
 29168  1  0
 30169  1  0
 31170  1  0
 33171  1  0
 34172  1  0
 36173  1  0
 36174  1  0
 36175  1  0
 37176  1  0
 38177  1  0
 45178  1  0
 46179  1  0
 48180  1  0
 48181  1  0
 48182  1  0
 49183  1  0
 50184  1  0
 52185  1  0
 53186  1  0
 55187  1  0
 55188  1  0
 55189  1  0
 56190  1  0
 57191  1  0
 62192  1  0
 62193  1  0
 63194  1  0
 63195  1  0
 63196  1  0
 78197  1  0
 78198  1  0
 79199  1  0
 79200  1  0
 79201  1  0
 91202  1  0
 91203  1  0
 92204  1  0
 92205  1  0
 92206  1  0
 93207  1  0
 93208  1  0
 94209  1  0
 94210  1  0
 94211  1  0
 96212  1  0
100213  1  0
101214  1  0
103215  1  0
104216  1  0
106217  1  0
107218  1  0
110219  1  0
110220  1  0
111221  1  0
111222  1  0
111223  1  0
118224  1  0
119225  1  0
121226  1  0
122227  1  0
124228  1  0
125229  1  0
128230  1  0
128231  1  0
129232  1  0
129233  1  0
129234  1  0
134235  1  0
137236  1  0
142237  1  0
144238  1  0
145239  1  0
148240  1  0
150241  1  0
M  END

