
     RDKit          3D

231256  0  0  0  0  0  0  0  0999 V2000
   -1.7805   -9.3684   -2.8210 C   0  0  0  0  0  0  0  0  0  0  0  0
   -2.2520   -9.9070   -1.6811 C   0  0  0  0  0  0  0  0  0  0  0  0
   -1.9672   -9.4111   -0.3258 C   0  0  0  0  0  0  0  0  0  0  0  0
   -0.9975   -8.6891    0.0226 O   0  0  0  0  0  0  0  0  0  0  0  0
   -3.0281   -9.8420    0.5532 C   0  0  0  0  0  0  0  0  0  0  0  0
   -3.2538   -9.4561    1.8712 C   0  0  0  0  0  0  0  0  0  0  0  0
   -4.4627   -9.8230    2.4800 C   0  0  0  0  0  0  0  0  0  0  0  0
   -4.7438   -9.4236    3.7949 C   0  0  0  0  0  0  0  0  0  0  0  0
   -5.9697   -9.7503    4.3794 C   0  0  0  0  0  0  0  0  0  0  0  0
   -6.9221  -10.4760    3.6608 C   0  0  0  0  0  0  0  0  0  0  0  0
   -8.1066  -10.7940    4.2435 F   0  0  0  0  0  0  0  0  0  0  0  0
   -6.6543  -10.8883    2.3489 C   0  0  0  0  0  0  0  0  0  0  0  0
   -5.4294  -10.5665    1.7457 C   0  0  0  0  0  0  0  0  0  0  0  0
   -5.1600  -10.9581    0.4191 C   0  0  0  0  0  0  0  0  0  0  0  0
   -3.9274  -10.6155   -0.1565 C   0  0  0  0  0  0  0  0  0  0  0  0
   -3.4246  -10.8173   -1.5452 C   0  0  0  0  0  0  0  0  0  0  0  0
   -3.8256  -11.7736   -2.4218 C   0  0  0  0  0  0  0  0  0  0  0  0
   -3.1492  -11.9996   -3.6742 C   0  0  0  0  0  0  0  0  0  0  0  0
   -2.6065  -12.1675   -4.6828 N   0  0  0  0  0  0  0  0  0  0  0  0
   -4.8185  -12.7544   -2.0791 C   0  0  0  0  0  0  0  0  0  0  0  0
   -5.6155  -13.5497   -1.8155 N   0  0  0  0  0  0  0  0  0  0  0  0
   -1.0216   -8.1140   -2.8047 C   0  0  0  0  0  0  0  0  0  0  0  0
   -1.6260   -6.8600   -2.6568 C   0  0  0  0  0  0  0  0  0  0  0  0
   -3.0086   -6.6079   -2.9469 N   0  0  0  0  0  0  0  0  0  0  0  0
   -3.3866   -6.2546   -4.2988 C   0  0  0  0  0  0  0  0  0  0  0  0
   -2.6328   -6.6965   -5.4063 C   0  0  0  0  0  0  0  0  0  0  0  0
   -3.0326   -6.3940   -6.7093 C   0  0  0  0  0  0  0  0  0  0  0  0
   -4.1857   -5.6297   -6.9365 C   0  0  0  0  0  0  0  0  0  0  0  0
   -4.6463   -5.3606   -8.3392 C   0  0  0  0  0  0  0  0  0  0  0  0
   -4.9406   -5.1855   -5.8417 C   0  0  0  0  0  0  0  0  0  0  0  0
   -4.5402   -5.4838   -4.5366 C   0  0  0  0  0  0  0  0  0  0  0  0
   -4.0152   -6.9514   -1.9703 C   0  0  0  0  0  0  0  0  0  0  0  0
   -5.1376   -7.7137   -2.3412 C   0  0  0  0  0  0  0  0  0  0  0  0
   -6.1589   -7.9647   -1.4197 C   0  0  0  0  0  0  0  0  0  0  0  0
   -6.0604   -7.4831   -0.1073 C   0  0  0  0  0  0  0  0  0  0  0  0
   -7.2071   -7.6531    0.8437 C   0  0  0  0  0  0  0  0  0  0  0  0
   -4.9235   -6.7577    0.2762 C   0  0  0  0  0  0  0  0  0  0  0  0
   -3.9029   -6.5032   -0.6468 C   0  0  0  0  0  0  0  0  0  0  0  0
   -0.6926   -5.8835   -2.3416 C   0  0  0  0  0  0  0  0  0  0  0  0
   -0.8049   -4.3579   -1.6582 S   0  0  0  0  0  0  0  0  0  0  0  0
    0.8613   -4.2363   -1.2978 C   0  0  0  0  0  0  0  0  0  0  0  0
    1.4960   -5.4083   -1.7447 C   0  0  0  0  0  0  0  0  0  0  0  0
    2.9187   -5.5597   -1.8490 N   0  0  0  0  0  0  0  0  0  0  0  0
    3.7267   -6.0788   -0.7655 C   0  0  0  0  0  0  0  0  0  0  0  0
    3.1324   -6.7223    0.3339 C   0  0  0  0  0  0  0  0  0  0  0  0
    3.9218   -7.2616    1.3551 C   0  0  0  0  0  0  0  0  0  0  0  0
    5.3167   -7.1636    1.2968 C   0  0  0  0  0  0  0  0  0  0  0  0
    6.1551   -7.7984    2.3681 C   0  0  0  0  0  0  0  0  0  0  0  0
    5.9195   -6.5170    0.2095 C   0  0  0  0  0  0  0  0  0  0  0  0
    5.1307   -5.9715   -0.8087 C   0  0  0  0  0  0  0  0  0  0  0  0
    3.4829   -5.3477   -3.1511 C   0  0  0  0  0  0  0  0  0  0  0  0
    3.6230   -6.4213   -4.0411 C   0  0  0  0  0  0  0  0  0  0  0  0
    4.0784   -6.2033   -5.3421 C   0  0  0  0  0  0  0  0  0  0  0  0
    4.4043   -4.9061   -5.7682 C   0  0  0  0  0  0  0  0  0  0  0  0
    4.8773   -4.6841   -7.1748 C   0  0  0  0  0  0  0  0  0  0  0  0
    4.2987   -3.8350   -4.8664 C   0  0  0  0  0  0  0  0  0  0  0  0
    3.8285   -4.0535   -3.5675 C   0  0  0  0  0  0  0  0  0  0  0  0
    0.5906   -6.3158   -2.2831 C   0  0  0  0  0  0  0  0  0  0  0  0
    0.6616   -7.9738   -2.5733 S   0  0  0  0  0  0  0  0  0  0  0  0
    1.3847   -3.4456   -0.1741 C   0  0  0  0  0  0  0  0  0  0  0  0
    1.2382   -3.7939    1.1807 C   0  0  0  0  0  0  0  0  0  0  0  0
    0.2084   -4.6922    1.7355 C   0  0  0  0  0  0  0  0  0  0  0  0
   -1.1487   -4.3599    1.5937 C   0  0  0  0  0  0  0  0  0  0  0  0
   -2.1299   -5.1091    2.2435 C   0  0  0  0  0  0  0  0  0  0  0  0
   -1.7695   -6.1944    3.0426 C   0  0  0  0  0  0  0  0  0  0  0  0
   -0.4157   -6.5350    3.2024 C   0  0  0  0  0  0  0  0  0  0  0  0
   -0.0221   -7.6389    4.1475 C   0  0  0  0  0  0  0  0  0  0  0  0
   -0.0582   -7.1454    5.5902 C   0  0  0  0  0  0  0  0  0  0  0  0
    0.5693   -5.7665    2.5618 C   0  0  0  0  0  0  0  0  0  0  0  0
    2.0563   -3.0153    1.9929 C   0  0  0  0  0  0  0  0  0  0  0  0
    2.1557   -2.8632    3.6786 S   0  0  0  0  0  0  0  0  0  0  0  0
    3.2090   -1.5444    3.5340 C   0  0  0  0  0  0  0  0  0  0  0  0
    3.4036   -0.4429    4.3115 C   0  0  0  0  0  0  0  0  0  0  0  0
    2.8990   -0.1717    5.5908 C   0  0  0  0  0  0  0  0  0  0  0  0
    2.8513    1.1785    6.0407 C   0  0  0  0  0  0  0  0  0  0  0  0
    2.2991    1.4081    7.2591 N   0  0  0  0  0  0  0  0  0  0  0  0
    1.8936   -0.1413    7.6736 S   0  0  0  0  0  0  0  0  0  0  0  0
    2.3654   -1.1083    6.4162 N   0  0  0  0  0  0  0  0  0  0  0  0
    3.3764    2.1723    5.2175 C   0  0  0  0  0  0  0  0  0  0  0  0
    3.4161    3.5329    5.3533 C   0  0  0  0  0  0  0  0  0  0  0  0
    2.4664    4.6945    6.1409 S   0  0  0  0  0  0  0  0  0  0  0  0
    2.9051    5.8803    4.9968 C   0  0  0  0  0  0  0  0  0  0  0  0
    2.3413    7.1167    4.6678 C   0  0  0  0  0  0  0  0  0  0  0  0
    1.3062    7.7906    5.4696 C   0  0  0  0  0  0  0  0  0  0  0  0
    1.5653    9.0559    6.0111 C   0  0  0  0  0  0  0  0  0  0  0  0
    0.5748    9.7283    6.7301 C   0  0  0  0  0  0  0  0  0  0  0  0
   -0.6885    9.1543    6.8896 C   0  0  0  0  0  0  0  0  0  0  0  0
   -0.9732    7.9012    6.3236 C   0  0  0  0  0  0  0  0  0  0  0  0
   -2.3448    7.2995    6.4659 C   0  0  0  0  0  0  0  0  0  0  0  0
   -2.3879    6.3004    7.6165 C   0  0  0  0  0  0  0  0  0  0  0  0
    0.0368    7.2104    5.6336 C   0  0  0  0  0  0  0  0  0  0  0  0
    2.7805    7.5543    3.3996 C   0  0  0  0  0  0  0  0  0  0  0  0
    3.8217    6.3858    2.7238 S   0  0  0  0  0  0  0  0  0  0  0  0
    3.7472    5.3635    4.0430 C   0  0  0  0  0  0  0  0  0  0  0  0
    4.0149    4.0206    4.2371 C   0  0  0  0  0  0  0  0  0  0  0  0
    4.3759    3.0465    3.3701 N   0  0  0  0  0  0  0  0  0  0  0  0
    3.9193    1.8973    3.9542 C   0  0  0  0  0  0  0  0  0  0  0  0
    3.8263    0.5732    3.4382 C   0  0  0  0  0  0  0  0  0  0  0  0
    3.7729    0.1415    2.1254 N   0  0  0  0  0  0  0  0  0  0  0  0
    3.4269   -1.1766    2.2369 C   0  0  0  0  0  0  0  0  0  0  0  0
    2.7749   -2.0422    1.3494 C   0  0  0  0  0  0  0  0  0  0  0  0
    2.4762   -2.1422   -0.3093 S   0  0  0  0  0  0  0  0  0  0  0  0
    3.4064    0.9555    0.9580 C   0  0  0  0  0  0  0  0  0  0  0  0
    4.4027    0.7763   -0.1879 C   0  0  0  0  0  0  0  0  0  0  0  0
    5.3810    3.1833    2.3069 C   0  0  0  0  0  0  0  0  0  0  0  0
    6.6570    3.8506    2.8261 C   0  0  0  0  0  0  0  0  0  0  0  0
    2.1113    8.5597    2.5599 C   0  0  0  0  0  0  0  0  0  0  0  0
    2.6516    9.0820    1.3830 C   0  0  0  0  0  0  0  0  0  0  0  0
    1.6814    9.5796    0.4948 C   0  0  0  0  0  0  0  0  0  0  0  0
    1.9100    9.9875   -0.8361 C   0  0  0  0  0  0  0  0  0  0  0  0
    3.2709   10.2311   -1.3516 C   0  0  0  0  0  0  0  0  0  0  0  0
    3.8304    9.6933   -2.5058 C   0  0  0  0  0  0  0  0  0  0  0  0
    5.1227   10.1667   -2.7664 C   0  0  0  0  0  0  0  0  0  0  0  0
    6.0517    9.6344   -4.1555 Cl  0  0  0  0  0  0  0  0  0  0  0  0
    5.5756   11.0943   -1.8255 C   0  0  0  0  0  0  0  0  0  0  0  0
    6.8948   11.8085   -1.8267 C   0  0  0  0  0  0  0  0  0  0  0  0
    7.8981   11.1087   -0.9171 C   0  0  0  0  0  0  0  0  0  0  0  0
    4.3770   11.2994   -0.6648 S   0  0  0  0  0  0  0  0  0  0  0  0
    0.7729   10.1190   -1.6578 C   0  0  0  0  0  0  0  0  0  0  0  0
   -0.5267    9.9222   -1.1823 C   0  0  0  0  0  0  0  0  0  0  0  0
   -0.7561    9.6237    0.1749 C   0  0  0  0  0  0  0  0  0  0  0  0
   -2.1119    9.3874    0.7109 C   0  0  0  0  0  0  0  0  0  0  0  0
   -2.8122   10.2296    1.9904 S   0  0  0  0  0  0  0  0  0  0  0  0
   -4.2893    9.4235    1.9378 C   0  0  0  0  0  0  0  0  0  0  0  0
   -5.4368    9.6770    2.8692 C   0  0  0  0  0  0  0  0  0  0  0  0
   -5.3506    8.7683    4.0902 C   0  0  0  0  0  0  0  0  0  0  0  0
   -4.2369    8.4620    0.9301 C   0  0  0  0  0  0  0  0  0  0  0  0
   -3.0207    8.4421    0.2395 C   0  0  0  0  0  0  0  0  0  0  0  0
   -5.5501    7.3600    0.5504 Cl  0  0  0  0  0  0  0  0  0  0  0  0
    0.3763    9.4434    0.9816 C   0  0  0  0  0  0  0  0  0  0  0  0
    0.4355    8.7325    2.5002 S   0  0  0  0  0  0  0  0  0  0  0  0
   -1.5003    9.9886   -2.1886 C   0  0  0  0  0  0  0  0  0  0  0  0
   -0.9684   10.1710   -3.4592 C   0  0  0  0  0  0  0  0  0  0  0  0
    0.7018   10.3905   -3.3186 S   0  0  0  0  0  0  0  0  0  0  0  0
   -1.7980   10.1153   -4.6769 C   0  0  0  0  0  0  0  0  0  0  0  0
   -1.5658    9.3539   -5.7658 C   0  0  0  0  0  0  0  0  0  0  0  0
   -0.2940    8.7351   -6.1929 C   0  0  0  0  0  0  0  0  0  0  0  0
    0.7570    8.5964   -5.5171 O   0  0  0  0  0  0  0  0  0  0  0  0
   -0.4479    8.2685   -7.5525 C   0  0  0  0  0  0  0  0  0  0  0  0
    0.5279    7.7590   -8.4144 C   0  0  0  0  0  0  0  0  0  0  0  0
    0.1655    7.4738   -9.7355 C   0  0  0  0  0  0  0  0  0  0  0  0
   -1.1531    7.7087  -10.1762 C   0  0  0  0  0  0  0  0  0  0  0  0
   -1.4815    7.4817  -11.4701 F   0  0  0  0  0  0  0  0  0  0  0  0
   -2.1201    8.2130   -9.2876 C   0  0  0  0  0  0  0  0  0  0  0  0
   -1.7526    8.4598   -7.9566 C   0  0  0  0  0  0  0  0  0  0  0  0
   -2.5548    9.0172   -6.8404 C   0  0  0  0  0  0  0  0  0  0  0  0
   -3.8856    8.7991   -6.6665 C   0  0  0  0  0  0  0  0  0  0  0  0
   -4.6320    9.2999   -5.5422 C   0  0  0  0  0  0  0  0  0  0  0  0
   -5.2431    9.7124   -4.6502 N   0  0  0  0  0  0  0  0  0  0  0  0
   -4.6451    7.9716   -7.5701 C   0  0  0  0  0  0  0  0  0  0  0  0
   -5.2621    7.2856   -8.2621 N   0  0  0  0  0  0  0  0  0  0  0  0
   -2.1880   -9.6599   -3.7742 H   0  0  0  0  0  0  0  0  0  0  0  0
   -2.5208   -8.8567    2.3908 H   0  0  0  0  0  0  0  0  0  0  0  0
   -4.0200   -8.8530    4.3650 H   0  0  0  0  0  0  0  0  0  0  0  0
   -6.1775   -9.4359    5.3955 H   0  0  0  0  0  0  0  0  0  0  0  0
   -7.4056  -11.4489    1.8076 H   0  0  0  0  0  0  0  0  0  0  0  0
   -5.9257  -11.4603   -0.1521 H   0  0  0  0  0  0  0  0  0  0  0  0
   -1.7450   -7.2988   -5.2740 H   0  0  0  0  0  0  0  0  0  0  0  0
   -2.4482   -6.7703   -7.5422 H   0  0  0  0  0  0  0  0  0  0  0  0
   -5.3720   -6.1430   -8.6445 H   0  0  0  0  0  0  0  0  0  0  0  0
   -3.7881   -5.3723   -9.0443 H   0  0  0  0  0  0  0  0  0  0  0  0
   -5.1353   -4.3643   -8.4024 H   0  0  0  0  0  0  0  0  0  0  0  0
   -5.8476   -4.6116   -6.0015 H   0  0  0  0  0  0  0  0  0  0  0  0
   -5.1386   -5.1277   -3.7091 H   0  0  0  0  0  0  0  0  0  0  0  0
   -5.2328   -8.0989   -3.3478 H   0  0  0  0  0  0  0  0  0  0  0  0
   -7.0315   -8.5236   -1.7366 H   0  0  0  0  0  0  0  0  0  0  0  0
   -7.9073   -6.8005    0.7267 H   0  0  0  0  0  0  0  0  0  0  0  0
   -7.7525   -8.5963    0.6341 H   0  0  0  0  0  0  0  0  0  0  0  0
   -6.8469   -7.6815    1.8926 H   0  0  0  0  0  0  0  0  0  0  0  0
   -4.8376   -6.3780    1.2861 H   0  0  0  0  0  0  0  0  0  0  0  0
   -3.0417   -5.9284   -0.3407 H   0  0  0  0  0  0  0  0  0  0  0  0
    2.0601   -6.8339    0.3924 H   0  0  0  0  0  0  0  0  0  0  0  0
    3.4435   -7.7600    2.1880 H   0  0  0  0  0  0  0  0  0  0  0  0
    7.2280   -7.5309    2.2544 H   0  0  0  0  0  0  0  0  0  0  0  0
    6.0589   -8.9023    2.3028 H   0  0  0  0  0  0  0  0  0  0  0  0
    5.8126   -7.4611    3.3697 H   0  0  0  0  0  0  0  0  0  0  0  0
    6.9976   -6.4380    0.1433 H   0  0  0  0  0  0  0  0  0  0  0  0
    5.6256   -5.4745   -1.6342 H   0  0  0  0  0  0  0  0  0  0  0  0
    3.3676   -7.4253   -3.7286 H   0  0  0  0  0  0  0  0  0  0  0  0
    4.1640   -7.0450   -6.0181 H   0  0  0  0  0  0  0  0  0  0  0  0
    4.1932   -5.1942   -7.8859 H   0  0  0  0  0  0  0  0  0  0  0  0
    4.8934   -3.6025   -7.4267 H   0  0  0  0  0  0  0  0  0  0  0  0
    5.9021   -5.0967   -7.2934 H   0  0  0  0  0  0  0  0  0  0  0  0
    4.5625   -2.8298   -5.1731 H   0  0  0  0  0  0  0  0  0  0  0  0
    3.7285   -3.2177   -2.8863 H   0  0  0  0  0  0  0  0  0  0  0  0
   -1.4438   -3.4867    1.0266 H   0  0  0  0  0  0  0  0  0  0  0  0
   -3.1703   -4.8292    2.1527 H   0  0  0  0  0  0  0  0  0  0  0  0
   -2.5392   -6.7471    3.5626 H   0  0  0  0  0  0  0  0  0  0  0  0
    1.0000   -8.0033    3.9086 H   0  0  0  0  0  0  0  0  0  0  0  0
   -0.7199   -8.4961    4.0357 H   0  0  0  0  0  0  0  0  0  0  0  0
   -1.0776   -6.7853    5.8494 H   0  0  0  0  0  0  0  0  0  0  0  0
    0.6661   -6.3126    5.7308 H   0  0  0  0  0  0  0  0  0  0  0  0
    0.2095   -7.9755    6.2769 H   0  0  0  0  0  0  0  0  0  0  0  0
    1.6152   -5.9817    2.7287 H   0  0  0  0  0  0  0  0  0  0  0  0
    2.5365    9.5184    5.8825 H   0  0  0  0  0  0  0  0  0  0  0  0
    0.7826   10.7013    7.1564 H   0  0  0  0  0  0  0  0  0  0  0  0
   -1.4507    9.6954    7.4362 H   0  0  0  0  0  0  0  0  0  0  0  0
   -3.0990    8.0940    6.6481 H   0  0  0  0  0  0  0  0  0  0  0  0
   -2.6311    6.7884    5.5206 H   0  0  0  0  0  0  0  0  0  0  0  0
   -1.6880    5.4603    7.4224 H   0  0  0  0  0  0  0  0  0  0  0  0
   -2.1084    6.7994    8.5695 H   0  0  0  0  0  0  0  0  0  0  0  0
   -3.4150    5.8927    7.7177 H   0  0  0  0  0  0  0  0  0  0  0  0
   -0.1729    6.2426    5.1925 H   0  0  0  0  0  0  0  0  0  0  0  0
    3.3202    2.0277    1.2192 H   0  0  0  0  0  0  0  0  0  0  0  0
    2.3942    0.6607    0.6004 H   0  0  0  0  0  0  0  0  0  0  0  0
    4.0496    1.3464   -1.0735 H   0  0  0  0  0  0  0  0  0  0  0  0
    5.4131    1.1335    0.0823 H   0  0  0  0  0  0  0  0  0  0  0  0
    4.4959   -0.2893   -0.4750 H   0  0  0  0  0  0  0  0  0  0  0  0
    5.6800    2.1815    1.9567 H   0  0  0  0  0  0  0  0  0  0  0  0
    4.9616    3.7724    1.4633 H   0  0  0  0  0  0  0  0  0  0  0  0
    6.4593    4.8977    3.1313 H   0  0  0  0  0  0  0  0  0  0  0  0
    7.4230    3.8633    2.0197 H   0  0  0  0  0  0  0  0  0  0  0  0
    7.0553    3.2853    3.6942 H   0  0  0  0  0  0  0  0  0  0  0  0
    3.6973    8.9836    1.1289 H   0  0  0  0  0  0  0  0  0  0  0  0
    3.3220    8.9769   -3.1407 H   0  0  0  0  0  0  0  0  0  0  0  0
    6.7471   12.8505   -1.4737 H   0  0  0  0  0  0  0  0  0  0  0  0
    7.3067   11.8609   -2.8559 H   0  0  0  0  0  0  0  0  0  0  0  0
    7.5363   11.1208    0.1336 H   0  0  0  0  0  0  0  0  0  0  0  0
    8.0432   10.0553   -1.2358 H   0  0  0  0  0  0  0  0  0  0  0  0
    8.8731   11.6352   -0.9680 H   0  0  0  0  0  0  0  0  0  0  0  0
   -5.4142   10.7379    3.1967 H   0  0  0  0  0  0  0  0  0  0  0  0
   -6.3993    9.5001    2.3430 H   0  0  0  0  0  0  0  0  0  0  0  0
   -6.2416    8.9321    4.7325 H   0  0  0  0  0  0  0  0  0  0  0  0
   -4.4378    9.0063    4.6762 H   0  0  0  0  0  0  0  0  0  0  0  0
   -5.3282    7.7010    3.7818 H   0  0  0  0  0  0  0  0  0  0  0  0
   -2.8095    7.7600   -0.5729 H   0  0  0  0  0  0  0  0  0  0  0  0
   -2.5592    9.8452   -2.0201 H   0  0  0  0  0  0  0  0  0  0  0  0
   -2.7563   10.5945   -4.5718 H   0  0  0  0  0  0  0  0  0  0  0  0
    1.5433    7.6134   -8.0744 H   0  0  0  0  0  0  0  0  0  0  0  0
    0.9039    7.0826  -10.4253 H   0  0  0  0  0  0  0  0  0  0  0  0
   -3.1163    8.4241   -9.6507 H   0  0  0  0  0  0  0  0  0  0  0  0
  1  2  2  3
  2  3  1  0
  3  4  2  0
  3  5  1  0
  5  6  2  0
  6  7  1  0
  7  8  2  0
  8  9  1  0
  9 10  2  0
 10 11  1  0
 10 12  1  0
 12 13  2  0
 13 14  1  0
 14 15  2  0
 15 16  1  0
 16 17  2  3
 17 18  1  0
 18 19  3  0
 17 20  1  0
 20 21  3  0
  1 22  1  0
 22 23  2  0
 23 24  1  0
 24 25  1  0
 25 26  2  0
 26 27  1  0
 27 28  2  0
 28 29  1  0
 28 30  1  0
 30 31  2  0
 24 32  1  0
 32 33  2  0
 33 34  1  0
 34 35  2  0
 35 36  1  0
 35 37  1  0
 37 38  2  0
 23 39  1  0
 39 40  1  0
 40 41  1  0
 41 42  2  0
 42 43  1  0
 43 44  1  0
 44 45  2  0
 45 46  1  0
 46 47  2  0
 47 48  1  0
 47 49  1  0
 49 50  2  0
 43 51  1  0
 51 52  2  0
 52 53  1  0
 53 54  2  0
 54 55  1  0
 54 56  1  0
 56 57  2  0
 42 58  1  0
 58 59  1  0
 41 60  1  0
 60 61  2  0
 61 62  1  0
 62 63  2  0
 63 64  1  0
 64 65  2  0
 65 66  1  0
 66 67  1  0
 67 68  1  0
 66 69  2  0
 61 70  1  0
 70 71  1  0
 71 72  1  0
 72 73  1  0
 73 74  1  0
 74 75  1  0
 75 76  2  0
 76 77  1  0
 77 78  1  0
 75 79  1  0
 79 80  1  0
 80 81  1  0
 81 82  1  0
 82 83  1  0
 83 84  1  0
 84 85  2  0
 85 86  1  0
 86 87  2  0
 87 88  1  0
 88 89  1  0
 89 90  1  0
 88 91  2  0
 83 92  2  0
 92 93  1  0
 93 94  1  0
 94 95  1  0
 95 96  1  0
 96 97  1  0
 97 98  1  0
 98 99  1  0
 99100  1  0
100101  1  0
101102  1  0
 99103  1  0
103104  1  0
 96105  1  0
105106  1  0
 92107  1  0
107108  2  0
108109  1  0
109110  2  0
110111  1  0
111112  2  0
112113  1  0
113114  1  0
113115  2  0
115116  1  0
116117  1  0
115118  1  0
110119  1  0
119120  2  0
120121  1  0
121122  1  0
122123  1  0
123124  1  0
124125  1  0
125126  1  0
124127  2  0
127128  1  0
127129  1  0
121130  2  0
130131  1  0
120132  1  0
132133  2  0
133134  1  0
133135  1  0
135136  2  3
136137  1  0
137138  2  0
137139  1  0
139140  2  0
140141  1  0
141142  2  0
142143  1  0
142144  1  0
144145  2  0
145146  1  0
146147  2  3
147148  1  0
148149  3  0
147150  1  0
150151  3  0
 16  2  1  0
 59 22  1  0
102 60  1  0
131107  1  0
146136  1  0
 15  5  1  0
 31 25  1  0
 38 32  1  0
 58 39  2  0
 69 62  1  0
101 70  2  0
130109  1  0
145139  1  0
 13  7  1  0
 50 44  1  0
 57 51  1  0
100 72  2  0
118111  1  0
134119  1  0
 98 73  2  0
128122  2  0
 78 74  2  0
 97 79  2  0
 95 80  2  0
 94 82  2  0
 91 84  1  0
  1152  1  0
  6153  1  0
  8154  1  0
  9155  1  0
 12156  1  0
 14157  1  0
 26158  1  0
 27159  1  0
 29160  1  0
 29161  1  0
 29162  1  0
 30163  1  0
 31164  1  0
 33165  1  0
 34166  1  0
 36167  1  0
 36168  1  0
 36169  1  0
 37170  1  0
 38171  1  0
 45172  1  0
 46173  1  0
 48174  1  0
 48175  1  0
 48176  1  0
 49177  1  0
 50178  1  0
 52179  1  0
 53180  1  0
 55181  1  0
 55182  1  0
 55183  1  0
 56184  1  0
 57185  1  0
 63186  1  0
 64187  1  0
 65188  1  0
 67189  1  0
 67190  1  0
 68191  1  0
 68192  1  0
 68193  1  0
 69194  1  0
 85195  1  0
 86196  1  0
 87197  1  0
 89198  1  0
 89199  1  0
 90200  1  0
 90201  1  0
 90202  1  0
 91203  1  0
103204  1  0
103205  1  0
104206  1  0
104207  1  0
104208  1  0
105209  1  0
105210  1  0
106211  1  0
106212  1  0
106213  1  0
108214  1  0
112215  1  0
116216  1  0
116217  1  0
117218  1  0
117219  1  0
117220  1  0
125221  1  0
125222  1  0
126223  1  0
126224  1  0
126225  1  0
128226  1  0
132227  1  0
135228  1  0
140229  1  0
141230  1  0
144231  1  0
M  END

