
     RDKit          3D

212235  0  0  0  0  0  0  0  0999 V2000
   -5.0635    4.6610    4.0596 C   0  0  0  0  0  0  0  0  0  0  0  0
   -4.0030    5.4605    3.8137 C   0  0  0  0  0  0  0  0  0  0  0  0
   -2.8283    5.0737    3.0147 C   0  0  0  0  0  0  0  0  0  0  0  0
   -2.6777    4.0000    2.3708 O   0  0  0  0  0  0  0  0  0  0  0  0
   -1.8862    6.1702    3.0157 C   0  0  0  0  0  0  0  0  0  0  0  0
   -0.6215    6.2078    2.4280 C   0  0  0  0  0  0  0  0  0  0  0  0
    0.1758    7.3458    2.6194 C   0  0  0  0  0  0  0  0  0  0  0  0
    1.4478    7.4381    2.0404 C   0  0  0  0  0  0  0  0  0  0  0  0
    2.2524    8.5550    2.2733 C   0  0  0  0  0  0  0  0  0  0  0  0
    1.7895    9.5969    3.0807 C   0  0  0  0  0  0  0  0  0  0  0  0
    2.5843   10.6704    3.3161 F   0  0  0  0  0  0  0  0  0  0  0  0
    0.5202    9.5304    3.6590 C   0  0  0  0  0  0  0  0  0  0  0  0
   -0.3021    8.4145    3.4280 C   0  0  0  0  0  0  0  0  0  0  0  0
   -1.5936    8.3492    3.9978 C   0  0  0  0  0  0  0  0  0  0  0  0
   -2.4016    7.2245    3.7458 C   0  0  0  0  0  0  0  0  0  0  0  0
   -3.7817    6.8898    4.2190 C   0  0  0  0  0  0  0  0  0  0  0  0
   -4.6535    7.7367    4.8323 C   0  0  0  0  0  0  0  0  0  0  0  0
   -5.9262    7.3181    5.3584 C   0  0  0  0  0  0  0  0  0  0  0  0
   -6.9501    7.0005    5.7926 N   0  0  0  0  0  0  0  0  0  0  0  0
   -4.4042    9.1483    4.9530 C   0  0  0  0  0  0  0  0  0  0  0  0
   -4.2207   10.2852    5.0566 N   0  0  0  0  0  0  0  0  0  0  0  0
   -5.0371    3.2190    3.7745 C   0  0  0  0  0  0  0  0  0  0  0  0
   -5.7854    2.5595    2.7978 C   0  0  0  0  0  0  0  0  0  0  0  0
   -6.9013    3.1317    2.0978 N   0  0  0  0  0  0  0  0  0  0  0  0
   -8.2489    2.7927    2.5214 C   0  0  0  0  0  0  0  0  0  0  0  0
   -8.5175    2.5155    3.8722 C   0  0  0  0  0  0  0  0  0  0  0  0
   -9.8187    2.2200    4.2939 C   0  0  0  0  0  0  0  0  0  0  0  0
  -10.8741    2.2104    3.3656 C   0  0  0  0  0  0  0  0  0  0  0  0
  -12.2635    1.8910    3.8230 C   0  0  0  0  0  0  0  0  0  0  0  0
  -10.6010    2.4529    2.0120 C   0  0  0  0  0  0  0  0  0  0  0  0
   -9.3017    2.7401    1.5950 C   0  0  0  0  0  0  0  0  0  0  0  0
   -6.6702    4.0447    1.0029 C   0  0  0  0  0  0  0  0  0  0  0  0
   -7.4664    5.1884    0.8533 C   0  0  0  0  0  0  0  0  0  0  0  0
   -7.3199    6.0162   -0.2690 C   0  0  0  0  0  0  0  0  0  0  0  0
   -6.3725    5.7061   -1.2524 C   0  0  0  0  0  0  0  0  0  0  0  0
   -6.2967    6.5238   -2.5039 C   0  0  0  0  0  0  0  0  0  0  0  0
   -5.5544    4.5744   -1.0922 C   0  0  0  0  0  0  0  0  0  0  0  0
   -5.6895    3.7596    0.0354 C   0  0  0  0  0  0  0  0  0  0  0  0
   -5.4116    1.2248    2.6922 C   0  0  0  0  0  0  0  0  0  0  0  0
   -5.6375    0.0408    1.5302 S   0  0  0  0  0  0  0  0  0  0  0  0
   -4.4628   -1.0141    2.1732 C   0  0  0  0  0  0  0  0  0  0  0  0
   -3.9114   -0.4259    3.3288 C   0  0  0  0  0  0  0  0  0  0  0  0
   -3.1328   -1.1361    4.3111 N   0  0  0  0  0  0  0  0  0  0  0  0
   -3.7101   -1.4117    5.6072 C   0  0  0  0  0  0  0  0  0  0  0  0
   -5.0856   -1.6503    5.7364 C   0  0  0  0  0  0  0  0  0  0  0  0
   -5.6448   -1.9201    6.9949 C   0  0  0  0  0  0  0  0  0  0  0  0
   -4.8306   -1.9644    8.1356 C   0  0  0  0  0  0  0  0  0  0  0  0
   -5.4260   -2.2969    9.4668 C   0  0  0  0  0  0  0  0  0  0  0  0
   -3.4461   -1.7561    8.0058 C   0  0  0  0  0  0  0  0  0  0  0  0
   -2.8936   -1.4725    6.7593 C   0  0  0  0  0  0  0  0  0  0  0  0
   -1.7915   -1.5644    4.0237 C   0  0  0  0  0  0  0  0  0  0  0  0
   -1.4201   -2.8985    4.2523 C   0  0  0  0  0  0  0  0  0  0  0  0
   -0.0817   -3.2826    4.1540 C   0  0  0  0  0  0  0  0  0  0  0  0
    0.9017   -2.3454    3.8117 C   0  0  0  0  0  0  0  0  0  0  0  0
    2.3474   -2.7462    3.8406 C   0  0  0  0  0  0  0  0  0  0  0  0
    0.5275   -1.0164    3.5557 C   0  0  0  0  0  0  0  0  0  0  0  0
   -0.8166   -0.6280    3.6571 C   0  0  0  0  0  0  0  0  0  0  0  0
   -4.4481    0.8303    3.5628 C   0  0  0  0  0  0  0  0  0  0  0  0
   -3.9664    2.1214    4.5219 S   0  0  0  0  0  0  0  0  0  0  0  0
   -3.6641   -1.8654    1.2909 C   0  0  0  0  0  0  0  0  0  0  0  0
   -4.0771   -3.0140    0.5924 C   0  0  0  0  0  0  0  0  0  0  0  0
   -5.3145   -3.7713    0.8582 C   0  0  0  0  0  0  0  0  0  0  0  0
   -6.0985   -4.2510   -0.1994 C   0  0  0  0  0  0  0  0  0  0  0  0
   -7.2392   -5.0075    0.0609 C   0  0  0  0  0  0  0  0  0  0  0  0
   -7.6057   -5.3036    1.3803 C   0  0  0  0  0  0  0  0  0  0  0  0
   -6.8237   -4.8325    2.4530 C   0  0  0  0  0  0  0  0  0  0  0  0
   -7.1543   -5.2186    3.8676 C   0  0  0  0  0  0  0  0  0  0  0  0
   -6.3391   -6.4365    4.2993 C   0  0  0  0  0  0  0  0  0  0  0  0
   -5.6841   -4.0598    2.1840 C   0  0  0  0  0  0  0  0  0  0  0  0
   -3.0980   -3.3961   -0.3358 C   0  0  0  0  0  0  0  0  0  0  0  0
   -2.9039   -4.7016   -1.4353 S   0  0  0  0  0  0  0  0  0  0  0  0
   -1.3956   -4.0875   -1.9439 C   0  0  0  0  0  0  0  0  0  0  0  0
   -0.3075   -4.4674   -2.6887 C   0  0  0  0  0  0  0  0  0  0  0  0
   -0.0243   -5.6484   -3.3881 C   0  0  0  0  0  0  0  0  0  0  0  0
    1.2964   -5.8564   -3.8747 C   0  0  0  0  0  0  0  0  0  0  0  0
    1.5454   -7.0227   -4.5208 N   0  0  0  0  0  0  0  0  0  0  0  0
    0.0391   -7.7119   -4.4166 S   0  0  0  0  0  0  0  0  0  0  0  0
   -0.9250   -6.6408   -3.5973 N   0  0  0  0  0  0  0  0  0  0  0  0
    2.2605   -4.8577   -3.6692 C   0  0  0  0  0  0  0  0  0  0  0  0
    3.5665   -4.7477   -4.0574 C   0  0  0  0  0  0  0  0  0  0  0  0
    4.7629   -5.5843   -4.9412 S   0  0  0  0  0  0  0  0  0  0  0  0
    5.8482   -4.2642   -4.7962 C   0  0  0  0  0  0  0  0  0  0  0  0
    7.1656   -4.0140   -5.2030 C   0  0  0  0  0  0  0  0  0  0  0  0
    7.9353   -4.8599   -6.1380 C   0  0  0  0  0  0  0  0  0  0  0  0
    9.3045   -5.1273   -5.9281 C   0  0  0  0  0  0  0  0  0  0  0  0
   10.0200   -5.8843   -6.8600 C   0  0  0  0  0  0  0  0  0  0  0  0
    9.3927   -6.3581   -8.0172 C   0  0  0  0  0  0  0  0  0  0  0  0
    8.0361   -6.0982   -8.2355 C   0  0  0  0  0  0  0  0  0  0  0  0
    7.3520   -6.6232   -9.4765 C   0  0  0  0  0  0  0  0  0  0  0  0
    6.6763   -7.9608   -9.1943 C   0  0  0  0  0  0  0  0  0  0  0  0
    7.3071   -5.3644   -7.2864 C   0  0  0  0  0  0  0  0  0  0  0  0
    7.5845   -2.7458   -4.7287 C   0  0  0  0  0  0  0  0  0  0  0  0
    6.3292   -1.9849   -3.8663 S   0  0  0  0  0  0  0  0  0  0  0  0
    5.2681   -3.2416   -4.1035 C   0  0  0  0  0  0  0  0  0  0  0  0
    3.9705   -3.5073   -3.7087 C   0  0  0  0  0  0  0  0  0  0  0  0
    2.9986   -2.7449   -3.1604 N   0  0  0  0  0  0  0  0  0  0  0  0
    1.9551   -3.6285   -3.0427 C   0  0  0  0  0  0  0  0  0  0  0  0
    0.6683   -3.4743   -2.4610 C   0  0  0  0  0  0  0  0  0  0  0  0
    0.2341   -2.5794   -1.5148 N   0  0  0  0  0  0  0  0  0  0  0  0
   -1.0389   -2.9733   -1.2717 C   0  0  0  0  0  0  0  0  0  0  0  0
   -1.9954   -2.5851   -0.3595 C   0  0  0  0  0  0  0  0  0  0  0  0
   -2.1580   -1.3339    0.7202 S   0  0  0  0  0  0  0  0  0  0  0  0
    1.0288   -1.7441   -0.6025 C   0  0  0  0  0  0  0  0  0  0  0  0
    1.9730   -2.5831    0.2476 C   0  0  0  0  0  0  0  0  0  0  0  0
    2.9756   -1.2752   -3.3119 C   0  0  0  0  0  0  0  0  0  0  0  0
    1.7076   -0.7664   -4.0022 C   0  0  0  0  0  0  0  0  0  0  0  0
    8.8710   -2.0845   -4.9444 C   0  0  0  0  0  0  0  0  0  0  0  0
    8.9351   -0.5690   -5.7080 S   0  0  0  0  0  0  0  0  0  0  0  0
   10.1420    0.1674   -4.7732 C   0  0  0  0  0  0  0  0  0  0  0  0
   10.4895   -0.7888   -3.8384 C   0  0  0  0  0  0  0  0  0  0  0  0
   11.0435   -0.6948   -2.4973 C   0  0  0  0  0  0  0  0  0  0  0  0
   11.6659    0.2911   -2.0232 O   0  0  0  0  0  0  0  0  0  0  0  0
   10.7440   -1.8813   -1.7654 N   0  0  0  0  0  0  0  0  0  0  0  0
   11.3028   -2.2923   -0.4759 C   0  0  0  0  0  0  0  0  0  0  0  0
   10.3244   -1.9634    0.6550 C   0  0  0  0  0  0  0  0  0  0  0  0
    9.9627   -2.6776   -2.6547 C   0  0  0  0  0  0  0  0  0  0  0  0
    9.4579   -3.7913   -2.3542 O   0  0  0  0  0  0  0  0  0  0  0  0
    9.8305   -1.9975   -3.9391 C   0  0  0  0  0  0  0  0  0  0  0  0
   10.2357    1.6243   -4.5924 C   0  0  0  0  0  0  0  0  0  0  0  0
    9.2988    2.3155   -3.9093 C   0  0  0  0  0  0  0  0  0  0  0  0
    8.0884    1.7592   -3.2990 C   0  0  0  0  0  0  0  0  0  0  0  0
    7.9229    0.5751   -2.8940 O   0  0  0  0  0  0  0  0  0  0  0  0
    7.1260    2.8222   -3.1326 C   0  0  0  0  0  0  0  0  0  0  0  0
    5.8005    2.7249   -2.7065 C   0  0  0  0  0  0  0  0  0  0  0  0
    5.0287    3.8922   -2.6669 C   0  0  0  0  0  0  0  0  0  0  0  0
    3.6983    3.8465   -2.2061 C   0  0  0  0  0  0  0  0  0  0  0  0
    2.9380    5.0201   -2.1426 C   0  0  0  0  0  0  0  0  0  0  0  0
    3.4945    6.2400   -2.5385 C   0  0  0  0  0  0  0  0  0  0  0  0
    2.7558    7.3781   -2.4512 F   0  0  0  0  0  0  0  0  0  0  0  0
    4.8054    6.3013   -3.0123 C   0  0  0  0  0  0  0  0  0  0  0  0
    5.5906    5.1363   -3.0821 C   0  0  0  0  0  0  0  0  0  0  0  0
    6.9188    5.1878   -3.5296 C   0  0  0  0  0  0  0  0  0  0  0  0
    7.6949    4.0180   -3.5186 C   0  0  0  0  0  0  0  0  0  0  0  0
    9.1116    3.7953   -3.8988 C   0  0  0  0  0  0  0  0  0  0  0  0
   10.1028    4.7231   -3.9188 C   0  0  0  0  0  0  0  0  0  0  0  0
    9.8618    6.1126   -3.6167 C   0  0  0  0  0  0  0  0  0  0  0  0
    9.6837    7.2264   -3.3680 N   0  0  0  0  0  0  0  0  0  0  0  0
   11.4922    4.3522   -4.0047 C   0  0  0  0  0  0  0  0  0  0  0  0
   12.6133    4.0554   -4.0600 N   0  0  0  0  0  0  0  0  0  0  0  0
   -5.9654    5.0206    4.5022 H   0  0  0  0  0  0  0  0  0  0  0  0
   -0.2724    5.3701    1.8371 H   0  0  0  0  0  0  0  0  0  0  0  0
    1.8242    6.6352    1.4081 H   0  0  0  0  0  0  0  0  0  0  0  0
    3.2402    8.6056    1.8384 H   0  0  0  0  0  0  0  0  0  0  0  0
    0.1793   10.3457    4.2790 H   0  0  0  0  0  0  0  0  0  0  0  0
   -1.9215    9.1512    4.6341 H   0  0  0  0  0  0  0  0  0  0  0  0
   -7.7293    2.5377    4.6153 H   0  0  0  0  0  0  0  0  0  0  0  0
  -10.0080    2.0188    5.3403 H   0  0  0  0  0  0  0  0  0  0  0  0
  -13.0223    2.1947    3.0657 H   0  0  0  0  0  0  0  0  0  0  0  0
  -12.4904    2.4226    4.7723 H   0  0  0  0  0  0  0  0  0  0  0  0
  -12.3527    0.7967    3.9897 H   0  0  0  0  0  0  0  0  0  0  0  0
  -11.4013    2.4292    1.2793 H   0  0  0  0  0  0  0  0  0  0  0  0
   -9.1172    2.9217    0.5403 H   0  0  0  0  0  0  0  0  0  0  0  0
   -8.2181    5.4325    1.5887 H   0  0  0  0  0  0  0  0  0  0  0  0
   -7.9625    6.8761   -0.3757 H   0  0  0  0  0  0  0  0  0  0  0  0
   -7.1071    6.2042   -3.1950 H   0  0  0  0  0  0  0  0  0  0  0  0
   -6.4230    7.5982   -2.2695 H   0  0  0  0  0  0  0  0  0  0  0  0
   -5.3220    6.3898   -3.0146 H   0  0  0  0  0  0  0  0  0  0  0  0
   -4.8321    4.3095   -1.8551 H   0  0  0  0  0  0  0  0  0  0  0  0
   -5.0610    2.8810    0.1293 H   0  0  0  0  0  0  0  0  0  0  0  0
   -5.7353   -1.6421    4.8697 H   0  0  0  0  0  0  0  0  0  0  0  0
   -6.7033   -2.0979    7.0719 H   0  0  0  0  0  0  0  0  0  0  0  0
   -4.7813   -1.9322   10.2979 H   0  0  0  0  0  0  0  0  0  0  0  0
   -5.5480   -3.3966    9.5611 H   0  0  0  0  0  0  0  0  0  0  0  0
   -6.4209   -1.8090    9.5791 H   0  0  0  0  0  0  0  0  0  0  0  0
   -2.7979   -1.8291    8.8769 H   0  0  0  0  0  0  0  0  0  0  0  0
   -1.8259   -1.2874    6.6901 H   0  0  0  0  0  0  0  0  0  0  0  0
   -2.1636   -3.6305    4.5398 H   0  0  0  0  0  0  0  0  0  0  0  0
    0.1965   -4.3096    4.3791 H   0  0  0  0  0  0  0  0  0  0  0  0
    2.6601   -2.8914    4.8952 H   0  0  0  0  0  0  0  0  0  0  0  0
    2.4911   -3.6996    3.2865 H   0  0  0  0  0  0  0  0  0  0  0  0
    2.9970   -1.9714    3.3827 H   0  0  0  0  0  0  0  0  0  0  0  0
    1.2757   -0.2706    3.2991 H   0  0  0  0  0  0  0  0  0  0  0  0
   -1.0894    0.4057    3.4865 H   0  0  0  0  0  0  0  0  0  0  0  0
   -5.8284   -4.0320   -1.2246 H   0  0  0  0  0  0  0  0  0  0  0  0
   -7.8342   -5.3845   -0.7613 H   0  0  0  0  0  0  0  0  0  0  0  0
   -8.4844   -5.9107    1.5661 H   0  0  0  0  0  0  0  0  0  0  0  0
   -6.9315   -4.3695    4.5526 H   0  0  0  0  0  0  0  0  0  0  0  0
   -8.2378   -5.4556    3.9695 H   0  0  0  0  0  0  0  0  0  0  0  0
   -6.5789   -7.3111    3.6541 H   0  0  0  0  0  0  0  0  0  0  0  0
   -6.5774   -6.6946    5.3515 H   0  0  0  0  0  0  0  0  0  0  0  0
   -5.2506   -6.2188    4.2270 H   0  0  0  0  0  0  0  0  0  0  0  0
   -5.0644   -3.7256    3.0073 H   0  0  0  0  0  0  0  0  0  0  0  0
    9.8053   -4.7666   -5.0424 H   0  0  0  0  0  0  0  0  0  0  0  0
   11.0733   -6.0855   -6.6930 H   0  0  0  0  0  0  0  0  0  0  0  0
    9.9686   -6.9398   -8.7219 H   0  0  0  0  0  0  0  0  0  0  0  0
    6.5915   -5.8926   -9.8288 H   0  0  0  0  0  0  0  0  0  0  0  0
    8.0950   -6.7515  -10.2978 H   0  0  0  0  0  0  0  0  0  0  0  0
    6.1687   -8.3165  -10.1146 H   0  0  0  0  0  0  0  0  0  0  0  0
    5.9199   -7.8481   -8.3898 H   0  0  0  0  0  0  0  0  0  0  0  0
    7.4352   -8.7110   -8.8868 H   0  0  0  0  0  0  0  0  0  0  0  0
    6.2620   -5.1630   -7.4654 H   0  0  0  0  0  0  0  0  0  0  0  0
    1.5603   -0.9569   -1.1406 H   0  0  0  0  0  0  0  0  0  0  0  0
    0.3773   -1.1757    0.0783 H   0  0  0  0  0  0  0  0  0  0  0  0
    2.5755   -1.9205    0.9046 H   0  0  0  0  0  0  0  0  0  0  0  0
    2.6679   -3.1667   -0.3858 H   0  0  0  0  0  0  0  0  0  0  0  0
    1.3880   -3.2788    0.8888 H   0  0  0  0  0  0  0  0  0  0  0  0
    3.8022   -0.9506   -3.9776 H   0  0  0  0  0  0  0  0  0  0  0  0
    3.2002   -0.7687   -2.3616 H   0  0  0  0  0  0  0  0  0  0  0  0
    1.5436   -1.3270   -4.9515 H   0  0  0  0  0  0  0  0  0  0  0  0
    0.8156   -0.8755   -3.3642 H   0  0  0  0  0  0  0  0  0  0  0  0
    1.8287    0.3142   -4.2421 H   0  0  0  0  0  0  0  0  0  0  0  0
   11.4924   -3.3872   -0.4878 H   0  0  0  0  0  0  0  0  0  0  0  0
   12.2689   -1.7658   -0.2983 H   0  0  0  0  0  0  0  0  0  0  0  0
    9.3417   -2.4304    0.4645 H   0  0  0  0  0  0  0  0  0  0  0  0
   10.2002   -0.8629    0.7514 H   0  0  0  0  0  0  0  0  0  0  0  0
   10.7329   -2.3656    1.6076 H   0  0  0  0  0  0  0  0  0  0  0  0
   10.9967    2.1321   -5.1552 H   0  0  0  0  0  0  0  0  0  0  0  0
    5.3851    1.7627   -2.4303 H   0  0  0  0  0  0  0  0  0  0  0  0
    3.2573    2.9095   -1.8926 H   0  0  0  0  0  0  0  0  0  0  0  0
    1.9267    4.9810   -1.7668 H   0  0  0  0  0  0  0  0  0  0  0  0
    5.2206    7.2611   -3.3105 H   0  0  0  0  0  0  0  0  0  0  0  0
    7.3185    6.1266   -3.8957 H   0  0  0  0  0  0  0  0  0  0  0  0
  1  2  2  3
  2  3  1  0
  3  4  2  0
  3  5  1  0
  5  6  2  0
  6  7  1  0
  7  8  2  0
  8  9  1  0
  9 10  2  0
 10 11  1  0
 10 12  1  0
 12 13  2  0
 13 14  1  0
 14 15  2  0
 15 16  1  0
 16 17  2  3
 17 18  1  0
 18 19  3  0
 17 20  1  0
 20 21  3  0
  1 22  1  0
 22 23  2  0
 23 24  1  0
 24 25  1  0
 25 26  2  0
 26 27  1  0
 27 28  2  0
 28 29  1  0
 28 30  1  0
 30 31  2  0
 24 32  1  0
 32 33  2  0
 33 34  1  0
 34 35  2  0
 35 36  1  0
 35 37  1  0
 37 38  2  0
 23 39  1  0
 39 40  1  0
 40 41  1  0
 41 42  2  0
 42 43  1  0
 43 44  1  0
 44 45  2  0
 45 46  1  0
 46 47  2  0
 47 48  1  0
 47 49  1  0
 49 50  2  0
 43 51  1  0
 51 52  2  0
 52 53  1  0
 53 54  2  0
 54 55  1  0
 54 56  1  0
 56 57  2  0
 42 58  1  0
 58 59  1  0
 41 60  1  0
 60 61  2  0
 61 62  1  0
 62 63  2  0
 63 64  1  0
 64 65  2  0
 65 66  1  0
 66 67  1  0
 67 68  1  0
 66 69  2  0
 61 70  1  0
 70 71  1  0
 71 72  1  0
 72 73  1  0
 73 74  1  0
 74 75  1  0
 75 76  2  0
 76 77  1  0
 77 78  1  0
 75 79  1  0
 79 80  1  0
 80 81  1  0
 81 82  1  0
 82 83  1  0
 83 84  1  0
 84 85  2  0
 85 86  1  0
 86 87  2  0
 87 88  1  0
 88 89  1  0
 89 90  1  0
 88 91  2  0
 83 92  2  0
 92 93  1  0
 93 94  1  0
 94 95  1  0
 95 96  1  0
 96 97  1  0
 97 98  1  0
 98 99  1  0
 99100  1  0
100101  1  0
101102  1  0
 99103  1  0
103104  1  0
 96105  1  0
105106  1  0
 92107  1  0
107108  1  0
108109  1  0
109110  2  0
110111  1  0
111112  2  0
111113  1  0
113114  1  0
114115  1  0
113116  1  0
116117  2  0
116118  1  0
109119  1  0
119120  2  3
120121  1  0
121122  2  0
121123  1  0
123124  2  0
124125  1  0
125126  2  0
126127  1  0
127128  2  0
128129  1  0
128130  1  0
130131  2  0
131132  1  0
132133  2  0
133134  1  0
134135  2  3
135136  1  0
136137  3  0
135138  1  0
138139  3  0
 16  2  1  0
 59 22  1  0
102 60  1  0
118107  2  0
134120  1  0
 15  5  1  0
 31 25  1  0
 38 32  1  0
 58 39  2  0
 69 62  1  0
101 70  2  0
118110  1  0
133123  1  0
 13  7  1  0
 50 44  1  0
 57 51  1  0
100 72  2  0
131125  1  0
 98 73  2  0
 78 74  2  0
 97 79  2  0
 95 80  2  0
 94 82  2  0
 91 84  1  0
  1140  1  0
  6141  1  0
  8142  1  0
  9143  1  0
 12144  1  0
 14145  1  0
 26146  1  0
 27147  1  0
 29148  1  0
 29149  1  0
 29150  1  0
 30151  1  0
 31152  1  0
 33153  1  0
 34154  1  0
 36155  1  0
 36156  1  0
 36157  1  0
 37158  1  0
 38159  1  0
 45160  1  0
 46161  1  0
 48162  1  0
 48163  1  0
 48164  1  0
 49165  1  0
 50166  1  0
 52167  1  0
 53168  1  0
 55169  1  0
 55170  1  0
 55171  1  0
 56172  1  0
 57173  1  0
 63174  1  0
 64175  1  0
 65176  1  0
 67177  1  0
 67178  1  0
 68179  1  0
 68180  1  0
 68181  1  0
 69182  1  0
 85183  1  0
 86184  1  0
 87185  1  0
 89186  1  0
 89187  1  0
 90188  1  0
 90189  1  0
 90190  1  0
 91191  1  0
103192  1  0
103193  1  0
104194  1  0
104195  1  0
104196  1  0
105197  1  0
105198  1  0
106199  1  0
106200  1  0
106201  1  0
114202  1  0
114203  1  0
115204  1  0
115205  1  0
115206  1  0
119207  1  0
124208  1  0
126209  1  0
127210  1  0
130211  1  0
132212  1  0
M  END

