
     RDKit          3D

206229  0  0  0  0  0  0  0  0999 V2000
   -2.9262   -5.6485    3.8709 C   0  0  0  0  0  0  0  0  0  0  0  0
   -2.9475   -5.4862    2.5275 C   0  0  0  0  0  0  0  0  0  0  0  0
   -2.7085   -4.2116    1.8361 C   0  0  0  0  0  0  0  0  0  0  0  0
   -2.1612   -3.1869    2.3215 O   0  0  0  0  0  0  0  0  0  0  0  0
   -3.1681   -4.3195    0.4770 C   0  0  0  0  0  0  0  0  0  0  0  0
   -3.2048   -3.3130   -0.4859 C   0  0  0  0  0  0  0  0  0  0  0  0
   -3.7268   -3.6147   -1.7507 C   0  0  0  0  0  0  0  0  0  0  0  0
   -3.8156   -2.6188   -2.7410 C   0  0  0  0  0  0  0  0  0  0  0  0
   -4.3329   -2.9256   -4.0003 C   0  0  0  0  0  0  0  0  0  0  0  0
   -4.7453   -4.2275   -4.2926 C   0  0  0  0  0  0  0  0  0  0  0  0
   -5.2258   -4.5155   -5.5266 F   0  0  0  0  0  0  0  0  0  0  0  0
   -4.6575   -5.2317   -3.3216 C   0  0  0  0  0  0  0  0  0  0  0  0
   -4.1624   -4.9377   -2.0415 C   0  0  0  0  0  0  0  0  0  0  0  0
   -4.0931   -5.9387   -1.0492 C   0  0  0  0  0  0  0  0  0  0  0  0
   -3.6211   -5.6057    0.2381 C   0  0  0  0  0  0  0  0  0  0  0  0
   -3.4660   -6.4302    1.4851 C   0  0  0  0  0  0  0  0  0  0  0  0
   -3.7696   -7.7469    1.6442 C   0  0  0  0  0  0  0  0  0  0  0  0
   -3.3794   -8.5014    2.8128 C   0  0  0  0  0  0  0  0  0  0  0  0
   -3.0720   -9.1266    3.7367 N   0  0  0  0  0  0  0  0  0  0  0  0
   -4.4185   -8.5293    0.6251 C   0  0  0  0  0  0  0  0  0  0  0  0
   -4.9425   -9.1716   -0.1845 N   0  0  0  0  0  0  0  0  0  0  0  0
   -2.8208   -4.4937    4.7656 C   0  0  0  0  0  0  0  0  0  0  0  0
   -3.8433   -3.5344    4.8848 C   0  0  0  0  0  0  0  0  0  0  0  0
   -5.2454   -3.8603    4.7541 N   0  0  0  0  0  0  0  0  0  0  0  0
   -5.6762   -5.1809    5.1492 C   0  0  0  0  0  0  0  0  0  0  0  0
   -6.3424   -6.0109    4.2320 C   0  0  0  0  0  0  0  0  0  0  0  0
   -6.6114   -7.3440    4.5555 C   0  0  0  0  0  0  0  0  0  0  0  0
   -6.2379   -7.8576    5.8097 C   0  0  0  0  0  0  0  0  0  0  0  0
   -6.4564   -9.3025    6.1418 C   0  0  0  0  0  0  0  0  0  0  0  0
   -5.5932   -7.0194    6.7355 C   0  0  0  0  0  0  0  0  0  0  0  0
   -5.3237   -5.6894    6.4096 C   0  0  0  0  0  0  0  0  0  0  0  0
   -6.2239   -2.9243    4.2687 C   0  0  0  0  0  0  0  0  0  0  0  0
   -7.4725   -2.8340    4.9016 C   0  0  0  0  0  0  0  0  0  0  0  0
   -8.4886   -2.0535    4.3536 C   0  0  0  0  0  0  0  0  0  0  0  0
   -8.2686   -1.3431    3.1673 C   0  0  0  0  0  0  0  0  0  0  0  0
   -9.4068   -0.5947    2.5422 C   0  0  0  0  0  0  0  0  0  0  0  0
   -7.0091   -1.3974    2.5484 C   0  0  0  0  0  0  0  0  0  0  0  0
   -5.9904   -2.1856    3.0970 C   0  0  0  0  0  0  0  0  0  0  0  0
   -3.3248   -2.3083    5.3001 C   0  0  0  0  0  0  0  0  0  0  0  0
   -3.8391   -0.7124    5.2221 S   0  0  0  0  0  0  0  0  0  0  0  0
   -2.3128   -0.0343    5.6144 C   0  0  0  0  0  0  0  0  0  0  0  0
   -1.4061   -1.0982    5.8175 C   0  0  0  0  0  0  0  0  0  0  0  0
   -0.1217   -0.9812    6.4550 N   0  0  0  0  0  0  0  0  0  0  0  0
   -0.0947   -1.2382    7.8680 C   0  0  0  0  0  0  0  0  0  0  0  0
   -0.7517   -0.3765    8.7539 C   0  0  0  0  0  0  0  0  0  0  0  0
   -0.7521   -0.6449   10.1259 C   0  0  0  0  0  0  0  0  0  0  0  0
   -0.0986   -1.7824   10.6254 C   0  0  0  0  0  0  0  0  0  0  0  0
   -0.1415   -2.0913   12.0939 C   0  0  0  0  0  0  0  0  0  0  0  0
    0.5360   -2.6604    9.7331 C   0  0  0  0  0  0  0  0  0  0  0  0
    0.5457   -2.3847    8.3634 C   0  0  0  0  0  0  0  0  0  0  0  0
    1.1205   -0.8935    5.7116 C   0  0  0  0  0  0  0  0  0  0  0  0
    1.1917   -1.2747    4.3578 C   0  0  0  0  0  0  0  0  0  0  0  0
    2.3817   -1.1145    3.6389 C   0  0  0  0  0  0  0  0  0  0  0  0
    3.5205   -0.5782    4.2634 C   0  0  0  0  0  0  0  0  0  0  0  0
    4.7894   -0.3605    3.4987 C   0  0  0  0  0  0  0  0  0  0  0  0
    3.4465   -0.1827    5.6029 C   0  0  0  0  0  0  0  0  0  0  0  0
    2.2615   -0.3386    6.3204 C   0  0  0  0  0  0  0  0  0  0  0  0
   -1.9990   -2.3311    5.5974 C   0  0  0  0  0  0  0  0  0  0  0  0
   -1.3383   -3.8408    5.2848 S   0  0  0  0  0  0  0  0  0  0  0  0
   -1.9020    1.3613    5.2968 C   0  0  0  0  0  0  0  0  0  0  0  0
   -2.7324    2.4297    4.8514 C   0  0  0  0  0  0  0  0  0  0  0  0
   -4.1897    2.5350    5.0864 C   0  0  0  0  0  0  0  0  0  0  0  0
   -4.7130    2.2377    6.3561 C   0  0  0  0  0  0  0  0  0  0  0  0
   -6.0758    2.3986    6.6159 C   0  0  0  0  0  0  0  0  0  0  0  0
   -6.9230    2.8948    5.6244 C   0  0  0  0  0  0  0  0  0  0  0  0
   -6.4141    3.2244    4.3604 C   0  0  0  0  0  0  0  0  0  0  0  0
   -7.3190    3.7808    3.2955 C   0  0  0  0  0  0  0  0  0  0  0  0
   -7.9485    2.6619    2.4829 C   0  0  0  0  0  0  0  0  0  0  0  0
   -5.0558    3.0068    4.0834 C   0  0  0  0  0  0  0  0  0  0  0  0
   -1.9738    3.4150    4.1794 C   0  0  0  0  0  0  0  0  0  0  0  0
   -2.3585    4.6935    3.0928 S   0  0  0  0  0  0  0  0  0  0  0  0
   -0.7301    4.8341    2.5964 C   0  0  0  0  0  0  0  0  0  0  0  0
    0.0075    5.3309    1.5449 C   0  0  0  0  0  0  0  0  0  0  0  0
   -0.2718    6.2654    0.5394 C   0  0  0  0  0  0  0  0  0  0  0  0
    0.7366    6.5388   -0.4409 C   0  0  0  0  0  0  0  0  0  0  0  0
    0.4217    7.4293   -1.4145 N   0  0  0  0  0  0  0  0  0  0  0  0
   -1.1203    7.8143   -0.9458 S   0  0  0  0  0  0  0  0  0  0  0  0
   -1.4459    6.9277    0.4195 N   0  0  0  0  0  0  0  0  0  0  0  0
    1.9380    5.8063   -0.4046 C   0  0  0  0  0  0  0  0  0  0  0  0
    2.8804    5.6175   -1.3798 C   0  0  0  0  0  0  0  0  0  0  0  0
    3.0484    6.0778   -3.0108 S   0  0  0  0  0  0  0  0  0  0  0  0
    3.9976    4.6990   -3.3415 C   0  0  0  0  0  0  0  0  0  0  0  0
    4.4341    4.1122   -4.5359 C   0  0  0  0  0  0  0  0  0  0  0  0
    4.4323    4.7853   -5.8453 C   0  0  0  0  0  0  0  0  0  0  0  0
    3.7083    4.2486   -6.9213 C   0  0  0  0  0  0  0  0  0  0  0  0
    3.8082    4.8246   -8.1897 C   0  0  0  0  0  0  0  0  0  0  0  0
    4.6449    5.9230   -8.3972 C   0  0  0  0  0  0  0  0  0  0  0  0
    5.3718    6.4720   -7.3294 C   0  0  0  0  0  0  0  0  0  0  0  0
    6.3439    7.5944   -7.5714 C   0  0  0  0  0  0  0  0  0  0  0  0
    7.7494    7.0491   -7.8244 C   0  0  0  0  0  0  0  0  0  0  0  0
    5.2593    5.8988   -6.0517 C   0  0  0  0  0  0  0  0  0  0  0  0
    4.8332    2.7781   -4.3244 C   0  0  0  0  0  0  0  0  0  0  0  0
    4.6360    2.3674   -2.6909 S   0  0  0  0  0  0  0  0  0  0  0  0
    4.0942    3.8884   -2.2364 C   0  0  0  0  0  0  0  0  0  0  0  0
    3.4982    4.4345   -1.1033 C   0  0  0  0  0  0  0  0  0  0  0  0
    3.0672    3.8681    0.0528 N   0  0  0  0  0  0  0  0  0  0  0  0
    2.1443    4.7726    0.5243 C   0  0  0  0  0  0  0  0  0  0  0  0
    1.2222    4.6317    1.5917 C   0  0  0  0  0  0  0  0  0  0  0  0
    1.2844    3.8209    2.6884 N   0  0  0  0  0  0  0  0  0  0  0  0
    0.0605    3.9490    3.2426 C   0  0  0  0  0  0  0  0  0  0  0  0
   -0.6304    3.1674    4.1440 C   0  0  0  0  0  0  0  0  0  0  0  0
   -0.2942    1.7197    4.8643 S   0  0  0  0  0  0  0  0  0  0  0  0
    2.4872    3.3354    3.3820 C   0  0  0  0  0  0  0  0  0  0  0  0
    2.6674    4.0236    4.7358 C   0  0  0  0  0  0  0  0  0  0  0  0
    3.1372    2.4284    0.3343 C   0  0  0  0  0  0  0  0  0  0  0  0
    4.5547    2.0016    0.7179 C   0  0  0  0  0  0  0  0  0  0  0  0
    5.2636    1.8240   -5.3590 C   0  0  0  0  0  0  0  0  0  0  0  0
    4.5424    0.6305   -5.5384 C   0  0  0  0  0  0  0  0  0  0  0  0
    4.9192   -0.2965   -6.5260 C   0  0  0  0  0  0  0  0  0  0  0  0
    4.1832   -1.4311   -6.6811 F   0  0  0  0  0  0  0  0  0  0  0  0
    6.0325   -0.0557   -7.3560 C   0  0  0  0  0  0  0  0  0  0  0  0
    6.7892    1.1151   -7.1442 C   0  0  0  0  0  0  0  0  0  0  0  0
    6.4007    2.0530   -6.1421 C   0  0  0  0  0  0  0  0  0  0  0  0
    7.1924    3.1458   -5.9956 N   0  0  0  0  0  0  0  0  0  0  0  0
    8.3362    2.8601   -7.1517 S   0  0  0  0  0  0  0  0  0  0  0  0
    7.9235    1.4113   -7.8343 N   0  0  0  0  0  0  0  0  0  0  0  0
    6.4309   -1.0724   -8.3492 C   0  0  0  0  0  0  0  0  0  0  0  0
    6.5868   -0.8075   -9.6594 C   0  0  0  0  0  0  0  0  0  0  0  0
    6.4103    0.4960  -10.3047 C   0  0  0  0  0  0  0  0  0  0  0  0
    5.6763    1.4386   -9.8951 O   0  0  0  0  0  0  0  0  0  0  0  0
    7.2044    0.5094  -11.5089 C   0  0  0  0  0  0  0  0  0  0  0  0
    7.5029    1.6009  -12.3198 C   0  0  0  0  0  0  0  0  0  0  0  0
    8.4567    1.4393  -13.3397 C   0  0  0  0  0  0  0  0  0  0  0  0
    8.8006    2.5169  -14.1709 C   0  0  0  0  0  0  0  0  0  0  0  0
    9.7867    2.3632  -15.1505 C   0  0  0  0  0  0  0  0  0  0  0  0
   10.4283    1.1327  -15.3161 C   0  0  0  0  0  0  0  0  0  0  0  0
   11.3914    0.9948  -16.2633 F   0  0  0  0  0  0  0  0  0  0  0  0
   10.0873    0.0458  -14.5077 C   0  0  0  0  0  0  0  0  0  0  0  0
    9.1049    0.1829  -13.5119 C   0  0  0  0  0  0  0  0  0  0  0  0
    8.7785   -0.9037  -12.6716 C   0  0  0  0  0  0  0  0  0  0  0  0
    7.7983   -0.7280  -11.6878 C   0  0  0  0  0  0  0  0  0  0  0  0
    7.3105   -1.6648  -10.6394 C   0  0  0  0  0  0  0  0  0  0  0  0
    7.2933   -3.0186  -10.7017 C   0  0  0  0  0  0  0  0  0  0  0  0
    7.9388   -3.7379  -11.7668 C   0  0  0  0  0  0  0  0  0  0  0  0
    8.4764   -4.3290  -12.6066 N   0  0  0  0  0  0  0  0  0  0  0  0
    6.5282   -3.8160   -9.7759 C   0  0  0  0  0  0  0  0  0  0  0  0
    5.9146   -4.4643   -9.0312 N   0  0  0  0  0  0  0  0  0  0  0  0
   -3.2161   -6.5727    4.3277 H   0  0  0  0  0  0  0  0  0  0  0  0
   -2.8537   -2.3140   -0.2431 H   0  0  0  0  0  0  0  0  0  0  0  0
   -3.4986   -1.6017   -2.5299 H   0  0  0  0  0  0  0  0  0  0  0  0
   -4.4101   -2.1498   -4.7532 H   0  0  0  0  0  0  0  0  0  0  0  0
   -4.9819   -6.2340   -3.5766 H   0  0  0  0  0  0  0  0  0  0  0  0
   -4.4136   -6.9349   -1.2955 H   0  0  0  0  0  0  0  0  0  0  0  0
   -6.5965   -5.6413    3.2476 H   0  0  0  0  0  0  0  0  0  0  0  0
   -7.0909   -7.9824    3.8226 H   0  0  0  0  0  0  0  0  0  0  0  0
   -6.8073   -9.4022    7.1924 H   0  0  0  0  0  0  0  0  0  0  0  0
   -5.4994   -9.8556    6.0284 H   0  0  0  0  0  0  0  0  0  0  0  0
   -7.2195   -9.7563    5.4733 H   0  0  0  0  0  0  0  0  0  0  0  0
   -5.2868   -7.4008    7.7039 H   0  0  0  0  0  0  0  0  0  0  0  0
   -4.8060   -5.0610    7.1208 H   0  0  0  0  0  0  0  0  0  0  0  0
   -7.6672   -3.3937    5.8076 H   0  0  0  0  0  0  0  0  0  0  0  0
   -9.4583   -2.0218    4.8400 H   0  0  0  0  0  0  0  0  0  0  0  0
  -10.1798   -1.3190    2.2113 H   0  0  0  0  0  0  0  0  0  0  0  0
   -9.8603    0.0912    3.2905 H   0  0  0  0  0  0  0  0  0  0  0  0
   -9.0703   -0.0079    1.6640 H   0  0  0  0  0  0  0  0  0  0  0  0
   -6.8250   -0.8496    1.6299 H   0  0  0  0  0  0  0  0  0  0  0  0
   -5.0335   -2.2497    2.5896 H   0  0  0  0  0  0  0  0  0  0  0  0
   -1.2600    0.5027    8.3803 H   0  0  0  0  0  0  0  0  0  0  0  0
   -1.2633    0.0345   10.7999 H   0  0  0  0  0  0  0  0  0  0  0  0
   -1.0668   -2.6579   12.3229 H   0  0  0  0  0  0  0  0  0  0  0  0
    0.7391   -2.6974   12.3947 H   0  0  0  0  0  0  0  0  0  0  0  0
   -0.1344   -1.1535   12.6895 H   0  0  0  0  0  0  0  0  0  0  0  0
    1.0151   -3.5616   10.0975 H   0  0  0  0  0  0  0  0  0  0  0  0
    1.0249   -3.0780    7.6792 H   0  0  0  0  0  0  0  0  0  0  0  0
    0.3237   -1.6852    3.8550 H   0  0  0  0  0  0  0  0  0  0  0  0
    2.4136   -1.4019    2.5953 H   0  0  0  0  0  0  0  0  0  0  0  0
    5.6611   -0.6799    4.1056 H   0  0  0  0  0  0  0  0  0  0  0  0
    4.7914   -0.9357    2.5490 H   0  0  0  0  0  0  0  0  0  0  0  0
    4.8925    0.7194    3.2764 H   0  0  0  0  0  0  0  0  0  0  0  0
    4.3081    0.2677    6.0878 H   0  0  0  0  0  0  0  0  0  0  0  0
    2.2242    0.0087    7.3465 H   0  0  0  0  0  0  0  0  0  0  0  0
   -4.0632    1.8829    7.1466 H   0  0  0  0  0  0  0  0  0  0  0  0
   -6.4727    2.1516    7.5943 H   0  0  0  0  0  0  0  0  0  0  0  0
   -7.9732    3.0338    5.8462 H   0  0  0  0  0  0  0  0  0  0  0  0
   -8.1224    4.3968    3.7572 H   0  0  0  0  0  0  0  0  0  0  0  0
   -6.7439    4.4538    2.6170 H   0  0  0  0  0  0  0  0  0  0  0  0
   -7.1650    2.0275    2.0197 H   0  0  0  0  0  0  0  0  0  0  0  0
   -8.5838    3.0910    1.6812 H   0  0  0  0  0  0  0  0  0  0  0  0
   -8.5796    2.0413    3.1503 H   0  0  0  0  0  0  0  0  0  0  0  0
   -4.6821    3.2060    3.0869 H   0  0  0  0  0  0  0  0  0  0  0  0
    3.0786    3.3744   -6.7812 H   0  0  0  0  0  0  0  0  0  0  0  0
    3.2527    4.4032   -9.0190 H   0  0  0  0  0  0  0  0  0  0  0  0
    4.7351    6.3416   -9.3932 H   0  0  0  0  0  0  0  0  0  0  0  0
    6.0229    8.1947   -8.4479 H   0  0  0  0  0  0  0  0  0  0  0  0
    6.3643    8.2749   -6.6939 H   0  0  0  0  0  0  0  0  0  0  0  0
    8.4416    7.8912   -8.0137 H   0  0  0  0  0  0  0  0  0  0  0  0
    7.7502    6.3845   -8.7130 H   0  0  0  0  0  0  0  0  0  0  0  0
    8.1100    6.4824   -6.9396 H   0  0  0  0  0  0  0  0  0  0  0  0
    5.8538    6.2841   -5.2302 H   0  0  0  0  0  0  0  0  0  0  0  0
    3.3881    3.5894    2.7945 H   0  0  0  0  0  0  0  0  0  0  0  0
    2.4218    2.2377    3.5219 H   0  0  0  0  0  0  0  0  0  0  0  0
    1.8457    3.7478    5.4257 H   0  0  0  0  0  0  0  0  0  0  0  0
    3.6303    3.7071    5.1897 H   0  0  0  0  0  0  0  0  0  0  0  0
    2.6782    5.1262    4.6005 H   0  0  0  0  0  0  0  0  0  0  0  0
    2.8191    1.8607   -0.5710 H   0  0  0  0  0  0  0  0  0  0  0  0
    2.4220    2.1207    1.1158 H   0  0  0  0  0  0  0  0  0  0  0  0
    4.8766    2.4702    1.6709 H   0  0  0  0  0  0  0  0  0  0  0  0
    4.5899    0.8991    0.8199 H   0  0  0  0  0  0  0  0  0  0  0  0
    5.2874    2.3014   -0.0532 H   0  0  0  0  0  0  0  0  0  0  0  0
    3.6553    0.4362   -4.9473 H   0  0  0  0  0  0  0  0  0  0  0  0
    6.6662   -2.0476   -7.9546 H   0  0  0  0  0  0  0  0  0  0  0  0
    7.0251    2.5556  -12.1422 H   0  0  0  0  0  0  0  0  0  0  0  0
    8.3211    3.4824  -14.0526 H   0  0  0  0  0  0  0  0  0  0  0  0
   10.0674    3.2028  -15.7706 H   0  0  0  0  0  0  0  0  0  0  0  0
   10.5931   -0.9041  -14.6560 H   0  0  0  0  0  0  0  0  0  0  0  0
    9.3296   -1.8281  -12.7591 H   0  0  0  0  0  0  0  0  0  0  0  0
  1  2  2  3
  2  3  1  0
  3  4  2  0
  3  5  1  0
  5  6  2  0
  6  7  1  0
  7  8  2  0
  8  9  1  0
  9 10  2  0
 10 11  1  0
 10 12  1  0
 12 13  2  0
 13 14  1  0
 14 15  2  0
 15 16  1  0
 16 17  2  3
 17 18  1  0
 18 19  3  0
 17 20  1  0
 20 21  3  0
  1 22  1  0
 22 23  2  0
 23 24  1  0
 24 25  1  0
 25 26  2  0
 26 27  1  0
 27 28  2  0
 28 29  1  0
 28 30  1  0
 30 31  2  0
 24 32  1  0
 32 33  2  0
 33 34  1  0
 34 35  2  0
 35 36  1  0
 35 37  1  0
 37 38  2  0
 23 39  1  0
 39 40  1  0
 40 41  1  0
 41 42  2  0
 42 43  1  0
 43 44  1  0
 44 45  2  0
 45 46  1  0
 46 47  2  0
 47 48  1  0
 47 49  1  0
 49 50  2  0
 43 51  1  0
 51 52  2  0
 52 53  1  0
 53 54  2  0
 54 55  1  0
 54 56  1  0
 56 57  2  0
 42 58  1  0
 58 59  1  0
 41 60  1  0
 60 61  2  0
 61 62  1  0
 62 63  2  0
 63 64  1  0
 64 65  2  0
 65 66  1  0
 66 67  1  0
 67 68  1  0
 66 69  2  0
 61 70  1  0
 70 71  1  0
 71 72  1  0
 72 73  1  0
 73 74  1  0
 74 75  1  0
 75 76  2  0
 76 77  1  0
 77 78  1  0
 75 79  1  0
 79 80  1  0
 80 81  1  0
 81 82  1  0
 82 83  1  0
 83 84  1  0
 84 85  2  0
 85 86  1  0
 86 87  2  0
 87 88  1  0
 88 89  1  0
 89 90  1  0
 88 91  2  0
 83 92  2  0
 92 93  1  0
 93 94  1  0
 94 95  1  0
 95 96  1  0
 96 97  1  0
 97 98  1  0
 98 99  1  0
 99100  1  0
100101  1  0
101102  1  0
 99103  1  0
103104  1  0
 96105  1  0
105106  1  0
 92107  1  0
107108  2  0
108109  1  0
109110  1  0
109111  2  0
111112  1  0
112113  1  0
113114  2  0
114115  1  0
115116  1  0
111117  1  0
117118  2  3
118119  1  0
119120  2  0
119121  1  0
121122  2  0
122123  1  0
123124  2  0
124125  1  0
125126  2  0
126127  1  0
126128  1  0
128129  2  0
129130  1  0
130131  2  0
131132  1  0
132133  2  3
133134  1  0
134135  3  0
133136  1  0
136137  3  0
 16  2  1  0
 59 22  1  0
102 60  1  0
113107  1  0
132118  1  0
 15  5  1  0
 31 25  1  0
 38 32  1  0
 58 39  2  0
 69 62  1  0
101 70  2  0
116112  2  0
131121  1  0
 13  7  1  0
 50 44  1  0
 57 51  1  0
100 72  2  0
129123  1  0
 98 73  2  0
 78 74  2  0
 97 79  2  0
 95 80  2  0
 94 82  2  0
 91 84  1  0
  1138  1  0
  6139  1  0
  8140  1  0
  9141  1  0
 12142  1  0
 14143  1  0
 26144  1  0
 27145  1  0
 29146  1  0
 29147  1  0
 29148  1  0
 30149  1  0
 31150  1  0
 33151  1  0
 34152  1  0
 36153  1  0
 36154  1  0
 36155  1  0
 37156  1  0
 38157  1  0
 45158  1  0
 46159  1  0
 48160  1  0
 48161  1  0
 48162  1  0
 49163  1  0
 50164  1  0
 52165  1  0
 53166  1  0
 55167  1  0
 55168  1  0
 55169  1  0
 56170  1  0
 57171  1  0
 63172  1  0
 64173  1  0
 65174  1  0
 67175  1  0
 67176  1  0
 68177  1  0
 68178  1  0
 68179  1  0
 69180  1  0
 85181  1  0
 86182  1  0
 87183  1  0
 89184  1  0
 89185  1  0
 90186  1  0
 90187  1  0
 90188  1  0
 91189  1  0
103190  1  0
103191  1  0
104192  1  0
104193  1  0
104194  1  0
105195  1  0
105196  1  0
106197  1  0
106198  1  0
106199  1  0
108200  1  0
117201  1  0
122202  1  0
124203  1  0
125204  1  0
128205  1  0
130206  1  0
M  END

