
     RDKit          3D

203224  0  0  0  0  0  0  0  0999 V2000
    7.4978   -1.4253    0.5974 C   0  0  0  0  0  0  0  0  0  0  0  0
    7.4203   -2.7652    0.6838 C   0  0  0  0  0  0  0  0  0  0  0  0
    6.1958   -3.5760    0.6170 C   0  0  0  0  0  0  0  0  0  0  0  0
    5.0244   -3.1836    0.8491 O   0  0  0  0  0  0  0  0  0  0  0  0
    6.5737   -4.9422    0.3096 C   0  0  0  0  0  0  0  0  0  0  0  0
    5.7412   -6.0169   -0.0004 C   0  0  0  0  0  0  0  0  0  0  0  0
    6.3302   -7.2273   -0.4040 C   0  0  0  0  0  0  0  0  0  0  0  0
    5.5331   -8.3281   -0.7560 C   0  0  0  0  0  0  0  0  0  0  0  0
    6.1274   -9.5151   -1.1902 C   0  0  0  0  0  0  0  0  0  0  0  0
    7.5189   -9.6190   -1.2763 C   0  0  0  0  0  0  0  0  0  0  0  0
    8.0858  -10.7743   -1.7044 F   0  0  0  0  0  0  0  0  0  0  0  0
    8.3265   -8.5340   -0.9305 C   0  0  0  0  0  0  0  0  0  0  0  0
    7.7474   -7.3309   -0.4938 C   0  0  0  0  0  0  0  0  0  0  0  0
    8.5596   -6.2278   -0.1655 C   0  0  0  0  0  0  0  0  0  0  0  0
    7.9535   -5.0373    0.2643 C   0  0  0  0  0  0  0  0  0  0  0  0
    8.5636   -3.7289    0.6356 C   0  0  0  0  0  0  0  0  0  0  0  0
    9.8326   -3.5190    1.0687 C   0  0  0  0  0  0  0  0  0  0  0  0
   10.8111   -4.5730    1.1257 C   0  0  0  0  0  0  0  0  0  0  0  0
   11.6111   -5.4092    1.1798 N   0  0  0  0  0  0  0  0  0  0  0  0
   10.2582   -2.2736    1.6505 C   0  0  0  0  0  0  0  0  0  0  0  0
   10.6129   -1.2771    2.1215 N   0  0  0  0  0  0  0  0  0  0  0  0
    6.3503   -0.5191    0.4242 C   0  0  0  0  0  0  0  0  0  0  0  0
    6.1973    0.7027    1.0965 C   0  0  0  0  0  0  0  0  0  0  0  0
    6.9257    1.0777    2.2764 N   0  0  0  0  0  0  0  0  0  0  0  0
    6.6271    0.4662    3.5611 C   0  0  0  0  0  0  0  0  0  0  0  0
    7.3247    0.8525    4.7276 C   0  0  0  0  0  0  0  0  0  0  0  0
    7.0174    0.2857    5.9677 C   0  0  0  0  0  0  0  0  0  0  0  0
    6.0161   -0.6899    6.0725 C   0  0  0  0  0  0  0  0  0  0  0  0
    5.7082   -1.3260    7.3947 C   0  0  0  0  0  0  0  0  0  0  0  0
    5.3328   -1.0993    4.9204 C   0  0  0  0  0  0  0  0  0  0  0  0
    5.6309   -0.5286    3.6825 C   0  0  0  0  0  0  0  0  0  0  0  0
    7.7869    2.2239    2.1694 C   0  0  0  0  0  0  0  0  0  0  0  0
    9.0192    2.1200    1.5111 C   0  0  0  0  0  0  0  0  0  0  0  0
    9.8588    3.2321    1.4078 C   0  0  0  0  0  0  0  0  0  0  0  0
    9.4699    4.4650    1.9551 C   0  0  0  0  0  0  0  0  0  0  0  0
   10.3457    5.6702    1.7906 C   0  0  0  0  0  0  0  0  0  0  0  0
    8.2235    4.5766    2.5899 C   0  0  0  0  0  0  0  0  0  0  0  0
    7.3918    3.4597    2.7052 C   0  0  0  0  0  0  0  0  0  0  0  0
    5.1063    1.4138    0.6130 C   0  0  0  0  0  0  0  0  0  0  0  0
    4.3103    2.8001    1.1067 S   0  0  0  0  0  0  0  0  0  0  0  0
    3.0589    2.6366   -0.0347 C   0  0  0  0  0  0  0  0  0  0  0  0
    3.2513    1.4634   -0.7822 C   0  0  0  0  0  0  0  0  0  0  0  0
    2.2395    0.8396   -1.5902 N   0  0  0  0  0  0  0  0  0  0  0  0
    1.6227   -0.3847   -1.1318 C   0  0  0  0  0  0  0  0  0  0  0  0
    1.3381   -0.5745    0.2338 C   0  0  0  0  0  0  0  0  0  0  0  0
    0.7713   -1.7733    0.6805 C   0  0  0  0  0  0  0  0  0  0  0  0
    0.4849   -2.8034   -0.2263 C   0  0  0  0  0  0  0  0  0  0  0  0
   -0.1514   -4.0781    0.2373 C   0  0  0  0  0  0  0  0  0  0  0  0
    0.7528   -2.6142   -1.5868 C   0  0  0  0  0  0  0  0  0  0  0  0
    1.3262   -1.4233   -2.0357 C   0  0  0  0  0  0  0  0  0  0  0  0
    2.0292    1.2916   -2.9401 C   0  0  0  0  0  0  0  0  0  0  0  0
    3.1178    1.4667   -3.8043 C   0  0  0  0  0  0  0  0  0  0  0  0
    2.9115    1.7554   -5.1546 C   0  0  0  0  0  0  0  0  0  0  0  0
    1.6084    1.8905   -5.6583 C   0  0  0  0  0  0  0  0  0  0  0  0
    1.3871    2.1437   -7.1165 C   0  0  0  0  0  0  0  0  0  0  0  0
    0.5172    1.7096   -4.7958 C   0  0  0  0  0  0  0  0  0  0  0  0
    0.7254    1.4210   -3.4439 C   0  0  0  0  0  0  0  0  0  0  0  0
    4.4201    0.8159   -0.3916 C   0  0  0  0  0  0  0  0  0  0  0  0
    5.1331   -0.6574   -0.7682 S   0  0  0  0  0  0  0  0  0  0  0  0
    1.8537    3.4646   -0.0164 C   0  0  0  0  0  0  0  0  0  0  0  0
    1.4201    4.3666   -1.0162 C   0  0  0  0  0  0  0  0  0  0  0  0
    2.1396    4.6466   -2.2858 C   0  0  0  0  0  0  0  0  0  0  0  0
    1.4321    4.8026   -3.4914 C   0  0  0  0  0  0  0  0  0  0  0  0
    2.1120    4.9954   -4.6931 C   0  0  0  0  0  0  0  0  0  0  0  0
    3.5106    5.0146   -4.7172 C   0  0  0  0  0  0  0  0  0  0  0  0
    4.2350    4.8729   -3.5267 C   0  0  0  0  0  0  0  0  0  0  0  0
    5.7415    4.8268   -3.5511 C   0  0  0  0  0  0  0  0  0  0  0  0
    6.2489    3.3931   -3.4358 C   0  0  0  0  0  0  0  0  0  0  0  0
    3.5462    4.7146   -2.3132 C   0  0  0  0  0  0  0  0  0  0  0  0
    0.1931    4.9396   -0.6404 C   0  0  0  0  0  0  0  0  0  0  0  0
   -0.9552    5.9475   -1.4206 S   0  0  0  0  0  0  0  0  0  0  0  0
   -2.0529    5.7490   -0.1451 C   0  0  0  0  0  0  0  0  0  0  0  0
   -3.3818    5.9348    0.1268 C   0  0  0  0  0  0  0  0  0  0  0  0
   -4.3891    6.6378   -0.5321 C   0  0  0  0  0  0  0  0  0  0  0  0
   -5.7263    6.5301   -0.0423 C   0  0  0  0  0  0  0  0  0  0  0  0
   -6.6804    7.2159   -0.7241 N   0  0  0  0  0  0  0  0  0  0  0  0
   -5.7440    7.9233   -1.8901 S   0  0  0  0  0  0  0  0  0  0  0  0
   -4.1895    7.4180   -1.6205 N   0  0  0  0  0  0  0  0  0  0  0  0
   -5.9957    5.6657    1.0334 C   0  0  0  0  0  0  0  0  0  0  0  0
   -7.1789    5.0510    1.3551 C   0  0  0  0  0  0  0  0  0  0  0  0
   -8.6108    4.8988    0.4570 S   0  0  0  0  0  0  0  0  0  0  0  0
   -8.8498    3.3003    0.9669 C   0  0  0  0  0  0  0  0  0  0  0  0
   -9.6159    2.2571    0.4172 C   0  0  0  0  0  0  0  0  0  0  0  0
  -10.6696    2.4425   -0.5996 C   0  0  0  0  0  0  0  0  0  0  0  0
  -10.4108    3.1478   -1.7873 C   0  0  0  0  0  0  0  0  0  0  0  0
  -11.4282    3.3345   -2.7275 C   0  0  0  0  0  0  0  0  0  0  0  0
  -12.7048    2.8265   -2.4910 C   0  0  0  0  0  0  0  0  0  0  0  0
  -12.9782    2.1180   -1.3119 C   0  0  0  0  0  0  0  0  0  0  0  0
  -14.3530    1.5493   -1.0751 C   0  0  0  0  0  0  0  0  0  0  0  0
  -14.4028    0.0707   -1.4476 C   0  0  0  0  0  0  0  0  0  0  0  0
  -11.9519    1.9127   -0.3775 C   0  0  0  0  0  0  0  0  0  0  0  0
   -9.1634    1.0012    0.8687 C   0  0  0  0  0  0  0  0  0  0  0  0
   -7.8462    1.2430    1.9083 S   0  0  0  0  0  0  0  0  0  0  0  0
   -7.8371    2.9121    1.8092 C   0  0  0  0  0  0  0  0  0  0  0  0
   -6.8589    3.8925    2.0079 C   0  0  0  0  0  0  0  0  0  0  0  0
   -5.5147    3.7536    2.1871 N   0  0  0  0  0  0  0  0  0  0  0  0
   -4.9841    4.8944    1.6304 C   0  0  0  0  0  0  0  0  0  0  0  0
   -3.6390    5.1443    1.2550 C   0  0  0  0  0  0  0  0  0  0  0  0
   -2.4897    4.5948    1.7462 N   0  0  0  0  0  0  0  0  0  0  0  0
   -1.5636    4.9592    0.8362 C   0  0  0  0  0  0  0  0  0  0  0  0
   -0.2878    4.5118    0.5726 C   0  0  0  0  0  0  0  0  0  0  0  0
    0.7325    3.3844    1.2610 S   0  0  0  0  0  0  0  0  0  0  0  0
   -2.1939    4.2996    3.1554 C   0  0  0  0  0  0  0  0  0  0  0  0
   -1.6176    5.5312    3.8550 C   0  0  0  0  0  0  0  0  0  0  0  0
   -4.8357    2.4511    2.3445 C   0  0  0  0  0  0  0  0  0  0  0  0
   -5.0430    1.8749    3.7475 C   0  0  0  0  0  0  0  0  0  0  0  0
   -9.2710   -0.2624    0.1270 C   0  0  0  0  0  0  0  0  0  0  0  0
   -8.8917   -0.3582   -1.2103 C   0  0  0  0  0  0  0  0  0  0  0  0
   -8.3481   -1.6013   -1.5581 C   0  0  0  0  0  0  0  0  0  0  0  0
   -7.5179   -1.8673   -3.1241 S   0  0  0  0  0  0  0  0  0  0  0  0
   -9.0227   -2.4109   -3.9908 C   0  0  0  0  0  0  0  0  0  0  0  0
   -8.7004   -2.6960   -5.4498 C   0  0  0  0  0  0  0  0  0  0  0  0
   -8.3191   -2.5136   -0.5072 C   0  0  0  0  0  0  0  0  0  0  0  0
   -8.9420   -1.7506    0.8455 S   0  0  0  0  0  0  0  0  0  0  0  0
   -7.4896   -3.7211   -0.4404 C   0  0  0  0  0  0  0  0  0  0  0  0
   -6.2234   -3.6966    0.0337 C   0  0  0  0  0  0  0  0  0  0  0  0
   -5.5200   -2.5077    0.5427 C   0  0  0  0  0  0  0  0  0  0  0  0
   -5.8226   -1.3044    0.3313 O   0  0  0  0  0  0  0  0  0  0  0  0
   -4.4104   -2.9498    1.3592 C   0  0  0  0  0  0  0  0  0  0  0  0
   -3.5355   -2.1738    2.1159 C   0  0  0  0  0  0  0  0  0  0  0  0
   -2.5746   -2.8215    2.9051 C   0  0  0  0  0  0  0  0  0  0  0  0
   -1.4753   -1.8455    3.8628 Cl  0  0  0  0  0  0  0  0  0  0  0  0
   -2.5139   -4.2340    2.9317 C   0  0  0  0  0  0  0  0  0  0  0  0
   -1.2336   -5.1608    4.0151 Br  0  0  0  0  0  0  0  0  0  0  0  0
   -3.4113   -4.9916    2.1610 C   0  0  0  0  0  0  0  0  0  0  0  0
   -4.3507   -4.3340    1.3460 C   0  0  0  0  0  0  0  0  0  0  0  0
   -5.3921   -4.8732    0.4222 C   0  0  0  0  0  0  0  0  0  0  0  0
   -5.4449   -6.1152   -0.1181 C   0  0  0  0  0  0  0  0  0  0  0  0
   -6.2873   -6.4242   -1.2426 C   0  0  0  0  0  0  0  0  0  0  0  0
   -6.9537   -6.6833   -2.1519 N   0  0  0  0  0  0  0  0  0  0  0  0
   -4.6208   -7.2021    0.3445 C   0  0  0  0  0  0  0  0  0  0  0  0
   -3.9745   -8.0922    0.7096 N   0  0  0  0  0  0  0  0  0  0  0  0
    8.4510   -0.9418    0.5761 H   0  0  0  0  0  0  0  0  0  0  0  0
    4.6647   -5.9041    0.0416 H   0  0  0  0  0  0  0  0  0  0  0  0
    4.4527   -8.2651   -0.7052 H   0  0  0  0  0  0  0  0  0  0  0  0
    5.5071  -10.3560   -1.4695 H   0  0  0  0  0  0  0  0  0  0  0  0
    9.4035   -8.6300   -1.0074 H   0  0  0  0  0  0  0  0  0  0  0  0
    9.6264   -6.2981   -0.3017 H   0  0  0  0  0  0  0  0  0  0  0  0
    8.1064    1.5996    4.6882 H   0  0  0  0  0  0  0  0  0  0  0  0
    7.5637    0.6082    6.8475 H   0  0  0  0  0  0  0  0  0  0  0  0
    6.1732   -2.3325    7.4408 H   0  0  0  0  0  0  0  0  0  0  0  0
    6.0928   -0.7118    8.2370 H   0  0  0  0  0  0  0  0  0  0  0  0
    4.6102   -1.4299    7.5192 H   0  0  0  0  0  0  0  0  0  0  0  0
    4.5661   -1.8648    4.9844 H   0  0  0  0  0  0  0  0  0  0  0  0
    5.0669   -0.8673    2.8222 H   0  0  0  0  0  0  0  0  0  0  0  0
    9.3324    1.1758    1.0855 H   0  0  0  0  0  0  0  0  0  0  0  0
   10.8100    3.1332    0.9015 H   0  0  0  0  0  0  0  0  0  0  0  0
   10.1631    6.4108    2.5990 H   0  0  0  0  0  0  0  0  0  0  0  0
   11.4159    5.3776    1.8307 H   0  0  0  0  0  0  0  0  0  0  0  0
   10.1389    6.1515    0.8114 H   0  0  0  0  0  0  0  0  0  0  0  0
    7.8928    5.5261    2.9930 H   0  0  0  0  0  0  0  0  0  0  0  0
    6.4354    3.5524    3.2048 H   0  0  0  0  0  0  0  0  0  0  0  0
    1.5563    0.2012    0.9565 H   0  0  0  0  0  0  0  0  0  0  0  0
    0.5628   -1.8975    1.7347 H   0  0  0  0  0  0  0  0  0  0  0  0
    0.3182   -4.9482   -0.2701 H   0  0  0  0  0  0  0  0  0  0  0  0
   -0.0197   -4.2122    1.3329 H   0  0  0  0  0  0  0  0  0  0  0  0
   -1.2367   -4.0614    0.0028 H   0  0  0  0  0  0  0  0  0  0  0  0
    0.5311   -3.3974   -2.3029 H   0  0  0  0  0  0  0  0  0  0  0  0
    1.5504   -1.3205   -3.0890 H   0  0  0  0  0  0  0  0  0  0  0  0
    4.1279    1.3382   -3.4381 H   0  0  0  0  0  0  0  0  0  0  0  0
    3.7637    1.8775   -5.8068 H   0  0  0  0  0  0  0  0  0  0  0  0
    0.4111    2.6445   -7.2867 H   0  0  0  0  0  0  0  0  0  0  0  0
    1.3971    1.1789   -7.6684 H   0  0  0  0  0  0  0  0  0  0  0  0
    2.1855    2.8015   -7.5235 H   0  0  0  0  0  0  0  0  0  0  0  0
   -0.4988    1.7850   -5.1684 H   0  0  0  0  0  0  0  0  0  0  0  0
   -0.1264    1.2700   -2.7904 H   0  0  0  0  0  0  0  0  0  0  0  0
    0.3572    4.7101   -3.5189 H   0  0  0  0  0  0  0  0  0  0  0  0
    1.5581    5.0917   -5.6188 H   0  0  0  0  0  0  0  0  0  0  0  0
    4.0226    5.1220   -5.6643 H   0  0  0  0  0  0  0  0  0  0  0  0
    6.1324    5.2743   -4.4913 H   0  0  0  0  0  0  0  0  0  0  0  0
    6.1423    5.4244   -2.7051 H   0  0  0  0  0  0  0  0  0  0  0  0
    5.8634    2.9218   -2.5077 H   0  0  0  0  0  0  0  0  0  0  0  0
    5.9251    2.8031   -4.3179 H   0  0  0  0  0  0  0  0  0  0  0  0
    7.3598    3.3915   -3.3969 H   0  0  0  0  0  0  0  0  0  0  0  0
    4.1125    4.6348   -1.3955 H   0  0  0  0  0  0  0  0  0  0  0  0
   -9.4191    3.5285   -1.9981 H   0  0  0  0  0  0  0  0  0  0  0  0
  -11.2210    3.8734   -3.6430 H   0  0  0  0  0  0  0  0  0  0  0  0
  -13.4808    2.9768   -3.2314 H   0  0  0  0  0  0  0  0  0  0  0  0
  -14.6359    1.6672   -0.0070 H   0  0  0  0  0  0  0  0  0  0  0  0
  -15.1049    2.0977   -1.6807 H   0  0  0  0  0  0  0  0  0  0  0  0
  -15.4545   -0.2800   -1.4302 H   0  0  0  0  0  0  0  0  0  0  0  0
  -13.9939   -0.0840   -2.4687 H   0  0  0  0  0  0  0  0  0  0  0  0
  -13.8141   -0.5241   -0.7199 H   0  0  0  0  0  0  0  0  0  0  0  0
  -12.1508    1.3497    0.5267 H   0  0  0  0  0  0  0  0  0  0  0  0
   -3.1136    4.0240    3.6955 H   0  0  0  0  0  0  0  0  0  0  0  0
   -1.4712    3.4612    3.2243 H   0  0  0  0  0  0  0  0  0  0  0  0
   -0.6723    5.8531    3.3722 H   0  0  0  0  0  0  0  0  0  0  0  0
   -2.3514    6.3636    3.8191 H   0  0  0  0  0  0  0  0  0  0  0  0
   -1.4081    5.2909    4.9183 H   0  0  0  0  0  0  0  0  0  0  0  0
   -5.2135    1.7403    1.5814 H   0  0  0  0  0  0  0  0  0  0  0  0
   -3.7562    2.5045    2.1262 H   0  0  0  0  0  0  0  0  0  0  0  0
   -4.5145    2.4726    4.5140 H   0  0  0  0  0  0  0  0  0  0  0  0
   -4.6530    0.8369    3.7773 H   0  0  0  0  0  0  0  0  0  0  0  0
   -6.1162    1.8498    4.0175 H   0  0  0  0  0  0  0  0  0  0  0  0
   -8.8461    0.4951   -1.8717 H   0  0  0  0  0  0  0  0  0  0  0  0
   -9.7926   -1.6132   -3.9382 H   0  0  0  0  0  0  0  0  0  0  0  0
   -9.4159   -3.3314   -3.5119 H   0  0  0  0  0  0  0  0  0  0  0  0
   -9.6171   -3.0157   -5.9861 H   0  0  0  0  0  0  0  0  0  0  0  0
   -8.3090   -1.7811   -5.9399 H   0  0  0  0  0  0  0  0  0  0  0  0
   -7.9373   -3.4989   -5.5288 H   0  0  0  0  0  0  0  0  0  0  0  0
   -7.9931   -4.6570   -0.6228 H   0  0  0  0  0  0  0  0  0  0  0  0
   -3.6166   -1.0937    2.1121 H   0  0  0  0  0  0  0  0  0  0  0  0
   -3.3768   -6.0611    2.2335 H   0  0  0  0  0  0  0  0  0  0  0  0
  1  2  2  3
  2  3  1  0
  3  4  2  0
  3  5  1  0
  5  6  2  0
  6  7  1  0
  7  8  2  0
  8  9  1  0
  9 10  2  0
 10 11  1  0
 10 12  1  0
 12 13  2  0
 13 14  1  0
 14 15  2  0
 15 16  1  0
 16 17  2  3
 17 18  1  0
 18 19  3  0
 17 20  1  0
 20 21  3  0
  1 22  1  0
 22 23  2  0
 23 24  1  0
 24 25  1  0
 25 26  2  0
 26 27  1  0
 27 28  2  0
 28 29  1  0
 28 30  1  0
 30 31  2  0
 24 32  1  0
 32 33  2  0
 33 34  1  0
 34 35  2  0
 35 36  1  0
 35 37  1  0
 37 38  2  0
 23 39  1  0
 39 40  1  0
 40 41  1  0
 41 42  2  0
 42 43  1  0
 43 44  1  0
 44 45  2  0
 45 46  1  0
 46 47  2  0
 47 48  1  0
 47 49  1  0
 49 50  2  0
 43 51  1  0
 51 52  2  0
 52 53  1  0
 53 54  2  0
 54 55  1  0
 54 56  1  0
 56 57  2  0
 42 58  1  0
 58 59  1  0
 41 60  1  0
 60 61  2  0
 61 62  1  0
 62 63  2  0
 63 64  1  0
 64 65  2  0
 65 66  1  0
 66 67  1  0
 67 68  1  0
 66 69  2  0
 61 70  1  0
 70 71  1  0
 71 72  1  0
 72 73  1  0
 73 74  1  0
 74 75  1  0
 75 76  2  0
 76 77  1  0
 77 78  1  0
 75 79  1  0
 79 80  1  0
 80 81  1  0
 81 82  1  0
 82 83  1  0
 83 84  1  0
 84 85  2  0
 85 86  1  0
 86 87  2  0
 87 88  1  0
 88 89  1  0
 89 90  1  0
 88 91  2  0
 83 92  2  0
 92 93  1  0
 93 94  1  0
 94 95  1  0
 95 96  1  0
 96 97  1  0
 97 98  1  0
 98 99  1  0
 99100  1  0
100101  1  0
101102  1  0
 99103  1  0
103104  1  0
 96105  1  0
105106  1  0
 92107  1  0
107108  2  0
108109  1  0
109110  1  0
110111  1  0
111112  1  0
109113  2  0
113114  1  0
113115  1  0
115116  2  3
116117  1  0
117118  2  0
117119  1  0
119120  2  0
120121  1  0
121122  1  0
121123  2  0
123124  1  0
123125  1  0
125126  2  0
126127  1  0
127128  2  3
128129  1  0
129130  3  0
128131  1  0
131132  3  0
 16  2  1  0
 59 22  1  0
102 60  1  0
114107  1  0
127116  1  0
 15  5  1  0
 31 25  1  0
 38 32  1  0
 58 39  2  0
 69 62  1  0
101 70  2  0
126119  1  0
 13  7  1  0
 50 44  1  0
 57 51  1  0
100 72  2  0
 98 73  2  0
 78 74  2  0
 97 79  2  0
 95 80  2  0
 94 82  2  0
 91 84  1  0
  1133  1  0
  6134  1  0
  8135  1  0
  9136  1  0
 12137  1  0
 14138  1  0
 26139  1  0
 27140  1  0
 29141  1  0
 29142  1  0
 29143  1  0
 30144  1  0
 31145  1  0
 33146  1  0
 34147  1  0
 36148  1  0
 36149  1  0
 36150  1  0
 37151  1  0
 38152  1  0
 45153  1  0
 46154  1  0
 48155  1  0
 48156  1  0
 48157  1  0
 49158  1  0
 50159  1  0
 52160  1  0
 53161  1  0
 55162  1  0
 55163  1  0
 55164  1  0
 56165  1  0
 57166  1  0
 63167  1  0
 64168  1  0
 65169  1  0
 67170  1  0
 67171  1  0
 68172  1  0
 68173  1  0
 68174  1  0
 69175  1  0
 85176  1  0
 86177  1  0
 87178  1  0
 89179  1  0
 89180  1  0
 90181  1  0
 90182  1  0
 90183  1  0
 91184  1  0
103185  1  0
103186  1  0
104187  1  0
104188  1  0
104189  1  0
105190  1  0
105191  1  0
106192  1  0
106193  1  0
106194  1  0
108195  1  0
111196  1  0
111197  1  0
112198  1  0
112199  1  0
112200  1  0
115201  1  0
120202  1  0
125203  1  0
M  END

