
     RDKit          3D

209231  0  0  0  0  0  0  0  0999 V2000
    0.0719   -1.1947   -5.7825 C   0  0  0  0  0  0  0  0  0  0  0  0
    1.2876   -1.1024   -5.2074 C   0  0  0  0  0  0  0  0  0  0  0  0
    1.5063   -0.8361   -3.7853 C   0  0  0  0  0  0  0  0  0  0  0  0
    0.6444   -0.4097   -2.9683 O   0  0  0  0  0  0  0  0  0  0  0  0
    2.9129   -0.9387   -3.5046 C   0  0  0  0  0  0  0  0  0  0  0  0
    3.5433   -0.7844   -2.2702 C   0  0  0  0  0  0  0  0  0  0  0  0
    4.9432   -0.8465   -2.2190 C   0  0  0  0  0  0  0  0  0  0  0  0
    5.6146   -0.6995   -0.9950 C   0  0  0  0  0  0  0  0  0  0  0  0
    7.0073   -0.7431   -0.9523 C   0  0  0  0  0  0  0  0  0  0  0  0
    7.7419   -0.9159   -2.1284 C   0  0  0  0  0  0  0  0  0  0  0  0
    9.0995   -0.9482   -2.0773 F   0  0  0  0  0  0  0  0  0  0  0  0
    7.0884   -1.0673   -3.3553 C   0  0  0  0  0  0  0  0  0  0  0  0
    5.6861   -1.0389   -3.4155 C   0  0  0  0  0  0  0  0  0  0  0  0
    5.0171   -1.1949   -4.6487 C   0  0  0  0  0  0  0  0  0  0  0  0
    3.6085   -1.1651   -4.6801 C   0  0  0  0  0  0  0  0  0  0  0  0
    2.6458   -1.3042   -5.8185 C   0  0  0  0  0  0  0  0  0  0  0  0
    2.9444   -1.6428   -7.1046 C   0  0  0  0  0  0  0  0  0  0  0  0
    1.9531   -1.7623   -8.1425 C   0  0  0  0  0  0  0  0  0  0  0  0
    1.1653   -1.8730   -8.9856 N   0  0  0  0  0  0  0  0  0  0  0  0
    4.2750   -1.9628   -7.5379 C   0  0  0  0  0  0  0  0  0  0  0  0
    5.3367   -2.2381   -7.9123 N   0  0  0  0  0  0  0  0  0  0  0  0
   -1.1816   -1.1846   -5.0144 C   0  0  0  0  0  0  0  0  0  0  0  0
   -1.6589   -2.1943   -4.1472 C   0  0  0  0  0  0  0  0  0  0  0  0
   -0.9141   -3.3878   -3.7779 N   0  0  0  0  0  0  0  0  0  0  0  0
   -0.0834   -4.0484   -4.7572 C   0  0  0  0  0  0  0  0  0  0  0  0
   -0.5662   -4.2974   -6.0497 C   0  0  0  0  0  0  0  0  0  0  0  0
    0.2841   -4.7906   -7.0458 C   0  0  0  0  0  0  0  0  0  0  0  0
    1.6285   -5.0568   -6.7540 C   0  0  0  0  0  0  0  0  0  0  0  0
    2.5477   -5.5530   -7.8323 C   0  0  0  0  0  0  0  0  0  0  0  0
    2.0983   -4.8776   -5.4451 C   0  0  0  0  0  0  0  0  0  0  0  0
    1.2533   -4.3726   -4.4524 C   0  0  0  0  0  0  0  0  0  0  0  0
   -0.8682   -3.8353   -2.4034 C   0  0  0  0  0  0  0  0  0  0  0  0
   -0.9203   -5.2063   -2.0963 C   0  0  0  0  0  0  0  0  0  0  0  0
   -0.8954   -5.6443   -0.7656 C   0  0  0  0  0  0  0  0  0  0  0  0
   -0.7942   -4.7152    0.2802 C   0  0  0  0  0  0  0  0  0  0  0  0
   -0.8037   -5.1657    1.7104 C   0  0  0  0  0  0  0  0  0  0  0  0
   -0.7401   -3.3463   -0.0207 C   0  0  0  0  0  0  0  0  0  0  0  0
   -0.7651   -2.9132   -1.3477 C   0  0  0  0  0  0  0  0  0  0  0  0
   -2.8391   -1.7687   -3.5194 C   0  0  0  0  0  0  0  0  0  0  0  0
   -3.7439   -2.3399   -2.2365 S   0  0  0  0  0  0  0  0  0  0  0  0
   -4.5773   -0.8867   -1.9503 C   0  0  0  0  0  0  0  0  0  0  0  0
   -4.1502    0.0677   -2.9050 C   0  0  0  0  0  0  0  0  0  0  0  0
   -4.4651    1.4799   -2.9167 N   0  0  0  0  0  0  0  0  0  0  0  0
   -4.2252    2.3158   -1.7566 C   0  0  0  0  0  0  0  0  0  0  0  0
   -3.2051    2.0088   -0.8400 C   0  0  0  0  0  0  0  0  0  0  0  0
   -3.0199    2.7851    0.3083 C   0  0  0  0  0  0  0  0  0  0  0  0
   -3.8427    3.8968    0.5506 C   0  0  0  0  0  0  0  0  0  0  0  0
   -3.6152    4.7554    1.7557 C   0  0  0  0  0  0  0  0  0  0  0  0
   -4.8265    4.2395   -0.3859 C   0  0  0  0  0  0  0  0  0  0  0  0
   -5.0159    3.4557   -1.5282 C   0  0  0  0  0  0  0  0  0  0  0  0
   -4.7929    2.0742   -4.1943 C   0  0  0  0  0  0  0  0  0  0  0  0
   -5.6084    1.3753   -5.1035 C   0  0  0  0  0  0  0  0  0  0  0  0
   -5.7944    1.8477   -6.4055 C   0  0  0  0  0  0  0  0  0  0  0  0
   -5.1885    3.0405   -6.8154 C   0  0  0  0  0  0  0  0  0  0  0  0
   -5.3143    3.5124   -8.2328 C   0  0  0  0  0  0  0  0  0  0  0  0
   -4.3939    3.7581   -5.9060 C   0  0  0  0  0  0  0  0  0  0  0  0
   -4.1989    3.2786   -4.6069 C   0  0  0  0  0  0  0  0  0  0  0  0
   -3.2123   -0.4894   -3.7823 C   0  0  0  0  0  0  0  0  0  0  0  0
   -2.1540    0.1986   -4.8886 S   0  0  0  0  0  0  0  0  0  0  0  0
   -5.1022   -0.5916   -0.6098 C   0  0  0  0  0  0  0  0  0  0  0  0
   -6.1383    0.2987   -0.2486 C   0  0  0  0  0  0  0  0  0  0  0  0
   -7.2229    0.7148   -1.1743 C   0  0  0  0  0  0  0  0  0  0  0  0
   -7.8094    1.9897   -1.0986 C   0  0  0  0  0  0  0  0  0  0  0  0
   -8.8264    2.3572   -1.9834 C   0  0  0  0  0  0  0  0  0  0  0  0
   -9.3085    1.4385   -2.9166 C   0  0  0  0  0  0  0  0  0  0  0  0
   -8.7741    0.1430   -2.9757 C   0  0  0  0  0  0  0  0  0  0  0  0
   -9.3488   -0.8667   -3.9349 C   0  0  0  0  0  0  0  0  0  0  0  0
   -8.6156   -0.8562   -5.2702 C   0  0  0  0  0  0  0  0  0  0  0  0
   -7.7177   -0.2029   -2.1237 C   0  0  0  0  0  0  0  0  0  0  0  0
   -6.0370    0.6253    1.1204 C   0  0  0  0  0  0  0  0  0  0  0  0
   -6.6477    1.8859    2.0980 S   0  0  0  0  0  0  0  0  0  0  0  0
   -5.6327    1.4691    3.4003 C   0  0  0  0  0  0  0  0  0  0  0  0
   -5.0236    2.1473    4.4289 C   0  0  0  0  0  0  0  0  0  0  0  0
   -5.0975    3.5061    4.7873 C   0  0  0  0  0  0  0  0  0  0  0  0
   -4.0362    4.0800    5.5543 C   0  0  0  0  0  0  0  0  0  0  0  0
   -4.1084    5.4102    5.8007 N   0  0  0  0  0  0  0  0  0  0  0  0
   -5.5241    5.7667    5.0194 S   0  0  0  0  0  0  0  0  0  0  0  0
   -6.0719    4.3484    4.3675 N   0  0  0  0  0  0  0  0  0  0  0  0
   -3.0054    3.2457    6.0079 C   0  0  0  0  0  0  0  0  0  0  0  0
   -1.8378    3.4856    6.7008 C   0  0  0  0  0  0  0  0  0  0  0  0
   -0.6866    4.7380    6.6267 S   0  0  0  0  0  0  0  0  0  0  0  0
    0.6236    3.6598    6.8441 C   0  0  0  0  0  0  0  0  0  0  0  0
    2.0134    3.7537    6.6184 C   0  0  0  0  0  0  0  0  0  0  0  0
    2.7745    5.0230    6.5129 C   0  0  0  0  0  0  0  0  0  0  0  0
    4.0044    5.1594    7.1824 C   0  0  0  0  0  0  0  0  0  0  0  0
    4.7416    6.3423    7.0766 C   0  0  0  0  0  0  0  0  0  0  0  0
    4.2411    7.4138    6.3277 C   0  0  0  0  0  0  0  0  0  0  0  0
    3.0110    7.2986    5.6623 C   0  0  0  0  0  0  0  0  0  0  0  0
    2.4559    8.4737    4.8997 C   0  0  0  0  0  0  0  0  0  0  0  0
    1.5605    9.3309    5.7900 C   0  0  0  0  0  0  0  0  0  0  0  0
    2.2837    6.1016    5.7570 C   0  0  0  0  0  0  0  0  0  0  0  0
    2.5847    2.4570    6.5246 C   0  0  0  0  0  0  0  0  0  0  0  0
    1.3782    1.2777    6.7251 S   0  0  0  0  0  0  0  0  0  0  0  0
    0.1505    2.3744    6.9621 C   0  0  0  0  0  0  0  0  0  0  0  0
   -1.2219    2.2700    6.8486 C   0  0  0  0  0  0  0  0  0  0  0  0
   -1.9322    1.2620    6.3002 N   0  0  0  0  0  0  0  0  0  0  0  0
   -2.9916    1.8808    5.7164 C   0  0  0  0  0  0  0  0  0  0  0  0
   -3.9177    1.3565    4.7912 C   0  0  0  0  0  0  0  0  0  0  0  0
   -3.7308    0.3258    3.9030 N   0  0  0  0  0  0  0  0  0  0  0  0
   -4.8236    0.4157    3.0951 C   0  0  0  0  0  0  0  0  0  0  0  0
   -5.0411   -0.0351    1.7992 C   0  0  0  0  0  0  0  0  0  0  0  0
   -4.1791   -0.9927    0.7496 S   0  0  0  0  0  0  0  0  0  0  0  0
   -2.4295   -0.2113    3.4672 C   0  0  0  0  0  0  0  0  0  0  0  0
   -2.3856   -1.7393    3.5388 C   0  0  0  0  0  0  0  0  0  0  0  0
   -1.8329   -0.1580    6.6626 C   0  0  0  0  0  0  0  0  0  0  0  0
   -1.8660   -0.3490    8.1755 C   0  0  0  0  0  0  0  0  0  0  0  0
    3.9311    2.0829    6.0603 C   0  0  0  0  0  0  0  0  0  0  0  0
    4.7099    2.7396    5.1060 C   0  0  0  0  0  0  0  0  0  0  0  0
    5.8111    1.9758    4.6697 C   0  0  0  0  0  0  0  0  0  0  0  0
    6.7528    2.3870    3.7201 O   0  0  0  0  0  0  0  0  0  0  0  0
    6.5942    3.5171    2.8651 C   0  0  0  0  0  0  0  0  0  0  0  0
    5.6453    3.1780    1.7235 C   0  0  0  0  0  0  0  0  0  0  0  0
    5.8791    0.7227    5.2602 C   0  0  0  0  0  0  0  0  0  0  0  0
    4.5877    0.5576    6.3139 S   0  0  0  0  0  0  0  0  0  0  0  0
    6.7174   -0.4052    4.8489 C   0  0  0  0  0  0  0  0  0  0  0  0
    6.2239   -1.3944    4.0771 C   0  0  0  0  0  0  0  0  0  0  0  0
    5.0585   -1.2649    3.1961 C   0  0  0  0  0  0  0  0  0  0  0  0
    4.3823   -0.2222    2.9923 O   0  0  0  0  0  0  0  0  0  0  0  0
    4.8684   -2.5089    2.4889 C   0  0  0  0  0  0  0  0  0  0  0  0
    3.8818   -2.8084    1.5486 C   0  0  0  0  0  0  0  0  0  0  0  0
    3.8290   -4.1051    1.0188 C   0  0  0  0  0  0  0  0  0  0  0  0
    2.8484   -4.4474    0.0784 C   0  0  0  0  0  0  0  0  0  0  0  0
    2.7534   -5.7647   -0.3881 C   0  0  0  0  0  0  0  0  0  0  0  0
    3.6410   -6.7399    0.0754 C   0  0  0  0  0  0  0  0  0  0  0  0
    3.5132   -8.0250   -0.3398 F   0  0  0  0  0  0  0  0  0  0  0  0
    4.6439   -6.4039    0.9856 C   0  0  0  0  0  0  0  0  0  0  0  0
    4.7612   -5.0869    1.4574 C   0  0  0  0  0  0  0  0  0  0  0  0
    5.7728   -4.7406    2.3815 C   0  0  0  0  0  0  0  0  0  0  0  0
    5.8183   -3.4307    2.9005 C   0  0  0  0  0  0  0  0  0  0  0  0
    6.7156   -2.8088    3.9301 C   0  0  0  0  0  0  0  0  0  0  0  0
    7.6115   -3.4537    4.7319 C   0  0  0  0  0  0  0  0  0  0  0  0
    8.2551   -2.8185    5.8498 C   0  0  0  0  0  0  0  0  0  0  0  0
    8.7797   -2.3275    6.7603 N   0  0  0  0  0  0  0  0  0  0  0  0
    7.9367   -4.8505    4.5859 C   0  0  0  0  0  0  0  0  0  0  0  0
    8.2048   -5.9719    4.4903 N   0  0  0  0  0  0  0  0  0  0  0  0
   -0.0552   -1.2814   -6.8379 H   0  0  0  0  0  0  0  0  0  0  0  0
    2.9515   -0.6175   -1.3762 H   0  0  0  0  0  0  0  0  0  0  0  0
    5.0592   -0.5516   -0.0740 H   0  0  0  0  0  0  0  0  0  0  0  0
    7.5200   -0.6377   -0.0051 H   0  0  0  0  0  0  0  0  0  0  0  0
    7.6764   -1.2091   -4.2559 H   0  0  0  0  0  0  0  0  0  0  0  0
    5.6045   -1.2967   -5.5417 H   0  0  0  0  0  0  0  0  0  0  0  0
   -1.5940   -4.0681   -6.3013 H   0  0  0  0  0  0  0  0  0  0  0  0
   -0.1006   -4.9462   -8.0470 H   0  0  0  0  0  0  0  0  0  0  0  0
    3.6113   -5.4059   -7.5514 H   0  0  0  0  0  0  0  0  0  0  0  0
    2.3593   -6.6304   -8.0038 H   0  0  0  0  0  0  0  0  0  0  0  0
    2.3634   -4.9955   -8.7766 H   0  0  0  0  0  0  0  0  0  0  0  0
    3.1283   -5.0985   -5.1971 H   0  0  0  0  0  0  0  0  0  0  0  0
    1.6531   -4.1873   -3.4617 H   0  0  0  0  0  0  0  0  0  0  0  0
   -0.9935   -5.9359   -2.8886 H   0  0  0  0  0  0  0  0  0  0  0  0
   -0.9537   -6.7079   -0.5593 H   0  0  0  0  0  0  0  0  0  0  0  0
   -1.8270   -5.0664    2.1225 H   0  0  0  0  0  0  0  0  0  0  0  0
   -0.4732   -6.2234    1.7958 H   0  0  0  0  0  0  0  0  0  0  0  0
   -0.1096   -4.5384    2.3150 H   0  0  0  0  0  0  0  0  0  0  0  0
   -0.6808   -2.6123    0.7745 H   0  0  0  0  0  0  0  0  0  0  0  0
   -0.7374   -1.8509   -1.5392 H   0  0  0  0  0  0  0  0  0  0  0  0
   -2.5575    1.1591   -1.0091 H   0  0  0  0  0  0  0  0  0  0  0  0
   -2.2352    2.5222    1.0053 H   0  0  0  0  0  0  0  0  0  0  0  0
   -4.5776    5.1646    2.1187 H   0  0  0  0  0  0  0  0  0  0  0  0
   -3.1318    4.1821    2.5820 H   0  0  0  0  0  0  0  0  0  0  0  0
   -2.9548    5.6078    1.4826 H   0  0  0  0  0  0  0  0  0  0  0  0
   -5.4545    5.1125   -0.2310 H   0  0  0  0  0  0  0  0  0  0  0  0
   -5.8048    3.7272   -2.2196 H   0  0  0  0  0  0  0  0  0  0  0  0
   -6.0563    0.4372   -4.8159 H   0  0  0  0  0  0  0  0  0  0  0  0
   -6.3859    1.2629   -7.1013 H   0  0  0  0  0  0  0  0  0  0  0  0
   -4.3826    3.2650   -8.7900 H   0  0  0  0  0  0  0  0  0  0  0  0
   -6.1738    3.0192   -8.7435 H   0  0  0  0  0  0  0  0  0  0  0  0
   -5.4725    4.6061   -8.2634 H   0  0  0  0  0  0  0  0  0  0  0  0
   -3.9017    4.6685   -6.2150 H   0  0  0  0  0  0  0  0  0  0  0  0
   -3.5410    3.8234   -3.9399 H   0  0  0  0  0  0  0  0  0  0  0  0
   -7.4663    2.7196   -0.3846 H   0  0  0  0  0  0  0  0  0  0  0  0
   -9.2608    3.3516   -1.9346 H   0  0  0  0  0  0  0  0  0  0  0  0
  -10.1120    1.7272   -3.5799 H   0  0  0  0  0  0  0  0  0  0  0  0
  -10.4235   -0.6486   -4.1102 H   0  0  0  0  0  0  0  0  0  0  0  0
   -9.2935   -1.8856   -3.4921 H   0  0  0  0  0  0  0  0  0  0  0  0
   -9.1758   -1.4696   -6.0029 H   0  0  0  0  0  0  0  0  0  0  0  0
   -7.6043   -1.2945   -5.1539 H   0  0  0  0  0  0  0  0  0  0  0  0
   -8.5319    0.1789   -5.6598 H   0  0  0  0  0  0  0  0  0  0  0  0
   -7.3108   -1.2057   -2.1720 H   0  0  0  0  0  0  0  0  0  0  0  0
    4.3928    4.3539    7.7929 H   0  0  0  0  0  0  0  0  0  0  0  0
    5.6933    6.4340    7.5825 H   0  0  0  0  0  0  0  0  0  0  0  0
    4.8183    8.3280    6.2667 H   0  0  0  0  0  0  0  0  0  0  0  0
    3.2858    9.1010    4.5017 H   0  0  0  0  0  0  0  0  0  0  0  0
    1.8698    8.1169    4.0234 H   0  0  0  0  0  0  0  0  0  0  0  0
    1.1902   10.2034    5.2083 H   0  0  0  0  0  0  0  0  0  0  0  0
    2.1276    9.7049    6.6659 H   0  0  0  0  0  0  0  0  0  0  0  0
    0.6867    8.7471    6.1364 H   0  0  0  0  0  0  0  0  0  0  0  0
    1.3454    6.0152    5.2221 H   0  0  0  0  0  0  0  0  0  0  0  0
   -1.5881    0.2043    4.0494 H   0  0  0  0  0  0  0  0  0  0  0  0
   -2.2266    0.1159    2.4246 H   0  0  0  0  0  0  0  0  0  0  0  0
   -1.5019   -2.0969    2.9747 H   0  0  0  0  0  0  0  0  0  0  0  0
   -2.2876   -2.0911    4.5830 H   0  0  0  0  0  0  0  0  0  0  0  0
   -3.2951   -2.1954    3.0974 H   0  0  0  0  0  0  0  0  0  0  0  0
   -2.6999   -0.7113    6.2534 H   0  0  0  0  0  0  0  0  0  0  0  0
   -0.8989   -0.5872    6.2482 H   0  0  0  0  0  0  0  0  0  0  0  0
   -1.8304   -1.4366    8.4142 H   0  0  0  0  0  0  0  0  0  0  0  0
   -0.9957    0.1443    8.6512 H   0  0  0  0  0  0  0  0  0  0  0  0
   -2.8011    0.0816    8.5841 H   0  0  0  0  0  0  0  0  0  0  0  0
    4.4458    3.6990    4.6930 H   0  0  0  0  0  0  0  0  0  0  0  0
    6.2402    4.4002    3.4343 H   0  0  0  0  0  0  0  0  0  0  0  0
    7.5857    3.7742    2.4446 H   0  0  0  0  0  0  0  0  0  0  0  0
    5.6233    4.0057    0.9844 H   0  0  0  0  0  0  0  0  0  0  0  0
    5.9943    2.2503    1.2239 H   0  0  0  0  0  0  0  0  0  0  0  0
    4.6222    2.9861    2.1149 H   0  0  0  0  0  0  0  0  0  0  0  0
    7.6807   -0.4719    5.3135 H   0  0  0  0  0  0  0  0  0  0  0  0
    3.1644   -2.0498    1.2576 H   0  0  0  0  0  0  0  0  0  0  0  0
    2.1371   -3.7109   -0.2738 H   0  0  0  0  0  0  0  0  0  0  0  0
    1.9761   -6.0290   -1.0927 H   0  0  0  0  0  0  0  0  0  0  0  0
    5.3136   -7.1810    1.3525 H   0  0  0  0  0  0  0  0  0  0  0  0
    6.4839   -5.4948    2.6600 H   0  0  0  0  0  0  0  0  0  0  0  0
  1  2  2  3
  2  3  1  0
  3  4  2  0
  3  5  1  0
  5  6  2  0
  6  7  1  0
  7  8  2  0
  8  9  1  0
  9 10  2  0
 10 11  1  0
 10 12  1  0
 12 13  2  0
 13 14  1  0
 14 15  2  0
 15 16  1  0
 16 17  2  3
 17 18  1  0
 18 19  3  0
 17 20  1  0
 20 21  3  0
  1 22  1  0
 22 23  2  0
 23 24  1  0
 24 25  1  0
 25 26  2  0
 26 27  1  0
 27 28  2  0
 28 29  1  0
 28 30  1  0
 30 31  2  0
 24 32  1  0
 32 33  2  0
 33 34  1  0
 34 35  2  0
 35 36  1  0
 35 37  1  0
 37 38  2  0
 23 39  1  0
 39 40  1  0
 40 41  1  0
 41 42  2  0
 42 43  1  0
 43 44  1  0
 44 45  2  0
 45 46  1  0
 46 47  2  0
 47 48  1  0
 47 49  1  0
 49 50  2  0
 43 51  1  0
 51 52  2  0
 52 53  1  0
 53 54  2  0
 54 55  1  0
 54 56  1  0
 56 57  2  0
 42 58  1  0
 58 59  1  0
 41 60  1  0
 60 61  2  0
 61 62  1  0
 62 63  2  0
 63 64  1  0
 64 65  2  0
 65 66  1  0
 66 67  1  0
 67 68  1  0
 66 69  2  0
 61 70  1  0
 70 71  1  0
 71 72  1  0
 72 73  1  0
 73 74  1  0
 74 75  1  0
 75 76  2  0
 76 77  1  0
 77 78  1  0
 75 79  1  0
 79 80  1  0
 80 81  1  0
 81 82  1  0
 82 83  1  0
 83 84  1  0
 84 85  2  0
 85 86  1  0
 86 87  2  0
 87 88  1  0
 88 89  1  0
 89 90  1  0
 88 91  2  0
 83 92  2  0
 92 93  1  0
 93 94  1  0
 94 95  1  0
 95 96  1  0
 96 97  1  0
 97 98  1  0
 98 99  1  0
 99100  1  0
100101  1  0
101102  1  0
 99103  1  0
103104  1  0
 96105  1  0
105106  1  0
 92107  1  0
107108  2  0
108109  1  0
109110  1  0
110111  1  0
111112  1  0
109113  2  0
113114  1  0
113115  1  0
115116  2  3
116117  1  0
117118  2  0
117119  1  0
119120  2  0
120121  1  0
121122  2  0
122123  1  0
123124  2  0
124125  1  0
124126  1  0
126127  2  0
127128  1  0
128129  2  0
129130  1  0
130131  2  3
131132  1  0
132133  3  0
131134  1  0
134135  3  0
 16  2  1  0
 59 22  1  0
102 60  1  0
114107  1  0
130116  1  0
 15  5  1  0
 31 25  1  0
 38 32  1  0
 58 39  2  0
 69 62  1  0
101 70  2  0
129119  1  0
 13  7  1  0
 50 44  1  0
 57 51  1  0
100 72  2  0
127121  1  0
 98 73  2  0
 78 74  2  0
 97 79  2  0
 95 80  2  0
 94 82  2  0
 91 84  1  0
  1136  1  0
  6137  1  0
  8138  1  0
  9139  1  0
 12140  1  0
 14141  1  0
 26142  1  0
 27143  1  0
 29144  1  0
 29145  1  0
 29146  1  0
 30147  1  0
 31148  1  0
 33149  1  0
 34150  1  0
 36151  1  0
 36152  1  0
 36153  1  0
 37154  1  0
 38155  1  0
 45156  1  0
 46157  1  0
 48158  1  0
 48159  1  0
 48160  1  0
 49161  1  0
 50162  1  0
 52163  1  0
 53164  1  0
 55165  1  0
 55166  1  0
 55167  1  0
 56168  1  0
 57169  1  0
 63170  1  0
 64171  1  0
 65172  1  0
 67173  1  0
 67174  1  0
 68175  1  0
 68176  1  0
 68177  1  0
 69178  1  0
 85179  1  0
 86180  1  0
 87181  1  0
 89182  1  0
 89183  1  0
 90184  1  0
 90185  1  0
 90186  1  0
 91187  1  0
103188  1  0
103189  1  0
104190  1  0
104191  1  0
104192  1  0
105193  1  0
105194  1  0
106195  1  0
106196  1  0
106197  1  0
108198  1  0
111199  1  0
111200  1  0
112201  1  0
112202  1  0
112203  1  0
115204  1  0
120205  1  0
122206  1  0
123207  1  0
126208  1  0
128209  1  0
M  END

