
     RDKit          3D

261288  0  0  0  0  0  0  0  0999 V2000
   -9.7232    4.9444    0.1372 C   0  0  0  0  0  0  0  0  0  0  0  0
   -9.4979    5.7374    1.2121 C   0  0  0  0  0  0  0  0  0  0  0  0
   -8.2094    6.3451    1.5703 C   0  0  0  0  0  0  0  0  0  0  0  0
   -7.0737    5.9883    1.1591 O   0  0  0  0  0  0  0  0  0  0  0  0
   -8.4349    7.3768    2.5595 C   0  0  0  0  0  0  0  0  0  0  0  0
   -7.4900    8.1906    3.1794 C   0  0  0  0  0  0  0  0  0  0  0  0
   -7.9097    9.0623    4.1969 C   0  0  0  0  0  0  0  0  0  0  0  0
   -6.9852    9.8808    4.8684 C   0  0  0  0  0  0  0  0  0  0  0  0
   -7.4087   10.7116    5.9092 C   0  0  0  0  0  0  0  0  0  0  0  0
   -8.7555   10.7361    6.2888 C   0  0  0  0  0  0  0  0  0  0  0  0
   -9.1516   11.5311    7.3202 F   0  0  0  0  0  0  0  0  0  0  0  0
   -9.6894    9.9321    5.6276 C   0  0  0  0  0  0  0  0  0  0  0  0
   -9.2807    9.0892    4.5777 C   0  0  0  0  0  0  0  0  0  0  0  0
  -10.2135    8.2555    3.9287 C   0  0  0  0  0  0  0  0  0  0  0  0
   -9.7785    7.4122    2.8918 C   0  0  0  0  0  0  0  0  0  0  0  0
  -10.5165    6.3694    2.1127 C   0  0  0  0  0  0  0  0  0  0  0  0
  -11.8290    6.0514    2.2013 C   0  0  0  0  0  0  0  0  0  0  0  0
  -12.7893    6.8645    2.9083 C   0  0  0  0  0  0  0  0  0  0  0  0
  -13.5434    7.5139    3.4929 N   0  0  0  0  0  0  0  0  0  0  0  0
  -12.2910    4.7350    1.8339 C   0  0  0  0  0  0  0  0  0  0  0  0
  -12.6350    3.6510    1.5882 N   0  0  0  0  0  0  0  0  0  0  0  0
   -8.7005    4.7265   -0.9034 C   0  0  0  0  0  0  0  0  0  0  0  0
   -8.0126    3.5245   -1.1989 C   0  0  0  0  0  0  0  0  0  0  0  0
   -8.3469    2.2108   -0.6813 N   0  0  0  0  0  0  0  0  0  0  0  0
   -7.4038    1.1296   -0.8008 C   0  0  0  0  0  0  0  0  0  0  0  0
   -7.5626    0.1723   -1.8137 C   0  0  0  0  0  0  0  0  0  0  0  0
   -6.6665   -0.8925   -1.9246 C   0  0  0  0  0  0  0  0  0  0  0  0
   -5.6037   -1.0173   -1.0164 C   0  0  0  0  0  0  0  0  0  0  0  0
   -4.6721   -2.1857   -1.1272 C   0  0  0  0  0  0  0  0  0  0  0  0
   -5.4423   -0.0564   -0.0046 C   0  0  0  0  0  0  0  0  0  0  0  0
   -6.3404    1.0122    0.1043 C   0  0  0  0  0  0  0  0  0  0  0  0
   -9.7022    1.8441   -0.3623 C   0  0  0  0  0  0  0  0  0  0  0  0
   -9.9735    1.0910    0.7920 C   0  0  0  0  0  0  0  0  0  0  0  0
  -11.2619    0.6114    1.0438 C   0  0  0  0  0  0  0  0  0  0  0  0
  -12.3062    0.8989    0.1541 C   0  0  0  0  0  0  0  0  0  0  0  0
  -13.6914    0.3816    0.4242 C   0  0  0  0  0  0  0  0  0  0  0  0
  -12.0375    1.6272   -1.0130 C   0  0  0  0  0  0  0  0  0  0  0  0
  -10.7436    2.0951   -1.2727 C   0  0  0  0  0  0  0  0  0  0  0  0
   -6.9155    3.8047   -2.0304 C   0  0  0  0  0  0  0  0  0  0  0  0
   -5.5368    2.9895   -2.5003 S   0  0  0  0  0  0  0  0  0  0  0  0
   -4.6964    4.3381   -3.1366 C   0  0  0  0  0  0  0  0  0  0  0  0
   -5.5784    5.4329   -3.0505 C   0  0  0  0  0  0  0  0  0  0  0  0
   -5.5226    6.5823   -3.9094 N   0  0  0  0  0  0  0  0  0  0  0  0
   -6.3936    6.5232   -5.0644 C   0  0  0  0  0  0  0  0  0  0  0  0
   -6.3193    5.4356   -5.9507 C   0  0  0  0  0  0  0  0  0  0  0  0
   -7.1892    5.3409   -7.0371 C   0  0  0  0  0  0  0  0  0  0  0  0
   -8.1689    6.3210   -7.2471 C   0  0  0  0  0  0  0  0  0  0  0  0
   -9.1310    6.1956   -8.3903 C   0  0  0  0  0  0  0  0  0  0  0  0
   -8.2939    7.3731   -6.3282 C   0  0  0  0  0  0  0  0  0  0  0  0
   -7.4174    7.4705   -5.2432 C   0  0  0  0  0  0  0  0  0  0  0  0
   -4.9323    7.8269   -3.4559 C   0  0  0  0  0  0  0  0  0  0  0  0
   -4.4562    7.9686   -2.1359 C   0  0  0  0  0  0  0  0  0  0  0  0
   -3.8813    9.1727   -1.7132 C   0  0  0  0  0  0  0  0  0  0  0  0
   -3.7651   10.2504   -2.6012 C   0  0  0  0  0  0  0  0  0  0  0  0
   -3.1704   11.5547   -2.1608 C   0  0  0  0  0  0  0  0  0  0  0  0
   -4.2374   10.1190   -3.9111 C   0  0  0  0  0  0  0  0  0  0  0  0
   -4.7960    8.9155   -4.3406 C   0  0  0  0  0  0  0  0  0  0  0  0
   -6.7673    5.0944   -2.4041 C   0  0  0  0  0  0  0  0  0  0  0  0
   -7.9854    6.0262   -1.7521 S   0  0  0  0  0  0  0  0  0  0  0  0
   -3.2364    4.4382   -2.8717 C   0  0  0  0  0  0  0  0  0  0  0  0
   -2.2289    5.2809   -3.4248 C   0  0  0  0  0  0  0  0  0  0  0  0
   -2.3585    6.1554   -4.6059 C   0  0  0  0  0  0  0  0  0  0  0  0
   -2.9652    5.6846   -5.7777 C   0  0  0  0  0  0  0  0  0  0  0  0
   -3.0826    6.5161   -6.8953 C   0  0  0  0  0  0  0  0  0  0  0  0
   -2.5558    7.8116   -6.8607 C   0  0  0  0  0  0  0  0  0  0  0  0
   -1.9231    8.2886   -5.7020 C   0  0  0  0  0  0  0  0  0  0  0  0
   -1.3172    9.6650   -5.6765 C   0  0  0  0  0  0  0  0  0  0  0  0
    0.1267    9.6253   -6.1601 C   0  0  0  0  0  0  0  0  0  0  0  0
   -1.8202    7.4531   -4.5811 C   0  0  0  0  0  0  0  0  0  0  0  0
   -1.0122    5.1194   -2.7310 C   0  0  0  0  0  0  0  0  0  0  0  0
    0.6106    5.6539   -2.9364 S   0  0  0  0  0  0  0  0  0  0  0  0
    1.1542    4.6899   -1.6321 C   0  0  0  0  0  0  0  0  0  0  0  0
    2.2790    4.3322   -0.9153 C   0  0  0  0  0  0  0  0  0  0  0  0
    3.6284    4.7085   -0.9568 C   0  0  0  0  0  0  0  0  0  0  0  0
    4.5473    4.0936   -0.0373 C   0  0  0  0  0  0  0  0  0  0  0  0
    5.8444    4.4746   -0.1255 N   0  0  0  0  0  0  0  0  0  0  0  0
    5.7336    5.5809   -1.3557 S   0  0  0  0  0  0  0  0  0  0  0  0
    4.1376    5.6260   -1.8112 N   0  0  0  0  0  0  0  0  0  0  0  0
    4.0674    3.1169    0.8568 C   0  0  0  0  0  0  0  0  0  0  0  0
    4.7112    2.1760    1.6306 C   0  0  0  0  0  0  0  0  0  0  0  0
    6.2949    1.5682    1.8034 S   0  0  0  0  0  0  0  0  0  0  0  0
    5.7163    0.0679    2.3809 C   0  0  0  0  0  0  0  0  0  0  0  0
    6.3092   -1.1684    2.6687 C   0  0  0  0  0  0  0  0  0  0  0  0
    7.7605   -1.3541    2.8007 C   0  0  0  0  0  0  0  0  0  0  0  0
    8.3286   -1.4431    4.0825 C   0  0  0  0  0  0  0  0  0  0  0  0
    9.6974   -1.6754    4.2285 C   0  0  0  0  0  0  0  0  0  0  0  0
   10.5032   -1.8439    3.0997 C   0  0  0  0  0  0  0  0  0  0  0  0
    9.9439   -1.7765    1.8119 C   0  0  0  0  0  0  0  0  0  0  0  0
   10.8241   -1.9494    0.6029 C   0  0  0  0  0  0  0  0  0  0  0  0
   11.4714   -0.6252    0.2109 C   0  0  0  0  0  0  0  0  0  0  0  0
    8.5705   -1.5098    1.6667 C   0  0  0  0  0  0  0  0  0  0  0  0
    5.3392   -2.1810    2.8750 C   0  0  0  0  0  0  0  0  0  0  0  0
    3.7969   -1.4748    2.7289 S   0  0  0  0  0  0  0  0  0  0  0  0
    4.3558    0.0568    2.3952 C   0  0  0  0  0  0  0  0  0  0  0  0
    3.7747    1.2393    1.9685 C   0  0  0  0  0  0  0  0  0  0  0  0
    2.5595    1.4862    1.4207 N   0  0  0  0  0  0  0  0  0  0  0  0
    2.7248    2.7105    0.8357 C   0  0  0  0  0  0  0  0  0  0  0  0
    1.8142    3.3967    0.0226 C   0  0  0  0  0  0  0  0  0  0  0  0
    0.4634    3.2711   -0.0115 N   0  0  0  0  0  0  0  0  0  0  0  0
    0.1262    4.0174   -1.0773 C   0  0  0  0  0  0  0  0  0  0  0  0
   -1.0785    4.2513   -1.6855 C   0  0  0  0  0  0  0  0  0  0  0  0
   -2.5750    3.5774   -1.5596 S   0  0  0  0  0  0  0  0  0  0  0  0
   -0.4210    3.0263    1.1394 C   0  0  0  0  0  0  0  0  0  0  0  0
   -0.9230    4.3435    1.7345 C   0  0  0  0  0  0  0  0  0  0  0  0
    1.6703    0.4183    0.9212 C   0  0  0  0  0  0  0  0  0  0  0  0
    2.3059   -0.2908   -0.2740 C   0  0  0  0  0  0  0  0  0  0  0  0
    5.5649   -3.6513    2.9293 C   0  0  0  0  0  0  0  0  0  0  0  0
    4.5788   -4.6652    2.9811 C   0  0  0  0  0  0  0  0  0  0  0  0
    3.2305   -4.5052    3.4544 N   0  0  0  0  0  0  0  0  0  0  0  0
    2.1574   -4.1314    2.5589 C   0  0  0  0  0  0  0  0  0  0  0  0
    2.3137   -4.2214    1.1592 C   0  0  0  0  0  0  0  0  0  0  0  0
    1.2828   -3.8170    0.3051 C   0  0  0  0  0  0  0  0  0  0  0  0
    0.0829   -3.3172    0.8283 C   0  0  0  0  0  0  0  0  0  0  0  0
   -1.0139   -2.8566   -0.0820 C   0  0  0  0  0  0  0  0  0  0  0  0
   -0.0772   -3.2139    2.2172 C   0  0  0  0  0  0  0  0  0  0  0  0
    0.9512   -3.6179    3.0727 C   0  0  0  0  0  0  0  0  0  0  0  0
    2.9521   -5.0507    4.7636 C   0  0  0  0  0  0  0  0  0  0  0  0
    1.9375   -6.0062    4.9459 C   0  0  0  0  0  0  0  0  0  0  0  0
    1.7511   -6.6143    6.1908 C   0  0  0  0  0  0  0  0  0  0  0  0
    2.5775   -6.2762    7.2748 C   0  0  0  0  0  0  0  0  0  0  0  0
    2.4203   -6.9884    8.5867 C   0  0  0  0  0  0  0  0  0  0  0  0
    3.6039   -5.3413    7.0911 C   0  0  0  0  0  0  0  0  0  0  0  0
    3.7881   -4.7273    5.8483 C   0  0  0  0  0  0  0  0  0  0  0  0
    5.1276   -5.9289    2.7884 C   0  0  0  0  0  0  0  0  0  0  0  0
    4.4614   -7.4416    2.5122 S   0  0  0  0  0  0  0  0  0  0  0  0
    5.9625   -8.1846    2.2094 C   0  0  0  0  0  0  0  0  0  0  0  0
    7.0074   -7.2417    2.3703 C   0  0  0  0  0  0  0  0  0  0  0  0
    8.4300   -7.5371    2.3750 N   0  0  0  0  0  0  0  0  0  0  0  0
    9.3330   -6.7894    3.2135 C   0  0  0  0  0  0  0  0  0  0  0  0
    8.9786   -6.4581    4.5330 C   0  0  0  0  0  0  0  0  0  0  0  0
    9.8642   -5.7554    5.3526 C   0  0  0  0  0  0  0  0  0  0  0  0
   11.1261   -5.3866    4.8693 C   0  0  0  0  0  0  0  0  0  0  0  0
   12.0728   -4.6464    5.7670 C   0  0  0  0  0  0  0  0  0  0  0  0
   11.4887   -5.7172    3.5553 C   0  0  0  0  0  0  0  0  0  0  0  0
   10.6013   -6.4212    2.7371 C   0  0  0  0  0  0  0  0  0  0  0  0
    8.9117   -8.7897    1.8633 C   0  0  0  0  0  0  0  0  0  0  0  0
    9.3013   -8.9031    0.5209 C   0  0  0  0  0  0  0  0  0  0  0  0
    9.6978  -10.1411    0.0088 C   0  0  0  0  0  0  0  0  0  0  0  0
    9.7345  -11.2700    0.8448 C   0  0  0  0  0  0  0  0  0  0  0  0
   10.1435  -12.6107    0.3132 C   0  0  0  0  0  0  0  0  0  0  0  0
    9.3883  -11.1429    2.1970 C   0  0  0  0  0  0  0  0  0  0  0  0
    8.9832   -9.9090    2.7044 C   0  0  0  0  0  0  0  0  0  0  0  0
    6.4689   -5.9768    2.6368 C   0  0  0  0  0  0  0  0  0  0  0  0
    7.0764   -4.4129    2.6746 S   0  0  0  0  0  0  0  0  0  0  0  0
    6.0579   -9.4482    1.4665 C   0  0  0  0  0  0  0  0  0  0  0  0
    6.1113   -9.4645    0.1157 C   0  0  0  0  0  0  0  0  0  0  0  0
    6.1321   -8.2760   -0.7555 C   0  0  0  0  0  0  0  0  0  0  0  0
    5.9531   -7.0776   -0.4008 O   0  0  0  0  0  0  0  0  0  0  0  0
    6.5207   -8.6858   -2.0838 C   0  0  0  0  0  0  0  0  0  0  0  0
    6.8462   -7.8690   -3.1671 C   0  0  0  0  0  0  0  0  0  0  0  0
    7.3962   -8.4634   -4.3151 C   0  0  0  0  0  0  0  0  0  0  0  0
    7.7502   -7.6781   -5.4229 C   0  0  0  0  0  0  0  0  0  0  0  0
    8.3109   -8.2741   -6.5573 C   0  0  0  0  0  0  0  0  0  0  0  0
    8.6780   -7.4996   -7.6082 F   0  0  0  0  0  0  0  0  0  0  0  0
    8.5831   -9.6446   -6.5674 C   0  0  0  0  0  0  0  0  0  0  0  0
    9.1798  -10.2085   -7.6466 F   0  0  0  0  0  0  0  0  0  0  0  0
    8.2223  -10.4466   -5.4746 C   0  0  0  0  0  0  0  0  0  0  0  0
    7.6238   -9.8680   -4.3426 C   0  0  0  0  0  0  0  0  0  0  0  0
    7.2590  -10.6669   -3.2379 C   0  0  0  0  0  0  0  0  0  0  0  0
    6.6721  -10.0598   -2.1194 C   0  0  0  0  0  0  0  0  0  0  0  0
    6.3115  -10.6401   -0.7944 C   0  0  0  0  0  0  0  0  0  0  0  0
    5.9764  -11.9382   -0.5514 C   0  0  0  0  0  0  0  0  0  0  0  0
    5.5377  -12.4115    0.7281 C   0  0  0  0  0  0  0  0  0  0  0  0
    5.1681  -12.8047    1.7534 N   0  0  0  0  0  0  0  0  0  0  0  0
    5.9248  -12.9202   -1.6128 C   0  0  0  0  0  0  0  0  0  0  0  0
    5.8661  -13.7105   -2.4618 N   0  0  0  0  0  0  0  0  0  0  0  0
  -10.7068    4.5838   -0.0956 H   0  0  0  0  0  0  0  0  0  0  0  0
   -6.4395    8.1167    2.9120 H   0  0  0  0  0  0  0  0  0  0  0  0
   -5.9376    9.8758    4.5993 H   0  0  0  0  0  0  0  0  0  0  0  0
   -6.6832   11.3295    6.4366 H   0  0  0  0  0  0  0  0  0  0  0  0
  -10.7226    9.9606    5.9398 H   0  0  0  0  0  0  0  0  0  0  0  0
  -11.2312    8.2550    4.2725 H   0  0  0  0  0  0  0  0  0  0  0  0
   -8.3819    0.2559   -2.5144 H   0  0  0  0  0  0  0  0  0  0  0  0
   -6.8026   -1.6212   -2.7145 H   0  0  0  0  0  0  0  0  0  0  0  0
   -4.1951   -2.1904   -2.1298 H   0  0  0  0  0  0  0  0  0  0  0  0
   -5.2369   -3.1330   -0.9897 H   0  0  0  0  0  0  0  0  0  0  0  0
   -3.8779   -2.1364   -0.3545 H   0  0  0  0  0  0  0  0  0  0  0  0
   -4.6240   -0.1339    0.6980 H   0  0  0  0  0  0  0  0  0  0  0  0
   -6.2103    1.7449    0.8928 H   0  0  0  0  0  0  0  0  0  0  0  0
   -9.1711    0.8540    1.4817 H   0  0  0  0  0  0  0  0  0  0  0  0
  -11.4420    0.0190    1.9332 H   0  0  0  0  0  0  0  0  0  0  0  0
  -14.4528    1.0845    0.0202 H   0  0  0  0  0  0  0  0  0  0  0  0
  -13.8211   -0.6157   -0.0509 H   0  0  0  0  0  0  0  0  0  0  0  0
  -13.8644    0.2846    1.5196 H   0  0  0  0  0  0  0  0  0  0  0  0
  -12.8304    1.8312   -1.7241 H   0  0  0  0  0  0  0  0  0  0  0  0
  -10.5419    2.6323   -2.1896 H   0  0  0  0  0  0  0  0  0  0  0  0
   -5.6003    4.6468   -5.7926 H   0  0  0  0  0  0  0  0  0  0  0  0
   -7.1076    4.4886   -7.7065 H   0  0  0  0  0  0  0  0  0  0  0  0
  -10.0453    5.6639   -8.0516 H   0  0  0  0  0  0  0  0  0  0  0  0
   -8.6721    5.6339   -9.2335 H   0  0  0  0  0  0  0  0  0  0  0  0
   -9.4169    7.2010   -8.7668 H   0  0  0  0  0  0  0  0  0  0  0  0
   -9.0821    8.1077   -6.4453 H   0  0  0  0  0  0  0  0  0  0  0  0
   -7.5503    8.2768   -4.5294 H   0  0  0  0  0  0  0  0  0  0  0  0
   -4.5224    7.1559   -1.4267 H   0  0  0  0  0  0  0  0  0  0  0  0
   -3.5259    9.2603   -0.6943 H   0  0  0  0  0  0  0  0  0  0  0  0
   -2.4009   11.8770   -2.8940 H   0  0  0  0  0  0  0  0  0  0  0  0
   -3.9676   12.3259   -2.1097 H   0  0  0  0  0  0  0  0  0  0  0  0
   -2.6909   11.4676   -1.1628 H   0  0  0  0  0  0  0  0  0  0  0  0
   -4.1477   10.9394   -4.6133 H   0  0  0  0  0  0  0  0  0  0  0  0
   -5.0929    8.8293   -5.3809 H   0  0  0  0  0  0  0  0  0  0  0  0
   -3.3223    4.6659   -5.8332 H   0  0  0  0  0  0  0  0  0  0  0  0
   -3.5606    6.1513   -7.7944 H   0  0  0  0  0  0  0  0  0  0  0  0
   -2.6467    8.4421   -7.7361 H   0  0  0  0  0  0  0  0  0  0  0  0
   -1.3384   10.0733   -4.6424 H   0  0  0  0  0  0  0  0  0  0  0  0
   -1.9071   10.3544   -6.3200 H   0  0  0  0  0  0  0  0  0  0  0  0
    0.7392    9.0051   -5.4733 H   0  0  0  0  0  0  0  0  0  0  0  0
    0.1804    9.1987   -7.1840 H   0  0  0  0  0  0  0  0  0  0  0  0
    0.5438   10.6528   -6.1749 H   0  0  0  0  0  0  0  0  0  0  0  0
   -1.3392    7.8186   -3.6837 H   0  0  0  0  0  0  0  0  0  0  0  0
    7.7064   -1.3243    4.9598 H   0  0  0  0  0  0  0  0  0  0  0  0
   10.1313   -1.7230    5.2178 H   0  0  0  0  0  0  0  0  0  0  0  0
   11.5596   -2.0329    3.2342 H   0  0  0  0  0  0  0  0  0  0  0  0
   11.6212   -2.6959    0.8158 H   0  0  0  0  0  0  0  0  0  0  0  0
   10.2307   -2.3344   -0.2532 H   0  0  0  0  0  0  0  0  0  0  0  0
   10.6883    0.1223   -0.0452 H   0  0  0  0  0  0  0  0  0  0  0  0
   12.1250   -0.7725   -0.6744 H   0  0  0  0  0  0  0  0  0  0  0  0
   12.0930   -0.2377    1.0470 H   0  0  0  0  0  0  0  0  0  0  0  0
    8.1310   -1.4480    0.6795 H   0  0  0  0  0  0  0  0  0  0  0  0
   -1.2741    2.3987    0.8220 H   0  0  0  0  0  0  0  0  0  0  0  0
    0.1200    2.4912    1.9451 H   0  0  0  0  0  0  0  0  0  0  0  0
   -1.5255    4.9065    0.9906 H   0  0  0  0  0  0  0  0  0  0  0  0
   -1.5660    4.1367    2.6200 H   0  0  0  0  0  0  0  0  0  0  0  0
   -0.0624    4.9694    2.0544 H   0  0  0  0  0  0  0  0  0  0  0  0
    1.4477   -0.2989    1.7320 H   0  0  0  0  0  0  0  0  0  0  0  0
    0.6975    0.8123    0.5841 H   0  0  0  0  0  0  0  0  0  0  0  0
    2.3874    0.4111   -1.1327 H   0  0  0  0  0  0  0  0  0  0  0  0
    3.3154   -0.6747   -0.0237 H   0  0  0  0  0  0  0  0  0  0  0  0
    1.6720   -1.1528   -0.5784 H   0  0  0  0  0  0  0  0  0  0  0  0
    3.2308   -4.5967    0.7290 H   0  0  0  0  0  0  0  0  0  0  0  0
    1.4270   -3.8916   -0.7665 H   0  0  0  0  0  0  0  0  0  0  0  0
   -1.1994   -1.7678    0.0669 H   0  0  0  0  0  0  0  0  0  0  0  0
   -1.9398   -3.4276    0.1390 H   0  0  0  0  0  0  0  0  0  0  0  0
   -0.7547   -3.0217   -1.1506 H   0  0  0  0  0  0  0  0  0  0  0  0
   -0.9953   -2.8181    2.6305 H   0  0  0  0  0  0  0  0  0  0  0  0
    0.8134   -3.5080    4.1399 H   0  0  0  0  0  0  0  0  0  0  0  0
    1.3136   -6.3047    4.1143 H   0  0  0  0  0  0  0  0  0  0  0  0
    0.9725   -7.3620    6.3061 H   0  0  0  0  0  0  0  0  0  0  0  0
    1.3438   -7.1378    8.8179 H   0  0  0  0  0  0  0  0  0  0  0  0
    2.8704   -6.4019    9.4153 H   0  0  0  0  0  0  0  0  0  0  0  0
    2.9212   -7.9777    8.5319 H   0  0  0  0  0  0  0  0  0  0  0  0
    4.2730   -5.0979    7.9101 H   0  0  0  0  0  0  0  0  0  0  0  0
    4.5935   -4.0121    5.7292 H   0  0  0  0  0  0  0  0  0  0  0  0
    8.0193   -6.7594    4.9331 H   0  0  0  0  0  0  0  0  0  0  0  0
    9.5753   -5.5096    6.3684 H   0  0  0  0  0  0  0  0  0  0  0  0
   13.0424   -4.4424    5.2601 H   0  0  0  0  0  0  0  0  0  0  0  0
   11.6167   -3.6806    6.0716 H   0  0  0  0  0  0  0  0  0  0  0  0
   12.2775   -5.2505    6.6759 H   0  0  0  0  0  0  0  0  0  0  0  0
   12.4592   -5.4318    3.1639 H   0  0  0  0  0  0  0  0  0  0  0  0
   10.8909   -6.6601    1.7187 H   0  0  0  0  0  0  0  0  0  0  0  0
    9.2621   -8.0357   -0.1277 H   0  0  0  0  0  0  0  0  0  0  0  0
    9.9521  -10.2264   -1.0398 H   0  0  0  0  0  0  0  0  0  0  0  0
    9.3780  -13.3688    0.5780 H   0  0  0  0  0  0  0  0  0  0  0  0
   10.2528  -12.5979   -0.7933 H   0  0  0  0  0  0  0  0  0  0  0  0
   11.1147  -12.9104    0.7602 H   0  0  0  0  0  0  0  0  0  0  0  0
    9.4372  -11.9995    2.8581 H   0  0  0  0  0  0  0  0  0  0  0  0
    8.6975   -9.8236    3.7475 H   0  0  0  0  0  0  0  0  0  0  0  0
    6.1251  -10.3540    2.0463 H   0  0  0  0  0  0  0  0  0  0  0  0
    6.7140   -6.7918   -3.1078 H   0  0  0  0  0  0  0  0  0  0  0  0
    7.5999   -6.6021   -5.4057 H   0  0  0  0  0  0  0  0  0  0  0  0
    8.4329  -11.5079   -5.5062 H   0  0  0  0  0  0  0  0  0  0  0  0
    7.5033  -11.7201   -3.2313 H   0  0  0  0  0  0  0  0  0  0  0  0
  1  2  2  3
  2  3  1  0
  3  4  2  0
  3  5  1  0
  5  6  2  0
  6  7  1  0
  7  8  2  0
  8  9  1  0
  9 10  2  0
 10 11  1  0
 10 12  1  0
 12 13  2  0
 13 14  1  0
 14 15  2  0
 15 16  1  0
 16 17  2  3
 17 18  1  0
 18 19  3  0
 17 20  1  0
 20 21  3  0
  1 22  1  0
 22 23  2  0
 23 24  1  0
 24 25  1  0
 25 26  2  0
 26 27  1  0
 27 28  2  0
 28 29  1  0
 28 30  1  0
 30 31  2  0
 24 32  1  0
 32 33  2  0
 33 34  1  0
 34 35  2  0
 35 36  1  0
 35 37  1  0
 37 38  2  0
 23 39  1  0
 39 40  1  0
 40 41  1  0
 41 42  2  0
 42 43  1  0
 43 44  1  0
 44 45  2  0
 45 46  1  0
 46 47  2  0
 47 48  1  0
 47 49  1  0
 49 50  2  0
 43 51  1  0
 51 52  2  0
 52 53  1  0
 53 54  2  0
 54 55  1  0
 54 56  1  0
 56 57  2  0
 42 58  1  0
 58 59  1  0
 41 60  1  0
 60 61  2  0
 61 62  1  0
 62 63  2  0
 63 64  1  0
 64 65  2  0
 65 66  1  0
 66 67  1  0
 67 68  1  0
 66 69  2  0
 61 70  1  0
 70 71  1  0
 71 72  1  0
 72 73  1  0
 73 74  1  0
 74 75  1  0
 75 76  2  0
 76 77  1  0
 77 78  1  0
 75 79  1  0
 79 80  1  0
 80 81  1  0
 81 82  1  0
 82 83  1  0
 83 84  1  0
 84 85  2  0
 85 86  1  0
 86 87  2  0
 87 88  1  0
 88 89  1  0
 89 90  1  0
 88 91  2  0
 83 92  2  0
 92 93  1  0
 93 94  1  0
 94 95  1  0
 95 96  1  0
 96 97  1  0
 97 98  1  0
 98 99  1  0
 99100  1  0
100101  1  0
101102  1  0
 99103  1  0
103104  1  0
 96105  1  0
105106  1  0
 92107  1  0
107108  2  0
108109  1  0
109110  1  0
110111  2  0
111112  1  0
112113  2  0
113114  1  0
113115  1  0
115116  2  0
109117  1  0
117118  2  0
118119  1  0
119120  2  0
120121  1  0
120122  1  0
122123  2  0
108124  1  0
124125  1  0
125126  1  0
126127  2  0
127128  1  0
128129  1  0
129130  2  0
130131  1  0
131132  2  0
132133  1  0
132134  1  0
134135  2  0
128136  1  0
136137  2  0
137138  1  0
138139  2  0
139140  1  0
139141  1  0
141142  2  0
127143  1  0
143144  1  0
126145  1  0
145146  2  3
146147  1  0
147148  2  0
147149  1  0
149150  2  0
150151  1  0
151152  2  0
152153  1  0
153154  1  0
153155  2  0
155156  1  0
155157  1  0
157158  2  0
158159  1  0
159160  2  0
160161  1  0
161162  2  3
162163  1  0
163164  3  0
162165  1  0
165166  3  0
 16  2  1  0
 59 22  1  0
102 60  1  0
144107  1  0
161146  1  0
 15  5  1  0
 31 25  1  0
 38 32  1  0
 58 39  2  0
 69 62  1  0
101 70  2  0
116110  1  0
123117  1  0
143124  2  0
160149  1  0
 13  7  1  0
 50 44  1  0
 57 51  1  0
100 72  2  0
135129  1  0
142136  1  0
158151  1  0
 98 73  2  0
 78 74  2  0
 97 79  2  0
 95 80  2  0
 94 82  2  0
 91 84  1  0
  1167  1  0
  6168  1  0
  8169  1  0
  9170  1  0
 12171  1  0
 14172  1  0
 26173  1  0
 27174  1  0
 29175  1  0
 29176  1  0
 29177  1  0
 30178  1  0
 31179  1  0
 33180  1  0
 34181  1  0
 36182  1  0
 36183  1  0
 36184  1  0
 37185  1  0
 38186  1  0
 45187  1  0
 46188  1  0
 48189  1  0
 48190  1  0
 48191  1  0
 49192  1  0
 50193  1  0
 52194  1  0
 53195  1  0
 55196  1  0
 55197  1  0
 55198  1  0
 56199  1  0
 57200  1  0
 63201  1  0
 64202  1  0
 65203  1  0
 67204  1  0
 67205  1  0
 68206  1  0
 68207  1  0
 68208  1  0
 69209  1  0
 85210  1  0
 86211  1  0
 87212  1  0
 89213  1  0
 89214  1  0
 90215  1  0
 90216  1  0
 90217  1  0
 91218  1  0
103219  1  0
103220  1  0
104221  1  0
104222  1  0
104223  1  0
105224  1  0
105225  1  0
106226  1  0
106227  1  0
106228  1  0
111229  1  0
112230  1  0
114231  1  0
114232  1  0
114233  1  0
115234  1  0
116235  1  0
118236  1  0
119237  1  0
121238  1  0
121239  1  0
121240  1  0
122241  1  0
123242  1  0
130243  1  0
131244  1  0
133245  1  0
133246  1  0
133247  1  0
134248  1  0
135249  1  0
137250  1  0
138251  1  0
140252  1  0
140253  1  0
140254  1  0
141255  1  0
142256  1  0
145257  1  0
150258  1  0
152259  1  0
157260  1  0
159261  1  0
M  END

