
     RDKit          3D

245271  0  0  0  0  0  0  0  0999 V2000
   -5.2983    0.7309   -4.0788 C   0  0  0  0  0  0  0  0  0  0  0  0
   -4.5777   -0.1487   -4.7656 C   0  0  0  0  0  0  0  0  0  0  0  0
   -3.2798   -0.6973   -4.3843 C   0  0  0  0  0  0  0  0  0  0  0  0
   -2.6826   -0.5261   -3.2919 O   0  0  0  0  0  0  0  0  0  0  0  0
   -2.6679   -1.2730   -5.5645 C   0  0  0  0  0  0  0  0  0  0  0  0
   -1.3025   -1.5203   -5.7468 C   0  0  0  0  0  0  0  0  0  0  0  0
   -0.8032   -1.5816   -7.0570 C   0  0  0  0  0  0  0  0  0  0  0  0
    0.5735   -1.7139   -7.2916 C   0  0  0  0  0  0  0  0  0  0  0  0
    1.0830   -1.6157   -8.5904 C   0  0  0  0  0  0  0  0  0  0  0  0
    0.2188   -1.4144   -9.6689 C   0  0  0  0  0  0  0  0  0  0  0  0
    0.7185   -1.2126  -10.9076 F   0  0  0  0  0  0  0  0  0  0  0  0
   -1.1608   -1.3159   -9.4527 C   0  0  0  0  0  0  0  0  0  0  0  0
   -1.6804   -1.3965   -8.1605 C   0  0  0  0  0  0  0  0  0  0  0  0
   -3.0506   -1.1893   -7.9407 C   0  0  0  0  0  0  0  0  0  0  0  0
   -3.5378   -1.1485   -6.6326 C   0  0  0  0  0  0  0  0  0  0  0  0
   -4.8202   -0.5894   -6.1688 C   0  0  0  0  0  0  0  0  0  0  0  0
   -5.9995   -0.6702   -6.8397 C   0  0  0  0  0  0  0  0  0  0  0  0
   -6.1211   -1.4254   -8.0551 C   0  0  0  0  0  0  0  0  0  0  0  0
   -6.2479   -2.0393   -9.0241 N   0  0  0  0  0  0  0  0  0  0  0  0
   -7.2098   -0.0700   -6.3420 C   0  0  0  0  0  0  0  0  0  0  0  0
   -8.1902    0.4015   -5.9615 N   0  0  0  0  0  0  0  0  0  0  0  0
   -5.0090    1.1241   -2.6678 C   0  0  0  0  0  0  0  0  0  0  0  0
   -5.7299    0.5931   -1.5815 C   0  0  0  0  0  0  0  0  0  0  0  0
   -6.4982   -0.6270   -1.6618 N   0  0  0  0  0  0  0  0  0  0  0  0
   -6.0456   -1.8590   -1.0561 C   0  0  0  0  0  0  0  0  0  0  0  0
   -6.9770   -2.7144   -0.4337 C   0  0  0  0  0  0  0  0  0  0  0  0
   -6.5785   -3.9762    0.0247 C   0  0  0  0  0  0  0  0  0  0  0  0
   -5.2545   -4.4058   -0.1354 C   0  0  0  0  0  0  0  0  0  0  0  0
   -4.8467   -5.7751    0.3142 C   0  0  0  0  0  0  0  0  0  0  0  0
   -4.3213   -3.5455   -0.7489 C   0  0  0  0  0  0  0  0  0  0  0  0
   -4.7135   -2.2692   -1.1605 C   0  0  0  0  0  0  0  0  0  0  0  0
   -7.7230   -0.6541   -2.4091 C   0  0  0  0  0  0  0  0  0  0  0  0
   -8.7931    0.1934   -2.0814 C   0  0  0  0  0  0  0  0  0  0  0  0
  -10.0544    0.0055   -2.6644 C   0  0  0  0  0  0  0  0  0  0  0  0
  -10.2667   -1.0442   -3.5741 C   0  0  0  0  0  0  0  0  0  0  0  0
  -11.6137   -1.2761   -4.2000 C   0  0  0  0  0  0  0  0  0  0  0  0
   -9.1884   -1.8654   -3.9303 C   0  0  0  0  0  0  0  0  0  0  0  0
   -7.9357   -1.6798   -3.3456 C   0  0  0  0  0  0  0  0  0  0  0  0
   -5.9999    1.5568   -0.6146 C   0  0  0  0  0  0  0  0  0  0  0  0
   -5.3664    1.3917    0.9281 S   0  0  0  0  0  0  0  0  0  0  0  0
   -4.8346    2.9756    1.1948 C   0  0  0  0  0  0  0  0  0  0  0  0
   -5.4076    3.7150    0.1534 C   0  0  0  0  0  0  0  0  0  0  0  0
   -6.5098    4.6100    0.5093 N   0  0  0  0  0  0  0  0  0  0  0  0
   -7.1164    4.5528    1.8123 C   0  0  0  0  0  0  0  0  0  0  0  0
   -7.7012    3.3714    2.2806 C   0  0  0  0  0  0  0  0  0  0  0  0
   -8.2436    3.3239    3.5713 C   0  0  0  0  0  0  0  0  0  0  0  0
   -8.2168    4.4606    4.3946 C   0  0  0  0  0  0  0  0  0  0  0  0
   -8.7762    4.4130    5.7794 C   0  0  0  0  0  0  0  0  0  0  0  0
   -7.7437    5.6660    3.8681 C   0  0  0  0  0  0  0  0  0  0  0  0
   -7.2263    5.7159    2.5723 C   0  0  0  0  0  0  0  0  0  0  0  0
   -7.1872    5.3838   -0.5071 C   0  0  0  0  0  0  0  0  0  0  0  0
   -6.4596    6.1795   -1.4101 C   0  0  0  0  0  0  0  0  0  0  0  0
   -7.1355    7.0573   -2.2710 C   0  0  0  0  0  0  0  0  0  0  0  0
   -8.5366    7.1462   -2.2489 C   0  0  0  0  0  0  0  0  0  0  0  0
   -9.2535    8.0955   -3.1509 C   0  0  0  0  0  0  0  0  0  0  0  0
   -9.2596    6.3015   -1.4023 C   0  0  0  0  0  0  0  0  0  0  0  0
   -8.5911    5.4336   -0.5390 C   0  0  0  0  0  0  0  0  0  0  0  0
   -5.6371    2.8443   -0.9304 C   0  0  0  0  0  0  0  0  0  0  0  0
   -4.6621    2.7188   -2.2843 S   0  0  0  0  0  0  0  0  0  0  0  0
   -3.5095    3.3199    1.7847 C   0  0  0  0  0  0  0  0  0  0  0  0
   -3.1034    4.5389    2.3920 C   0  0  0  0  0  0  0  0  0  0  0  0
   -3.8911    5.7584    2.6047 C   0  0  0  0  0  0  0  0  0  0  0  0
   -4.2244    6.1297    3.9164 C   0  0  0  0  0  0  0  0  0  0  0  0
   -4.7148    7.4078    4.1753 C   0  0  0  0  0  0  0  0  0  0  0  0
   -4.8961    8.3226    3.1308 C   0  0  0  0  0  0  0  0  0  0  0  0
   -4.5745    7.9564    1.8151 C   0  0  0  0  0  0  0  0  0  0  0  0
   -4.7634    8.9451    0.6920 C   0  0  0  0  0  0  0  0  0  0  0  0
   -3.6442    9.9887    0.6725 C   0  0  0  0  0  0  0  0  0  0  0  0
   -4.0553    6.6753    1.5580 C   0  0  0  0  0  0  0  0  0  0  0  0
   -1.7456    4.5166    2.7177 C   0  0  0  0  0  0  0  0  0  0  0  0
   -0.6804    5.6495    3.4600 S   0  0  0  0  0  0  0  0  0  0  0  0
    0.6473    4.6261    3.1895 C   0  0  0  0  0  0  0  0  0  0  0  0
    1.9928    4.5292    3.4574 C   0  0  0  0  0  0  0  0  0  0  0  0
    2.8534    5.2136    4.3361 C   0  0  0  0  0  0  0  0  0  0  0  0
    4.1691    4.6884    4.5513 C   0  0  0  0  0  0  0  0  0  0  0  0
    4.9529    5.3576    5.4277 N   0  0  0  0  0  0  0  0  0  0  0  0
    3.8996    6.5465    5.9053 S   0  0  0  0  0  0  0  0  0  0  0  0
    2.4998    6.2957    5.0661 N   0  0  0  0  0  0  0  0  0  0  0  0
    4.5907    3.5775    3.8009 C   0  0  0  0  0  0  0  0  0  0  0  0
    5.7821    2.8978    3.6952 C   0  0  0  0  0  0  0  0  0  0  0  0
    7.1123    2.4569    4.6607 S   0  0  0  0  0  0  0  0  0  0  0  0
    7.5027    1.1272    3.6406 C   0  0  0  0  0  0  0  0  0  0  0  0
    8.2747   -0.0457    3.8014 C   0  0  0  0  0  0  0  0  0  0  0  0
    9.1879   -0.3375    4.9370 C   0  0  0  0  0  0  0  0  0  0  0  0
    8.8453    0.0217    6.2523 C   0  0  0  0  0  0  0  0  0  0  0  0
    9.7166   -0.2508    7.3111 C   0  0  0  0  0  0  0  0  0  0  0  0
   10.9317   -0.8912    7.0647 C   0  0  0  0  0  0  0  0  0  0  0  0
   11.2815   -1.2801    5.7597 C   0  0  0  0  0  0  0  0  0  0  0  0
   12.6086   -1.9534    5.5058 C   0  0  0  0  0  0  0  0  0  0  0  0
   13.6535   -0.9402    5.0373 C   0  0  0  0  0  0  0  0  0  0  0  0
   10.4108   -0.9988    4.6996 C   0  0  0  0  0  0  0  0  0  0  0  0
    7.9630   -0.9903    2.7925 C   0  0  0  0  0  0  0  0  0  0  0  0
    6.7500   -0.3610    1.7805 S   0  0  0  0  0  0  0  0  0  0  0  0
    6.6264    1.0802    2.5950 C   0  0  0  0  0  0  0  0  0  0  0  0
    5.6347    2.0345    2.6583 C   0  0  0  0  0  0  0  0  0  0  0  0
    4.4086    2.0672    2.0998 N   0  0  0  0  0  0  0  0  0  0  0  0
    3.7434    2.9729    2.8667 C   0  0  0  0  0  0  0  0  0  0  0  0
    2.3938    3.3599    2.8179 C   0  0  0  0  0  0  0  0  0  0  0  0
    1.3226    2.6483    2.3442 N   0  0  0  0  0  0  0  0  0  0  0  0
    0.2820    3.4811    2.5694 C   0  0  0  0  0  0  0  0  0  0  0  0
   -1.0862    3.3816    2.3420 C   0  0  0  0  0  0  0  0  0  0  0  0
   -2.1633    2.2998    1.6608 S   0  0  0  0  0  0  0  0  0  0  0  0
    1.1915    1.1938    2.2580 C   0  0  0  0  0  0  0  0  0  0  0  0
    0.9129    0.5808    3.6333 C   0  0  0  0  0  0  0  0  0  0  0  0
    4.1484    1.7772    0.6755 C   0  0  0  0  0  0  0  0  0  0  0  0
    4.9844    2.7055   -0.2124 C   0  0  0  0  0  0  0  0  0  0  0  0
    8.0534   -2.4434    2.9492 C   0  0  0  0  0  0  0  0  0  0  0  0
    6.8606   -3.2045    3.8626 S   0  0  0  0  0  0  0  0  0  0  0  0
    6.7415   -4.5807    2.9275 C   0  0  0  0  0  0  0  0  0  0  0  0
    5.5288   -5.2374    2.4900 C   0  0  0  0  0  0  0  0  0  0  0  0
    5.7099   -5.6533    1.1828 C   0  0  0  0  0  0  0  0  0  0  0  0
    7.0835   -5.2736    0.6637 C   0  0  0  0  0  0  0  0  0  0  0  0
    7.0287   -4.3477   -0.5746 C   0  0  0  0  0  0  0  0  0  0  0  0
    5.8649   -3.6388   -0.9472 C   0  0  0  0  0  0  0  0  0  0  0  0
    5.8563   -2.7881   -2.0564 C   0  0  0  0  0  0  0  0  0  0  0  0
    7.0197   -2.5815   -2.8015 C   0  0  0  0  0  0  0  0  0  0  0  0
    6.9860   -1.7067   -4.0221 C   0  0  0  0  0  0  0  0  0  0  0  0
    6.6516   -2.5332   -5.2571 C   0  0  0  0  0  0  0  0  0  0  0  0
    8.1916   -3.2515   -2.4279 C   0  0  0  0  0  0  0  0  0  0  0  0
    8.1974   -4.1121   -1.3253 C   0  0  0  0  0  0  0  0  0  0  0  0
    7.8117   -6.5967    0.4086 C   0  0  0  0  0  0  0  0  0  0  0  0
    7.7871   -7.1925   -0.8676 C   0  0  0  0  0  0  0  0  0  0  0  0
    8.2062   -8.5053   -1.0610 C   0  0  0  0  0  0  0  0  0  0  0  0
    8.5607   -9.3097    0.0306 C   0  0  0  0  0  0  0  0  0  0  0  0
    8.8691  -10.7688   -0.1723 C   0  0  0  0  0  0  0  0  0  0  0  0
    7.6504  -11.5169   -0.7212 C   0  0  0  0  0  0  0  0  0  0  0  0
    8.6089   -8.7310    1.3085 C   0  0  0  0  0  0  0  0  0  0  0  0
    8.2412   -7.3947    1.4934 C   0  0  0  0  0  0  0  0  0  0  0  0
    7.6016   -4.4890    1.8633 C   0  0  0  0  0  0  0  0  0  0  0  0
    8.3521   -3.2906    1.8640 C   0  0  0  0  0  0  0  0  0  0  0  0
    4.6454   -6.1825    0.4518 C   0  0  0  0  0  0  0  0  0  0  0  0
    3.3571   -6.1006    0.9946 C   0  0  0  0  0  0  0  0  0  0  0  0
    3.1475   -5.4852    2.2470 C   0  0  0  0  0  0  0  0  0  0  0  0
    4.2525   -5.1370    3.0493 C   0  0  0  0  0  0  0  0  0  0  0  0
    1.8333   -4.8998    2.5277 C   0  0  0  0  0  0  0  0  0  0  0  0
    1.5446   -3.6479    2.1147 C   0  0  0  0  0  0  0  0  0  0  0  0
    2.4797   -2.7936    1.3745 C   0  0  0  0  0  0  0  0  0  0  0  0
    3.7288   -2.7437    1.5147 O   0  0  0  0  0  0  0  0  0  0  0  0
    1.7129   -1.8978    0.5401 C   0  0  0  0  0  0  0  0  0  0  0  0
    2.2041   -1.0128   -0.4061 C   0  0  0  0  0  0  0  0  0  0  0  0
    1.3084   -0.1445   -1.0415 C   0  0  0  0  0  0  0  0  0  0  0  0
    1.7750    0.8184   -1.9460 C   0  0  0  0  0  0  0  0  0  0  0  0
    0.8821    1.7277   -2.5215 C   0  0  0  0  0  0  0  0  0  0  0  0
   -0.4702    1.6947   -2.1902 C   0  0  0  0  0  0  0  0  0  0  0  0
   -1.3227    2.5917   -2.7298 F   0  0  0  0  0  0  0  0  0  0  0  0
   -0.9541    0.7329   -1.2904 C   0  0  0  0  0  0  0  0  0  0  0  0
   -0.0795   -0.2094   -0.7297 C   0  0  0  0  0  0  0  0  0  0  0  0
   -0.5527   -1.1688    0.1940 C   0  0  0  0  0  0  0  0  0  0  0  0
    0.3654   -2.0143    0.8328 C   0  0  0  0  0  0  0  0  0  0  0  0
    0.1883   -3.0618    1.8907 C   0  0  0  0  0  0  0  0  0  0  0  0
   -0.9288   -3.3613    2.5959 C   0  0  0  0  0  0  0  0  0  0  0  0
   -0.9000   -4.2079    3.7563 C   0  0  0  0  0  0  0  0  0  0  0  0
   -0.8862   -4.8912    4.6904 N   0  0  0  0  0  0  0  0  0  0  0  0
   -2.2303   -2.8553    2.2440 C   0  0  0  0  0  0  0  0  0  0  0  0
   -3.2863   -2.4687    1.9419 N   0  0  0  0  0  0  0  0  0  0  0  0
   -6.0073    1.3500   -4.5931 H   0  0  0  0  0  0  0  0  0  0  0  0
   -0.6398   -1.5594   -4.8908 H   0  0  0  0  0  0  0  0  0  0  0  0
    1.2739   -1.8489   -6.4744 H   0  0  0  0  0  0  0  0  0  0  0  0
    2.1514   -1.6809   -8.7638 H   0  0  0  0  0  0  0  0  0  0  0  0
   -1.8198   -1.1215  -10.2944 H   0  0  0  0  0  0  0  0  0  0  0  0
   -3.7079   -0.9441   -8.7622 H   0  0  0  0  0  0  0  0  0  0  0  0
   -8.0092   -2.4128   -0.3259 H   0  0  0  0  0  0  0  0  0  0  0  0
   -7.3158   -4.6379    0.4552 H   0  0  0  0  0  0  0  0  0  0  0  0
   -3.7642   -5.9679    0.1312 H   0  0  0  0  0  0  0  0  0  0  0  0
   -5.0413   -5.8705    1.4071 H   0  0  0  0  0  0  0  0  0  0  0  0
   -5.4421   -6.5440   -0.2262 H   0  0  0  0  0  0  0  0  0  0  0  0
   -3.2962   -3.8493   -0.9024 H   0  0  0  0  0  0  0  0  0  0  0  0
   -3.9767   -1.6415   -1.6354 H   0  0  0  0  0  0  0  0  0  0  0  0
   -8.6681    0.9792   -1.3533 H   0  0  0  0  0  0  0  0  0  0  0  0
  -10.8746    0.6578   -2.3850 H   0  0  0  0  0  0  0  0  0  0  0  0
  -11.8881   -2.3472   -4.0917 H   0  0  0  0  0  0  0  0  0  0  0  0
  -11.5540   -1.0239   -5.2859 H   0  0  0  0  0  0  0  0  0  0  0  0
  -12.3908   -0.6511   -3.7218 H   0  0  0  0  0  0  0  0  0  0  0  0
   -9.3326   -2.6808   -4.6349 H   0  0  0  0  0  0  0  0  0  0  0  0
   -7.1292   -2.3483   -3.6233 H   0  0  0  0  0  0  0  0  0  0  0  0
   -7.7630    2.5024    1.6433 H   0  0  0  0  0  0  0  0  0  0  0  0
   -8.6776    2.4018    3.9493 H   0  0  0  0  0  0  0  0  0  0  0  0
   -9.8434    4.7111    5.7715 H   0  0  0  0  0  0  0  0  0  0  0  0
   -8.2050    5.0870    6.4510 H   0  0  0  0  0  0  0  0  0  0  0  0
   -8.6956    3.3852    6.1902 H   0  0  0  0  0  0  0  0  0  0  0  0
   -7.7691    6.5739    4.4680 H   0  0  0  0  0  0  0  0  0  0  0  0
   -6.9010    6.6723    2.1754 H   0  0  0  0  0  0  0  0  0  0  0  0
   -5.3881    6.1500   -1.4058 H   0  0  0  0  0  0  0  0  0  0  0  0
   -6.5557    7.6793   -2.9425 H   0  0  0  0  0  0  0  0  0  0  0  0
   -9.4714    7.6010   -4.1249 H   0  0  0  0  0  0  0  0  0  0  0  0
  -10.2170    8.4137   -2.6935 H   0  0  0  0  0  0  0  0  0  0  0  0
   -8.6456    9.0050   -3.3252 H   0  0  0  0  0  0  0  0  0  0  0  0
  -10.3450    6.3216   -1.3854 H   0  0  0  0  0  0  0  0  0  0  0  0
   -9.1768    4.8049    0.1297 H   0  0  0  0  0  0  0  0  0  0  0  0
   -4.0571    5.4525    4.7388 H   0  0  0  0  0  0  0  0  0  0  0  0
   -4.9558    7.6995    5.1914 H   0  0  0  0  0  0  0  0  0  0  0  0
   -5.2885    9.3144    3.3543 H   0  0  0  0  0  0  0  0  0  0  0  0
   -4.7863    8.4304   -0.2879 H   0  0  0  0  0  0  0  0  0  0  0  0
   -5.7426    9.4667    0.8201 H   0  0  0  0  0  0  0  0  0  0  0  0
   -3.5911   10.5257    1.6482 H   0  0  0  0  0  0  0  0  0  0  0  0
   -3.8385   10.7274   -0.1273 H   0  0  0  0  0  0  0  0  0  0  0  0
   -2.6647    9.4948    0.4756 H   0  0  0  0  0  0  0  0  0  0  0  0
   -3.7428    6.4081    0.5557 H   0  0  0  0  0  0  0  0  0  0  0  0
    7.8941    0.4868    6.4726 H   0  0  0  0  0  0  0  0  0  0  0  0
    9.4511    0.0345    8.3163 H   0  0  0  0  0  0  0  0  0  0  0  0
   11.6038   -1.0906    7.8952 H   0  0  0  0  0  0  0  0  0  0  0  0
   12.4874   -2.7462    4.7364 H   0  0  0  0  0  0  0  0  0  0  0  0
   12.9783   -2.4446    6.4403 H   0  0  0  0  0  0  0  0  0  0  0  0
   14.6636   -1.3893    5.0911 H   0  0  0  0  0  0  0  0  0  0  0  0
   13.6313   -0.0329    5.6718 H   0  0  0  0  0  0  0  0  0  0  0  0
   13.4498   -0.6571    3.9843 H   0  0  0  0  0  0  0  0  0  0  0  0
   10.6807   -1.2809    3.6977 H   0  0  0  0  0  0  0  0  0  0  0  0
    0.3626    0.9373    1.5743 H   0  0  0  0  0  0  0  0  0  0  0  0
    2.1064    0.7196    1.8688 H   0  0  0  0  0  0  0  0  0  0  0  0
   -0.1629    0.7088    3.9024 H   0  0  0  0  0  0  0  0  0  0  0  0
    1.5753    1.0368    4.4076 H   0  0  0  0  0  0  0  0  0  0  0  0
    1.1199   -0.5080    3.5828 H   0  0  0  0  0  0  0  0  0  0  0  0
    4.4180    0.7292    0.4582 H   0  0  0  0  0  0  0  0  0  0  0  0
    3.0867    1.9588    0.4111 H   0  0  0  0  0  0  0  0  0  0  0  0
    4.7210    3.7732   -0.0130 H   0  0  0  0  0  0  0  0  0  0  0  0
    4.7754    2.4784   -1.2826 H   0  0  0  0  0  0  0  0  0  0  0  0
    6.0762    2.5574   -0.0202 H   0  0  0  0  0  0  0  0  0  0  0  0
    4.9384   -3.7396   -0.4031 H   0  0  0  0  0  0  0  0  0  0  0  0
    4.9283   -2.2947   -2.3322 H   0  0  0  0  0  0  0  0  0  0  0  0
    7.9708   -1.2117   -4.1571 H   0  0  0  0  0  0  0  0  0  0  0  0
    6.2258   -0.9028   -3.8953 H   0  0  0  0  0  0  0  0  0  0  0  0
    7.4278   -3.3053   -5.4217 H   0  0  0  0  0  0  0  0  0  0  0  0
    5.6648   -3.0257   -5.1363 H   0  0  0  0  0  0  0  0  0  0  0  0
    6.6137   -1.8687   -6.1473 H   0  0  0  0  0  0  0  0  0  0  0  0
    9.1007   -3.1129   -3.0044 H   0  0  0  0  0  0  0  0  0  0  0  0
    9.1267   -4.6002   -1.0622 H   0  0  0  0  0  0  0  0  0  0  0  0
    7.3975   -6.6684   -1.7331 H   0  0  0  0  0  0  0  0  0  0  0  0
    8.1729   -8.9282   -2.0624 H   0  0  0  0  0  0  0  0  0  0  0  0
    9.1683  -11.2480    0.7895 H   0  0  0  0  0  0  0  0  0  0  0  0
    9.7088  -10.8660   -0.8890 H   0  0  0  0  0  0  0  0  0  0  0  0
    6.7564  -11.3467   -0.0865 H   0  0  0  0  0  0  0  0  0  0  0  0
    7.4404  -11.1933   -1.7660 H   0  0  0  0  0  0  0  0  0  0  0  0
    7.8675  -12.6022   -0.7545 H   0  0  0  0  0  0  0  0  0  0  0  0
    8.8811   -9.3257    2.1699 H   0  0  0  0  0  0  0  0  0  0  0  0
    8.2193   -7.0085    2.5046 H   0  0  0  0  0  0  0  0  0  0  0  0
    8.8915   -2.9325    1.0038 H   0  0  0  0  0  0  0  0  0  0  0  0
    4.7839   -6.5283   -0.5574 H   0  0  0  0  0  0  0  0  0  0  0  0
    2.5083   -6.3369    0.3608 H   0  0  0  0  0  0  0  0  0  0  0  0
    4.1127   -4.6207    3.9930 H   0  0  0  0  0  0  0  0  0  0  0  0
    1.0547   -5.5779    2.8480 H   0  0  0  0  0  0  0  0  0  0  0  0
    3.2667   -0.9856   -0.6251 H   0  0  0  0  0  0  0  0  0  0  0  0
    2.8302    0.8778   -2.1959 H   0  0  0  0  0  0  0  0  0  0  0  0
    1.2578    2.4803   -3.2034 H   0  0  0  0  0  0  0  0  0  0  0  0
   -2.0039    0.7312   -1.0351 H   0  0  0  0  0  0  0  0  0  0  0  0
   -1.6055   -1.2030    0.4207 H   0  0  0  0  0  0  0  0  0  0  0  0
  1  2  2  3
  2  3  1  0
  3  4  2  0
  3  5  1  0
  5  6  2  0
  6  7  1  0
  7  8  2  0
  8  9  1  0
  9 10  2  0
 10 11  1  0
 10 12  1  0
 12 13  2  0
 13 14  1  0
 14 15  2  0
 15 16  1  0
 16 17  2  3
 17 18  1  0
 18 19  3  0
 17 20  1  0
 20 21  3  0
  1 22  1  0
 22 23  2  0
 23 24  1  0
 24 25  1  0
 25 26  2  0
 26 27  1  0
 27 28  2  0
 28 29  1  0
 28 30  1  0
 30 31  2  0
 24 32  1  0
 32 33  2  0
 33 34  1  0
 34 35  2  0
 35 36  1  0
 35 37  1  0
 37 38  2  0
 23 39  1  0
 39 40  1  0
 40 41  1  0
 41 42  2  0
 42 43  1  0
 43 44  1  0
 44 45  2  0
 45 46  1  0
 46 47  2  0
 47 48  1  0
 47 49  1  0
 49 50  2  0
 43 51  1  0
 51 52  2  0
 52 53  1  0
 53 54  2  0
 54 55  1  0
 54 56  1  0
 56 57  2  0
 42 58  1  0
 58 59  1  0
 41 60  1  0
 60 61  2  0
 61 62  1  0
 62 63  2  0
 63 64  1  0
 64 65  2  0
 65 66  1  0
 66 67  1  0
 67 68  1  0
 66 69  2  0
 61 70  1  0
 70 71  1  0
 71 72  1  0
 72 73  1  0
 73 74  1  0
 74 75  1  0
 75 76  2  0
 76 77  1  0
 77 78  1  0
 75 79  1  0
 79 80  1  0
 80 81  1  0
 81 82  1  0
 82 83  1  0
 83 84  1  0
 84 85  2  0
 85 86  1  0
 86 87  2  0
 87 88  1  0
 88 89  1  0
 89 90  1  0
 88 91  2  0
 83 92  2  0
 92 93  1  0
 93 94  1  0
 94 95  1  0
 95 96  1  0
 96 97  1  0
 97 98  1  0
 98 99  1  0
 99100  1  0
100101  1  0
101102  1  0
 99103  1  0
103104  1  0
 96105  1  0
105106  1  0
 92107  1  0
107108  1  0
108109  1  0
109110  1  0
110111  2  0
111112  1  0
112113  1  0
113114  2  0
114115  1  0
115116  2  0
116117  1  0
117118  1  0
116119  1  0
119120  2  0
112121  1  0
121122  2  0
122123  1  0
123124  2  0
124125  1  0
125126  1  0
124127  1  0
127128  2  0
112129  1  0
129130  1  0
111131  1  0
131132  2  0
132133  1  0
133134  2  0
133135  1  0
135136  2  3
136137  1  0
137138  2  0
137139  1  0
139140  2  0
140141  1  0
141142  2  0
142143  1  0
143144  2  0
144145  1  0
144146  1  0
146147  2  0
147148  1  0
148149  2  0
149150  1  0
150151  2  3
151152  1  0
152153  3  0
151154  1  0
154155  3  0
 16  2  1  0
 59 22  1  0
102 60  1  0
130107  2  0
150136  1  0
 15  5  1  0
 31 25  1  0
 38 32  1  0
 58 39  2  0
 69 62  1  0
101 70  2  0
129109  2  0
149139  1  0
 13  7  1  0
 50 44  1  0
 57 51  1  0
100 72  2  0
134110  1  0
147141  1  0
 98 73  2  0
120113  1  0
128121  1  0
 78 74  2  0
 97 79  2  0
 95 80  2  0
 94 82  2  0
 91 84  1  0
  1156  1  0
  6157  1  0
  8158  1  0
  9159  1  0
 12160  1  0
 14161  1  0
 26162  1  0
 27163  1  0
 29164  1  0
 29165  1  0
 29166  1  0
 30167  1  0
 31168  1  0
 33169  1  0
 34170  1  0
 36171  1  0
 36172  1  0
 36173  1  0
 37174  1  0
 38175  1  0
 45176  1  0
 46177  1  0
 48178  1  0
 48179  1  0
 48180  1  0
 49181  1  0
 50182  1  0
 52183  1  0
 53184  1  0
 55185  1  0
 55186  1  0
 55187  1  0
 56188  1  0
 57189  1  0
 63190  1  0
 64191  1  0
 65192  1  0
 67193  1  0
 67194  1  0
 68195  1  0
 68196  1  0
 68197  1  0
 69198  1  0
 85199  1  0
 86200  1  0
 87201  1  0
 89202  1  0
 89203  1  0
 90204  1  0
 90205  1  0
 90206  1  0
 91207  1  0
103208  1  0
103209  1  0
104210  1  0
104211  1  0
104212  1  0
105213  1  0
105214  1  0
106215  1  0
106216  1  0
106217  1  0
114218  1  0
115219  1  0
117220  1  0
117221  1  0
118222  1  0
118223  1  0
118224  1  0
119225  1  0
120226  1  0
122227  1  0
123228  1  0
125229  1  0
125230  1  0
126231  1  0
126232  1  0
126233  1  0
127234  1  0
128235  1  0
130236  1  0
131237  1  0
132238  1  0
134239  1  0
135240  1  0
140241  1  0
142242  1  0
143243  1  0
146244  1  0
148245  1  0
M  END

