
     RDKit          3D

239264  0  0  0  0  0  0  0  0999 V2000
   -1.3309   -7.8913    4.4479 C   0  0  0  0  0  0  0  0  0  0  0  0
   -0.2986   -8.2820    3.6674 C   0  0  0  0  0  0  0  0  0  0  0  0
    0.5812   -7.3801    2.9090 C   0  0  0  0  0  0  0  0  0  0  0  0
    0.3528   -6.1754    2.6163 O   0  0  0  0  0  0  0  0  0  0  0  0
    1.8160   -8.0723    2.6150 C   0  0  0  0  0  0  0  0  0  0  0  0
    2.9786   -7.5341    2.0616 C   0  0  0  0  0  0  0  0  0  0  0  0
    4.1244   -8.3398    1.9910 C   0  0  0  0  0  0  0  0  0  0  0  0
    5.3176   -7.8338    1.4533 C   0  0  0  0  0  0  0  0  0  0  0  0
    6.4615   -8.6347    1.4118 C   0  0  0  0  0  0  0  0  0  0  0  0
    6.4255   -9.9398    1.9100 C   0  0  0  0  0  0  0  0  0  0  0  0
    7.5417  -10.7090    1.8642 F   0  0  0  0  0  0  0  0  0  0  0  0
    5.2441  -10.4590    2.4486 C   0  0  0  0  0  0  0  0  0  0  0  0
    4.0832   -9.6708    2.4930 C   0  0  0  0  0  0  0  0  0  0  0  0
    2.8927  -10.1832    3.0511 C   0  0  0  0  0  0  0  0  0  0  0  0
    1.7480   -9.3676    3.0967 C   0  0  0  0  0  0  0  0  0  0  0  0
    0.3961   -9.6093    3.6906 C   0  0  0  0  0  0  0  0  0  0  0  0
   -0.1413  -10.8065    4.0473 C   0  0  0  0  0  0  0  0  0  0  0  0
    0.5941  -12.0374    3.9856 C   0  0  0  0  0  0  0  0  0  0  0  0
    1.1778  -13.0414    3.9418 N   0  0  0  0  0  0  0  0  0  0  0  0
   -1.5215  -10.9492    4.4255 C   0  0  0  0  0  0  0  0  0  0  0  0
   -2.6333  -11.0816    4.7278 N   0  0  0  0  0  0  0  0  0  0  0  0
   -1.7100   -6.4807    4.6145 C   0  0  0  0  0  0  0  0  0  0  0  0
   -1.3004   -5.6623    5.6812 C   0  0  0  0  0  0  0  0  0  0  0  0
   -0.6152   -6.1128    6.8659 N   0  0  0  0  0  0  0  0  0  0  0  0
    0.4946   -7.0182    6.7500 C   0  0  0  0  0  0  0  0  0  0  0  0
    1.6365   -6.6493    6.0245 C   0  0  0  0  0  0  0  0  0  0  0  0
    2.7108   -7.5351    5.9069 C   0  0  0  0  0  0  0  0  0  0  0  0
    2.6448   -8.8078    6.4934 C   0  0  0  0  0  0  0  0  0  0  0  0
    3.8145   -9.7403    6.4039 C   0  0  0  0  0  0  0  0  0  0  0  0
    1.5021   -9.1744    7.2213 C   0  0  0  0  0  0  0  0  0  0  0  0
    0.4335   -8.2834    7.3499 C   0  0  0  0  0  0  0  0  0  0  0  0
   -1.0563   -5.6590    8.1667 C   0  0  0  0  0  0  0  0  0  0  0  0
   -0.1301   -5.4323    9.2013 C   0  0  0  0  0  0  0  0  0  0  0  0
   -0.5602   -4.9671   10.4487 C   0  0  0  0  0  0  0  0  0  0  0  0
   -1.9203   -4.7142   10.6797 C   0  0  0  0  0  0  0  0  0  0  0  0
   -2.3841   -4.2516   12.0292 C   0  0  0  0  0  0  0  0  0  0  0  0
   -2.8506   -4.9646    9.6609 C   0  0  0  0  0  0  0  0  0  0  0  0
   -2.4229   -5.4297    8.4152 C   0  0  0  0  0  0  0  0  0  0  0  0
   -1.6009   -4.3268    5.4299 C   0  0  0  0  0  0  0  0  0  0  0  0
   -0.9179   -2.9089    6.0063 S   0  0  0  0  0  0  0  0  0  0  0  0
   -1.5058   -1.9391    4.7358 C   0  0  0  0  0  0  0  0  0  0  0  0
   -2.2342   -2.7484    3.8453 C   0  0  0  0  0  0  0  0  0  0  0  0
   -2.8080   -2.2968    2.6055 N   0  0  0  0  0  0  0  0  0  0  0  0
   -1.9672   -1.6845    1.6121 C   0  0  0  0  0  0  0  0  0  0  0  0
   -0.7443   -2.2768    1.2566 C   0  0  0  0  0  0  0  0  0  0  0  0
    0.0910   -1.6616    0.3177 C   0  0  0  0  0  0  0  0  0  0  0  0
   -0.2841   -0.4458   -0.2711 C   0  0  0  0  0  0  0  0  0  0  0  0
    0.5900    0.1822   -1.3146 C   0  0  0  0  0  0  0  0  0  0  0  0
   -1.5180    0.1335    0.0616 C   0  0  0  0  0  0  0  0  0  0  0  0
   -2.3535   -0.4826    1.0010 C   0  0  0  0  0  0  0  0  0  0  0  0
   -4.2160   -2.5249    2.3641 C   0  0  0  0  0  0  0  0  0  0  0  0
   -5.1334   -2.5088    3.4321 C   0  0  0  0  0  0  0  0  0  0  0  0
   -6.4793   -2.8223    3.2223 C   0  0  0  0  0  0  0  0  0  0  0  0
   -6.9394   -3.1386    1.9376 C   0  0  0  0  0  0  0  0  0  0  0  0
   -8.3624   -3.5605    1.7276 C   0  0  0  0  0  0  0  0  0  0  0  0
   -6.0345   -3.1437    0.8647 C   0  0  0  0  0  0  0  0  0  0  0  0
   -4.6838   -2.8351    1.0742 C   0  0  0  0  0  0  0  0  0  0  0  0
   -2.2504   -4.0786    4.2604 C   0  0  0  0  0  0  0  0  0  0  0  0
   -2.4739   -5.5221    3.4242 S   0  0  0  0  0  0  0  0  0  0  0  0
   -0.8071   -0.7103    4.3519 C   0  0  0  0  0  0  0  0  0  0  0  0
   -1.3215    0.6021    4.2515 C   0  0  0  0  0  0  0  0  0  0  0  0
   -2.7354    1.0009    4.4680 C   0  0  0  0  0  0  0  0  0  0  0  0
   -3.3306    1.9688    3.6420 C   0  0  0  0  0  0  0  0  0  0  0  0
   -4.6505    2.3670    3.8464 C   0  0  0  0  0  0  0  0  0  0  0  0
   -5.4171    1.7653    4.8427 C   0  0  0  0  0  0  0  0  0  0  0  0
   -4.8709    0.7428    5.6406 C   0  0  0  0  0  0  0  0  0  0  0  0
   -5.6851    0.0678    6.7229 C   0  0  0  0  0  0  0  0  0  0  0  0
   -7.1403   -0.1946    6.3165 C   0  0  0  0  0  0  0  0  0  0  0  0
   -3.5172    0.3975    5.4721 C   0  0  0  0  0  0  0  0  0  0  0  0
   -0.3114    1.4640    3.7910 C   0  0  0  0  0  0  0  0  0  0  0  0
   -0.1832    3.1555    3.5454 S   0  0  0  0  0  0  0  0  0  0  0  0
    1.3841    2.9863    2.9107 C   0  0  0  0  0  0  0  0  0  0  0  0
    2.4164    3.7214    2.3949 C   0  0  0  0  0  0  0  0  0  0  0  0
    2.6813    5.0882    2.3451 C   0  0  0  0  0  0  0  0  0  0  0  0
    3.9317    5.5185    1.7955 C   0  0  0  0  0  0  0  0  0  0  0  0
    4.1425    6.8559    1.7500 N   0  0  0  0  0  0  0  0  0  0  0  0
    2.7370    7.3912    2.4420 S   0  0  0  0  0  0  0  0  0  0  0  0
    1.8368    6.0464    2.7925 N   0  0  0  0  0  0  0  0  0  0  0  0
    4.8150    4.5627    1.2527 C   0  0  0  0  0  0  0  0  0  0  0  0
    5.7505    4.7383    0.2632 C   0  0  0  0  0  0  0  0  0  0  0  0
    6.0691    6.0940   -0.6852 S   0  0  0  0  0  0  0  0  0  0  0  0
    6.2504    5.1907   -2.1063 C   0  0  0  0  0  0  0  0  0  0  0  0
    5.9205    5.6242   -3.4003 C   0  0  0  0  0  0  0  0  0  0  0  0
    6.1442    7.0388   -3.8436 C   0  0  0  0  0  0  0  0  0  0  0  0
    7.2444    7.7489   -3.3194 C   0  0  0  0  0  0  0  0  0  0  0  0
    7.4838    9.0754   -3.6817 C   0  0  0  0  0  0  0  0  0  0  0  0
    6.6229    9.7248   -4.5691 C   0  0  0  0  0  0  0  0  0  0  0  0
    5.5330    9.0369   -5.1183 C   0  0  0  0  0  0  0  0  0  0  0  0
    4.5627    9.7522   -6.0209 C   0  0  0  0  0  0  0  0  0  0  0  0
    3.5927   10.5945   -5.1969 C   0  0  0  0  0  0  0  0  0  0  0  0
    5.3157    7.6946   -4.7784 C   0  0  0  0  0  0  0  0  0  0  0  0
    5.2614    4.6048   -4.1349 C   0  0  0  0  0  0  0  0  0  0  0  0
    5.3610    3.1826   -3.2198 S   0  0  0  0  0  0  0  0  0  0  0  0
    6.0287    3.8520   -1.8401 C   0  0  0  0  0  0  0  0  0  0  0  0
    5.7641    3.5848   -0.4812 C   0  0  0  0  0  0  0  0  0  0  0  0
    4.9853    2.6152    0.0836 N   0  0  0  0  0  0  0  0  0  0  0  0
    4.4647    3.2079    1.2027 C   0  0  0  0  0  0  0  0  0  0  0  0
    3.3448    2.7803    1.9431 C   0  0  0  0  0  0  0  0  0  0  0  0
    2.9922    1.5141    2.3106 N   0  0  0  0  0  0  0  0  0  0  0  0
    1.7823    1.6921    2.8846 C   0  0  0  0  0  0  0  0  0  0  0  0
    0.8572    0.8400    3.4464 C   0  0  0  0  0  0  0  0  0  0  0  0
    0.7979   -0.7852    3.7838 S   0  0  0  0  0  0  0  0  0  0  0  0
    3.8774    0.3584    2.5040 C   0  0  0  0  0  0  0  0  0  0  0  0
    4.4357    0.3445    3.9221 C   0  0  0  0  0  0  0  0  0  0  0  0
    4.3915    1.4790   -0.6482 C   0  0  0  0  0  0  0  0  0  0  0  0
    5.4581    0.4604   -1.0607 C   0  0  0  0  0  0  0  0  0  0  0  0
    3.9398    4.8376   -4.7268 C   0  0  0  0  0  0  0  0  0  0  0  0
    2.9322    5.5063   -4.0331 C   0  0  0  0  0  0  0  0  0  0  0  0
    1.6749    5.3764   -4.6250 C   0  0  0  0  0  0  0  0  0  0  0  0
    0.4822    5.9233   -4.1288 C   0  0  0  0  0  0  0  0  0  0  0  0
    0.4566    6.7561   -2.9127 C   0  0  0  0  0  0  0  0  0  0  0  0
    0.7234    8.1311   -2.9938 C   0  0  0  0  0  0  0  0  0  0  0  0
    0.6684    8.9252   -1.8433 C   0  0  0  0  0  0  0  0  0  0  0  0
    0.3508    8.3476   -0.6076 C   0  0  0  0  0  0  0  0  0  0  0  0
    0.2084    9.3731    0.8561 S   0  0  0  0  0  0  0  0  0  0  0  0
   -1.6038    9.5435    0.7174 C   0  0  0  0  0  0  0  0  0  0  0  0
   -2.1704   10.2019    1.9693 C   0  0  0  0  0  0  0  0  0  0  0  0
    0.1257    6.9675   -0.5182 C   0  0  0  0  0  0  0  0  0  0  0  0
    0.1731    6.1743   -1.6682 C   0  0  0  0  0  0  0  0  0  0  0  0
   -0.6895    5.6361   -4.8400 C   0  0  0  0  0  0  0  0  0  0  0  0
   -0.6978    4.8346   -5.9865 C   0  0  0  0  0  0  0  0  0  0  0  0
    0.5050    4.2865   -6.4851 C   0  0  0  0  0  0  0  0  0  0  0  0
    0.5361    3.4554   -7.7011 C   0  0  0  0  0  0  0  0  0  0  0  0
   -0.1080    2.2089   -7.7262 C   0  0  0  0  0  0  0  0  0  0  0  0
   -0.0643    1.4203   -8.8795 C   0  0  0  0  0  0  0  0  0  0  0  0
    0.6190    1.8740  -10.0144 C   0  0  0  0  0  0  0  0  0  0  0  0
    0.6775    0.8583  -11.4934 S   0  0  0  0  0  0  0  0  0  0  0  0
    2.2254   -0.0062  -11.0424 C   0  0  0  0  0  0  0  0  0  0  0  0
    3.4462    0.8050  -11.4584 C   0  0  0  0  0  0  0  0  0  0  0  0
    1.2375    3.1300  -10.0008 C   0  0  0  0  0  0  0  0  0  0  0  0
    1.2102    3.9112   -8.8438 C   0  0  0  0  0  0  0  0  0  0  0  0
    1.6827    4.5826   -5.7734 C   0  0  0  0  0  0  0  0  0  0  0  0
    3.2563    4.0265   -6.0434 S   0  0  0  0  0  0  0  0  0  0  0  0
   -1.9761    4.7091   -6.5518 C   0  0  0  0  0  0  0  0  0  0  0  0
   -2.9559    5.3936   -5.8316 C   0  0  0  0  0  0  0  0  0  0  0  0
   -2.2465    6.1942   -4.5324 S   0  0  0  0  0  0  0  0  0  0  0  0
   -4.3583    5.5583   -6.2316 C   0  0  0  0  0  0  0  0  0  0  0  0
   -5.2046    4.5325   -6.4513 C   0  0  0  0  0  0  0  0  0  0  0  0
   -4.8690    3.1091   -6.3182 C   0  0  0  0  0  0  0  0  0  0  0  0
   -3.8544    2.6296   -5.7443 O   0  0  0  0  0  0  0  0  0  0  0  0
   -5.9322    2.3287   -6.9098 C   0  0  0  0  0  0  0  0  0  0  0  0
   -6.9399    3.1741   -7.3476 C   0  0  0  0  0  0  0  0  0  0  0  0
   -8.0384    2.6378   -8.0441 C   0  0  0  0  0  0  0  0  0  0  0  0
   -8.1139    1.2494   -8.2387 C   0  0  0  0  0  0  0  0  0  0  0  0
   -9.1701    0.7222   -8.9064 F   0  0  0  0  0  0  0  0  0  0  0  0
   -7.0956    0.4064   -7.7627 C   0  0  0  0  0  0  0  0  0  0  0  0
   -7.1749   -0.9318   -7.9632 F   0  0  0  0  0  0  0  0  0  0  0  0
   -5.9855    0.9473   -7.0979 C   0  0  0  0  0  0  0  0  0  0  0  0
   -4.9783    0.1449   -6.6673 F   0  0  0  0  0  0  0  0  0  0  0  0
   -6.6003    4.5881   -6.9988 C   0  0  0  0  0  0  0  0  0  0  0  0
   -7.4466    5.6556   -7.0145 C   0  0  0  0  0  0  0  0  0  0  0  0
   -7.0987    6.9383   -6.4637 C   0  0  0  0  0  0  0  0  0  0  0  0
   -6.8332    7.9759   -6.0229 N   0  0  0  0  0  0  0  0  0  0  0  0
   -8.8032    5.5681   -7.4842 C   0  0  0  0  0  0  0  0  0  0  0  0
   -9.8976    5.5116   -7.8545 N   0  0  0  0  0  0  0  0  0  0  0  0
   -1.7415   -8.5667    5.1771 H   0  0  0  0  0  0  0  0  0  0  0  0
    2.9932   -6.5027    1.7256 H   0  0  0  0  0  0  0  0  0  0  0  0
    5.3667   -6.8204    1.0727 H   0  0  0  0  0  0  0  0  0  0  0  0
    7.3786   -8.2383    0.9938 H   0  0  0  0  0  0  0  0  0  0  0  0
    5.2365  -11.4712    2.8324 H   0  0  0  0  0  0  0  0  0  0  0  0
    2.9035  -11.1744    3.4733 H   0  0  0  0  0  0  0  0  0  0  0  0
    1.6900   -5.6734    5.5590 H   0  0  0  0  0  0  0  0  0  0  0  0
    3.5880   -7.2309    5.3495 H   0  0  0  0  0  0  0  0  0  0  0  0
    4.4868   -9.5783    7.2752 H   0  0  0  0  0  0  0  0  0  0  0  0
    4.3938   -9.5599    5.4737 H   0  0  0  0  0  0  0  0  0  0  0  0
    3.4726  -10.7984    6.3992 H   0  0  0  0  0  0  0  0  0  0  0  0
    1.4413  -10.1493    7.6908 H   0  0  0  0  0  0  0  0  0  0  0  0
   -0.4484   -8.5802    7.9065 H   0  0  0  0  0  0  0  0  0  0  0  0
    0.9270   -5.5987    9.0362 H   0  0  0  0  0  0  0  0  0  0  0  0
    0.1702   -4.7973   11.2315 H   0  0  0  0  0  0  0  0  0  0  0  0
   -1.5965   -3.6455   12.5315 H   0  0  0  0  0  0  0  0  0  0  0  0
   -3.2925   -3.6168   11.9352 H   0  0  0  0  0  0  0  0  0  0  0  0
   -2.6207   -5.1308   12.6611 H   0  0  0  0  0  0  0  0  0  0  0  0
   -3.9060   -4.7976    9.8300 H   0  0  0  0  0  0  0  0  0  0  0  0
   -3.1597   -5.6182    7.6439 H   0  0  0  0  0  0  0  0  0  0  0  0
   -0.4355   -3.2085    1.7141 H   0  0  0  0  0  0  0  0  0  0  0  0
    1.0285   -2.1329    0.0527 H   0  0  0  0  0  0  0  0  0  0  0  0
    1.6594    0.0255   -1.0684 H   0  0  0  0  0  0  0  0  0  0  0  0
    0.4054    1.2757   -1.3916 H   0  0  0  0  0  0  0  0  0  0  0  0
    0.3807   -0.2923   -2.2981 H   0  0  0  0  0  0  0  0  0  0  0  0
   -1.8339    1.0613   -0.4032 H   0  0  0  0  0  0  0  0  0  0  0  0
   -3.2936   -0.0140    1.2624 H   0  0  0  0  0  0  0  0  0  0  0  0
   -4.8063   -2.2646    4.4355 H   0  0  0  0  0  0  0  0  0  0  0  0
   -7.1581   -2.8313    4.0660 H   0  0  0  0  0  0  0  0  0  0  0  0
   -8.7119   -3.2726    0.7126 H   0  0  0  0  0  0  0  0  0  0  0  0
   -8.4397   -4.6610    1.8393 H   0  0  0  0  0  0  0  0  0  0  0  0
   -9.0314   -3.0749    2.4724 H   0  0  0  0  0  0  0  0  0  0  0  0
   -6.3731   -3.4075   -0.1326 H   0  0  0  0  0  0  0  0  0  0  0  0
   -4.0023   -2.8716    0.2337 H   0  0  0  0  0  0  0  0  0  0  0  0
   -2.7808    2.4143    2.8237 H   0  0  0  0  0  0  0  0  0  0  0  0
   -5.0827    3.1395    3.2233 H   0  0  0  0  0  0  0  0  0  0  0  0
   -6.4342    2.0978    4.9835 H   0  0  0  0  0  0  0  0  0  0  0  0
   -5.6588    0.6951    7.6375 H   0  0  0  0  0  0  0  0  0  0  0  0
   -5.2245   -0.9118    6.9720 H   0  0  0  0  0  0  0  0  0  0  0  0
   -7.7387    0.7363    6.3966 H   0  0  0  0  0  0  0  0  0  0  0  0
   -7.5847   -0.9480    6.9970 H   0  0  0  0  0  0  0  0  0  0  0  0
   -7.1969   -0.5795    5.2769 H   0  0  0  0  0  0  0  0  0  0  0  0
   -3.0712   -0.3273    6.1357 H   0  0  0  0  0  0  0  0  0  0  0  0
    7.9344    7.2757   -2.6344 H   0  0  0  0  0  0  0  0  0  0  0  0
    8.3220    9.6118   -3.2599 H   0  0  0  0  0  0  0  0  0  0  0  0
    6.7995   10.7637   -4.8172 H   0  0  0  0  0  0  0  0  0  0  0  0
    3.9748    9.0269   -6.6275 H   0  0  0  0  0  0  0  0  0  0  0  0
    5.1135   10.4072   -6.7338 H   0  0  0  0  0  0  0  0  0  0  0  0
    2.8336   11.0525   -5.8636 H   0  0  0  0  0  0  0  0  0  0  0  0
    4.1398   11.4041   -4.6665 H   0  0  0  0  0  0  0  0  0  0  0  0
    3.0691    9.9611   -4.4482 H   0  0  0  0  0  0  0  0  0  0  0  0
    4.4924    7.1945   -5.2494 H   0  0  0  0  0  0  0  0  0  0  0  0
    4.7412    0.4100    1.8146 H   0  0  0  0  0  0  0  0  0  0  0  0
    3.3207   -0.5811    2.2966 H   0  0  0  0  0  0  0  0  0  0  0  0
    3.6129    0.2914    4.6617 H   0  0  0  0  0  0  0  0  0  0  0  0
    5.0266    1.2682    4.1036 H   0  0  0  0  0  0  0  0  0  0  0  0
    5.0982   -0.5324    4.0554 H   0  0  0  0  0  0  0  0  0  0  0  0
    3.6222    0.9533   -0.0561 H   0  0  0  0  0  0  0  0  0  0  0  0
    3.8306    1.8425   -1.5329 H   0  0  0  0  0  0  0  0  0  0  0  0
    5.0325   -0.2357   -1.8123 H   0  0  0  0  0  0  0  0  0  0  0  0
    6.3382    0.9635   -1.5110 H   0  0  0  0  0  0  0  0  0  0  0  0
    5.7970   -0.1231   -0.1819 H   0  0  0  0  0  0  0  0  0  0  0  0
    3.1021    6.0334   -3.1039 H   0  0  0  0  0  0  0  0  0  0  0  0
    0.9600    8.5830   -3.9494 H   0  0  0  0  0  0  0  0  0  0  0  0
    0.8640    9.9885   -1.9179 H   0  0  0  0  0  0  0  0  0  0  0  0
   -2.0666    8.5377    0.6045 H   0  0  0  0  0  0  0  0  0  0  0  0
   -1.8531   10.1524   -0.1805 H   0  0  0  0  0  0  0  0  0  0  0  0
   -2.0535    9.5191    2.8357 H   0  0  0  0  0  0  0  0  0  0  0  0
   -3.2518   10.4081    1.8250 H   0  0  0  0  0  0  0  0  0  0  0  0
   -1.6457   11.1561    2.1808 H   0  0  0  0  0  0  0  0  0  0  0  0
   -0.1072    6.5125    0.4362 H   0  0  0  0  0  0  0  0  0  0  0  0
   -0.0132    5.1086   -1.5927 H   0  0  0  0  0  0  0  0  0  0  0  0
   -0.6371    1.8489   -6.8528 H   0  0  0  0  0  0  0  0  0  0  0  0
   -0.5599    0.4562   -8.8897 H   0  0  0  0  0  0  0  0  0  0  0  0
    2.2492   -0.9792  -11.5765 H   0  0  0  0  0  0  0  0  0  0  0  0
    2.2605   -0.2163   -9.9508 H   0  0  0  0  0  0  0  0  0  0  0  0
    3.5229    1.7282  -10.8484 H   0  0  0  0  0  0  0  0  0  0  0  0
    4.3669    0.2032  -11.2976 H   0  0  0  0  0  0  0  0  0  0  0  0
    3.3765    1.0740  -12.5328 H   0  0  0  0  0  0  0  0  0  0  0  0
    1.7460    3.4959  -10.8856 H   0  0  0  0  0  0  0  0  0  0  0  0
    1.7052    4.8755   -8.8416 H   0  0  0  0  0  0  0  0  0  0  0  0
   -2.1809    4.1713   -7.4680 H   0  0  0  0  0  0  0  0  0  0  0  0
   -4.6614    6.5779   -6.3782 H   0  0  0  0  0  0  0  0  0  0  0  0
   -8.8139    3.2520   -8.4664 H   0  0  0  0  0  0  0  0  0  0  0  0
  1  2  2  3
  2  3  1  0
  3  4  2  0
  3  5  1  0
  5  6  2  0
  6  7  1  0
  7  8  2  0
  8  9  1  0
  9 10  2  0
 10 11  1  0
 10 12  1  0
 12 13  2  0
 13 14  1  0
 14 15  2  0
 15 16  1  0
 16 17  2  3
 17 18  1  0
 18 19  3  0
 17 20  1  0
 20 21  3  0
  1 22  1  0
 22 23  2  0
 23 24  1  0
 24 25  1  0
 25 26  2  0
 26 27  1  0
 27 28  2  0
 28 29  1  0
 28 30  1  0
 30 31  2  0
 24 32  1  0
 32 33  2  0
 33 34  1  0
 34 35  2  0
 35 36  1  0
 35 37  1  0
 37 38  2  0
 23 39  1  0
 39 40  1  0
 40 41  1  0
 41 42  2  0
 42 43  1  0
 43 44  1  0
 44 45  2  0
 45 46  1  0
 46 47  2  0
 47 48  1  0
 47 49  1  0
 49 50  2  0
 43 51  1  0
 51 52  2  0
 52 53  1  0
 53 54  2  0
 54 55  1  0
 54 56  1  0
 56 57  2  0
 42 58  1  0
 58 59  1  0
 41 60  1  0
 60 61  2  0
 61 62  1  0
 62 63  2  0
 63 64  1  0
 64 65  2  0
 65 66  1  0
 66 67  1  0
 67 68  1  0
 66 69  2  0
 61 70  1  0
 70 71  1  0
 71 72  1  0
 72 73  1  0
 73 74  1  0
 74 75  1  0
 75 76  2  0
 76 77  1  0
 77 78  1  0
 75 79  1  0
 79 80  1  0
 80 81  1  0
 81 82  1  0
 82 83  1  0
 83 84  1  0
 84 85  2  0
 85 86  1  0
 86 87  2  0
 87 88  1  0
 88 89  1  0
 89 90  1  0
 88 91  2  0
 83 92  2  0
 92 93  1  0
 93 94  1  0
 94 95  1  0
 95 96  1  0
 96 97  1  0
 97 98  1  0
 98 99  1  0
 99100  1  0
100101  1  0
101102  1  0
 99103  1  0
103104  1  0
 96105  1  0
105106  1  0
 92107  1  0
107108  2  0
108109  1  0
109110  2  0
110111  1  0
111112  2  0
112113  1  0
113114  2  0
114115  1  0
115116  1  0
116117  1  0
114118  1  0
118119  2  0
110120  1  0
120121  2  0
121122  1  0
122123  1  0
123124  2  0
124125  1  0
125126  2  0
126127  1  0
127128  1  0
128129  1  0
126130  1  0
130131  2  0
122132  2  0
132133  1  0
121134  1  0
134135  2  0
135136  1  0
135137  1  0
137138  2  3
138139  1  0
139140  2  0
139141  1  0
141142  2  0
142143  1  0
143144  2  0
144145  1  0
144146  1  0
146147  1  0
146148  2  0
148149  1  0
142150  1  0
150151  2  3
151152  1  0
152153  3  0
151154  1  0
154155  3  0
 16  2  1  0
 59 22  1  0
102 60  1  0
133107  1  0
150138  1  0
 15  5  1  0
 31 25  1  0
 38 32  1  0
 58 39  2  0
 69 62  1  0
101 70  2  0
132109  1  0
148141  1  0
 13  7  1  0
 50 44  1  0
 57 51  1  0
100 72  2  0
119111  1  0
136120  1  0
 98 73  2  0
131123  1  0
 78 74  2  0
 97 79  2  0
 95 80  2  0
 94 82  2  0
 91 84  1  0
  1156  1  0
  6157  1  0
  8158  1  0
  9159  1  0
 12160  1  0
 14161  1  0
 26162  1  0
 27163  1  0
 29164  1  0
 29165  1  0
 29166  1  0
 30167  1  0
 31168  1  0
 33169  1  0
 34170  1  0
 36171  1  0
 36172  1  0
 36173  1  0
 37174  1  0
 38175  1  0
 45176  1  0
 46177  1  0
 48178  1  0
 48179  1  0
 48180  1  0
 49181  1  0
 50182  1  0
 52183  1  0
 53184  1  0
 55185  1  0
 55186  1  0
 55187  1  0
 56188  1  0
 57189  1  0
 63190  1  0
 64191  1  0
 65192  1  0
 67193  1  0
 67194  1  0
 68195  1  0
 68196  1  0
 68197  1  0
 69198  1  0
 85199  1  0
 86200  1  0
 87201  1  0
 89202  1  0
 89203  1  0
 90204  1  0
 90205  1  0
 90206  1  0
 91207  1  0
103208  1  0
103209  1  0
104210  1  0
104211  1  0
104212  1  0
105213  1  0
105214  1  0
106215  1  0
106216  1  0
106217  1  0
108218  1  0
112219  1  0
113220  1  0
116221  1  0
116222  1  0
117223  1  0
117224  1  0
117225  1  0
118226  1  0
119227  1  0
124228  1  0
125229  1  0
128230  1  0
128231  1  0
129232  1  0
129233  1  0
129234  1  0
130235  1  0
131236  1  0
134237  1  0
137238  1  0
143239  1  0
M  END

