
     RDKit          3D

237263  0  0  0  0  0  0  0  0999 V2000
   -3.1184   -4.1562    7.3740 C   0  0  0  0  0  0  0  0  0  0  0  0
   -2.7292   -3.9064    8.6368 C   0  0  0  0  0  0  0  0  0  0  0  0
   -1.3379   -3.9402    9.0915 C   0  0  0  0  0  0  0  0  0  0  0  0
   -0.3508   -4.3612    8.4293 O   0  0  0  0  0  0  0  0  0  0  0  0
   -1.2933   -3.5398   10.4747 C   0  0  0  0  0  0  0  0  0  0  0  0
   -0.1690   -3.4382   11.2934 C   0  0  0  0  0  0  0  0  0  0  0  0
   -0.3483   -3.0649   12.6350 C   0  0  0  0  0  0  0  0  0  0  0  0
    0.7542   -2.9118   13.4866 C   0  0  0  0  0  0  0  0  0  0  0  0
    0.5663   -2.5345   14.8224 C   0  0  0  0  0  0  0  0  0  0  0  0
   -0.7228   -2.3214   15.3174 C   0  0  0  0  0  0  0  0  0  0  0  0
   -0.8928   -1.9680   16.6158 F   0  0  0  0  0  0  0  0  0  0  0  0
   -1.8328   -2.4742   14.4831 C   0  0  0  0  0  0  0  0  0  0  0  0
   -1.6606   -2.8354   13.1373 C   0  0  0  0  0  0  0  0  0  0  0  0
   -2.7756   -2.9686   12.2854 C   0  0  0  0  0  0  0  0  0  0  0  0
   -2.5747   -3.2934   10.9321 C   0  0  0  0  0  0  0  0  0  0  0  0
   -3.5575   -3.4699    9.8131 C   0  0  0  0  0  0  0  0  0  0  0  0
   -4.8669   -3.0993    9.8188 C   0  0  0  0  0  0  0  0  0  0  0  0
   -5.4762   -2.4187   10.9315 C   0  0  0  0  0  0  0  0  0  0  0  0
   -5.9751   -1.8534   11.8118 N   0  0  0  0  0  0  0  0  0  0  0  0
   -5.7405   -3.2631    8.6883 C   0  0  0  0  0  0  0  0  0  0  0  0
   -6.4610   -3.3944    7.7888 N   0  0  0  0  0  0  0  0  0  0  0  0
   -2.1754   -4.0818    6.2510 C   0  0  0  0  0  0  0  0  0  0  0  0
   -1.6970   -2.8782    5.7091 C   0  0  0  0  0  0  0  0  0  0  0  0
   -2.2186   -1.5880    6.0762 N   0  0  0  0  0  0  0  0  0  0  0  0
   -3.6223   -1.3078    5.8522 C   0  0  0  0  0  0  0  0  0  0  0  0
   -4.3299   -0.4437    6.7086 C   0  0  0  0  0  0  0  0  0  0  0  0
   -5.6869   -0.1804    6.4919 C   0  0  0  0  0  0  0  0  0  0  0  0
   -6.3640   -0.7898    5.4259 C   0  0  0  0  0  0  0  0  0  0  0  0
   -7.8191   -0.4990    5.1986 C   0  0  0  0  0  0  0  0  0  0  0  0
   -5.6724   -1.6723    4.5857 C   0  0  0  0  0  0  0  0  0  0  0  0
   -4.3148   -1.9187    4.7879 C   0  0  0  0  0  0  0  0  0  0  0  0
   -1.3026   -0.5681    6.5216 C   0  0  0  0  0  0  0  0  0  0  0  0
   -0.2500   -0.8914    7.3938 C   0  0  0  0  0  0  0  0  0  0  0  0
    0.6340    0.0921    7.8410 C   0  0  0  0  0  0  0  0  0  0  0  0
    0.5005    1.4136    7.3968 C   0  0  0  0  0  0  0  0  0  0  0  0
    1.4321    2.4805    7.8947 C   0  0  0  0  0  0  0  0  0  0  0  0
   -0.5443    1.7444    6.5192 C   0  0  0  0  0  0  0  0  0  0  0  0
   -1.4345    0.7608    6.0805 C   0  0  0  0  0  0  0  0  0  0  0  0
   -1.0489   -3.0991    4.4971 C   0  0  0  0  0  0  0  0  0  0  0  0
   -0.7192   -2.0722    3.2201 S   0  0  0  0  0  0  0  0  0  0  0  0
   -0.5769   -3.3080    2.0585 C   0  0  0  0  0  0  0  0  0  0  0  0
   -0.8013   -4.5527    2.6926 C   0  0  0  0  0  0  0  0  0  0  0  0
   -0.9232   -5.8317    2.0310 N   0  0  0  0  0  0  0  0  0  0  0  0
   -1.7282   -5.9821    0.8454 C   0  0  0  0  0  0  0  0  0  0  0  0
   -2.9859   -5.3645    0.7485 C   0  0  0  0  0  0  0  0  0  0  0  0
   -3.7238   -5.4505   -0.4365 C   0  0  0  0  0  0  0  0  0  0  0  0
   -3.1998   -6.1220   -1.5494 C   0  0  0  0  0  0  0  0  0  0  0  0
   -3.9631   -6.1584   -2.8402 C   0  0  0  0  0  0  0  0  0  0  0  0
   -1.9840   -6.8062   -1.4300 C   0  0  0  0  0  0  0  0  0  0  0  0
   -1.2549   -6.7422   -0.2386 C   0  0  0  0  0  0  0  0  0  0  0  0
   -0.3409   -6.9910    2.6629 C   0  0  0  0  0  0  0  0  0  0  0  0
    0.9407   -6.9167    3.2373 C   0  0  0  0  0  0  0  0  0  0  0  0
    1.4597   -8.0016    3.9529 C   0  0  0  0  0  0  0  0  0  0  0  0
    0.7099   -9.1758    4.1010 C   0  0  0  0  0  0  0  0  0  0  0  0
    1.2301  -10.3040    4.9421 C   0  0  0  0  0  0  0  0  0  0  0  0
   -0.5655   -9.2569    3.5200 C   0  0  0  0  0  0  0  0  0  0  0  0
   -1.0857   -8.1752    2.8027 C   0  0  0  0  0  0  0  0  0  0  0  0
   -1.0601   -4.3847    4.0557 C   0  0  0  0  0  0  0  0  0  0  0  0
   -1.8670   -5.3550    5.1688 S   0  0  0  0  0  0  0  0  0  0  0  0
   -0.6142   -3.0670    0.6047 C   0  0  0  0  0  0  0  0  0  0  0  0
   -1.7175   -2.4975   -0.0751 C   0  0  0  0  0  0  0  0  0  0  0  0
   -2.6991   -1.5672    0.5167 C   0  0  0  0  0  0  0  0  0  0  0  0
   -2.2569   -0.3542    1.0687 C   0  0  0  0  0  0  0  0  0  0  0  0
   -3.1680    0.5310    1.6471 C   0  0  0  0  0  0  0  0  0  0  0  0
   -4.5312    0.2307    1.6509 C   0  0  0  0  0  0  0  0  0  0  0  0
   -4.9919   -0.9606    1.0683 C   0  0  0  0  0  0  0  0  0  0  0  0
   -6.4688   -1.2428    0.9857 C   0  0  0  0  0  0  0  0  0  0  0  0
   -7.0473   -0.6543   -0.2957 C   0  0  0  0  0  0  0  0  0  0  0  0
   -4.0709   -1.8500    0.4884 C   0  0  0  0  0  0  0  0  0  0  0  0
   -1.6813   -2.8182   -1.4287 C   0  0  0  0  0  0  0  0  0  0  0  0
   -2.6920   -2.4346   -2.7532 S   0  0  0  0  0  0  0  0  0  0  0  0
   -1.6060   -3.1781   -3.8232 C   0  0  0  0  0  0  0  0  0  0  0  0
   -1.3117   -3.0827   -5.1549 C   0  0  0  0  0  0  0  0  0  0  0  0
   -2.0726   -2.7019   -6.2607 C   0  0  0  0  0  0  0  0  0  0  0  0
   -1.4267   -2.6128   -7.5295 C   0  0  0  0  0  0  0  0  0  0  0  0
   -2.2005   -2.2268   -8.5757 N   0  0  0  0  0  0  0  0  0  0  0  0
   -3.6583   -2.0454   -7.8051 S   0  0  0  0  0  0  0  0  0  0  0  0
   -3.3969   -2.4110   -6.2133 N   0  0  0  0  0  0  0  0  0  0  0  0
   -0.0291   -2.7888   -7.6016 C   0  0  0  0  0  0  0  0  0  0  0  0
    0.8291   -2.2027   -8.4990 C   0  0  0  0  0  0  0  0  0  0  0  0
    0.5179   -1.0421   -9.6950 S   0  0  0  0  0  0  0  0  0  0  0  0
    1.9261   -0.1768   -9.3435 C   0  0  0  0  0  0  0  0  0  0  0  0
    2.2269    1.1737   -9.5678 C   0  0  0  0  0  0  0  0  0  0  0  0
    1.5152    2.0278  -10.5398 C   0  0  0  0  0  0  0  0  0  0  0  0
    0.1243    2.2097  -10.4604 C   0  0  0  0  0  0  0  0  0  0  0  0
   -0.5250    3.0508  -11.3677 C   0  0  0  0  0  0  0  0  0  0  0  0
    0.2029    3.7163  -12.3573 C   0  0  0  0  0  0  0  0  0  0  0  0
    1.5951    3.5575  -12.4345 C   0  0  0  0  0  0  0  0  0  0  0  0
    2.3780    4.2300  -13.5327 C   0  0  0  0  0  0  0  0  0  0  0  0
    2.4169    3.3470  -14.7762 C   0  0  0  0  0  0  0  0  0  0  0  0
    2.2461    2.7086  -11.5246 C   0  0  0  0  0  0  0  0  0  0  0  0
    3.1727    1.6523   -8.6358 C   0  0  0  0  0  0  0  0  0  0  0  0
    3.6141    0.3726   -7.6134 S   0  0  0  0  0  0  0  0  0  0  0  0
    2.6114   -0.7780   -8.3121 C   0  0  0  0  0  0  0  0  0  0  0  0
    1.9904   -1.9373   -7.8191 C   0  0  0  0  0  0  0  0  0  0  0  0
    1.9656   -2.4384   -6.5486 N   0  0  0  0  0  0  0  0  0  0  0  0
    0.7330   -3.0371   -6.4437 C   0  0  0  0  0  0  0  0  0  0  0  0
    0.0478   -3.3813   -5.2547 C   0  0  0  0  0  0  0  0  0  0  0  0
    0.5482   -3.8019   -4.0529 N   0  0  0  0  0  0  0  0  0  0  0  0
   -0.4898   -3.6424   -3.2006 C   0  0  0  0  0  0  0  0  0  0  0  0
   -0.5512   -3.4819   -1.8270 C   0  0  0  0  0  0  0  0  0  0  0  0
    0.4386   -3.8129   -0.5127 S   0  0  0  0  0  0  0  0  0  0  0  0
    1.7374   -4.6299   -3.8189 C   0  0  0  0  0  0  0  0  0  0  0  0
    1.3525   -6.0990   -3.6776 C   0  0  0  0  0  0  0  0  0  0  0  0
    2.7748   -1.9063   -5.4392 C   0  0  0  0  0  0  0  0  0  0  0  0
    4.2299   -2.3529   -5.5605 C   0  0  0  0  0  0  0  0  0  0  0  0
    3.2548    3.0506   -8.1609 C   0  0  0  0  0  0  0  0  0  0  0  0
    4.1496    3.5074   -7.1873 C   0  0  0  0  0  0  0  0  0  0  0  0
    3.7164    4.6744   -6.5265 C   0  0  0  0  0  0  0  0  0  0  0  0
    4.3277    5.2665   -5.4032 C   0  0  0  0  0  0  0  0  0  0  0  0
    5.6648    4.8527   -4.9269 C   0  0  0  0  0  0  0  0  0  0  0  0
    6.0136    4.5598   -3.6106 C   0  0  0  0  0  0  0  0  0  0  0  0
    7.3819    4.3218   -3.4397 C   0  0  0  0  0  0  0  0  0  0  0  0
    8.0749    3.9319   -1.8729 Cl  0  0  0  0  0  0  0  0  0  0  0  0
    8.1190    4.4458   -4.6181 C   0  0  0  0  0  0  0  0  0  0  0  0
    9.6024    4.3207   -4.7635 C   0  0  0  0  0  0  0  0  0  0  0  0
   10.0049    2.8835   -5.0555 C   0  0  0  0  0  0  0  0  0  0  0  0
    7.0591    4.8284   -5.8712 S   0  0  0  0  0  0  0  0  0  0  0  0
    3.6079    6.2894   -4.7570 C   0  0  0  0  0  0  0  0  0  0  0  0
    2.3562    6.7405   -5.2069 C   0  0  0  0  0  0  0  0  0  0  0  0
    1.7538    6.1625   -6.3449 C   0  0  0  0  0  0  0  0  0  0  0  0
    0.3779    6.5062   -6.7768 C   0  0  0  0  0  0  0  0  0  0  0  0
   -0.7434    6.5572   -5.9524 C   0  0  0  0  0  0  0  0  0  0  0  0
   -1.9396    6.7730   -6.6485 C   0  0  0  0  0  0  0  0  0  0  0  0
   -1.7664    6.8869   -8.0284 C   0  0  0  0  0  0  0  0  0  0  0  0
   -2.8203    7.0946   -9.0809 C   0  0  0  0  0  0  0  0  0  0  0  0
   -4.2478    7.0587   -8.5379 C   0  0  0  0  0  0  0  0  0  0  0  0
   -0.1297    6.7265   -8.3705 S   0  0  0  0  0  0  0  0  0  0  0  0
    2.4769    5.1347   -6.9817 C   0  0  0  0  0  0  0  0  0  0  0  0
    1.9360    4.1018   -8.1822 S   0  0  0  0  0  0  0  0  0  0  0  0
    1.8304    7.7770   -4.4164 C   0  0  0  0  0  0  0  0  0  0  0  0
    2.6389    8.0913   -3.3304 C   0  0  0  0  0  0  0  0  0  0  0  0
    4.0474    7.1633   -3.3861 S   0  0  0  0  0  0  0  0  0  0  0  0
    2.3839    9.1742   -2.3697 C   0  0  0  0  0  0  0  0  0  0  0  0
    2.2976    8.9813   -1.0370 C   0  0  0  0  0  0  0  0  0  0  0  0
    2.3866    7.6813   -0.3576 C   0  0  0  0  0  0  0  0  0  0  0  0
    2.2904    6.5457   -0.8955 O   0  0  0  0  0  0  0  0  0  0  0  0
    2.5837    7.9143    1.0549 C   0  0  0  0  0  0  0  0  0  0  0  0
    2.8342    6.9662    2.0485 C   0  0  0  0  0  0  0  0  0  0  0  0
    3.1108    7.4145    3.3495 C   0  0  0  0  0  0  0  0  0  0  0  0
    3.3850    6.4984    4.3765 C   0  0  0  0  0  0  0  0  0  0  0  0
    3.6932    6.9543    5.6609 C   0  0  0  0  0  0  0  0  0  0  0  0
    3.7314    8.3232    5.9330 C   0  0  0  0  0  0  0  0  0  0  0  0
    4.0467    8.7522    7.1784 F   0  0  0  0  0  0  0  0  0  0  0  0
    3.4538    9.2484    4.9229 C   0  0  0  0  0  0  0  0  0  0  0  0
    3.1394    8.8093    3.6268 C   0  0  0  0  0  0  0  0  0  0  0  0
    2.8760    9.7394    2.6002 C   0  0  0  0  0  0  0  0  0  0  0  0
    2.5759    9.2747    1.3098 C   0  0  0  0  0  0  0  0  0  0  0  0
    2.2871   10.0203    0.0447 C   0  0  0  0  0  0  0  0  0  0  0  0
    1.9391   11.3354   -0.0706 C   0  0  0  0  0  0  0  0  0  0  0  0
    1.4884   11.9196   -1.3071 C   0  0  0  0  0  0  0  0  0  0  0  0
    1.1286   12.4035   -2.2925 N   0  0  0  0  0  0  0  0  0  0  0  0
    1.9018   12.2341    1.0529 C   0  0  0  0  0  0  0  0  0  0  0  0
    1.8801   12.9737    1.9448 N   0  0  0  0  0  0  0  0  0  0  0  0
   -4.1498   -4.2663    7.1002 H   0  0  0  0  0  0  0  0  0  0  0  0
    0.8171   -3.6404   10.8931 H   0  0  0  0  0  0  0  0  0  0  0  0
    1.7617   -3.0791   13.1232 H   0  0  0  0  0  0  0  0  0  0  0  0
    1.4218   -2.4134   15.4735 H   0  0  0  0  0  0  0  0  0  0  0  0
   -2.8235   -2.2924   14.8820 H   0  0  0  0  0  0  0  0  0  0  0  0
   -3.7610   -2.8562   12.7024 H   0  0  0  0  0  0  0  0  0  0  0  0
   -3.8298    0.0250    7.5458 H   0  0  0  0  0  0  0  0  0  0  0  0
   -6.2100    0.4917    7.1615 H   0  0  0  0  0  0  0  0  0  0  0  0
   -8.4096   -0.8637    6.0650 H   0  0  0  0  0  0  0  0  0  0  0  0
   -7.9659    0.5962    5.0893 H   0  0  0  0  0  0  0  0  0  0  0  0
   -8.1947   -0.9941    4.2778 H   0  0  0  0  0  0  0  0  0  0  0  0
   -6.1809   -2.1711    3.7693 H   0  0  0  0  0  0  0  0  0  0  0  0
   -3.8072   -2.5887    4.1071 H   0  0  0  0  0  0  0  0  0  0  0  0
   -0.1186   -1.9031    7.7376 H   0  0  0  0  0  0  0  0  0  0  0  0
    1.4212   -0.1808    8.5355 H   0  0  0  0  0  0  0  0  0  0  0  0
    2.3909    2.0435    8.2469 H   0  0  0  0  0  0  0  0  0  0  0  0
    1.6631    3.1992    7.0791 H   0  0  0  0  0  0  0  0  0  0  0  0
    0.9574    3.0281    8.7362 H   0  0  0  0  0  0  0  0  0  0  0  0
   -0.6719    2.7636    6.1777 H   0  0  0  0  0  0  0  0  0  0  0  0
   -2.2248    1.0327    5.3930 H   0  0  0  0  0  0  0  0  0  0  0  0
   -3.3797   -4.7992    1.5831 H   0  0  0  0  0  0  0  0  0  0  0  0
   -4.6967   -4.9781   -0.4925 H   0  0  0  0  0  0  0  0  0  0  0  0
   -4.5763   -5.2379   -2.9567 H   0  0  0  0  0  0  0  0  0  0  0  0
   -3.2658   -6.2125   -3.7031 H   0  0  0  0  0  0  0  0  0  0  0  0
   -4.6297   -7.0457   -2.8506 H   0  0  0  0  0  0  0  0  0  0  0  0
   -1.5887   -7.3711   -2.2645 H   0  0  0  0  0  0  0  0  0  0  0  0
   -0.3033   -7.2536   -0.1749 H   0  0  0  0  0  0  0  0  0  0  0  0
    1.5302   -6.0141    3.1499 H   0  0  0  0  0  0  0  0  0  0  0  0
    2.4373   -7.9126    4.4101 H   0  0  0  0  0  0  0  0  0  0  0  0
    0.8674  -10.1867    5.9857 H   0  0  0  0  0  0  0  0  0  0  0  0
    0.8767  -11.2812    4.5470 H   0  0  0  0  0  0  0  0  0  0  0  0
    2.3416  -10.3126    4.9434 H   0  0  0  0  0  0  0  0  0  0  0  0
   -1.1662  -10.1508    3.6482 H   0  0  0  0  0  0  0  0  0  0  0  0
   -2.0851   -8.2459    2.3953 H   0  0  0  0  0  0  0  0  0  0  0  0
   -1.2062   -0.0936    1.0556 H   0  0  0  0  0  0  0  0  0  0  0  0
   -2.8192    1.4591    2.0823 H   0  0  0  0  0  0  0  0  0  0  0  0
   -5.2279    0.9326    2.0940 H   0  0  0  0  0  0  0  0  0  0  0  0
   -6.6519   -2.3432    1.0042 H   0  0  0  0  0  0  0  0  0  0  0  0
   -6.9945   -0.7989    1.8600 H   0  0  0  0  0  0  0  0  0  0  0  0
   -6.9048    0.4479   -0.3119 H   0  0  0  0  0  0  0  0  0  0  0  0
   -8.1323   -0.8731   -0.3511 H   0  0  0  0  0  0  0  0  0  0  0  0
   -6.5492   -1.0993   -1.1819 H   0  0  0  0  0  0  0  0  0  0  0  0
   -4.4226   -2.7513    0.0117 H   0  0  0  0  0  0  0  0  0  0  0  0
   -0.4507    1.7262   -9.6798 H   0  0  0  0  0  0  0  0  0  0  0  0
   -1.5964    3.1947  -11.3001 H   0  0  0  0  0  0  0  0  0  0  0  0
   -0.3173    4.3498  -13.0644 H   0  0  0  0  0  0  0  0  0  0  0  0
    1.9142    5.2091  -13.7885 H   0  0  0  0  0  0  0  0  0  0  0  0
    3.4183    4.4343  -13.1932 H   0  0  0  0  0  0  0  0  0  0  0  0
    1.3861    3.1742  -15.1583 H   0  0  0  0  0  0  0  0  0  0  0  0
    3.0132    3.8448  -15.5688 H   0  0  0  0  0  0  0  0  0  0  0  0
    2.8850    2.3663  -14.5337 H   0  0  0  0  0  0  0  0  0  0  0  0
    3.3193    2.5649  -11.5912 H   0  0  0  0  0  0  0  0  0  0  0  0
    2.4383   -4.5498   -4.6714 H   0  0  0  0  0  0  0  0  0  0  0  0
    2.2581   -4.2925   -2.8959 H   0  0  0  0  0  0  0  0  0  0  0  0
    0.8192   -6.4402   -4.5915 H   0  0  0  0  0  0  0  0  0  0  0  0
    0.6943   -6.2482   -2.7951 H   0  0  0  0  0  0  0  0  0  0  0  0
    2.2639   -6.7162   -3.5507 H   0  0  0  0  0  0  0  0  0  0  0  0
    2.3946   -2.2178   -4.4522 H   0  0  0  0  0  0  0  0  0  0  0  0
    2.6985   -0.8044   -5.4084 H   0  0  0  0  0  0  0  0  0  0  0  0
    4.3072   -3.4521   -5.4408 H   0  0  0  0  0  0  0  0  0  0  0  0
    4.8408   -1.8599   -4.7781 H   0  0  0  0  0  0  0  0  0  0  0  0
    4.6449   -2.0838   -6.5534 H   0  0  0  0  0  0  0  0  0  0  0  0
    5.0160    2.9374   -6.8880 H   0  0  0  0  0  0  0  0  0  0  0  0
    5.3036    4.5338   -2.7952 H   0  0  0  0  0  0  0  0  0  0  0  0
   10.1058    4.6693   -3.8346 H   0  0  0  0  0  0  0  0  0  0  0  0
    9.9425    4.9773   -5.5903 H   0  0  0  0  0  0  0  0  0  0  0  0
    9.5226    2.5280   -5.9924 H   0  0  0  0  0  0  0  0  0  0  0  0
   11.1038    2.8238   -5.1808 H   0  0  0  0  0  0  0  0  0  0  0  0
    9.7031    2.2199   -4.2180 H   0  0  0  0  0  0  0  0  0  0  0  0
   -0.7082    6.4105   -4.8787 H   0  0  0  0  0  0  0  0  0  0  0  0
   -2.9006    6.8165   -6.1520 H   0  0  0  0  0  0  0  0  0  0  0  0
   -2.7141    6.2992   -9.8483 H   0  0  0  0  0  0  0  0  0  0  0  0
   -2.6441    8.0723   -9.5776 H   0  0  0  0  0  0  0  0  0  0  0  0
   -4.4100    7.8859   -7.8144 H   0  0  0  0  0  0  0  0  0  0  0  0
   -4.4503    6.0853   -8.0445 H   0  0  0  0  0  0  0  0  0  0  0  0
   -4.9635    7.1791   -9.3762 H   0  0  0  0  0  0  0  0  0  0  0  0
    0.9014    8.2908   -4.6204 H   0  0  0  0  0  0  0  0  0  0  0  0
    2.3623   10.1595   -2.7974 H   0  0  0  0  0  0  0  0  0  0  0  0
    2.8420    5.9099    1.8047 H   0  0  0  0  0  0  0  0  0  0  0  0
    3.3751    5.4349    4.1785 H   0  0  0  0  0  0  0  0  0  0  0  0
    3.9202    6.2408    6.4402 H   0  0  0  0  0  0  0  0  0  0  0  0
    3.4973   10.3077    5.1528 H   0  0  0  0  0  0  0  0  0  0  0  0
    2.9554   10.7893    2.8121 H   0  0  0  0  0  0  0  0  0  0  0  0
  1  2  2  3
  2  3  1  0
  3  4  2  0
  3  5  1  0
  5  6  2  0
  6  7  1  0
  7  8  2  0
  8  9  1  0
  9 10  2  0
 10 11  1  0
 10 12  1  0
 12 13  2  0
 13 14  1  0
 14 15  2  0
 15 16  1  0
 16 17  2  3
 17 18  1  0
 18 19  3  0
 17 20  1  0
 20 21  3  0
  1 22  1  0
 22 23  2  0
 23 24  1  0
 24 25  1  0
 25 26  2  0
 26 27  1  0
 27 28  2  0
 28 29  1  0
 28 30  1  0
 30 31  2  0
 24 32  1  0
 32 33  2  0
 33 34  1  0
 34 35  2  0
 35 36  1  0
 35 37  1  0
 37 38  2  0
 23 39  1  0
 39 40  1  0
 40 41  1  0
 41 42  2  0
 42 43  1  0
 43 44  1  0
 44 45  2  0
 45 46  1  0
 46 47  2  0
 47 48  1  0
 47 49  1  0
 49 50  2  0
 43 51  1  0
 51 52  2  0
 52 53  1  0
 53 54  2  0
 54 55  1  0
 54 56  1  0
 56 57  2  0
 42 58  1  0
 58 59  1  0
 41 60  1  0
 60 61  2  0
 61 62  1  0
 62 63  2  0
 63 64  1  0
 64 65  2  0
 65 66  1  0
 66 67  1  0
 67 68  1  0
 66 69  2  0
 61 70  1  0
 70 71  1  0
 71 72  1  0
 72 73  1  0
 73 74  1  0
 74 75  1  0
 75 76  2  0
 76 77  1  0
 77 78  1  0
 75 79  1  0
 79 80  1  0
 80 81  1  0
 81 82  1  0
 82 83  1  0
 83 84  1  0
 84 85  2  0
 85 86  1  0
 86 87  2  0
 87 88  1  0
 88 89  1  0
 89 90  1  0
 88 91  2  0
 83 92  2  0
 92 93  1  0
 93 94  1  0
 94 95  1  0
 95 96  1  0
 96 97  1  0
 97 98  1  0
 98 99  1  0
 99100  1  0
100101  1  0
101102  1  0
 99103  1  0
103104  1  0
 96105  1  0
105106  1  0
 92107  1  0
107108  2  0
108109  1  0
109110  2  0
110111  1  0
111112  2  0
112113  1  0
113114  1  0
113115  2  0
115116  1  0
116117  1  0
115118  1  0
110119  1  0
119120  2  0
120121  1  0
121122  1  0
122123  2  0
123124  1  0
124125  2  0
125126  1  0
126127  1  0
125128  1  0
121129  2  0
129130  1  0
120131  1  0
131132  2  0
132133  1  0
132134  1  0
134135  2  3
135136  1  0
136137  2  0
136138  1  0
138139  2  0
139140  1  0
140141  2  0
141142  1  0
142143  2  0
143144  1  0
143145  1  0
145146  2  0
146147  1  0
147148  2  0
148149  1  0
149150  2  3
150151  1  0
151152  3  0
150153  1  0
153154  3  0
 16  2  1  0
 59 22  1  0
102 60  1  0
130107  1  0
149135  1  0
 15  5  1  0
 31 25  1  0
 38 32  1  0
 58 39  2  0
 69 62  1  0
101 70  2  0
129109  1  0
148138  1  0
 13  7  1  0
 50 44  1  0
 57 51  1  0
100 72  2  0
118111  1  0
133119  1  0
146140  1  0
 98 73  2  0
128122  1  0
 78 74  2  0
 97 79  2  0
 95 80  2  0
 94 82  2  0
 91 84  1  0
  1155  1  0
  6156  1  0
  8157  1  0
  9158  1  0
 12159  1  0
 14160  1  0
 26161  1  0
 27162  1  0
 29163  1  0
 29164  1  0
 29165  1  0
 30166  1  0
 31167  1  0
 33168  1  0
 34169  1  0
 36170  1  0
 36171  1  0
 36172  1  0
 37173  1  0
 38174  1  0
 45175  1  0
 46176  1  0
 48177  1  0
 48178  1  0
 48179  1  0
 49180  1  0
 50181  1  0
 52182  1  0
 53183  1  0
 55184  1  0
 55185  1  0
 55186  1  0
 56187  1  0
 57188  1  0
 63189  1  0
 64190  1  0
 65191  1  0
 67192  1  0
 67193  1  0
 68194  1  0
 68195  1  0
 68196  1  0
 69197  1  0
 85198  1  0
 86199  1  0
 87200  1  0
 89201  1  0
 89202  1  0
 90203  1  0
 90204  1  0
 90205  1  0
 91206  1  0
103207  1  0
103208  1  0
104209  1  0
104210  1  0
104211  1  0
105212  1  0
105213  1  0
106214  1  0
106215  1  0
106216  1  0
108217  1  0
112218  1  0
116219  1  0
116220  1  0
117221  1  0
117222  1  0
117223  1  0
123224  1  0
124225  1  0
126226  1  0
126227  1  0
127228  1  0
127229  1  0
127230  1  0
131231  1  0
134232  1  0
139233  1  0
141234  1  0
142235  1  0
145236  1  0
147237  1  0
M  END

