
     RDKit          3D

235259  0  0  0  0  0  0  0  0999 V2000
   -6.0087   -1.4419    8.1030 C   0  0  0  0  0  0  0  0  0  0  0  0
   -5.2255   -1.1666    9.1542 C   0  0  0  0  0  0  0  0  0  0  0  0
   -3.7646   -1.0675    9.1519 C   0  0  0  0  0  0  0  0  0  0  0  0
   -3.0487   -1.1295    8.1478 O   0  0  0  0  0  0  0  0  0  0  0  0
   -3.2758   -0.8728   10.5573 C   0  0  0  0  0  0  0  0  0  0  0  0
   -1.9948   -0.8584   11.0036 C   0  0  0  0  0  0  0  0  0  0  0  0
   -1.7435   -0.8375   12.4348 C   0  0  0  0  0  0  0  0  0  0  0  0
   -0.4593   -0.8942   12.8604 C   0  0  0  0  0  0  0  0  0  0  0  0
   -0.2150   -0.9612   14.2547 C   0  0  0  0  0  0  0  0  0  0  0  0
   -1.3453   -0.9603   15.0423 C   0  0  0  0  0  0  0  0  0  0  0  0
   -1.1275   -1.0887   16.4130 F   0  0  0  0  0  0  0  0  0  0  0  0
   -2.6015   -0.8973   14.5895 C   0  0  0  0  0  0  0  0  0  0  0  0
   -2.8677   -0.8269   13.1472 C   0  0  0  0  0  0  0  0  0  0  0  0
   -4.1598   -0.8353   12.7666 C   0  0  0  0  0  0  0  0  0  0  0  0
   -4.3863   -0.8555   11.3306 C   0  0  0  0  0  0  0  0  0  0  0  0
   -5.5894   -1.0168   10.5542 C   0  0  0  0  0  0  0  0  0  0  0  0
   -6.8733   -1.0939   11.0362 C   0  0  0  0  0  0  0  0  0  0  0  0
   -7.9003   -1.3271   10.3907 C   0  0  0  0  0  0  0  0  0  0  0  0
   -9.0959   -1.5939    9.6104 N   0  0  0  0  0  0  0  0  0  0  0  0
   -7.0323   -0.6410   12.4205 C   0  0  0  0  0  0  0  0  0  0  0  0
   -7.1914   -0.2539   13.6168 N   0  0  0  0  0  0  0  0  0  0  0  0
   -5.2600   -1.6612    6.8236 C   0  0  0  0  0  0  0  0  0  0  0  0
   -4.8023   -2.8231    6.2751 C   0  0  0  0  0  0  0  0  0  0  0  0
   -5.3088   -4.1249    6.5990 N   0  0  0  0  0  0  0  0  0  0  0  0
   -6.7324   -4.2329    6.8357 C   0  0  0  0  0  0  0  0  0  0  0  0
   -7.2853   -4.8936    7.8805 C   0  0  0  0  0  0  0  0  0  0  0  0
   -8.6817   -5.0404    7.8576 C   0  0  0  0  0  0  0  0  0  0  0  0
   -9.4879   -4.5798    6.8895 C   0  0  0  0  0  0  0  0  0  0  0  0
  -10.9666   -4.8071    6.8704 C   0  0  0  0  0  0  0  0  0  0  0  0
   -8.8820   -3.8984    5.8226 C   0  0  0  0  0  0  0  0  0  0  0  0
   -7.5270   -3.7338    5.8105 C   0  0  0  0  0  0  0  0  0  0  0  0
   -4.6182   -5.3403    6.4876 C   0  0  0  0  0  0  0  0  0  0  0  0
   -3.4097   -5.7502    6.8476 C   0  0  0  0  0  0  0  0  0  0  0  0
   -2.9153   -6.9910    6.4847 C   0  0  0  0  0  0  0  0  0  0  0  0
   -3.6649   -7.8656    5.7324 C   0  0  0  0  0  0  0  0  0  0  0  0
   -3.2086   -9.2137    5.3109 C   0  0  0  0  0  0  0  0  0  0  0  0
   -4.9284   -7.4974    5.3346 C   0  0  0  0  0  0  0  0  0  0  0  0
   -5.3954   -6.2786    5.6980 C   0  0  0  0  0  0  0  0  0  0  0  0
   -3.9480   -2.6712    5.1902 C   0  0  0  0  0  0  0  0  0  0  0  0
   -2.7962   -3.6680    4.2807 S   0  0  0  0  0  0  0  0  0  0  0  0
   -2.0243   -2.4682    3.4167 C   0  0  0  0  0  0  0  0  0  0  0  0
   -2.6696   -1.3111    3.8018 C   0  0  0  0  0  0  0  0  0  0  0  0
   -2.4478    0.0143    3.2864 N   0  0  0  0  0  0  0  0  0  0  0  0
   -2.9085    0.5796    2.1043 C   0  0  0  0  0  0  0  0  0  0  0  0
   -4.2885    0.4699    1.7541 C   0  0  0  0  0  0  0  0  0  0  0  0
   -4.7850    1.0979    0.6469 C   0  0  0  0  0  0  0  0  0  0  0  0
   -4.0344    1.8594   -0.1989 C   0  0  0  0  0  0  0  0  0  0  0  0
   -4.5530    2.6028   -1.3714 C   0  0  0  0  0  0  0  0  0  0  0  0
   -2.6711    1.9869    0.1062 C   0  0  0  0  0  0  0  0  0  0  0  0
   -2.1865    1.3424    1.2341 C   0  0  0  0  0  0  0  0  0  0  0  0
   -1.9407    0.8803    4.3371 C   0  0  0  0  0  0  0  0  0  0  0  0
   -1.0524    0.3594    5.2513 C   0  0  0  0  0  0  0  0  0  0  0  0
   -0.5955    1.1729    6.2864 C   0  0  0  0  0  0  0  0  0  0  0  0
   -1.0499    2.4671    6.3412 C   0  0  0  0  0  0  0  0  0  0  0  0
   -0.6398    3.3894    7.4496 C   0  0  0  0  0  0  0  0  0  0  0  0
   -1.9360    3.0211    5.4337 C   0  0  0  0  0  0  0  0  0  0  0  0
   -2.3653    2.1772    4.4279 C   0  0  0  0  0  0  0  0  0  0  0  0
   -3.6657   -1.4915    4.7543 C   0  0  0  0  0  0  0  0  0  0  0  0
   -4.5640   -0.4460    5.8466 S   0  0  0  0  0  0  0  0  0  0  0  0
   -0.6450   -2.4406    2.7952 C   0  0  0  0  0  0  0  0  0  0  0  0
    0.3289   -3.3422    2.6542 C   0  0  0  0  0  0  0  0  0  0  0  0
   -0.0048   -4.8215    2.6636 C   0  0  0  0  0  0  0  0  0  0  0  0
   -0.4564   -5.1789    1.2454 C   0  0  0  0  0  0  0  0  0  0  0  0
    1.6086   -2.8576    2.3775 C   0  0  0  0  0  0  0  0  0  0  0  0
    3.2703   -3.3982    2.0557 S   0  0  0  0  0  0  0  0  0  0  0  0
    4.0011   -1.8535    1.7807 C   0  0  0  0  0  0  0  0  0  0  0  0
    5.1272   -1.1103    1.3363 C   0  0  0  0  0  0  0  0  0  0  0  0
    6.3845   -1.5285    0.8377 C   0  0  0  0  0  0  0  0  0  0  0  0
    7.1130   -0.5933    0.2455 C   0  0  0  0  0  0  0  0  0  0  0  0
    8.3161   -0.9603   -0.1967 N   0  0  0  0  0  0  0  0  0  0  0  0
    8.6888   -2.5074    0.0507 Se  0  0  0  0  0  2  0  0  0  0  0  0
    6.7574   -2.7938    1.0137 N   0  0  0  0  0  0  0  0  0  0  0  0
    6.6347    0.7248    0.1090 C   0  0  0  0  0  0  0  0  0  0  0  0
    6.9015    1.6813   -0.9367 C   0  0  0  0  0  0  0  0  0  0  0  0
    7.8753    1.8965   -2.3536 S   0  0  0  0  0  0  0  0  0  0  0  0
    6.8734    3.1588   -3.1104 C   0  0  0  0  0  0  0  0  0  0  0  0
    6.6733    3.5190   -4.4560 C   0  0  0  0  0  0  0  0  0  0  0  0
    7.8155    3.6505   -5.4066 C   0  0  0  0  0  0  0  0  0  0  0  0
    8.4470    5.0506   -5.2158 C   0  0  0  0  0  0  0  0  0  0  0  0
    5.4551    3.9675   -4.7392 C   0  0  0  0  0  0  0  0  0  0  0  0
    4.6454    3.9708   -3.2186 S   0  0  0  0  0  0  0  0  0  0  0  0
    5.9694    3.2928   -2.2510 C   0  0  0  0  0  0  0  0  0  0  0  0
    5.9214    2.5373   -1.0395 C   0  0  0  0  0  0  0  0  0  0  0  0
    4.9802    2.2694   -0.0527 N   0  0  0  0  0  0  0  0  0  0  0  0
    5.4445    1.1699    0.5904 C   0  0  0  0  0  0  0  0  0  0  0  0
    4.6638    0.1797    1.2693 C   0  0  0  0  0  0  0  0  0  0  0  0
    3.4416    0.2378    1.6558 N   0  0  0  0  0  0  0  0  0  0  0  0
    2.9685   -1.0257    1.9629 C   0  0  0  0  0  0  0  0  0  0  0  0
    1.7689   -1.5469    2.2590 C   0  0  0  0  0  0  0  0  0  0  0  0
    0.1708   -0.9522    2.5299 S   0  0  0  0  0  0  0  0  0  0  0  0
    2.7560    1.4280    2.2032 C   0  0  0  0  0  0  0  0  0  0  0  0
    2.8035    1.1790    3.7919 C   0  0  0  0  0  0  0  0  0  0  0  0
    3.8565    3.1615    0.0820 C   0  0  0  0  0  0  0  0  0  0  0  0
    4.1715    4.3447    1.0057 C   0  0  0  0  0  0  0  0  0  0  0  0
    4.5231    3.6860   -5.9501 C   0  0  0  0  0  0  0  0  0  0  0  0
    4.5446    2.5771   -6.6972 C   0  0  0  0  0  0  0  0  0  0  0  0
    5.7022    1.7578   -7.0027 N   0  0  0  0  0  0  0  0  0  0  0  0
    6.1972    0.7948   -6.1205 C   0  0  0  0  0  0  0  0  0  0  0  0
    5.3582   -0.0407   -5.3747 C   0  0  0  0  0  0  0  0  0  0  0  0
    5.7731   -1.0357   -4.5590 C   0  0  0  0  0  0  0  0  0  0  0  0
    7.1317   -1.2901   -4.4218 C   0  0  0  0  0  0  0  0  0  0  0  0
    7.5693   -2.3977   -3.5451 C   0  0  0  0  0  0  0  0  0  0  0  0
    8.0009   -0.4891   -5.1366 C   0  0  0  0  0  0  0  0  0  0  0  0
    7.5531    0.5102   -5.9533 C   0  0  0  0  0  0  0  0  0  0  0  0
    6.2449    2.0032   -8.3080 C   0  0  0  0  0  0  0  0  0  0  0  0
    6.6803    1.0632   -9.1779 C   0  0  0  0  0  0  0  0  0  0  0  0
    7.1008    1.4214  -10.4655 C   0  0  0  0  0  0  0  0  0  0  0  0
    7.0977    2.7200  -10.9132 C   0  0  0  0  0  0  0  0  0  0  0  0
    7.5016    3.1693  -12.2621 C   0  0  0  0  0  0  0  0  0  0  0  0
    6.6465    3.6891  -10.0082 C   0  0  0  0  0  0  0  0  0  0  0  0
    6.2385    3.3411   -8.7532 C   0  0  0  0  0  0  0  0  0  0  0  0
    3.3375    2.2175   -7.3034 C   0  0  0  0  0  0  0  0  0  0  0  0
    2.7633    0.8791   -8.2104 S   0  0  0  0  0  0  0  0  0  0  0  0
    1.1269    1.3374   -8.3412 C   0  0  0  0  0  0  0  0  0  0  0  0
    1.0592    2.5238   -7.6860 C   0  0  0  0  0  0  0  0  0  0  0  0
   -0.0821    3.3410   -7.6374 N   0  0  0  0  0  0  0  0  0  0  0  0
   -1.3705    3.2740   -7.0957 C   0  0  0  0  0  0  0  0  0  0  0  0
   -1.6955    2.8552   -5.8197 C   0  0  0  0  0  0  0  0  0  0  0  0
   -3.0374    2.9090   -5.4028 C   0  0  0  0  0  0  0  0  0  0  0  0
   -4.0608    3.3450   -6.1786 C   0  0  0  0  0  0  0  0  0  0  0  0
   -5.4820    3.4159   -5.7575 C   0  0  0  0  0  0  0  0  0  0  0  0
   -3.7254    3.7629   -7.4601 C   0  0  0  0  0  0  0  0  0  0  0  0
   -2.4378    3.7248   -7.8892 C   0  0  0  0  0  0  0  0  0  0  0  0
    0.1305    4.6783   -8.2445 C   0  0  0  0  0  0  0  0  0  0  0  0
   -0.3469    5.7794   -7.5941 C   0  0  0  0  0  0  0  0  0  0  0  0
   -0.1506    7.0497   -8.0169 C   0  0  0  0  0  0  0  0  0  0  0  0
    0.5681    7.2307   -9.1594 C   0  0  0  0  0  0  0  0  0  0  0  0
    0.8639    8.6358   -9.5884 C   0  0  0  0  0  0  0  0  0  0  0  0
    1.0707    6.1501   -9.8623 C   0  0  0  0  0  0  0  0  0  0  0  0
    0.8470    4.8349   -9.3957 C   0  0  0  0  0  0  0  0  0  0  0  0
    2.2666    2.9587   -7.1398 C   0  0  0  0  0  0  0  0  0  0  0  0
    2.9253    4.2198   -6.1082 S   0  0  0  0  0  0  0  0  0  0  0  0
    0.1015    0.5185   -9.0488 C   0  0  0  0  0  0  0  0  0  0  0  0
   -0.8374   -0.0980   -8.3292 C   0  0  0  0  0  0  0  0  0  0  0  0
   -0.9439    0.0009   -6.7139 C   0  0  0  0  0  0  0  0  0  0  0  0
    0.0533    0.3375   -6.3589 O   0  0  0  0  0  0  0  0  0  0  0  0
   -2.3170   -0.4059   -6.5887 C   0  0  0  0  0  0  0  0  0  0  0  0
   -3.0317   -0.7260   -7.7048 C   0  0  0  0  0  0  0  0  0  0  0  0
   -4.3432   -1.1294   -7.6568 C   0  0  0  0  0  0  0  0  0  0  0  0
   -5.0043   -1.2206   -6.4130 C   0  0  0  0  0  0  0  0  0  0  0  0
   -4.3215   -0.9056   -5.2960 C   0  0  0  0  0  0  0  0  0  0  0  0
   -5.1963   -1.0366   -3.5891 Br  0  0  0  0  0  0  0  0  0  0  0  0
   -3.0165   -0.5032   -5.3500 C   0  0  0  0  0  0  0  0  0  0  0  0
   -2.1355   -0.0766   -3.9080 Cl  0  0  0  0  0  0  0  0  0  0  0  0
   -2.0619   -0.5368   -8.8410 C   0  0  0  0  0  0  0  0  0  0  0  0
   -2.3086   -1.1844   -9.9956 C   0  0  0  0  0  0  0  0  0  0  0  0
   -1.0162   -1.5058  -10.7569 C   0  0  0  0  0  0  0  0  0  0  0  0
   -0.0307   -1.7462  -11.3600 N   0  0  0  0  0  0  0  0  0  0  0  0
   -3.4986   -1.4924  -10.5315 C   0  0  0  0  0  0  0  0  0  0  0  0
   -4.5972   -1.7931  -11.0262 N   0  0  0  0  0  0  0  0  0  0  0  0
   -7.0373   -1.4957    8.1527 H   0  0  0  0  0  0  0  0  0  0  0  0
   -1.1291   -0.8486   10.3971 H   0  0  0  0  0  0  0  0  0  0  0  0
    0.3967   -0.8869   12.2256 H   0  0  0  0  0  0  0  0  0  0  0  0
    0.7424   -1.0012   14.6894 H   0  0  0  0  0  0  0  0  0  0  0  0
   -3.4647   -0.9046   15.1891 H   0  0  0  0  0  0  0  0  0  0  0  0
   -4.9246   -0.8401   13.4381 H   0  0  0  0  0  0  0  0  0  0  0  0
   -6.6767   -5.2675    8.6765 H   0  0  0  0  0  0  0  0  0  0  0  0
   -9.0960   -5.5826    8.7425 H   0  0  0  0  0  0  0  0  0  0  0  0
  -11.2675   -5.0826    7.8887 H   0  0  0  0  0  0  0  0  0  0  0  0
  -11.1395   -5.7073    6.2171 H   0  0  0  0  0  0  0  0  0  0  0  0
  -11.4511   -3.9256    6.4442 H   0  0  0  0  0  0  0  0  0  0  0  0
   -9.5458   -3.5404    5.0497 H   0  0  0  0  0  0  0  0  0  0  0  0
   -7.0842   -3.1932    4.9566 H   0  0  0  0  0  0  0  0  0  0  0  0
   -2.7967   -5.0616    7.4532 H   0  0  0  0  0  0  0  0  0  0  0  0
   -1.9403   -7.2687    6.7911 H   0  0  0  0  0  0  0  0  0  0  0  0
   -2.8917   -9.1622    4.2552 H   0  0  0  0  0  0  0  0  0  0  0  0
   -4.1059   -9.8825    5.3151 H   0  0  0  0  0  0  0  0  0  0  0  0
   -2.4163   -9.5426    5.9692 H   0  0  0  0  0  0  0  0  0  0  0  0
   -5.5788   -8.1495    4.7295 H   0  0  0  0  0  0  0  0  0  0  0  0
   -6.3764   -5.9924    5.3698 H   0  0  0  0  0  0  0  0  0  0  0  0
   -4.8966   -0.1129    2.4054 H   0  0  0  0  0  0  0  0  0  0  0  0
   -5.8584    0.9947    0.4184 H   0  0  0  0  0  0  0  0  0  0  0  0
   -3.7510    3.2356   -1.8085 H   0  0  0  0  0  0  0  0  0  0  0  0
   -4.9190    1.9344   -2.1724 H   0  0  0  0  0  0  0  0  0  0  0  0
   -5.3571    3.3261   -1.0869 H   0  0  0  0  0  0  0  0  0  0  0  0
   -2.0614    2.5881   -0.5587 H   0  0  0  0  0  0  0  0  0  0  0  0
   -1.1316    1.4509    1.4521 H   0  0  0  0  0  0  0  0  0  0  0  0
   -0.7154   -0.6515    5.2305 H   0  0  0  0  0  0  0  0  0  0  0  0
    0.0758    0.7745    7.0015 H   0  0  0  0  0  0  0  0  0  0  0  0
    0.1250    2.8495    8.0431 H   0  0  0  0  0  0  0  0  0  0  0  0
   -0.3161    4.3186    6.9734 H   0  0  0  0  0  0  0  0  0  0  0  0
   -1.5890    3.5423    8.0295 H   0  0  0  0  0  0  0  0  0  0  0  0
   -2.2445    4.0517    5.4838 H   0  0  0  0  0  0  0  0  0  0  0  0
   -3.0646    2.5463    3.7011 H   0  0  0  0  0  0  0  0  0  0  0  0
   -0.8819   -4.9939    3.3193 H   0  0  0  0  0  0  0  0  0  0  0  0
    0.8230   -5.4537    2.9446 H   0  0  0  0  0  0  0  0  0  0  0  0
   -1.5270   -5.2899    1.2059 H   0  0  0  0  0  0  0  0  0  0  0  0
   -0.1729   -4.3574    0.5390 H   0  0  0  0  0  0  0  0  0  0  0  0
    0.0898   -6.0948    0.9165 H   0  0  0  0  0  0  0  0  0  0  0  0
    7.5984    3.5810   -6.4326 H   0  0  0  0  0  0  0  0  0  0  0  0
    8.6656    2.9658   -5.0720 H   0  0  0  0  0  0  0  0  0  0  0  0
    9.2468    4.9771   -4.4709 H   0  0  0  0  0  0  0  0  0  0  0  0
    8.9400    5.3527   -6.1834 H   0  0  0  0  0  0  0  0  0  0  0  0
    7.6891    5.7867   -4.9028 H   0  0  0  0  0  0  0  0  0  0  0  0
    3.3039    2.3108    2.2109 H   0  0  0  0  0  0  0  0  0  0  0  0
    1.6916    1.4406    2.0026 H   0  0  0  0  0  0  0  0  0  0  0  0
    2.4881    2.1171    4.2172 H   0  0  0  0  0  0  0  0  0  0  0  0
    2.3121    0.2686    4.0371 H   0  0  0  0  0  0  0  0  0  0  0  0
    3.9108    1.0055    3.9458 H   0  0  0  0  0  0  0  0  0  0  0  0
    2.8585    2.7619    0.0789 H   0  0  0  0  0  0  0  0  0  0  0  0
    3.7039    3.7873   -0.8923 H   0  0  0  0  0  0  0  0  0  0  0  0
    4.7852    5.1236    0.5038 H   0  0  0  0  0  0  0  0  0  0  0  0
    4.8438    3.9533    1.7957 H   0  0  0  0  0  0  0  0  0  0  0  0
    3.3130    4.8138    1.4324 H   0  0  0  0  0  0  0  0  0  0  0  0
    4.2902    0.1318   -5.4662 H   0  0  0  0  0  0  0  0  0  0  0  0
    5.1023   -1.6555   -3.9824 H   0  0  0  0  0  0  0  0  0  0  0  0
    6.7838   -2.5834   -2.7712 H   0  0  0  0  0  0  0  0  0  0  0  0
    8.5633   -2.2595   -3.0947 H   0  0  0  0  0  0  0  0  0  0  0  0
    7.6047   -3.3344   -4.1473 H   0  0  0  0  0  0  0  0  0  0  0  0
    9.0717   -0.7148   -4.9920 H   0  0  0  0  0  0  0  0  0  0  0  0
    8.2812    1.0954   -6.4943 H   0  0  0  0  0  0  0  0  0  0  0  0
    6.7090    0.0301   -8.8799 H   0  0  0  0  0  0  0  0  0  0  0  0
    7.4565    0.6458  -11.1488 H   0  0  0  0  0  0  0  0  0  0  0  0
    6.6318    3.1442  -12.9728 H   0  0  0  0  0  0  0  0  0  0  0  0
    8.3203    2.5995  -12.6859 H   0  0  0  0  0  0  0  0  0  0  0  0
    7.7633    4.2785  -12.2443 H   0  0  0  0  0  0  0  0  0  0  0  0
    6.6537    4.7171  -10.3541 H   0  0  0  0  0  0  0  0  0  0  0  0
    5.8803    4.0849   -8.0482 H   0  0  0  0  0  0  0  0  0  0  0  0
   -0.9712    2.4871   -5.1411 H   0  0  0  0  0  0  0  0  0  0  0  0
   -3.2480    2.5769   -4.3693 H   0  0  0  0  0  0  0  0  0  0  0  0
   -6.0702    2.7305   -6.4228 H   0  0  0  0  0  0  0  0  0  0  0  0
   -5.6679    3.0699   -4.7303 H   0  0  0  0  0  0  0  0  0  0  0  0
   -5.9319    4.4205   -5.9189 H   0  0  0  0  0  0  0  0  0  0  0  0
   -4.5300    4.1192   -8.0931 H   0  0  0  0  0  0  0  0  0  0  0  0
   -2.1662    4.0628   -8.8872 H   0  0  0  0  0  0  0  0  0  0  0  0
   -0.9302    5.5978   -6.6745 H   0  0  0  0  0  0  0  0  0  0  0  0
   -0.5769    7.8663   -7.4325 H   0  0  0  0  0  0  0  0  0  0  0  0
    0.2829    8.9361  -10.4389 H   0  0  0  0  0  0  0  0  0  0  0  0
    0.6846    9.3395   -8.7429 H   0  0  0  0  0  0  0  0  0  0  0  0
    1.9626    8.6835   -9.8029 H   0  0  0  0  0  0  0  0  0  0  0  0
    1.6278    6.2904  -10.7498 H   0  0  0  0  0  0  0  0  0  0  0  0
    1.2171    3.9664   -9.9286 H   0  0  0  0  0  0  0  0  0  0  0  0
    0.0756    0.4865  -10.1026 H   0  0  0  0  0  0  0  0  0  0  0  0
   -4.8972   -1.3998   -8.5187 H   0  0  0  0  0  0  0  0  0  0  0  0
   -6.0606   -1.5417   -6.4281 H   0  0  0  0  0  0  0  0  0  0  0  0
  1  2  2  3
  2  3  1  0
  3  4  2  0
  3  5  1  0
  5  6  2  0
  6  7  1  0
  7  8  2  0
  8  9  1  0
  9 10  2  0
 10 11  1  0
 10 12  1  0
 12 13  2  0
 13 14  1  0
 14 15  2  0
 15 16  1  0
 16 17  2  3
 17 18  1  0
 18 19  3  0
 17 20  1  0
 20 21  3  0
  1 22  1  0
 22 23  2  0
 23 24  1  0
 24 25  1  0
 25 26  2  0
 26 27  1  0
 27 28  2  0
 28 29  1  0
 28 30  1  0
 30 31  2  0
 24 32  1  0
 32 33  2  0
 33 34  1  0
 34 35  2  0
 35 36  1  0
 35 37  1  0
 37 38  2  0
 23 39  1  0
 39 40  1  0
 40 41  1  0
 41 42  2  0
 42 43  1  0
 43 44  1  0
 44 45  2  0
 45 46  1  0
 46 47  2  0
 47 48  1  0
 47 49  1  0
 49 50  2  0
 43 51  1  0
 51 52  2  0
 52 53  1  0
 53 54  2  0
 54 55  1  0
 54 56  1  0
 56 57  2  0
 42 58  1  0
 58 59  1  0
 41 60  1  0
 60 61  2  0
 61 62  1  0
 62 63  1  0
 61 64  1  0
 64 65  1  0
 65 66  1  0
 66 67  1  0
 67 68  1  0
 68 69  1  0
 69 70  2  0
 70 71  1  0
 71 72  1  0
 69 73  1  0
 73 74  1  0
 74 75  1  0
 75 76  1  0
 76 77  1  0
 77 78  1  0
 78 79  1  0
 77 80  2  0
 80 81  1  0
 81 82  1  0
 82 83  1  0
 83 84  1  0
 84 85  1  0
 85 86  1  0
 86 87  1  0
 87 88  1  0
 88 89  1  0
 89 90  1  0
 87 91  1  0
 91 92  1  0
 84 93  1  0
 93 94  1  0
 80 95  1  0
 95 96  2  0
 96 97  1  0
 97 98  1  0
 98 99  2  0
 99100  1  0
100101  2  0
101102  1  0
101103  1  0
103104  2  0
 97105  1  0
105106  2  0
106107  1  0
107108  2  0
108109  1  0
108110  1  0
110111  2  0
 96112  1  0
112113  1  0
113114  1  0
114115  2  0
115116  1  0
116117  1  0
117118  2  0
118119  1  0
119120  2  0
120121  1  0
120122  1  0
122123  2  0
116124  1  0
124125  2  0
125126  1  0
126127  2  0
127128  1  0
127129  1  0
129130  2  0
115131  1  0
131132  1  0
114133  1  0
133134  2  3
134135  1  0
135136  2  0
135137  1  0
137138  2  0
138139  1  0
139140  2  0
140141  1  0
141142  1  0
141143  2  0
143144  1  0
138145  1  0
145146  2  3
146147  1  0
147148  3  0
146149  1  0
149150  3  0
 16  2  1  0
 59 22  1  0
 90 60  1  0
132 95  1  0
145134  1  0
 15  5  1  0
 31 25  1  0
 38 32  1  0
 58 39  2  0
 89 64  2  0
104 98  1  0
111105  1  0
131112  2  0
143137  1  0
 13  7  1  0
 50 44  1  0
 57 51  1  0
 88 66  2  0
123117  1  0
130124  1  0
 86 67  2  0
 72 68  2  0
 85 73  2  0
 83 74  2  0
 82 76  2  0
  1151  1  0
  6152  1  0
  8153  1  0
  9154  1  0
 12155  1  0
 14156  1  0
 26157  1  0
 27158  1  0
 29159  1  0
 29160  1  0
 29161  1  0
 30162  1  0
 31163  1  0
 33164  1  0
 34165  1  0
 36166  1  0
 36167  1  0
 36168  1  0
 37169  1  0
 38170  1  0
 45171  1  0
 46172  1  0
 48173  1  0
 48174  1  0
 48175  1  0
 49176  1  0
 50177  1  0
 52178  1  0
 53179  1  0
 55180  1  0
 55181  1  0
 55182  1  0
 56183  1  0
 57184  1  0
 62185  1  0
 62186  1  0
 63187  1  0
 63188  1  0
 63189  1  0
 78190  1  0
 78191  1  0
 79192  1  0
 79193  1  0
 79194  1  0
 91195  1  0
 91196  1  0
 92197  1  0
 92198  1  0
 92199  1  0
 93200  1  0
 93201  1  0
 94202  1  0
 94203  1  0
 94204  1  0
 99205  1  0
100206  1  0
102207  1  0
102208  1  0
102209  1  0
103210  1  0
104211  1  0
106212  1  0
107213  1  0
109214  1  0
109215  1  0
109216  1  0
110217  1  0
111218  1  0
118219  1  0
119220  1  0
121221  1  0
121222  1  0
121223  1  0
122224  1  0
123225  1  0
125226  1  0
126227  1  0
128228  1  0
128229  1  0
128230  1  0
129231  1  0
130232  1  0
133233  1  0
139234  1  0
140235  1  0
M  END

