
     RDKit          3D

256281  0  0  0  0  0  0  0  0999 V2000
    5.9956    1.5233    7.0650 C   0  0  0  0  0  0  0  0  0  0  0  0
    7.3271    1.3100    7.0782 C   0  0  0  0  0  0  0  0  0  0  0  0
    8.0230    0.2450    6.3339 C   0  0  0  0  0  0  0  0  0  0  0  0
    7.4956   -0.6239    5.5868 O   0  0  0  0  0  0  0  0  0  0  0  0
    9.4386    0.3717    6.5600 C   0  0  0  0  0  0  0  0  0  0  0  0
   10.4667   -0.3052    5.9024 C   0  0  0  0  0  0  0  0  0  0  0  0
   11.7938    0.0965    6.1355 C   0  0  0  0  0  0  0  0  0  0  0  0
   12.8520   -0.5295    5.4515 C   0  0  0  0  0  0  0  0  0  0  0  0
   14.1660   -0.1039    5.6596 C   0  0  0  0  0  0  0  0  0  0  0  0
   14.4361    0.9491    6.5431 C   0  0  0  0  0  0  0  0  0  0  0  0
   15.7100    1.3678    6.7218 F   0  0  0  0  0  0  0  0  0  0  0  0
   13.3884    1.5834    7.2298 C   0  0  0  0  0  0  0  0  0  0  0  0
   12.0620    1.1742    7.0267 C   0  0  0  0  0  0  0  0  0  0  0  0
   10.9979    1.8427    7.6676 C   0  0  0  0  0  0  0  0  0  0  0  0
    9.6803    1.4141    7.4357 C   0  0  0  0  0  0  0  0  0  0  0  0
    8.3917    2.0329    7.8569 C   0  0  0  0  0  0  0  0  0  0  0  0
    8.2328    2.9281    8.8654 C   0  0  0  0  0  0  0  0  0  0  0  0
    7.0143    3.6600    9.0820 C   0  0  0  0  0  0  0  0  0  0  0  0
    6.0362    4.2529    9.2497 N   0  0  0  0  0  0  0  0  0  0  0  0
    9.2447    3.1009    9.8868 C   0  0  0  0  0  0  0  0  0  0  0  0
   10.0495    3.2162   10.7158 N   0  0  0  0  0  0  0  0  0  0  0  0
    5.0684    0.6383    6.3409 C   0  0  0  0  0  0  0  0  0  0  0  0
    4.6007   -0.6071    6.8291 C   0  0  0  0  0  0  0  0  0  0  0  0
    4.5437   -0.9669    8.2325 N   0  0  0  0  0  0  0  0  0  0  0  0
    4.4914    0.0763    9.2256 C   0  0  0  0  0  0  0  0  0  0  0  0
    3.5013    1.0691    9.1472 C   0  0  0  0  0  0  0  0  0  0  0  0
    3.4531    2.1005   10.0925 C   0  0  0  0  0  0  0  0  0  0  0  0
    4.3934    2.1424   11.1331 C   0  0  0  0  0  0  0  0  0  0  0  0
    4.3424    3.2461   12.1481 C   0  0  0  0  0  0  0  0  0  0  0  0
    5.3580    1.1275   11.2343 C   0  0  0  0  0  0  0  0  0  0  0  0
    5.4063    0.0992   10.2846 C   0  0  0  0  0  0  0  0  0  0  0  0
    3.9753   -2.2213    8.6441 C   0  0  0  0  0  0  0  0  0  0  0  0
    4.7961   -3.2214    9.1815 C   0  0  0  0  0  0  0  0  0  0  0  0
    4.2273   -4.4083    9.6658 C   0  0  0  0  0  0  0  0  0  0  0  0
    2.8370   -4.6031    9.6052 C   0  0  0  0  0  0  0  0  0  0  0  0
    2.2073   -5.8543   10.1486 C   0  0  0  0  0  0  0  0  0  0  0  0
    2.0214   -3.5957    9.0710 C   0  0  0  0  0  0  0  0  0  0  0  0
    2.5861   -2.4063    8.6090 C   0  0  0  0  0  0  0  0  0  0  0  0
    4.1853   -1.4181    5.7625 C   0  0  0  0  0  0  0  0  0  0  0  0
    3.7834   -3.0463    5.5656 S   0  0  0  0  0  0  0  0  0  0  0  0
    3.6364   -2.9599    3.8688 C   0  0  0  0  0  0  0  0  0  0  0  0
    3.9358   -1.6515    3.4560 C   0  0  0  0  0  0  0  0  0  0  0  0
    3.8312   -1.1976    2.0955 N   0  0  0  0  0  0  0  0  0  0  0  0
    2.5385   -1.3039    1.4731 C   0  0  0  0  0  0  0  0  0  0  0  0
    2.3977   -1.9769    0.2509 C   0  0  0  0  0  0  0  0  0  0  0  0
    1.1387   -2.0977   -0.3402 C   0  0  0  0  0  0  0  0  0  0  0  0
    0.0169   -1.5046    0.2559 C   0  0  0  0  0  0  0  0  0  0  0  0
   -1.3332   -1.6336   -0.3848 C   0  0  0  0  0  0  0  0  0  0  0  0
    0.1568   -0.8467    1.4900 C   0  0  0  0  0  0  0  0  0  0  0  0
    1.4104   -0.7500    2.0948 C   0  0  0  0  0  0  0  0  0  0  0  0
    4.9423   -0.5907    1.3897 C   0  0  0  0  0  0  0  0  0  0  0  0
    4.7081    0.3079    0.3281 C   0  0  0  0  0  0  0  0  0  0  0  0
    5.7714    0.8348   -0.4081 C   0  0  0  0  0  0  0  0  0  0  0  0
    7.0893    0.4857   -0.0947 C   0  0  0  0  0  0  0  0  0  0  0  0
    8.2294    1.0106   -0.9190 C   0  0  0  0  0  0  0  0  0  0  0  0
    7.3358   -0.3937    0.9709 C   0  0  0  0  0  0  0  0  0  0  0  0
    6.2734   -0.9172    1.7140 C   0  0  0  0  0  0  0  0  0  0  0  0
    4.2450   -0.8308    4.5346 C   0  0  0  0  0  0  0  0  0  0  0  0
    4.8681    0.7192    4.6549 S   0  0  0  0  0  0  0  0  0  0  0  0
    3.7196   -4.1176    2.9734 C   0  0  0  0  0  0  0  0  0  0  0  0
    2.3893   -4.8515    2.2024 S   0  0  0  0  0  0  0  0  0  0  0  0
    3.3032   -5.4722    0.9274 C   0  0  0  0  0  0  0  0  0  0  0  0
    3.0272   -5.5471   -0.4235 C   0  0  0  0  0  0  0  0  0  0  0  0
    4.1713   -5.0817   -1.0655 C   0  0  0  0  0  0  0  0  0  0  0  0
    5.1577   -4.8101   -0.1757 N   0  0  0  0  0  0  0  0  0  0  0  0
    4.5859   -5.0165    1.0318 C   0  0  0  0  0  0  0  0  0  0  0  0
    4.8625   -4.3168    2.2011 C   0  0  0  0  0  0  0  0  0  0  0  0
    6.3665   -4.0207   -0.4318 C   0  0  0  0  0  0  0  0  0  0  0  0
    4.1215   -4.6578   -2.3991 C   0  0  0  0  0  0  0  0  0  0  0  0
    2.9097   -4.8355   -3.0778 C   0  0  0  0  0  0  0  0  0  0  0  0
    2.5112   -4.3343   -4.3802 C   0  0  0  0  0  0  0  0  0  0  0  0
    1.3203   -4.8400   -4.6688 C   0  0  0  0  0  0  0  0  0  0  0  0
    0.7092   -5.6470   -3.5177 C   0  0  0  0  0  0  0  0  0  0  0  0
    0.5290   -7.1349   -3.9313 C   0  0  0  0  0  0  0  0  0  0  0  0
    1.7268   -7.7614   -4.6568 C   0  0  0  0  0  0  0  0  0  0  0  0
   -0.6175   -4.9863   -3.0153 C   0  0  0  0  0  0  0  0  0  0  0  0
   -1.5539   -5.8955   -2.2143 C   0  0  0  0  0  0  0  0  0  0  0  0
    1.8242   -5.4848   -2.4979 C   0  0  0  0  0  0  0  0  0  0  0  0
    1.8293   -5.7790   -1.1137 C   0  0  0  0  0  0  0  0  0  0  0  0
    0.6716   -3.9737   -5.6327 C   0  0  0  0  0  0  0  0  0  0  0  0
    1.4224   -2.8073   -5.7428 C   0  0  0  0  0  0  0  0  0  0  0  0
    2.7430   -2.9475   -5.0000 C   0  0  0  0  0  0  0  0  0  0  0  0
    2.8231   -1.8122   -3.9053 C   0  0  0  0  0  0  0  0  0  0  0  0
    4.1648   -1.1242   -3.6681 C   0  0  0  0  0  0  0  0  0  0  0  0
    3.8762   -2.9755   -6.0717 C   0  0  0  0  0  0  0  0  0  0  0  0
    5.1977   -3.6121   -5.6323 C   0  0  0  0  0  0  0  0  0  0  0  0
    0.8857   -1.6655   -6.3755 C   0  0  0  0  0  0  0  0  0  0  0  0
   -0.3852   -1.8077   -6.9521 C   0  0  0  0  0  0  0  0  0  0  0  0
   -1.3236   -0.8680   -7.3154 C   0  0  0  0  0  0  0  0  0  0  0  0
   -1.6619    0.6715   -6.7345 S   0  0  0  0  0  0  0  0  0  0  0  0
   -3.3575    0.5111   -6.8808 C   0  0  0  0  0  0  0  0  0  0  0  0
   -3.6422   -0.7810   -7.3378 C   0  0  0  0  0  0  0  0  0  0  0  0
   -2.4893   -1.5351   -7.5337 C   0  0  0  0  0  0  0  0  0  0  0  0
   -2.3505   -2.8732   -7.3761 N   0  0  0  0  0  0  0  0  0  0  0  0
   -3.4302   -3.8436   -7.2321 C   0  0  0  0  0  0  0  0  0  0  0  0
   -1.0641   -3.0255   -6.9603 C   0  0  0  0  0  0  0  0  0  0  0  0
   -0.5521   -4.1443   -6.2893 C   0  0  0  0  0  0  0  0  0  0  0  0
   -4.3770    1.3476   -6.1971 C   0  0  0  0  0  0  0  0  0  0  0  0
   -4.2334    2.6240   -5.6084 C   0  0  0  0  0  0  0  0  0  0  0  0
   -3.2312    3.5878   -5.9750 N   0  0  0  0  0  0  0  0  0  0  0  0
   -1.9475    3.6028   -5.3124 C   0  0  0  0  0  0  0  0  0  0  0  0
   -1.8132    3.1288   -3.9947 C   0  0  0  0  0  0  0  0  0  0  0  0
   -0.5673    3.1396   -3.3620 C   0  0  0  0  0  0  0  0  0  0  0  0
    0.5683    3.6109   -4.0418 C   0  0  0  0  0  0  0  0  0  0  0  0
    1.9013    3.6686   -3.3525 C   0  0  0  0  0  0  0  0  0  0  0  0
    0.4396    4.0851   -5.3535 C   0  0  0  0  0  0  0  0  0  0  0  0
   -0.8066    4.0729   -5.9870 C   0  0  0  0  0  0  0  0  0  0  0  0
   -3.6518    4.6700   -6.8389 C   0  0  0  0  0  0  0  0  0  0  0  0
   -3.3432    6.0071   -6.5253 C   0  0  0  0  0  0  0  0  0  0  0  0
   -3.8585    7.0547   -7.2958 C   0  0  0  0  0  0  0  0  0  0  0  0
   -4.6826    6.7848   -8.3980 C   0  0  0  0  0  0  0  0  0  0  0  0
   -5.3003    7.9158   -9.1690 C   0  0  0  0  0  0  0  0  0  0  0  0
   -4.9918    5.4545   -8.7163 C   0  0  0  0  0  0  0  0  0  0  0  0
   -4.4753    4.4082   -7.9503 C   0  0  0  0  0  0  0  0  0  0  0  0
   -5.3741    2.9744   -4.8768 C   0  0  0  0  0  0  0  0  0  0  0  0
   -5.8343    4.2681   -3.9007 S   0  0  0  0  0  0  0  0  0  0  0  0
   -7.3505    3.5787   -3.4818 C   0  0  0  0  0  0  0  0  0  0  0  0
   -7.5081    2.3767   -4.1857 C   0  0  0  0  0  0  0  0  0  0  0  0
   -8.7060    1.5867   -4.2010 N   0  0  0  0  0  0  0  0  0  0  0  0
   -9.0889    0.8727   -3.0177 C   0  0  0  0  0  0  0  0  0  0  0  0
  -10.4080    0.9444   -2.5421 C   0  0  0  0  0  0  0  0  0  0  0  0
  -10.7569    0.3335   -1.3341 C   0  0  0  0  0  0  0  0  0  0  0  0
   -9.7925   -0.3743   -0.5969 C   0  0  0  0  0  0  0  0  0  0  0  0
  -10.1346   -0.9366    0.7517 C   0  0  0  0  0  0  0  0  0  0  0  0
   -8.4817   -0.4710   -1.0878 C   0  0  0  0  0  0  0  0  0  0  0  0
   -8.1394    0.1321   -2.2994 C   0  0  0  0  0  0  0  0  0  0  0  0
   -9.4402    1.4505   -5.4312 C   0  0  0  0  0  0  0  0  0  0  0  0
   -9.8474    0.1814   -5.8777 C   0  0  0  0  0  0  0  0  0  0  0  0
  -10.5039    0.0395   -7.1032 C   0  0  0  0  0  0  0  0  0  0  0  0
  -10.7863    1.1699   -7.8890 C   0  0  0  0  0  0  0  0  0  0  0  0
  -11.4650    1.0220   -9.2183 C   0  0  0  0  0  0  0  0  0  0  0  0
  -10.3741    2.4372   -7.4488 C   0  0  0  0  0  0  0  0  0  0  0  0
   -9.7049    2.5760   -6.2288 C   0  0  0  0  0  0  0  0  0  0  0  0
   -6.3744    2.0624   -4.9133 C   0  0  0  0  0  0  0  0  0  0  0  0
   -5.9270    0.7409   -5.8224 S   0  0  0  0  0  0  0  0  0  0  0  0
   -8.4256    4.2011   -2.6931 C   0  0  0  0  0  0  0  0  0  0  0  0
   -8.3212    4.8640   -1.5224 C   0  0  0  0  0  0  0  0  0  0  0  0
   -9.4425    5.6422   -0.9944 C   0  0  0  0  0  0  0  0  0  0  0  0
  -10.6226    5.6318   -1.4424 O   0  0  0  0  0  0  0  0  0  0  0  0
   -8.9746    6.4554    0.0994 C   0  0  0  0  0  0  0  0  0  0  0  0
   -9.7210    7.3317    0.8867 C   0  0  0  0  0  0  0  0  0  0  0  0
   -9.0859    7.9783    1.9580 C   0  0  0  0  0  0  0  0  0  0  0  0
   -9.8022    8.8634    2.7791 C   0  0  0  0  0  0  0  0  0  0  0  0
   -9.1710    9.4863    3.8552 C   0  0  0  0  0  0  0  0  0  0  0  0
   -7.8252    9.2312    4.1270 C   0  0  0  0  0  0  0  0  0  0  0  0
   -7.2214    9.8334    5.1849 F   0  0  0  0  0  0  0  0  0  0  0  0
   -7.0941    8.3592    3.3149 C   0  0  0  0  0  0  0  0  0  0  0  0
   -7.7110    7.7285    2.2204 C   0  0  0  0  0  0  0  0  0  0  0  0
   -6.9785    6.8516    1.3915 C   0  0  0  0  0  0  0  0  0  0  0  0
   -7.6253    6.2160    0.3137 C   0  0  0  0  0  0  0  0  0  0  0  0
   -7.1519    5.1462   -0.6236 C   0  0  0  0  0  0  0  0  0  0  0  0
   -6.0439    4.3836   -0.4470 C   0  0  0  0  0  0  0  0  0  0  0  0
   -4.9061    4.8232    0.3134 C   0  0  0  0  0  0  0  0  0  0  0  0
   -3.9730    5.1654    0.9099 N   0  0  0  0  0  0  0  0  0  0  0  0
   -5.9654    3.0207   -0.8988 C   0  0  0  0  0  0  0  0  0  0  0  0
   -5.8731    1.9205   -1.2391 N   0  0  0  0  0  0  0  0  0  0  0  0
    5.5387    2.3216    7.6147 H   0  0  0  0  0  0  0  0  0  0  0  0
   10.2343   -1.0857    5.1843 H   0  0  0  0  0  0  0  0  0  0  0  0
   12.6557   -1.3404    4.7549 H   0  0  0  0  0  0  0  0  0  0  0  0
   14.9755   -0.5809    5.1241 H   0  0  0  0  0  0  0  0  0  0  0  0
   13.6175    2.4066    7.9000 H   0  0  0  0  0  0  0  0  0  0  0  0
   11.2050    2.7151    8.2785 H   0  0  0  0  0  0  0  0  0  0  0  0
    2.7717    1.0538    8.3425 H   0  0  0  0  0  0  0  0  0  0  0  0
    2.6886    2.8673   10.0044 H   0  0  0  0  0  0  0  0  0  0  0  0
    3.7202    2.9274   13.0114 H   0  0  0  0  0  0  0  0  0  0  0  0
    5.3658    3.4988   12.5094 H   0  0  0  0  0  0  0  0  0  0  0  0
    3.9026    4.1663   11.7057 H   0  0  0  0  0  0  0  0  0  0  0  0
    6.0789    1.1344   12.0433 H   0  0  0  0  0  0  0  0  0  0  0  0
    6.1610   -0.6693   10.3590 H   0  0  0  0  0  0  0  0  0  0  0  0
    5.8646   -3.0742    9.2419 H   0  0  0  0  0  0  0  0  0  0  0  0
    4.8708   -5.1669   10.1006 H   0  0  0  0  0  0  0  0  0  0  0  0
    1.5416   -6.3017    9.3814 H   0  0  0  0  0  0  0  0  0  0  0  0
    2.9717   -6.6122   10.4318 H   0  0  0  0  0  0  0  0  0  0  0  0
    1.5990   -5.6142   11.0501 H   0  0  0  0  0  0  0  0  0  0  0  0
    0.9452   -3.7234    9.0327 H   0  0  0  0  0  0  0  0  0  0  0  0
    1.9473   -1.6278    8.2107 H   0  0  0  0  0  0  0  0  0  0  0  0
    3.2636   -2.4146   -0.2270 H   0  0  0  0  0  0  0  0  0  0  0  0
    1.0381   -2.6556   -1.2574 H   0  0  0  0  0  0  0  0  0  0  0  0
   -1.9773   -0.7677   -0.1187 H   0  0  0  0  0  0  0  0  0  0  0  0
   -1.8243   -2.5668   -0.0357 H   0  0  0  0  0  0  0  0  0  0  0  0
   -1.2389   -1.6563   -1.4908 H   0  0  0  0  0  0  0  0  0  0  0  0
   -0.7007   -0.3984    1.9732 H   0  0  0  0  0  0  0  0  0  0  0  0
    1.5061   -0.2297    3.0366 H   0  0  0  0  0  0  0  0  0  0  0  0
    3.6979    0.6042    0.0623 H   0  0  0  0  0  0  0  0  0  0  0  0
    5.5592    1.5080   -1.2306 H   0  0  0  0  0  0  0  0  0  0  0  0
    9.0935    1.2683   -0.2675 H   0  0  0  0  0  0  0  0  0  0  0  0
    7.9366    1.9288   -1.4717 H   0  0  0  0  0  0  0  0  0  0  0  0
    8.5465    0.2366   -1.6508 H   0  0  0  0  0  0  0  0  0  0  0  0
    8.3492   -0.6841    1.2175 H   0  0  0  0  0  0  0  0  0  0  0  0
    6.4901   -1.5930    2.5267 H   0  0  0  0  0  0  0  0  0  0  0  0
    5.7873   -3.7838    2.3669 H   0  0  0  0  0  0  0  0  0  0  0  0
    7.1159   -4.2071    0.3656 H   0  0  0  0  0  0  0  0  0  0  0  0
    6.8193   -4.3194   -1.4002 H   0  0  0  0  0  0  0  0  0  0  0  0
    6.1074   -2.9436   -0.4547 H   0  0  0  0  0  0  0  0  0  0  0  0
    4.9585   -4.1611   -2.8642 H   0  0  0  0  0  0  0  0  0  0  0  0
   -0.3558   -7.2301   -4.5951 H   0  0  0  0  0  0  0  0  0  0  0  0
    0.3376   -7.7468   -3.0228 H   0  0  0  0  0  0  0  0  0  0  0  0
    2.6636   -7.6364   -4.0718 H   0  0  0  0  0  0  0  0  0  0  0  0
    1.5519   -8.8491   -4.7893 H   0  0  0  0  0  0  0  0  0  0  0  0
    1.8557   -7.3064   -5.6622 H   0  0  0  0  0  0  0  0  0  0  0  0
   -0.3917   -4.0840   -2.4108 H   0  0  0  0  0  0  0  0  0  0  0  0
   -1.2298   -4.6313   -3.8669 H   0  0  0  0  0  0  0  0  0  0  0  0
   -2.3564   -5.2849   -1.7423 H   0  0  0  0  0  0  0  0  0  0  0  0
   -1.0249   -6.4486   -1.4114 H   0  0  0  0  0  0  0  0  0  0  0  0
   -2.0457   -6.6382   -2.8849 H   0  0  0  0  0  0  0  0  0  0  0  0
    0.9603   -6.1341   -0.5869 H   0  0  0  0  0  0  0  0  0  0  0  0
    2.4780   -2.2042   -2.9280 H   0  0  0  0  0  0  0  0  0  0  0  0
    2.1030   -0.9956   -4.1363 H   0  0  0  0  0  0  0  0  0  0  0  0
    4.8716   -1.7976   -3.1461 H   0  0  0  0  0  0  0  0  0  0  0  0
    4.0024   -0.2462   -3.0121 H   0  0  0  0  0  0  0  0  0  0  0  0
    4.6024   -0.7471   -4.6134 H   0  0  0  0  0  0  0  0  0  0  0  0
    4.0627   -1.9540   -6.4612 H   0  0  0  0  0  0  0  0  0  0  0  0
    3.5359   -3.5709   -6.9498 H   0  0  0  0  0  0  0  0  0  0  0  0
    5.6520   -3.0677   -4.7892 H   0  0  0  0  0  0  0  0  0  0  0  0
    5.0460   -4.6773   -5.3641 H   0  0  0  0  0  0  0  0  0  0  0  0
    5.9193   -3.5710   -6.4727 H   0  0  0  0  0  0  0  0  0  0  0  0
    1.4018   -0.7135   -6.3697 H   0  0  0  0  0  0  0  0  0  0  0  0
   -4.6325   -1.2127   -7.3452 H   0  0  0  0  0  0  0  0  0  0  0  0
   -3.0827   -4.8520   -7.5424 H   0  0  0  0  0  0  0  0  0  0  0  0
   -3.7753   -3.8762   -6.1742 H   0  0  0  0  0  0  0  0  0  0  0  0
   -4.2845   -3.5663   -7.8877 H   0  0  0  0  0  0  0  0  0  0  0  0
   -1.1123   -5.0632   -6.1805 H   0  0  0  0  0  0  0  0  0  0  0  0
   -2.6727    2.7670   -3.4465 H   0  0  0  0  0  0  0  0  0  0  0  0
   -0.4880    2.7871   -2.3383 H   0  0  0  0  0  0  0  0  0  0  0  0
    2.7000    3.3138   -4.0369 H   0  0  0  0  0  0  0  0  0  0  0  0
    1.9151    3.0277   -2.4453 H   0  0  0  0  0  0  0  0  0  0  0  0
    2.1199    4.7159   -3.0545 H   0  0  0  0  0  0  0  0  0  0  0  0
    1.3009    4.4708   -5.8861 H   0  0  0  0  0  0  0  0  0  0  0  0
   -0.8831    4.4248   -7.0108 H   0  0  0  0  0  0  0  0  0  0  0  0
   -2.7388    6.2394   -5.6569 H   0  0  0  0  0  0  0  0  0  0  0  0
   -3.6306    8.0796   -7.0189 H   0  0  0  0  0  0  0  0  0  0  0  0
   -6.1786    8.3043   -8.6107 H   0  0  0  0  0  0  0  0  0  0  0  0
   -4.5620    8.7366   -9.3058 H   0  0  0  0  0  0  0  0  0  0  0  0
   -5.6341    7.5783  -10.1753 H   0  0  0  0  0  0  0  0  0  0  0  0
   -5.6469    5.2294   -9.5522 H   0  0  0  0  0  0  0  0  0  0  0  0
   -4.7374    3.3921   -8.2109 H   0  0  0  0  0  0  0  0  0  0  0  0
  -11.1539    1.5081   -3.0892 H   0  0  0  0  0  0  0  0  0  0  0  0
  -11.7728    0.4232   -0.9648 H   0  0  0  0  0  0  0  0  0  0  0  0
   -9.9639   -0.1597    1.5243 H   0  0  0  0  0  0  0  0  0  0  0  0
   -9.5004   -1.8183    0.9798 H   0  0  0  0  0  0  0  0  0  0  0  0
  -11.1960   -1.2554    0.7831 H   0  0  0  0  0  0  0  0  0  0  0  0
   -7.7216   -1.0065   -0.5259 H   0  0  0  0  0  0  0  0  0  0  0  0
   -7.1243    0.0394   -2.6688 H   0  0  0  0  0  0  0  0  0  0  0  0
   -9.6187   -0.7040   -5.2914 H   0  0  0  0  0  0  0  0  0  0  0  0
  -10.7737   -0.9531   -7.4473 H   0  0  0  0  0  0  0  0  0  0  0  0
  -12.1471    1.8810   -9.4024 H   0  0  0  0  0  0  0  0  0  0  0  0
  -12.0694    0.0907   -9.2531 H   0  0  0  0  0  0  0  0  0  0  0  0
  -10.7014    0.9899  -10.0242 H   0  0  0  0  0  0  0  0  0  0  0  0
  -10.5768    3.3164   -8.0521 H   0  0  0  0  0  0  0  0  0  0  0  0
   -9.3963    3.5628   -5.9041 H   0  0  0  0  0  0  0  0  0  0  0  0
   -9.4157    4.1013   -3.1271 H   0  0  0  0  0  0  0  0  0  0  0  0
  -10.7730    7.4895    0.6789 H   0  0  0  0  0  0  0  0  0  0  0  0
  -10.8517    9.0656    2.5903 H   0  0  0  0  0  0  0  0  0  0  0  0
   -9.7314   10.1624    4.4909 H   0  0  0  0  0  0  0  0  0  0  0  0
   -6.0484    8.1748    3.5395 H   0  0  0  0  0  0  0  0  0  0  0  0
   -5.9415    6.6780    1.6125 H   0  0  0  0  0  0  0  0  0  0  0  0
  1  2  2  3
  2  3  1  0
  3  4  2  0
  3  5  1  0
  5  6  2  0
  6  7  1  0
  7  8  2  0
  8  9  1  0
  9 10  2  0
 10 11  1  0
 10 12  1  0
 12 13  2  0
 13 14  1  0
 14 15  2  0
 15 16  1  0
 16 17  2  3
 17 18  1  0
 18 19  3  0
 17 20  1  0
 20 21  3  0
  1 22  1  0
 22 23  2  0
 23 24  1  0
 24 25  1  0
 25 26  2  0
 26 27  1  0
 27 28  2  0
 28 29  1  0
 28 30  1  0
 30 31  2  0
 24 32  1  0
 32 33  2  0
 33 34  1  0
 34 35  2  0
 35 36  1  0
 35 37  1  0
 37 38  2  0
 23 39  1  0
 39 40  1  0
 40 41  1  0
 41 42  2  0
 42 43  1  0
 43 44  1  0
 44 45  2  0
 45 46  1  0
 46 47  2  0
 47 48  1  0
 47 49  1  0
 49 50  2  0
 43 51  1  0
 51 52  2  0
 52 53  1  0
 53 54  2  0
 54 55  1  0
 54 56  1  0
 56 57  2  0
 42 58  1  0
 58 59  1  0
 41 60  1  0
 60 61  1  0
 61 62  1  0
 62 63  1  0
 63 64  2  0
 64 65  1  0
 65 66  1  0
 66 67  1  0
 65 68  1  0
 64 69  1  0
 69 70  2  0
 70 71  1  0
 71 72  2  0
 72 73  1  0
 73 74  1  0
 74 75  1  0
 73 76  1  0
 76 77  1  0
 73 78  1  0
 78 79  2  0
 72 80  1  0
 80 81  2  0
 81 82  1  0
 82 83  1  0
 83 84  1  0
 82 85  1  0
 85 86  1  0
 81 87  1  0
 87 88  2  0
 88 89  1  0
 89 90  1  0
 90 91  1  0
 91 92  2  0
 92 93  1  0
 93 94  1  0
 94 95  1  0
 94 96  1  0
 96 97  2  0
 91 98  1  0
 98 99  2  0
 99100  1  0
100101  1  0
101102  2  0
102103  1  0
103104  2  0
104105  1  0
104106  1  0
106107  2  0
100108  1  0
108109  2  0
109110  1  0
110111  2  0
111112  1  0
111113  1  0
113114  2  0
 99115  1  0
115116  1  0
116117  1  0
117118  2  0
118119  1  0
119120  1  0
120121  2  0
121122  1  0
122123  2  0
123124  1  0
123125  1  0
125126  2  0
119127  1  0
127128  2  0
128129  1  0
129130  2  0
130131  1  0
130132  1  0
132133  2  0
118134  1  0
134135  1  0
117136  1  0
136137  2  3
137138  1  0
138139  2  0
138140  1  0
140141  2  0
141142  1  0
142143  2  0
143144  1  0
144145  2  0
145146  1  0
145147  1  0
147148  2  0
148149  1  0
149150  2  0
150151  1  0
151152  2  3
152153  1  0
153154  3  0
152155  1  0
155156  3  0
 16  2  1  0
 59 22  1  0
 67 60  2  0
 78 70  1  0
 97 80  1  0
135 98  1  0
151137  1  0
 15  5  1  0
 31 25  1  0
 38 32  1  0
 58 39  2  0
 66 62  2  0
 82 71  1  0
 96 88  1  0
107101  1  0
114108  1  0
134115  2  0
150140  1  0
 13  7  1  0
 50 44  1  0
 57 51  1  0
 79 63  1  0
 93 89  2  0
126120  1  0
133127  1  0
148142  1  0
  1157  1  0
  6158  1  0
  8159  1  0
  9160  1  0
 12161  1  0
 14162  1  0
 26163  1  0
 27164  1  0
 29165  1  0
 29166  1  0
 29167  1  0
 30168  1  0
 31169  1  0
 33170  1  0
 34171  1  0
 36172  1  0
 36173  1  0
 36174  1  0
 37175  1  0
 38176  1  0
 45177  1  0
 46178  1  0
 48179  1  0
 48180  1  0
 48181  1  0
 49182  1  0
 50183  1  0
 52184  1  0
 53185  1  0
 55186  1  0
 55187  1  0
 55188  1  0
 56189  1  0
 57190  1  0
 67191  1  0
 68192  1  0
 68193  1  0
 68194  1  0
 69195  1  0
 74196  1  0
 74197  1  0
 75198  1  0
 75199  1  0
 75200  1  0
 76201  1  0
 76202  1  0
 77203  1  0
 77204  1  0
 77205  1  0
 79206  1  0
 83207  1  0
 83208  1  0
 84209  1  0
 84210  1  0
 84211  1  0
 85212  1  0
 85213  1  0
 86214  1  0
 86215  1  0
 86216  1  0
 87217  1  0
 92218  1  0
 95219  1  0
 95220  1  0
 95221  1  0
 97222  1  0
102223  1  0
103224  1  0
105225  1  0
105226  1  0
105227  1  0
106228  1  0
107229  1  0
109230  1  0
110231  1  0
112232  1  0
112233  1  0
112234  1  0
113235  1  0
114236  1  0
121237  1  0
122238  1  0
124239  1  0
124240  1  0
124241  1  0
125242  1  0
126243  1  0
128244  1  0
129245  1  0
131246  1  0
131247  1  0
131248  1  0
132249  1  0
133250  1  0
136251  1  0
141252  1  0
143253  1  0
144254  1  0
147255  1  0
149256  1  0
M  END

