
     RDKit          3D

174193  0  0  0  0  0  0  0  0999 V2000
    2.5051    9.0309   -4.6077 C   0  0  0  0  0  0  0  0  0  0  0  0
    1.1702    9.1985   -4.6861 C   0  0  0  0  0  0  0  0  0  0  0  0
    0.2107    8.1564   -5.0706 C   0  0  0  0  0  0  0  0  0  0  0  0
    0.4575    7.1190   -5.7464 O   0  0  0  0  0  0  0  0  0  0  0  0
   -1.0854    8.5087   -4.5370 C   0  0  0  0  0  0  0  0  0  0  0  0
   -2.2460    7.7390   -4.5379 C   0  0  0  0  0  0  0  0  0  0  0  0
   -3.3700    8.2177   -3.8429 C   0  0  0  0  0  0  0  0  0  0  0  0
   -4.5548    7.4682   -3.8056 C   0  0  0  0  0  0  0  0  0  0  0  0
   -5.6561    7.9315   -3.0815 C   0  0  0  0  0  0  0  0  0  0  0  0
   -5.5867    9.1479   -2.3933 C   0  0  0  0  0  0  0  0  0  0  0  0
   -6.6574    9.5857   -1.6865 F   0  0  0  0  0  0  0  0  0  0  0  0
   -4.4159    9.9115   -2.4287 C   0  0  0  0  0  0  0  0  0  0  0  0
   -3.2973    9.4576   -3.1463 C   0  0  0  0  0  0  0  0  0  0  0  0
   -2.1076   10.2143   -3.1722 C   0  0  0  0  0  0  0  0  0  0  0  0
   -1.0072    9.7356   -3.9031 C   0  0  0  0  0  0  0  0  0  0  0  0
    0.3668   10.2968   -4.0642 C   0  0  0  0  0  0  0  0  0  0  0  0
    0.7526   11.5853   -3.8843 C   0  0  0  0  0  0  0  0  0  0  0  0
   -0.1377   12.5967   -3.3795 C   0  0  0  0  0  0  0  0  0  0  0  0
   -0.8446   13.4164   -2.9676 N   0  0  0  0  0  0  0  0  0  0  0  0
    2.0530   12.0597   -4.2785 C   0  0  0  0  0  0  0  0  0  0  0  0
    3.0944   12.4514   -4.5955 N   0  0  0  0  0  0  0  0  0  0  0  0
    3.1216    7.7240   -4.8801 C   0  0  0  0  0  0  0  0  0  0  0  0
    3.1410    6.7701   -3.8560 C   0  0  0  0  0  0  0  0  0  0  0  0
    3.5135    5.4434   -4.1266 C   0  0  0  0  0  0  0  0  0  0  0  0
    3.4815    4.4686   -3.1187 O   0  0  0  0  0  0  0  0  0  0  0  0
    2.3923    4.2978   -2.2068 C   0  0  0  0  0  0  0  0  0  0  0  0
    2.9293    4.0596   -0.8038 C   0  0  0  0  0  0  0  0  0  0  0  0
    3.9156    5.0852   -5.4283 C   0  0  0  0  0  0  0  0  0  0  0  0
    3.9349    6.0576   -6.4413 C   0  0  0  0  0  0  0  0  0  0  0  0
    3.5478    7.3739   -6.1689 C   0  0  0  0  0  0  0  0  0  0  0  0
    3.5075    8.2833   -7.1755 F   0  0  0  0  0  0  0  0  0  0  0  0
    4.0756    3.6604   -5.7593 C   0  0  0  0  0  0  0  0  0  0  0  0
    5.2958    2.9443   -5.8045 C   0  0  0  0  0  0  0  0  0  0  0  0
    6.6282    3.5724   -5.8934 C   0  0  0  0  0  0  0  0  0  0  0  0
    6.9194    4.4288   -6.9642 C   0  0  0  0  0  0  0  0  0  0  0  0
    8.1647    5.0544   -7.0539 C   0  0  0  0  0  0  0  0  0  0  0  0
    9.1324    4.8224   -6.0786 C   0  0  0  0  0  0  0  0  0  0  0  0
    8.8607    3.9629   -5.0014 C   0  0  0  0  0  0  0  0  0  0  0  0
    9.9298    3.6835   -3.9793 C   0  0  0  0  0  0  0  0  0  0  0  0
   10.7980    2.5065   -4.4179 C   0  0  0  0  0  0  0  0  0  0  0  0
    7.6080    3.3290   -4.9181 C   0  0  0  0  0  0  0  0  0  0  0  0
    5.0633    1.5655   -5.6862 C   0  0  0  0  0  0  0  0  0  0  0  0
    6.0582    0.2108   -5.3184 S   0  0  0  0  0  0  0  0  0  0  0  0
    4.6868   -0.7609   -5.0132 C   0  0  0  0  0  0  0  0  0  0  0  0
    4.3474   -1.9290   -4.3709 C   0  0  0  0  0  0  0  0  0  0  0  0
    5.0855   -3.0302   -3.9265 C   0  0  0  0  0  0  0  0  0  0  0  0
    4.4043   -4.0774   -3.2206 C   0  0  0  0  0  0  0  0  0  0  0  0
    5.1642   -5.1110   -2.7841 N   0  0  0  0  0  0  0  0  0  0  0  0
    6.6470   -4.6330   -3.3504 S   0  0  0  0  0  0  0  0  0  0  0  0
    6.4191   -3.1742   -4.1043 N   0  0  0  0  0  0  0  0  0  0  0  0
    3.0358   -3.9213   -2.9257 C   0  0  0  0  0  0  0  0  0  0  0  0
    2.2590   -4.5368   -1.9743 C   0  0  0  0  0  0  0  0  0  0  0  0
    2.4741   -5.7309   -0.7824 S   0  0  0  0  0  0  0  0  0  0  0  0
    1.2326   -5.0634    0.1818 C   0  0  0  0  0  0  0  0  0  0  0  0
    0.7692   -5.3434    1.4794 C   0  0  0  0  0  0  0  0  0  0  0  0
    0.4179   -6.7482    1.7560 C   0  0  0  0  0  0  0  0  0  0  0  0
    1.4153   -7.7339    1.8550 C   0  0  0  0  0  0  0  0  0  0  0  0
    1.0659   -9.0624    2.1013 C   0  0  0  0  0  0  0  0  0  0  0  0
   -0.2776   -9.4290    2.2172 C   0  0  0  0  0  0  0  0  0  0  0  0
   -1.2889   -8.4657    2.0682 C   0  0  0  0  0  0  0  0  0  0  0  0
   -2.7390   -8.8489    2.2010 C   0  0  0  0  0  0  0  0  0  0  0  0
   -3.2376   -8.5878    3.6170 C   0  0  0  0  0  0  0  0  0  0  0  0
   -0.9344   -7.1282    1.8351 C   0  0  0  0  0  0  0  0  0  0  0  0
    0.0673   -4.2203    2.0186 C   0  0  0  0  0  0  0  0  0  0  0  0
   -0.1601   -3.1137    0.7319 S   0  0  0  0  0  0  0  0  0  0  0  0
    0.7380   -3.9314   -0.3922 C   0  0  0  0  0  0  0  0  0  0  0  0
    1.2716   -3.6581   -1.6449 C   0  0  0  0  0  0  0  0  0  0  0  0
    1.2976   -2.5327   -2.3969 N   0  0  0  0  0  0  0  0  0  0  0  0
    2.3479   -2.7438   -3.2536 C   0  0  0  0  0  0  0  0  0  0  0  0
    2.9723   -1.8179   -4.1161 C   0  0  0  0  0  0  0  0  0  0  0  0
    2.4516   -0.6951   -4.6915 N   0  0  0  0  0  0  0  0  0  0  0  0
    3.5361   -0.0677   -5.1928 C   0  0  0  0  0  0  0  0  0  0  0  0
    3.7372    1.2322   -5.5874 C   0  0  0  0  0  0  0  0  0  0  0  0
    2.7676    2.5857   -5.5831 S   0  0  0  0  0  0  0  0  0  0  0  0
    1.0688   -0.4663   -5.1295 C   0  0  0  0  0  0  0  0  0  0  0  0
    0.9402   -0.6281   -6.6438 C   0  0  0  0  0  0  0  0  0  0  0  0
    0.7157   -1.2437   -1.9889 C   0  0  0  0  0  0  0  0  0  0  0  0
   -0.7946   -1.2210   -2.2274 C   0  0  0  0  0  0  0  0  0  0  0  0
   -0.3119   -3.8629    3.4496 C   0  0  0  0  0  0  0  0  0  0  0  0
   -0.6268   -4.7831    4.4987 C   0  0  0  0  0  0  0  0  0  0  0  0
   -0.1780   -6.1006    4.6733 C   0  0  0  0  0  0  0  0  0  0  0  0
   -0.7153   -6.7453    5.7857 C   0  0  0  0  0  0  0  0  0  0  0  0
   -0.3466   -8.1358    6.2231 C   0  0  0  0  0  0  0  0  0  0  0  0
   -1.4275   -8.7817    7.0852 C   0  0  0  0  0  0  0  0  0  0  0  0
   -1.6132   -5.6380    6.6791 S   0  0  0  0  0  0  0  0  0  0  0  0
   -1.3743   -4.3606    5.6137 C   0  0  0  0  0  0  0  0  0  0  0  0
   -1.6962   -3.0245    5.8503 C   0  0  0  0  0  0  0  0  0  0  0  0
   -1.1518   -2.0792    4.9728 C   0  0  0  0  0  0  0  0  0  0  0  0
   -0.4931   -2.4920    3.8059 C   0  0  0  0  0  0  0  0  0  0  0  0
    0.1133   -1.0967    3.0656 S   0  0  0  0  0  0  0  0  0  0  0  0
   -0.4751    0.0075    4.1875 C   0  0  0  0  0  0  0  0  0  0  0  0
   -0.2407    1.4875    4.1538 C   0  0  0  0  0  0  0  0  0  0  0  0
    1.2551    1.8081    4.1364 C   0  0  0  0  0  0  0  0  0  0  0  0
   -1.1678   -0.6854    5.1685 C   0  0  0  0  0  0  0  0  0  0  0  0
   -2.4970   -2.6141    7.0187 C   0  0  0  0  0  0  0  0  0  0  0  0
   -3.8403   -2.6902    7.0235 C   0  0  0  0  0  0  0  0  0  0  0  0
   -4.6592   -3.1199    5.8841 C   0  0  0  0  0  0  0  0  0  0  0  0
   -4.2831   -3.8324    4.9144 O   0  0  0  0  0  0  0  0  0  0  0  0
   -5.9752   -2.5388    6.0273 C   0  0  0  0  0  0  0  0  0  0  0  0
   -6.9978   -2.5239    5.0828 C   0  0  0  0  0  0  0  0  0  0  0  0
   -8.1423   -1.7531    5.3427 C   0  0  0  0  0  0  0  0  0  0  0  0
   -9.1718   -1.6680    4.3974 C   0  0  0  0  0  0  0  0  0  0  0  0
  -10.2852   -0.8596    4.6398 C   0  0  0  0  0  0  0  0  0  0  0  0
  -10.3894   -0.1429    5.8350 C   0  0  0  0  0  0  0  0  0  0  0  0
  -11.4694    0.6456    6.0568 F   0  0  0  0  0  0  0  0  0  0  0  0
   -9.3770   -0.2223    6.7942 C   0  0  0  0  0  0  0  0  0  0  0  0
   -8.2412   -1.0178    6.5576 C   0  0  0  0  0  0  0  0  0  0  0  0
   -7.1895   -1.0618    7.4979 C   0  0  0  0  0  0  0  0  0  0  0  0
   -6.0497   -1.8374    7.2190 C   0  0  0  0  0  0  0  0  0  0  0  0
   -4.7630   -1.9864    7.9656 C   0  0  0  0  0  0  0  0  0  0  0  0
   -4.5248   -1.6763    9.2658 C   0  0  0  0  0  0  0  0  0  0  0  0
   -5.4806   -0.9887   10.0901 C   0  0  0  0  0  0  0  0  0  0  0  0
   -6.2394   -0.3991   10.7423 N   0  0  0  0  0  0  0  0  0  0  0  0
   -3.3002   -2.0472    9.9262 C   0  0  0  0  0  0  0  0  0  0  0  0
   -2.3114   -2.3487   10.4454 N   0  0  0  0  0  0  0  0  0  0  0  0
    3.1270    9.7622   -4.1181 H   0  0  0  0  0  0  0  0  0  0  0  0
   -2.2681    6.7813   -5.0460 H   0  0  0  0  0  0  0  0  0  0  0  0
   -4.6289    6.5221   -4.3308 H   0  0  0  0  0  0  0  0  0  0  0  0
   -6.5650    7.3433   -3.0457 H   0  0  0  0  0  0  0  0  0  0  0  0
   -4.3787   10.8503   -1.8882 H   0  0  0  0  0  0  0  0  0  0  0  0
   -2.0514   11.1255   -2.6019 H   0  0  0  0  0  0  0  0  0  0  0  0
    2.8273    7.0547   -2.8600 H   0  0  0  0  0  0  0  0  0  0  0  0
    1.7111    5.1743   -2.1911 H   0  0  0  0  0  0  0  0  0  0  0  0
    1.8045    3.4112   -2.5266 H   0  0  0  0  0  0  0  0  0  0  0  0
    3.6323    3.1996   -0.7972 H   0  0  0  0  0  0  0  0  0  0  0  0
    2.0839    3.8330   -0.1123 H   0  0  0  0  0  0  0  0  0  0  0  0
    3.4559    4.9699   -0.4442 H   0  0  0  0  0  0  0  0  0  0  0  0
    4.1912    5.7824   -7.4588 H   0  0  0  0  0  0  0  0  0  0  0  0
    6.1920    4.5924   -7.7480 H   0  0  0  0  0  0  0  0  0  0  0  0
    8.3780    5.7166   -7.8849 H   0  0  0  0  0  0  0  0  0  0  0  0
   10.0997    5.3073   -6.1656 H   0  0  0  0  0  0  0  0  0  0  0  0
    9.4710    3.4485   -2.9937 H   0  0  0  0  0  0  0  0  0  0  0  0
   10.5744    4.5816   -3.8384 H   0  0  0  0  0  0  0  0  0  0  0  0
   11.5948    2.3297   -3.6630 H   0  0  0  0  0  0  0  0  0  0  0  0
   10.1822    1.5858   -4.5129 H   0  0  0  0  0  0  0  0  0  0  0  0
   11.2822    2.7247   -5.3953 H   0  0  0  0  0  0  0  0  0  0  0  0
    7.3956    2.6646   -4.0884 H   0  0  0  0  0  0  0  0  0  0  0  0
    2.4595   -7.4624    1.7698 H   0  0  0  0  0  0  0  0  0  0  0  0
    1.8382   -9.8113    2.2082 H   0  0  0  0  0  0  0  0  0  0  0  0
   -0.5295  -10.4604    2.4239 H   0  0  0  0  0  0  0  0  0  0  0  0
   -2.8806   -9.9249    1.9583 H   0  0  0  0  0  0  0  0  0  0  0  0
   -3.3495   -8.2631    1.4831 H   0  0  0  0  0  0  0  0  0  0  0  0
   -3.1361   -7.5123    3.8793 H   0  0  0  0  0  0  0  0  0  0  0  0
   -2.6591   -9.1981    4.3365 H   0  0  0  0  0  0  0  0  0  0  0  0
   -4.3077   -8.8716    3.6953 H   0  0  0  0  0  0  0  0  0  0  0  0
   -1.7135   -6.3796    1.7263 H   0  0  0  0  0  0  0  0  0  0  0  0
    0.7414    0.5535   -4.8332 H   0  0  0  0  0  0  0  0  0  0  0  0
    0.3917   -1.2125   -4.6738 H   0  0  0  0  0  0  0  0  0  0  0  0
    1.2639   -1.6482   -6.9444 H   0  0  0  0  0  0  0  0  0  0  0  0
    1.5626    0.1242   -7.1769 H   0  0  0  0  0  0  0  0  0  0  0  0
   -0.1181   -0.4891   -6.9427 H   0  0  0  0  0  0  0  0  0  0  0  0
    0.9308   -1.0550   -0.9191 H   0  0  0  0  0  0  0  0  0  0  0  0
    1.1966   -0.4008   -2.5171 H   0  0  0  0  0  0  0  0  0  0  0  0
   -1.1250   -0.1781   -2.4326 H   0  0  0  0  0  0  0  0  0  0  0  0
   -1.3366   -1.5892   -1.3300 H   0  0  0  0  0  0  0  0  0  0  0  0
   -1.0836   -1.8637   -3.0910 H   0  0  0  0  0  0  0  0  0  0  0  0
    0.6309   -6.5427    4.1329 H   0  0  0  0  0  0  0  0  0  0  0  0
    0.6070   -8.1009    6.7926 H   0  0  0  0  0  0  0  0  0  0  0  0
   -0.1882   -8.7650    5.3229 H   0  0  0  0  0  0  0  0  0  0  0  0
   -1.4465   -8.3151    8.0924 H   0  0  0  0  0  0  0  0  0  0  0  0
   -1.2165   -9.8656    7.2036 H   0  0  0  0  0  0  0  0  0  0  0  0
   -2.4254   -8.6683    6.6124 H   0  0  0  0  0  0  0  0  0  0  0  0
   -0.7167    1.9142    3.2465 H   0  0  0  0  0  0  0  0  0  0  0  0
   -0.6976    1.9625    5.0515 H   0  0  0  0  0  0  0  0  0  0  0  0
    1.3996    2.9080    4.1275 H   0  0  0  0  0  0  0  0  0  0  0  0
    1.7472    1.3862    5.0364 H   0  0  0  0  0  0  0  0  0  0  0  0
    1.7378    1.3830    3.2274 H   0  0  0  0  0  0  0  0  0  0  0  0
   -1.6219   -0.1987    6.0227 H   0  0  0  0  0  0  0  0  0  0  0  0
   -1.9779   -2.0446    7.7739 H   0  0  0  0  0  0  0  0  0  0  0  0
   -6.8786   -3.0603    4.1488 H   0  0  0  0  0  0  0  0  0  0  0  0
   -9.1084   -2.2174    3.4673 H   0  0  0  0  0  0  0  0  0  0  0  0
  -11.0696   -0.7823    3.8972 H   0  0  0  0  0  0  0  0  0  0  0  0
   -9.4733    0.3496    7.7118 H   0  0  0  0  0  0  0  0  0  0  0  0
   -7.2585   -0.4535    8.3872 H   0  0  0  0  0  0  0  0  0  0  0  0
  1  2  2  3
  2  3  1  0
  3  4  2  0
  3  5  1  0
  5  6  2  0
  6  7  1  0
  7  8  2  0
  8  9  1  0
  9 10  2  0
 10 11  1  0
 10 12  1  0
 12 13  2  0
 13 14  1  0
 14 15  2  0
 15 16  1  0
 16 17  2  3
 17 18  1  0
 18 19  3  0
 17 20  1  0
 20 21  3  0
  1 22  1  0
 22 23  2  0
 23 24  1  0
 24 25  1  0
 25 26  1  0
 26 27  1  0
 24 28  2  0
 28 29  1  0
 29 30  2  0
 30 31  1  0
 28 32  1  0
 32 33  2  0
 33 34  1  0
 34 35  2  0
 35 36  1  0
 36 37  2  0
 37 38  1  0
 38 39  1  0
 39 40  1  0
 38 41  2  0
 33 42  1  0
 42 43  1  0
 43 44  1  0
 44 45  1  0
 45 46  1  0
 46 47  1  0
 47 48  2  0
 48 49  1  0
 49 50  1  0
 47 51  1  0
 51 52  1  0
 52 53  1  0
 53 54  1  0
 54 55  1  0
 55 56  1  0
 56 57  2  0
 57 58  1  0
 58 59  2  0
 59 60  1  0
 60 61  1  0
 61 62  1  0
 60 63  2  0
 55 64  2  0
 64 65  1  0
 65 66  1  0
 66 67  1  0
 67 68  1  0
 68 69  1  0
 69 70  1  0
 70 71  1  0
 71 72  1  0
 72 73  1  0
 73 74  1  0
 71 75  1  0
 75 76  1  0
 68 77  1  0
 77 78  1  0
 64 79  1  0
 79 80  2  0
 80 81  1  0
 81 82  2  0
 82 83  1  0
 83 84  1  0
 82 85  1  0
 85 86  1  0
 86 87  2  0
 87 88  1  0
 88 89  2  0
 89 90  1  0
 90 91  1  0
 91 92  1  0
 92 93  1  0
 91 94  2  0
 87 95  1  0
 95 96  2  3
 96 97  1  0
 97 98  2  0
 97 99  1  0
 99100  2  0
100101  1  0
101102  2  0
102103  1  0
103104  2  0
104105  1  0
104106  1  0
106107  2  0
107108  1  0
108109  2  0
109110  1  0
110111  2  3
111112  1  0
112113  3  0
111114  1  0
114115  3  0
 16  2  1  0
 30 22  1  0
 74 32  1  0
 89 79  1  0
110 96  1  0
 15  5  1  0
 41 34  1  0
 73 42  2  0
 86 80  1  0
 94 88  1  0
109 99  1  0
 13  7  1  0
 72 44  2  0
107101  1  0
 70 45  2  0
 50 46  2  0
 69 51  2  0
 67 52  2  0
 66 54  2  0
 63 56  1  0
  1116  1  0
  6117  1  0
  8118  1  0
  9119  1  0
 12120  1  0
 14121  1  0
 23122  1  0
 26123  1  0
 26124  1  0
 27125  1  0
 27126  1  0
 27127  1  0
 29128  1  0
 35129  1  0
 36130  1  0
 37131  1  0
 39132  1  0
 39133  1  0
 40134  1  0
 40135  1  0
 40136  1  0
 41137  1  0
 57138  1  0
 58139  1  0
 59140  1  0
 61141  1  0
 61142  1  0
 62143  1  0
 62144  1  0
 62145  1  0
 63146  1  0
 75147  1  0
 75148  1  0
 76149  1  0
 76150  1  0
 76151  1  0
 77152  1  0
 77153  1  0
 78154  1  0
 78155  1  0
 78156  1  0
 81157  1  0
 83158  1  0
 83159  1  0
 84160  1  0
 84161  1  0
 84162  1  0
 92163  1  0
 92164  1  0
 93165  1  0
 93166  1  0
 93167  1  0
 94168  1  0
 95169  1  0
100170  1  0
102171  1  0
103172  1  0
106173  1  0
108174  1  0
M  END

