
     RDKit          3D

167185  0  0  0  0  0  0  0  0999 V2000
    0.2679   10.0419    0.6543 C   0  0  0  0  0  0  0  0  0  0  0  0
   -0.9830    9.8296    0.1956 C   0  0  0  0  0  0  0  0  0  0  0  0
   -1.7732    8.6074    0.4358 C   0  0  0  0  0  0  0  0  0  0  0  0
   -1.3671    7.5334    0.9598 O   0  0  0  0  0  0  0  0  0  0  0  0
   -3.1377    8.8619    0.0512 C   0  0  0  0  0  0  0  0  0  0  0  0
   -4.2432    8.0346    0.2437 C   0  0  0  0  0  0  0  0  0  0  0  0
   -5.5145    8.5317   -0.0730 C   0  0  0  0  0  0  0  0  0  0  0  0
   -6.6546    7.7354    0.1145 C   0  0  0  0  0  0  0  0  0  0  0  0
   -7.9222    8.2464   -0.1660 C   0  0  0  0  0  0  0  0  0  0  0  0
   -8.0636    9.5567   -0.6354 C   0  0  0  0  0  0  0  0  0  0  0  0
   -9.2995   10.0491   -0.8974 F   0  0  0  0  0  0  0  0  0  0  0  0
   -6.9362   10.3649   -0.8323 C   0  0  0  0  0  0  0  0  0  0  0  0
   -5.6545    9.8619   -0.5620 C   0  0  0  0  0  0  0  0  0  0  0  0
   -4.5129   10.6699   -0.7501 C   0  0  0  0  0  0  0  0  0  0  0  0
   -3.2472   10.1385   -0.4679 C   0  0  0  0  0  0  0  0  0  0  0  0
   -1.9031   10.7837   -0.5035 C   0  0  0  0  0  0  0  0  0  0  0  0
   -1.5475   11.8501   -1.2755 C   0  0  0  0  0  0  0  0  0  0  0  0
   -0.2137   12.3897   -1.2940 C   0  0  0  0  0  0  0  0  0  0  0  0
    0.8411   12.8637   -1.2697 N   0  0  0  0  0  0  0  0  0  0  0  0
   -2.4722   12.4946   -2.1697 C   0  0  0  0  0  0  0  0  0  0  0  0
   -3.2118   13.0231   -2.8861 N   0  0  0  0  0  0  0  0  0  0  0  0
    1.0352    8.9564    1.2809 C   0  0  0  0  0  0  0  0  0  0  0  0
    1.5991    7.9706    0.4634 C   0  0  0  0  0  0  0  0  0  0  0  0
    1.9729    6.7251    0.9980 C   0  0  0  0  0  0  0  0  0  0  0  0
    2.5055    5.7047    0.1907 O   0  0  0  0  0  0  0  0  0  0  0  0
    2.8326    5.8627   -1.1863 C   0  0  0  0  0  0  0  0  0  0  0  0
    3.4992    4.5990   -1.7024 C   0  0  0  0  0  0  0  0  0  0  0  0
    1.7863    6.4852    2.3719 C   0  0  0  0  0  0  0  0  0  0  0  0
    1.3363    7.5212    3.2083 C   0  0  0  0  0  0  0  0  0  0  0  0
    0.9627    8.7536    2.6650 C   0  0  0  0  0  0  0  0  0  0  0  0
    0.4062    9.6951    3.4681 F   0  0  0  0  0  0  0  0  0  0  0  0
    1.8235    5.1057    2.9030 C   0  0  0  0  0  0  0  0  0  0  0  0
    2.4068    4.6859    4.1176 C   0  0  0  0  0  0  0  0  0  0  0  0
    3.3615    5.4802    4.9250 C   0  0  0  0  0  0  0  0  0  0  0  0
    4.3963    6.1985    4.3013 C   0  0  0  0  0  0  0  0  0  0  0  0
    5.3085    6.9288    5.0667 C   0  0  0  0  0  0  0  0  0  0  0  0
    5.2011    6.9471    6.4577 C   0  0  0  0  0  0  0  0  0  0  0  0
    4.1795    6.2302    7.0971 C   0  0  0  0  0  0  0  0  0  0  0  0
    4.0314    6.2811    8.5892 C   0  0  0  0  0  0  0  0  0  0  0  0
    3.1463    7.4505    9.0094 C   0  0  0  0  0  0  0  0  0  0  0  0
    3.2520    5.5134    6.3251 C   0  0  0  0  0  0  0  0  0  0  0  0
    1.9796    3.3948    4.4486 C   0  0  0  0  0  0  0  0  0  0  0  0
    2.3761    2.3093    5.7052 S   0  0  0  0  0  0  0  0  0  0  0  0
    1.3120    1.1508    5.0721 C   0  0  0  0  0  0  0  0  0  0  0  0
    1.0680   -0.1820    5.2173 C   0  0  0  0  0  0  0  0  0  0  0  0
    1.6974   -1.1091    6.0513 C   0  0  0  0  0  0  0  0  0  0  0  0
    1.4756   -2.4948    5.8218 C   0  0  0  0  0  0  0  0  0  0  0  0
    2.1518   -3.3659    6.6070 N   0  0  0  0  0  0  0  0  0  0  0  0
    2.9975   -2.2984    7.5475 S   0  0  0  0  0  0  0  0  0  0  0  0
    2.5758   -0.7837    7.0300 N   0  0  0  0  0  0  0  0  0  0  0  0
    0.6017   -2.8752    4.8027 C   0  0  0  0  0  0  0  0  0  0  0  0
    0.2932   -4.1143    4.3157 C   0  0  0  0  0  0  0  0  0  0  0  0
    1.0314   -5.6436    4.3029 S   0  0  0  0  0  0  0  0  0  0  0  0
    0.2267   -6.0513    2.8486 C   0  0  0  0  0  0  0  0  0  0  0  0
    0.4660   -7.0400    1.8882 C   0  0  0  0  0  0  0  0  0  0  0  0
    1.2724   -8.2595    2.1168 C   0  0  0  0  0  0  0  0  0  0  0  0
    2.5340   -8.1965    2.7254 C   0  0  0  0  0  0  0  0  0  0  0  0
    3.2378   -9.3679    3.0115 C   0  0  0  0  0  0  0  0  0  0  0  0
    2.6875  -10.6137    2.6899 C   0  0  0  0  0  0  0  0  0  0  0  0
    1.4399  -10.6953    2.0545 C   0  0  0  0  0  0  0  0  0  0  0  0
    0.8265  -12.0317    1.7310 C   0  0  0  0  0  0  0  0  0  0  0  0
   -0.3525  -12.3345    2.6585 C   0  0  0  0  0  0  0  0  0  0  0  0
    0.7434   -9.5095    1.7600 C   0  0  0  0  0  0  0  0  0  0  0  0
   -0.1648   -6.7246    0.6665 C   0  0  0  0  0  0  0  0  0  0  0  0
   -0.9628   -5.2263    0.8081 S   0  0  0  0  0  0  0  0  0  0  0  0
   -0.5721   -5.0218    2.4192 C   0  0  0  0  0  0  0  0  0  0  0  0
   -0.5278   -3.9214    3.2605 C   0  0  0  0  0  0  0  0  0  0  0  0
   -0.8211   -2.6200    3.0374 N   0  0  0  0  0  0  0  0  0  0  0  0
   -0.0607   -1.9488    3.9692 C   0  0  0  0  0  0  0  0  0  0  0  0
    0.2414   -0.5532    4.1330 C   0  0  0  0  0  0  0  0  0  0  0  0
    0.0593    0.5317    3.2962 N   0  0  0  0  0  0  0  0  0  0  0  0
    0.7173    1.5405    3.9256 C   0  0  0  0  0  0  0  0  0  0  0  0
    1.1063    2.8241    3.5551 C   0  0  0  0  0  0  0  0  0  0  0  0
    0.8131    3.8774    2.2911 S   0  0  0  0  0  0  0  0  0  0  0  0
   -0.3839    0.5910    1.8999 C   0  0  0  0  0  0  0  0  0  0  0  0
    0.5616   -0.1848    0.9874 C   0  0  0  0  0  0  0  0  0  0  0  0
   -2.0507   -2.2203    2.3381 C   0  0  0  0  0  0  0  0  0  0  0  0
   -3.0002   -1.4536    3.2582 C   0  0  0  0  0  0  0  0  0  0  0  0
    0.2618   -7.2254   -0.6521 C   0  0  0  0  0  0  0  0  0  0  0  0
   -0.6784   -7.6277   -1.6214 C   0  0  0  0  0  0  0  0  0  0  0  0
   -1.9779   -7.8629   -1.2908 N   0  0  0  0  0  0  0  0  0  0  0  0
   -2.8910   -8.2390   -2.2243 C   0  0  0  0  0  0  0  0  0  0  0  0
   -2.4947   -8.3970   -3.5558 C   0  0  0  0  0  0  0  0  0  0  0  0
   -3.4281   -8.7932   -4.5199 O   0  0  0  0  0  0  0  0  0  0  0  0
   -3.0866   -9.0137   -5.8897 C   0  0  0  0  0  0  0  0  0  0  0  0
   -2.3888  -10.3594   -6.0676 C   0  0  0  0  0  0  0  0  0  0  0  0
   -1.1980   -8.1526   -3.8961 N   0  0  0  0  0  0  0  0  0  0  0  0
   -0.2768   -7.7753   -2.9685 C   0  0  0  0  0  0  0  0  0  0  0  0
    1.0491   -7.4874   -3.3443 C   0  0  0  0  0  0  0  0  0  0  0  0
    1.9948   -7.1882   -2.3579 C   0  0  0  0  0  0  0  0  0  0  0  0
    1.6069   -7.0644   -1.0234 C   0  0  0  0  0  0  0  0  0  0  0  0
    1.4359   -7.3646   -4.7642 C   0  0  0  0  0  0  0  0  0  0  0  0
    0.9901   -6.3639   -5.5543 C   0  0  0  0  0  0  0  0  0  0  0  0
    0.1818   -5.2162   -5.1144 C   0  0  0  0  0  0  0  0  0  0  0  0
   -0.4055   -5.0848   -4.0083 O   0  0  0  0  0  0  0  0  0  0  0  0
    0.2367   -4.1970   -6.1355 C   0  0  0  0  0  0  0  0  0  0  0  0
   -0.3038   -2.9110   -6.0896 C   0  0  0  0  0  0  0  0  0  0  0  0
   -0.0332   -2.0315   -7.1492 C   0  0  0  0  0  0  0  0  0  0  0  0
   -0.5638   -0.7325   -7.1477 C   0  0  0  0  0  0  0  0  0  0  0  0
   -0.2726    0.1464   -8.1945 C   0  0  0  0  0  0  0  0  0  0  0  0
    0.5590   -0.2547   -9.2416 C   0  0  0  0  0  0  0  0  0  0  0  0
    0.8543    0.6105  -10.2388 F   0  0  0  0  0  0  0  0  0  0  0  0
    1.0956   -1.5478   -9.2604 C   0  0  0  0  0  0  0  0  0  0  0  0
    0.8014   -2.4502   -8.2232 C   0  0  0  0  0  0  0  0  0  0  0  0
    1.3303   -3.7560   -8.2377 C   0  0  0  0  0  0  0  0  0  0  0  0
    1.0088   -4.6406   -7.1933 C   0  0  0  0  0  0  0  0  0  0  0  0
    1.4292   -6.0532   -6.9474 C   0  0  0  0  0  0  0  0  0  0  0  0
    1.8732   -6.9372   -7.8762 C   0  0  0  0  0  0  0  0  0  0  0  0
    1.9944   -8.3473   -7.6004 C   0  0  0  0  0  0  0  0  0  0  0  0
    2.0909   -9.4825   -7.3946 N   0  0  0  0  0  0  0  0  0  0  0  0
    2.1019   -6.5707   -9.2471 C   0  0  0  0  0  0  0  0  0  0  0  0
    2.2867   -6.2893  -10.3561 N   0  0  0  0  0  0  0  0  0  0  0  0
    0.7349   11.0116    0.6085 H   0  0  0  0  0  0  0  0  0  0  0  0
   -4.1151    7.0380    0.6538 H   0  0  0  0  0  0  0  0  0  0  0  0
   -6.5674    6.7263    0.4957 H   0  0  0  0  0  0  0  0  0  0  0  0
   -8.7951    7.6294   -0.0185 H   0  0  0  0  0  0  0  0  0  0  0  0
   -7.0667   11.3779   -1.1953 H   0  0  0  0  0  0  0  0  0  0  0  0
   -4.6348   11.6962   -1.0593 H   0  0  0  0  0  0  0  0  0  0  0  0
    1.6510    8.1470   -0.6066 H   0  0  0  0  0  0  0  0  0  0  0  0
    3.5309    6.7186   -1.3113 H   0  0  0  0  0  0  0  0  0  0  0  0
    1.9055    6.0563   -1.7771 H   0  0  0  0  0  0  0  0  0  0  0  0
    3.7864    4.7334   -2.7658 H   0  0  0  0  0  0  0  0  0  0  0  0
    2.8010    3.7405   -1.6161 H   0  0  0  0  0  0  0  0  0  0  0  0
    4.4134    4.3875   -1.1101 H   0  0  0  0  0  0  0  0  0  0  0  0
    1.1720    7.3431    4.2638 H   0  0  0  0  0  0  0  0  0  0  0  0
    4.5024    6.1816    3.2245 H   0  0  0  0  0  0  0  0  0  0  0  0
    6.1038    7.4782    4.5827 H   0  0  0  0  0  0  0  0  0  0  0  0
    5.9135    7.5224    7.0343 H   0  0  0  0  0  0  0  0  0  0  0  0
    5.0350    6.3786    9.0705 H   0  0  0  0  0  0  0  0  0  0  0  0
    3.5830    5.3304    8.9636 H   0  0  0  0  0  0  0  0  0  0  0  0
    3.5907    8.4124    8.6731 H   0  0  0  0  0  0  0  0  0  0  0  0
    2.1343    7.3478    8.5629 H   0  0  0  0  0  0  0  0  0  0  0  0
    3.0502    7.4692   10.1132 H   0  0  0  0  0  0  0  0  0  0  0  0
    2.4390    4.9928    6.8147 H   0  0  0  0  0  0  0  0  0  0  0  0
    2.9710   -7.2422    2.9796 H   0  0  0  0  0  0  0  0  0  0  0  0
    4.2065   -9.3170    3.4896 H   0  0  0  0  0  0  0  0  0  0  0  0
    3.2400  -11.5111    2.9389 H   0  0  0  0  0  0  0  0  0  0  0  0
    0.4734  -12.0330    0.6763 H   0  0  0  0  0  0  0  0  0  0  0  0
    1.5782  -12.8472    1.8296 H   0  0  0  0  0  0  0  0  0  0  0  0
   -0.0114  -12.3491    3.7214 H   0  0  0  0  0  0  0  0  0  0  0  0
   -1.1456  -11.5611    2.5393 H   0  0  0  0  0  0  0  0  0  0  0  0
   -0.7857  -13.3273    2.4044 H   0  0  0  0  0  0  0  0  0  0  0  0
   -0.2305   -9.5671    1.2830 H   0  0  0  0  0  0  0  0  0  0  0  0
   -1.4315    0.2858    1.8078 H   0  0  0  0  0  0  0  0  0  0  0  0
   -0.4165    1.6373    1.5432 H   0  0  0  0  0  0  0  0  0  0  0  0
    1.5601    0.3082    0.9867 H   0  0  0  0  0  0  0  0  0  0  0  0
    0.6781   -1.2294    1.3357 H   0  0  0  0  0  0  0  0  0  0  0  0
    0.1585   -0.1944   -0.0491 H   0  0  0  0  0  0  0  0  0  0  0  0
   -2.6100   -3.1266    2.0194 H   0  0  0  0  0  0  0  0  0  0  0  0
   -1.8217   -1.7061    1.3892 H   0  0  0  0  0  0  0  0  0  0  0  0
   -2.5593   -0.4985    3.6004 H   0  0  0  0  0  0  0  0  0  0  0  0
   -3.2367   -2.0686    4.1511 H   0  0  0  0  0  0  0  0  0  0  0  0
   -3.9441   -1.2371    2.7204 H   0  0  0  0  0  0  0  0  0  0  0  0
   -3.9180   -8.4220   -1.9312 H   0  0  0  0  0  0  0  0  0  0  0  0
   -4.0144   -9.0107   -6.4998 H   0  0  0  0  0  0  0  0  0  0  0  0
   -2.4366   -8.1879   -6.2622 H   0  0  0  0  0  0  0  0  0  0  0  0
   -3.1088  -11.1814   -5.8767 H   0  0  0  0  0  0  0  0  0  0  0  0
   -2.0077  -10.4464   -7.1051 H   0  0  0  0  0  0  0  0  0  0  0  0
   -1.5306  -10.4571   -5.3665 H   0  0  0  0  0  0  0  0  0  0  0  0
    3.0224   -6.9742   -2.6307 H   0  0  0  0  0  0  0  0  0  0  0  0
    2.3420   -6.7353   -0.2993 H   0  0  0  0  0  0  0  0  0  0  0  0
    2.2255   -8.0158   -5.1056 H   0  0  0  0  0  0  0  0  0  0  0  0
   -0.9085   -2.5969   -5.2449 H   0  0  0  0  0  0  0  0  0  0  0  0
   -1.2008   -0.4013   -6.3356 H   0  0  0  0  0  0  0  0  0  0  0  0
   -0.6897    1.1466   -8.1845 H   0  0  0  0  0  0  0  0  0  0  0  0
    1.7393   -1.8423  -10.0788 H   0  0  0  0  0  0  0  0  0  0  0  0
    2.0034   -4.0441   -9.0315 H   0  0  0  0  0  0  0  0  0  0  0  0
  1  2  2  3
  2  3  1  0
  3  4  2  0
  3  5  1  0
  5  6  2  0
  6  7  1  0
  7  8  2  0
  8  9  1  0
  9 10  2  0
 10 11  1  0
 10 12  1  0
 12 13  2  0
 13 14  1  0
 14 15  2  0
 15 16  1  0
 16 17  2  3
 17 18  1  0
 18 19  3  0
 17 20  1  0
 20 21  3  0
  1 22  1  0
 22 23  2  0
 23 24  1  0
 24 25  1  0
 25 26  1  0
 26 27  1  0
 24 28  2  0
 28 29  1  0
 29 30  2  0
 30 31  1  0
 28 32  1  0
 32 33  2  0
 33 34  1  0
 34 35  2  0
 35 36  1  0
 36 37  2  0
 37 38  1  0
 38 39  1  0
 39 40  1  0
 38 41  2  0
 33 42  1  0
 42 43  1  0
 43 44  1  0
 44 45  1  0
 45 46  1  0
 46 47  1  0
 47 48  2  0
 48 49  1  0
 49 50  1  0
 47 51  1  0
 51 52  1  0
 52 53  1  0
 53 54  1  0
 54 55  1  0
 55 56  1  0
 56 57  2  0
 57 58  1  0
 58 59  2  0
 59 60  1  0
 60 61  1  0
 61 62  1  0
 60 63  2  0
 55 64  2  0
 64 65  1  0
 65 66  1  0
 66 67  1  0
 67 68  1  0
 68 69  1  0
 69 70  1  0
 70 71  1  0
 71 72  1  0
 72 73  1  0
 73 74  1  0
 71 75  1  0
 75 76  1  0
 68 77  1  0
 77 78  1  0
 64 79  1  0
 79 80  1  0
 80 81  2  0
 81 82  1  0
 82 83  2  0
 83 84  1  0
 84 85  1  0
 85 86  1  0
 83 87  1  0
 87 88  2  0
 88 89  1  0
 89 90  2  0
 90 91  1  0
 89 92  1  0
 92 93  2  3
 93 94  1  0
 94 95  2  0
 94 96  1  0
 96 97  2  0
 97 98  1  0
 98 99  2  0
 99100  1  0
100101  2  0
101102  1  0
101103  1  0
103104  2  0
104105  1  0
105106  2  0
106107  1  0
107108  2  3
108109  1  0
109110  3  0
108111  1  0
111112  3  0
 16  2  1  0
 30 22  1  0
 74 32  1  0
 91 79  2  0
107 93  1  0
 15  5  1  0
 41 34  1  0
 73 42  2  0
 88 80  1  0
106 96  1  0
 13  7  1  0
 72 44  2  0
104 98  1  0
 70 45  2  0
 50 46  2  0
 69 51  2  0
 67 52  2  0
 66 54  2  0
 63 56  1  0
  1113  1  0
  6114  1  0
  8115  1  0
  9116  1  0
 12117  1  0
 14118  1  0
 23119  1  0
 26120  1  0
 26121  1  0
 27122  1  0
 27123  1  0
 27124  1  0
 29125  1  0
 35126  1  0
 36127  1  0
 37128  1  0
 39129  1  0
 39130  1  0
 40131  1  0
 40132  1  0
 40133  1  0
 41134  1  0
 57135  1  0
 58136  1  0
 59137  1  0
 61138  1  0
 61139  1  0
 62140  1  0
 62141  1  0
 62142  1  0
 63143  1  0
 75144  1  0
 75145  1  0
 76146  1  0
 76147  1  0
 76148  1  0
 77149  1  0
 77150  1  0
 78151  1  0
 78152  1  0
 78153  1  0
 82154  1  0
 85155  1  0
 85156  1  0
 86157  1  0
 86158  1  0
 86159  1  0
 90160  1  0
 91161  1  0
 92162  1  0
 97163  1  0
 99164  1  0
100165  1  0
103166  1  0
105167  1  0
M  END

