
     RDKit          3D

221245  0  0  0  0  0  0  0  0999 V2000
   -1.7363    1.9073  -10.0631 C   0  0  0  0  0  0  0  0  0  0  0  0
   -0.5079    2.0454   -9.5362 C   0  0  0  0  0  0  0  0  0  0  0  0
    0.6449    2.5878  -10.2596 C   0  0  0  0  0  0  0  0  0  0  0  0
    0.6861    2.8247  -11.4948 O   0  0  0  0  0  0  0  0  0  0  0  0
    1.7375    2.7494   -9.3242 C   0  0  0  0  0  0  0  0  0  0  0  0
    3.0530    3.1226   -9.5985 C   0  0  0  0  0  0  0  0  0  0  0  0
    4.0100    3.0209   -8.5733 C   0  0  0  0  0  0  0  0  0  0  0  0
    5.3511    3.3244   -8.8207 C   0  0  0  0  0  0  0  0  0  0  0  0
    6.3069    3.1595   -7.8119 C   0  0  0  0  0  0  0  0  0  0  0  0
    5.9323    2.6914   -6.5481 C   0  0  0  0  0  0  0  0  0  0  0  0
    6.8655    2.5416   -5.5790 F   0  0  0  0  0  0  0  0  0  0  0  0
    4.5989    2.3743   -6.2838 C   0  0  0  0  0  0  0  0  0  0  0  0
    3.6249    2.5444   -7.2859 C   0  0  0  0  0  0  0  0  0  0  0  0
    2.2806    2.2035   -7.0364 C   0  0  0  0  0  0  0  0  0  0  0  0
    1.3349    2.3201   -8.0651 C   0  0  0  0  0  0  0  0  0  0  0  0
   -0.0694    1.8416   -8.1188 C   0  0  0  0  0  0  0  0  0  0  0  0
   -0.5641    0.9128   -7.2757 C   0  0  0  0  0  0  0  0  0  0  0  0
   -0.8400   -0.4111   -7.7607 C   0  0  0  0  0  0  0  0  0  0  0  0
   -1.0296   -1.4777   -8.1624 N   0  0  0  0  0  0  0  0  0  0  0  0
   -0.4755    1.0953   -5.8481 C   0  0  0  0  0  0  0  0  0  0  0  0
   -0.4089    1.2347   -4.6999 N   0  0  0  0  0  0  0  0  0  0  0  0
   -2.9332    1.6411   -9.2437 C   0  0  0  0  0  0  0  0  0  0  0  0
   -3.4563    0.3297   -9.1721 C   0  0  0  0  0  0  0  0  0  0  0  0
   -4.4457    0.0662   -8.2237 C   0  0  0  0  0  0  0  0  0  0  0  0
   -4.8770   -1.1459   -7.7851 N   0  0  0  0  0  0  0  0  0  0  0  0
   -4.4152   -2.4676   -8.2301 C   0  0  0  0  0  0  0  0  0  0  0  0
   -5.3855   -3.0607   -9.2433 C   0  0  0  0  0  0  0  0  0  0  0  0
   -5.6875   -0.8753   -6.7272 C   0  0  0  0  0  0  0  0  0  0  0  0
   -5.7852    0.4810   -6.5131 C   0  0  0  0  0  0  0  0  0  0  0  0
   -4.9898    1.0845   -7.4591 C   0  0  0  0  0  0  0  0  0  0  0  0
   -4.5626    2.4078   -7.5792 C   0  0  0  0  0  0  0  0  0  0  0  0
   -3.5141    2.6827   -8.4776 C   0  0  0  0  0  0  0  0  0  0  0  0
   -6.4160    1.0105   -5.3919 C   0  0  0  0  0  0  0  0  0  0  0  0
   -6.9125    0.1129   -4.4315 C   0  0  0  0  0  0  0  0  0  0  0  0
   -6.8052   -1.2920   -4.6173 C   0  0  0  0  0  0  0  0  0  0  0  0
   -6.2116   -1.7850   -5.8066 C   0  0  0  0  0  0  0  0  0  0  0  0
   -7.0651   -2.2516   -3.5066 C   0  0  0  0  0  0  0  0  0  0  0  0
   -7.8938   -2.0910   -2.3634 C   0  0  0  0  0  0  0  0  0  0  0  0
   -8.8588   -1.0014   -2.1543 C   0  0  0  0  0  0  0  0  0  0  0  0
  -10.0594   -0.9985   -2.8756 C   0  0  0  0  0  0  0  0  0  0  0  0
  -10.9373    0.0818   -2.7712 C   0  0  0  0  0  0  0  0  0  0  0  0
  -10.6113    1.1766   -1.9627 C   0  0  0  0  0  0  0  0  0  0  0  0
   -9.4186    1.1772   -1.2137 C   0  0  0  0  0  0  0  0  0  0  0  0
   -9.0125    2.4026   -0.4432 C   0  0  0  0  0  0  0  0  0  0  0  0
   -8.0945    3.2856   -1.2813 C   0  0  0  0  0  0  0  0  0  0  0  0
   -8.5534    0.0707   -1.2965 C   0  0  0  0  0  0  0  0  0  0  0  0
   -7.6901   -3.1241   -1.4388 C   0  0  0  0  0  0  0  0  0  0  0  0
   -8.0605   -3.3088    0.2280 S   0  0  0  0  0  0  0  0  0  0  0  0
   -7.0035   -4.6447    0.3560 C   0  0  0  0  0  0  0  0  0  0  0  0
   -6.2240   -5.1985    1.3398 C   0  0  0  0  0  0  0  0  0  0  0  0
   -6.3084   -5.1950    2.7372 C   0  0  0  0  0  0  0  0  0  0  0  0
   -5.2125   -5.7245    3.4955 C   0  0  0  0  0  0  0  0  0  0  0  0
   -5.3246   -5.6758    4.8452 N   0  0  0  0  0  0  0  0  0  0  0  0
   -6.8422   -5.0093    4.9746 S   0  0  0  0  0  0  0  0  0  0  0  0
   -7.3778   -4.7284    3.4323 N   0  0  0  0  0  0  0  0  0  0  0  0
   -4.0392   -6.1151    2.8174 C   0  0  0  0  0  0  0  0  0  0  0  0
   -2.7451   -6.1297    3.2862 C   0  0  0  0  0  0  0  0  0  0  0  0
   -2.0435   -5.7365    4.7850 S   0  0  0  0  0  0  0  0  0  0  0  0
   -0.6308   -5.1737    4.0243 C   0  0  0  0  0  0  0  0  0  0  0  0
    0.3715   -4.3193    4.4955 C   0  0  0  0  0  0  0  0  0  0  0  0
    0.7938   -4.2650    5.9015 C   0  0  0  0  0  0  0  0  0  0  0  0
    0.3414   -3.2558    6.7656 C   0  0  0  0  0  0  0  0  0  0  0  0
    0.8482   -3.1738    8.0679 C   0  0  0  0  0  0  0  0  0  0  0  0
    1.8160   -4.0873    8.5061 C   0  0  0  0  0  0  0  0  0  0  0  0
    2.2679   -5.1062    7.6487 C   0  0  0  0  0  0  0  0  0  0  0  0
    3.3275   -6.0795    8.0922 C   0  0  0  0  0  0  0  0  0  0  0  0
    4.7027   -5.6655    7.5706 C   0  0  0  0  0  0  0  0  0  0  0  0
    1.7531   -5.1859    6.3465 C   0  0  0  0  0  0  0  0  0  0  0  0
    0.9772   -3.6006    3.4498 C   0  0  0  0  0  0  0  0  0  0  0  0
    0.2934   -4.0868    1.9772 S   0  0  0  0  0  0  0  0  0  0  0  0
   -0.7544   -5.2065    2.6554 C   0  0  0  0  0  0  0  0  0  0  0  0
   -1.9450   -5.7946    2.2339 C   0  0  0  0  0  0  0  0  0  0  0  0
   -2.6370   -5.6814    1.0715 N   0  0  0  0  0  0  0  0  0  0  0  0
   -3.9356   -5.9724    1.4228 C   0  0  0  0  0  0  0  0  0  0  0  0
   -5.1008   -5.7047    0.6744 C   0  0  0  0  0  0  0  0  0  0  0  0
   -5.2308   -5.5965   -0.6726 N   0  0  0  0  0  0  0  0  0  0  0  0
   -6.3733   -4.9011   -0.8214 C   0  0  0  0  0  0  0  0  0  0  0  0
   -6.7701   -4.0594   -1.8332 C   0  0  0  0  0  0  0  0  0  0  0  0
   -6.1083   -3.6524   -3.3030 S   0  0  0  0  0  0  0  0  0  0  0  0
   -4.6631   -6.4905   -1.6956 C   0  0  0  0  0  0  0  0  0  0  0  0
   -5.7011   -7.5018   -2.2026 C   0  0  0  0  0  0  0  0  0  0  0  0
   -2.1706   -4.9230   -0.0993 C   0  0  0  0  0  0  0  0  0  0  0  0
   -2.6206   -3.4616   -0.0507 C   0  0  0  0  0  0  0  0  0  0  0  0
    1.7569   -2.3687    3.6205 C   0  0  0  0  0  0  0  0  0  0  0  0
    1.4694   -1.1368    3.0106 C   0  0  0  0  0  0  0  0  0  0  0  0
    0.4408   -0.9014    2.0319 N   0  0  0  0  0  0  0  0  0  0  0  0
   -0.7686   -0.2792    2.5073 C   0  0  0  0  0  0  0  0  0  0  0  0
   -1.0976    1.0265    2.1075 C   0  0  0  0  0  0  0  0  0  0  0  0
   -2.2510    1.6433    2.5979 C   0  0  0  0  0  0  0  0  0  0  0  0
   -3.0804    0.9736    3.5102 C   0  0  0  0  0  0  0  0  0  0  0  0
   -4.3353    1.6302    4.0001 C   0  0  0  0  0  0  0  0  0  0  0  0
   -2.7598   -0.3366    3.9028 C   0  0  0  0  0  0  0  0  0  0  0  0
   -1.6054   -0.9557    3.4113 C   0  0  0  0  0  0  0  0  0  0  0  0
    0.7415   -0.9884    0.6106 C   0  0  0  0  0  0  0  0  0  0  0  0
   -0.2716   -0.8117   -0.3578 C   0  0  0  0  0  0  0  0  0  0  0  0
    0.0253   -0.8662   -1.7244 C   0  0  0  0  0  0  0  0  0  0  0  0
    1.3399   -1.0961   -2.1513 C   0  0  0  0  0  0  0  0  0  0  0  0
    1.6717   -1.0745   -3.6164 C   0  0  0  0  0  0  0  0  0  0  0  0
    2.3526   -1.2825   -1.2043 C   0  0  0  0  0  0  0  0  0  0  0  0
    2.0575   -1.2403    0.1631 C   0  0  0  0  0  0  0  0  0  0  0  0
    2.2700   -0.1269    3.5208 C   0  0  0  0  0  0  0  0  0  0  0  0
    2.3758    1.5225    3.2487 S   0  0  0  0  0  0  0  0  0  0  0  0
    3.6377    1.7381    4.3775 C   0  0  0  0  0  0  0  0  0  0  0  0
    3.9285    0.5158    5.0056 C   0  0  0  0  0  0  0  0  0  0  0  0
    4.9079    0.3365    6.0471 N   0  0  0  0  0  0  0  0  0  0  0  0
    5.9011   -0.7031    5.9383 C   0  0  0  0  0  0  0  0  0  0  0  0
    6.4669   -1.0185    4.6895 C   0  0  0  0  0  0  0  0  0  0  0  0
    7.4452   -2.0119    4.5850 C   0  0  0  0  0  0  0  0  0  0  0  0
    7.8821   -2.6971    5.7289 C   0  0  0  0  0  0  0  0  0  0  0  0
    8.9212   -3.7729    5.6215 C   0  0  0  0  0  0  0  0  0  0  0  0
    7.3000   -2.4078    6.9720 C   0  0  0  0  0  0  0  0  0  0  0  0
    6.3185   -1.4187    7.0767 C   0  0  0  0  0  0  0  0  0  0  0  0
    4.8457    1.1898    7.2083 C   0  0  0  0  0  0  0  0  0  0  0  0
    6.0176    1.7914    7.7051 C   0  0  0  0  0  0  0  0  0  0  0  0
    5.9523    2.6622    8.7955 C   0  0  0  0  0  0  0  0  0  0  0  0
    4.7193    2.9568    9.3975 C   0  0  0  0  0  0  0  0  0  0  0  0
    4.6585    3.8764   10.5800 C   0  0  0  0  0  0  0  0  0  0  0  0
    3.5514    2.3329    8.9261 C   0  0  0  0  0  0  0  0  0  0  0  0
    3.6144    1.4675    7.8259 C   0  0  0  0  0  0  0  0  0  0  0  0
    3.1518   -0.5071    4.4790 C   0  0  0  0  0  0  0  0  0  0  0  0
    2.9945   -2.1497    4.7797 S   0  0  0  0  0  0  0  0  0  0  0  0
    4.3412    3.0148    4.5866 C   0  0  0  0  0  0  0  0  0  0  0  0
    4.8987    3.7120    3.5773 C   0  0  0  0  0  0  0  0  0  0  0  0
    5.1676    3.1694    2.2398 C   0  0  0  0  0  0  0  0  0  0  0  0
    4.9362    1.9959    1.8448 O   0  0  0  0  0  0  0  0  0  0  0  0
    5.8970    4.1548    1.4803 C   0  0  0  0  0  0  0  0  0  0  0  0
    6.3239    4.0473    0.1608 C   0  0  0  0  0  0  0  0  0  0  0  0
    7.0210    5.1228   -0.4098 C   0  0  0  0  0  0  0  0  0  0  0  0
    7.4520    5.0663   -1.7417 C   0  0  0  0  0  0  0  0  0  0  0  0
    8.1449    6.1434   -2.3034 C   0  0  0  0  0  0  0  0  0  0  0  0
    8.4158    7.2798   -1.5368 C   0  0  0  0  0  0  0  0  0  0  0  0
    9.0903    8.3182   -2.0901 F   0  0  0  0  0  0  0  0  0  0  0  0
    7.9958    7.3516   -0.2039 C   0  0  0  0  0  0  0  0  0  0  0  0
    7.2915    6.2808    0.3758 C   0  0  0  0  0  0  0  0  0  0  0  0
    6.8537    6.3527    1.7139 C   0  0  0  0  0  0  0  0  0  0  0  0
    6.1400    5.2707    2.2651 C   0  0  0  0  0  0  0  0  0  0  0  0
    5.5155    5.0813    3.6140 C   0  0  0  0  0  0  0  0  0  0  0  0
    5.4182    6.0028    4.6108 C   0  0  0  0  0  0  0  0  0  0  0  0
    6.0814    7.2782    4.5656 C   0  0  0  0  0  0  0  0  0  0  0  0
    6.6106    8.3101    4.5489 N   0  0  0  0  0  0  0  0  0  0  0  0
    4.6114    5.8083    5.7862 C   0  0  0  0  0  0  0  0  0  0  0  0
    3.9639    5.6655    6.7351 N   0  0  0  0  0  0  0  0  0  0  0  0
   -1.8941    2.0945  -11.1150 H   0  0  0  0  0  0  0  0  0  0  0  0
    3.3340    3.4444  -10.5980 H   0  0  0  0  0  0  0  0  0  0  0  0
    5.6715    3.6517   -9.7990 H   0  0  0  0  0  0  0  0  0  0  0  0
    7.3461    3.4004   -8.0087 H   0  0  0  0  0  0  0  0  0  0  0  0
    4.3185    1.9975   -5.3090 H   0  0  0  0  0  0  0  0  0  0  0  0
    1.9987    1.8009   -6.0704 H   0  0  0  0  0  0  0  0  0  0  0  0
   -3.0260   -0.4569   -9.7745 H   0  0  0  0  0  0  0  0  0  0  0  0
   -4.3059   -3.1554   -7.3588 H   0  0  0  0  0  0  0  0  0  0  0  0
   -3.4121   -2.3932   -8.6966 H   0  0  0  0  0  0  0  0  0  0  0  0
   -4.9831   -4.0292   -9.6107 H   0  0  0  0  0  0  0  0  0  0  0  0
   -5.5061   -2.3682  -10.1034 H   0  0  0  0  0  0  0  0  0  0  0  0
   -6.3746   -3.2350   -8.7656 H   0  0  0  0  0  0  0  0  0  0  0  0
   -4.9776    3.1905   -6.9589 H   0  0  0  0  0  0  0  0  0  0  0  0
   -3.1323    3.6993   -8.5496 H   0  0  0  0  0  0  0  0  0  0  0  0
   -6.4405    2.0768   -5.2100 H   0  0  0  0  0  0  0  0  0  0  0  0
   -7.2768    0.5268   -3.5126 H   0  0  0  0  0  0  0  0  0  0  0  0
   -6.0735   -2.8495   -5.9560 H   0  0  0  0  0  0  0  0  0  0  0  0
  -10.2961   -1.8175   -3.5388 H   0  0  0  0  0  0  0  0  0  0  0  0
  -11.8535    0.0900   -3.3444 H   0  0  0  0  0  0  0  0  0  0  0  0
  -11.2770    2.0202   -1.9253 H   0  0  0  0  0  0  0  0  0  0  0  0
   -8.4869    2.1034    0.4905 H   0  0  0  0  0  0  0  0  0  0  0  0
   -9.9117    2.9856   -0.1510 H   0  0  0  0  0  0  0  0  0  0  0  0
   -7.1774    2.7245   -1.5738 H   0  0  0  0  0  0  0  0  0  0  0  0
   -7.7830    4.1808   -0.6889 H   0  0  0  0  0  0  0  0  0  0  0  0
   -8.6226    3.6307   -2.2026 H   0  0  0  0  0  0  0  0  0  0  0  0
   -7.6058    0.0752   -0.7609 H   0  0  0  0  0  0  0  0  0  0  0  0
   -0.3823   -2.5297    6.4244 H   0  0  0  0  0  0  0  0  0  0  0  0
    0.5068   -2.3919    8.7340 H   0  0  0  0  0  0  0  0  0  0  0  0
    2.2182   -3.9996    9.5060 H   0  0  0  0  0  0  0  0  0  0  0  0
    3.3601   -6.1430    9.2015 H   0  0  0  0  0  0  0  0  0  0  0  0
    3.0846   -7.0980    7.7060 H   0  0  0  0  0  0  0  0  0  0  0  0
    4.7082   -5.6481    6.4602 H   0  0  0  0  0  0  0  0  0  0  0  0
    5.4640   -6.3970    7.9145 H   0  0  0  0  0  0  0  0  0  0  0  0
    4.9755   -4.6582    7.9557 H   0  0  0  0  0  0  0  0  0  0  0  0
    2.1127   -5.9504    5.6709 H   0  0  0  0  0  0  0  0  0  0  0  0
   -3.8139   -7.0787   -1.2693 H   0  0  0  0  0  0  0  0  0  0  0  0
   -4.2903   -5.8806   -2.5489 H   0  0  0  0  0  0  0  0  0  0  0  0
   -5.4997   -8.5071   -1.7683 H   0  0  0  0  0  0  0  0  0  0  0  0
   -6.7478   -7.2150   -1.9532 H   0  0  0  0  0  0  0  0  0  0  0  0
   -5.6442   -7.5712   -3.3137 H   0  0  0  0  0  0  0  0  0  0  0  0
   -1.0646   -4.9606   -0.1794 H   0  0  0  0  0  0  0  0  0  0  0  0
   -2.5046   -5.3775   -1.0399 H   0  0  0  0  0  0  0  0  0  0  0  0
   -2.5060   -3.0074   -1.0665 H   0  0  0  0  0  0  0  0  0  0  0  0
   -1.9909   -2.8909    0.6699 H   0  0  0  0  0  0  0  0  0  0  0  0
   -3.6880   -3.3692    0.2432 H   0  0  0  0  0  0  0  0  0  0  0  0
   -0.4568    1.5647    1.4162 H   0  0  0  0  0  0  0  0  0  0  0  0
   -2.4934    2.6486    2.2744 H   0  0  0  0  0  0  0  0  0  0  0  0
   -5.1568    1.4499    3.2745 H   0  0  0  0  0  0  0  0  0  0  0  0
   -4.6313    1.2237    4.9919 H   0  0  0  0  0  0  0  0  0  0  0  0
   -4.1871    2.7248    4.1109 H   0  0  0  0  0  0  0  0  0  0  0  0
   -3.3998   -0.8755    4.5921 H   0  0  0  0  0  0  0  0  0  0  0  0
   -1.3657   -1.9629    3.7301 H   0  0  0  0  0  0  0  0  0  0  0  0
   -1.2912   -0.6152   -0.0671 H   0  0  0  0  0  0  0  0  0  0  0  0
   -0.7710   -0.7174   -2.4421 H   0  0  0  0  0  0  0  0  0  0  0  0
    2.5481   -1.7188   -3.8345 H   0  0  0  0  0  0  0  0  0  0  0  0
    1.9081   -0.0349   -3.9253 H   0  0  0  0  0  0  0  0  0  0  0  0
    0.8141   -1.4484   -4.2201 H   0  0  0  0  0  0  0  0  0  0  0  0
    3.3726   -1.4572   -1.5233 H   0  0  0  0  0  0  0  0  0  0  0  0
    2.8700   -1.3884    0.8656 H   0  0  0  0  0  0  0  0  0  0  0  0
    6.1624   -0.4818    3.7997 H   0  0  0  0  0  0  0  0  0  0  0  0
    7.8681   -2.2405    3.6147 H   0  0  0  0  0  0  0  0  0  0  0  0
    8.4281   -4.7665    5.5802 H   0  0  0  0  0  0  0  0  0  0  0  0
    9.5396   -3.6394    4.7077 H   0  0  0  0  0  0  0  0  0  0  0  0
    9.6012   -3.7411    6.5005 H   0  0  0  0  0  0  0  0  0  0  0  0
    7.6046   -2.9490    7.8575 H   0  0  0  0  0  0  0  0  0  0  0  0
    5.8829   -1.2065    8.0470 H   0  0  0  0  0  0  0  0  0  0  0  0
    6.9710    1.5926    7.2353 H   0  0  0  0  0  0  0  0  0  0  0  0
    6.8626    3.1179    9.1640 H   0  0  0  0  0  0  0  0  0  0  0  0
    5.4180    4.6812   10.4827 H   0  0  0  0  0  0  0  0  0  0  0  0
    3.6606    4.3569   10.6579 H   0  0  0  0  0  0  0  0  0  0  0  0
    4.8557    3.3027   11.5087 H   0  0  0  0  0  0  0  0  0  0  0  0
    2.5940    2.5259    9.3985 H   0  0  0  0  0  0  0  0  0  0  0  0
    2.7034    1.0035    7.4639 H   0  0  0  0  0  0  0  0  0  0  0  0
    4.3977    3.3635    5.5997 H   0  0  0  0  0  0  0  0  0  0  0  0
    6.1075    3.1552   -0.4166 H   0  0  0  0  0  0  0  0  0  0  0  0
    7.2471    4.1939   -2.3497 H   0  0  0  0  0  0  0  0  0  0  0  0
    8.4706    6.0925   -3.3341 H   0  0  0  0  0  0  0  0  0  0  0  0
    8.2115    8.2421    0.3726 H   0  0  0  0  0  0  0  0  0  0  0  0
    7.0714    7.2386    2.2821 H   0  0  0  0  0  0  0  0  0  0  0  0
  1  2  2  3
  2  3  1  0
  3  4  2  0
  3  5  1  0
  5  6  2  0
  6  7  1  0
  7  8  2  0
  8  9  1  0
  9 10  2  0
 10 11  1  0
 10 12  1  0
 12 13  2  0
 13 14  1  0
 14 15  2  0
 15 16  1  0
 16 17  2  3
 17 18  1  0
 18 19  3  0
 17 20  1  0
 20 21  3  0
  1 22  1  0
 22 23  2  0
 23 24  1  0
 24 25  1  0
 25 26  1  0
 26 27  1  0
 25 28  1  0
 28 29  2  0
 29 30  1  0
 30 31  1  0
 31 32  2  0
 29 33  1  0
 33 34  2  0
 34 35  1  0
 35 36  2  0
 35 37  1  0
 37 38  2  0
 38 39  1  0
 39 40  2  0
 40 41  1  0
 41 42  2  0
 42 43  1  0
 43 44  1  0
 44 45  1  0
 43 46  2  0
 38 47  1  0
 47 48  1  0
 48 49  1  0
 49 50  1  0
 50 51  1  0
 51 52  1  0
 52 53  2  0
 53 54  1  0
 54 55  1  0
 52 56  1  0
 56 57  1  0
 57 58  1  0
 58 59  1  0
 59 60  1  0
 60 61  1  0
 61 62  2  0
 62 63  1  0
 63 64  2  0
 64 65  1  0
 65 66  1  0
 66 67  1  0
 65 68  2  0
 60 69  2  0
 69 70  1  0
 70 71  1  0
 71 72  1  0
 72 73  1  0
 73 74  1  0
 74 75  1  0
 75 76  1  0
 76 77  1  0
 77 78  1  0
 78 79  1  0
 76 80  1  0
 80 81  1  0
 73 82  1  0
 82 83  1  0
 69 84  1  0
 84 85  2  0
 85 86  1  0
 86 87  1  0
 87 88  2  0
 88 89  1  0
 89 90  2  0
 90 91  1  0
 90 92  1  0
 92 93  2  0
 86 94  1  0
 94 95  2  0
 95 96  1  0
 96 97  2  0
 97 98  1  0
 97 99  1  0
 99100  2  0
 85101  1  0
101102  1  0
102103  1  0
103104  2  0
104105  1  0
105106  1  0
106107  2  0
107108  1  0
108109  2  0
109110  1  0
109111  1  0
111112  2  0
105113  1  0
113114  2  0
114115  1  0
115116  2  0
116117  1  0
116118  1  0
118119  2  0
104120  1  0
120121  1  0
103122  1  0
122123  2  3
123124  1  0
124125  2  0
124126  1  0
126127  2  0
127128  1  0
128129  2  0
129130  1  0
130131  2  0
131132  1  0
131133  1  0
133134  2  0
134135  1  0
135136  2  0
136137  1  0
137138  2  3
138139  1  0
139140  3  0
138141  1  0
141142  3  0
 16  2  1  0
 32 22  1  0
 79 37  1  0
121 84  1  0
137123  1  0
 15  5  1  0
 30 24  2  0
 46 39  1  0
 78 47  2  0
 93 87  1  0
100 94  1  0
120101  2  0
136126  1  0
 13  7  1  0
 36 28  1  0
 77 49  2  0
112106  1  0
119113  1  0
134128  1  0
 75 50  2  0
 55 51  2  0
 74 56  2  0
 72 57  2  0
 71 59  2  0
 68 61  1  0
  1143  1  0
  6144  1  0
  8145  1  0
  9146  1  0
 12147  1  0
 14148  1  0
 23149  1  0
 26150  1  0
 26151  1  0
 27152  1  0
 27153  1  0
 27154  1  0
 31155  1  0
 32156  1  0
 33157  1  0
 34158  1  0
 36159  1  0
 40160  1  0
 41161  1  0
 42162  1  0
 44163  1  0
 44164  1  0
 45165  1  0
 45166  1  0
 45167  1  0
 46168  1  0
 62169  1  0
 63170  1  0
 64171  1  0
 66172  1  0
 66173  1  0
 67174  1  0
 67175  1  0
 67176  1  0
 68177  1  0
 80178  1  0
 80179  1  0
 81180  1  0
 81181  1  0
 81182  1  0
 82183  1  0
 82184  1  0
 83185  1  0
 83186  1  0
 83187  1  0
 88188  1  0
 89189  1  0
 91190  1  0
 91191  1  0
 91192  1  0
 92193  1  0
 93194  1  0
 95195  1  0
 96196  1  0
 98197  1  0
 98198  1  0
 98199  1  0
 99200  1  0
100201  1  0
107202  1  0
108203  1  0
110204  1  0
110205  1  0
110206  1  0
111207  1  0
112208  1  0
114209  1  0
115210  1  0
117211  1  0
117212  1  0
117213  1  0
118214  1  0
119215  1  0
122216  1  0
127217  1  0
129218  1  0
130219  1  0
133220  1  0
135221  1  0
M  END

