
     RDKit          3D

166184  0  0  0  0  0  0  0  0999 V2000
    8.6032   -0.8793    9.8237 C   0  0  0  0  0  0  0  0  0  0  0  0
    8.8971    0.2310    9.1192 C   0  0  0  0  0  0  0  0  0  0  0  0
    9.4012    1.4518    9.7552 C   0  0  0  0  0  0  0  0  0  0  0  0
   10.0704    1.5076   10.8197 O   0  0  0  0  0  0  0  0  0  0  0  0
    8.8589    2.5907    9.0330 C   0  0  0  0  0  0  0  0  0  0  0  0
    8.8742    3.9348    9.4079 C   0  0  0  0  0  0  0  0  0  0  0  0
    8.1270    4.8539    8.6438 C   0  0  0  0  0  0  0  0  0  0  0  0
    8.0746    6.2046    9.0074 C   0  0  0  0  0  0  0  0  0  0  0  0
    7.3091    7.1060    8.2609 C   0  0  0  0  0  0  0  0  0  0  0  0
    6.5955    6.6689    7.1417 C   0  0  0  0  0  0  0  0  0  0  0  0
    5.8612    7.5528    6.4229 F   0  0  0  0  0  0  0  0  0  0  0  0
    6.6277    5.3236    6.7683 C   0  0  0  0  0  0  0  0  0  0  0  0
    7.3796    4.4025    7.5171 C   0  0  0  0  0  0  0  0  0  0  0  0
    7.3782    3.0384    7.1731 C   0  0  0  0  0  0  0  0  0  0  0  0
    8.1306    2.1403    7.9425 C   0  0  0  0  0  0  0  0  0  0  0  0
    8.2556    0.6658    7.8432 C   0  0  0  0  0  0  0  0  0  0  0  0
    8.1560   -0.0749    6.7129 C   0  0  0  0  0  0  0  0  0  0  0  0
    7.5669    0.4293    5.4996 C   0  0  0  0  0  0  0  0  0  0  0  0
    7.0926    0.8162    4.5162 N   0  0  0  0  0  0  0  0  0  0  0  0
    8.8036   -1.3563    6.5995 C   0  0  0  0  0  0  0  0  0  0  0  0
    9.3275   -2.3820    6.4868 N   0  0  0  0  0  0  0  0  0  0  0  0
    7.4271   -1.7046    9.4859 C   0  0  0  0  0  0  0  0  0  0  0  0
    6.1510   -1.1214    9.5059 C   0  0  0  0  0  0  0  0  0  0  0  0
    5.9639    0.1000   10.0654 F   0  0  0  0  0  0  0  0  0  0  0  0
    5.0916   -1.7384    8.8444 C   0  0  0  0  0  0  0  0  0  0  0  0
    3.8902   -1.1041    8.7883 F   0  0  0  0  0  0  0  0  0  0  0  0
    5.3015   -2.9342    8.1334 C   0  0  0  0  0  0  0  0  0  0  0  0
    6.5346   -3.6067    8.2751 C   0  0  0  0  0  0  0  0  0  0  0  0
    6.7874   -4.7541    7.5956 F   0  0  0  0  0  0  0  0  0  0  0  0
    7.5825   -3.0038    8.9855 C   0  0  0  0  0  0  0  0  0  0  0  0
    8.7991   -3.6076    9.0240 F   0  0  0  0  0  0  0  0  0  0  0  0
    4.3766   -3.2762    7.0353 C   0  0  0  0  0  0  0  0  0  0  0  0
    3.9626   -4.5591    6.5984 C   0  0  0  0  0  0  0  0  0  0  0  0
    4.0991   -5.8034    7.3841 C   0  0  0  0  0  0  0  0  0  0  0  0
    4.4538   -7.0123    6.7678 C   0  0  0  0  0  0  0  0  0  0  0  0
    4.5156   -8.1942    7.5126 C   0  0  0  0  0  0  0  0  0  0  0  0
    4.2295   -8.1786    8.8803 C   0  0  0  0  0  0  0  0  0  0  0  0
    3.8781   -6.9771    9.5142 C   0  0  0  0  0  0  0  0  0  0  0  0
    3.5847   -6.9530   10.9900 C   0  0  0  0  0  0  0  0  0  0  0  0
    4.8707   -6.8758   11.8075 C   0  0  0  0  0  0  0  0  0  0  0  0
    3.8267   -5.7921    8.7646 C   0  0  0  0  0  0  0  0  0  0  0  0
    3.2957   -4.4632    5.3652 C   0  0  0  0  0  0  0  0  0  0  0  0
    2.6714   -5.5907    4.2396 S   0  0  0  0  0  0  0  0  0  0  0  0
    2.2104   -4.3391    3.1843 C   0  0  0  0  0  0  0  0  0  0  0  0
    1.8726   -4.1673    1.8702 C   0  0  0  0  0  0  0  0  0  0  0  0
    1.7427   -5.0765    0.8110 C   0  0  0  0  0  0  0  0  0  0  0  0
    1.5794   -4.5650   -0.5161 C   0  0  0  0  0  0  0  0  0  0  0  0
    1.4425   -5.4734   -1.5127 N   0  0  0  0  0  0  0  0  0  0  0  0
    1.5742   -6.8744   -0.6331 S   0  0  0  0  0  0  0  0  0  0  0  0
    1.7801   -6.4254    0.9483 N   0  0  0  0  0  0  0  0  0  0  0  0
    1.5206   -3.1759   -0.7058 C   0  0  0  0  0  0  0  0  0  0  0  0
    1.0813   -2.4296   -1.7739 C   0  0  0  0  0  0  0  0  0  0  0  0
    0.3301   -2.7558   -3.2612 S   0  0  0  0  0  0  0  0  0  0  0  0
   -0.4128   -1.2188   -3.2654 C   0  0  0  0  0  0  0  0  0  0  0  0
   -1.4396   -0.6759   -4.0394 C   0  0  0  0  0  0  0  0  0  0  0  0
   -1.8318   -1.1942   -5.3659 C   0  0  0  0  0  0  0  0  0  0  0  0
   -3.1733   -1.4753   -5.6660 C   0  0  0  0  0  0  0  0  0  0  0  0
   -3.5370   -1.8773   -6.9556 C   0  0  0  0  0  0  0  0  0  0  0  0
   -2.5687   -1.9868   -7.9583 C   0  0  0  0  0  0  0  0  0  0  0  0
   -1.2217   -1.7170   -7.6701 C   0  0  0  0  0  0  0  0  0  0  0  0
   -0.1867   -1.7607   -8.7604 C   0  0  0  0  0  0  0  0  0  0  0  0
   -0.1118   -0.4185   -9.4868 C   0  0  0  0  0  0  0  0  0  0  0  0
   -0.8596   -1.3201   -6.3724 C   0  0  0  0  0  0  0  0  0  0  0  0
   -2.0170    0.4378   -3.3995 C   0  0  0  0  0  0  0  0  0  0  0  0
   -1.2326    0.7235   -1.9200 S   0  0  0  0  0  0  0  0  0  0  0  0
   -0.1355   -0.5330   -2.1097 C   0  0  0  0  0  0  0  0  0  0  0  0
    0.7609   -1.2015   -1.2857 C   0  0  0  0  0  0  0  0  0  0  0  0
    1.0646   -1.0614    0.0278 N   0  0  0  0  0  0  0  0  0  0  0  0
    1.5907   -2.2792    0.3725 C   0  0  0  0  0  0  0  0  0  0  0  0
    1.8945   -2.7829    1.6611 C   0  0  0  0  0  0  0  0  0  0  0  0
    2.3750   -2.1189    2.7573 N   0  0  0  0  0  0  0  0  0  0  0  0
    2.5198   -3.1121    3.6700 C   0  0  0  0  0  0  0  0  0  0  0  0
    3.1619   -3.1845    4.8902 C   0  0  0  0  0  0  0  0  0  0  0  0
    3.9004   -2.0946    5.9060 S   0  0  0  0  0  0  0  0  0  0  0  0
    3.1784   -0.8916    2.7414 C   0  0  0  0  0  0  0  0  0  0  0  0
    2.6361    0.1703    3.7051 C   0  0  0  0  0  0  0  0  0  0  0  0
    0.5092   -0.0325    0.9132 C   0  0  0  0  0  0  0  0  0  0  0  0
    1.1454    1.3314    0.6445 C   0  0  0  0  0  0  0  0  0  0  0  0
   -3.2195    1.1556   -3.8373 C   0  0  0  0  0  0  0  0  0  0  0  0
   -3.2181    1.8729   -5.0447 C   0  0  0  0  0  0  0  0  0  0  0  0
   -4.4017    2.4753   -5.4670 C   0  0  0  0  0  0  0  0  0  0  0  0
   -4.6469    3.4949   -6.9594 Si  0  0  0  0  0  4  0  0  0  0  0  0
   -3.8357    5.1752   -6.7536 C   0  0  0  0  0  0  0  0  0  0  0  0
   -2.3164    5.0615   -6.7877 C   0  0  0  0  0  0  0  0  0  0  0  0
   -4.2062    2.5992   -8.5443 C   0  0  0  0  0  0  0  0  0  0  0  0
   -4.9078    1.2507   -8.6286 C   0  0  0  0  0  0  0  0  0  0  0  0
   -6.4464    3.5636   -6.6237 C   0  0  0  0  0  0  0  0  0  0  0  0
   -6.7607    2.9242   -5.4274 C   0  0  0  0  0  0  0  0  0  0  0  0
   -5.5878    2.3298   -4.7518 C   0  0  0  0  0  0  0  0  0  0  0  0
   -5.5907    1.6351   -3.5343 C   0  0  0  0  0  0  0  0  0  0  0  0
   -4.3976    1.0666   -3.0705 C   0  0  0  0  0  0  0  0  0  0  0  0
   -8.0920    2.8269   -5.0131 C   0  0  0  0  0  0  0  0  0  0  0  0
   -9.0990    3.3763   -5.8213 C   0  0  0  0  0  0  0  0  0  0  0  0
   -8.7833    3.9928   -7.0477 C   0  0  0  0  0  0  0  0  0  0  0  0
   -7.4360    4.1182   -7.4360 C   0  0  0  0  0  0  0  0  0  0  0  0
   -9.8687    4.5799   -7.8530 C   0  0  0  0  0  0  0  0  0  0  0  0
  -10.0516    4.3737   -9.1716 C   0  0  0  0  0  0  0  0  0  0  0  0
   -9.4314    3.3098   -9.9743 C   0  0  0  0  0  0  0  0  0  0  0  0
   -8.4656    2.5756   -9.6359 O   0  0  0  0  0  0  0  0  0  0  0  0
  -10.1900    3.1560  -11.1987 C   0  0  0  0  0  0  0  0  0  0  0  0
  -10.0041    2.2174  -12.2142 C   0  0  0  0  0  0  0  0  0  0  0  0
  -10.8976    2.2068  -13.2920 C   0  0  0  0  0  0  0  0  0  0  0  0
  -10.7454    1.2996  -14.2897 F   0  0  0  0  0  0  0  0  0  0  0  0
  -11.9685    3.1193  -13.3277 C   0  0  0  0  0  0  0  0  0  0  0  0
  -12.8429    3.0930  -14.3651 F   0  0  0  0  0  0  0  0  0  0  0  0
  -12.1435    4.0550  -12.2956 C   0  0  0  0  0  0  0  0  0  0  0  0
  -11.2309    4.0699  -11.2219 C   0  0  0  0  0  0  0  0  0  0  0  0
  -11.1602    4.9339  -10.0068 C   0  0  0  0  0  0  0  0  0  0  0  0
  -11.8079    6.1085   -9.7962 C   0  0  0  0  0  0  0  0  0  0  0  0
  -12.8517    6.5945  -10.6619 C   0  0  0  0  0  0  0  0  0  0  0  0
  -13.6953    7.0078  -11.3400 N   0  0  0  0  0  0  0  0  0  0  0  0
  -11.4176    7.0249   -8.7549 C   0  0  0  0  0  0  0  0  0  0  0  0
  -11.0947    7.7693   -7.9292 N   0  0  0  0  0  0  0  0  0  0  0  0
    9.0648   -1.0359   10.7879 H   0  0  0  0  0  0  0  0  0  0  0  0
    9.4292    4.2538   10.2846 H   0  0  0  0  0  0  0  0  0  0  0  0
    8.6090    6.5598    9.8791 H   0  0  0  0  0  0  0  0  0  0  0  0
    7.2657    8.1462    8.5555 H   0  0  0  0  0  0  0  0  0  0  0  0
    6.0565    4.9964    5.9051 H   0  0  0  0  0  0  0  0  0  0  0  0
    6.7553    2.6934    6.3621 H   0  0  0  0  0  0  0  0  0  0  0  0
    4.6780   -7.0511    5.7101 H   0  0  0  0  0  0  0  0  0  0  0  0
    4.7732   -9.1320    7.0276 H   0  0  0  0  0  0  0  0  0  0  0  0
    4.2695   -9.1038    9.4479 H   0  0  0  0  0  0  0  0  0  0  0  0
    2.9409   -6.0822   11.2448 H   0  0  0  0  0  0  0  0  0  0  0  0
    3.0227   -7.8693   11.2800 H   0  0  0  0  0  0  0  0  0  0  0  0
    5.4227   -5.9362   11.5738 H   0  0  0  0  0  0  0  0  0  0  0  0
    5.5225   -7.7505   11.5873 H   0  0  0  0  0  0  0  0  0  0  0  0
    4.6189   -6.8853   12.8887 H   0  0  0  0  0  0  0  0  0  0  0  0
    3.5214   -4.8752    9.2484 H   0  0  0  0  0  0  0  0  0  0  0  0
   -3.9409   -1.3776   -4.9077 H   0  0  0  0  0  0  0  0  0  0  0  0
   -4.5746   -2.0862   -7.1848 H   0  0  0  0  0  0  0  0  0  0  0  0
   -2.8683   -2.2739   -8.9603 H   0  0  0  0  0  0  0  0  0  0  0  0
   -0.4389   -2.5602   -9.4907 H   0  0  0  0  0  0  0  0  0  0  0  0
    0.8086   -2.0032   -8.3306 H   0  0  0  0  0  0  0  0  0  0  0  0
   -1.1011   -0.1508   -9.9159 H   0  0  0  0  0  0  0  0  0  0  0  0
    0.2069    0.3790   -8.7837 H   0  0  0  0  0  0  0  0  0  0  0  0
    0.6272   -0.4799  -10.3145 H   0  0  0  0  0  0  0  0  0  0  0  0
    0.1737   -1.0724   -6.1562 H   0  0  0  0  0  0  0  0  0  0  0  0
    4.2317   -1.1341    3.0132 H   0  0  0  0  0  0  0  0  0  0  0  0
    3.2309   -0.4878    1.7137 H   0  0  0  0  0  0  0  0  0  0  0  0
    1.6129   -0.0793    4.0523 H   0  0  0  0  0  0  0  0  0  0  0  0
    2.6132    1.1598    3.2054 H   0  0  0  0  0  0  0  0  0  0  0  0
    3.2962    0.2682    4.5889 H   0  0  0  0  0  0  0  0  0  0  0  0
    0.6380   -0.3067    1.9737 H   0  0  0  0  0  0  0  0  0  0  0  0
   -0.5884    0.0353    0.7608 H   0  0  0  0  0  0  0  0  0  0  0  0
    2.2367    1.3055    0.8146 H   0  0  0  0  0  0  0  0  0  0  0  0
    0.6944    2.0870    1.3219 H   0  0  0  0  0  0  0  0  0  0  0  0
    0.9676    1.6507   -0.4034 H   0  0  0  0  0  0  0  0  0  0  0  0
   -2.3211    1.9481   -5.6446 H   0  0  0  0  0  0  0  0  0  0  0  0
   -4.1483    5.5986   -5.7745 H   0  0  0  0  0  0  0  0  0  0  0  0
   -4.1791    5.8530   -7.5633 H   0  0  0  0  0  0  0  0  0  0  0  0
   -1.9826    4.6639   -7.7710 H   0  0  0  0  0  0  0  0  0  0  0  0
   -1.8655    6.0640   -6.6348 H   0  0  0  0  0  0  0  0  0  0  0  0
   -1.9575    4.3892   -5.9774 H   0  0  0  0  0  0  0  0  0  0  0  0
   -4.5044    3.2322   -9.4084 H   0  0  0  0  0  0  0  0  0  0  0  0
   -3.1067    2.4479   -8.5695 H   0  0  0  0  0  0  0  0  0  0  0  0
   -4.5152    0.6851   -9.4962 H   0  0  0  0  0  0  0  0  0  0  0  0
   -6.0014    1.3934   -8.7531 H   0  0  0  0  0  0  0  0  0  0  0  0
   -4.7252    0.6557   -7.7091 H   0  0  0  0  0  0  0  0  0  0  0  0
   -6.5002    1.5261   -2.9528 H   0  0  0  0  0  0  0  0  0  0  0  0
   -4.4038    0.5191   -2.1366 H   0  0  0  0  0  0  0  0  0  0  0  0
   -8.3573    2.3260   -4.0909 H   0  0  0  0  0  0  0  0  0  0  0  0
  -10.1315    3.2919   -5.5012 H   0  0  0  0  0  0  0  0  0  0  0  0
   -7.1631    4.6208   -8.3551 H   0  0  0  0  0  0  0  0  0  0  0  0
  -10.6100    5.1374   -7.3000 H   0  0  0  0  0  0  0  0  0  0  0  0
   -9.1888    1.5086  -12.1698 H   0  0  0  0  0  0  0  0  0  0  0  0
  -12.9929    4.7170  -12.3428 H   0  0  0  0  0  0  0  0  0  0  0  0
  1  2  2  3
  2  3  1  0
  3  4  2  0
  3  5  1  0
  5  6  2  0
  6  7  1  0
  7  8  2  0
  8  9  1  0
  9 10  2  0
 10 11  1  0
 10 12  1  0
 12 13  2  0
 13 14  1  0
 14 15  2  0
 15 16  1  0
 16 17  2  3
 17 18  1  0
 18 19  3  0
 17 20  1  0
 20 21  3  0
  1 22  1  0
 22 23  2  0
 23 24  1  0
 23 25  1  0
 25 26  1  0
 25 27  2  0
 27 28  1  0
 28 29  1  0
 28 30  2  0
 30 31  1  0
 27 32  1  0
 32 33  2  0
 33 34  1  0
 34 35  2  0
 35 36  1  0
 36 37  2  0
 37 38  1  0
 38 39  1  0
 39 40  1  0
 38 41  2  0
 33 42  1  0
 42 43  1  0
 43 44  1  0
 44 45  1  0
 45 46  1  0
 46 47  1  0
 47 48  2  0
 48 49  1  0
 49 50  1  0
 47 51  1  0
 51 52  1  0
 52 53  1  0
 53 54  1  0
 54 55  1  0
 55 56  1  0
 56 57  2  0
 57 58  1  0
 58 59  2  0
 59 60  1  0
 60 61  1  0
 61 62  1  0
 60 63  2  0
 55 64  2  0
 64 65  1  0
 65 66  1  0
 66 67  1  0
 67 68  1  0
 68 69  1  0
 69 70  1  0
 70 71  1  0
 71 72  1  0
 72 73  1  0
 73 74  1  0
 71 75  1  0
 75 76  1  0
 68 77  1  0
 77 78  1  0
 64 79  1  0
 79 80  2  0
 80 81  1  0
 81 82  1  0
 82 83  1  0
 83 84  1  0
 82 85  1  0
 85 86  1  0
 82 87  1  0
 87 88  2  0
 88 89  1  0
 89 90  1  0
 90 91  2  0
 88 92  1  0
 92 93  2  0
 93 94  1  0
 94 95  2  0
 94 96  1  0
 96 97  2  3
 97 98  1  0
 98 99  2  0
 98100  1  0
100101  2  0
101102  1  0
102103  1  0
102104  2  0
104105  1  0
104106  1  0
106107  2  0
107108  1  0
108109  2  3
109110  1  0
110111  3  0
109112  1  0
112113  3  0
 16  2  1  0
 30 22  1  0
 74 32  1  0
 91 79  1  0
108 97  1  0
 15  5  1  0
 41 34  1  0
 73 42  2  0
 89 81  2  0
107100  1  0
 13  7  1  0
 72 44  2  0
 95 87  1  0
 70 45  2  0
 50 46  2  0
 69 51  2  0
 67 52  2  0
 66 54  2  0
 63 56  1  0
  1114  1  0
  6115  1  0
  8116  1  0
  9117  1  0
 12118  1  0
 14119  1  0
 35120  1  0
 36121  1  0
 37122  1  0
 39123  1  0
 39124  1  0
 40125  1  0
 40126  1  0
 40127  1  0
 41128  1  0
 57129  1  0
 58130  1  0
 59131  1  0
 61132  1  0
 61133  1  0
 62134  1  0
 62135  1  0
 62136  1  0
 63137  1  0
 75138  1  0
 75139  1  0
 76140  1  0
 76141  1  0
 76142  1  0
 77143  1  0
 77144  1  0
 78145  1  0
 78146  1  0
 78147  1  0
 80148  1  0
 83149  1  0
 83150  1  0
 84151  1  0
 84152  1  0
 84153  1  0
 85154  1  0
 85155  1  0
 86156  1  0
 86157  1  0
 86158  1  0
 90159  1  0
 91160  1  0
 92161  1  0
 93162  1  0
 95163  1  0
 96164  1  0
101165  1  0
106166  1  0
M  END

