
     RDKit          3D

139153  0  0  0  0  0  0  0  0999 V2000
    9.7911   -3.3773    3.6144 C   0  0  0  0  0  0  0  0  0  0  0  0
   10.1370   -2.2794    2.9164 C   0  0  0  0  0  0  0  0  0  0  0  0
   10.3574   -2.2637    1.4729 C   0  0  0  0  0  0  0  0  0  0  0  0
   10.6375   -3.2639    0.7612 O   0  0  0  0  0  0  0  0  0  0  0  0
   10.2317   -0.9062    0.9971 C   0  0  0  0  0  0  0  0  0  0  0  0
   10.2606   -0.4552   -0.3224 C   0  0  0  0  0  0  0  0  0  0  0  0
    9.9948    0.9009   -0.5754 C   0  0  0  0  0  0  0  0  0  0  0  0
    9.9951    1.3933   -1.8904 C   0  0  0  0  0  0  0  0  0  0  0  0
    9.7045    2.7376   -2.1386 C   0  0  0  0  0  0  0  0  0  0  0  0
    9.4133    3.6001   -1.0776 C   0  0  0  0  0  0  0  0  0  0  0  0
    9.1263    4.9045   -1.3244 F   0  0  0  0  0  0  0  0  0  0  0  0
    9.3995    3.1222    0.2376 C   0  0  0  0  0  0  0  0  0  0  0  0
    9.6904    1.7754    0.5027 C   0  0  0  0  0  0  0  0  0  0  0  0
    9.6658    1.2851    1.8243 C   0  0  0  0  0  0  0  0  0  0  0  0
    9.9637   -0.0678    2.0637 C   0  0  0  0  0  0  0  0  0  0  0  0
    9.9456   -0.8544    3.3343 C   0  0  0  0  0  0  0  0  0  0  0  0
    9.8599   -0.3710    4.6013 C   0  0  0  0  0  0  0  0  0  0  0  0
    9.8174   -1.2290    5.7571 C   0  0  0  0  0  0  0  0  0  0  0  0
    9.7703   -1.9035    6.7004 N   0  0  0  0  0  0  0  0  0  0  0  0
    9.8877    1.0379    4.9010 C   0  0  0  0  0  0  0  0  0  0  0  0
    9.9159    2.1674    5.1588 N   0  0  0  0  0  0  0  0  0  0  0  0
    8.3785   -3.8690    3.6626 C   0  0  0  0  0  0  0  0  0  0  0  0
    7.5170   -3.8305    2.5415 C   0  0  0  0  0  0  0  0  0  0  0  0
    7.9614   -3.4886    1.3131 F   0  0  0  0  0  0  0  0  0  0  0  0
    6.1601   -4.1240    2.6801 C   0  0  0  0  0  0  0  0  0  0  0  0
    5.3385   -3.9829    1.6079 F   0  0  0  0  0  0  0  0  0  0  0  0
    5.6314   -4.4735    3.9312 C   0  0  0  0  0  0  0  0  0  0  0  0
    6.4893   -4.6076    5.0286 C   0  0  0  0  0  0  0  0  0  0  0  0
    5.9927   -4.9559    6.2424 F   0  0  0  0  0  0  0  0  0  0  0  0
    7.8538   -4.3320    4.8915 C   0  0  0  0  0  0  0  0  0  0  0  0
    8.6508   -4.4563    5.9844 F   0  0  0  0  0  0  0  0  0  0  0  0
    4.1686   -4.4694    4.1039 C   0  0  0  0  0  0  0  0  0  0  0  0
    3.3799   -5.5374    3.6273 C   0  0  0  0  0  0  0  0  0  0  0  0
    1.9837   -5.3982    3.4980 C   0  0  0  0  0  0  0  0  0  0  0  0
    1.4057   -4.1666    3.8301 C   0  0  0  0  0  0  0  0  0  0  0  0
    0.1546   -3.5962    3.5762 C   0  0  0  0  0  0  0  0  0  0  0  0
    0.2657   -2.2745    3.8738 C   0  0  0  0  0  0  0  0  0  0  0  0
    1.4939   -1.9531    4.3531 N   0  0  0  0  0  0  0  0  0  0  0  0
    2.1817   -3.1240    4.3254 C   0  0  0  0  0  0  0  0  0  0  0  0
    3.5571   -3.2711    4.5038 C   0  0  0  0  0  0  0  0  0  0  0  0
    2.0232   -0.6391    4.7332 C   0  0  0  0  0  0  0  0  0  0  0  0
    2.8764   -0.0376    3.6145 C   0  0  0  0  0  0  0  0  0  0  0  0
   -0.6026   -1.6102    3.0316 C   0  0  0  0  0  0  0  0  0  0  0  0
   -0.5928   -0.2975    2.5386 C   0  0  0  0  0  0  0  0  0  0  0  0
   -1.2574    0.0265    1.3947 C   0  0  0  0  0  0  0  0  0  0  0  0
   -1.0475    1.3223    1.1215 N   0  0  0  0  0  0  0  0  0  0  0  0
   -0.2344    1.7462    2.0884 N   0  0  0  0  0  0  0  0  0  0  0  0
    0.2479    3.1173    2.1905 C   0  0  0  0  0  0  0  0  0  0  0  0
   -0.7343    3.9524    3.0042 C   0  0  0  0  0  0  0  0  0  0  0  0
    0.0574    0.7952    2.9710 N   0  0  0  0  0  0  0  0  0  0  0  0
   -2.0172   -0.9225    0.7189 C   0  0  0  0  0  0  0  0  0  0  0  0
   -2.1569   -2.2262    1.2388 C   0  0  0  0  0  0  0  0  0  0  0  0
   -1.3271   -2.6124    2.3446 C   0  0  0  0  0  0  0  0  0  0  0  0
   -0.8036   -3.8498    2.6419 N   0  0  0  0  0  0  0  0  0  0  0  0
   -0.8747   -5.0746    1.8331 C   0  0  0  0  0  0  0  0  0  0  0  0
    0.0363   -4.9889    0.6103 C   0  0  0  0  0  0  0  0  0  0  0  0
   -3.2771   -2.8337    0.6989 N   0  0  0  0  0  0  0  0  0  0  0  0
   -4.0826   -3.9194    1.2631 C   0  0  0  0  0  0  0  0  0  0  0  0
   -4.1583   -5.1172    0.3054 C   0  0  0  0  0  0  0  0  0  0  0  0
   -3.7155   -1.9279   -0.2148 C   0  0  0  0  0  0  0  0  0  0  0  0
   -2.9623   -0.8182   -0.2648 C   0  0  0  0  0  0  0  0  0  0  0  0
   -3.5282    0.1890   -0.9642 N   0  0  0  0  0  0  0  0  0  0  0  0
   -2.9725    1.4927   -1.3178 C   0  0  0  0  0  0  0  0  0  0  0  0
   -3.5876    2.5978   -0.4681 C   0  0  0  0  0  0  0  0  0  0  0  0
   -4.7164   -0.3417   -1.3602 C   0  0  0  0  0  0  0  0  0  0  0  0
   -4.8986   -1.6393   -0.8845 C   0  0  0  0  0  0  0  0  0  0  0  0
   -6.1041   -2.3179   -1.0847 C   0  0  0  0  0  0  0  0  0  0  0  0
   -7.0926   -1.6952   -1.8764 C   0  0  0  0  0  0  0  0  0  0  0  0
   -6.8941   -0.3913   -2.3935 C   0  0  0  0  0  0  0  0  0  0  0  0
   -5.7003    0.2968   -2.1098 C   0  0  0  0  0  0  0  0  0  0  0  0
   -7.8923    0.2683   -3.2595 C   0  0  0  0  0  0  0  0  0  0  0  0
   -8.4907   -0.4062   -4.3373 C   0  0  0  0  0  0  0  0  0  0  0  0
   -9.2331    0.2974   -5.2366 N   0  0  0  0  0  0  0  0  0  0  0  0
   -9.4220    1.6373   -5.1086 C   0  0  0  0  0  0  0  0  0  0  0  0
   -8.9044    2.2922   -3.9822 C   0  0  0  0  0  0  0  0  0  0  0  0
   -8.1330    1.5980   -3.1050 N   0  0  0  0  0  0  0  0  0  0  0  0
  -10.1901    2.3661   -6.1311 C   0  0  0  0  0  0  0  0  0  0  0  0
   -9.7581    3.4695   -6.7689 C   0  0  0  0  0  0  0  0  0  0  0  0
  -10.6931    4.3407   -7.8598 S   0  0  0  0  0  0  0  0  0  0  0  0
   -9.5016    5.4849   -8.2214 C   0  0  0  0  0  0  0  0  0  0  0  0
   -9.6880    6.5030   -9.0969 C   0  0  0  0  0  0  0  0  0  0  0  0
  -10.9570    6.6821   -9.7563 C   0  0  0  0  0  0  0  0  0  0  0  0
  -11.9674    6.8120  -10.3124 N   0  0  0  0  0  0  0  0  0  0  0  0
   -8.6695    7.4747   -9.4124 C   0  0  0  0  0  0  0  0  0  0  0  0
   -7.8611    8.2647   -9.6703 N   0  0  0  0  0  0  0  0  0  0  0  0
   -8.3656    5.2048   -7.5072 N   0  0  0  0  0  0  0  0  0  0  0  0
   -7.1311    5.9454   -7.5238 C   0  0  0  0  0  0  0  0  0  0  0  0
   -6.0577    5.4976   -8.3034 C   0  0  0  0  0  0  0  0  0  0  0  0
   -4.8366    6.1819   -8.2757 C   0  0  0  0  0  0  0  0  0  0  0  0
   -4.6804    7.3109   -7.4625 C   0  0  0  0  0  0  0  0  0  0  0  0
   -5.7519    7.7616   -6.6859 C   0  0  0  0  0  0  0  0  0  0  0  0
   -6.9732    7.0760   -6.7058 C   0  0  0  0  0  0  0  0  0  0  0  0
   -8.4996    4.0844   -6.7287 C   0  0  0  0  0  0  0  0  0  0  0  0
   -7.5336    3.6318   -6.0556 O   0  0  0  0  0  0  0  0  0  0  0  0
   10.3177   -3.4842    4.5509 H   0  0  0  0  0  0  0  0  0  0  0  0
   10.4594   -1.1473   -1.1333 H   0  0  0  0  0  0  0  0  0  0  0  0
   10.2083    0.7389   -2.7266 H   0  0  0  0  0  0  0  0  0  0  0  0
    9.7085    3.1089   -3.1544 H   0  0  0  0  0  0  0  0  0  0  0  0
    9.1645    3.8057    1.0483 H   0  0  0  0  0  0  0  0  0  0  0  0
    9.3794    1.9545    2.6179 H   0  0  0  0  0  0  0  0  0  0  0  0
    3.8554   -6.4519    3.2912 H   0  0  0  0  0  0  0  0  0  0  0  0
    1.4088   -6.2246    3.1043 H   0  0  0  0  0  0  0  0  0  0  0  0
    4.1681   -2.4378    4.8275 H   0  0  0  0  0  0  0  0  0  0  0  0
    1.1910    0.0407    5.0098 H   0  0  0  0  0  0  0  0  0  0  0  0
    2.6407   -0.7363    5.6518 H   0  0  0  0  0  0  0  0  0  0  0  0
    2.9802    1.0556    3.7745 H   0  0  0  0  0  0  0  0  0  0  0  0
    2.4148   -0.2152    2.6247 H   0  0  0  0  0  0  0  0  0  0  0  0
    3.8900   -0.4874    3.6088 H   0  0  0  0  0  0  0  0  0  0  0  0
    1.2467    3.1286    2.6802 H   0  0  0  0  0  0  0  0  0  0  0  0
    0.3513    3.5527    1.1695 H   0  0  0  0  0  0  0  0  0  0  0  0
   -0.8136    3.5508    4.0378 H   0  0  0  0  0  0  0  0  0  0  0  0
   -1.7350    3.9403    2.5161 H   0  0  0  0  0  0  0  0  0  0  0  0
   -0.3790    5.0098    3.0403 H   0  0  0  0  0  0  0  0  0  0  0  0
   -0.6236   -5.9590    2.4497 H   0  0  0  0  0  0  0  0  0  0  0  0
   -1.8892   -5.2730    1.5029 H   0  0  0  0  0  0  0  0  0  0  0  0
    1.0818   -4.7727    0.9156 H   0  0  0  0  0  0  0  0  0  0  0  0
   -0.3149   -4.1891   -0.0685 H   0  0  0  0  0  0  0  0  0  0  0  0
    0.0185   -5.9577    0.0655 H   0  0  0  0  0  0  0  0  0  0  0  0
   -5.1067   -3.5491    1.4793 H   0  0  0  0  0  0  0  0  0  0  0  0
   -3.6712   -4.2367    2.2428 H   0  0  0  0  0  0  0  0  0  0  0  0
   -4.9944   -5.0143   -0.4150 H   0  0  0  0  0  0  0  0  0  0  0  0
   -4.3237   -6.0522    0.8834 H   0  0  0  0  0  0  0  0  0  0  0  0
   -3.2260   -5.2194   -0.2883 H   0  0  0  0  0  0  0  0  0  0  0  0
   -1.8679    1.4841   -1.2090 H   0  0  0  0  0  0  0  0  0  0  0  0
   -3.1669    1.7023   -2.3898 H   0  0  0  0  0  0  0  0  0  0  0  0
   -3.0908    3.5608   -0.6964 H   0  0  0  0  0  0  0  0  0  0  0  0
   -4.6711    2.6970   -0.6891 H   0  0  0  0  0  0  0  0  0  0  0  0
   -3.4689    2.3744    0.6112 H   0  0  0  0  0  0  0  0  0  0  0  0
   -6.2941   -3.2924   -0.6665 H   0  0  0  0  0  0  0  0  0  0  0  0
   -8.0248   -2.2183   -2.0613 H   0  0  0  0  0  0  0  0  0  0  0  0
   -5.5382    1.2934   -2.4918 H   0  0  0  0  0  0  0  0  0  0  0  0
   -8.3156   -1.4617   -4.5018 H   0  0  0  0  0  0  0  0  0  0  0  0
   -9.0812    3.3466   -3.8200 H   0  0  0  0  0  0  0  0  0  0  0  0
  -11.1616    1.9616   -6.3977 H   0  0  0  0  0  0  0  0  0  0  0  0
   -6.1669    4.6149   -8.9228 H   0  0  0  0  0  0  0  0  0  0  0  0
   -4.0079    5.8266   -8.8712 H   0  0  0  0  0  0  0  0  0  0  0  0
   -3.7360    7.8404   -7.4447 H   0  0  0  0  0  0  0  0  0  0  0  0
   -5.6347    8.6348   -6.0566 H   0  0  0  0  0  0  0  0  0  0  0  0
   -7.7939    7.4134   -6.0832 H   0  0  0  0  0  0  0  0  0  0  0  0
  1  2  2  3
  2  3  1  0
  3  4  2  0
  3  5  1  0
  5  6  2  0
  6  7  1  0
  7  8  2  0
  8  9  1  0
  9 10  2  0
 10 11  1  0
 10 12  1  0
 12 13  2  0
 13 14  1  0
 14 15  2  0
 15 16  1  0
 16 17  2  3
 17 18  1  0
 18 19  3  0
 17 20  1  0
 20 21  3  0
  1 22  1  0
 22 23  2  0
 23 24  1  0
 23 25  1  0
 25 26  1  0
 25 27  2  0
 27 28  1  0
 28 29  1  0
 28 30  2  0
 30 31  1  0
 27 32  1  0
 32 33  2  0
 33 34  1  0
 34 35  2  0
 35 36  1  0
 36 37  2  0
 37 38  1  0
 38 39  1  0
 39 40  2  0
 38 41  1  0
 41 42  1  0
 37 43  1  0
 43 44  1  0
 44 45  1  0
 45 46  2  0
 46 47  1  0
 47 48  1  0
 48 49  1  0
 47 50  1  0
 45 51  1  0
 51 52  2  0
 52 53  1  0
 53 54  1  0
 54 55  1  0
 55 56  1  0
 52 57  1  0
 57 58  1  0
 58 59  1  0
 57 60  1  0
 60 61  2  0
 61 62  1  0
 62 63  1  0
 63 64  1  0
 62 65  1  0
 65 66  2  0
 66 67  1  0
 67 68  2  0
 68 69  1  0
 69 70  2  0
 69 71  1  0
 71 72  2  0
 72 73  1  0
 73 74  2  0
 74 75  1  0
 75 76  2  0
 74 77  1  0
 77 78  2  3
 78 79  1  0
 79 80  1  0
 80 81  2  3
 81 82  1  0
 82 83  3  0
 81 84  1  0
 84 85  3  0
 80 86  1  0
 86 87  1  0
 87 88  2  0
 88 89  1  0
 89 90  2  0
 90 91  1  0
 91 92  2  0
 86 93  1  0
 93 94  2  0
 16  2  1  0
 30 22  1  0
 40 32  1  0
 53 43  2  0
 66 60  1  0
 76 71  1  0
 93 78  1  0
 15  5  1  0
 39 35  1  0
 50 44  2  0
 61 51  1  0
 70 65  1  0
 92 87  1  0
 13  7  1  0
 54 36  1  0
  1 95  1  0
  6 96  1  0
  8 97  1  0
  9 98  1  0
 12 99  1  0
 14100  1  0
 33101  1  0
 34102  1  0
 40103  1  0
 41104  1  0
 41105  1  0
 42106  1  0
 42107  1  0
 42108  1  0
 48109  1  0
 48110  1  0
 49111  1  0
 49112  1  0
 49113  1  0
 55114  1  0
 55115  1  0
 56116  1  0
 56117  1  0
 56118  1  0
 58119  1  0
 58120  1  0
 59121  1  0
 59122  1  0
 59123  1  0
 63124  1  0
 63125  1  0
 64126  1  0
 64127  1  0
 64128  1  0
 67129  1  0
 68130  1  0
 70131  1  0
 72132  1  0
 75133  1  0
 77134  1  0
 88135  1  0
 89136  1  0
 90137  1  0
 91138  1  0
 92139  1  0
M  END

