
     RDKit          3D

163181  0  0  0  0  0  0  0  0999 V2000
    1.0659   -2.7366   -7.1986 C   0  0  0  0  0  0  0  0  0  0  0  0
    0.4042   -3.4823   -6.2863 C   0  0  0  0  0  0  0  0  0  0  0  0
   -0.2341   -2.9880   -5.0466 C   0  0  0  0  0  0  0  0  0  0  0  0
   -0.4299   -1.7896   -4.7189 O   0  0  0  0  0  0  0  0  0  0  0  0
   -0.6847   -4.1235   -4.2786 C   0  0  0  0  0  0  0  0  0  0  0  0
   -1.2406   -4.1241   -3.0026 C   0  0  0  0  0  0  0  0  0  0  0  0
   -1.5091   -5.3580   -2.3894 C   0  0  0  0  0  0  0  0  0  0  0  0
   -2.0694   -5.4077   -1.1030 C   0  0  0  0  0  0  0  0  0  0  0  0
   -2.2879   -6.6394   -0.4815 C   0  0  0  0  0  0  0  0  0  0  0  0
   -1.9532   -7.8311   -1.1336 C   0  0  0  0  0  0  0  0  0  0  0  0
   -2.1538   -9.0205   -0.5144 F   0  0  0  0  0  0  0  0  0  0  0  0
   -1.4082   -7.7980   -2.4236 C   0  0  0  0  0  0  0  0  0  0  0  0
   -1.1914   -6.5726   -3.0675 C   0  0  0  0  0  0  0  0  0  0  0  0
   -0.6327   -6.5322   -4.3597 C   0  0  0  0  0  0  0  0  0  0  0  0
   -0.4195   -5.2873   -4.9745 C   0  0  0  0  0  0  0  0  0  0  0  0
    0.1575   -4.9634   -6.3096 C   0  0  0  0  0  0  0  0  0  0  0  0
    0.0537   -5.7584   -7.4114 C   0  0  0  0  0  0  0  0  0  0  0  0
    0.4879   -5.3434   -8.7153 C   0  0  0  0  0  0  0  0  0  0  0  0
    0.8382   -5.0397   -9.7778 N   0  0  0  0  0  0  0  0  0  0  0  0
   -0.6566   -7.0140   -7.3779 C   0  0  0  0  0  0  0  0  0  0  0  0
   -1.2498   -8.0103   -7.3526 N   0  0  0  0  0  0  0  0  0  0  0  0
    1.0262   -1.2623   -7.1890 C   0  0  0  0  0  0  0  0  0  0  0  0
    0.2827   -0.5975   -8.1748 C   0  0  0  0  0  0  0  0  0  0  0  0
   -0.2231   -1.2836   -9.2349 F   0  0  0  0  0  0  0  0  0  0  0  0
   -0.0383    0.7515   -8.0183 C   0  0  0  0  0  0  0  0  0  0  0  0
   -0.8025    1.3612   -8.9600 F   0  0  0  0  0  0  0  0  0  0  0  0
    0.3309    1.4319   -6.8452 C   0  0  0  0  0  0  0  0  0  0  0  0
    1.2298    0.8119   -5.9530 C   0  0  0  0  0  0  0  0  0  0  0  0
    1.6404    1.4407   -4.8254 F   0  0  0  0  0  0  0  0  0  0  0  0
    1.6028   -0.5230   -6.1472 C   0  0  0  0  0  0  0  0  0  0  0  0
    2.4048   -1.1312   -5.2337 F   0  0  0  0  0  0  0  0  0  0  0  0
   -0.3655    2.6835   -6.4589 C   0  0  0  0  0  0  0  0  0  0  0  0
   -1.7713    2.8714   -6.4420 C   0  0  0  0  0  0  0  0  0  0  0  0
   -2.7781    1.8795   -6.8735 C   0  0  0  0  0  0  0  0  0  0  0  0
   -3.7740    2.2562   -7.7904 C   0  0  0  0  0  0  0  0  0  0  0  0
   -4.6813    1.3150   -8.2736 C   0  0  0  0  0  0  0  0  0  0  0  0
   -4.6159   -0.0133   -7.8414 C   0  0  0  0  0  0  0  0  0  0  0  0
   -3.6289   -0.4094   -6.9226 C   0  0  0  0  0  0  0  0  0  0  0  0
   -3.5417   -1.8460   -6.4804 C   0  0  0  0  0  0  0  0  0  0  0  0
   -4.2794   -2.0622   -5.1608 C   0  0  0  0  0  0  0  0  0  0  0  0
   -2.7321    0.5484   -6.4177 C   0  0  0  0  0  0  0  0  0  0  0  0
   -2.1139    4.0597   -5.7914 C   0  0  0  0  0  0  0  0  0  0  0  0
   -3.5454    4.4761   -4.9791 S   0  0  0  0  0  0  0  0  0  0  0  0
   -2.7421    5.6435   -4.0446 C   0  0  0  0  0  0  0  0  0  0  0  0
   -2.8859    6.0156   -2.7378 C   0  0  0  0  0  0  0  0  0  0  0  0
   -4.0158    5.9292   -1.9244 C   0  0  0  0  0  0  0  0  0  0  0  0
   -3.8695    6.1231   -0.5273 C   0  0  0  0  0  0  0  0  0  0  0  0
   -4.9871    5.9842    0.2330 N   0  0  0  0  0  0  0  0  0  0  0  0
   -6.0941    5.6414   -0.9506 S   0  0  0  0  0  0  0  0  0  0  0  0
   -5.2601    5.6348   -2.3805 N   0  0  0  0  0  0  0  0  0  0  0  0
   -2.5920    6.3645   -0.0098 C   0  0  0  0  0  0  0  0  0  0  0  0
   -2.1733    6.2208    1.2829 C   0  0  0  0  0  0  0  0  0  0  0  0
   -2.8148    5.3203    2.5691 S   0  0  0  0  0  0  0  0  0  0  0  0
   -1.2747    4.9482    3.1737 C   0  0  0  0  0  0  0  0  0  0  0  0
   -0.8462    3.9385    4.0462 C   0  0  0  0  0  0  0  0  0  0  0  0
   -1.7834    3.0101    4.7156 C   0  0  0  0  0  0  0  0  0  0  0  0
   -1.6913    1.6264    4.4926 C   0  0  0  0  0  0  0  0  0  0  0  0
   -2.5914    0.7547    5.1046 C   0  0  0  0  0  0  0  0  0  0  0  0
   -3.5996    1.2559    5.9343 C   0  0  0  0  0  0  0  0  0  0  0  0
   -3.7174    2.6369    6.1522 C   0  0  0  0  0  0  0  0  0  0  0  0
   -4.8025    3.1781    7.0476 C   0  0  0  0  0  0  0  0  0  0  0  0
   -4.2553    3.4929    8.4346 C   0  0  0  0  0  0  0  0  0  0  0  0
   -2.8027    3.5097    5.5406 C   0  0  0  0  0  0  0  0  0  0  0  0
    0.5520    3.7433    3.9393 C   0  0  0  0  0  0  0  0  0  0  0  0
    1.1693    4.7730    2.7293 S   0  0  0  0  0  0  0  0  0  0  0  0
   -0.2989    5.4852    2.3668 C   0  0  0  0  0  0  0  0  0  0  0  0
   -0.8103    6.1671    1.2540 C   0  0  0  0  0  0  0  0  0  0  0  0
   -0.3189    6.2875   -0.0108 N   0  0  0  0  0  0  0  0  0  0  0  0
   -1.4304    6.4205   -0.8180 C   0  0  0  0  0  0  0  0  0  0  0  0
   -1.5944    6.2919   -2.2451 C   0  0  0  0  0  0  0  0  0  0  0  0
   -0.6813    6.1372   -3.2669 N   0  0  0  0  0  0  0  0  0  0  0  0
   -1.4146    5.6932   -4.3161 C   0  0  0  0  0  0  0  0  0  0  0  0
   -1.0535    4.7890   -5.3100 C   0  0  0  0  0  0  0  0  0  0  0  0
    0.3756    3.9760   -5.6298 S   0  0  0  0  0  0  0  0  0  0  0  0
    0.6180    6.7847   -3.4942 C   0  0  0  0  0  0  0  0  0  0  0  0
    0.5749    8.2732   -3.1363 C   0  0  0  0  0  0  0  0  0  0  0  0
    1.0776    6.0258   -0.3539 C   0  0  0  0  0  0  0  0  0  0  0  0
    1.2606    4.5908   -0.8576 C   0  0  0  0  0  0  0  0  0  0  0  0
    1.3523    2.6618    4.5699 C   0  0  0  0  0  0  0  0  0  0  0  0
    2.2358    1.9044    3.7789 C   0  0  0  0  0  0  0  0  0  0  0  0
    2.3909    2.1676    2.4555 F   0  0  0  0  0  0  0  0  0  0  0  0
    2.9412    0.8332    4.3261 C   0  0  0  0  0  0  0  0  0  0  0  0
    3.8152    0.1558    3.5355 F   0  0  0  0  0  0  0  0  0  0  0  0
    2.7268    0.4397    5.6584 C   0  0  0  0  0  0  0  0  0  0  0  0
    1.8958    1.2224    6.4785 C   0  0  0  0  0  0  0  0  0  0  0  0
    1.7159    0.9072    7.7907 N   0  0  0  0  0  0  0  0  0  0  0  0
    0.9276    1.6627    8.6063 C   0  0  0  0  0  0  0  0  0  0  0  0
    0.7518    1.3233    9.9534 O   0  0  0  0  0  0  0  0  0  0  0  0
    1.2892    0.1415   10.5449 C   0  0  0  0  0  0  0  0  0  0  0  0
    0.4784   -1.0844   10.1281 C   0  0  0  0  0  0  0  0  0  0  0  0
    0.2958    2.7982    8.0807 C   0  0  0  0  0  0  0  0  0  0  0  0
    0.4561    3.1032    6.7656 N   0  0  0  0  0  0  0  0  0  0  0  0
    1.2211    2.3423    5.9386 C   0  0  0  0  0  0  0  0  0  0  0  0
   -0.5467    3.6839    8.9441 C   0  0  0  0  0  0  0  0  0  0  0  0
    3.4245   -0.7564    6.1845 C   0  0  0  0  0  0  0  0  0  0  0  0
    3.3326   -1.9673    5.5984 C   0  0  0  0  0  0  0  0  0  0  0  0
    2.4581   -2.2876    4.4648 C   0  0  0  0  0  0  0  0  0  0  0  0
    1.3883   -1.6938    4.1562 O   0  0  0  0  0  0  0  0  0  0  0  0
    3.0204   -3.4098    3.7541 C   0  0  0  0  0  0  0  0  0  0  0  0
    2.6403   -3.9013    2.5082 C   0  0  0  0  0  0  0  0  0  0  0  0
    3.4244   -4.9018    1.9130 C   0  0  0  0  0  0  0  0  0  0  0  0
    3.0975   -5.4041    0.6445 C   0  0  0  0  0  0  0  0  0  0  0  0
    3.8987   -6.3791    0.0447 C   0  0  0  0  0  0  0  0  0  0  0  0
    5.0365   -6.8575    0.7034 C   0  0  0  0  0  0  0  0  0  0  0  0
    5.8118   -7.8011    0.1115 F   0  0  0  0  0  0  0  0  0  0  0  0
    5.3804   -6.3645    1.9655 C   0  0  0  0  0  0  0  0  0  0  0  0
    4.5864   -5.3860    2.5853 C   0  0  0  0  0  0  0  0  0  0  0  0
    4.9435   -4.8626    3.8462 C   0  0  0  0  0  0  0  0  0  0  0  0
    4.1347   -3.8763    4.4338 C   0  0  0  0  0  0  0  0  0  0  0  0
    4.3169   -3.0914    5.6902 C   0  0  0  0  0  0  0  0  0  0  0  0
    5.0825   -3.4217    6.7620 C   0  0  0  0  0  0  0  0  0  0  0  0
    5.9295   -4.5835    6.7784 C   0  0  0  0  0  0  0  0  0  0  0  0
    6.6176   -5.5156    6.8048 N   0  0  0  0  0  0  0  0  0  0  0  0
    5.0024   -2.7045    8.0087 C   0  0  0  0  0  0  0  0  0  0  0  0
    4.9421   -2.1389    9.0181 N   0  0  0  0  0  0  0  0  0  0  0  0
    1.5486   -3.1943   -8.0459 H   0  0  0  0  0  0  0  0  0  0  0  0
   -1.4302   -3.1848   -2.4915 H   0  0  0  0  0  0  0  0  0  0  0  0
   -2.3275   -4.4947   -0.5774 H   0  0  0  0  0  0  0  0  0  0  0  0
   -2.7097   -6.6689    0.5165 H   0  0  0  0  0  0  0  0  0  0  0  0
   -1.1671   -8.7301   -2.9214 H   0  0  0  0  0  0  0  0  0  0  0  0
   -0.3229   -7.4504   -4.8376 H   0  0  0  0  0  0  0  0  0  0  0  0
   -3.8247    3.2744   -8.1521 H   0  0  0  0  0  0  0  0  0  0  0  0
   -5.4402    1.6108   -8.9897 H   0  0  0  0  0  0  0  0  0  0  0  0
   -5.3287   -0.7339   -8.2220 H   0  0  0  0  0  0  0  0  0  0  0  0
   -3.9760   -2.5227   -7.2548 H   0  0  0  0  0  0  0  0  0  0  0  0
   -2.4760   -2.1405   -6.3570 H   0  0  0  0  0  0  0  0  0  0  0  0
   -5.3681   -1.8847   -5.3022 H   0  0  0  0  0  0  0  0  0  0  0  0
   -3.8945   -1.3700   -4.3795 H   0  0  0  0  0  0  0  0  0  0  0  0
   -4.1251   -3.1076   -4.8172 H   0  0  0  0  0  0  0  0  0  0  0  0
   -1.9824    0.2508   -5.6927 H   0  0  0  0  0  0  0  0  0  0  0  0
   -0.9378    1.2246    3.8275 H   0  0  0  0  0  0  0  0  0  0  0  0
   -2.5173   -0.3092    4.9254 H   0  0  0  0  0  0  0  0  0  0  0  0
   -4.2972    0.5653    6.3939 H   0  0  0  0  0  0  0  0  0  0  0  0
   -5.2263    4.1011    6.6000 H   0  0  0  0  0  0  0  0  0  0  0  0
   -5.6301    2.4416    7.1385 H   0  0  0  0  0  0  0  0  0  0  0  0
   -5.0732    3.8904    9.0721 H   0  0  0  0  0  0  0  0  0  0  0  0
   -3.8435    2.5725    8.9036 H   0  0  0  0  0  0  0  0  0  0  0  0
   -3.4605    4.2666    8.3623 H   0  0  0  0  0  0  0  0  0  0  0  0
   -2.8805    4.5785    5.7146 H   0  0  0  0  0  0  0  0  0  0  0  0
    0.8770    6.7328   -4.5760 H   0  0  0  0  0  0  0  0  0  0  0  0
    1.4428    6.2285   -3.0216 H   0  0  0  0  0  0  0  0  0  0  0  0
    1.5778    8.7216   -3.2966 H   0  0  0  0  0  0  0  0  0  0  0  0
   -0.1599    8.7967   -3.7836 H   0  0  0  0  0  0  0  0  0  0  0  0
    0.2799    8.4255   -2.0795 H   0  0  0  0  0  0  0  0  0  0  0  0
    1.7234    6.1765    0.5314 H   0  0  0  0  0  0  0  0  0  0  0  0
    1.4625    6.7966   -1.0302 H   0  0  0  0  0  0  0  0  0  0  0  0
    0.6646    4.4058   -1.7704 H   0  0  0  0  0  0  0  0  0  0  0  0
    2.3331    4.4167   -1.0800 H   0  0  0  0  0  0  0  0  0  0  0  0
    0.9329    3.8718   -0.0801 H   0  0  0  0  0  0  0  0  0  0  0  0
    1.2260    0.2438   11.6478 H   0  0  0  0  0  0  0  0  0  0  0  0
    2.3570    0.0154   10.2659 H   0  0  0  0  0  0  0  0  0  0  0  0
   -0.5823   -0.9482   10.4204 H   0  0  0  0  0  0  0  0  0  0  0  0
    0.8718   -1.9887   10.6363 H   0  0  0  0  0  0  0  0  0  0  0  0
    0.5427   -1.2373    9.0296 H   0  0  0  0  0  0  0  0  0  0  0  0
   -1.3584    3.0852    9.4136 H   0  0  0  0  0  0  0  0  0  0  0  0
    0.0825    4.1393    9.7331 H   0  0  0  0  0  0  0  0  0  0  0  0
   -1.0013    4.4952    8.3376 H   0  0  0  0  0  0  0  0  0  0  0  0
    4.1421   -0.5704    6.9672 H   0  0  0  0  0  0  0  0  0  0  0  0
    1.7774   -3.4860    1.9960 H   0  0  0  0  0  0  0  0  0  0  0  0
    2.2217   -5.0389    0.1140 H   0  0  0  0  0  0  0  0  0  0  0  0
    3.6411   -6.7580   -0.9348 H   0  0  0  0  0  0  0  0  0  0  0  0
    6.2735   -6.7411    2.4579 H   0  0  0  0  0  0  0  0  0  0  0  0
    5.8573   -5.1929    4.3118 H   0  0  0  0  0  0  0  0  0  0  0  0
  1  2  2  3
  2  3  1  0
  3  4  2  0
  3  5  1  0
  5  6  2  0
  6  7  1  0
  7  8  2  0
  8  9  1  0
  9 10  2  0
 10 11  1  0
 10 12  1  0
 12 13  2  0
 13 14  1  0
 14 15  2  0
 15 16  1  0
 16 17  2  3
 17 18  1  0
 18 19  3  0
 17 20  1  0
 20 21  3  0
  1 22  1  0
 22 23  2  0
 23 24  1  0
 23 25  1  0
 25 26  1  0
 25 27  2  0
 27 28  1  0
 28 29  1  0
 28 30  2  0
 30 31  1  0
 27 32  1  0
 32 33  2  0
 33 34  1  0
 34 35  2  0
 35 36  1  0
 36 37  2  0
 37 38  1  0
 38 39  1  0
 39 40  1  0
 38 41  2  0
 33 42  1  0
 42 43  1  0
 43 44  1  0
 44 45  1  0
 45 46  1  0
 46 47  1  0
 47 48  2  0
 48 49  1  0
 49 50  1  0
 47 51  1  0
 51 52  1  0
 52 53  1  0
 53 54  1  0
 54 55  1  0
 55 56  1  0
 56 57  2  0
 57 58  1  0
 58 59  2  0
 59 60  1  0
 60 61  1  0
 61 62  1  0
 60 63  2  0
 55 64  2  0
 64 65  1  0
 65 66  1  0
 66 67  1  0
 67 68  1  0
 68 69  1  0
 69 70  1  0
 70 71  1  0
 71 72  1  0
 72 73  1  0
 73 74  1  0
 71 75  1  0
 75 76  1  0
 68 77  1  0
 77 78  1  0
 64 79  1  0
 79 80  2  0
 80 81  1  0
 80 82  1  0
 82 83  1  0
 82 84  2  0
 84 85  1  0
 85 86  2  0
 86 87  1  0
 87 88  1  0
 88 89  1  0
 89 90  1  0
 87 91  2  0
 91 92  1  0
 92 93  2  0
 91 94  1  0
 84 95  1  0
 95 96  2  3
 96 97  1  0
 97 98  2  0
 97 99  1  0
 99100  2  0
100101  1  0
101102  2  0
102103  1  0
103104  2  0
104105  1  0
104106  1  0
106107  2  0
107108  1  0
108109  2  0
109110  1  0
110111  2  3
111112  1  0
112113  3  0
111114  1  0
114115  3  0
 16  2  1  0
 30 22  1  0
 74 32  1  0
 93 79  1  0
110 96  1  0
 15  5  1  0
 41 34  1  0
 73 42  2  0
 93 85  1  0
109 99  1  0
 13  7  1  0
 72 44  2  0
107101  1  0
 70 45  2  0
 50 46  2  0
 69 51  2  0
 67 52  2  0
 66 54  2  0
 63 56  1  0
  1116  1  0
  6117  1  0
  8118  1  0
  9119  1  0
 12120  1  0
 14121  1  0
 35122  1  0
 36123  1  0
 37124  1  0
 39125  1  0
 39126  1  0
 40127  1  0
 40128  1  0
 40129  1  0
 41130  1  0
 57131  1  0
 58132  1  0
 59133  1  0
 61134  1  0
 61135  1  0
 62136  1  0
 62137  1  0
 62138  1  0
 63139  1  0
 75140  1  0
 75141  1  0
 76142  1  0
 76143  1  0
 76144  1  0
 77145  1  0
 77146  1  0
 78147  1  0
 78148  1  0
 78149  1  0
 89150  1  0
 89151  1  0
 90152  1  0
 90153  1  0
 90154  1  0
 94155  1  0
 94156  1  0
 94157  1  0
 95158  1  0
100159  1  0
102160  1  0
103161  1  0
106162  1  0
108163  1  0
M  END

