
     RDKit          3D

146162  0  0  0  0  0  0  0  0999 V2000
   -1.1431    3.9681   -8.2000 C   0  0  0  0  0  0  0  0  0  0  0  0
   -2.2998    3.3490   -7.8642 C   0  0  0  0  0  0  0  0  0  0  0  0
   -2.9926    3.5058   -6.5747 C   0  0  0  0  0  0  0  0  0  0  0  0
   -2.6261    4.2223   -5.6016 O   0  0  0  0  0  0  0  0  0  0  0  0
   -4.2600    2.8238   -6.6467 C   0  0  0  0  0  0  0  0  0  0  0  0
   -5.2266    2.7400   -5.6447 C   0  0  0  0  0  0  0  0  0  0  0  0
   -6.4178    2.0554   -5.9193 C   0  0  0  0  0  0  0  0  0  0  0  0
   -7.4150    1.9470   -4.9395 C   0  0  0  0  0  0  0  0  0  0  0  0
   -8.6076    1.2746   -5.2212 C   0  0  0  0  0  0  0  0  0  0  0  0
   -8.8114    0.6998   -6.4802 C   0  0  0  0  0  0  0  0  0  0  0  0
   -9.9660    0.0391   -6.7442 F   0  0  0  0  0  0  0  0  0  0  0  0
   -7.8270    0.8068   -7.4698 C   0  0  0  0  0  0  0  0  0  0  0  0
   -6.6279    1.4869   -7.2045 C   0  0  0  0  0  0  0  0  0  0  0  0
   -5.6346    1.6019   -8.2007 C   0  0  0  0  0  0  0  0  0  0  0  0
   -4.4328    2.2737   -7.9032 C   0  0  0  0  0  0  0  0  0  0  0  0
   -3.2109    2.5310   -8.7347 C   0  0  0  0  0  0  0  0  0  0  0  0
   -2.9370    2.0319   -9.9706 C   0  0  0  0  0  0  0  0  0  0  0  0
   -1.6414    2.1426  -10.5926 C   0  0  0  0  0  0  0  0  0  0  0  0
   -0.6066    2.2265  -11.1086 N   0  0  0  0  0  0  0  0  0  0  0  0
   -3.8814    1.2508  -10.7287 C   0  0  0  0  0  0  0  0  0  0  0  0
   -4.6235    0.6247  -11.3612 N   0  0  0  0  0  0  0  0  0  0  0  0
   -0.3025    4.6778   -7.2169 C   0  0  0  0  0  0  0  0  0  0  0  0
    0.1494    4.0077   -6.0668 C   0  0  0  0  0  0  0  0  0  0  0  0
   -0.0091    2.6666   -5.9494 F   0  0  0  0  0  0  0  0  0  0  0  0
    0.6669    4.7325   -4.9928 C   0  0  0  0  0  0  0  0  0  0  0  0
    0.9551    4.0723   -3.8400 F   0  0  0  0  0  0  0  0  0  0  0  0
    0.7812    6.1327   -5.0769 C   0  0  0  0  0  0  0  0  0  0  0  0
    0.5295    6.7657   -6.3076 C   0  0  0  0  0  0  0  0  0  0  0  0
    0.7493    8.0981   -6.4487 F   0  0  0  0  0  0  0  0  0  0  0  0
   -0.0185    6.0458   -7.3731 C   0  0  0  0  0  0  0  0  0  0  0  0
   -0.3812    6.6963   -8.5081 F   0  0  0  0  0  0  0  0  0  0  0  0
    1.0176    6.9187   -3.8525 C   0  0  0  0  0  0  0  0  0  0  0  0
    0.0716    7.7828   -3.2484 C   0  0  0  0  0  0  0  0  0  0  0  0
   -1.2387    8.2174   -3.8681 C   0  0  0  0  0  0  0  0  0  0  0  0
   -2.4654    7.6102   -3.1747 C   0  0  0  0  0  0  0  0  0  0  0  0
    0.4157    8.0504   -1.9153 C   0  0  0  0  0  0  0  0  0  0  0  0
   -0.5399    8.5829   -0.6127 S   0  0  0  0  0  0  0  0  0  0  0  0
    0.5394    7.9591    0.5343 C   0  0  0  0  0  0  0  0  0  0  0  0
    0.3102    7.3449    1.7356 C   0  0  0  0  0  0  0  0  0  0  0  0
   -0.8997    7.2364    2.4393 C   0  0  0  0  0  0  0  0  0  0  0  0
   -1.0663    6.1683    3.3706 C   0  0  0  0  0  0  0  0  0  0  0  0
   -2.2765    6.0449    3.9677 N   0  0  0  0  0  0  0  0  0  0  0  0
   -3.0725    7.3113    3.2570 S   0  0  0  0  0  0  0  0  0  0  0  0
   -1.9873    8.0245    2.2262 N   0  0  0  0  0  0  0  0  0  0  0  0
    0.0233    5.3281    3.6201 C   0  0  0  0  0  0  0  0  0  0  0  0
    0.1522    4.2112    4.4063 C   0  0  0  0  0  0  0  0  0  0  0  0
   -0.9134    2.9500    4.7912 S   0  0  0  0  0  0  0  0  0  0  0  0
    0.3624    1.8228    4.8271 C   0  0  0  0  0  0  0  0  0  0  0  0
    0.3688    0.4323    4.7186 C   0  0  0  0  0  0  0  0  0  0  0  0
   -0.7920   -0.3338    4.8876 O   0  0  0  0  0  0  0  0  0  0  0  0
   -1.2059   -1.3673    4.0008 C   0  0  0  0  0  0  0  0  0  0  0  0
   -1.8063   -0.7773    2.7308 C   0  0  0  0  0  0  0  0  0  0  0  0
    1.6463   -0.0467    4.3504 C   0  0  0  0  0  0  0  0  0  0  0  0
    2.6970    1.2730    4.0880 S   0  0  0  0  0  0  0  0  0  0  0  0
    1.5545    2.4230    4.5081 C   0  0  0  0  0  0  0  0  0  0  0  0
    1.4356    3.7756    4.2545 C   0  0  0  0  0  0  0  0  0  0  0  0
    2.1542    4.5493    3.4044 N   0  0  0  0  0  0  0  0  0  0  0  0
    1.2465    5.4772    2.9606 C   0  0  0  0  0  0  0  0  0  0  0  0
    1.3382    6.4059    1.8939 C   0  0  0  0  0  0  0  0  0  0  0  0
    2.0894    6.3230    0.7471 N   0  0  0  0  0  0  0  0  0  0  0  0
    1.5960    7.3120   -0.0513 C   0  0  0  0  0  0  0  0  0  0  0  0
    1.5334    7.3925   -1.4510 C   0  0  0  0  0  0  0  0  0  0  0  0
    2.1861    6.4890   -2.7018 S   0  0  0  0  0  0  0  0  0  0  0  0
    2.7716    5.1245    0.2315 C   0  0  0  0  0  0  0  0  0  0  0  0
    4.2428    5.4208   -0.0551 C   0  0  0  0  0  0  0  0  0  0  0  0
    3.6312    4.6053    3.4200 C   0  0  0  0  0  0  0  0  0  0  0  0
    4.1409    6.0138    3.7080 C   0  0  0  0  0  0  0  0  0  0  0  0
    2.0689   -1.4579    4.2046 C   0  0  0  0  0  0  0  0  0  0  0  0
    2.7671   -1.8501    3.0510 C   0  0  0  0  0  0  0  0  0  0  0  0
    2.9887   -0.9597    2.0472 F   0  0  0  0  0  0  0  0  0  0  0  0
    3.2040   -3.1677    2.8988 C   0  0  0  0  0  0  0  0  0  0  0  0
    3.9233   -3.4848    1.7903 F   0  0  0  0  0  0  0  0  0  0  0  0
    2.9537   -4.1316    3.8984 C   0  0  0  0  0  0  0  0  0  0  0  0
    2.3025   -3.7288    5.0820 C   0  0  0  0  0  0  0  0  0  0  0  0
    2.1316   -4.5964    6.1164 N   0  0  0  0  0  0  0  0  0  0  0  0
    1.5062   -4.2417    7.2734 C   0  0  0  0  0  0  0  0  0  0  0  0
    1.4367   -5.2672    8.3749 C   0  0  0  0  0  0  0  0  0  0  0  0
    0.6253   -6.4840    7.9517 C   0  0  0  0  0  0  0  0  0  0  0  0
    1.0175   -2.9159    7.3995 C   0  0  0  0  0  0  0  0  0  0  0  0
    1.2190   -2.0467    6.3768 N   0  0  0  0  0  0  0  0  0  0  0  0
    1.8503   -2.4040    5.2281 C   0  0  0  0  0  0  0  0  0  0  0  0
    0.2828   -2.4138    8.6142 C   0  0  0  0  0  0  0  0  0  0  0  0
   -1.1540   -2.9325    8.6566 C   0  0  0  0  0  0  0  0  0  0  0  0
    3.4999   -5.5052    3.7597 C   0  0  0  0  0  0  0  0  0  0  0  0
    3.4040   -6.2376    2.6308 C   0  0  0  0  0  0  0  0  0  0  0  0
    2.4209   -6.0140    1.5646 C   0  0  0  0  0  0  0  0  0  0  0  0
    1.5007   -5.1480    1.5596 O   0  0  0  0  0  0  0  0  0  0  0  0
    2.5723   -7.0510    0.5692 C   0  0  0  0  0  0  0  0  0  0  0  0
    1.8270   -7.2262   -0.5976 C   0  0  0  0  0  0  0  0  0  0  0  0
    2.1089   -8.3311   -1.4166 C   0  0  0  0  0  0  0  0  0  0  0  0
    1.3773   -8.5476   -2.5913 C   0  0  0  0  0  0  0  0  0  0  0  0
    1.6466   -9.6629   -3.3890 C   0  0  0  0  0  0  0  0  0  0  0  0
    2.6822  -10.5440   -3.0481 C   0  0  0  0  0  0  0  0  0  0  0  0
    2.9438  -11.6118   -3.8359 F   0  0  0  0  0  0  0  0  0  0  0  0
    3.4165  -10.3407   -1.8752 C   0  0  0  0  0  0  0  0  0  0  0  0
    3.1437   -9.2361   -1.0504 C   0  0  0  0  0  0  0  0  0  0  0  0
    3.8804   -9.0319    0.1326 C   0  0  0  0  0  0  0  0  0  0  0  0
    3.5692   -7.9281    0.9565 C   0  0  0  0  0  0  0  0  0  0  0  0
    4.1756   -7.4688    2.2478 C   0  0  0  0  0  0  0  0  0  0  0  0
    5.2968   -7.9477    2.8424 C   0  0  0  0  0  0  0  0  0  0  0  0
    6.0354   -9.0823    2.3379 C   0  0  0  0  0  0  0  0  0  0  0  0
    6.6450   -9.9906    1.9479 N   0  0  0  0  0  0  0  0  0  0  0  0
    5.9086   -7.3262    3.9883 C   0  0  0  0  0  0  0  0  0  0  0  0
    6.4057   -6.8491    4.9187 N   0  0  0  0  0  0  0  0  0  0  0  0
   -0.8179    4.0216   -9.2257 H   0  0  0  0  0  0  0  0  0  0  0  0
   -5.0421    3.1793   -4.6739 H   0  0  0  0  0  0  0  0  0  0  0  0
   -7.2717    2.3752   -3.9564 H   0  0  0  0  0  0  0  0  0  0  0  0
   -9.3690    1.1835   -4.4591 H   0  0  0  0  0  0  0  0  0  0  0  0
   -8.0026    0.3521   -8.4392 H   0  0  0  0  0  0  0  0  0  0  0  0
   -5.8241    1.1766   -9.1687 H   0  0  0  0  0  0  0  0  0  0  0  0
   -1.2962    7.9183   -4.9355 H   0  0  0  0  0  0  0  0  0  0  0  0
   -1.3059    9.3302   -3.8460 H   0  0  0  0  0  0  0  0  0  0  0  0
   -2.7304    8.2144   -2.2745 H   0  0  0  0  0  0  0  0  0  0  0  0
   -2.2792    6.5506   -2.8731 H   0  0  0  0  0  0  0  0  0  0  0  0
   -3.3310    7.6288   -3.8663 H   0  0  0  0  0  0  0  0  0  0  0  0
   -1.9913   -1.9747    4.5092 H   0  0  0  0  0  0  0  0  0  0  0  0
   -0.3824   -2.0568    3.7299 H   0  0  0  0  0  0  0  0  0  0  0  0
   -1.0411   -0.1669    2.1910 H   0  0  0  0  0  0  0  0  0  0  0  0
   -2.6756   -0.1295    2.9820 H   0  0  0  0  0  0  0  0  0  0  0  0
   -2.1297   -1.5975    2.0649 H   0  0  0  0  0  0  0  0  0  0  0  0
    2.6596    4.2688    0.9182 H   0  0  0  0  0  0  0  0  0  0  0  0
    2.2626    4.7573   -0.6791 H   0  0  0  0  0  0  0  0  0  0  0  0
    4.7477    5.7892    0.8606 H   0  0  0  0  0  0  0  0  0  0  0  0
    4.7402    4.5024   -0.4104 H   0  0  0  0  0  0  0  0  0  0  0  0
    4.3311    6.2047   -0.8286 H   0  0  0  0  0  0  0  0  0  0  0  0
    4.0127    3.9575    4.2326 H   0  0  0  0  0  0  0  0  0  0  0  0
    4.0688    4.2045    2.4922 H   0  0  0  0  0  0  0  0  0  0  0  0
    3.7970    6.7426    2.9429 H   0  0  0  0  0  0  0  0  0  0  0  0
    5.2540    6.0165    3.7024 H   0  0  0  0  0  0  0  0  0  0  0  0
    3.7876    6.3547    4.7053 H   0  0  0  0  0  0  0  0  0  0  0  0
    0.9985   -4.8648    9.3043 H   0  0  0  0  0  0  0  0  0  0  0  0
    2.4680   -5.5921    8.6250 H   0  0  0  0  0  0  0  0  0  0  0  0
    1.1199   -7.0040    7.1032 H   0  0  0  0  0  0  0  0  0  0  0  0
   -0.4037   -6.1790    7.6655 H   0  0  0  0  0  0  0  0  0  0  0  0
    0.5463   -7.1927    8.8051 H   0  0  0  0  0  0  0  0  0  0  0  0
    0.2401   -1.3070    8.5882 H   0  0  0  0  0  0  0  0  0  0  0  0
    0.8213   -2.6761    9.5427 H   0  0  0  0  0  0  0  0  0  0  0  0
   -1.7447   -2.4886    7.8281 H   0  0  0  0  0  0  0  0  0  0  0  0
   -1.1755   -4.0348    8.5538 H   0  0  0  0  0  0  0  0  0  0  0  0
   -1.6149   -2.6657    9.6209 H   0  0  0  0  0  0  0  0  0  0  0  0
    4.0000   -5.9005    4.6249 H   0  0  0  0  0  0  0  0  0  0  0  0
    1.0579   -6.5097   -0.8689 H   0  0  0  0  0  0  0  0  0  0  0  0
    0.5852   -7.8627   -2.8806 H   0  0  0  0  0  0  0  0  0  0  0  0
    1.0600   -9.8405   -4.2855 H   0  0  0  0  0  0  0  0  0  0  0  0
    4.2014  -11.0427   -1.6143 H   0  0  0  0  0  0  0  0  0  0  0  0
    4.6271   -9.7561    0.4016 H   0  0  0  0  0  0  0  0  0  0  0  0
  1  2  2  3
  2  3  1  0
  3  4  2  0
  3  5  1  0
  5  6  2  0
  6  7  1  0
  7  8  2  0
  8  9  1  0
  9 10  2  0
 10 11  1  0
 10 12  1  0
 12 13  2  0
 13 14  1  0
 14 15  2  0
 15 16  1  0
 16 17  2  3
 17 18  1  0
 18 19  3  0
 17 20  1  0
 20 21  3  0
  1 22  1  0
 22 23  2  0
 23 24  1  0
 23 25  1  0
 25 26  1  0
 25 27  2  0
 27 28  1  0
 28 29  1  0
 28 30  2  0
 30 31  1  0
 27 32  1  0
 32 33  2  0
 33 34  1  0
 34 35  1  0
 33 36  1  0
 36 37  1  0
 37 38  1  0
 38 39  1  0
 39 40  1  0
 40 41  1  0
 41 42  2  0
 42 43  1  0
 43 44  1  0
 41 45  1  0
 45 46  1  0
 46 47  1  0
 47 48  1  0
 48 49  1  0
 49 50  1  0
 50 51  1  0
 51 52  1  0
 49 53  2  0
 53 54  1  0
 54 55  1  0
 55 56  1  0
 56 57  1  0
 57 58  1  0
 58 59  1  0
 59 60  1  0
 60 61  1  0
 61 62  1  0
 62 63  1  0
 60 64  1  0
 64 65  1  0
 57 66  1  0
 66 67  1  0
 53 68  1  0
 68 69  2  0
 69 70  1  0
 69 71  1  0
 71 72  1  0
 71 73  2  0
 73 74  1  0
 74 75  2  0
 75 76  1  0
 76 77  1  0
 77 78  1  0
 76 79  2  0
 79 80  1  0
 80 81  2  0
 79 82  1  0
 82 83  1  0
 73 84  1  0
 84 85  2  3
 85 86  1  0
 86 87  2  0
 86 88  1  0
 88 89  2  0
 89 90  1  0
 90 91  2  0
 91 92  1  0
 92 93  2  0
 93 94  1  0
 93 95  1  0
 95 96  2  0
 96 97  1  0
 97 98  2  0
 98 99  1  0
 99100  2  3
100101  1  0
101102  3  0
100103  1  0
103104  3  0
 16  2  1  0
 30 22  1  0
 63 32  1  0
 81 68  1  0
 99 85  1  0
 15  5  1  0
 62 36  2  0
 81 74  1  0
 98 88  1  0
 13  7  1  0
 61 38  2  0
 96 90  1  0
 59 39  2  0
 44 40  2  0
 58 45  2  0
 56 46  2  0
 55 48  2  0
  1105  1  0
  6106  1  0
  8107  1  0
  9108  1  0
 12109  1  0
 14110  1  0
 34111  1  0
 34112  1  0
 35113  1  0
 35114  1  0
 35115  1  0
 51116  1  0
 51117  1  0
 52118  1  0
 52119  1  0
 52120  1  0
 64121  1  0
 64122  1  0
 65123  1  0
 65124  1  0
 65125  1  0
 66126  1  0
 66127  1  0
 67128  1  0
 67129  1  0
 67130  1  0
 77131  1  0
 77132  1  0
 78133  1  0
 78134  1  0
 78135  1  0
 82136  1  0
 82137  1  0
 83138  1  0
 83139  1  0
 83140  1  0
 84141  1  0
 89142  1  0
 91143  1  0
 92144  1  0
 95145  1  0
 97146  1  0
M  END

