
     RDKit          3D

149164  0  0  0  0  0  0  0  0999 V2000
   -0.2831    7.3975    1.7462 C   0  0  0  0  0  0  0  0  0  0  0  0
   -1.2347    6.5688    2.2288 C   0  0  0  0  0  0  0  0  0  0  0  0
   -1.3202    5.1211    1.9724 C   0  0  0  0  0  0  0  0  0  0  0  0
   -0.4691    4.4072    1.3787 O   0  0  0  0  0  0  0  0  0  0  0  0
   -2.6219    4.6559    2.3939 C   0  0  0  0  0  0  0  0  0  0  0  0
   -3.1464    3.3695    2.2724 C   0  0  0  0  0  0  0  0  0  0  0  0
   -4.4742    3.1437    2.6684 C   0  0  0  0  0  0  0  0  0  0  0  0
   -5.0365    1.8618    2.5757 C   0  0  0  0  0  0  0  0  0  0  0  0
   -6.3637    1.6486    2.9571 C   0  0  0  0  0  0  0  0  0  0  0  0
   -7.1415    2.7117    3.4250 C   0  0  0  0  0  0  0  0  0  0  0  0
   -8.4300    2.4966    3.7877 F   0  0  0  0  0  0  0  0  0  0  0  0
   -6.5964    3.9964    3.5203 C   0  0  0  0  0  0  0  0  0  0  0  0
   -5.2616    4.2266    3.1514 C   0  0  0  0  0  0  0  0  0  0  0  0
   -4.7033    5.5184    3.2507 C   0  0  0  0  0  0  0  0  0  0  0  0
   -3.3575    5.7145    2.8950 C   0  0  0  0  0  0  0  0  0  0  0  0
   -2.5148    6.9484    2.9086 C   0  0  0  0  0  0  0  0  0  0  0  0
   -2.7573    8.0899    3.6074 C   0  0  0  0  0  0  0  0  0  0  0  0
   -3.9566    8.2898    4.3768 C   0  0  0  0  0  0  0  0  0  0  0  0
   -4.9120    8.4663    5.0058 N   0  0  0  0  0  0  0  0  0  0  0  0
   -1.7746    9.1327    3.7506 C   0  0  0  0  0  0  0  0  0  0  0  0
   -0.9910    9.9756    3.8752 N   0  0  0  0  0  0  0  0  0  0  0  0
    0.9669    6.9238    1.1185 C   0  0  0  0  0  0  0  0  0  0  0  0
    1.3323    7.3700   -0.1578 C   0  0  0  0  0  0  0  0  0  0  0  0
    0.5776    8.2955   -0.8038 F   0  0  0  0  0  0  0  0  0  0  0  0
    2.4414    6.8147   -0.8074 C   0  0  0  0  0  0  0  0  0  0  0  0
    3.1978    5.7875   -0.2014 C   0  0  0  0  0  0  0  0  0  0  0  0
    2.9024    5.4659    1.1417 C   0  0  0  0  0  0  0  0  0  0  0  0
    1.8081    6.0327    1.7942 C   0  0  0  0  0  0  0  0  0  0  0  0
    4.1952    4.9475   -0.9477 C   0  0  0  0  0  0  0  0  0  0  0  0
    4.5301    4.9457   -2.3307 C   0  0  0  0  0  0  0  0  0  0  0  0
    4.0471    5.8810   -3.3532 C   0  0  0  0  0  0  0  0  0  0  0  0
    4.8089    7.0094   -3.6836 C   0  0  0  0  0  0  0  0  0  0  0  0
    4.3621    7.8913   -4.6708 C   0  0  0  0  0  0  0  0  0  0  0  0
    3.1543    7.6512   -5.3320 C   0  0  0  0  0  0  0  0  0  0  0  0
    2.3785    6.5271   -5.0031 C   0  0  0  0  0  0  0  0  0  0  0  0
    1.0874    6.2540   -5.7260 C   0  0  0  0  0  0  0  0  0  0  0  0
    1.3077    5.2786   -6.8767 C   0  0  0  0  0  0  0  0  0  0  0  0
    2.8413    5.6318   -4.0247 C   0  0  0  0  0  0  0  0  0  0  0  0
    5.2672    3.8088   -2.6879 C   0  0  0  0  0  0  0  0  0  0  0  0
    5.5334    3.0770   -4.1966 S   0  0  0  0  0  0  0  0  0  0  0  0
    6.0405    1.6227   -3.4767 C   0  0  0  0  0  0  0  0  0  0  0  0
    5.8714    0.3138   -3.8442 C   0  0  0  0  0  0  0  0  0  0  0  0
    5.3884   -0.1986   -5.0597 C   0  0  0  0  0  0  0  0  0  0  0  0
    4.8355   -1.5137   -5.0856 C   0  0  0  0  0  0  0  0  0  0  0  0
    4.3018   -1.9380   -6.2574 N   0  0  0  0  0  0  0  0  0  0  0  0
    4.5684   -0.5932   -7.1863 S   0  0  0  0  0  0  0  0  0  0  0  0
    5.3157    0.5161   -6.2103 N   0  0  0  0  0  0  0  0  0  0  0  0
    4.8648   -2.2764   -3.9165 C   0  0  0  0  0  0  0  0  0  0  0  0
    4.2936   -3.4856   -3.6100 C   0  0  0  0  0  0  0  0  0  0  0  0
    2.8392   -4.2004   -4.1127 S   0  0  0  0  0  0  0  0  0  0  0  0
    2.5438   -4.8370   -2.5608 C   0  0  0  0  0  0  0  0  0  0  0  0
    1.3667   -5.2753   -1.9416 C   0  0  0  0  0  0  0  0  0  0  0  0
    0.0967   -5.5693   -2.6401 C   0  0  0  0  0  0  0  0  0  0  0  0
   -0.5916   -6.7593   -2.3554 C   0  0  0  0  0  0  0  0  0  0  0  0
   -1.8012   -7.0449   -2.9919 C   0  0  0  0  0  0  0  0  0  0  0  0
   -2.3368   -6.1447   -3.9152 C   0  0  0  0  0  0  0  0  0  0  0  0
   -1.6644   -4.9476   -4.2082 C   0  0  0  0  0  0  0  0  0  0  0  0
   -2.2700   -3.9551   -5.1643 C   0  0  0  0  0  0  0  0  0  0  0  0
   -3.2351   -3.0251   -4.4370 C   0  0  0  0  0  0  0  0  0  0  0  0
   -0.4547   -4.6575   -3.5558 C   0  0  0  0  0  0  0  0  0  0  0  0
    1.4978   -5.2576   -0.5408 C   0  0  0  0  0  0  0  0  0  0  0  0
    3.0248   -4.6422   -0.1130 S   0  0  0  0  0  0  0  0  0  0  0  0
    3.5496   -4.4838   -1.6938 C   0  0  0  0  0  0  0  0  0  0  0  0
    4.5312   -3.7000   -2.2811 C   0  0  0  0  0  0  0  0  0  0  0  0
    5.2521   -2.7014   -1.7193 N   0  0  0  0  0  0  0  0  0  0  0  0
    5.3928   -1.7833   -2.7184 C   0  0  0  0  0  0  0  0  0  0  0  0
    5.7875   -0.4186   -2.6464 C   0  0  0  0  0  0  0  0  0  0  0  0
    5.7644    0.4339   -1.5677 N   0  0  0  0  0  0  0  0  0  0  0  0
    5.9505    1.6681   -2.1134 C   0  0  0  0  0  0  0  0  0  0  0  0
    5.5283    2.9276   -1.6747 C   0  0  0  0  0  0  0  0  0  0  0  0
    4.8495    3.5225   -0.2724 S   0  0  0  0  0  0  0  0  0  0  0  0
    5.0958    0.2190   -0.2719 C   0  0  0  0  0  0  0  0  0  0  0  0
    6.0440    0.4952    0.8965 C   0  0  0  0  0  0  0  0  0  0  0  0
    6.0912   -2.8475   -0.5217 C   0  0  0  0  0  0  0  0  0  0  0  0
    6.9431   -4.1134   -0.5873 C   0  0  0  0  0  0  0  0  0  0  0  0
    0.3719   -5.2147    0.3914 C   0  0  0  0  0  0  0  0  0  0  0  0
    0.1187   -6.1180    1.4126 C   0  0  0  0  0  0  0  0  0  0  0  0
   -0.9044   -5.6943    2.2740 C   0  0  0  0  0  0  0  0  0  0  0  0
   -1.3832   -6.6283    3.7345 S   0  0  0  0  0  0  0  0  0  0  0  0
   -0.2517   -5.7529    4.8725 C   0  0  0  0  0  0  0  0  0  0  0  0
    1.1535   -6.3380    4.8010 C   0  0  0  0  0  0  0  0  0  0  0  0
   -1.4564   -4.4619    1.9144 C   0  0  0  0  0  0  0  0  0  0  0  0
   -0.6383   -3.8839    0.5695 S   0  0  0  0  0  0  0  0  0  0  0  0
   -2.3919   -3.6469    2.7045 C   0  0  0  0  0  0  0  0  0  0  0  0
   -3.6555   -4.0093    3.0183 C   0  0  0  0  0  0  0  0  0  0  0  0
   -4.2721   -5.2542    2.4972 C   0  0  0  0  0  0  0  0  0  0  0  0
   -3.8864   -5.7537    1.4053 O   0  0  0  0  0  0  0  0  0  0  0  0
   -5.3535   -5.8591    3.2244 N   0  0  0  0  0  0  0  0  0  0  0  0
   -5.9304   -7.1359    2.7804 C   0  0  0  0  0  0  0  0  0  0  0  0
   -7.0766   -6.8885    1.8068 C   0  0  0  0  0  0  0  0  0  0  0  0
   -5.9329   -5.1392    4.3263 C   0  0  0  0  0  0  0  0  0  0  0  0
   -6.8224   -5.6836    5.0378 O   0  0  0  0  0  0  0  0  0  0  0  0
   -5.5211   -3.7446    4.6122 C   0  0  0  0  0  0  0  0  0  0  0  0
   -4.4825   -3.1759    3.9497 C   0  0  0  0  0  0  0  0  0  0  0  0
   -4.1210   -1.7195    4.1824 C   0  0  0  0  0  0  0  0  0  0  0  0
   -6.2669   -3.0137    5.6157 C   0  0  0  0  0  0  0  0  0  0  0  0
   -6.8633   -2.4296    6.4176 N   0  0  0  0  0  0  0  0  0  0  0  0
   -0.4525    8.4611    1.7249 H   0  0  0  0  0  0  0  0  0  0  0  0
   -2.5367    2.5682    1.8717 H   0  0  0  0  0  0  0  0  0  0  0  0
   -4.4519    1.0277    2.2077 H   0  0  0  0  0  0  0  0  0  0  0  0
   -6.7906    0.6564    2.8865 H   0  0  0  0  0  0  0  0  0  0  0  0
   -7.2150    4.8080    3.8856 H   0  0  0  0  0  0  0  0  0  0  0  0
   -5.3293    6.3360    3.5678 H   0  0  0  0  0  0  0  0  0  0  0  0
    2.6599    7.1842   -1.7911 H   0  0  0  0  0  0  0  0  0  0  0  0
    3.4811    4.7324    1.6853 H   0  0  0  0  0  0  0  0  0  0  0  0
    1.5805    5.7274    2.8086 H   0  0  0  0  0  0  0  0  0  0  0  0
    5.7470    7.2036   -3.1773 H   0  0  0  0  0  0  0  0  0  0  0  0
    4.9548    8.7599   -4.9272 H   0  0  0  0  0  0  0  0  0  0  0  0
    2.8246    8.3406   -6.0989 H   0  0  0  0  0  0  0  0  0  0  0  0
    0.3427    5.8262   -5.0190 H   0  0  0  0  0  0  0  0  0  0  0  0
    0.6585    7.1997   -6.1243 H   0  0  0  0  0  0  0  0  0  0  0  0
    1.6934    4.3098   -6.4924 H   0  0  0  0  0  0  0  0  0  0  0  0
    2.0338    5.6999   -7.6044 H   0  0  0  0  0  0  0  0  0  0  0  0
    0.3450    5.0956   -7.3986 H   0  0  0  0  0  0  0  0  0  0  0  0
    2.2602    4.7506   -3.7780 H   0  0  0  0  0  0  0  0  0  0  0  0
   -0.1872   -7.4691   -1.6452 H   0  0  0  0  0  0  0  0  0  0  0  0
   -2.3251   -7.9653   -2.7681 H   0  0  0  0  0  0  0  0  0  0  0  0
   -3.2799   -6.3756   -4.3967 H   0  0  0  0  0  0  0  0  0  0  0  0
   -1.4716   -3.3503   -5.6463 H   0  0  0  0  0  0  0  0  0  0  0  0
   -2.8129   -4.4903   -5.9729 H   0  0  0  0  0  0  0  0  0  0  0  0
   -4.0522   -3.6105   -3.9644 H   0  0  0  0  0  0  0  0  0  0  0  0
   -2.6976   -2.4479   -3.6555 H   0  0  0  0  0  0  0  0  0  0  0  0
   -3.6829   -2.3144   -5.1624 H   0  0  0  0  0  0  0  0  0  0  0  0
    0.0412   -3.7132   -3.7453 H   0  0  0  0  0  0  0  0  0  0  0  0
    4.6620   -0.7873   -0.1864 H   0  0  0  0  0  0  0  0  0  0  0  0
    4.2093    0.8803   -0.1987 H   0  0  0  0  0  0  0  0  0  0  0  0
    5.4672    0.5155    1.8442 H   0  0  0  0  0  0  0  0  0  0  0  0
    6.8204   -0.2884    0.9774 H   0  0  0  0  0  0  0  0  0  0  0  0
    6.5524    1.4718    0.7698 H   0  0  0  0  0  0  0  0  0  0  0  0
    5.4533   -2.8844    0.3873 H   0  0  0  0  0  0  0  0  0  0  0  0
    6.7901   -1.9937   -0.4501 H   0  0  0  0  0  0  0  0  0  0  0  0
    6.2975   -5.0163   -0.5538 H   0  0  0  0  0  0  0  0  0  0  0  0
    7.5424   -4.1224   -1.5229 H   0  0  0  0  0  0  0  0  0  0  0  0
    7.6338   -4.1421    0.2825 H   0  0  0  0  0  0  0  0  0  0  0  0
    0.6820   -7.0307    1.5561 H   0  0  0  0  0  0  0  0  0  0  0  0
   -0.2231   -4.6649    4.6454 H   0  0  0  0  0  0  0  0  0  0  0  0
   -0.6385   -5.8772    5.9057 H   0  0  0  0  0  0  0  0  0  0  0  0
    1.1235   -7.4337    4.9866 H   0  0  0  0  0  0  0  0  0  0  0  0
    1.7939   -5.8630    5.5738 H   0  0  0  0  0  0  0  0  0  0  0  0
    1.6046   -6.1457    3.8054 H   0  0  0  0  0  0  0  0  0  0  0  0
   -1.9832   -2.7137    3.0660 H   0  0  0  0  0  0  0  0  0  0  0  0
   -6.3022   -7.7176    3.6509 H   0  0  0  0  0  0  0  0  0  0  0  0
   -5.1548   -7.7636    2.2896 H   0  0  0  0  0  0  0  0  0  0  0  0
   -6.7050   -6.3668    0.8991 H   0  0  0  0  0  0  0  0  0  0  0  0
   -7.8637   -6.2748    2.2929 H   0  0  0  0  0  0  0  0  0  0  0  0
   -7.5238   -7.8587    1.5015 H   0  0  0  0  0  0  0  0  0  0  0  0
   -3.7174   -1.2639    3.2549 H   0  0  0  0  0  0  0  0  0  0  0  0
   -5.0054   -1.1077    4.4530 H   0  0  0  0  0  0  0  0  0  0  0  0
   -3.3659   -1.6455    4.9917 H   0  0  0  0  0  0  0  0  0  0  0  0
  1  2  2  3
  2  3  1  0
  3  4  2  0
  3  5  1  0
  5  6  2  0
  6  7  1  0
  7  8  2  0
  8  9  1  0
  9 10  2  0
 10 11  1  0
 10 12  1  0
 12 13  2  0
 13 14  1  0
 14 15  2  0
 15 16  1  0
 16 17  2  3
 17 18  1  0
 18 19  3  0
 17 20  1  0
 20 21  3  0
  1 22  1  0
 22 23  2  0
 23 24  1  0
 23 25  1  0
 25 26  2  0
 26 27  1  0
 27 28  2  0
 26 29  1  0
 29 30  2  0
 30 31  1  0
 31 32  2  0
 32 33  1  0
 33 34  2  0
 34 35  1  0
 35 36  1  0
 36 37  1  0
 35 38  2  0
 30 39  1  0
 39 40  1  0
 40 41  1  0
 41 42  1  0
 42 43  1  0
 43 44  1  0
 44 45  2  0
 45 46  1  0
 46 47  1  0
 44 48  1  0
 48 49  1  0
 49 50  1  0
 50 51  1  0
 51 52  1  0
 52 53  1  0
 53 54  2  0
 54 55  1  0
 55 56  2  0
 56 57  1  0
 57 58  1  0
 58 59  1  0
 57 60  2  0
 52 61  2  0
 61 62  1  0
 62 63  1  0
 63 64  1  0
 64 65  1  0
 65 66  1  0
 66 67  1  0
 67 68  1  0
 68 69  1  0
 69 70  1  0
 70 71  1  0
 68 72  1  0
 72 73  1  0
 65 74  1  0
 74 75  1  0
 61 76  1  0
 76 77  2  0
 77 78  1  0
 78 79  1  0
 79 80  1  0
 80 81  1  0
 78 82  2  0
 82 83  1  0
 82 84  1  0
 84 85  2  3
 85 86  1  0
 86 87  2  0
 86 88  1  0
 88 89  1  0
 89 90  1  0
 88 91  1  0
 91 92  2  0
 91 93  1  0
 93 94  2  0
 94 95  1  0
 93 96  1  0
 96 97  3  0
 16  2  1  0
 28 22  1  0
 71 29  1  0
 83 76  1  0
 94 85  1  0
 15  5  1  0
 38 31  1  0
 70 39  2  0
 13  7  1  0
 69 41  2  0
 67 42  2  0
 47 43  2  0
 66 48  2  0
 64 49  2  0
 63 51  2  0
 60 53  1  0
  1 98  1  0
  6 99  1  0
  8100  1  0
  9101  1  0
 12102  1  0
 14103  1  0
 25104  1  0
 27105  1  0
 28106  1  0
 32107  1  0
 33108  1  0
 34109  1  0
 36110  1  0
 36111  1  0
 37112  1  0
 37113  1  0
 37114  1  0
 38115  1  0
 54116  1  0
 55117  1  0
 56118  1  0
 58119  1  0
 58120  1  0
 59121  1  0
 59122  1  0
 59123  1  0
 60124  1  0
 72125  1  0
 72126  1  0
 73127  1  0
 73128  1  0
 73129  1  0
 74130  1  0
 74131  1  0
 75132  1  0
 75133  1  0
 75134  1  0
 77135  1  0
 80136  1  0
 80137  1  0
 81138  1  0
 81139  1  0
 81140  1  0
 84141  1  0
 89142  1  0
 89143  1  0
 90144  1  0
 90145  1  0
 90146  1  0
 95147  1  0
 95148  1  0
 95149  1  0
M  END

