
     RDKit          3D

155171  0  0  0  0  0  0  0  0999 V2000
   -3.2628   -6.3051    5.5521 C   0  0  0  0  0  0  0  0  0  0  0  0
   -2.2343   -5.5473    5.9870 C   0  0  0  0  0  0  0  0  0  0  0  0
   -0.9247   -5.4251    5.3287 C   0  0  0  0  0  0  0  0  0  0  0  0
   -0.4017   -6.2484    4.5314 O   0  0  0  0  0  0  0  0  0  0  0  0
   -0.3040   -4.1994    5.7702 C   0  0  0  0  0  0  0  0  0  0  0  0
    0.8440   -3.5959    5.2611 C   0  0  0  0  0  0  0  0  0  0  0  0
    1.2016   -2.3235    5.7373 C   0  0  0  0  0  0  0  0  0  0  0  0
    2.3321   -1.6656    5.2305 C   0  0  0  0  0  0  0  0  0  0  0  0
    2.6772   -0.3945    5.7003 C   0  0  0  0  0  0  0  0  0  0  0  0
    1.8939    0.2287    6.6760 C   0  0  0  0  0  0  0  0  0  0  0  0
    2.2268    1.4686    7.1165 F   0  0  0  0  0  0  0  0  0  0  0  0
    0.7509   -0.4055    7.1777 C   0  0  0  0  0  0  0  0  0  0  0  0
    0.3933   -1.6822    6.7177 C   0  0  0  0  0  0  0  0  0  0  0  0
   -0.7668   -2.3196    7.2056 C   0  0  0  0  0  0  0  0  0  0  0  0
   -1.0934   -3.6007    6.7337 C   0  0  0  0  0  0  0  0  0  0  0  0
   -2.2756   -4.4651    7.0205 C   0  0  0  0  0  0  0  0  0  0  0  0
   -3.0392   -4.4484    8.1396 C   0  0  0  0  0  0  0  0  0  0  0  0
   -4.0063   -5.4770    8.4243 C   0  0  0  0  0  0  0  0  0  0  0  0
   -4.7840   -6.3001    8.6663 N   0  0  0  0  0  0  0  0  0  0  0  0
   -2.8158   -3.5016    9.2024 C   0  0  0  0  0  0  0  0  0  0  0  0
   -2.6389   -2.7602   10.0716 N   0  0  0  0  0  0  0  0  0  0  0  0
   -3.1394   -7.1650    4.3665 C   0  0  0  0  0  0  0  0  0  0  0  0
   -2.5333   -8.4130    4.3710 C   0  0  0  0  0  0  0  0  0  0  0  0
   -2.0419   -8.7982    3.1161 C   0  0  0  0  0  0  0  0  0  0  0  0
   -1.0539  -10.2816    2.8994 S   0  0  0  0  0  0  0  0  0  0  0  0
   -2.4871  -11.4170    2.8775 C   0  0  0  0  0  0  0  0  0  0  0  0
   -3.1672  -11.4173    1.5157 C   0  0  0  0  0  0  0  0  0  0  0  0
   -2.2555   -7.8602    2.1048 C   0  0  0  0  0  0  0  0  0  0  0  0
   -3.0583   -6.5569    2.8055 S   0  0  0  0  0  0  0  0  0  0  0  0
   -1.3031   -7.6236    1.0148 C   0  0  0  0  0  0  0  0  0  0  0  0
   -1.5625   -7.7051   -0.3674 C   0  0  0  0  0  0  0  0  0  0  0  0
   -2.8277   -8.1751   -0.9433 C   0  0  0  0  0  0  0  0  0  0  0  0
   -2.9757   -9.5144   -1.3234 C   0  0  0  0  0  0  0  0  0  0  0  0
   -4.1969   -9.9697   -1.8273 C   0  0  0  0  0  0  0  0  0  0  0  0
   -5.2636   -9.0807   -1.9876 C   0  0  0  0  0  0  0  0  0  0  0  0
   -5.1125   -7.7257   -1.6499 C   0  0  0  0  0  0  0  0  0  0  0  0
   -6.2529   -6.7592   -1.8354 C   0  0  0  0  0  0  0  0  0  0  0  0
   -7.0228   -6.5693   -0.5317 C   0  0  0  0  0  0  0  0  0  0  0  0
   -3.8958   -7.2820   -1.1092 C   0  0  0  0  0  0  0  0  0  0  0  0
   -0.5828   -7.0312   -1.1071 C   0  0  0  0  0  0  0  0  0  0  0  0
   -0.5019   -6.5340   -2.7406 S   0  0  0  0  0  0  0  0  0  0  0  0
    0.7939   -5.4971   -2.3847 C   0  0  0  0  0  0  0  0  0  0  0  0
    1.4859   -4.4749   -2.9682 C   0  0  0  0  0  0  0  0  0  0  0  0
    1.6268   -4.0672   -4.2973 C   0  0  0  0  0  0  0  0  0  0  0  0
    2.4769   -2.9552   -4.5851 C   0  0  0  0  0  0  0  0  0  0  0  0
    2.5786   -2.5861   -5.8861 N   0  0  0  0  0  0  0  0  0  0  0  0
    1.5994   -3.7290   -6.5808 S   0  0  0  0  0  0  0  0  0  0  0  0
    1.0222   -4.6724   -5.3488 N   0  0  0  0  0  0  0  0  0  0  0  0
    3.0747   -2.2623   -3.5198 C   0  0  0  0  0  0  0  0  0  0  0  0
    3.5586   -0.9799   -3.4789 C   0  0  0  0  0  0  0  0  0  0  0  0
    3.6089    0.3147   -4.5785 S   0  0  0  0  0  0  0  0  0  0  0  0
    3.5111    1.4536   -3.3196 C   0  0  0  0  0  0  0  0  0  0  0  0
    3.3083    2.8385   -3.3022 C   0  0  0  0  0  0  0  0  0  0  0  0
    3.5359    3.7165   -4.4682 C   0  0  0  0  0  0  0  0  0  0  0  0
    2.8606    3.5016   -5.6808 C   0  0  0  0  0  0  0  0  0  0  0  0
    3.0702    4.3651   -6.7628 C   0  0  0  0  0  0  0  0  0  0  0  0
    3.9429    5.4482   -6.6406 C   0  0  0  0  0  0  0  0  0  0  0  0
    4.6272    5.6735   -5.4328 C   0  0  0  0  0  0  0  0  0  0  0  0
    5.5815    6.8312   -5.3017 C   0  0  0  0  0  0  0  0  0  0  0  0
    7.0095    6.3870   -5.6014 C   0  0  0  0  0  0  0  0  0  0  0  0
    4.4303    4.7936   -4.3591 C   0  0  0  0  0  0  0  0  0  0  0  0
    2.9492    3.2847   -2.0102 C   0  0  0  0  0  0  0  0  0  0  0  0
    2.9464    1.9541   -0.9432 S   0  0  0  0  0  0  0  0  0  0  0  0
    3.3914    0.8320   -2.1052 C   0  0  0  0  0  0  0  0  0  0  0  0
    3.4434   -0.5582   -2.1886 C   0  0  0  0  0  0  0  0  0  0  0  0
    2.9837   -1.5314   -1.3587 N   0  0  0  0  0  0  0  0  0  0  0  0
    2.8304   -2.6196   -2.1812 C   0  0  0  0  0  0  0  0  0  0  0  0
    2.1416   -3.8262   -1.9159 C   0  0  0  0  0  0  0  0  0  0  0  0
    1.9768   -4.4963   -0.7311 N   0  0  0  0  0  0  0  0  0  0  0  0
    1.1322   -5.5034   -1.0731 C   0  0  0  0  0  0  0  0  0  0  0  0
    0.3800   -6.4125   -0.3464 C   0  0  0  0  0  0  0  0  0  0  0  0
    0.0858   -6.6814    1.2729 S   0  0  0  0  0  0  0  0  0  0  0  0
    2.9853   -4.5884    0.3351 C   0  0  0  0  0  0  0  0  0  0  0  0
    2.3818   -4.4177    1.7340 C   0  0  0  0  0  0  0  0  0  0  0  0
    2.2568   -1.2631   -0.1120 C   0  0  0  0  0  0  0  0  0  0  0  0
    0.7931   -0.9291   -0.3951 C   0  0  0  0  0  0  0  0  0  0  0  0
    2.3707    4.6015   -1.6566 C   0  0  0  0  0  0  0  0  0  0  0  0
    1.9878    4.9982   -0.3754 C   0  0  0  0  0  0  0  0  0  0  0  0
    1.2644    6.1988   -0.3563 C   0  0  0  0  0  0  0  0  0  0  0  0
    0.5658    6.8870    1.1470 S   0  0  0  0  0  0  0  0  0  0  0  0
   -1.0152    5.9950    0.9610 C   0  0  0  0  0  0  0  0  0  0  0  0
   -1.9670    6.3795    2.0813 C   0  0  0  0  0  0  0  0  0  0  0  0
    1.0969    6.7699   -1.6131 C   0  0  0  0  0  0  0  0  0  0  0  0
    1.7855    5.7509   -2.7487 S   0  0  0  0  0  0  0  0  0  0  0  0
    0.2359    7.9105   -1.9395 C   0  0  0  0  0  0  0  0  0  0  0  0
    0.7075    9.1509   -2.1408 C   0  0  0  0  0  0  0  0  0  0  0  0
    2.0808    9.5950   -1.8726 C   0  0  0  0  0  0  0  0  0  0  0  0
    3.0871    8.8576   -1.6941 O   0  0  0  0  0  0  0  0  0  0  0  0
    2.0766   11.0415   -1.7895 C   0  0  0  0  0  0  0  0  0  0  0  0
    3.1235   11.8844   -1.4204 C   0  0  0  0  0  0  0  0  0  0  0  0
    2.8686   13.2557   -1.3027 C   0  0  0  0  0  0  0  0  0  0  0  0
    1.5642   13.7652   -1.5239 C   0  0  0  0  0  0  0  0  0  0  0  0
    1.2595   15.1285   -1.3832 O   0  0  0  0  0  0  0  0  0  0  0  0
    2.1988   16.1223   -0.9873 C   0  0  0  0  0  0  0  0  0  0  0  0
    0.5255   12.8857   -1.8817 C   0  0  0  0  0  0  0  0  0  0  0  0
    0.8020   11.5195   -2.0404 C   0  0  0  0  0  0  0  0  0  0  0  0
   -0.0990   10.3851   -2.3858 C   0  0  0  0  0  0  0  0  0  0  0  0
   -1.2892   10.4594   -3.0368 C   0  0  0  0  0  0  0  0  0  0  0  0
   -1.9244   11.7110   -3.3567 C   0  0  0  0  0  0  0  0  0  0  0  0
   -2.4492   12.7095   -3.6294 N   0  0  0  0  0  0  0  0  0  0  0  0
   -1.9480    9.2948   -3.5701 C   0  0  0  0  0  0  0  0  0  0  0  0
   -2.4857    8.3662   -4.0038 N   0  0  0  0  0  0  0  0  0  0  0  0
   -4.2451   -6.2046    5.9836 H   0  0  0  0  0  0  0  0  0  0  0  0
    1.4308   -4.0952    4.4969 H   0  0  0  0  0  0  0  0  0  0  0  0
    2.9443   -2.1302    4.4683 H   0  0  0  0  0  0  0  0  0  0  0  0
    3.5527    0.1069    5.3076 H   0  0  0  0  0  0  0  0  0  0  0  0
    0.1416    0.1071    7.9143 H   0  0  0  0  0  0  0  0  0  0  0  0
   -1.4086   -1.7965    7.8992 H   0  0  0  0  0  0  0  0  0  0  0  0
   -2.3357   -8.9682    5.2783 H   0  0  0  0  0  0  0  0  0  0  0  0
   -2.1199  -12.4415    3.0957 H   0  0  0  0  0  0  0  0  0  0  0  0
   -3.2204  -11.1443    3.6668 H   0  0  0  0  0  0  0  0  0  0  0  0
   -3.5666  -10.4079    1.2897 H   0  0  0  0  0  0  0  0  0  0  0  0
   -2.4462  -11.7207    0.7274 H   0  0  0  0  0  0  0  0  0  0  0  0
   -4.0141  -12.1346    1.5198 H   0  0  0  0  0  0  0  0  0  0  0  0
   -2.1511  -10.2071   -1.2138 H   0  0  0  0  0  0  0  0  0  0  0  0
   -4.3181  -11.0122   -2.0952 H   0  0  0  0  0  0  0  0  0  0  0  0
   -6.2057   -9.4470   -2.3794 H   0  0  0  0  0  0  0  0  0  0  0  0
   -6.9487   -7.1251   -2.6204 H   0  0  0  0  0  0  0  0  0  0  0  0
   -5.8580   -5.7768   -2.1757 H   0  0  0  0  0  0  0  0  0  0  0  0
   -6.3457   -6.2046    0.2712 H   0  0  0  0  0  0  0  0  0  0  0  0
   -7.8270   -5.8202   -0.6829 H   0  0  0  0  0  0  0  0  0  0  0  0
   -7.4841   -7.5302   -0.2144 H   0  0  0  0  0  0  0  0  0  0  0  0
   -3.7783   -6.2444   -0.8190 H   0  0  0  0  0  0  0  0  0  0  0  0
    2.1621    2.6824   -5.7833 H   0  0  0  0  0  0  0  0  0  0  0  0
    2.5400    4.2045   -7.6960 H   0  0  0  0  0  0  0  0  0  0  0  0
    4.0882    6.1132   -7.4838 H   0  0  0  0  0  0  0  0  0  0  0  0
    5.2964    7.6506   -5.9986 H   0  0  0  0  0  0  0  0  0  0  0  0
    5.5352    7.2409   -4.2698 H   0  0  0  0  0  0  0  0  0  0  0  0
    7.6926    7.2591   -5.5331 H   0  0  0  0  0  0  0  0  0  0  0  0
    7.3356    5.6214   -4.8648 H   0  0  0  0  0  0  0  0  0  0  0  0
    7.0759    5.9605   -6.6253 H   0  0  0  0  0  0  0  0  0  0  0  0
    4.9625    4.9586   -3.4297 H   0  0  0  0  0  0  0  0  0  0  0  0
    3.4927   -5.5763    0.2730 H   0  0  0  0  0  0  0  0  0  0  0  0
    3.7812   -3.8274    0.1820 H   0  0  0  0  0  0  0  0  0  0  0  0
    2.3826   -5.3884    2.2722 H   0  0  0  0  0  0  0  0  0  0  0  0
    1.3450   -4.0241    1.6841 H   0  0  0  0  0  0  0  0  0  0  0  0
    2.9980   -3.7084    2.3265 H   0  0  0  0  0  0  0  0  0  0  0  0
    2.2964   -2.1172    0.5669 H   0  0  0  0  0  0  0  0  0  0  0  0
    2.7336   -0.4283    0.4412 H   0  0  0  0  0  0  0  0  0  0  0  0
    0.2709   -0.7035    0.5607 H   0  0  0  0  0  0  0  0  0  0  0  0
    0.7217   -0.0455   -1.0607 H   0  0  0  0  0  0  0  0  0  0  0  0
    0.2901   -1.7887   -0.8823 H   0  0  0  0  0  0  0  0  0  0  0  0
    2.1752    4.4110    0.5142 H   0  0  0  0  0  0  0  0  0  0  0  0
   -0.8302    4.8997    0.9925 H   0  0  0  0  0  0  0  0  0  0  0  0
   -1.4814    6.2503   -0.0133 H   0  0  0  0  0  0  0  0  0  0  0  0
   -2.9391    5.8607    1.9350 H   0  0  0  0  0  0  0  0  0  0  0  0
   -1.5440    6.0825    3.0638 H   0  0  0  0  0  0  0  0  0  0  0  0
   -2.1440    7.4763    2.0714 H   0  0  0  0  0  0  0  0  0  0  0  0
   -0.8265    7.7221   -1.9331 H   0  0  0  0  0  0  0  0  0  0  0  0
    4.1099   11.4898   -1.2101 H   0  0  0  0  0  0  0  0  0  0  0  0
    3.6798   13.9112   -1.0206 H   0  0  0  0  0  0  0  0  0  0  0  0
    3.0253   16.1830   -1.7253 H   0  0  0  0  0  0  0  0  0  0  0  0
    1.6864   17.1073   -0.9482 H   0  0  0  0  0  0  0  0  0  0  0  0
    2.6006   15.8904    0.0214 H   0  0  0  0  0  0  0  0  0  0  0  0
   -0.4716   13.2825   -1.9865 H   0  0  0  0  0  0  0  0  0  0  0  0
  1  2  2  3
  2  3  1  0
  3  4  2  0
  3  5  1  0
  5  6  2  0
  6  7  1  0
  7  8  2  0
  8  9  1  0
  9 10  2  0
 10 11  1  0
 10 12  1  0
 12 13  2  0
 13 14  1  0
 14 15  2  0
 15 16  1  0
 16 17  2  3
 17 18  1  0
 18 19  3  0
 17 20  1  0
 20 21  3  0
  1 22  1  0
 22 23  2  0
 23 24  1  0
 24 25  1  0
 25 26  1  0
 26 27  1  0
 24 28  2  0
 28 29  1  0
 28 30  1  0
 30 31  2  0
 31 32  1  0
 32 33  2  0
 33 34  1  0
 34 35  2  0
 35 36  1  0
 36 37  1  0
 37 38  1  0
 36 39  2  0
 31 40  1  0
 40 41  1  0
 41 42  1  0
 42 43  1  0
 43 44  1  0
 44 45  1  0
 45 46  2  0
 46 47  1  0
 47 48  1  0
 45 49  1  0
 49 50  1  0
 50 51  1  0
 51 52  1  0
 52 53  1  0
 53 54  1  0
 54 55  2  0
 55 56  1  0
 56 57  2  0
 57 58  1  0
 58 59  1  0
 59 60  1  0
 58 61  2  0
 53 62  2  0
 62 63  1  0
 63 64  1  0
 64 65  1  0
 65 66  1  0
 66 67  1  0
 67 68  1  0
 68 69  1  0
 69 70  1  0
 70 71  1  0
 71 72  1  0
 69 73  1  0
 73 74  1  0
 66 75  1  0
 75 76  1  0
 62 77  1  0
 77 78  2  0
 78 79  1  0
 79 80  1  0
 80 81  1  0
 81 82  1  0
 79 83  2  0
 83 84  1  0
 83 85  1  0
 85 86  2  3
 86 87  1  0
 87 88  2  0
 87 89  1  0
 89 90  2  0
 90 91  1  0
 91 92  2  0
 92 93  1  0
 93 94  1  0
 92 95  1  0
 95 96  2  0
 96 97  1  0
 97 98  2  3
 98 99  1  0
 99100  3  0
 98101  1  0
101102  3  0
 16  2  1  0
 29 22  1  0
 72 30  1  0
 84 77  1  0
 97 86  1  0
 15  5  1  0
 39 32  1  0
 71 40  2  0
 96 89  1  0
 13  7  1  0
 70 42  2  0
 68 43  2  0
 48 44  2  0
 67 49  2  0
 65 50  2  0
 64 52  2  0
 61 54  1  0
  1103  1  0
  6104  1  0
  8105  1  0
  9106  1  0
 12107  1  0
 14108  1  0
 23109  1  0
 26110  1  0
 26111  1  0
 27112  1  0
 27113  1  0
 27114  1  0
 33115  1  0
 34116  1  0
 35117  1  0
 37118  1  0
 37119  1  0
 38120  1  0
 38121  1  0
 38122  1  0
 39123  1  0
 55124  1  0
 56125  1  0
 57126  1  0
 59127  1  0
 59128  1  0
 60129  1  0
 60130  1  0
 60131  1  0
 61132  1  0
 73133  1  0
 73134  1  0
 74135  1  0
 74136  1  0
 74137  1  0
 75138  1  0
 75139  1  0
 76140  1  0
 76141  1  0
 76142  1  0
 78143  1  0
 81144  1  0
 81145  1  0
 82146  1  0
 82147  1  0
 82148  1  0
 85149  1  0
 90150  1  0
 91151  1  0
 94152  1  0
 94153  1  0
 94154  1  0
 95155  1  0
M  END

