
     RDKit          3D

148165  0  0  0  0  0  0  0  0999 V2000
   -7.0199   -2.4118    1.4760 C   0  0  0  0  0  0  0  0  0  0  0  0
   -6.2389   -2.7454    2.5184 C   0  0  0  0  0  0  0  0  0  0  0  0
   -5.9273   -1.8726    3.6556 C   0  0  0  0  0  0  0  0  0  0  0  0
   -6.2288   -0.6539    3.7689 O   0  0  0  0  0  0  0  0  0  0  0  0
   -5.3582   -2.6867    4.7079 C   0  0  0  0  0  0  0  0  0  0  0  0
   -5.0340   -2.3003    6.0074 C   0  0  0  0  0  0  0  0  0  0  0  0
   -4.5708   -3.2788    6.9040 C   0  0  0  0  0  0  0  0  0  0  0  0
   -4.2376   -2.9389    8.2231 C   0  0  0  0  0  0  0  0  0  0  0  0
   -3.7885   -3.9228    9.1122 C   0  0  0  0  0  0  0  0  0  0  0  0
   -3.6761   -5.2527    8.6946 C   0  0  0  0  0  0  0  0  0  0  0  0
   -3.2488   -6.1983    9.5649 F   0  0  0  0  0  0  0  0  0  0  0  0
   -4.0102   -5.6097    7.3835 C   0  0  0  0  0  0  0  0  0  0  0  0
   -4.4629   -4.6349    6.4810 C   0  0  0  0  0  0  0  0  0  0  0  0
   -4.8189   -4.9949    5.1652 C   0  0  0  0  0  0  0  0  0  0  0  0
   -5.2550   -4.0007    4.2746 C   0  0  0  0  0  0  0  0  0  0  0  0
   -5.7245   -4.1035    2.8631 C   0  0  0  0  0  0  0  0  0  0  0  0
   -5.4690   -5.1168    1.9940 C   0  0  0  0  0  0  0  0  0  0  0  0
   -4.7499   -6.3044    2.3704 C   0  0  0  0  0  0  0  0  0  0  0  0
   -4.1607   -7.2593    2.6558 N   0  0  0  0  0  0  0  0  0  0  0  0
   -5.7430   -5.0047    0.5833 C   0  0  0  0  0  0  0  0  0  0  0  0
   -5.9511   -4.9131   -0.5537 N   0  0  0  0  0  0  0  0  0  0  0  0
   -7.1739   -1.0286    1.0029 C   0  0  0  0  0  0  0  0  0  0  0  0
   -8.2727   -0.5440    0.3024 C   0  0  0  0  0  0  0  0  0  0  0  0
   -8.0088    0.6448   -0.3968 C   0  0  0  0  0  0  0  0  0  0  0  0
   -9.2074    1.4139   -1.4886 S   0  0  0  0  0  0  0  0  0  0  0  0
   -9.8914    2.5270   -0.2122 C   0  0  0  0  0  0  0  0  0  0  0  0
  -10.9267    1.8019    0.6410 C   0  0  0  0  0  0  0  0  0  0  0  0
   -6.6944    1.0853   -0.2801 C   0  0  0  0  0  0  0  0  0  0  0  0
   -5.8724   -0.0210    0.6789 S   0  0  0  0  0  0  0  0  0  0  0  0
   -5.9976    1.8966   -1.2802 C   0  0  0  0  0  0  0  0  0  0  0  0
   -5.7111    3.2793   -1.2345 C   0  0  0  0  0  0  0  0  0  0  0  0
   -6.1066    4.2055   -0.1481 C   0  0  0  0  0  0  0  0  0  0  0  0
   -6.5391    5.5056   -0.4582 C   0  0  0  0  0  0  0  0  0  0  0  0
   -6.9376    6.3804    0.5558 C   0  0  0  0  0  0  0  0  0  0  0  0
   -6.9039    5.9670    1.8912 C   0  0  0  0  0  0  0  0  0  0  0  0
   -6.4525    4.6814    2.2205 C   0  0  0  0  0  0  0  0  0  0  0  0
   -6.4573    4.2088    3.6486 C   0  0  0  0  0  0  0  0  0  0  0  0
   -7.7012    3.3735    3.9321 C   0  0  0  0  0  0  0  0  0  0  0  0
   -6.0481    3.8092    1.1982 C   0  0  0  0  0  0  0  0  0  0  0  0
   -4.8516    3.6334   -2.2876 C   0  0  0  0  0  0  0  0  0  0  0  0
   -3.7635    4.9360   -2.4691 S   0  0  0  0  0  0  0  0  0  0  0  0
   -2.8572    4.1094   -3.6429 C   0  0  0  0  0  0  0  0  0  0  0  0
   -1.5053    4.0524   -3.8911 C   0  0  0  0  0  0  0  0  0  0  0  0
   -0.4889    5.0143   -3.8398 C   0  0  0  0  0  0  0  0  0  0  0  0
    0.8582    4.6047   -4.1008 C   0  0  0  0  0  0  0  0  0  0  0  0
    1.8105    5.5666   -4.0399 N   0  0  0  0  0  0  0  0  0  0  0  0
    0.8644    6.8788   -3.6824 S   0  0  0  0  0  0  0  0  0  0  0  0
   -0.6956    6.3274   -3.5767 N   0  0  0  0  0  0  0  0  0  0  0  0
    1.1250    3.2405   -4.3005 C   0  0  0  0  0  0  0  0  0  0  0  0
    2.2961    2.5415   -4.1709 C   0  0  0  0  0  0  0  0  0  0  0  0
    3.8995    2.9057   -3.7235 S   0  0  0  0  0  0  0  0  0  0  0  0
    4.1540    1.3176   -3.1586 C   0  0  0  0  0  0  0  0  0  0  0  0
    5.2022    0.6798   -2.4832 C   0  0  0  0  0  0  0  0  0  0  0  0
    6.5650    1.2357   -2.3158 C   0  0  0  0  0  0  0  0  0  0  0  0
    6.7585    2.5483   -1.8585 C   0  0  0  0  0  0  0  0  0  0  0  0
    8.0520    3.0449   -1.6709 C   0  0  0  0  0  0  0  0  0  0  0  0
    9.1599    2.2361   -1.9343 C   0  0  0  0  0  0  0  0  0  0  0  0
    8.9821    0.9192   -2.3875 C   0  0  0  0  0  0  0  0  0  0  0  0
   10.1730    0.0547   -2.7037 C   0  0  0  0  0  0  0  0  0  0  0  0
   10.5032    0.1061   -4.1910 C   0  0  0  0  0  0  0  0  0  0  0  0
    7.6844    0.4311   -2.5876 C   0  0  0  0  0  0  0  0  0  0  0  0
    4.8018   -0.6022   -2.0392 C   0  0  0  0  0  0  0  0  0  0  0  0
    3.1936   -0.9040   -2.5097 S   0  0  0  0  0  0  0  0  0  0  0  0
    3.0093    0.5721   -3.2719 C   0  0  0  0  0  0  0  0  0  0  0  0
    1.9551    1.2576   -3.8606 C   0  0  0  0  0  0  0  0  0  0  0  0
    0.6129    1.0677   -3.7936 N   0  0  0  0  0  0  0  0  0  0  0  0
    0.1097    2.2774   -4.1991 C   0  0  0  0  0  0  0  0  0  0  0  0
   -1.2285    2.7118   -4.1516 C   0  0  0  0  0  0  0  0  0  0  0  0
   -2.3653    1.9679   -4.1871 N   0  0  0  0  0  0  0  0  0  0  0  0
   -3.3384    2.8415   -3.8428 C   0  0  0  0  0  0  0  0  0  0  0  0
   -4.4778    2.5897   -3.1002 C   0  0  0  0  0  0  0  0  0  0  0  0
   -5.1515    1.1668   -2.5559 S   0  0  0  0  0  0  0  0  0  0  0  0
   -2.5759    0.7138   -4.9269 C   0  0  0  0  0  0  0  0  0  0  0  0
   -3.2575    0.9805   -6.2645 C   0  0  0  0  0  0  0  0  0  0  0  0
   -0.0173    0.1774   -2.8053 C   0  0  0  0  0  0  0  0  0  0  0  0
    0.0806    0.7700   -1.3986 C   0  0  0  0  0  0  0  0  0  0  0  0
    5.5455   -1.4847   -1.1144 C   0  0  0  0  0  0  0  0  0  0  0  0
    5.6541   -2.8607   -1.3858 C   0  0  0  0  0  0  0  0  0  0  0  0
    5.1303   -3.3723   -2.5288 F   0  0  0  0  0  0  0  0  0  0  0  0
    6.3116   -3.7214   -0.4931 C   0  0  0  0  0  0  0  0  0  0  0  0
    6.3999   -5.0434   -0.7929 F   0  0  0  0  0  0  0  0  0  0  0  0
    6.9064   -3.2262    0.6807 C   0  0  0  0  0  0  0  0  0  0  0  0
    6.7551   -1.8625    0.9872 C   0  0  0  0  0  0  0  0  0  0  0  0
    6.0755   -0.9924    0.0887 C   0  0  0  0  0  0  0  0  0  0  0  0
    5.9357    0.2998    0.4873 N   0  0  0  0  0  0  0  0  0  0  0  0
    6.6958    0.2521    1.9530 S   0  0  0  0  0  0  0  0  0  0  0  0
    7.1910   -1.3089    2.1505 N   0  0  0  0  0  0  0  0  0  0  0  0
    7.5854   -4.1539    1.6076 C   0  0  0  0  0  0  0  0  0  0  0  0
    8.7893   -3.9222    2.1625 C   0  0  0  0  0  0  0  0  0  0  0  0
    9.1714   -4.4755    3.4600 C   0  0  0  0  0  0  0  0  0  0  0  0
    8.6471   -5.4726    4.0253 O   0  0  0  0  0  0  0  0  0  0  0  0
   10.1846   -3.6115    4.0371 C   0  0  0  0  0  0  0  0  0  0  0  0
   10.7096   -3.6369    5.3273 C   0  0  0  0  0  0  0  0  0  0  0  0
   11.5883   -2.6148    5.7136 C   0  0  0  0  0  0  0  0  0  0  0  0
   12.2503   -2.6410    7.3429 Cl  0  0  0  0  0  0  0  0  0  0  0  0
   11.9085   -1.5746    4.8081 C   0  0  0  0  0  0  0  0  0  0  0  0
   13.0762   -0.1405    5.3131 Br  0  0  0  0  0  0  0  0  0  0  0  0
   11.3538   -1.5661    3.5177 C   0  0  0  0  0  0  0  0  0  0  0  0
   10.5024   -2.6110    3.1350 C   0  0  0  0  0  0  0  0  0  0  0  0
    9.7656   -2.8334    1.8645 C   0  0  0  0  0  0  0  0  0  0  0  0
   10.1472   -2.4254    0.6324 C   0  0  0  0  0  0  0  0  0  0  0  0
    9.6501   -3.0635   -0.5599 C   0  0  0  0  0  0  0  0  0  0  0  0
    9.2651   -3.5740   -1.5267 N   0  0  0  0  0  0  0  0  0  0  0  0
   11.2189   -1.4863    0.4300 C   0  0  0  0  0  0  0  0  0  0  0  0
   12.0825   -0.7352    0.2508 N   0  0  0  0  0  0  0  0  0  0  0  0
   -7.4747   -3.1789    0.8644 H   0  0  0  0  0  0  0  0  0  0  0  0
   -5.1442   -1.2661    6.3106 H   0  0  0  0  0  0  0  0  0  0  0  0
   -4.3291   -1.9148    8.5700 H   0  0  0  0  0  0  0  0  0  0  0  0
   -3.5427   -3.6560   10.1326 H   0  0  0  0  0  0  0  0  0  0  0  0
   -3.9152   -6.6440    7.0789 H   0  0  0  0  0  0  0  0  0  0  0  0
   -4.7872   -6.0343    4.8783 H   0  0  0  0  0  0  0  0  0  0  0  0
   -9.2122   -1.0789    0.2339 H   0  0  0  0  0  0  0  0  0  0  0  0
  -10.3841    3.3786   -0.7247 H   0  0  0  0  0  0  0  0  0  0  0  0
   -9.0833    2.9368    0.4313 H   0  0  0  0  0  0  0  0  0  0  0  0
  -11.6767    1.2978   -0.0064 H   0  0  0  0  0  0  0  0  0  0  0  0
  -10.4329    1.0505    1.2898 H   0  0  0  0  0  0  0  0  0  0  0  0
  -11.4488    2.5388    1.2835 H   0  0  0  0  0  0  0  0  0  0  0  0
   -6.5880    5.8386   -1.4877 H   0  0  0  0  0  0  0  0  0  0  0  0
   -7.2812    7.3778    0.3096 H   0  0  0  0  0  0  0  0  0  0  0  0
   -7.2315    6.6489    2.6663 H   0  0  0  0  0  0  0  0  0  0  0  0
   -5.5517    3.5931    3.8444 H   0  0  0  0  0  0  0  0  0  0  0  0
   -6.4305    5.0742    4.3468 H   0  0  0  0  0  0  0  0  0  0  0  0
   -7.7442    2.4930    3.2541 H   0  0  0  0  0  0  0  0  0  0  0  0
   -8.6199    3.9860    3.7913 H   0  0  0  0  0  0  0  0  0  0  0  0
   -7.6727    3.0101    4.9814 H   0  0  0  0  0  0  0  0  0  0  0  0
   -5.6765    2.8304    1.4599 H   0  0  0  0  0  0  0  0  0  0  0  0
    5.9118    3.1812   -1.6219 H   0  0  0  0  0  0  0  0  0  0  0  0
    8.1949    4.0607   -1.3165 H   0  0  0  0  0  0  0  0  0  0  0  0
   10.1561    2.6351   -1.7821 H   0  0  0  0  0  0  0  0  0  0  0  0
   11.0587    0.3883   -2.1230 H   0  0  0  0  0  0  0  0  0  0  0  0
    9.9630   -0.9953   -2.4214 H   0  0  0  0  0  0  0  0  0  0  0  0
   11.4026   -0.5179   -4.3929 H   0  0  0  0  0  0  0  0  0  0  0  0
   10.7151    1.1489   -4.5098 H   0  0  0  0  0  0  0  0  0  0  0  0
    9.6527   -0.2957   -4.7875 H   0  0  0  0  0  0  0  0  0  0  0  0
    7.5440   -0.5785   -2.9571 H   0  0  0  0  0  0  0  0  0  0  0  0
   -1.6068    0.2253   -5.1498 H   0  0  0  0  0  0  0  0  0  0  0  0
   -3.1962    0.0161   -4.3304 H   0  0  0  0  0  0  0  0  0  0  0  0
   -4.2709    1.3996   -6.1020 H   0  0  0  0  0  0  0  0  0  0  0  0
   -3.3560    0.0280   -6.8281 H   0  0  0  0  0  0  0  0  0  0  0  0
   -2.6549    1.6929   -6.8666 H   0  0  0  0  0  0  0  0  0  0  0  0
    0.4583   -0.8220   -2.8306 H   0  0  0  0  0  0  0  0  0  0  0  0
   -1.0835    0.0085   -3.0165 H   0  0  0  0  0  0  0  0  0  0  0  0
   -0.4043    1.7681   -1.3696 H   0  0  0  0  0  0  0  0  0  0  0  0
   -0.4431    0.1087   -0.6786 H   0  0  0  0  0  0  0  0  0  0  0  0
    1.1408    0.8726   -1.0840 H   0  0  0  0  0  0  0  0  0  0  0  0
    7.0047   -4.9998    1.9547 H   0  0  0  0  0  0  0  0  0  0  0  0
   10.4311   -4.4200    6.0201 H   0  0  0  0  0  0  0  0  0  0  0  0
   11.5588   -0.7321    2.8631 H   0  0  0  0  0  0  0  0  0  0  0  0
  1  2  2  3
  2  3  1  0
  3  4  2  0
  3  5  1  0
  5  6  2  0
  6  7  1  0
  7  8  2  0
  8  9  1  0
  9 10  2  0
 10 11  1  0
 10 12  1  0
 12 13  2  0
 13 14  1  0
 14 15  2  0
 15 16  1  0
 16 17  2  3
 17 18  1  0
 18 19  3  0
 17 20  1  0
 20 21  3  0
  1 22  1  0
 22 23  2  0
 23 24  1  0
 24 25  1  0
 25 26  1  0
 26 27  1  0
 24 28  2  0
 28 29  1  0
 28 30  1  0
 30 31  2  0
 31 32  1  0
 32 33  2  0
 33 34  1  0
 34 35  2  0
 35 36  1  0
 36 37  1  0
 37 38  1  0
 36 39  2  0
 31 40  1  0
 40 41  1  0
 41 42  1  0
 42 43  1  0
 43 44  1  0
 44 45  1  0
 45 46  2  0
 46 47  1  0
 47 48  1  0
 45 49  1  0
 49 50  1  0
 50 51  1  0
 51 52  1  0
 52 53  1  0
 53 54  1  0
 54 55  2  0
 55 56  1  0
 56 57  2  0
 57 58  1  0
 58 59  1  0
 59 60  1  0
 58 61  2  0
 53 62  2  0
 62 63  1  0
 63 64  1  0
 64 65  1  0
 65 66  1  0
 66 67  1  0
 67 68  1  0
 68 69  1  0
 69 70  1  0
 70 71  1  0
 71 72  1  0
 69 73  1  0
 73 74  1  0
 66 75  1  0
 75 76  1  0
 62 77  1  0
 77 78  2  0
 78 79  1  0
 78 80  1  0
 80 81  1  0
 80 82  2  0
 82 83  1  0
 83 84  1  0
 84 85  2  0
 85 86  1  0
 86 87  1  0
 82 88  1  0
 88 89  2  3
 89 90  1  0
 90 91  2  0
 90 92  1  0
 92 93  2  0
 93 94  1  0
 94 95  1  0
 94 96  2  0
 96 97  1  0
 96 98  1  0
 98 99  2  0
 99100  1  0
100101  2  3
101102  1  0
102103  3  0
101104  1  0
104105  3  0
 16  2  1  0
 29 22  1  0
 72 30  1  0
 84 77  1  0
100 89  1  0
 15  5  1  0
 39 32  1  0
 71 40  2  0
 87 83  2  0
 99 92  1  0
 13  7  1  0
 70 42  2  0
 68 43  2  0
 48 44  2  0
 67 49  2  0
 65 50  2  0
 64 52  2  0
 61 54  1  0
  1106  1  0
  6107  1  0
  8108  1  0
  9109  1  0
 12110  1  0
 14111  1  0
 23112  1  0
 26113  1  0
 26114  1  0
 27115  1  0
 27116  1  0
 27117  1  0
 33118  1  0
 34119  1  0
 35120  1  0
 37121  1  0
 37122  1  0
 38123  1  0
 38124  1  0
 38125  1  0
 39126  1  0
 55127  1  0
 56128  1  0
 57129  1  0
 59130  1  0
 59131  1  0
 60132  1  0
 60133  1  0
 60134  1  0
 61135  1  0
 73136  1  0
 73137  1  0
 74138  1  0
 74139  1  0
 74140  1  0
 75141  1  0
 75142  1  0
 76143  1  0
 76144  1  0
 76145  1  0
 88146  1  0
 93147  1  0
 98148  1  0
M  END

