
     RDKit          3D

137151  0  0  0  0  0  0  0  0999 V2000
   -4.2677   -6.8993    4.1891 C   0  0  0  0  0  0  0  0  0  0  0  0
   -4.1028   -7.5503    3.0115 C   0  0  0  0  0  0  0  0  0  0  0  0
   -4.4232   -7.0434    1.6765 C   0  0  0  0  0  0  0  0  0  0  0  0
   -5.4563   -6.4020    1.3462 O   0  0  0  0  0  0  0  0  0  0  0  0
   -3.4631   -7.5865    0.7407 C   0  0  0  0  0  0  0  0  0  0  0  0
   -3.2338   -7.1926   -0.5800 C   0  0  0  0  0  0  0  0  0  0  0  0
   -2.1368   -7.7468   -1.2620 C   0  0  0  0  0  0  0  0  0  0  0  0
   -1.8380   -7.3506   -2.5754 C   0  0  0  0  0  0  0  0  0  0  0  0
   -0.7318   -7.8939   -3.2342 C   0  0  0  0  0  0  0  0  0  0  0  0
    0.0820   -8.8321   -2.5951 C   0  0  0  0  0  0  0  0  0  0  0  0
    1.1460   -9.3591   -3.2497 F   0  0  0  0  0  0  0  0  0  0  0  0
   -0.1888   -9.2216   -1.2816 C   0  0  0  0  0  0  0  0  0  0  0  0
   -1.2950   -8.6934   -0.6013 C   0  0  0  0  0  0  0  0  0  0  0  0
   -1.5601   -9.0710    0.7314 C   0  0  0  0  0  0  0  0  0  0  0  0
   -2.6695   -8.5172    1.3856 C   0  0  0  0  0  0  0  0  0  0  0  0
   -3.1369   -8.6676    2.7895 C   0  0  0  0  0  0  0  0  0  0  0  0
   -2.9286   -9.7269    3.6062 C   0  0  0  0  0  0  0  0  0  0  0  0
   -2.1018  -10.8446    3.2246 C   0  0  0  0  0  0  0  0  0  0  0  0
   -1.4410  -11.7444    2.9222 N   0  0  0  0  0  0  0  0  0  0  0  0
   -3.6487   -9.8851    4.8463 C   0  0  0  0  0  0  0  0  0  0  0  0
   -4.2313  -10.0165    5.8349 N   0  0  0  0  0  0  0  0  0  0  0  0
   -4.6554   -5.4789    4.3494 C   0  0  0  0  0  0  0  0  0  0  0  0
   -4.6409   -4.8066    5.5682 C   0  0  0  0  0  0  0  0  0  0  0  0
   -4.6723   -3.4029    5.4549 C   0  0  0  0  0  0  0  0  0  0  0  0
   -4.4204   -2.3788    6.9157 S   0  0  0  0  0  0  0  0  0  0  0  0
   -2.5987   -2.4967    6.9301 C   0  0  0  0  0  0  0  0  0  0  0  0
   -1.9581   -1.5966    5.8794 C   0  0  0  0  0  0  0  0  0  0  0  0
   -4.7678   -2.9434    4.1292 C   0  0  0  0  0  0  0  0  0  0  0  0
   -4.7154   -4.3038    3.1524 S   0  0  0  0  0  0  0  0  0  0  0  0
   -4.5990   -1.5837    3.5701 C   0  0  0  0  0  0  0  0  0  0  0  0
   -4.8991   -0.3291    4.1509 C   0  0  0  0  0  0  0  0  0  0  0  0
   -5.7972   -0.1021    5.2986 C   0  0  0  0  0  0  0  0  0  0  0  0
   -5.4226    0.7637    6.3367 C   0  0  0  0  0  0  0  0  0  0  0  0
   -6.2509    0.9281    7.4486 C   0  0  0  0  0  0  0  0  0  0  0  0
   -7.4777    0.2513    7.5179 C   0  0  0  0  0  0  0  0  0  0  0  0
   -7.8814   -0.5870    6.4678 C   0  0  0  0  0  0  0  0  0  0  0  0
   -9.1693   -1.3634    6.5676 C   0  0  0  0  0  0  0  0  0  0  0  0
   -8.9138   -2.7516    7.1392 C   0  0  0  0  0  0  0  0  0  0  0  0
   -7.0333   -0.7705    5.3661 C   0  0  0  0  0  0  0  0  0  0  0  0
   -4.4072    0.7094    3.3530 C   0  0  0  0  0  0  0  0  0  0  0  0
   -4.2396    2.3989    3.5606 S   0  0  0  0  0  0  0  0  0  0  0  0
   -3.4653    2.5554    2.0495 C   0  0  0  0  0  0  0  0  0  0  0  0
   -2.5899    3.4192    1.4464 C   0  0  0  0  0  0  0  0  0  0  0  0
   -1.9874    4.5925    1.9182 C   0  0  0  0  0  0  0  0  0  0  0  0
   -0.8122    5.0802    1.2589 C   0  0  0  0  0  0  0  0  0  0  0  0
   -0.2298    6.1869    1.7760 N   0  0  0  0  0  0  0  0  0  0  0  0
   -1.2405    6.4540    3.0599 S   0  0  0  0  0  0  0  0  0  0  0  0
   -2.3894    5.2606    3.0239 N   0  0  0  0  0  0  0  0  0  0  0  0
   -0.3509    4.4008    0.1235 C   0  0  0  0  0  0  0  0  0  0  0  0
    0.6728    4.6258   -0.7623 C   0  0  0  0  0  0  0  0  0  0  0  0
    1.9262    5.7360   -1.0724 S   0  0  0  0  0  0  0  0  0  0  0  0
    2.2823    4.9558   -2.5568 C   0  0  0  0  0  0  0  0  0  0  0  0
    3.2134    5.1679   -3.5710 C   0  0  0  0  0  0  0  0  0  0  0  0
    4.1873    6.2692   -3.5552 C   0  0  0  0  0  0  0  0  0  0  0  0
    5.1625    6.3356   -2.5465 C   0  0  0  0  0  0  0  0  0  0  0  0
    6.0971    7.3800   -2.5412 C   0  0  0  0  0  0  0  0  0  0  0  0
    6.0404    8.3786   -3.5215 C   0  0  0  0  0  0  0  0  0  0  0  0
    5.0514    8.3313   -4.5233 C   0  0  0  0  0  0  0  0  0  0  0  0
    4.9932    9.3927   -5.5826 C   0  0  0  0  0  0  0  0  0  0  0  0
    5.6978    8.9343   -6.8601 C   0  0  0  0  0  0  0  0  0  0  0  0
    4.1350    7.2678   -4.5402 C   0  0  0  0  0  0  0  0  0  0  0  0
    3.0357    4.2437   -4.6282 C   0  0  0  0  0  0  0  0  0  0  0  0
    1.7476    3.1962   -4.2631 S   0  0  0  0  0  0  0  0  0  0  0  0
    1.4251    3.9189   -2.7930 C   0  0  0  0  0  0  0  0  0  0  0  0
    0.5286    3.7194   -1.7635 C   0  0  0  0  0  0  0  0  0  0  0  0
   -0.5447    2.9148   -1.6099 N   0  0  0  0  0  0  0  0  0  0  0  0
   -1.0115    3.2741   -0.3792 C   0  0  0  0  0  0  0  0  0  0  0  0
   -2.0551    2.7026    0.3652 C   0  0  0  0  0  0  0  0  0  0  0  0
   -2.4504    1.3920    0.3891 N   0  0  0  0  0  0  0  0  0  0  0  0
   -3.3240    1.3553    1.4241 C   0  0  0  0  0  0  0  0  0  0  0  0
   -3.8351    0.3075    2.1749 C   0  0  0  0  0  0  0  0  0  0  0  0
   -3.8171   -1.3517    2.0779 S   0  0  0  0  0  0  0  0  0  0  0  0
   -1.6848    0.2277   -0.0855 C   0  0  0  0  0  0  0  0  0  0  0  0
   -0.5877   -0.1452    0.9108 C   0  0  0  0  0  0  0  0  0  0  0  0
   -1.3582    2.4033   -2.7216 C   0  0  0  0  0  0  0  0  0  0  0  0
   -1.9453    3.5570   -3.5355 C   0  0  0  0  0  0  0  0  0  0  0  0
    3.8672    4.0709   -5.8335 C   0  0  0  0  0  0  0  0  0  0  0  0
    5.2073    4.4218   -6.0001 C   0  0  0  0  0  0  0  0  0  0  0  0
    5.7490    3.9884   -7.2235 C   0  0  0  0  0  0  0  0  0  0  0  0
    7.4424    4.3527   -7.6957 S   0  0  0  0  0  0  0  0  0  0  0  0
    8.1898    2.9463   -6.7945 C   0  0  0  0  0  0  0  0  0  0  0  0
    8.1279    1.6636   -7.6198 C   0  0  0  0  0  0  0  0  0  0  0  0
    4.8507    3.2713   -8.0195 C   0  0  0  0  0  0  0  0  0  0  0  0
    3.3767    3.2118   -7.1903 S   0  0  0  0  0  0  0  0  0  0  0  0
    5.1596    2.6787   -9.3447 C   0  0  0  0  0  0  0  0  0  0  0  0
    4.5227    1.6302   -9.8993 C   0  0  0  0  0  0  0  0  0  0  0  0
    4.9743    1.1176  -11.1649 C   0  0  0  0  0  0  0  0  0  0  0  0
    5.3394    0.6963  -12.1787 N   0  0  0  0  0  0  0  0  0  0  0  0
    3.4286    0.9274   -9.2679 C   0  0  0  0  0  0  0  0  0  0  0  0
    2.5572    0.3564   -8.7669 N   0  0  0  0  0  0  0  0  0  0  0  0
   -3.8931   -7.3605    5.0961 H   0  0  0  0  0  0  0  0  0  0  0  0
   -3.8622   -6.4407   -1.0410 H   0  0  0  0  0  0  0  0  0  0  0  0
   -2.4462   -6.6161   -3.0829 H   0  0  0  0  0  0  0  0  0  0  0  0
   -0.5022   -7.5869   -4.2488 H   0  0  0  0  0  0  0  0  0  0  0  0
    0.4600   -9.9420   -0.8030 H   0  0  0  0  0  0  0  0  0  0  0  0
   -0.8864   -9.7361    1.2444 H   0  0  0  0  0  0  0  0  0  0  0  0
   -4.4975   -5.3151    6.5152 H   0  0  0  0  0  0  0  0  0  0  0  0
   -2.2655   -3.5484    6.7919 H   0  0  0  0  0  0  0  0  0  0  0  0
   -2.2533   -2.1698    7.9274 H   0  0  0  0  0  0  0  0  0  0  0  0
   -2.1356   -1.9981    4.8605 H   0  0  0  0  0  0  0  0  0  0  0  0
   -2.3700   -0.5681    5.9461 H   0  0  0  0  0  0  0  0  0  0  0  0
   -0.8561   -1.5561    6.0430 H   0  0  0  0  0  0  0  0  0  0  0  0
   -4.4624    1.2599    6.3146 H   0  0  0  0  0  0  0  0  0  0  0  0
   -5.9450    1.5630    8.2667 H   0  0  0  0  0  0  0  0  0  0  0  0
   -8.1069    0.3820    8.3926 H   0  0  0  0  0  0  0  0  0  0  0  0
   -9.8989   -0.8300    7.2191 H   0  0  0  0  0  0  0  0  0  0  0  0
   -9.6345   -1.4683    5.5607 H   0  0  0  0  0  0  0  0  0  0  0  0
   -8.2789   -3.3466    6.4481 H   0  0  0  0  0  0  0  0  0  0  0  0
   -9.8721   -3.2864    7.2886 H   0  0  0  0  0  0  0  0  0  0  0  0
   -8.3892   -2.6802    8.1142 H   0  0  0  0  0  0  0  0  0  0  0  0
   -7.3318   -1.4420    4.5675 H   0  0  0  0  0  0  0  0  0  0  0  0
    5.2174    5.5640   -1.7820 H   0  0  0  0  0  0  0  0  0  0  0  0
    6.8599    7.4145   -1.7750 H   0  0  0  0  0  0  0  0  0  0  0  0
    6.7650    9.1836   -3.4994 H   0  0  0  0  0  0  0  0  0  0  0  0
    5.4749   10.3268   -5.2199 H   0  0  0  0  0  0  0  0  0  0  0  0
    3.9388    9.6279   -5.8139 H   0  0  0  0  0  0  0  0  0  0  0  0
    6.7840    8.7654   -6.6776 H   0  0  0  0  0  0  0  0  0  0  0  0
    5.2333    7.9984   -7.2529 H   0  0  0  0  0  0  0  0  0  0  0  0
    5.5970    9.7333   -7.6326 H   0  0  0  0  0  0  0  0  0  0  0  0
    3.3849    7.2111   -5.3143 H   0  0  0  0  0  0  0  0  0  0  0  0
   -2.3628   -0.6327   -0.2498 H   0  0  0  0  0  0  0  0  0  0  0  0
   -1.1832    0.4299   -1.0437 H   0  0  0  0  0  0  0  0  0  0  0  0
    0.0409   -0.9454    0.4688 H   0  0  0  0  0  0  0  0  0  0  0  0
   -1.0167   -0.5254    1.8611 H   0  0  0  0  0  0  0  0  0  0  0  0
    0.0732    0.7330    1.1043 H   0  0  0  0  0  0  0  0  0  0  0  0
   -0.7369    1.7513   -3.3740 H   0  0  0  0  0  0  0  0  0  0  0  0
   -2.2155    1.8106   -2.3445 H   0  0  0  0  0  0  0  0  0  0  0  0
   -2.4554    4.2825   -2.8607 H   0  0  0  0  0  0  0  0  0  0  0  0
   -1.1491    4.0798   -4.1045 H   0  0  0  0  0  0  0  0  0  0  0  0
   -2.6831    3.1572   -4.2628 H   0  0  0  0  0  0  0  0  0  0  0  0
    5.7963    4.9388   -5.2591 H   0  0  0  0  0  0  0  0  0  0  0  0
    9.2526    3.1946   -6.6124 H   0  0  0  0  0  0  0  0  0  0  0  0
    7.6985    2.7905   -5.8120 H   0  0  0  0  0  0  0  0  0  0  0  0
    8.5338    1.8497   -8.6413 H   0  0  0  0  0  0  0  0  0  0  0  0
    8.7357    0.8777   -7.1328 H   0  0  0  0  0  0  0  0  0  0  0  0
    7.0862    1.2974   -7.7047 H   0  0  0  0  0  0  0  0  0  0  0  0
    6.0335    3.0631   -9.8508 H   0  0  0  0  0  0  0  0  0  0  0  0
  1  2  2  3
  2  3  1  0
  3  4  2  0
  3  5  1  0
  5  6  2  0
  6  7  1  0
  7  8  2  0
  8  9  1  0
  9 10  2  0
 10 11  1  0
 10 12  1  0
 12 13  2  0
 13 14  1  0
 14 15  2  0
 15 16  1  0
 16 17  2  3
 17 18  1  0
 18 19  3  0
 17 20  1  0
 20 21  3  0
  1 22  1  0
 22 23  2  0
 23 24  1  0
 24 25  1  0
 25 26  1  0
 26 27  1  0
 24 28  2  0
 28 29  1  0
 28 30  1  0
 30 31  2  0
 31 32  1  0
 32 33  2  0
 33 34  1  0
 34 35  2  0
 35 36  1  0
 36 37  1  0
 37 38  1  0
 36 39  2  0
 31 40  1  0
 40 41  1  0
 41 42  1  0
 42 43  1  0
 43 44  1  0
 44 45  1  0
 45 46  2  0
 46 47  1  0
 47 48  1  0
 45 49  1  0
 49 50  1  0
 50 51  1  0
 51 52  1  0
 52 53  1  0
 53 54  1  0
 54 55  2  0
 55 56  1  0
 56 57  2  0
 57 58  1  0
 58 59  1  0
 59 60  1  0
 58 61  2  0
 53 62  2  0
 62 63  1  0
 63 64  1  0
 64 65  1  0
 65 66  1  0
 66 67  1  0
 67 68  1  0
 68 69  1  0
 69 70  1  0
 70 71  1  0
 71 72  1  0
 69 73  1  0
 73 74  1  0
 66 75  1  0
 75 76  1  0
 62 77  1  0
 77 78  2  0
 78 79  1  0
 79 80  1  0
 80 81  1  0
 81 82  1  0
 79 83  2  0
 83 84  1  0
 83 85  1  0
 85 86  2  3
 86 87  1  0
 87 88  3  0
 86 89  1  0
 89 90  3  0
 16  2  1  0
 29 22  1  0
 72 30  1  0
 84 77  1  0
 15  5  1  0
 39 32  1  0
 71 40  2  0
 13  7  1  0
 70 42  2  0
 68 43  2  0
 48 44  2  0
 67 49  2  0
 65 50  2  0
 64 52  2  0
 61 54  1  0
  1 91  1  0
  6 92  1  0
  8 93  1  0
  9 94  1  0
 12 95  1  0
 14 96  1  0
 23 97  1  0
 26 98  1  0
 26 99  1  0
 27100  1  0
 27101  1  0
 27102  1  0
 33103  1  0
 34104  1  0
 35105  1  0
 37106  1  0
 37107  1  0
 38108  1  0
 38109  1  0
 38110  1  0
 39111  1  0
 55112  1  0
 56113  1  0
 57114  1  0
 59115  1  0
 59116  1  0
 60117  1  0
 60118  1  0
 60119  1  0
 61120  1  0
 73121  1  0
 73122  1  0
 74123  1  0
 74124  1  0
 74125  1  0
 75126  1  0
 75127  1  0
 76128  1  0
 76129  1  0
 76130  1  0
 78131  1  0
 81132  1  0
 81133  1  0
 82134  1  0
 82135  1  0
 82136  1  0
 85137  1  0
M  END

