
     RDKit          3D

151167  0  0  0  0  0  0  0  0999 V2000
   -0.2060    5.4181   -9.3296 C   0  0  0  0  0  0  0  0  0  0  0  0
   -0.7243    4.4657  -10.1304 C   0  0  0  0  0  0  0  0  0  0  0  0
   -0.3050    3.0612  -10.1929 C   0  0  0  0  0  0  0  0  0  0  0  0
    0.8453    2.6110   -9.9429 O   0  0  0  0  0  0  0  0  0  0  0  0
   -1.4026    2.2809  -10.7196 C   0  0  0  0  0  0  0  0  0  0  0  0
   -1.5171    0.8926  -10.7783 C   0  0  0  0  0  0  0  0  0  0  0  0
   -2.7299    0.3382  -11.2201 C   0  0  0  0  0  0  0  0  0  0  0  0
   -2.8969   -1.0539  -11.2780 C   0  0  0  0  0  0  0  0  0  0  0  0
   -4.1141   -1.5984  -11.6968 C   0  0  0  0  0  0  0  0  0  0  0  0
   -5.1716   -0.7621  -12.0654 C   0  0  0  0  0  0  0  0  0  0  0  0
   -6.3481   -1.3011  -12.4693 F   0  0  0  0  0  0  0  0  0  0  0  0
   -5.0222    0.6285  -12.0110 C   0  0  0  0  0  0  0  0  0  0  0  0
   -3.8062    1.1936  -11.5912 C   0  0  0  0  0  0  0  0  0  0  0  0
   -3.6537    2.5940  -11.5230 C   0  0  0  0  0  0  0  0  0  0  0  0
   -2.4255    3.1272  -11.1044 C   0  0  0  0  0  0  0  0  0  0  0  0
   -2.0019    4.5430  -10.9014 C   0  0  0  0  0  0  0  0  0  0  0  0
   -2.5285    5.6426  -11.4994 C   0  0  0  0  0  0  0  0  0  0  0  0
   -3.6746    5.5726  -12.3638 C   0  0  0  0  0  0  0  0  0  0  0  0
   -4.5991    5.5272  -13.0606 N   0  0  0  0  0  0  0  0  0  0  0  0
   -1.8873    6.9300  -11.4398 C   0  0  0  0  0  0  0  0  0  0  0  0
   -1.3774    7.9687  -11.4033 N   0  0  0  0  0  0  0  0  0  0  0  0
    0.8196    5.1621   -8.3000 C   0  0  0  0  0  0  0  0  0  0  0  0
    1.7587    6.0857   -7.8506 C   0  0  0  0  0  0  0  0  0  0  0  0
    2.5183    5.6232   -6.7619 C   0  0  0  0  0  0  0  0  0  0  0  0
    3.7254    6.6504   -5.9127 S   0  0  0  0  0  0  0  0  0  0  0  0
    5.0212    6.5245   -7.1968 C   0  0  0  0  0  0  0  0  0  0  0  0
    5.6437    5.1363   -7.2313 C   0  0  0  0  0  0  0  0  0  0  0  0
    2.1580    4.3429   -6.3424 C   0  0  0  0  0  0  0  0  0  0  0  0
    0.8597    3.8324   -7.2691 S   0  0  0  0  0  0  0  0  0  0  0  0
    2.6257    3.6319   -5.1486 C   0  0  0  0  0  0  0  0  0  0  0  0
    3.5234    2.5432   -5.1285 C   0  0  0  0  0  0  0  0  0  0  0  0
    4.2919    2.0267   -6.2809 C   0  0  0  0  0  0  0  0  0  0  0  0
    3.6460    1.6477   -7.4664 C   0  0  0  0  0  0  0  0  0  0  0  0
    4.3832    1.1645   -8.5489 C   0  0  0  0  0  0  0  0  0  0  0  0
    5.7714    1.0378   -8.4521 C   0  0  0  0  0  0  0  0  0  0  0  0
    6.4310    1.3946   -7.2665 C   0  0  0  0  0  0  0  0  0  0  0  0
    7.9193    1.2053   -7.1383 C   0  0  0  0  0  0  0  0  0  0  0  0
    8.2363   -0.1312   -6.4738 C   0  0  0  0  0  0  0  0  0  0  0  0
    5.6839    1.8742   -6.1774 C   0  0  0  0  0  0  0  0  0  0  0  0
    3.5501    1.9495   -3.8657 C   0  0  0  0  0  0  0  0  0  0  0  0
    4.2303    0.4932   -3.2856 S   0  0  0  0  0  0  0  0  0  0  0  0
    3.3759    0.6566   -1.8280 C   0  0  0  0  0  0  0  0  0  0  0  0
    3.1704   -0.0220   -0.6660 C   0  0  0  0  0  0  0  0  0  0  0  0
    3.7817   -1.1729   -0.1656 C   0  0  0  0  0  0  0  0  0  0  0  0
    3.4366   -1.6121    1.1419 C   0  0  0  0  0  0  0  0  0  0  0  0
    4.0540   -2.7298    1.5991 N   0  0  0  0  0  0  0  0  0  0  0  0
    5.0161   -3.0701    0.2935 S   0  0  0  0  0  0  0  0  0  0  0  0
    4.7093   -1.8997   -0.8375 N   0  0  0  0  0  0  0  0  0  0  0  0
    2.4680   -0.9011    1.8531 C   0  0  0  0  0  0  0  0  0  0  0  0
    1.8761   -1.1729    3.0469 C   0  0  0  0  0  0  0  0  0  0  0  0
    1.9521   -2.3412    4.2750 S   0  0  0  0  0  0  0  0  0  0  0  0
    0.6244   -1.6144    5.0588 C   0  0  0  0  0  0  0  0  0  0  0  0
   -0.0559   -1.8996    6.2374 C   0  0  0  0  0  0  0  0  0  0  0  0
    0.1450   -3.1229    7.0258 C   0  0  0  0  0  0  0  0  0  0  0  0
    0.9845   -3.1219    8.1476 C   0  0  0  0  0  0  0  0  0  0  0  0
    1.1396   -4.2866    8.9037 C   0  0  0  0  0  0  0  0  0  0  0  0
    0.4534   -5.4536    8.5472 C   0  0  0  0  0  0  0  0  0  0  0  0
   -0.4072   -5.4585    7.4371 C   0  0  0  0  0  0  0  0  0  0  0  0
   -1.1435   -6.7112    7.0438 C   0  0  0  0  0  0  0  0  0  0  0  0
   -0.4038   -7.4485    5.9314 C   0  0  0  0  0  0  0  0  0  0  0  0
   -0.5487   -4.2904    6.6736 C   0  0  0  0  0  0  0  0  0  0  0  0
   -1.0950   -0.9831    6.4523 C   0  0  0  0  0  0  0  0  0  0  0  0
   -1.1679    0.1397    5.1715 S   0  0  0  0  0  0  0  0  0  0  0  0
    0.1384   -0.5387    4.3591 C   0  0  0  0  0  0  0  0  0  0  0  0
    0.8629   -0.2921    3.2001 C   0  0  0  0  0  0  0  0  0  0  0  0
    0.7263    0.5514    2.1440 N   0  0  0  0  0  0  0  0  0  0  0  0
    1.7896    0.2199    1.3270 C   0  0  0  0  0  0  0  0  0  0  0  0
    2.2146    0.7233    0.0558 C   0  0  0  0  0  0  0  0  0  0  0  0
    1.9111    1.8857   -0.6243 N   0  0  0  0  0  0  0  0  0  0  0  0
    2.6137    1.7690   -1.7790 C   0  0  0  0  0  0  0  0  0  0  0  0
    2.7101    2.5203   -2.9410 C   0  0  0  0  0  0  0  0  0  0  0  0
    1.8700    3.7945   -3.6307 S   0  0  0  0  0  0  0  0  0  0  0  0
    1.3480    3.1557   -0.1453 C   0  0  0  0  0  0  0  0  0  0  0  0
    2.0545    3.6419    1.1192 C   0  0  0  0  0  0  0  0  0  0  0  0
   -0.5168    1.2725    1.8364 C   0  0  0  0  0  0  0  0  0  0  0  0
   -1.1816    0.7411    0.5673 C   0  0  0  0  0  0  0  0  0  0  0  0
   -2.0068   -1.0052    7.5966 C   0  0  0  0  0  0  0  0  0  0  0  0
   -1.6218   -0.9079    8.9293 C   0  0  0  0  0  0  0  0  0  0  0  0
   -2.6794   -1.1265    9.8184 C   0  0  0  0  0  0  0  0  0  0  0  0
   -2.4737   -1.0828   11.6019 S   0  0  0  0  0  0  0  0  0  0  0  0
   -2.5622    0.7378   11.7454 C   0  0  0  0  0  0  0  0  0  0  0  0
   -3.9708    1.2617   11.4955 C   0  0  0  0  0  0  0  0  0  0  0  0
   -3.8724   -1.4616    9.1843 C   0  0  0  0  0  0  0  0  0  0  0  0
   -3.6386   -1.4053    7.5169 S   0  0  0  0  0  0  0  0  0  0  0  0
   -5.1194   -1.8557    9.8551 C   0  0  0  0  0  0  0  0  0  0  0  0
   -5.6756   -3.0755    9.7220 C   0  0  0  0  0  0  0  0  0  0  0  0
   -5.0273   -4.2477    9.1129 C   0  0  0  0  0  0  0  0  0  0  0  0
   -3.9472   -4.2657    8.4645 O   0  0  0  0  0  0  0  0  0  0  0  0
   -5.7758   -5.4256    9.4893 C   0  0  0  0  0  0  0  0  0  0  0  0
   -5.4638   -6.7596    9.2230 C   0  0  0  0  0  0  0  0  0  0  0  0
   -6.2787   -7.7566    9.7733 C   0  0  0  0  0  0  0  0  0  0  0  0
   -7.3679   -7.4103   10.5938 C   0  0  0  0  0  0  0  0  0  0  0  0
   -8.3557   -8.6697   11.3094 Cl  0  0  0  0  0  0  0  0  0  0  0  0
   -7.6567   -6.0610   10.8575 C   0  0  0  0  0  0  0  0  0  0  0  0
   -6.8585   -5.0621   10.2717 C   0  0  0  0  0  0  0  0  0  0  0  0
   -6.9189   -3.5765   10.3882 C   0  0  0  0  0  0  0  0  0  0  0  0
   -7.9785   -2.8319   10.8030 C   0  0  0  0  0  0  0  0  0  0  0  0
   -8.0166   -1.3983   10.6686 C   0  0  0  0  0  0  0  0  0  0  0  0
   -8.0563   -0.2464   10.5590 N   0  0  0  0  0  0  0  0  0  0  0  0
   -9.1979   -3.4227   11.2833 C   0  0  0  0  0  0  0  0  0  0  0  0
  -10.1872   -3.8831   11.6693 N   0  0  0  0  0  0  0  0  0  0  0  0
   -0.6240    6.4117   -9.3257 H   0  0  0  0  0  0  0  0  0  0  0  0
   -0.6975    0.2624  -10.4536 H   0  0  0  0  0  0  0  0  0  0  0  0
   -2.0903   -1.7193  -10.9905 H   0  0  0  0  0  0  0  0  0  0  0  0
   -4.2376   -2.6733  -11.7312 H   0  0  0  0  0  0  0  0  0  0  0  0
   -5.8557    1.2606  -12.2956 H   0  0  0  0  0  0  0  0  0  0  0  0
   -4.4952    3.2321  -11.7441 H   0  0  0  0  0  0  0  0  0  0  0  0
    1.8802    7.0712   -8.2857 H   0  0  0  0  0  0  0  0  0  0  0  0
    4.6056    6.7826   -8.1954 H   0  0  0  0  0  0  0  0  0  0  0  0
    5.8130    7.2649   -6.9553 H   0  0  0  0  0  0  0  0  0  0  0  0
    5.9415    4.8248   -6.2097 H   0  0  0  0  0  0  0  0  0  0  0  0
    4.9216    4.4079   -7.6526 H   0  0  0  0  0  0  0  0  0  0  0  0
    6.5466    5.1464   -7.8781 H   0  0  0  0  0  0  0  0  0  0  0  0
    2.5705    1.6940   -7.5473 H   0  0  0  0  0  0  0  0  0  0  0  0
    3.8758    0.8753   -9.4596 H   0  0  0  0  0  0  0  0  0  0  0  0
    6.3269    0.6544   -9.2948 H   0  0  0  0  0  0  0  0  0  0  0  0
    8.3552    2.0291   -6.5335 H   0  0  0  0  0  0  0  0  0  0  0  0
    8.4004    1.2398   -8.1406 H   0  0  0  0  0  0  0  0  0  0  0  0
    9.3378   -0.2622   -6.4125 H   0  0  0  0  0  0  0  0  0  0  0  0
    7.8197   -0.1562   -5.4451 H   0  0  0  0  0  0  0  0  0  0  0  0
    7.8079   -0.9697   -7.0628 H   0  0  0  0  0  0  0  0  0  0  0  0
    6.1878    2.1412   -5.2559 H   0  0  0  0  0  0  0  0  0  0  0  0
    1.5124   -2.2209    8.4347 H   0  0  0  0  0  0  0  0  0  0  0  0
    1.7917   -4.2862    9.7660 H   0  0  0  0  0  0  0  0  0  0  0  0
    0.5877   -6.3494    9.1404 H   0  0  0  0  0  0  0  0  0  0  0  0
   -1.2565   -7.3866    7.9177 H   0  0  0  0  0  0  0  0  0  0  0  0
   -2.1684   -6.4534    6.6925 H   0  0  0  0  0  0  0  0  0  0  0  0
   -0.9397   -8.3926    5.6877 H   0  0  0  0  0  0  0  0  0  0  0  0
   -0.3616   -6.8251    5.0154 H   0  0  0  0  0  0  0  0  0  0  0  0
    0.6279   -7.7024    6.2554 H   0  0  0  0  0  0  0  0  0  0  0  0
   -1.2029   -4.2850    5.8094 H   0  0  0  0  0  0  0  0  0  0  0  0
    0.2531    3.0938   -0.0462 H   0  0  0  0  0  0  0  0  0  0  0  0
    1.5000    3.9468   -0.9051 H   0  0  0  0  0  0  0  0  0  0  0  0
    3.1489    3.6940    0.9395 H   0  0  0  0  0  0  0  0  0  0  0  0
    1.6863    4.6552    1.3835 H   0  0  0  0  0  0  0  0  0  0  0  0
    1.8695    2.9657    1.9749 H   0  0  0  0  0  0  0  0  0  0  0  0
   -1.2506    1.1356    2.6515 H   0  0  0  0  0  0  0  0  0  0  0  0
   -0.3524    2.3587    1.8159 H   0  0  0  0  0  0  0  0  0  0  0  0
   -2.1014    1.3274    0.3597 H   0  0  0  0  0  0  0  0  0  0  0  0
   -1.4695   -0.3233    0.7098 H   0  0  0  0  0  0  0  0  0  0  0  0
   -0.5136    0.8208   -0.3096 H   0  0  0  0  0  0  0  0  0  0  0  0
   -0.6103   -0.6901    9.2453 H   0  0  0  0  0  0  0  0  0  0  0  0
   -2.2610    1.0115   12.7773 H   0  0  0  0  0  0  0  0  0  0  0  0
   -1.8483    1.2159   11.0419 H   0  0  0  0  0  0  0  0  0  0  0  0
   -4.2555    1.1276   10.4319 H   0  0  0  0  0  0  0  0  0  0  0  0
   -4.0049    2.3446   11.7272 H   0  0  0  0  0  0  0  0  0  0  0  0
   -4.7026    0.7393   12.1453 H   0  0  0  0  0  0  0  0  0  0  0  0
   -5.5193   -1.1514   10.5656 H   0  0  0  0  0  0  0  0  0  0  0  0
   -4.6063   -7.0232    8.6158 H   0  0  0  0  0  0  0  0  0  0  0  0
   -6.0551   -8.7976    9.5772 H   0  0  0  0  0  0  0  0  0  0  0  0
   -8.4599   -5.8281   11.5327 H   0  0  0  0  0  0  0  0  0  0  0  0
  1  2  2  3
  2  3  1  0
  3  4  2  0
  3  5  1  0
  5  6  2  0
  6  7  1  0
  7  8  2  0
  8  9  1  0
  9 10  2  0
 10 11  1  0
 10 12  1  0
 12 13  2  0
 13 14  1  0
 14 15  2  0
 15 16  1  0
 16 17  2  3
 17 18  1  0
 18 19  3  0
 17 20  1  0
 20 21  3  0
  1 22  1  0
 22 23  2  0
 23 24  1  0
 24 25  1  0
 25 26  1  0
 26 27  1  0
 24 28  2  0
 28 29  1  0
 28 30  1  0
 30 31  2  0
 31 32  1  0
 32 33  2  0
 33 34  1  0
 34 35  2  0
 35 36  1  0
 36 37  1  0
 37 38  1  0
 36 39  2  0
 31 40  1  0
 40 41  1  0
 41 42  1  0
 42 43  1  0
 43 44  1  0
 44 45  1  0
 45 46  2  0
 46 47  1  0
 47 48  1  0
 45 49  1  0
 49 50  1  0
 50 51  1  0
 51 52  1  0
 52 53  1  0
 53 54  1  0
 54 55  2  0
 55 56  1  0
 56 57  2  0
 57 58  1  0
 58 59  1  0
 59 60  1  0
 58 61  2  0
 53 62  2  0
 62 63  1  0
 63 64  1  0
 64 65  1  0
 65 66  1  0
 66 67  1  0
 67 68  1  0
 68 69  1  0
 69 70  1  0
 70 71  1  0
 71 72  1  0
 69 73  1  0
 73 74  1  0
 66 75  1  0
 75 76  1  0
 62 77  1  0
 77 78  2  0
 78 79  1  0
 79 80  1  0
 80 81  1  0
 81 82  1  0
 79 83  2  0
 83 84  1  0
 83 85  1  0
 85 86  2  3
 86 87  1  0
 87 88  2  0
 87 89  1  0
 89 90  2  0
 90 91  1  0
 91 92  2  0
 92 93  1  0
 92 94  1  0
 94 95  2  0
 95 96  1  0
 96 97  2  3
 97 98  1  0
 98 99  3  0
 97100  1  0
100101  3  0
 16  2  1  0
 29 22  1  0
 72 30  1  0
 84 77  1  0
 96 86  1  0
 15  5  1  0
 39 32  1  0
 71 40  2  0
 95 89  1  0
 13  7  1  0
 70 42  2  0
 68 43  2  0
 48 44  2  0
 67 49  2  0
 65 50  2  0
 64 52  2  0
 61 54  1  0
  1102  1  0
  6103  1  0
  8104  1  0
  9105  1  0
 12106  1  0
 14107  1  0
 23108  1  0
 26109  1  0
 26110  1  0
 27111  1  0
 27112  1  0
 27113  1  0
 33114  1  0
 34115  1  0
 35116  1  0
 37117  1  0
 37118  1  0
 38119  1  0
 38120  1  0
 38121  1  0
 39122  1  0
 55123  1  0
 56124  1  0
 57125  1  0
 59126  1  0
 59127  1  0
 60128  1  0
 60129  1  0
 60130  1  0
 61131  1  0
 73132  1  0
 73133  1  0
 74134  1  0
 74135  1  0
 74136  1  0
 75137  1  0
 75138  1  0
 76139  1  0
 76140  1  0
 76141  1  0
 78142  1  0
 81143  1  0
 81144  1  0
 82145  1  0
 82146  1  0
 82147  1  0
 85148  1  0
 90149  1  0
 91150  1  0
 94151  1  0
M  END

